=
 OpenBabel10232408333D

 69 73  0  0  1  0  0  0  0  0999 V2000
  184.7420  178.2990  139.4120 C   0  0  2  0  0  3  0  0  0  0  0  0
  188.2390  177.9330  136.2970 C   0  0  0  0  0  3  0  0  0  0  0  0
  187.1920  177.1370  136.0100 C   0  0  0  0  0  0  0  0  0  0  0  0
  185.8230  173.1760  135.1730 C   0  0  0  0  0  2  0  0  0  0  0  0
  181.3920  174.8350  136.4280 C   0  0  0  0  0  0  0  0  0  0  0  0
  180.6900  177.5080  138.5740 C   0  0  0  0  0  1  0  0  0  0  0  0
  189.3130  179.3870  137.9030 N   0  0  0  0  0  1  0  0  0  0  0  0
  182.9740  176.5350  139.1550 C   0  0  0  0  0  0  0  0  0  0  0  0
  184.4410  172.7360  135.6130 C   0  0  0  0  0  2  0  0  0  0  0  0
  182.2150  173.5950  136.2730 C   0  0  0  0  0  2  0  0  0  0  0  0
  187.0480  178.8790  138.1630 O   0  0  0  0  0  0  0  0  0  0  0  0
  187.3960  175.9990  135.0360 C   0  0  0  0  0  2  0  0  0  0  0  0
  188.0620  179.1170  137.2170 C   0  0  2  0  0  3  0  0  0  0  0  0
  183.4600  173.8830  135.4560 C   0  0  0  0  0  2  0  0  0  0  0  0
  187.6600  174.6880  135.6510 N   0  0  0  0  0  0  0  0  0  0  0  0
  185.8610  178.6920  137.4210 C   0  0  2  0  0  3  0  0  0  0  0  0
  184.6810  178.9440  138.1610 O   0  0  0  0  0  0  0  0  0  0  0  0
  182.0380  176.1170  136.8590 C   0  0  2  0  0  3  0  0  0  0  0  0
  180.1790  174.7790  136.2680 O   0  0  0  0  0  0  0  0  0  0  0  0
  186.4140  174.1550  136.1770 C   0  0  0  0  0  2  0  0  0  0  0  0
  183.6570  175.5430  139.3450 O   0  0  0  0  0  0  0  0  0  0  0  0
  181.7200  176.4070  138.3320 C   0  0  2  0  0  3  0  0  0  0  0  0
  183.3530  177.8210  139.8250 C   0  0  0  0  0  2  0  0  0  0  0  0
  185.8690  177.3260  136.7190 C   0  0  0  0  0  2  0  0  0  0  0  0
  181.7130  177.2390  135.8680 C   0  0  0  0  0  2  0  0  0  0  0  0
  180.2310  177.5540  135.8560 C   0  0  0  0  0  2  0  0  0  0  0  0
  179.9820  178.8900  136.5230 C   0  0  0  0  0  2  0  0  0  0  0  0
  180.6490  179.9950  135.7230 C   0  0  0  0  0  2  0  0  0  0  0  0
  181.5950  180.6410  136.5190 O   0  0  0  0  0  0  0  0  0  0  0  0
  180.8540  181.4550  137.3870 C   0  0  2  0  0  3  0  0  0  0  0  0
  181.0480  183.1220  135.6680 O   0  0  0  0  0  1  0  0  0  0  0  0
  179.9820  183.8080  137.6840 C   0  0  0  0  0  1  0  0  0  0  0  0
  182.4140  183.3990  137.5830 C   0  0  0  0  0  1  0  0  0  0  0  0
  181.0650  182.9410  137.0550 C   0  0  0  0  0  0  0  0  0  0  0  0
  179.9820  180.7900  139.6360 C   0  0  0  0  0  1  0  0  0  0  0  0
  181.2250  181.1410  138.8360 C   0  0  0  0  0  2  0  0  0  0  0  0
  185.2940  179.2510  140.4810 C   0  0  0  0  0  2  0  0  0  0  0  0
  185.7200  178.7200  144.3520 C   0  0  1  0  0  3  0  0  0  0  0  0
  183.5930  178.9140  142.1750 C   0  0  0  0  0  3  0  0  0  0  0  0
  186.0040  178.5240  142.8580 C   0  0  2  0  0  3  0  0  0  0  0  0
  184.0630  179.4080  144.7980 S   0  0  0  0  0  0  0  0  0  0  0  0
  184.8970  178.8740  141.8750 C   0  0  0  0  0  0  0  0  0  0  0  0
  185.6560  177.3280  143.7320 C   0  0  0  0  0  2  0  0  0  0  0  0
  183.0760  178.5610  143.5260 C   0  0  1  0  0  3  0  0  0  0  0  0
  181.6330  178.9210  143.6460 C   0  0  0  0  0  0  0  0  0  0  0  0
  181.0930  179.8710  142.7910 O   0  0  0  0  0  0  0  0  0  0  0  0
  180.9090  178.3870  144.5260 O   0  0  0  0  0  1  0  0  0  0  0  0
  188.6300  174.7970  136.7400 C   0  0  0  0  0  2  0  0  0  0  0  0
  189.4410  173.5210  136.8630 C   0  0  0  0  0  2  0  0  0  0  0  0
  190.9140  173.8310  137.0510 C   0  0  2  0  0  3  0  0  0  0  0  0
  190.0710  176.2880  142.9950 C   0  0  0  0  0  2  0  0  0  0  0  0
  191.1020  175.2700  136.9450 N   0  0  0  0  0  2  0  0  0  0  0  0
  191.1430  177.3790  137.9010 O   0  0  0  0  0  0  0  0  0  0  0  0
  190.1300  178.4850  141.8900 C   0  0  0  0  0  2  0  0  0  0  0  0
  190.4770  176.3510  140.5740 C   0  0  0  0  0  0  0  0  0  0  0  0
  190.9560  176.1470  138.0630 C   0  0  0  0  0  0  0  0  0  0  0  0
  190.6280  175.6130  139.3540 N   0  0  0  0  0  2  0  0  0  0  0  0
  190.2890  175.6810  141.6790 N   0  0  0  0  0  0  0  0  0  0  0  0
  190.6340  177.8550  140.5950 C   0  0  0  0  0  2  0  0  0  0  0  0
  190.6560  177.6930  143.0710 C   0  0  0  0  0  2  0  0  0  0  0  0
  193.1060  172.9290  136.1310 C   0  0  0  0  0  0  0  0  0  0  0  0
  191.6980  173.1620  136.0190 N   0  0  0  0  0  2  0  0  0  0  0  0
  193.7120  172.3580  135.1870 O   0  0  0  0  0  0  0  0  0  0  0  0
  193.8610  173.3390  137.3690 C   0  0  2  0  0  3  0  0  0  0  0  0
  194.8820  174.4560  137.1060 C   0  0  2  0  0  3  0  0  0  0  0  0
  195.3790  175.0470  138.4150 C   0  0  0  0  0  1  0  0  0  0  0  0
  194.2960  175.4760  136.3540 O   0  0  0  0  0  1  0  0  0  0  0  0
  194.4590  172.1290  138.0970 C   0  0  0  0  0  2  0  0  0  0  0  0
  195.8630  171.7960  137.6190 C   0  0  0  0  0  1  0  0  0  0  0  0
  1 23  1  0  0  0  0
  1 37  1  1  0  0  0
  2 13  1  0  0  0  0
  3  2  2  0  0  0  0
  3 24  1  0  0  0  0
  4  9  1  0  0  0  0
  4 20  1  0  0  0  0
  5 18  1  0  0  0  0
  8 21  2  0  0  0  0
  8 23  1  0  0  0  0
 10  5  1  0  0  0  0
 12 15  1  0  0  0  0
 12  3  1  0  0  0  0
 13  7  1  1  0  0  0
 13 11  1  0  0  0  0
 14  9  1  0  0  0  0
 14 10  1  0  0  0  0
 15 20  1  0  0  0  0
 15 48  1  0  0  0  0
 16 24  1  1  0  0  0
 16 17  1  0  0  0  0
 16 11  1  0  0  0  0
 17  1  1  0  0  0  0
 18 25  1  6  0  0  0
 18 22  1  0  0  0  0
 19  5  2  0  0  0  0
 22  6  1  6  0  0  0
 22  8  1  0  0  0  0
 26 25  1  0  0  0  0
 26 27  1  0  0  0  0
 28 29  1  0  0  0  0
 28 27  1  0  0  0  0
 29 30  1  0  0  0  0
 30 36  1  1  0  0  0
 31 34  1  0  0  0  0
 34 30  1  0  0  0  0
 34 33  1  0  0  0  0
 34 32  1  0  0  0  0
 36 35  1  0  0  0  0
 37 42  1  0  0  0  0
 38 43  1  1  0  0  0
 38 41  1  0  0  0  0
 39 44  1  0  0  0  0
 40 43  1  1  0  0  0
 40 38  1  0  0  0  0
 42 39  2  0  0  0  0
 42 40  1  0  0  0  0
 44 45  1  6  0  0  0
 44 41  1  0  0  0  0
 45 47  1  0  0  0  0
 46 45  2  0  0  0  0
 48 49  1  0  0  0  0
 50 49  1  6  0  0  0
 51 60  1  0  0  0  0
 52 50  1  0  0  0  0
 52 56  1  0  0  0  0
 53 56  2  0  0  0  0
 54 60  1  0  0  0  0
 55 59  1  0  0  0  0
 55 58  2  0  0  0  0
 56 57  1  0  0  0  0
 57 55  1  0  0  0  0
 58 51  1  0  0  0  0
 59 54  1  0  0  0  0
 61 64  1  0  0  0  0
 62 61  1  0  0  0  0
 62 50  1  0  0  0  0
 63 61  2  0  0  0  0
 64 68  1  6  0  0  0
 65 64  1  0  0  0  0
 65 66  1  1  0  0  0
 67 65  1  0  0  0  0
 69 68  1  0  0  0  0
M  END
>  <MODEL>
1

>  <REMARK>
 VINA RESULT:      -4.5      0.000      0.000
  Name = 
  19 active torsions:
  status: ('A' for Active; 'I' for Inactive)
    1  A    between atoms: C_2  and  C_43
    2  A    between atoms: C_3  and  C_51
    3  A    between atoms: C_10  and  C_64
    4  A    between atoms: N_17  and  C_69
    5  A    between atoms: C_18  and  C_43
    6  A    between atoms: C_26  and  C_51
    7  A    between atoms: N_33  and  C_46
    8  A    between atoms: C_37  and  C_43
    9  A    between atoms: C_39  and  C_67
   10  A    between atoms: O_41  and  C_47
   11  A    between atoms: O_41  and  C_67
   12  A    between atoms: C_42  and  C_47
   13  A    between atoms: C_42  and  C_65
   14  A    between atoms: C_46  and  C_61
   15  A    between atoms: C_50  and  C_55
   16  A    between atoms: N_52  and  C_69
   17  A    between atoms: C_55  and  C_65
   18  A    between atoms: C_60  and  C_67
   19  A    between atoms: C_61  and  C_69
                            x       y       z     vdW  Elec       q    Type
                         _______ _______ _______ _____ _____    ______ ____

>  <TORSDO>
F 19

$$$$
=
 OpenBabel10232408333D

 69 73  0  0  1  0  0  0  0  0999 V2000
  187.0390  177.3020  137.6060 C   0  0  2  0  0  3  0  0  0  0  0  0
  189.4840  173.5930  136.0760 C   0  0  0  0  0  3  0  0  0  0  0  0
  190.0530  174.2000  137.1340 C   0  0  0  0  0  0  0  0  0  0  0  0
  193.5540  176.0340  138.7590 C   0  0  0  0  0  2  0  0  0  0  0  0
  190.5240  178.0950  142.0050 C   0  0  0  0  0  0  0  0  0  0  0  0
  187.1190  178.7640  141.5560 C   0  0  0  0  0  1  0  0  0  0  0  0
  187.7960  173.6730  134.3470 N   0  0  0  0  0  1  0  0  0  0  0  0
  188.2750  178.7020  139.2840 C   0  0  0  0  0  0  0  0  0  0  0  0
  193.4300  177.1720  139.7530 C   0  0  0  0  0  2  0  0  0  0  0  0
  191.8730  178.2170  141.3680 C   0  0  0  0  0  2  0  0  0  0  0  0
  187.5960  175.0820  136.2000 O   0  0  0  0  0  0  0  0  0  0  0  0
  191.5050  173.9090  137.4380 C   0  0  0  0  0  2  0  0  0  0  0  0
  188.0200  173.8090  135.7750 C   0  0  2  0  0  3  0  0  0  0  0  0
  192.2560  176.9220  140.6790 C   0  0  0  0  0  2  0  0  0  0  0  0
  192.4640  174.8960  136.9140 N   0  0  0  0  0  0  0  0  0  0  0  0
  187.7860  175.1080  137.5990 C   0  0  2  0  0  3  0  0  0  0  0  0
  186.9770  176.0590  138.2650 O   0  0  0  0  0  0  0  0  0  0  0  0
  189.3730  177.5370  141.2230 C   0  0  2  0  0  3  0  0  0  0  0  0
  190.3520  178.5160  143.1410 O   0  0  0  0  0  0  0  0  0  0  0  0
  192.4190  176.0860  137.7470 C   0  0  0  0  0  2  0  0  0  0  0  0
  189.2300  179.0310  138.6000 O   0  0  0  0  0  0  0  0  0  0  0  0
  188.4310  178.6650  140.7800 C   0  0  2  0  0  3  0  0  0  0  0  0
  186.9580  178.4400  138.6190 C   0  0  0  0  0  2  0  0  0  0  0  0
  189.2790  175.2180  137.9410 C   0  0  0  0  0  2  0  0  0  0  0  0
  188.7220  176.3780  141.9850 C   0  0  0  0  0  2  0  0  0  0  0  0
  188.5090  176.7260  143.4440 C   0  0  0  0  0  2  0  0  0  0  0  0
  187.0730  176.4480  143.8360 C   0  0  0  0  0  2  0  0  0  0  0  0
  186.8080  176.9950  145.2280 C   0  0  0  0  0  2  0  0  0  0  0  0
  188.0030  177.4480  145.7870 O   0  0  0  0  0  0  0  0  0  0  0  0
  187.8720  177.2330  147.1660 C   0  0  2  0  0  3  0  0  0  0  0  0
  189.0140  179.3400  147.3350 O   0  0  0  0  0  1  0  0  0  0  0  0
  186.7240  179.3280  147.9870 C   0  0  0  0  0  1  0  0  0  0  0  0
  188.4650  178.2560  149.3690 C   0  0  0  0  0  1  0  0  0  0  0  0
  188.0320  178.5500  147.9420 C   0  0  0  0  0  0  0  0  0  0  0  0
  190.2730  176.5300  147.1270 C   0  0  0  0  0  1  0  0  0  0  0  0
  188.8810  176.1810  147.6250 C   0  0  0  0  0  2  0  0  0  0  0  0
  185.8910  177.4320  136.5970 C   0  0  0  0  0  2  0  0  0  0  0  0
  182.8200  175.2000  137.6170 C   0  0  1  0  0  3  0  0  0  0  0  0
  184.0840  177.9270  138.1360 C   0  0  0  0  0  3  0  0  0  0  0  0
  183.8360  175.8650  136.6810 C   0  0  2  0  0  3  0  0  0  0  0  0
  182.6010  175.9700  139.2840 S   0  0  0  0  0  0  0  0  0  0  0  0
  184.5480  177.1130  137.1800 C   0  0  0  0  0  0  0  0  0  0  0  0
  182.3450  176.0850  136.4690 C   0  0  0  0  0  2  0  0  0  0  0  0
  182.7640  177.7140  138.7910 C   0  0  1  0  0  3  0  0  0  0  0  0
  182.6110  178.6160  139.9690 C   0  0  0  0  0  0  0  0  0  0  0  0
  181.6650  179.6300  139.9350 O   0  0  0  0  0  0  0  0  0  0  0  0
  183.3450  178.4790  140.9830 O   0  0  0  0  0  1  0  0  0  0  0  0
  192.1470  175.2660  135.5360 C   0  0  0  0  0  2  0  0  0  0  0  0
  192.0330  174.0290  134.6640 C   0  0  0  0  0  2  0  0  0  0  0  0
  193.1020  173.0130  135.0220 C   0  0  2  0  0  3  0  0  0  0  0  0
  197.3870  174.5720  139.6350 C   0  0  0  0  0  2  0  0  0  0  0  0
  194.3360  173.3820  134.3460 N   0  0  0  0  0  2  0  0  0  0  0  0
  196.5330  174.1120  134.4050 O   0  0  0  0  0  0  0  0  0  0  0  0
  198.8020  175.3690  137.7870 C   0  0  0  0  0  2  0  0  0  0  0  0
  196.5620  174.2780  137.3410 C   0  0  0  0  0  0  0  0  0  0  0  0
  195.4970  173.8190  135.0540 C   0  0  0  0  0  0  0  0  0  0  0  0
  195.4780  173.8920  136.4870 N   0  0  0  0  0  2  0  0  0  0  0  0
  196.3960  174.1740  138.6320 N   0  0  0  0  0  0  0  0  0  0  0  0
  197.8950  174.6960  136.7610 C   0  0  0  0  0  2  0  0  0  0  0  0
  198.8010  174.5550  139.0670 C   0  0  0  0  0  2  0  0  0  0  0  0
  193.3640  170.4840  134.9820 C   0  0  0  0  0  0  0  0  0  0  0  0
  192.6890  171.6840  134.5860 N   0  0  0  0  0  2  0  0  0  0  0  0
  192.9520  169.3760  134.5490 O   0  0  0  0  0  0  0  0  0  0  0  0
  194.5400  170.5340  135.9210 C   0  0  2  0  0  3  0  0  0  0  0  0
  195.8810  170.2810  135.2170 C   0  0  2  0  0  3  0  0  0  0  0  0
  196.1290  168.7910  135.0550 C   0  0  0  0  0  1  0  0  0  0  0  0
  196.9260  170.8270  135.9630 O   0  0  0  0  0  1  0  0  0  0  0  0
  194.3230  169.6420  137.1500 C   0  0  0  0  0  2  0  0  0  0  0  0
  195.1110  170.1150  138.3610 C   0  0  0  0  0  1  0  0  0  0  0  0
  1 37  1  6  0  0  0
  1 17  1  0  0  0  0
  1 23  1  0  0  0  0
  2  3  2  0  0  0  0
  3 12  1  0  0  0  0
  3 24  1  0  0  0  0
  4  9  1  0  0  0  0
  5 19  2  0  0  0  0
  8 22  1  0  0  0  0
  9 14  1  0  0  0  0
 10  5  1  0  0  0  0
 11 16  1  0  0  0  0
 13  7  1  6  0  0  0
 13  2  1  0  0  0  0
 13 11  1  0  0  0  0
 14 10  1  0  0  0  0
 15 12  1  0  0  0  0
 15 20  1  0  0  0  0
 16 24  1  6  0  0  0
 16 17  1  0  0  0  0
 18 25  1  1  0  0  0
 18  5  1  0  0  0  0
 20  4  1  0  0  0  0
 21  8  2  0  0  0  0
 22 18  1  0  0  0  0
 22  6  1  1  0  0  0
 23  8  1  0  0  0  0
 25 26  1  0  0  0  0
 26 27  1  0  0  0  0
 27 28  1  0  0  0  0
 28 29  1  0  0  0  0
 29 30  1  0  0  0  0
 30 36  1  1  0  0  0
 30 34  1  0  0  0  0
 31 34  1  0  0  0  0
 34 32  1  0  0  0  0
 34 33  1  0  0  0  0
 35 36  1  0  0  0  0
 37 42  1  0  0  0  0
 38 43  1  6  0  0  0
 38 41  1  0  0  0  0
 39 44  1  0  0  0  0
 40 43  1  6  0  0  0
 40 42  1  0  0  0  0
 40 38  1  0  0  0  0
 42 39  2  0  0  0  0
 44 41  1  0  0  0  0
 44 45  1  1  0  0  0
 45 47  1  0  0  0  0
 46 45  2  0  0  0  0
 48 15  1  0  0  0  0
 49 48  1  0  0  0  0
 50 49  1  6  0  0  0
 52 50  1  0  0  0  0
 52 56  1  0  0  0  0
 53 56  2  0  0  0  0
 54 60  1  0  0  0  0
 55 58  2  0  0  0  0
 56 57  1  0  0  0  0
 57 55  1  0  0  0  0
 58 51  1  0  0  0  0
 59 55  1  0  0  0  0
 59 54  1  0  0  0  0
 60 51  1  0  0  0  0
 61 64  1  0  0  0  0
 62 61  1  0  0  0  0
 62 50  1  0  0  0  0
 63 61  2  0  0  0  0
 64 68  1  1  0  0  0
 65 66  1  1  0  0  0
 65 64  1  0  0  0  0
 65 67  1  0  0  0  0
 68 69  1  0  0  0  0
M  END
>  <MODEL>
2

>  <REMARK>
 VINA RESULT:      -4.0      3.070      7.889
  Name = 
  19 active torsions:
  status: ('A' for Active; 'I' for Inactive)
    1  A    between atoms: C_2  and  C_43
    2  A    between atoms: C_3  and  C_51
    3  A    between atoms: C_10  and  C_64
    4  A    between atoms: N_17  and  C_69
    5  A    between atoms: C_18  and  C_43
    6  A    between atoms: C_26  and  C_51
    7  A    between atoms: N_33  and  C_46
    8  A    between atoms: C_37  and  C_43
    9  A    between atoms: C_39  and  C_67
   10  A    between atoms: O_41  and  C_47
   11  A    between atoms: O_41  and  C_67
   12  A    between atoms: C_42  and  C_47
   13  A    between atoms: C_42  and  C_65
   14  A    between atoms: C_46  and  C_61
   15  A    between atoms: C_50  and  C_55
   16  A    between atoms: N_52  and  C_69
   17  A    between atoms: C_55  and  C_65
   18  A    between atoms: C_60  and  C_67
   19  A    between atoms: C_61  and  C_69
                            x       y       z     vdW  Elec       q    Type
                         _______ _______ _______ _____ _____    ______ ____

>  <TORSDO>
F 19

$$$$
=
 OpenBabel10232408333D

 69 73  0  0  1  0  0  0  0  0999 V2000
  187.5350  177.0450  137.0710 C   0  0  2  0  0  3  0  0  0  0  0  0
  189.6660  172.9720  136.0990 C   0  0  0  0  0  3  0  0  0  0  0  0
  190.2860  173.6730  137.0650 C   0  0  0  0  0  0  0  0  0  0  0  0
  193.9300  175.4300  138.4440 C   0  0  0  0  0  2  0  0  0  0  0  0
  191.0880  178.1660  141.3420 C   0  0  0  0  0  0  0  0  0  0  0  0
  187.7470  179.0380  140.7760 C   0  0  0  0  0  1  0  0  0  0  0  0
  187.9840  172.9430  134.3610 N   0  0  0  0  0  1  0  0  0  0  0  0
  188.8860  178.5620  138.5450 C   0  0  0  0  0  0  0  0  0  0  0  0
  193.9010  176.7030  139.2660 C   0  0  0  0  0  2  0  0  0  0  0  0
  192.4400  178.0880  140.7060 C   0  0  0  0  0  2  0  0  0  0  0  0
  187.9050  174.6100  135.9960 O   0  0  0  0  0  0  0  0  0  0  0  0
  191.7110  173.3120  137.4190 C   0  0  0  0  0  2  0  0  0  0  0  0
  188.2230  173.2600  135.7580 C   0  0  2  0  0  3  0  0  0  0  0  0
  192.7140  176.6810  140.2100 C   0  0  0  0  0  2  0  0  0  0  0  0
  192.7450  174.1340  136.7690 N   0  0  0  0  0  0  0  0  0  0  0  0
  188.1020  174.8180  137.3790 C   0  0  2  0  0  3  0  0  0  0  0  0
  187.3740  175.9160  137.8980 O   0  0  0  0  0  0  0  0  0  0  0  0
  189.8920  177.5980  140.6380 C   0  0  2  0  0  3  0  0  0  0  0  0
  190.9540  178.7550  142.4070 O   0  0  0  0  0  0  0  0  0  0  0  0
  192.7990  175.4300  137.4260 C   0  0  0  0  0  2  0  0  0  0  0  0
  189.8630  178.7140  137.8290 O   0  0  0  0  0  0  0  0  0  0  0  0
  189.0440  178.7250  140.0330 C   0  0  2  0  0  3  0  0  0  0  0  0
  187.5500  178.3170  137.9130 C   0  0  0  0  0  2  0  0  0  0  0  0
  189.5990  174.8550  137.7150 C   0  0  0  0  0  2  0  0  0  0  0  0
  189.1520  176.6150  141.5500 C   0  0  0  0  0  2  0  0  0  0  0  0
  188.7540  177.2660  142.8590 C   0  0  0  0  0  2  0  0  0  0  0  0
  188.7290  176.2320  143.9630 C   0  0  0  0  0  2  0  0  0  0  0  0
  188.5460  176.9200  145.3050 C   0  0  0  0  0  2  0  0  0  0  0  0
  187.5910  177.9300  145.1840 O   0  0  0  0  0  0  0  0  0  0  0  0
  186.8610  177.8920  146.3800 C   0  0  2  0  0  3  0  0  0  0  0  0
  184.5300  178.0770  146.9320 O   0  0  0  0  0  1  0  0  0  0  0  0
  185.7570  180.1160  146.8480 C   0  0  0  0  0  1  0  0  0  0  0  0
  185.1880  178.8660  144.7970 C   0  0  0  0  0  1  0  0  0  0  0  0
  185.5730  178.7240  146.2610 C   0  0  0  0  0  0  0  0  0  0  0  0
  187.9760  177.2410  148.5240 C   0  0  0  0  0  1  0  0  0  0  0  0
  187.7370  178.3710  147.5380 C   0  0  0  0  0  2  0  0  0  0  0  0
  186.3980  177.1230  136.0440 C   0  0  0  0  0  2  0  0  0  0  0  0
  182.6960  176.6950  137.2970 C   0  0  1  0  0  3  0  0  0  0  0  0
  184.9940  175.1450  136.0240 C   0  0  0  0  0  3  0  0  0  0  0  0
  184.1610  177.1460  137.3410 C   0  0  2  0  0  3  0  0  0  0  0  0
  182.2920  175.3040  136.1480 S   0  0  0  0  0  0  0  0  0  0  0  0
  185.1600  176.3960  136.4720 C   0  0  0  0  0  0  0  0  0  0  0  0
  183.5940  176.2860  138.4600 C   0  0  0  0  0  2  0  0  0  0  0  0
  183.8060  174.3230  136.3810 C   0  0  1  0  0  3  0  0  0  0  0  0
  183.7640  173.0780  135.5600 C   0  0  0  0  0  0  0  0  0  0  0  0
  182.6040  172.7520  134.8720 O   0  0  0  0  0  0  0  0  0  0  0  0
  184.7620  172.3120  135.5020 O   0  0  0  0  0  1  0  0  0  0  0  0
  192.4540  174.3310  135.3500 C   0  0  0  0  0  2  0  0  0  0  0  0
  193.7250  174.2390  134.5260 C   0  0  0  0  0  2  0  0  0  0  0  0
  194.5280  173.0080  134.9050 C   0  0  2  0  0  3  0  0  0  0  0  0
  198.3400  174.9890  139.7650 C   0  0  0  0  0  2  0  0  0  0  0  0
  195.8700  173.1460  134.3620 N   0  0  0  0  0  2  0  0  0  0  0  0
  198.1080  173.6860  134.6140 O   0  0  0  0  0  0  0  0  0  0  0  0
  200.0550  175.3240  138.0330 C   0  0  0  0  0  2  0  0  0  0  0  0
  197.7840  174.3650  137.4570 C   0  0  0  0  0  0  0  0  0  0  0  0
  196.9730  173.6010  135.1470 C   0  0  0  0  0  0  0  0  0  0  0  0
  196.7810  173.9270  136.5310 N   0  0  0  0  0  2  0  0  0  0  0  0
  197.4460  174.5050  138.7100 N   0  0  0  0  0  0  0  0  0  0  0  0
  199.2160  174.5600  137.0130 C   0  0  0  0  0  2  0  0  0  0  0  0
  199.8040  174.7520  139.4160 C   0  0  0  0  0  2  0  0  0  0  0  0
  194.0450  170.5120  134.9260 C   0  0  0  0  0  0  0  0  0  0  0  0
  193.9000  171.8150  134.3500 N   0  0  0  0  0  2  0  0  0  0  0  0
  193.4810  169.5310  134.3750 O   0  0  0  0  0  0  0  0  0  0  0  0
  194.8430  170.3100  136.1870 C   0  0  2  0  0  3  0  0  0  0  0  0
  196.2060  169.6490  135.9350 C   0  0  2  0  0  3  0  0  0  0  0  0
  196.8490  169.2300  137.2460 C   0  0  0  0  0  1  0  0  0  0  0  0
  197.0610  170.5420  135.2870 O   0  0  0  0  0  1  0  0  0  0  0  0
  194.0200  169.6060  137.2730 C   0  0  0  0  0  2  0  0  0  0  0  0
  194.3030  168.1150  137.3470 C   0  0  0  0  0  1  0  0  0  0  0  0
  1 37  1  6  0  0  0
  1 17  1  0  0  0  0
  1 23  1  0  0  0  0
  2  3  2  0  0  0  0
  3 12  1  0  0  0  0
  3 24  1  0  0  0  0
  4  9  1  0  0  0  0
  5 19  2  0  0  0  0
  8 22  1  0  0  0  0
  9 14  1  0  0  0  0
 10  5  1  0  0  0  0
 11 16  1  0  0  0  0
 13  7  1  6  0  0  0
 13 11  1  0  0  0  0
 13  2  1  0  0  0  0
 14 10  1  0  0  0  0
 15 12  1  0  0  0  0
 15 20  1  0  0  0  0
 16 24  1  6  0  0  0
 16 17  1  0  0  0  0
 18  5  1  0  0  0  0
 18 25  1  1  0  0  0
 20  4  1  0  0  0  0
 21  8  2  0  0  0  0
 22 18  1  0  0  0  0
 22  6  1  1  0  0  0
 23  8  1  0  0  0  0
 25 26  1  0  0  0  0
 26 27  1  0  0  0  0
 27 28  1  0  0  0  0
 29 28  1  0  0  0  0
 29 30  1  0  0  0  0
 30 36  1  1  0  0  0
 33 34  1  0  0  0  0
 34 30  1  0  0  0  0
 34 32  1  0  0  0  0
 34 31  1  0  0  0  0
 36 35  1  0  0  0  0
 37 42  1  0  0  0  0
 38 40  1  0  0  0  0
 38 43  1  1  0  0  0
 39 44  1  0  0  0  0
 39 42  2  0  0  0  0
 40 43  1  1  0  0  0
 41 44  1  0  0  0  0
 41 38  1  0  0  0  0
 42 40  1  0  0  0  0
 44 45  1  6  0  0  0
 46 45  2  0  0  0  0
 47 45  1  0  0  0  0
 48 15  1  0  0  0  0
 49 48  1  0  0  0  0
 50 49  1  6  0  0  0
 52 50  1  0  0  0  0
 52 56  1  0  0  0  0
 53 56  2  0  0  0  0
 54 60  1  0  0  0  0
 55 58  2  0  0  0  0
 56 57  1  0  0  0  0
 57 55  1  0  0  0  0
 58 51  1  0  0  0  0
 59 55  1  0  0  0  0
 59 54  1  0  0  0  0
 60 51  1  0  0  0  0
 61 64  1  0  0  0  0
 62 50  1  0  0  0  0
 62 61  1  0  0  0  0
 63 61  2  0  0  0  0
 64 68  1  1  0  0  0
 65 64  1  0  0  0  0
 65 66  1  1  0  0  0
 67 65  1  0  0  0  0
 68 69  1  0  0  0  0
M  END
>  <MODEL>
3

>  <REMARK>
 VINA RESULT:      -3.9      3.596      8.229
  Name = 
  19 active torsions:
  status: ('A' for Active; 'I' for Inactive)
    1  A    between atoms: C_2  and  C_43
    2  A    between atoms: C_3  and  C_51
    3  A    between atoms: C_10  and  C_64
    4  A    between atoms: N_17  and  C_69
    5  A    between atoms: C_18  and  C_43
    6  A    between atoms: C_26  and  C_51
    7  A    between atoms: N_33  and  C_46
    8  A    between atoms: C_37  and  C_43
    9  A    between atoms: C_39  and  C_67
   10  A    between atoms: O_41  and  C_47
   11  A    between atoms: O_41  and  C_67
   12  A    between atoms: C_42  and  C_47
   13  A    between atoms: C_42  and  C_65
   14  A    between atoms: C_46  and  C_61
   15  A    between atoms: C_50  and  C_55
   16  A    between atoms: N_52  and  C_69
   17  A    between atoms: C_55  and  C_65
   18  A    between atoms: C_60  and  C_67
   19  A    between atoms: C_61  and  C_69
                            x       y       z     vdW  Elec       q    Type
                         _______ _______ _______ _____ _____    ______ ____

>  <TORSDO>
F 19

$$$$
=
 OpenBabel10232408333D

 69 73  0  0  1  0  0  0  0  0999 V2000
  186.8650  177.2790  137.4900 C   0  0  2  0  0  3  0  0  0  0  0  0
  189.2940  173.5080  136.0950 C   0  0  0  0  0  3  0  0  0  0  0  0
  189.8640  174.1470  137.1330 C   0  0  0  0  0  0  0  0  0  0  0  0
  193.3710  176.0190  138.7020 C   0  0  0  0  0  2  0  0  0  0  0  0
  190.3440  178.2050  141.8680 C   0  0  0  0  0  0  0  0  0  0  0  0
  186.9440  178.8760  141.3880 C   0  0  0  0  0  1  0  0  0  0  0  0
  187.6100  173.5370  134.3600 N   0  0  0  0  0  1  0  0  0  0  0  0
  188.1050  178.7290  139.1220 C   0  0  0  0  0  0  0  0  0  0  0  0
  193.2500  177.1910  139.6560 C   0  0  0  0  0  2  0  0  0  0  0  0
  191.6950  178.2990  141.2310 C   0  0  0  0  0  2  0  0  0  0  0  0
  187.4140  175.0090  136.1630 O   0  0  0  0  0  0  0  0  0  0  0  0
  191.3140  173.8600  137.4500 C   0  0  0  0  0  2  0  0  0  0  0  0
  187.8320  173.7200  135.7830 C   0  0  2  0  0  3  0  0  0  0  0  0
  192.0730  176.9780  140.5880 C   0  0  0  0  0  2  0  0  0  0  0  0
  192.2790  174.8230  136.8950 N   0  0  0  0  0  0  0  0  0  0  0  0
  187.6010  175.0820  137.5610 C   0  0  2  0  0  3  0  0  0  0  0  0
  186.7950  176.0600  138.1920 O   0  0  0  0  0  0  0  0  0  0  0  0
  189.1920  177.6270  141.1030 C   0  0  2  0  0  3  0  0  0  0  0  0
  190.1720  178.6660  142.9890 O   0  0  0  0  0  0  0  0  0  0  0  0
  192.2380  176.0410  137.6860 C   0  0  0  0  0  2  0  0  0  0  0  0
  189.0630  179.0300  138.4300 O   0  0  0  0  0  0  0  0  0  0  0  0
  188.2570  178.7440  140.6190 C   0  0  2  0  0  3  0  0  0  0  0  0
  186.7880  178.4520  138.4640 C   0  0  0  0  0  2  0  0  0  0  0  0
  189.0930  175.1970  137.9030 C   0  0  0  0  0  2  0  0  0  0  0  0
  188.5330  176.4980  141.9020 C   0  0  0  0  0  2  0  0  0  0  0  0
  189.1490  176.3630  143.2800 C   0  0  0  0  0  2  0  0  0  0  0  0
  188.0790  176.0170  144.2930 C   0  0  0  0  0  2  0  0  0  0  0  0
  188.2620  176.8640  145.5400 C   0  0  0  0  0  2  0  0  0  0  0  0
  189.4650  177.5650  145.4560 O   0  0  0  0  0  0  0  0  0  0  0  0
  189.9560  177.6140  146.7680 C   0  0  2  0  0  3  0  0  0  0  0  0
  190.4350  175.3120  147.2600 O   0  0  0  0  0  1  0  0  0  0  0  0
  191.9310  176.4010  145.7600 C   0  0  0  0  0  1  0  0  0  0  0  0
  191.9080  176.9280  148.1720 C   0  0  0  0  0  1  0  0  0  0  0  0
  191.0390  176.5440  146.9860 C   0  0  0  0  0  0  0  0  0  0  0  0
  188.1170  178.7980  147.9830 C   0  0  0  0  0  1  0  0  0  0  0  0
  188.8040  177.4620  147.7600 C   0  0  0  0  0  2  0  0  0  0  0  0
  185.7200  177.3800  136.4740 C   0  0  0  0  0  2  0  0  0  0  0  0
  182.6430  178.6180  138.5840 C   0  0  1  0  0  3  0  0  0  0  0  0
  183.4560  176.5110  136.5340 C   0  0  0  0  0  3  0  0  0  0  0  0
  184.0940  178.2110  138.3050 C   0  0  2  0  0  3  0  0  0  0  0  0
  181.3670  178.0100  137.3910 S   0  0  0  0  0  0  0  0  0  0  0  0
  184.3610  177.3190  137.1030 C   0  0  0  0  0  0  0  0  0  0  0  0
  183.3000  177.5060  139.3950 C   0  0  0  0  0  2  0  0  0  0  0  0
  182.0740  176.3650  137.0670 C   0  0  1  0  0  3  0  0  0  0  0  0
  181.2220  175.6000  136.1120 C   0  0  0  0  0  0  0  0  0  0  0  0
  181.2980  174.2150  136.0880 O   0  0  0  0  0  1  0  0  0  0  0  0
  180.4520  176.1980  135.3150 O   0  0  0  0  0  0  0  0  0  0  0  0
  191.9670  175.1470  135.5040 C   0  0  0  0  0  2  0  0  0  0  0  0
  191.9650  173.8920  134.6510 C   0  0  0  0  0  2  0  0  0  0  0  0
  193.0570  172.9350  135.0930 C   0  0  2  0  0  3  0  0  0  0  0  0
  197.4120  174.8060  139.5200 C   0  0  0  0  0  2  0  0  0  0  0  0
  194.2770  173.2620  134.3730 N   0  0  0  0  0  2  0  0  0  0  0  0
  196.4730  174.0000  134.3470 O   0  0  0  0  0  0  0  0  0  0  0  0
  198.7930  175.4830  137.6000 C   0  0  0  0  0  2  0  0  0  0  0  0
  196.5500  174.3590  137.2650 C   0  0  0  0  0  0  0  0  0  0  0  0
  195.4490  173.7480  135.0310 C   0  0  0  0  0  0  0  0  0  0  0  0
  195.4530  173.9140  136.4560 N   0  0  0  0  0  2  0  0  0  0  0  0
  196.4050  174.3400  138.5620 N   0  0  0  0  0  0  0  0  0  0  0  0
  197.8710  174.7420  136.6360 C   0  0  0  0  0  2  0  0  0  0  0  0
  198.8160  174.7560  138.9300 C   0  0  0  0  0  2  0  0  0  0  0  0
  193.5080  170.4330  135.0450 C   0  0  0  0  0  0  0  0  0  0  0  0
  192.6670  171.5620  134.7880 N   0  0  0  0  0  2  0  0  0  0  0  0
  193.1010  169.2820  134.7380 O   0  0  0  0  0  0  0  0  0  0  0  0
  194.8560  170.6060  135.6940 C   0  0  2  0  0  3  0  0  0  0  0  0
  196.0230  170.3430  134.7310 C   0  0  2  0  0  3  0  0  0  0  0  0
  196.0830  168.8720  134.3500 C   0  0  0  0  0  1  0  0  0  0  0  0
  197.2320  170.6950  135.3320 O   0  0  0  0  0  1  0  0  0  0  0  0
  194.9620  169.8160  137.0040 C   0  0  0  0  0  2  0  0  0  0  0  0
  194.9960  170.7160  138.2280 C   0  0  0  0  0  1  0  0  0  0  0  0
  1 37  1  6  0  0  0
  1 17  1  0  0  0  0
  1 23  1  0  0  0  0
  2  3  2  0  0  0  0
  3 12  1  0  0  0  0
  3 24  1  0  0  0  0
  4  9  1  0  0  0  0
  5 19  2  0  0  0  0
  8 22  1  0  0  0  0
  9 14  1  0  0  0  0
 10  5  1  0  0  0  0
 11 16  1  0  0  0  0
 13  7  1  6  0  0  0
 13  2  1  0  0  0  0
 13 11  1  0  0  0  0
 14 10  1  0  0  0  0
 15 12  1  0  0  0  0
 15 20  1  0  0  0  0
 16 24  1  6  0  0  0
 16 17  1  0  0  0  0
 18  5  1  0  0  0  0
 18 25  1  1  0  0  0
 20  4  1  0  0  0  0
 21  8  2  0  0  0  0
 22 18  1  0  0  0  0
 22  6  1  1  0  0  0
 23  8  1  0  0  0  0
 25 26  1  0  0  0  0
 26 27  1  0  0  0  0
 27 28  1  0  0  0  0
 29 28  1  0  0  0  0
 29 30  1  0  0  0  0
 30 34  1  0  0  0  0
 30 36  1  1  0  0  0
 32 34  1  0  0  0  0
 34 31  1  0  0  0  0
 34 33  1  0  0  0  0
 36 35  1  0  0  0  0
 37 42  1  0  0  0  0
 38 43  1  1  0  0  0
 39 44  1  0  0  0  0
 39 42  2  0  0  0  0
 40 38  1  0  0  0  0
 40 43  1  1  0  0  0
 41 38  1  0  0  0  0
 42 40  1  0  0  0  0
 44 45  1  6  0  0  0
 44 41  1  0  0  0  0
 46 45  1  0  0  0  0
 47 45  2  0  0  0  0
 48 15  1  0  0  0  0
 49 48  1  0  0  0  0
 50 49  1  6  0  0  0
 52 56  1  0  0  0  0
 52 50  1  0  0  0  0
 53 56  2  0  0  0  0
 54 60  1  0  0  0  0
 55 58  2  0  0  0  0
 56 57  1  0  0  0  0
 57 55  1  0  0  0  0
 58 51  1  0  0  0  0
 59 55  1  0  0  0  0
 59 54  1  0  0  0  0
 60 51  1  0  0  0  0
 61 64  1  0  0  0  0
 62 61  1  0  0  0  0
 62 50  1  0  0  0  0
 63 61  2  0  0  0  0
 64 68  1  1  0  0  0
 65 66  1  1  0  0  0
 65 67  1  0  0  0  0
 65 64  1  0  0  0  0
 68 69  1  0  0  0  0
M  END
>  <MODEL>
4

>  <REMARK>
 VINA RESULT:      -3.9      3.257      8.279
  Name = 
  19 active torsions:
  status: ('A' for Active; 'I' for Inactive)
    1  A    between atoms: C_2  and  C_43
    2  A    between atoms: C_3  and  C_51
    3  A    between atoms: C_10  and  C_64
    4  A    between atoms: N_17  and  C_69
    5  A    between atoms: C_18  and  C_43
    6  A    between atoms: C_26  and  C_51
    7  A    between atoms: N_33  and  C_46
    8  A    between atoms: C_37  and  C_43
    9  A    between atoms: C_39  and  C_67
   10  A    between atoms: O_41  and  C_47
   11  A    between atoms: O_41  and  C_67
   12  A    between atoms: C_42  and  C_47
   13  A    between atoms: C_42  and  C_65
   14  A    between atoms: C_46  and  C_61
   15  A    between atoms: C_50  and  C_55
   16  A    between atoms: N_52  and  C_69
   17  A    between atoms: C_55  and  C_65
   18  A    between atoms: C_60  and  C_67
   19  A    between atoms: C_61  and  C_69
                            x       y       z     vdW  Elec       q    Type
                         _______ _______ _______ _____ _____    ______ ____

>  <TORSDO>
F 19

$$$$
=
 OpenBabel10232408333D

 69 73  0  0  1  0  0  0  0  0999 V2000
  186.8950  173.9190  135.3370 C   0  0  2  0  0  3  0  0  0  0  0  0
  187.2250  178.5950  135.6410 C   0  0  0  0  0  3  0  0  0  0  0  0
  188.3570  177.9630  136.0030 C   0  0  0  0  0  0  0  0  0  0  0  0
  191.3460  177.4000  139.0050 C   0  0  0  0  0  2  0  0  0  0  0  0
  192.3490  173.1990  136.7010 C   0  0  0  0  0  0  0  0  0  0  0  0
  190.1530  171.3180  134.7300 C   0  0  0  0  0  1  0  0  0  0  0  0
  184.8780  178.4170  135.0890 N   0  0  0  0  0  1  0  0  0  0  0  0
  188.8140  172.7010  136.4030 C   0  0  0  0  0  0  0  0  0  0  0  0
  192.0120  176.0500  139.1770 C   0  0  0  0  0  2  0  0  0  0  0  0
  192.4850  173.9210  138.0050 C   0  0  0  0  0  2  0  0  0  0  0  0
  186.2100  176.4990  135.0340 O   0  0  0  0  0  0  0  0  0  0  0  0
  189.3890  178.7280  136.7980 C   0  0  0  0  0  2  0  0  0  0  0  0
  186.1960  177.8860  134.7940 C   0  0  2  0  0  3  0  0  0  0  0  0
  192.2270  175.4040  137.8210 C   0  0  0  0  0  2  0  0  0  0  0  0
  189.3320  178.5280  138.2560 N   0  0  0  0  0  0  0  0  0  0  0  0
  187.4980  176.0530  134.6630 C   0  0  2  0  0  3  0  0  0  0  0  0
  187.5540  174.6740  134.3470 O   0  0  0  0  0  0  0  0  0  0  0  0
  191.1500  173.4360  135.8320 C   0  0  2  0  0  3  0  0  0  0  0  0
  193.1860  172.3650  136.3830 O   0  0  0  0  0  0  0  0  0  0  0  0
  189.8960  177.2270  138.5750 C   0  0  0  0  0  2  0  0  0  0  0  0
  188.6860  173.0980  137.5500 O   0  0  0  0  0  0  0  0  0  0  0  0
  190.1740  172.2570  135.9360 C   0  0  2  0  0  3  0  0  0  0  0  0
  187.6000  172.5800  135.5340 C   0  0  0  0  0  2  0  0  0  0  0  0
  188.5430  176.4930  135.6980 C   0  0  0  0  0  2  0  0  0  0  0  0
  191.5850  173.8270  134.4170 C   0  0  0  0  0  2  0  0  0  0  0  0
  193.0770  174.0850  134.3480 C   0  0  0  0  0  2  0  0  0  0  0  0
  193.3560  175.5590  134.5490 C   0  0  0  0  0  2  0  0  0  0  0  0
  194.8030  175.7540  134.9660 C   0  0  0  0  0  2  0  0  0  0  0  0
  195.2310  174.6460  135.6960 O   0  0  0  0  0  0  0  0  0  0  0  0
  196.4290  174.2430  135.0880 C   0  0  2  0  0  3  0  0  0  0  0  0
  198.6000  173.4450  135.7340 O   0  0  0  0  0  1  0  0  0  0  0  0
  197.0050  173.6890  137.4850 C   0  0  0  0  0  1  0  0  0  0  0  0
  196.8210  171.8820  135.8140 C   0  0  0  0  0  1  0  0  0  0  0  0
  197.2370  173.3290  136.0240 C   0  0  0  0  0  0  0  0  0  0  0  0
  197.2170  176.5200  135.7610 C   0  0  0  0  0  1  0  0  0  0  0  0
  197.2330  175.4710  134.6630 C   0  0  0  0  0  2  0  0  0  0  0  0
  185.4330  173.6750  134.9410 C   0  0  0  0  0  2  0  0  0  0  0  0
  183.3370  175.4840  137.7320 C   0  0  1  0  0  3  0  0  0  0  0  0
  183.5560  172.8390  136.2290 C   0  0  0  0  0  3  0  0  0  0  0  0
  184.5920  175.0300  136.9760 C   0  0  2  0  0  3  0  0  0  0  0  0
  181.7960  174.5040  137.4460 S   0  0  0  0  0  0  0  0  0  0  0  0
  184.4770  173.8000  136.0880 C   0  0  0  0  0  0  0  0  0  0  0  0
  184.4320  174.7050  138.4540 C   0  0  0  0  0  2  0  0  0  0  0  0
  182.5530  172.8530  137.3290 C   0  0  1  0  0  3  0  0  0  0  0  0
  181.5140  171.8070  137.1060 C   0  0  0  0  0  0  0  0  0  0  0  0
  180.5360  171.5990  138.0670 O   0  0  0  0  0  1  0  0  0  0  0  0
  181.5290  171.0980  136.0660 O   0  0  0  0  0  0  0  0  0  0  0  0
  187.9560  178.5850  138.7470 C   0  0  0  0  0  2  0  0  0  0  0  0
  187.9160  178.3750  140.2490 C   0  0  0  0  0  2  0  0  0  0  0  0
  186.5060  178.0610  140.7140 C   0  0  2  0  0  3  0  0  0  0  0  0
  180.9570  178.7790  143.9970 C   0  0  0  0  0  2  0  0  0  0  0  0
  185.5660  178.7170  139.8190 N   0  0  0  0  0  2  0  0  0  0  0  0
  183.4650  179.5850  139.3760 O   0  0  0  0  0  0  0  0  0  0  0  0
  179.9900  179.4650  141.8410 C   0  0  0  0  0  2  0  0  0  0  0  0
  182.4510  178.9100  142.0530 C   0  0  0  0  0  0  0  0  0  0  0  0
  184.2190  179.0070  140.1980 C   0  0  0  0  0  0  0  0  0  0  0  0
  183.7550  178.6610  141.5110 N   0  0  0  0  0  2  0  0  0  0  0  0
  182.2430  178.6280  143.3100 N   0  0  0  0  0  0  0  0  0  0  0  0
  181.3790  179.5740  141.2180 C   0  0  0  0  0  2  0  0  0  0  0  0
  180.0730  179.8150  143.3140 C   0  0  0  0  0  2  0  0  0  0  0  0
  187.2900  178.4210  143.1060 C   0  0  0  0  0  0  0  0  0  0  0  0
  186.3090  178.5580  142.0720 N   0  0  0  0  0  2  0  0  0  0  0  0
  187.0350  178.8640  144.2570 O   0  0  0  0  0  0  0  0  0  0  0  0
  188.6210  177.7760  142.8270 C   0  0  2  0  0  3  0  0  0  0  0  0
  188.8050  176.4390  143.5600 C   0  0  2  0  0  3  0  0  0  0  0  0
  190.0330  175.7080  143.0440 C   0  0  0  0  0  1  0  0  0  0  0  0
  187.6890  175.6240  143.3620 O   0  0  0  0  0  1  0  0  0  0  0  0
  189.7840  178.7520  143.0480 C   0  0  0  0  0  2  0  0  0  0  0  0
  190.4300  178.5920  144.4140 C   0  0  0  0  0  1  0  0  0  0  0  0
  1 37  1  6  0  0  0
  1 23  1  0  0  0  0
  2  3  2  0  0  0  0
  3 12  1  0  0  0  0
  4  9  1  0  0  0  0
  5 10  1  0  0  0  0
  8 21  2  0  0  0  0
 12 15  1  0  0  0  0
 13 11  1  0  0  0  0
 13  7  1  1  0  0  0
 13  2  1  0  0  0  0
 14 10  1  0  0  0  0
 14  9  1  0  0  0  0
 15 20  1  0  0  0  0
 15 48  1  0  0  0  0
 16 11  1  0  0  0  0
 16 24  1  1  0  0  0
 17 16  1  0  0  0  0
 17  1  1  0  0  0  0
 18 25  1  6  0  0  0
 18 22  1  0  0  0  0
 18  5  1  0  0  0  0
 19  5  2  0  0  0  0
 20  4  1  0  0  0  0
 22  6  1  6  0  0  0
 22  8  1  0  0  0  0
 23  8  1  0  0  0  0
 24  3  1  0  0  0  0
 26 25  1  0  0  0  0
 26 27  1  0  0  0  0
 27 28  1  0  0  0  0
 28 29  1  0  0  0  0
 30 36  1  1  0  0  0
 30 29  1  0  0  0  0
 30 34  1  0  0  0  0
 31 34  1  0  0  0  0
 33 34  1  0  0  0  0
 34 32  1  0  0  0  0
 36 35  1  0  0  0  0
 37 42  1  0  0  0  0
 38 43  1  1  0  0  0
 39 44  1  0  0  0  0
 40 38  1  0  0  0  0
 40 43  1  1  0  0  0
 41 38  1  0  0  0  0
 42 39  2  0  0  0  0
 42 40  1  0  0  0  0
 44 45  1  6  0  0  0
 44 41  1  0  0  0  0
 45 46  1  0  0  0  0
 47 45  2  0  0  0  0
 48 49  1  0  0  0  0
 50 49  1  6  0  0  0
 50 62  1  0  0  0  0
 52 56  1  0  0  0  0
 52 50  1  0  0  0  0
 53 56  2  0  0  0  0
 54 60  1  0  0  0  0
 55 58  2  0  0  0  0
 56 57  1  0  0  0  0
 57 55  1  0  0  0  0
 58 51  1  0  0  0  0
 59 54  1  0  0  0  0
 59 55  1  0  0  0  0
 60 51  1  0  0  0  0
 61 63  2  0  0  0  0
 62 61  1  0  0  0  0
 64 68  1  1  0  0  0
 64 61  1  0  0  0  0
 64 65  1  0  0  0  0
 65 66  1  6  0  0  0
 67 65  1  0  0  0  0
 68 69  1  0  0  0  0
M  END
>  <MODEL>
5

>  <REMARK>
 VINA RESULT:      -3.4      3.154     10.280
  Name = 
  19 active torsions:
  status: ('A' for Active; 'I' for Inactive)
    1  A    between atoms: C_2  and  C_43
    2  A    between atoms: C_3  and  C_51
    3  A    between atoms: C_10  and  C_64
    4  A    between atoms: N_17  and  C_69
    5  A    between atoms: C_18  and  C_43
    6  A    between atoms: C_26  and  C_51
    7  A    between atoms: N_33  and  C_46
    8  A    between atoms: C_37  and  C_43
    9  A    between atoms: C_39  and  C_67
   10  A    between atoms: O_41  and  C_47
   11  A    between atoms: O_41  and  C_67
   12  A    between atoms: C_42  and  C_47
   13  A    between atoms: C_42  and  C_65
   14  A    between atoms: C_46  and  C_61
   15  A    between atoms: C_50  and  C_55
   16  A    between atoms: N_52  and  C_69
   17  A    between atoms: C_55  and  C_65
   18  A    between atoms: C_60  and  C_67
   19  A    between atoms: C_61  and  C_69
                            x       y       z     vdW  Elec       q    Type
                         _______ _______ _______ _____ _____    ______ ____

>  <TORSDO>
F 19

$$$$
=
 OpenBabel10232408333D

 69 73  0  0  1  0  0  0  0  0999 V2000
  191.3190  176.7900  137.5240 C   0  0  2  0  0  3  0  0  0  0  0  0
  190.0110  176.7060  142.0350 C   0  0  0  0  0  3  0  0  0  0  0  0
  188.9700  176.6580  141.1840 C   0  0  0  0  0  0  0  0  0  0  0  0
  185.2460  178.3710  139.9740 C   0  0  0  0  0  2  0  0  0  0  0  0
  185.9960  176.0830  135.7120 C   0  0  0  0  0  0  0  0  0  0  0  0
  189.0830  175.1610  134.3470 C   0  0  0  0  0  1  0  0  0  0  0  0
  192.3830  177.0690  142.3350 N   0  0  0  0  0  1  0  0  0  0  0  0
  189.4120  177.1350  135.9280 C   0  0  0  0  0  0  0  0  0  0  0  0
  184.8360  178.3550  138.5150 C   0  0  0  0  0  2  0  0  0  0  0  0
  185.2490  177.2050  136.3630 C   0  0  0  0  0  2  0  0  0  0  0  0
  191.5600  176.6260  140.1940 O   0  0  0  0  0  0  0  0  0  0  0  0
  187.5900  176.9750  141.7120 C   0  0  0  0  0  2  0  0  0  0  0  0
  191.3970  176.3360  141.5620 C   0  0  2  0  0  3  0  0  0  0  0  0
  185.2680  177.0520  137.8720 C   0  0  0  0  0  2  0  0  0  0  0  0
  187.1390  178.3600  141.4930 N   0  0  0  0  0  0  0  0  0  0  0  0
  190.6140  175.8300  139.5120 C   0  0  2  0  0  3  0  0  0  0  0  0
  190.9440  175.5890  138.1570 O   0  0  0  0  0  0  0  0  0  0  0  0
  187.3620  175.7060  136.2010 C   0  0  2  0  0  3  0  0  0  0  0  0
  185.5130  175.5210  134.7370 O   0  0  0  0  0  0  0  0  0  0  0  0
  186.7560  178.5160  140.1000 C   0  0  0  0  0  2  0  0  0  0  0  0
  189.0270  178.2250  136.3150 O   0  0  0  0  0  0  0  0  0  0  0  0
  188.4360  176.2230  135.2350 C   0  0  2  0  0  3  0  0  0  0  0  0
  190.8620  176.7820  136.0680 C   0  0  0  0  0  2  0  0  0  0  0  0
  189.1960  176.3830  139.7130 C   0  0  0  0  0  2  0  0  0  0  0  0
  187.4180  174.2110  136.5310 C   0  0  0  0  0  2  0  0  0  0  0  0
  186.0800  173.5410  136.2930 C   0  0  0  0  0  2  0  0  0  0  0  0
  185.5790  172.9180  137.5790 C   0  0  0  0  0  2  0  0  0  0  0  0
  184.1810  172.3620  137.3680 C   0  0  0  0  0  2  0  0  0  0  0  0
  183.3230  173.3930  136.9850 O   0  0  0  0  0  0  0  0  0  0  0  0
  182.4160  172.8050  136.0910 C   0  0  2  0  0  3  0  0  0  0  0  0
  180.6830  173.1560  137.7170 O   0  0  0  0  0  1  0  0  0  0  0  0
  180.8250  174.7640  135.9660 C   0  0  0  0  0  1  0  0  0  0  0  0
  179.9960  172.4750  135.5550 C   0  0  0  0  0  1  0  0  0  0  0  0
  180.9860  173.3020  136.3590 C   0  0  0  0  0  0  0  0  0  0  0  0
  182.9120  170.6960  134.8390 C   0  0  0  0  0  1  0  0  0  0  0  0
  182.5120  171.2830  136.1820 C   0  0  0  0  0  2  0  0  0  0  0  0
  192.8410  176.9740  137.5820 C   0  0  0  0  0  2  0  0  0  0  0  0
  195.0960  175.1530  134.9250 C   0  0  1  0  0  3  0  0  0  0  0  0
  194.0230  174.8640  137.7660 C   0  0  0  0  0  3  0  0  0  0  0  0
  193.8790  175.9170  135.4630 C   0  0  2  0  0  3  0  0  0  0  0  0
  196.1270  174.2550  136.1690 S   0  0  0  0  0  0  0  0  0  0  0  0
  193.6010  175.8440  136.9560 C   0  0  0  0  0  0  0  0  0  0  0  0
  193.6920  174.5780  134.7650 C   0  0  0  0  0  2  0  0  0  0  0  0
  194.7860  173.6900  137.2620 C   0  0  1  0  0  3  0  0  0  0  0  0
  195.3280  172.8900  138.3990 C   0  0  0  0  0  0  0  0  0  0  0  0
  196.0380  173.5280  139.4050 O   0  0  0  0  0  1  0  0  0  0  0  0
  195.1660  171.6430  138.4420 O   0  0  0  0  0  0  0  0  0  0  0  0
  188.1960  179.3200  141.8090 C   0  0  0  0  0  2  0  0  0  0  0  0
  188.1910  179.6510  143.2900 C   0  0  0  0  0  2  0  0  0  0  0  0
  188.8560  178.5490  144.0940 C   0  0  2  0  0  3  0  0  0  0  0  0
  182.5890  179.1070  142.5180 C   0  0  0  0  0  2  0  0  0  0  0  0
  188.0930  178.3410  145.3140 N   0  0  0  0  0  2  0  0  0  0  0  0
  186.0720  178.2240  146.4400 O   0  0  0  0  0  0  0  0  0  0  0  0
  182.1690  179.0540  144.9420 C   0  0  0  0  0  2  0  0  0  0  0  0
  184.5110  178.7980  144.0140 C   0  0  0  0  0  0  0  0  0  0  0  0
  186.6670  178.4260  145.3510 C   0  0  0  0  0  0  0  0  0  0  0  0
  185.9350  178.7100  144.1500 N   0  0  0  0  0  2  0  0  0  0  0  0
  184.0150  178.9520  142.8170 N   0  0  0  0  0  0  0  0  0  0  0  0
  183.6050  178.6140  145.2120 C   0  0  0  0  0  2  0  0  0  0  0  0
  181.7160  178.4940  143.6070 C   0  0  0  0  0  2  0  0  0  0  0  0
  191.1050  178.1070  145.1940 C   0  0  0  0  0  0  0  0  0  0  0  0
  190.2200  178.9370  144.4340 N   0  0  0  0  0  2  0  0  0  0  0  0
  192.2630  178.5240  145.4580 O   0  0  0  0  0  0  0  0  0  0  0  0
  190.6740  176.7410  145.6580 C   0  0  2  0  0  3  0  0  0  0  0  0
  190.5800  176.6290  147.1870 C   0  0  2  0  0  3  0  0  0  0  0  0
  189.1390  176.7800  147.6480 C   0  0  0  0  0  1  0  0  0  0  0  0
  191.3450  177.6290  147.7910 O   0  0  0  0  0  1  0  0  0  0  0  0
  191.5200  175.6310  145.0210 C   0  0  0  0  0  2  0  0  0  0  0  0
  192.1100  174.6820  146.0500 C   0  0  0  0  0  1  0  0  0  0  0  0
  1 37  1  6  0  0  0
  1 17  1  0  0  0  0
  3 12  1  0  0  0  0
  3  2  2  0  0  0  0
  4 20  1  0  0  0  0
  5 18  1  0  0  0  0
  5 10  1  0  0  0  0
  8 23  1  0  0  0  0
  8 21  2  0  0  0  0
  9  4  1  0  0  0  0
 10 14  1  0  0  0  0
 11 13  1  0  0  0  0
 13  2  1  0  0  0  0
 13  7  1  1  0  0  0
 14  9  1  0  0  0  0
 15 12  1  0  0  0  0
 15 48  1  0  0  0  0
 16 24  1  6  0  0  0
 16 11  1  0  0  0  0
 17 16  1  0  0  0  0
 18 25  1  6  0  0  0
 19  5  2  0  0  0  0
 20 15  1  0  0  0  0
 22  6  1  1  0  0  0
 22  8  1  0  0  0  0
 22 18  1  0  0  0  0
 23  1  1  0  0  0  0
 24  3  1  0  0  0  0
 26 25  1  0  0  0  0
 26 27  1  0  0  0  0
 28 27  1  0  0  0  0
 29 28  1  0  0  0  0
 30 36  1  1  0  0  0
 30 34  1  0  0  0  0
 30 29  1  0  0  0  0
 32 34  1  0  0  0  0
 33 34  1  0  0  0  0
 34 31  1  0  0  0  0
 35 36  1  0  0  0  0
 38 43  1  6  0  0  0
 38 40  1  0  0  0  0
 38 41  1  0  0  0  0
 40 43  1  6  0  0  0
 40 42  1  0  0  0  0
 41 44  1  0  0  0  0
 42 37  1  0  0  0  0
 42 39  2  0  0  0  0
 44 39  1  0  0  0  0
 44 45  1  1  0  0  0
 45 47  2  0  0  0  0
 45 46  1  0  0  0  0
 48 49  1  0  0  0  0
 50 49  1  6  0  0  0
 50 62  1  0  0  0  0
 50 52  1  0  0  0  0
 51 58  1  0  0  0  0
 51 60  1  0  0  0  0
 52 56  1  0  0  0  0
 54 59  1  0  0  0  0
 55 57  1  0  0  0  0
 55 59  1  0  0  0  0
 56 53  2  0  0  0  0
 57 56  1  0  0  0  0
 58 55  2  0  0  0  0
 60 54  1  0  0  0  0
 61 63  2  0  0  0  0
 61 64  1  0  0  0  0
 62 61  1  0  0  0  0
 64 68  1  1  0  0  0
 64 65  1  0  0  0  0
 65 66  1  6  0  0  0
 65 67  1  0  0  0  0
 68 69  1  0  0  0  0
M  END
>  <MODEL>
6

>  <REMARK>
 VINA RESULT:      -2.0      3.925      9.313
  Name = 
  19 active torsions:
  status: ('A' for Active; 'I' for Inactive)
    1  A    between atoms: C_2  and  C_43
    2  A    between atoms: C_3  and  C_51
    3  A    between atoms: C_10  and  C_64
    4  A    between atoms: N_17  and  C_69
    5  A    between atoms: C_18  and  C_43
    6  A    between atoms: C_26  and  C_51
    7  A    between atoms: N_33  and  C_46
    8  A    between atoms: C_37  and  C_43
    9  A    between atoms: C_39  and  C_67
   10  A    between atoms: O_41  and  C_47
   11  A    between atoms: O_41  and  C_67
   12  A    between atoms: C_42  and  C_47
   13  A    between atoms: C_42  and  C_65
   14  A    between atoms: C_46  and  C_61
   15  A    between atoms: C_50  and  C_55
   16  A    between atoms: N_52  and  C_69
   17  A    between atoms: C_55  and  C_65
   18  A    between atoms: C_60  and  C_67
   19  A    between atoms: C_61  and  C_69
                            x       y       z     vdW  Elec       q    Type
                         _______ _______ _______ _____ _____    ______ ____

>  <TORSDO>
F 19

$$$$
