=
 OpenBabel10232409143D

 57 64  0  0  1  0  0  0  0  0999 V2000
  183.9920  177.6010  136.0940 C   0  0  0  0  0  2  0  0  0  0  0  0
  184.9480  176.5780  135.4860 C   0  0  2  0  0  3  0  0  0  0  0  0
  182.5900  177.5010  135.4900 C   0  0  0  0  0  2  0  0  0  0  0  0
  182.2310  176.1020  134.9650 C   0  0  0  0  0  2  0  0  0  0  0  0
  182.9280  174.9670  135.7280 C   0  0  1  0  0  3  0  0  0  0  0  0
  184.4530  175.1410  135.7400 C   0  0  1  0  0  3  0  0  0  0  0  0
  188.0200  176.5980  137.7380 C   0  0  0  0  0  3  0  0  0  0  0  0
  187.2970  177.3490  135.1430 C   0  0  0  0  0  3  0  0  0  0  0  0
  188.9720  177.1630  136.8860 C   0  0  0  0  0  3  0  0  0  0  0  0
  186.7060  176.4070  137.2950 C   0  0  0  0  0  3  0  0  0  0  0  0
  188.6100  177.5390  135.5880 C   0  0  0  0  0  3  0  0  0  0  0  0
  186.3410  176.7810  135.9920 C   0  0  0  0  0  0  0  0  0  0  0  0
  180.8440  174.8970  137.4620 S   0  0  0  0  0  0  0  0  0  0  0  0
  182.4240  174.8750  137.1340 C   0  0  0  0  0  2  0  0  0  0  0  0
  180.8180  175.0690  139.2490 C   0  0  0  0  0  2  0  0  0  0  0  0
  181.7300  177.0540  140.3260 C   0  0  0  0  0  3  0  0  0  0  0  0
  180.7440  176.5090  139.6210 C   0  0  0  0  0  3  0  0  0  0  0  0
  181.7480  178.5060  140.7470 C   0  0  2  0  0  3  0  0  0  0  0  0
  184.7630  177.8700  145.3080 F   0  0  0  0  0  0  0  0  0  0  0  0
  182.4930  178.7260  142.9740 C   0  0  0  0  0  2  0  0  0  0  0  0
  185.7070  179.3970  142.0500 C   0  0  0  0  0  2  0  0  0  0  0  0
  185.0110  178.6300  140.9240 C   0  0  0  0  0  2  0  0  0  0  0  0
  184.6860  178.6100  144.1740 C   0  0  0  0  0  0  0  0  0  0  0  0
  183.4500  179.4320  143.9280 C   0  0  0  0  0  2  0  0  0  0  0  0
  183.8670  177.9400  141.3690 O   0  0  0  0  0  0  0  0  0  0  0  0
  182.9050  178.8810  141.5770 N   0  0  0  0  0  0  0  0  0  0  0  0
  185.7240  178.6130  143.3270 C   0  0  0  0  0  3  0  0  0  0  0  0
  180.5060  178.9560  141.2580 O   0  0  0  0  0  0  0  0  0  0  0  0
  180.1900  180.2660  139.2910 C   0  0  0  0  0  1  0  0  0  0  0  0
  180.2580  180.2620  140.8060 C   0  0  0  0  0  2  0  0  0  0  0  0
  185.2160  174.0480  134.9730 C   0  0  0  0  0  2  0  0  0  0  0  0
  186.0410  173.0170  135.7860 C   0  0  2  0  0  3  0  0  0  0  0  0
  190.3060  173.4360  135.3410 C   0  0  2  0  0  3  0  0  0  0  0  0
  189.4550  174.2670  134.3650 C   0  0  0  0  0  2  0  0  0  0  0  0
  190.2930  173.6990  137.7530 O   0  0  0  0  0  0  0  0  0  0  0  0
  189.6420  173.5010  136.6940 C   0  0  0  0  0  0  0  0  0  0  0  0
  188.2570  173.3650  136.7460 O   0  0  0  0  0  0  0  0  0  0  0  0
  187.5500  173.0180  135.5600 C   0  0  2  0  0  3  0  0  0  0  0  0
  187.9460  173.9400  134.4000 C   0  0  0  0  0  2  0  0  0  0  0  0
  195.0270  174.4880  137.9720 C   0  0  0  0  0  2  0  0  0  0  0  0
  195.6360  175.1930  136.7680 C   0  0  0  0  0  2  0  0  0  0  0  0
  194.1460  173.2530  135.9230 C   0  0  0  0  0  2  0  0  0  0  0  0
  191.9390  175.1710  136.1210 C   0  0  0  0  0  3  0  0  0  0  0  0
  191.7810  173.8750  135.3510 C   0  0  1  0  0  3  0  0  0  0  0  0
  193.0960  175.5160  136.7060 C   0  0  0  0  0  3  0  0  0  0  0  0
  194.2630  174.5730  136.6730 C   0  0  0  0  0  0  0  0  0  0  0  0
  192.6930  172.7860  135.9390 C   0  0  0  0  0  2  0  0  0  0  0  0
  186.3820  170.6880  135.4610 N   0  0  0  0  0  2  0  0  0  0  0  0
  184.5510  171.4010  134.8400 C   0  0  1  0  0  3  0  0  0  0  0  0
  185.4760  171.6600  135.9370 N   0  0  0  0  0  0  0  0  0  0  0  0
  185.5060  170.3490  134.3490 C   0  0  0  0  0  2  0  0  0  0  0  0
  183.2740  170.7510  135.3600 C   0  0  1  0  0  3  0  0  0  0  0  0
  182.9830  171.2090  136.8000 C   0  0  0  0  0  2  0  0  0  0  0  0
  181.1410  171.7090  135.5170 C   0  0  0  0  0  0  0  0  0  0  0  0
  182.0770  171.1850  134.5080 C   0  0  0  0  0  2  0  0  0  0  0  0
  181.6600  171.7030  136.7840 O   0  0  0  0  0  0  0  0  0  0  0  0
  179.9840  172.1250  135.2480 O   0  0  0  0  0  0  0  0  0  0  0  0
  2  6  1  0  0  0  0
  2 12  1  1  0  0  0
  2  1  1  0  0  0  0
  3  1  1  0  0  0  0
  4  3  1  0  0  0  0
  4  5  1  0  0  0  0
  5  6  1  0  0  0  0
  5 14  1  1  0  0  0
  6 31  1  6  0  0  0
  8 11  2  0  0  0  0
  8 12  1  0  0  0  0
  9  7  2  0  0  0  0
 10  7  1  0  0  0  0
 11  9  1  0  0  0  0
 12 10  2  0  0  0  0
 13 15  1  0  0  0  0
 14 13  1  0  0  0  0
 15 17  1  0  0  0  0
 17 16  2  0  0  0  0
 18 16  1  1  0  0  0
 18 28  1  0  0  0  0
 18 26  1  0  0  0  0
 20 24  1  0  0  0  0
 21 27  1  0  0  0  0
 22 25  1  0  0  0  0
 22 21  1  0  0  0  0
 23 19  1  0  0  0  0
 24 23  1  0  0  0  0
 25 26  1  0  0  0  0
 26 20  1  0  0  0  0
 27 23  2  0  0  0  0
 29 30  1  0  0  0  0
 30 28  1  0  0  0  0
 32 31  1  6  0  0  0
 32 50  1  0  0  0  0
 33 34  1  6  0  0  0
 33 44  1  0  0  0  0
 33 36  1  0  0  0  0
 34 39  1  0  0  0  0
 36 37  1  0  0  0  0
 36 35  2  0  0  0  0
 38 32  1  1  0  0  0
 38 37  1  0  0  0  0
 39 38  1  0  0  0  0
 41 40  1  0  0  0  0
 42 47  1  0  0  0  0
 42 46  1  0  0  0  0
 43 45  2  0  0  0  0
 44 47  1  1  0  0  0
 44 43  1  0  0  0  0
 46 45  1  0  0  0  0
 46 41  1  0  0  0  0
 46 40  1  0  0  0  0
 48 50  1  0  0  0  0
 49 51  1  6  0  0  0
 49 52  1  0  0  0  0
 49 50  1  0  0  0  0
 51 48  1  0  0  0  0
 52 55  1  6  0  0  0
 52 53  1  0  0  0  0
 54 56  1  0  0  0  0
 55 54  1  0  0  0  0
 56 53  1  0  0  0  0
 57 54  2  0  0  0  0
M  END
>  <MODEL>
1

>  <REMARK>
 VINA RESULT:      -6.0      0.000      0.000
  Name = 
  14 active torsions:
  status: ('A' for Active; 'I' for Inactive)
    1  A    between atoms: C_5  and  C_34
    2  A    between atoms: C_10  and  C_14
    3  A    between atoms: C_11  and  C_26
    4  A    between atoms: C_11  and  C_38
    5  A    between atoms: C_16  and  C_56
    6  A    between atoms: S_22  and  C_36
    7  A    between atoms: C_26  and  N_37
    8  A    between atoms: C_26  and  C_51
    9  A    between atoms: C_28  and  O_40
   10  A    between atoms: C_28  and  C_41
   11  A    between atoms: C_28  and  N_47
   12  A    between atoms: C_29  and  C_43
   13  A    between atoms: C_36  and  C_44
   14  A    between atoms: O_40  and  C_48
                            x       y       z     vdW  Elec       q    Type
                         _______ _______ _______ _____ _____    ______ ____

>  <TORSDO>
F 14

$$$$
=
 OpenBabel10232409143D

 57 64  0  0  1  0  0  0  0  0999 V2000
  193.6430  175.9870  138.7930 C   0  0  0  0  0  2  0  0  0  0  0  0
  192.8700  175.9440  137.4780 C   0  0  2  0  0  3  0  0  0  0  0  0
  193.4550  177.3210  139.5210 C   0  0  0  0  0  2  0  0  0  0  0  0
  192.1240  178.0230  139.2100 C   0  0  0  0  0  2  0  0  0  0  0  0
  190.9850  177.0510  138.8760 C   0  0  1  0  0  3  0  0  0  0  0  0
  191.3580  176.1110  137.7210 C   0  0  1  0  0  3  0  0  0  0  0  0
  193.5210  172.2860  136.6340 C   0  0  0  0  0  3  0  0  0  0  0  0
  193.3810  174.7620  135.3400 C   0  0  0  0  0  3  0  0  0  0  0  0
  193.7250  172.3640  135.2540 C   0  0  0  0  0  3  0  0  0  0  0  0
  193.2470  173.4460  137.3680 C   0  0  0  0  0  3  0  0  0  0  0  0
  193.6540  173.6020  134.6060 C   0  0  0  0  0  3  0  0  0  0  0  0
  193.1740  174.6890  136.7210 C   0  0  0  0  0  0  0  0  0  0  0  0
  190.2860  176.9420  141.4930 S   0  0  0  0  0  0  0  0  0  0  0  0
  190.5990  176.2420  140.0740 C   0  0  0  0  0  2  0  0  0  0  0  0
  190.1880  175.5390  142.6100 C   0  0  0  0  0  2  0  0  0  0  0  0
  188.8330  177.0610  143.9440 C   0  0  0  0  0  3  0  0  0  0  0  0
  189.1870  175.8070  143.6780 C   0  0  0  0  0  3  0  0  0  0  0  0
  187.8230  177.4330  145.0050 C   0  0  2  0  0  3  0  0  0  0  0  0
  183.5440  177.6920  141.5510 F   0  0  0  0  0  0  0  0  0  0  0  0
  186.5510  177.8350  143.0590 C   0  0  0  0  0  2  0  0  0  0  0  0
  184.1030  179.4990  144.7540 C   0  0  0  0  0  2  0  0  0  0  0  0
  184.8430  178.5730  145.7220 C   0  0  0  0  0  2  0  0  0  0  0  0
  184.1690  178.3910  142.5310 C   0  0  0  0  0  0  0  0  0  0  0  0
  185.6060  178.7880  142.3340 C   0  0  0  0  0  2  0  0  0  0  0  0
  185.5470  177.5510  145.0570 O   0  0  0  0  0  0  0  0  0  0  0  0
  186.6360  178.1370  144.4900 N   0  0  0  0  0  0  0  0  0  0  0  0
  183.4780  178.7360  143.6260 C   0  0  0  0  0  3  0  0  0  0  0  0
  188.4050  178.0470  146.1400 O   0  0  0  0  0  0  0  0  0  0  0  0
  190.0990  177.2870  147.6360 C   0  0  0  0  0  1  0  0  0  0  0  0
  188.6960  177.0700  147.1050 C   0  0  0  0  0  2  0  0  0  0  0  0
  190.5160  176.3130  136.4490 C   0  0  0  0  0  2  0  0  0  0  0  0
  189.1990  175.5080  136.3020 C   0  0  2  0  0  3  0  0  0  0  0  0
  185.6010  177.5080  137.5770 C   0  0  2  0  0  3  0  0  0  0  0  0
  186.8630  178.3880  137.5210 C   0  0  0  0  0  2  0  0  0  0  0  0
  184.5960  176.4120  135.6590 O   0  0  0  0  0  0  0  0  0  0  0  0
  185.6200  176.6080  136.3660 C   0  0  0  0  0  0  0  0  0  0  0  0
  186.8280  176.0090  136.0190 O   0  0  0  0  0  0  0  0  0  0  0  0
  187.9430  176.1390  136.8950 C   0  0  2  0  0  3  0  0  0  0  0  0
  188.1720  177.6080  137.2710 C   0  0  0  0  0  2  0  0  0  0  0  0
  181.2710  179.2840  140.4770 C   0  0  0  0  0  2  0  0  0  0  0  0
  180.5710  179.8420  139.2450 C   0  0  0  0  0  2  0  0  0  0  0  0
  183.1230  180.1640  138.9630 C   0  0  0  0  0  2  0  0  0  0  0  0
  183.1180  177.4290  137.9130 C   0  0  0  0  0  3  0  0  0  0  0  0
  184.3140  178.3390  137.7140 C   0  0  1  0  0  3  0  0  0  0  0  0
  182.0040  177.8410  138.5350 C   0  0  0  0  0  3  0  0  0  0  0  0
  181.9410  179.2190  139.1260 C   0  0  0  0  0  0  0  0  0  0  0  0
  184.4130  179.3540  138.8650 C   0  0  0  0  0  2  0  0  0  0  0  0
  190.3080  173.4850  135.7340 N   0  0  0  0  0  2  0  0  0  0  0  0
  188.2500  173.3980  135.6910 C   0  0  1  0  0  3  0  0  0  0  0  0
  189.2690  174.0470  136.5070 N   0  0  0  0  0  0  0  0  0  0  0  0
  189.3580  172.7810  134.8850 C   0  0  0  0  0  2  0  0  0  0  0  0
  187.5250  172.3250  136.4950 C   0  0  1  0  0  3  0  0  0  0  0  0
  186.5240  172.9670  137.4720 C   0  0  0  0  0  2  0  0  0  0  0  0
  185.3630  171.4900  136.1450 C   0  0  0  0  0  0  0  0  0  0  0  0
  186.7120  171.4240  135.5590 C   0  0  0  0  0  2  0  0  0  0  0  0
  185.2830  172.3440  137.2130 O   0  0  0  0  0  0  0  0  0  0  0  0
  184.3790  170.8350  135.7110 O   0  0  0  0  0  0  0  0  0  0  0  0
  1  3  1  0  0  0  0
  2 12  1  1  0  0  0
  2  6  1  0  0  0  0
  2  1  1  0  0  0  0
  4  3  1  0  0  0  0
  5  4  1  0  0  0  0
  5 14  1  1  0  0  0
  6 31  1  6  0  0  0
  6  5  1  0  0  0  0
  7 10  1  0  0  0  0
  8 12  1  0  0  0  0
  9  7  2  0  0  0  0
 11  9  1  0  0  0  0
 11  8  2  0  0  0  0
 12 10  2  0  0  0  0
 13 15  1  0  0  0  0
 14 13  1  0  0  0  0
 15 17  1  0  0  0  0
 17 16  2  0  0  0  0
 18 16  1  6  0  0  0
 18 28  1  0  0  0  0
 19 23  1  0  0  0  0
 20 26  1  0  0  0  0
 21 22  1  0  0  0  0
 23 27  2  0  0  0  0
 24 23  1  0  0  0  0
 24 20  1  0  0  0  0
 25 22  1  0  0  0  0
 26 18  1  0  0  0  0
 26 25  1  0  0  0  0
 27 21  1  0  0  0  0
 28 30  1  0  0  0  0
 30 29  1  0  0  0  0
 32 31  1  1  0  0  0
 32 50  1  0  0  0  0
 33 34  1  6  0  0  0
 33 44  1  0  0  0  0
 35 36  2  0  0  0  0
 36 33  1  0  0  0  0
 37 36  1  0  0  0  0
 37 38  1  0  0  0  0
 38 32  1  6  0  0  0
 38 39  1  0  0  0  0
 39 34  1  0  0  0  0
 41 40  1  0  0  0  0
 42 46  1  0  0  0  0
 43 45  2  0  0  0  0
 44 43  1  1  0  0  0
 44 47  1  0  0  0  0
 45 46  1  0  0  0  0
 46 41  1  0  0  0  0
 46 40  1  0  0  0  0
 47 42  1  0  0  0  0
 48 50  1  0  0  0  0
 49 51  1  6  0  0  0
 49 52  1  0  0  0  0
 49 50  1  0  0  0  0
 51 48  1  0  0  0  0
 52 55  1  6  0  0  0
 52 53  1  0  0  0  0
 54 56  1  0  0  0  0
 55 54  1  0  0  0  0
 56 53  1  0  0  0  0
 57 54  2  0  0  0  0
M  END
>  <MODEL>
2

>  <REMARK>
 VINA RESULT:      -5.7      3.165      7.873
  Name = 
  14 active torsions:
  status: ('A' for Active; 'I' for Inactive)
    1  A    between atoms: C_5  and  C_34
    2  A    between atoms: C_10  and  C_14
    3  A    between atoms: C_11  and  C_26
    4  A    between atoms: C_11  and  C_38
    5  A    between atoms: C_16  and  C_56
    6  A    between atoms: S_22  and  C_36
    7  A    between atoms: C_26  and  N_37
    8  A    between atoms: C_26  and  C_51
    9  A    between atoms: C_28  and  O_40
   10  A    between atoms: C_28  and  C_41
   11  A    between atoms: C_28  and  N_47
   12  A    between atoms: C_29  and  C_43
   13  A    between atoms: C_36  and  C_44
   14  A    between atoms: O_40  and  C_48
                            x       y       z     vdW  Elec       q    Type
                         _______ _______ _______ _____ _____    ______ ____

>  <TORSDO>
F 14

$$$$
=
 OpenBabel10232409143D

 57 64  0  0  1  0  0  0  0  0999 V2000
  188.9110  179.0970  138.5690 C   0  0  0  0  0  2  0  0  0  0  0  0
  189.7570  177.8490  138.3360 C   0  0  2  0  0  3  0  0  0  0  0  0
  188.0940  179.4710  137.3300 C   0  0  0  0  0  2  0  0  0  0  0  0
  187.7510  178.2800  136.4210 C   0  0  0  0  0  2  0  0  0  0  0  0
  187.6140  176.9540  137.1800 C   0  0  1  0  0  3  0  0  0  0  0  0
  188.8710  176.6350  138.0020 C   0  0  1  0  0  3  0  0  0  0  0  0
  190.9710  177.1310  141.8750 C   0  0  0  0  0  3  0  0  0  0  0  0
  192.0290  177.5050  139.3130 C   0  0  0  0  0  3  0  0  0  0  0  0
  192.3520  177.0550  141.6730 C   0  0  0  0  0  3  0  0  0  0  0  0
  190.1180  177.3940  140.7970 C   0  0  0  0  0  3  0  0  0  0  0  0
  192.8810  177.2420  140.3920 C   0  0  0  0  0  3  0  0  0  0  0  0
  190.6460  177.5790  139.5100 C   0  0  0  0  0  0  0  0  0  0  0  0
  184.9800  177.4760  137.5550 S   0  0  0  0  0  0  0  0  0  0  0  0
  186.4190  176.9700  138.0810 C   0  0  0  0  0  2  0  0  0  0  0  0
  184.0220  177.5780  139.0710 C   0  0  0  0  0  2  0  0  0  0  0  0
  184.5430  178.1940  141.3690 C   0  0  0  0  0  3  0  0  0  0  0  0
  184.7430  178.4100  140.0730 C   0  0  0  0  0  3  0  0  0  0  0  0
  185.2310  178.9820  142.4600 C   0  0  2  0  0  3  0  0  0  0  0  0
  189.9320  177.0340  144.5600 F   0  0  0  0  0  0  0  0  0  0  0  0
  187.1380  177.6300  142.7790 C   0  0  0  0  0  2  0  0  0  0  0  0
  186.5610  177.2470  146.1190 C   0  0  0  0  0  2  0  0  0  0  0  0
  185.8710  178.5240  145.6340 C   0  0  0  0  0  2  0  0  0  0  0  0
  188.5850  176.9610  144.7070 C   0  0  0  0  0  0  0  0  0  0  0  0
  187.7560  176.4710  143.5520 C   0  0  0  0  0  2  0  0  0  0  0  0
  186.4010  178.9930  144.4170 O   0  0  0  0  0  0  0  0  0  0  0  0
  185.9440  178.1540  143.4470 N   0  0  0  0  0  0  0  0  0  0  0  0
  188.0410  177.2930  145.8850 C   0  0  0  0  0  3  0  0  0  0  0  0
  184.4050  179.9770  143.0370 O   0  0  0  0  0  0  0  0  0  0  0  0
  182.1240  179.3060  143.2250 C   0  0  0  0  0  1  0  0  0  0  0  0
  183.4780  179.3740  143.9030 C   0  0  0  0  0  2  0  0  0  0  0  0
  189.6330  175.3870  137.5240 C   0  0  0  0  0  2  0  0  0  0  0  0
  189.4920  174.9610  136.0400 C   0  0  2  0  0  3  0  0  0  0  0  0
  185.7350  173.0010  135.2590 C   0  0  2  0  0  3  0  0  0  0  0  0
  186.3110  172.7880  136.6700 C   0  0  0  0  0  2  0  0  0  0  0  0
  185.0750  175.1500  134.3460 O   0  0  0  0  0  0  0  0  0  0  0  0
  185.9670  174.4440  134.8850 C   0  0  0  0  0  0  0  0  0  0  0  0
  187.2080  175.0010  135.1820 O   0  0  0  0  0  0  0  0  0  0  0  0
  188.2460  174.1600  135.6750 C   0  0  2  0  0  3  0  0  0  0  0  0
  187.7490  173.3170  136.8560 C   0  0  0  0  0  2  0  0  0  0  0  0
  180.9110  171.6490  137.5450 C   0  0  0  0  0  2  0  0  0  0  0  0
  180.3600  171.0840  136.2430 C   0  0  0  0  0  2  0  0  0  0  0  0
  181.8720  173.1100  135.6900 C   0  0  0  0  0  2  0  0  0  0  0  0
  184.0810  171.1860  135.7650 C   0  0  0  0  0  3  0  0  0  0  0  0
  184.2640  172.5610  135.1550 C   0  0  1  0  0  3  0  0  0  0  0  0
  182.9020  170.7750  136.2560 C   0  0  0  0  0  3  0  0  0  0  0  0
  181.7320  171.7130  136.2790 C   0  0  0  0  0  0  0  0  0  0  0  0
  183.3200  173.5750  135.8220 C   0  0  0  0  0  2  0  0  0  0  0  0
  190.4490  173.3000  134.6360 N   0  0  0  0  0  2  0  0  0  0  0  0
  191.5610  173.7870  136.3010 C   0  0  1  0  0  3  0  0  0  0  0  0
  190.7100  174.4900  135.3490 N   0  0  0  0  0  0  0  0  0  0  0  0
  191.3020  172.5260  135.5260 C   0  0  0  0  0  2  0  0  0  0  0  0
  193.0150  174.2160  136.1370 C   0  0  1  0  0  3  0  0  0  0  0  0
  193.2240  175.6360  136.6910 C   0  0  0  0  0  2  0  0  0  0  0  0
  194.6950  174.2350  137.7710 C   0  0  0  0  0  0  0  0  0  0  0  0
  193.9320  173.2880  136.9400 C   0  0  0  0  0  2  0  0  0  0  0  0
  194.2930  175.5350  137.6090 O   0  0  0  0  0  0  0  0  0  0  0  0
  195.6200  173.8910  138.5530 O   0  0  0  0  0  0  0  0  0  0  0  0
  2  1  1  0  0  0  0
  2 12  1  1  0  0  0
  3  1  1  0  0  0  0
  4  5  1  0  0  0  0
  4  3  1  0  0  0  0
  5  6  1  0  0  0  0
  5 14  1  1  0  0  0
  6 31  1  6  0  0  0
  6  2  1  0  0  0  0
  8 12  2  0  0  0  0
  8 11  1  0  0  0  0
  9  7  1  0  0  0  0
 10  7  2  0  0  0  0
 11  9  2  0  0  0  0
 12 10  1  0  0  0  0
 13 14  1  0  0  0  0
 13 15  1  0  0  0  0
 15 17  1  0  0  0  0
 17 16  2  0  0  0  0
 18 16  1  1  0  0  0
 18 28  1  0  0  0  0
 18 26  1  0  0  0  0
 19 23  1  0  0  0  0
 20 26  1  0  0  0  0
 20 24  1  0  0  0  0
 22 21  1  0  0  0  0
 23 27  2  0  0  0  0
 24 23  1  0  0  0  0
 25 22  1  0  0  0  0
 26 25  1  0  0  0  0
 27 21  1  0  0  0  0
 28 30  1  0  0  0  0
 29 30  1  0  0  0  0
 32 31  1  1  0  0  0
 33 34  1  1  0  0  0
 34 39  1  0  0  0  0
 35 36  2  0  0  0  0
 36 37  1  0  0  0  0
 36 33  1  0  0  0  0
 37 38  1  0  0  0  0
 38 32  1  1  0  0  0
 38 39  1  0  0  0  0
 41 46  1  0  0  0  0
 41 40  1  0  0  0  0
 42 47  1  0  0  0  0
 42 46  1  0  0  0  0
 43 45  2  0  0  0  0
 44 33  1  0  0  0  0
 44 43  1  1  0  0  0
 44 47  1  0  0  0  0
 45 46  1  0  0  0  0
 46 40  1  0  0  0  0
 48 50  1  0  0  0  0
 48 51  1  0  0  0  0
 49 51  1  6  0  0  0
 50 32  1  0  0  0  0
 50 49  1  0  0  0  0
 52 49  1  0  0  0  0
 52 53  1  1  0  0  0
 52 55  1  0  0  0  0
 53 56  1  0  0  0  0
 54 57  2  0  0  0  0
 55 54  1  0  0  0  0
 56 54  1  0  0  0  0
M  END
>  <MODEL>
3

>  <REMARK>
 VINA RESULT:      -5.5      2.774      7.486
  Name = 
  14 active torsions:
  status: ('A' for Active; 'I' for Inactive)
    1  A    between atoms: C_5  and  C_34
    2  A    between atoms: C_10  and  C_14
    3  A    between atoms: C_11  and  C_26
    4  A    between atoms: C_11  and  C_38
    5  A    between atoms: C_16  and  C_56
    6  A    between atoms: S_22  and  C_36
    7  A    between atoms: C_26  and  N_37
    8  A    between atoms: C_26  and  C_51
    9  A    between atoms: C_28  and  O_40
   10  A    between atoms: C_28  and  C_41
   11  A    between atoms: C_28  and  N_47
   12  A    between atoms: C_29  and  C_43
   13  A    between atoms: C_36  and  C_44
   14  A    between atoms: O_40  and  C_48
                            x       y       z     vdW  Elec       q    Type
                         _______ _______ _______ _____ _____    ______ ____

>  <TORSDO>
F 14

$$$$
=
 OpenBabel10232409143D

 57 64  0  0  1  0  0  0  0  0999 V2000
  187.6330  176.7010  143.0460 C   0  0  0  0  0  2  0  0  0  0  0  0
  186.9930  177.4370  141.8720 C   0  0  2  0  0  3  0  0  0  0  0  0
  188.8250  175.8490  142.6030 C   0  0  0  0  0  2  0  0  0  0  0  0
  189.5340  176.3690  141.3430 C   0  0  0  0  0  2  0  0  0  0  0  0
  189.4520  177.8930  141.1820 C   0  0  1  0  0  3  0  0  0  0  0  0
  188.0000  178.3910  141.2030 C   0  0  1  0  0  3  0  0  0  0  0  0
  183.3470  178.4850  142.2280 C   0  0  0  0  0  3  0  0  0  0  0  0
  185.8580  179.1910  143.2390 C   0  0  0  0  0  3  0  0  0  0  0  0
  183.4570  179.5170  143.1630 C   0  0  0  0  0  3  0  0  0  0  0  0
  184.4930  177.8050  141.7970 C   0  0  0  0  0  3  0  0  0  0  0  0
  184.7120  179.8700  143.6690 C   0  0  0  0  0  3  0  0  0  0  0  0
  185.7530  178.1550  142.3040 C   0  0  0  0  0  0  0  0  0  0  0  0
  191.5870  177.9470  142.8530 S   0  0  0  0  0  0  0  0  0  0  0  0
  190.2350  178.5900  142.2500 C   0  0  0  0  0  2  0  0  0  0  0  0
  191.9280  179.0050  144.2640 C   0  0  0  0  0  2  0  0  0  0  0  0
  190.5440  177.3700  145.4220 C   0  0  0  0  0  3  0  0  0  0  0  0
  191.4060  178.3780  145.5080 C   0  0  0  0  0  3  0  0  0  0  0  0
  189.9630  176.6660  146.6270 C   0  0  2  0  0  3  0  0  0  0  0  0
  186.5150  180.6590  148.2020 F   0  0  0  0  0  0  0  0  0  0  0  0
  188.7690  178.1650  148.0030 C   0  0  0  0  0  2  0  0  0  0  0  0
  185.7630  177.3920  146.5890 C   0  0  0  0  0  2  0  0  0  0  0  0
  186.8820  177.0580  145.6020 C   0  0  0  0  0  2  0  0  0  0  0  0
  186.5560  179.3310  147.9240 C   0  0  0  0  0  0  0  0  0  0  0  0
  187.4630  178.4490  148.7370 C   0  0  0  0  0  2  0  0  0  0  0  0
  188.0830  177.7310  145.9000 O   0  0  0  0  0  0  0  0  0  0  0  0
  188.6090  177.1160  146.9940 N   0  0  0  0  0  0  0  0  0  0  0  0
  185.7640  178.8440  146.9600 C   0  0  0  0  0  3  0  0  0  0  0  0
  190.8590  176.5970  147.7200 O   0  0  0  0  0  0  0  0  0  0  0  0
  192.9520  175.7720  148.5110 C   0  0  0  0  0  1  0  0  0  0  0  0
  191.9130  175.7230  147.4080 C   0  0  0  0  0  2  0  0  0  0  0  0
  187.5280  179.0050  139.8740 C   0  0  0  0  0  2  0  0  0  0  0  0
  187.0900  178.0480  138.7350 C   0  0  2  0  0  3  0  0  0  0  0  0
  190.3720  176.0640  136.7710 C   0  0  2  0  0  3  0  0  0  0  0  0
  190.7620  177.2380  137.6860 C   0  0  0  0  0  2  0  0  0  0  0  0
  189.2820  174.0310  137.5220 O   0  0  0  0  0  0  0  0  0  0  0  0
  189.2800  175.2880  137.4650 C   0  0  0  0  0  0  0  0  0  0  0  0
  188.2620  176.0100  138.0820 O   0  0  0  0  0  0  0  0  0  0  0  0
  188.2050  177.4210  137.9040 C   0  0  2  0  0  3  0  0  0  0  0  0
  189.5650  178.0630  138.2060 C   0  0  0  0  0  2  0  0  0  0  0  0
  195.7660  175.4310  135.8600 C   0  0  0  0  0  2  0  0  0  0  0  0
  195.5740  174.0910  135.1630 C   0  0  0  0  0  2  0  0  0  0  0  0
  193.8230  174.2950  137.0580 C   0  0  0  0  0  2  0  0  0  0  0  0
  192.1960  175.7260  135.0850 C   0  0  0  0  0  3  0  0  0  0  0  0
  191.5850  175.2060  136.3710 C   0  0  1  0  0  3  0  0  0  0  0  0
  193.4850  175.5220  134.7740 C   0  0  0  0  0  3  0  0  0  0  0  0
  194.3890  174.8230  135.7460 C   0  0  0  0  0  0  0  0  0  0  0  0
  192.6420  175.1610  137.4870 C   0  0  0  0  0  2  0  0  0  0  0  0
  184.9700  179.1200  138.7300 N   0  0  0  0  0  2  0  0  0  0  0  0
  185.0300  177.2920  137.7810 C   0  0  1  0  0  3  0  0  0  0  0  0
  185.9140  178.4410  137.9310 N   0  0  0  0  0  0  0  0  0  0  0  0
  184.0160  178.0280  138.6110 C   0  0  0  0  0  2  0  0  0  0  0  0
  184.5450  177.1750  136.3410 C   0  0  1  0  0  3  0  0  0  0  0  0
  185.7190  176.8440  135.4020 C   0  0  0  0  0  2  0  0  0  0  0  0
  184.1190  175.2140  135.1290 C   0  0  0  0  0  0  0  0  0  0  0  0
  183.5410  176.0240  136.2150 C   0  0  0  0  0  2  0  0  0  0  0  0
  185.3230  175.6930  134.6850 O   0  0  0  0  0  0  0  0  0  0  0  0
  183.5700  174.1850  134.6560 O   0  0  0  0  0  0  0  0  0  0  0  0
  2 12  1  1  0  0  0
  2  1  1  0  0  0  0
  3  1  1  0  0  0  0
  4  3  1  0  0  0  0
  5  6  1  0  0  0  0
  5  4  1  0  0  0  0
  5 14  1  1  0  0  0
  6 31  1  6  0  0  0
  6  2  1  0  0  0  0
  7  9  1  0  0  0  0
  8 11  1  0  0  0  0
  9 11  2  0  0  0  0
 10  7  2  0  0  0  0
 10 12  1  0  0  0  0
 12  8  2  0  0  0  0
 13 15  1  0  0  0  0
 14 13  1  0  0  0  0
 15 17  1  0  0  0  0
 16 17  2  0  0  0  0
 18 16  1  6  0  0  0
 18 26  1  0  0  0  0
 18 28  1  0  0  0  0
 20 24  1  0  0  0  0
 21 27  1  0  0  0  0
 22 25  1  0  0  0  0
 22 21  1  0  0  0  0
 23 19  1  0  0  0  0
 23 24  1  0  0  0  0
 25 26  1  0  0  0  0
 26 20  1  0  0  0  0
 27 23  2  0  0  0  0
 30 28  1  0  0  0  0
 30 29  1  0  0  0  0
 32 31  1  6  0  0  0
 33 36  1  0  0  0  0
 33 34  1  1  0  0  0
 34 39  1  0  0  0  0
 36 35  2  0  0  0  0
 36 37  1  0  0  0  0
 38 37  1  0  0  0  0
 38 39  1  0  0  0  0
 38 32  1  1  0  0  0
 41 46  1  0  0  0  0
 41 40  1  0  0  0  0
 42 47  1  0  0  0  0
 44 43  1  6  0  0  0
 44 33  1  0  0  0  0
 44 47  1  0  0  0  0
 45 43  2  0  0  0  0
 45 46  1  0  0  0  0
 46 40  1  0  0  0  0
 46 42  1  0  0  0  0
 49 50  1  0  0  0  0
 49 51  1  1  0  0  0
 50 48  1  0  0  0  0
 50 32  1  0  0  0  0
 51 48  1  0  0  0  0
 52 53  1  6  0  0  0
 52 49  1  0  0  0  0
 54 55  1  0  0  0  0
 55 52  1  0  0  0  0
 56 54  1  0  0  0  0
 56 53  1  0  0  0  0
 57 54  2  0  0  0  0
M  END
>  <MODEL>
4

>  <REMARK>
 VINA RESULT:      -5.3      4.159      7.439
  Name = 
  14 active torsions:
  status: ('A' for Active; 'I' for Inactive)
    1  A    between atoms: C_5  and  C_34
    2  A    between atoms: C_10  and  C_14
    3  A    between atoms: C_11  and  C_26
    4  A    between atoms: C_11  and  C_38
    5  A    between atoms: C_16  and  C_56
    6  A    between atoms: S_22  and  C_36
    7  A    between atoms: C_26  and  N_37
    8  A    between atoms: C_26  and  C_51
    9  A    between atoms: C_28  and  O_40
   10  A    between atoms: C_28  and  C_41
   11  A    between atoms: C_28  and  N_47
   12  A    between atoms: C_29  and  C_43
   13  A    between atoms: C_36  and  C_44
   14  A    between atoms: O_40  and  C_48
                            x       y       z     vdW  Elec       q    Type
                         _______ _______ _______ _____ _____    ______ ____

>  <TORSDO>
F 14

$$$$
=
 OpenBabel10232409143D

 57 64  0  0  1  0  0  0  0  0999 V2000
  187.9980  176.8000  142.1180 C   0  0  0  0  0  2  0  0  0  0  0  0
  187.9350  177.2650  140.6660 C   0  0  2  0  0  3  0  0  0  0  0  0
  189.2150  175.9090  142.3790 C   0  0  0  0  0  2  0  0  0  0  0  0
  190.4050  176.1820  141.4460 C   0  0  0  0  0  2  0  0  0  0  0  0
  190.4850  177.6390  140.9710 C   0  0  1  0  0  3  0  0  0  0  0  0
  189.1820  178.0900  140.2960 C   0  0  1  0  0  3  0  0  0  0  0  0
  184.9470  178.8220  138.8890 C   0  0  0  0  0  3  0  0  0  0  0  0
  186.0090  178.6320  141.4700 C   0  0  0  0  0  3  0  0  0  0  0  0
  184.2870  179.4300  139.9610 C   0  0  0  0  0  3  0  0  0  0  0  0
  186.1380  178.1200  139.1070 C   0  0  0  0  0  3  0  0  0  0  0  0
  184.8180  179.3350  141.2520 C   0  0  0  0  0  3  0  0  0  0  0  0
  186.6710  178.0200  140.4010 C   0  0  0  0  0  0  0  0  0  0  0  0
  192.1500  178.3790  142.9780 S   0  0  0  0  0  0  0  0  0  0  0  0
  190.8040  178.5590  142.1070 C   0  0  0  0  0  2  0  0  0  0  0  0
  191.8840  179.5090  144.3480 C   0  0  0  0  0  2  0  0  0  0  0  0
  190.5830  177.6830  145.2990 C   0  0  0  0  0  3  0  0  0  0  0  0
  190.8030  178.9920  145.2310 C   0  0  0  0  0  3  0  0  0  0  0  0
  189.5140  177.0620  146.1700 C   0  0  2  0  0  3  0  0  0  0  0  0
  184.1270  177.8670  145.3700 F   0  0  0  0  0  0  0  0  0  0  0  0
  187.4800  177.6720  145.1410 C   0  0  0  0  0  2  0  0  0  0  0  0
  186.4080  179.4530  147.8450 C   0  0  0  0  0  2  0  0  0  0  0  0
  187.4380  178.4180  148.3020 C   0  0  0  0  0  2  0  0  0  0  0  0
  185.2290  178.4580  145.8970 C   0  0  0  0  0  0  0  0  0  0  0  0
  186.4010  178.7390  144.9970 C   0  0  0  0  0  2  0  0  0  0  0  0
  187.6020  177.3740  147.3710 O   0  0  0  0  0  0  0  0  0  0  0  0
  188.3080  177.8920  146.3290 N   0  0  0  0  0  0  0  0  0  0  0  0
  185.2250  178.8060  147.1900 C   0  0  0  0  0  3  0  0  0  0  0  0
  190.0160  176.5420  147.3870 O   0  0  0  0  0  0  0  0  0  0  0  0
  192.1590  175.5780  147.7930 C   0  0  0  0  0  1  0  0  0  0  0  0
  191.3820  176.8460  147.5000 C   0  0  0  0  0  2  0  0  0  0  0  0
  189.3280  178.4090  138.7980 C   0  0  0  0  0  2  0  0  0  0  0  0
  189.4610  177.2270  137.8030 C   0  0  2  0  0  3  0  0  0  0  0  0
  193.0420  174.8360  137.6410 C   0  0  2  0  0  3  0  0  0  0  0  0
  191.7330  174.0880  137.3330 C   0  0  0  0  0  2  0  0  0  0  0  0
  193.9240  176.6730  136.3240 O   0  0  0  0  0  0  0  0  0  0  0  0
  192.9620  176.1870  136.9740 C   0  0  0  0  0  0  0  0  0  0  0  0
  191.7630  176.8890  137.0680 O   0  0  0  0  0  0  0  0  0  0  0  0
  190.7290  176.3860  137.9080 C   0  0  2  0  0  3  0  0  0  0  0  0
  190.4530  174.9070  137.6060 C   0  0  0  0  0  2  0  0  0  0  0  0
  195.8970  170.1310  137.4750 C   0  0  0  0  0  2  0  0  0  0  0  0
  197.1840  170.8310  137.0610 C   0  0  0  0  0  2  0  0  0  0  0  0
  195.1870  172.0590  135.9660 C   0  0  0  0  0  2  0  0  0  0  0  0
  195.0130  173.5390  138.4880 C   0  0  0  0  0  3  0  0  0  0  0  0
  194.2880  174.0220  137.2490 C   0  0  1  0  0  3  0  0  0  0  0  0
  195.7930  172.4480  138.4790 C   0  0  0  0  0  3  0  0  0  0  0  0
  195.9090  171.6210  137.2320 C   0  0  0  0  0  0  0  0  0  0  0  0
  193.9270  172.8340  136.3410 C   0  0  0  0  0  2  0  0  0  0  0  0
  188.6850  178.8140  136.2150 N   0  0  0  0  0  2  0  0  0  0  0  0
  187.6430  177.0370  136.2590 C   0  0  1  0  0  3  0  0  0  0  0  0
  189.0300  177.4590  136.4090 N   0  0  0  0  0  0  0  0  0  0  0  0
  187.2810  178.4760  136.0270 C   0  0  0  0  0  2  0  0  0  0  0  0
  187.4640  176.2360  134.9740 C   0  0  1  0  0  3  0  0  0  0  0  0
  188.3240  174.9600  135.0100 C   0  0  0  0  0  2  0  0  0  0  0  0
  186.1420  174.3290  134.6480 C   0  0  0  0  0  0  0  0  0  0  0  0
  186.0070  175.7840  134.8340 C   0  0  0  0  0  2  0  0  0  0  0  0
  187.4370  173.8940  134.7390 O   0  0  0  0  0  0  0  0  0  0  0  0
  185.1690  173.5590  134.4320 O   0  0  0  0  0  0  0  0  0  0  0  0
  1  3  1  0  0  0  0
  2 12  1  1  0  0  0
  2  1  1  0  0  0  0
  4  3  1  0  0  0  0
  5  4  1  0  0  0  0
  5 14  1  1  0  0  0
  6 31  1  6  0  0  0
  6  2  1  0  0  0  0
  6  5  1  0  0  0  0
  7 10  2  0  0  0  0
  7  9  1  0  0  0  0
  9 11  2  0  0  0  0
 10 12  1  0  0  0  0
 11  8  1  0  0  0  0
 12  8  2  0  0  0  0
 13 15  1  0  0  0  0
 14 13  1  0  0  0  0
 15 17  1  0  0  0  0
 17 16  2  0  0  0  0
 18 16  1  1  0  0  0
 18 26  1  0  0  0  0
 18 28  1  0  0  0  0
 19 23  1  0  0  0  0
 20 26  1  0  0  0  0
 21 22  1  0  0  0  0
 23 27  2  0  0  0  0
 24 20  1  0  0  0  0
 24 23  1  0  0  0  0
 25 22  1  0  0  0  0
 26 25  1  0  0  0  0
 27 21  1  0  0  0  0
 28 30  1  0  0  0  0
 30 29  1  0  0  0  0
 32 31  1  6  0  0  0
 33 34  1  6  0  0  0
 34 39  1  0  0  0  0
 35 36  2  0  0  0  0
 36 37  1  0  0  0  0
 36 33  1  0  0  0  0
 37 38  1  0  0  0  0
 38 32  1  6  0  0  0
 39 38  1  0  0  0  0
 41 46  1  0  0  0  0
 41 40  1  0  0  0  0
 42 47  1  0  0  0  0
 42 46  1  0  0  0  0
 44 47  1  6  0  0  0
 44 33  1  0  0  0  0
 44 43  1  0  0  0  0
 45 43  2  0  0  0  0
 46 40  1  0  0  0  0
 46 45  1  0  0  0  0
 48 50  1  0  0  0  0
 49 51  1  6  0  0  0
 49 50  1  0  0  0  0
 50 32  1  0  0  0  0
 51 48  1  0  0  0  0
 52 55  1  1  0  0  0
 52 53  1  0  0  0  0
 52 49  1  0  0  0  0
 54 56  1  0  0  0  0
 54 55  1  0  0  0  0
 56 53  1  0  0  0  0
 57 54  2  0  0  0  0
M  END
>  <MODEL>
5

>  <REMARK>
 VINA RESULT:      -4.7      4.256      7.251
  Name = 
  14 active torsions:
  status: ('A' for Active; 'I' for Inactive)
    1  A    between atoms: C_5  and  C_34
    2  A    between atoms: C_10  and  C_14
    3  A    between atoms: C_11  and  C_26
    4  A    between atoms: C_11  and  C_38
    5  A    between atoms: C_16  and  C_56
    6  A    between atoms: S_22  and  C_36
    7  A    between atoms: C_26  and  N_37
    8  A    between atoms: C_26  and  C_51
    9  A    between atoms: C_28  and  O_40
   10  A    between atoms: C_28  and  C_41
   11  A    between atoms: C_28  and  N_47
   12  A    between atoms: C_29  and  C_43
   13  A    between atoms: C_36  and  C_44
   14  A    between atoms: O_40  and  C_48
                            x       y       z     vdW  Elec       q    Type
                         _______ _______ _______ _____ _____    ______ ____

>  <TORSDO>
F 14

$$$$
=
 OpenBabel10232409143D

 57 64  0  0  1  0  0  0  0  0999 V2000
  184.8210  179.6800  138.1710 C   0  0  0  0  0  2  0  0  0  0  0  0
  184.9770  178.5040  137.2110 C   0  0  2  0  0  3  0  0  0  0  0  0
  183.3600  179.8980  138.5710 C   0  0  0  0  0  2  0  0  0  0  0  0
  182.4990  178.6260  138.5240 C   0  0  0  0  0  2  0  0  0  0  0  0
  183.2920  177.3430  138.8060 C   0  0  1  0  0  3  0  0  0  0  0  0
  184.4910  177.1940  137.8590 C   0  0  1  0  0  3  0  0  0  0  0  0
  188.7830  178.6190  137.0770 C   0  0  0  0  0  3  0  0  0  0  0  0
  186.6300  177.9190  135.4340 C   0  0  0  0  0  3  0  0  0  0  0  0
  189.0180  178.1440  135.7840 C   0  0  0  0  0  3  0  0  0  0  0  0
  187.4710  178.7450  137.5490 C   0  0  0  0  0  3  0  0  0  0  0  0
  187.9420  177.7930  134.9630 C   0  0  0  0  0  3  0  0  0  0  0  0
  186.3890  178.3920  136.7280 C   0  0  0  0  0  0  0  0  0  0  0  0
  183.1740  178.3130  141.3350 S   0  0  0  0  0  0  0  0  0  0  0  0
  183.7670  177.3050  140.2240 C   0  0  0  0  0  2  0  0  0  0  0  0
  184.2770  178.0540  142.7290 C   0  0  0  0  0  2  0  0  0  0  0  0
  186.6470  177.6270  143.0900 C   0  0  0  0  0  3  0  0  0  0  0  0
  185.6900  178.0360  142.2630 C   0  0  0  0  0  3  0  0  0  0  0  0
  188.1080  177.5690  142.7070 C   0  0  2  0  0  3  0  0  0  0  0  0
  189.5020  176.0670  147.8170 F   0  0  0  0  0  0  0  0  0  0  0  0
  188.2220  177.5220  145.0630 C   0  0  0  0  0  2  0  0  0  0  0  0
  191.6320  177.4580  145.1030 C   0  0  0  0  0  2  0  0  0  0  0  0
  191.1360  176.9200  143.7590 C   0  0  0  0  0  2  0  0  0  0  0  0
  189.9080  176.8490  146.7850 C   0  0  0  0  0  0  0  0  0  0  0  0
  188.9980  177.9460  146.3050 C   0  0  0  0  0  2  0  0  0  0  0  0
  189.7930  176.5000  143.8100 O   0  0  0  0  0  0  0  0  0  0  0  0
  189.0360  177.6300  143.8500 N   0  0  0  0  0  0  0  0  0  0  0  0
  191.1190  176.6430  146.2510 C   0  0  0  0  0  3  0  0  0  0  0  0
  188.4450  178.4480  141.6490 O   0  0  0  0  0  0  0  0  0  0  0  0
  190.2110  177.4890  140.3660 C   0  0  0  0  0  1  0  0  0  0  0  0
  188.7150  177.7050  140.4890 C   0  0  0  0  0  2  0  0  0  0  0  0
  184.3890  175.9950  136.9010 C   0  0  0  0  0  2  0  0  0  0  0  0
  185.3240  174.7800  137.1380 C   0  0  2  0  0  3  0  0  0  0  0  0
  189.4810  174.7900  136.0050 C   0  0  2  0  0  3  0  0  0  0  0  0
  189.1960  175.1380  137.4760 C   0  0  0  0  0  2  0  0  0  0  0  0
  188.9560  172.6620  134.9630 O   0  0  0  0  0  0  0  0  0  0  0  0
  188.5580  173.6610  135.6170 C   0  0  0  0  0  0  0  0  0  0  0  0
  187.2310  173.7340  136.0330 O   0  0  0  0  0  0  0  0  0  0  0  0
  186.7650  174.9240  136.6610 C   0  0  2  0  0  3  0  0  0  0  0  0
  187.7010  175.3380  137.8050 C   0  0  0  0  0  2  0  0  0  0  0  0
  194.7520  174.7540  137.5960 C   0  0  0  0  0  2  0  0  0  0  0  0
  195.2600  174.4800  136.1880 C   0  0  0  0  0  2  0  0  0  0  0  0
  193.0110  173.2410  136.5100 C   0  0  0  0  0  2  0  0  0  0  0  0
  191.7690  175.7780  135.7310 C   0  0  0  0  0  3  0  0  0  0  0  0
  190.9690  174.4910  135.7510 C   0  0  1  0  0  3  0  0  0  0  0  0
  193.0770  175.8090  136.0250 C   0  0  0  0  0  3  0  0  0  0  0  0
  193.7770  174.5560  136.4610 C   0  0  0  0  0  0  0  0  0  0  0  0
  191.5390  173.5200  136.8000 C   0  0  0  0  0  2  0  0  0  0  0  0
  185.1050  172.9730  135.6110 N   0  0  0  0  0  2  0  0  0  0  0  0
  183.3570  173.5570  136.5350 C   0  0  1  0  0  3  0  0  0  0  0  0
  184.7630  173.4340  136.9010 N   0  0  0  0  0  0  0  0  0  0  0  0
  183.7190  173.0430  135.1700 C   0  0  0  0  0  2  0  0  0  0  0  0
  182.5190  172.5250  137.2800 C   0  0  1  0  0  3  0  0  0  0  0  0
  181.1550  173.1220  137.6740 C   0  0  0  0  0  2  0  0  0  0  0  0
  180.7620  171.2260  136.4320 C   0  0  0  0  0  0  0  0  0  0  0  0
  182.2300  171.3260  136.3720 C   0  0  0  0  0  2  0  0  0  0  0  0
  180.1860  172.2270  137.1690 O   0  0  0  0  0  0  0  0  0  0  0  0
  180.0990  170.3190  135.8630 O   0  0  0  0  0  0  0  0  0  0  0  0
  1  3  1  0  0  0  0
  2 12  1  1  0  0  0
  2  6  1  0  0  0  0
  2  1  1  0  0  0  0
  4  3  1  0  0  0  0
  4  5  1  0  0  0  0
  5 14  1  1  0  0  0
  6 31  1  6  0  0  0
  6  5  1  0  0  0  0
  7 10  1  0  0  0  0
  8 12  1  0  0  0  0
  9  7  2  0  0  0  0
 11  8  2  0  0  0  0
 11  9  1  0  0  0  0
 12 10  2  0  0  0  0
 13 15  1  0  0  0  0
 14 13  1  0  0  0  0
 17 15  1  0  0  0  0
 17 16  2  0  0  0  0
 18 16  1  1  0  0  0
 18 26  1  0  0  0  0
 20 24  1  0  0  0  0
 21 27  1  0  0  0  0
 22 25  1  0  0  0  0
 22 21  1  0  0  0  0
 23 19  1  0  0  0  0
 24 23  1  0  0  0  0
 25 26  1  0  0  0  0
 26 20  1  0  0  0  0
 27 23  2  0  0  0  0
 28 18  1  0  0  0  0
 29 30  1  0  0  0  0
 30 28  1  0  0  0  0
 32 31  1  6  0  0  0
 33 34  1  1  0  0  0
 34 39  1  0  0  0  0
 35 36  2  0  0  0  0
 36 33  1  0  0  0  0
 36 37  1  0  0  0  0
 37 38  1  0  0  0  0
 38 32  1  1  0  0  0
 38 39  1  0  0  0  0
 41 46  1  0  0  0  0
 41 40  1  0  0  0  0
 42 47  1  0  0  0  0
 43 45  2  0  0  0  0
 44 43  1  1  0  0  0
 44 33  1  0  0  0  0
 44 47  1  0  0  0  0
 45 46  1  0  0  0  0
 46 42  1  0  0  0  0
 46 40  1  0  0  0  0
 48 50  1  0  0  0  0
 49 51  1  6  0  0  0
 49 50  1  0  0  0  0
 49 52  1  0  0  0  0
 50 32  1  0  0  0  0
 51 48  1  0  0  0  0
 52 55  1  6  0  0  0
 52 53  1  0  0  0  0
 54 56  1  0  0  0  0
 55 54  1  0  0  0  0
 56 53  1  0  0  0  0
 57 54  2  0  0  0  0
M  END
>  <MODEL>
6

>  <REMARK>
 VINA RESULT:      -4.6      2.938      4.264
  Name = 
  14 active torsions:
  status: ('A' for Active; 'I' for Inactive)
    1  A    between atoms: C_5  and  C_34
    2  A    between atoms: C_10  and  C_14
    3  A    between atoms: C_11  and  C_26
    4  A    between atoms: C_11  and  C_38
    5  A    between atoms: C_16  and  C_56
    6  A    between atoms: S_22  and  C_36
    7  A    between atoms: C_26  and  N_37
    8  A    between atoms: C_26  and  C_51
    9  A    between atoms: C_28  and  O_40
   10  A    between atoms: C_28  and  C_41
   11  A    between atoms: C_28  and  N_47
   12  A    between atoms: C_29  and  C_43
   13  A    between atoms: C_36  and  C_44
   14  A    between atoms: O_40  and  C_48
                            x       y       z     vdW  Elec       q    Type
                         _______ _______ _______ _____ _____    ______ ____

>  <TORSDO>
F 14

$$$$
=
 OpenBabel10232409143D

 57 64  0  0  1  0  0  0  0  0999 V2000
  188.8190  173.8910  136.3970 C   0  0  0  0  0  2  0  0  0  0  0  0
  190.1340  174.5470  136.8070 C   0  0  2  0  0  3  0  0  0  0  0  0
  187.6710  174.2800  137.3320 C   0  0  0  0  0  2  0  0  0  0  0  0
  187.8480  175.6500  138.0060 C   0  0  0  0  0  2  0  0  0  0  0  0
  188.6510  176.6470  137.1600 C   0  0  1  0  0  3  0  0  0  0  0  0
  190.0220  176.0830  136.7630 C   0  0  1  0  0  3  0  0  0  0  0  0
  193.0430  174.4240  134.3500 C   0  0  0  0  0  3  0  0  0  0  0  0
  191.6170  172.6970  136.0260 C   0  0  0  0  0  3  0  0  0  0  0  0
  193.3920  173.0720  134.4180 C   0  0  0  0  0  3  0  0  0  0  0  0
  191.9810  174.9130  135.1200 C   0  0  0  0  0  3  0  0  0  0  0  0
  192.6790  172.2090  135.2560 C   0  0  0  0  0  3  0  0  0  0  0  0
  191.2650  174.0500  135.9630 C   0  0  0  0  0  0  0  0  0  0  0  0
  186.7630  178.1850  135.9680 S   0  0  0  0  0  0  0  0  0  0  0  0
  187.8960  177.0370  135.9280 C   0  0  0  0  0  2  0  0  0  0  0  0
  185.9930  178.0330  134.3520 C   0  0  0  0  0  2  0  0  0  0  0  0
  184.3880  176.6280  135.5260 C   0  0  0  0  0  3  0  0  0  0  0  0
  184.6460  177.4150  134.4870 C   0  0  0  0  0  3  0  0  0  0  0  0
  183.0500  175.9600  135.7520 C   0  0  2  0  0  3  0  0  0  0  0  0
  182.8770  179.0380  140.3120 F   0  0  0  0  0  0  0  0  0  0  0  0
  183.4020  176.6750  137.9720 C   0  0  0  0  0  2  0  0  0  0  0  0
  180.1010  177.3590  138.4920 C   0  0  0  0  0  2  0  0  0  0  0  0
  180.3930  177.4070  136.9910 C   0  0  0  0  0  2  0  0  0  0  0  0
  182.1810  178.0890  139.6370 C   0  0  0  0  0  0  0  0  0  0  0  0
  182.8320  176.7570  139.3840 C   0  0  0  0  0  2  0  0  0  0  0  0
  181.7630  177.5760  136.7140 O   0  0  0  0  0  0  0  0  0  0  0  0
  182.3620  176.3840  136.9820 N   0  0  0  0  0  0  0  0  0  0  0  0
  180.9270  178.3540  139.2500 C   0  0  0  0  0  3  0  0  0  0  0  0
  183.0900  174.5550  135.5720 O   0  0  0  0  0  0  0  0  0  0  0  0
  183.0970  172.5390  136.8440 C   0  0  0  0  0  1  0  0  0  0  0  0
  182.5030  173.9240  136.6800 C   0  0  0  0  0  2  0  0  0  0  0  0
  191.2130  176.8380  137.3780 C   0  0  0  0  0  2  0  0  0  0  0  0
  191.9620  176.1860  138.5700 C   0  0  2  0  0  3  0  0  0  0  0  0
  190.2660  177.1700  142.4070 C   0  0  2  0  0  3  0  0  0  0  0  0
  191.7950  177.3120  142.3040 C   0  0  0  0  0  2  0  0  0  0  0  0
  188.6690  178.4540  141.1060 O   0  0  0  0  0  0  0  0  0  0  0  0
  189.6730  177.6930  141.1220 C   0  0  0  0  0  0  0  0  0  0  0  0
  190.2890  177.3330  139.9270 O   0  0  0  0  0  0  0  0  0  0  0  0
  191.3420  176.3750  139.9510 C   0  0  2  0  0  3  0  0  0  0  0  0
  192.3990  176.7530  140.9980 C   0  0  0  0  0  2  0  0  0  0  0  0
  188.0310  176.9200  147.4330 C   0  0  0  0  0  2  0  0  0  0  0  0
  187.6520  178.3950  147.4270 C   0  0  0  0  0  2  0  0  0  0  0  0
  189.8910  178.1120  146.1610 C   0  0  0  0  0  2  0  0  0  0  0  0
  188.2270  177.5180  143.8230 C   0  0  0  0  0  3  0  0  0  0  0  0
  189.7000  177.8410  143.6710 C   0  0  1  0  0  3  0  0  0  0  0  0
  187.6140  177.5300  145.0160 C   0  0  0  0  0  3  0  0  0  0  0  0
  188.4050  177.7970  146.2630 C   0  0  0  0  0  0  0  0  0  0  0  0
  190.4750  177.4210  144.9310 C   0  0  0  0  0  2  0  0  0  0  0  0
  193.8770  177.3190  137.7360 N   0  0  0  0  0  2  0  0  0  0  0  0
  193.9820  175.2620  137.6790 C   0  0  1  0  0  3  0  0  0  0  0  0
  193.4370  176.2740  138.5760 N   0  0  0  0  0  0  0  0  0  0  0  0
  194.4710  176.3770  136.7990 C   0  0  0  0  0  2  0  0  0  0  0  0
  195.1620  174.5500  138.3310 C   0  0  1  0  0  3  0  0  0  0  0  0
  194.9790  173.0230  138.2550 C   0  0  0  0  0  2  0  0  0  0  0  0
  196.9910  173.5420  137.2660 C   0  0  0  0  0  0  0  0  0  0  0  0
  196.4550  174.8780  137.5790 C   0  0  0  0  0  2  0  0  0  0  0  0
  196.1600  172.5270  137.6590 O   0  0  0  0  0  0  0  0  0  0  0  0
  198.0950  173.3480  136.6930 O   0  0  0  0  0  0  0  0  0  0  0  0
  1  2  1  0  0  0  0
  1  3  1  0  0  0  0
  2 12  1  6  0  0  0
  3  4  1  0  0  0  0
  5 14  1  6  0  0  0
  5  4  1  0  0  0  0
  6  2  1  0  0  0  0
  6  5  1  0  0  0  0
  6 31  1  1  0  0  0
  7  9  2  0  0  0  0
  7 10  1  0  0  0  0
  9 11  1  0  0  0  0
 10 12  2  0  0  0  0
 11  8  2  0  0  0  0
 12  8  1  0  0  0  0
 14 13  1  0  0  0  0
 15 17  1  0  0  0  0
 15 13  1  0  0  0  0
 17 16  2  0  0  0  0
 18 16  1  1  0  0  0
 18 26  1  0  0  0  0
 20 24  1  0  0  0  0
 21 27  1  0  0  0  0
 22 21  1  0  0  0  0
 23 19  1  0  0  0  0
 24 23  1  0  0  0  0
 25 26  1  0  0  0  0
 25 22  1  0  0  0  0
 26 20  1  0  0  0  0
 27 23  2  0  0  0  0
 28 18  1  0  0  0  0
 28 30  1  0  0  0  0
 30 29  1  0  0  0  0
 32 31  1  6  0  0  0
 32 50  1  0  0  0  0
 33 34  1  6  0  0  0
 33 44  1  0  0  0  0
 35 36  2  0  0  0  0
 36 33  1  0  0  0  0
 37 38  1  0  0  0  0
 37 36  1  0  0  0  0
 38 32  1  6  0  0  0
 38 39  1  0  0  0  0
 39 34  1  0  0  0  0
 41 40  1  0  0  0  0
 42 46  1  0  0  0  0
 43 45  2  0  0  0  0
 44 43  1  1  0  0  0
 44 47  1  0  0  0  0
 45 46  1  0  0  0  0
 46 41  1  0  0  0  0
 46 40  1  0  0  0  0
 47 42  1  0  0  0  0
 48 50  1  0  0  0  0
 49 51  1  6  0  0  0
 49 52  1  0  0  0  0
 49 50  1  0  0  0  0
 51 48  1  0  0  0  0
 52 55  1  6  0  0  0
 53 52  1  0  0  0  0
 54 55  1  0  0  0  0
 54 56  1  0  0  0  0
 56 53  1  0  0  0  0
 57 54  2  0  0  0  0
M  END
>  <MODEL>
7

>  <REMARK>
 VINA RESULT:      -4.2      3.756      8.817
  Name = 
  14 active torsions:
  status: ('A' for Active; 'I' for Inactive)
    1  A    between atoms: C_5  and  C_34
    2  A    between atoms: C_10  and  C_14
    3  A    between atoms: C_11  and  C_26
    4  A    between atoms: C_11  and  C_38
    5  A    between atoms: C_16  and  C_56
    6  A    between atoms: S_22  and  C_36
    7  A    between atoms: C_26  and  N_37
    8  A    between atoms: C_26  and  C_51
    9  A    between atoms: C_28  and  O_40
   10  A    between atoms: C_28  and  C_41
   11  A    between atoms: C_28  and  N_47
   12  A    between atoms: C_29  and  C_43
   13  A    between atoms: C_36  and  C_44
   14  A    between atoms: O_40  and  C_48
                            x       y       z     vdW  Elec       q    Type
                         _______ _______ _______ _____ _____    ______ ____

>  <TORSDO>
F 14

$$$$
=
 OpenBabel10232409143D

 57 64  0  0  1  0  0  0  0  0999 V2000
  189.5250  177.7220  137.2340 C   0  0  0  0  0  2  0  0  0  0  0  0
  188.9460  176.8740  136.1050 C   0  0  2  0  0  3  0  0  0  0  0  0
  188.9070  179.1220  137.2700 C   0  0  0  0  0  2  0  0  0  0  0  0
  187.4810  179.1930  136.7020 C   0  0  0  0  0  2  0  0  0  0  0  0
  186.6880  177.8920  136.8790 C   0  0  1  0  0  3  0  0  0  0  0  0
  187.4260  176.6880  136.2780 C   0  0  1  0  0  3  0  0  0  0  0  0
  190.2980  173.4100  136.9310 C   0  0  0  0  0  3  0  0  0  0  0  0
  190.3510  175.2530  134.8280 C   0  0  0  0  0  3  0  0  0  0  0  0
  190.9880  173.1060  135.7550 C   0  0  0  0  0  3  0  0  0  0  0  0
  189.6340  174.6360  137.0570 C   0  0  0  0  0  3  0  0  0  0  0  0
  191.0140  174.0270  134.7030 C   0  0  0  0  0  3  0  0  0  0  0  0
  189.6570  175.5610  136.0030 C   0  0  0  0  0  0  0  0  0  0  0  0
  185.7120  178.7520  139.2580 S   0  0  0  0  0  0  0  0  0  0  0  0
  186.3990  177.6300  138.3240 C   0  0  0  0  0  2  0  0  0  0  0  0
  185.8790  178.0490  140.9020 C   0  0  0  0  0  2  0  0  0  0  0  0
  187.8430  177.8530  142.3290 C   0  0  0  0  0  3  0  0  0  0  0  0
  187.2900  177.6390  141.1390 C   0  0  0  0  0  3  0  0  0  0  0  0
  189.2650  177.4680  142.6670 C   0  0  2  0  0  3  0  0  0  0  0  0
  188.0130  176.5380  147.9460 F   0  0  0  0  0  0  0  0  0  0  0  0
  188.3310  177.7370  144.8170 C   0  0  0  0  0  2  0  0  0  0  0  0
  191.3160  177.2640  146.3980 C   0  0  0  0  0  2  0  0  0  0  0  0
  191.3700  176.6080  145.0170 C   0  0  0  0  0  2  0  0  0  0  0  0
  188.9560  177.1110  147.1570 C   0  0  0  0  0  0  0  0  0  0  0  0
  188.5490  178.2330  146.2420 C   0  0  0  0  0  2  0  0  0  0  0  0
  190.0890  176.3660  144.4840 O   0  0  0  0  0  0  0  0  0  0  0  0
  189.5970  177.5750  144.0980 N   0  0  0  0  0  0  0  0  0  0  0  0
  190.2230  176.6860  147.2440 C   0  0  0  0  0  3  0  0  0  0  0  0
  190.2240  178.0620  141.8100 O   0  0  0  0  0  0  0  0  0  0  0  0
  191.9160  177.5490  140.2120 C   0  0  0  0  0  1  0  0  0  0  0  0
  190.5740  177.1550  140.7970 C   0  0  0  0  0  2  0  0  0  0  0  0
  186.7100  176.0470  135.0760 C   0  0  0  0  0  2  0  0  0  0  0  0
  185.6560  174.9440  135.3490 C   0  0  2  0  0  3  0  0  0  0  0  0
  182.3610  176.4420  137.6870 C   0  0  2  0  0  3  0  0  0  0  0  0
  183.3040  175.4720  138.4200 C   0  0  0  0  0  2  0  0  0  0  0  0
  183.0200  178.6010  136.7970 O   0  0  0  0  0  0  0  0  0  0  0  0
  183.2140  177.3580  136.8450 C   0  0  0  0  0  0  0  0  0  0  0  0
  184.2640  176.7910  136.1280 O   0  0  0  0  0  0  0  0  0  0  0  0
  184.3940  175.3740  136.0920 C   0  0  2  0  0  3  0  0  0  0  0  0
  184.3440  174.7860  137.5080 C   0  0  0  0  0  2  0  0  0  0  0  0
  181.4700  179.7670  141.9850 C   0  0  0  0  0  2  0  0  0  0  0  0
  179.9960  179.3930  142.0720 C   0  0  0  0  0  2  0  0  0  0  0  0
  180.6990  179.4030  139.5820 C   0  0  0  0  0  2  0  0  0  0  0  0
  181.5820  176.6500  140.0610 C   0  0  0  0  0  3  0  0  0  0  0  0
  181.4190  177.1840  138.6520 C   0  0  1  0  0  3  0  0  0  0  0  0
  181.2940  177.3910  141.1410 C   0  0  0  0  0  3  0  0  0  0  0  0
  180.8630  178.8190  140.9790 C   0  0  0  0  0  0  0  0  0  0  0  0
  181.6560  178.7030  138.6220 C   0  0  0  0  0  2  0  0  0  0  0  0
  187.3220  173.2770  135.0520 N   0  0  0  0  0  2  0  0  0  0  0  0
  185.3820  172.5810  135.0870 C   0  0  1  0  0  3  0  0  0  0  0  0
  186.1520  173.6160  135.7650 N   0  0  0  0  0  0  0  0  0  0  0  0
  186.6350  172.2050  134.3460 C   0  0  0  0  0  2  0  0  0  0  0  0
  184.9960  171.4760  136.0620 C   0  0  1  0  0  3  0  0  0  0  0  0
  183.6470  171.7940  136.7310 C   0  0  0  0  0  2  0  0  0  0  0  0
  183.4640  169.7360  135.7200 C   0  0  0  0  0  0  0  0  0  0  0  0
  184.8170  170.1510  135.3130 C   0  0  0  0  0  2  0  0  0  0  0  0
  182.8360  170.6570  136.5160 O   0  0  0  0  0  0  0  0  0  0  0  0
  182.9320  168.6480  135.3720 O   0  0  0  0  0  0  0  0  0  0  0  0
  1  3  1  0  0  0  0
  2 12  1  1  0  0  0
  2  6  1  0  0  0  0
  2  1  1  0  0  0  0
  4  5  1  0  0  0  0
  4  3  1  0  0  0  0
  5 14  1  1  0  0  0
  6 31  1  6  0  0  0
  6  5  1  0  0  0  0
  7 10  1  0  0  0  0
  8 12  1  0  0  0  0
  9  7  2  0  0  0  0
 11  8  2  0  0  0  0
 11  9  1  0  0  0  0
 12 10  2  0  0  0  0
 13 15  1  0  0  0  0
 14 13  1  0  0  0  0
 15 17  1  0  0  0  0
 17 16  2  0  0  0  0
 18 16  1  1  0  0  0
 18 26  1  0  0  0  0
 20 24  1  0  0  0  0
 21 27  1  0  0  0  0
 22 21  1  0  0  0  0
 23 27  2  0  0  0  0
 23 19  1  0  0  0  0
 24 23  1  0  0  0  0
 25 22  1  0  0  0  0
 26 25  1  0  0  0  0
 26 20  1  0  0  0  0
 28 18  1  0  0  0  0
 29 30  1  0  0  0  0
 30 28  1  0  0  0  0
 32 31  1  1  0  0  0
 32 50  1  0  0  0  0
 33 34  1  1  0  0  0
 33 44  1  0  0  0  0
 35 36  2  0  0  0  0
 36 33  1  0  0  0  0
 37 36  1  0  0  0  0
 38 32  1  1  0  0  0
 38 37  1  0  0  0  0
 38 39  1  0  0  0  0
 39 34  1  0  0  0  0
 40 41  1  0  0  0  0
 42 46  1  0  0  0  0
 43 45  2  0  0  0  0
 44 47  1  1  0  0  0
 44 43  1  0  0  0  0
 46 45  1  0  0  0  0
 46 40  1  0  0  0  0
 46 41  1  0  0  0  0
 47 42  1  0  0  0  0
 48 50  1  0  0  0  0
 49 51  1  6  0  0  0
 49 50  1  0  0  0  0
 49 52  1  0  0  0  0
 51 48  1  0  0  0  0
 52 55  1  6  0  0  0
 52 53  1  0  0  0  0
 54 56  1  0  0  0  0
 55 54  1  0  0  0  0
 56 53  1  0  0  0  0
 57 54  2  0  0  0  0
M  END
>  <MODEL>
8

>  <REMARK>
 VINA RESULT:      -4.2      3.180      7.507
  Name = 
  14 active torsions:
  status: ('A' for Active; 'I' for Inactive)
    1  A    between atoms: C_5  and  C_34
    2  A    between atoms: C_10  and  C_14
    3  A    between atoms: C_11  and  C_26
    4  A    between atoms: C_11  and  C_38
    5  A    between atoms: C_16  and  C_56
    6  A    between atoms: S_22  and  C_36
    7  A    between atoms: C_26  and  N_37
    8  A    between atoms: C_26  and  C_51
    9  A    between atoms: C_28  and  O_40
   10  A    between atoms: C_28  and  C_41
   11  A    between atoms: C_28  and  N_47
   12  A    between atoms: C_29  and  C_43
   13  A    between atoms: C_36  and  C_44
   14  A    between atoms: O_40  and  C_48
                            x       y       z     vdW  Elec       q    Type
                         _______ _______ _______ _____ _____    ______ ____

>  <TORSDO>
F 14

$$$$
=
 OpenBabel10232409143D

 57 64  0  0  1  0  0  0  0  0999 V2000
  189.0730  178.9580  138.1700 C   0  0  0  0  0  2  0  0  0  0  0  0
  189.2420  177.4820  138.5160 C   0  0  2  0  0  3  0  0  0  0  0  0
  189.1600  179.2040  136.6620 C   0  0  0  0  0  2  0  0  0  0  0  0
  188.7350  178.0010  135.8040 C   0  0  0  0  0  2  0  0  0  0  0  0
  187.6790  177.1150  136.4770 C   0  0  1  0  0  3  0  0  0  0  0  0
  188.1380  176.6310  137.8600 C   0  0  1  0  0  3  0  0  0  0  0  0
  190.3970  176.4820  142.0060 C   0  0  0  0  0  3  0  0  0  0  0  0
  188.2260  177.7500  140.7800 C   0  0  0  0  0  3  0  0  0  0  0  0
  189.3350  176.9530  142.7830 C   0  0  0  0  0  3  0  0  0  0  0  0
  190.3740  176.6440  140.6160 C   0  0  0  0  0  3  0  0  0  0  0  0
  188.2500  177.5870  142.1700 C   0  0  0  0  0  3  0  0  0  0  0  0
  189.2870  177.2820  139.9980 C   0  0  0  0  0  0  0  0  0  0  0  0
  185.1630  177.2270  137.4800 S   0  0  0  0  0  0  0  0  0  0  0  0
  186.3750  177.8380  136.6090 C   0  0  0  0  0  2  0  0  0  0  0  0
  183.7910  178.3050  137.0540 C   0  0  0  0  0  2  0  0  0  0  0  0
  182.4810  179.1550  138.9230 C   0  0  0  0  0  3  0  0  0  0  0  0
  182.7040  178.1680  138.0610 C   0  0  0  0  0  3  0  0  0  0  0  0
  181.3990  179.1110  139.9770 C   0  0  2  0  0  3  0  0  0  0  0  0
  184.8750  180.0970  144.1310 F   0  0  0  0  0  0  0  0  0  0  0  0
  183.3330  179.0500  141.3270 C   0  0  0  0  0  2  0  0  0  0  0  0
  181.5770  178.3750  144.1720 C   0  0  0  0  0  2  0  0  0  0  0  0
  180.6520  179.0540  143.1600 C   0  0  0  0  0  2  0  0  0  0  0  0
  183.8530  179.2830  143.7630 C   0  0  0  0  0  0  0  0  0  0  0  0
  184.0160  178.4250  142.5380 C   0  0  0  0  0  2  0  0  0  0  0  0
  181.3620  179.7520  142.1650 O   0  0  0  0  0  0  0  0  0  0  0  0
  181.8880  178.8110  141.3340 N   0  0  0  0  0  0  0  0  0  0  0  0
  182.7490  179.2410  144.5200 C   0  0  0  0  0  3  0  0  0  0  0  0
  180.2740  178.3420  139.5920 O   0  0  0  0  0  0  0  0  0  0  0  0
  180.0860  175.9670  139.5240 C   0  0  0  0  0  1  0  0  0  0  0  0
  180.1860  177.1990  140.4010 C   0  0  0  0  0  2  0  0  0  0  0  0
  188.3500  175.1100  137.9540 C   0  0  0  0  0  2  0  0  0  0  0  0
  189.2650  174.4270  136.9060 C   0  0  2  0  0  3  0  0  0  0  0  0
  193.3390  175.7450  136.4270 C   0  0  2  0  0  3  0  0  0  0  0  0
  192.8840  175.5200  137.8800 C   0  0  0  0  0  2  0  0  0  0  0  0
  193.4500  174.0140  134.7310 O   0  0  0  0  0  0  0  0  0  0  0  0
  192.7660  174.6270  135.5920 C   0  0  0  0  0  0  0  0  0  0  0  0
  191.4430  174.2590  135.8180 O   0  0  0  0  0  0  0  0  0  0  0  0
  190.6470  175.0400  136.7030 C   0  0  2  0  0  3  0  0  0  0  0  0
  191.3700  175.2580  138.0380 C   0  0  0  0  0  2  0  0  0  0  0  0
  198.2030  174.2030  134.3550 C   0  0  0  0  0  2  0  0  0  0  0  0
  198.9870  175.0200  135.3740 C   0  0  0  0  0  2  0  0  0  0  0  0
  196.8180  176.3010  134.7820 C   0  0  0  0  0  2  0  0  0  0  0  0
  195.5560  174.6530  136.8500 C   0  0  0  0  0  3  0  0  0  0  0  0
  194.8670  175.8900  136.3090 C   0  0  1  0  0  3  0  0  0  0  0  0
  196.7790  174.2830  136.4430 C   0  0  0  0  0  3  0  0  0  0  0  0
  197.4780  175.0600  135.3660 C   0  0  0  0  0  0  0  0  0  0  0  0
  195.3010  176.1550  134.8570 C   0  0  0  0  0  2  0  0  0  0  0  0
  187.5760  174.8310  135.2850 N   0  0  0  0  0  2  0  0  0  0  0  0
  187.7190  172.8810  135.9340 C   0  0  1  0  0  3  0  0  0  0  0  0
  188.6380  173.9750  135.6470 N   0  0  0  0  0  0  0  0  0  0  0  0
  186.5910  173.7860  135.5240 C   0  0  0  0  0  2  0  0  0  0  0  0
  187.8880  171.7590  134.9160 C   0  0  1  0  0  3  0  0  0  0  0  0
  189.3670  171.6170  134.5110 C   0  0  0  0  0  2  0  0  0  0  0  0
  188.6560  169.5780  135.3040 C   0  0  0  0  0  0  0  0  0  0  0  0
  187.4690  170.4200  135.5330 C   0  0  0  0  0  2  0  0  0  0  0  0
  189.6930  170.2600  134.7260 O   0  0  0  0  0  0  0  0  0  0  0  0
  188.7170  168.3580  135.6100 O   0  0  0  0  0  0  0  0  0  0  0  0
  1  2  1  0  0  0  0
  2 12  1  1  0  0  0
  3  1  1  0  0  0  0
  4  5  1  0  0  0  0
  4  3  1  0  0  0  0
  5 14  1  1  0  0  0
  5  6  1  0  0  0  0
  6 31  1  6  0  0  0
  6  2  1  0  0  0  0
  7  9  1  0  0  0  0
  8 11  1  0  0  0  0
 10  7  2  0  0  0  0
 11  9  2  0  0  0  0
 12 10  1  0  0  0  0
 12  8  2  0  0  0  0
 14 13  1  0  0  0  0
 15 13  1  0  0  0  0
 15 17  1  0  0  0  0
 17 16  2  0  0  0  0
 18 16  1  6  0  0  0
 18 26  1  0  0  0  0
 20 26  1  0  0  0  0
 20 24  1  0  0  0  0
 21 27  1  0  0  0  0
 22 21  1  0  0  0  0
 23 19  1  0  0  0  0
 23 27  2  0  0  0  0
 24 23  1  0  0  0  0
 25 22  1  0  0  0  0
 26 25  1  0  0  0  0
 28 18  1  0  0  0  0
 28 30  1  0  0  0  0
 29 30  1  0  0  0  0
 32 31  1  6  0  0  0
 33 34  1  1  0  0  0
 34 39  1  0  0  0  0
 35 36  2  0  0  0  0
 36 37  1  0  0  0  0
 36 33  1  0  0  0  0
 37 38  1  0  0  0  0
 38 32  1  1  0  0  0
 38 39  1  0  0  0  0
 40 46  1  0  0  0  0
 40 41  1  0  0  0  0
 42 47  1  0  0  0  0
 42 46  1  0  0  0  0
 44 47  1  6  0  0  0
 44 33  1  0  0  0  0
 44 43  1  0  0  0  0
 45 43  2  0  0  0  0
 46 41  1  0  0  0  0
 46 45  1  0  0  0  0
 48 51  1  0  0  0  0
 48 50  1  0  0  0  0
 49 51  1  6  0  0  0
 50 49  1  0  0  0  0
 50 32  1  0  0  0  0
 52 53  1  1  0  0  0
 52 55  1  0  0  0  0
 52 49  1  0  0  0  0
 53 56  1  0  0  0  0
 54 55  1  0  0  0  0
 54 57  2  0  0  0  0
 56 54  1  0  0  0  0
M  END
>  <MODEL>
9

>  <REMARK>
 VINA RESULT:      -4.0      2.783      4.710
  Name = 
  14 active torsions:
  status: ('A' for Active; 'I' for Inactive)
    1  A    between atoms: C_5  and  C_34
    2  A    between atoms: C_10  and  C_14
    3  A    between atoms: C_11  and  C_26
    4  A    between atoms: C_11  and  C_38
    5  A    between atoms: C_16  and  C_56
    6  A    between atoms: S_22  and  C_36
    7  A    between atoms: C_26  and  N_37
    8  A    between atoms: C_26  and  C_51
    9  A    between atoms: C_28  and  O_40
   10  A    between atoms: C_28  and  C_41
   11  A    between atoms: C_28  and  N_47
   12  A    between atoms: C_29  and  C_43
   13  A    between atoms: C_36  and  C_44
   14  A    between atoms: O_40  and  C_48
                            x       y       z     vdW  Elec       q    Type
                         _______ _______ _______ _____ _____    ______ ____

>  <TORSDO>
F 14

$$$$
