=
 OpenBabel10232409593D

 58 61  0  0  1  0  0  0  0  0999 V2000
  192.1340  174.8210  144.2430 F   0  0  0  0  0  0  0  0  0  0  0  0
  190.3980  177.1830  147.5990 C   0  0  0  0  0  1  0  0  0  0  0  0
  189.3990  177.1040  143.4160 C   0  0  2  0  0  3  0  0  0  0  0  0
  190.6970  176.5300  145.2480 C   0  0  0  0  0  0  0  0  0  0  0  0
  191.1310  176.4720  146.5140 C   0  0  0  0  0  0  0  0  0  0  0  0
  191.3190  175.8950  144.1450 N   0  0  0  0  0  0  0  0  0  0  0  0
  190.5350  176.1770  142.9510 C   0  0  2  0  0  3  0  0  0  0  0  0
  189.5480  177.2580  144.8580 N   0  0  0  0  0  2  0  0  0  0  0  0
  192.3690  175.7280  146.8840 C   0  0  0  0  0  1  0  0  0  0  0  0
  188.0480  176.4870  143.0940 C   0  0  0  0  0  2  0  0  0  0  0  0
  187.0440  177.5740  142.7520 C   0  0  2  0  0  3  0  0  0  0  0  0
  186.8380  178.7750  140.7330 O   0  0  0  0  0  0  0  0  0  0  0  0
  187.5750  178.4010  141.6300 C   0  0  0  0  0  3  0  0  0  0  0  0
  186.8010  178.4440  143.9780 C   0  0  0  0  0  2  0  0  0  0  0  0
  185.4180  178.1520  146.0220 C   0  0  0  0  0  1  0  0  0  0  0  0
  185.3860  178.2700  144.5060 C   0  0  1  0  0  3  0  0  0  0  0  0
  184.5620  179.4780  144.1000 C   0  0  0  0  0  2  0  0  0  0  0  0
  184.4670  179.5540  142.6840 O   0  0  0  0  0  0  0  0  0  0  0  0
  182.4170  178.5060  142.5380 O   0  0  0  0  0  0  0  0  0  0  0  0
  183.7200  178.5410  140.6010 N   0  0  0  0  0  2  0  0  0  0  0  0
  183.4900  178.8570  141.9750 C   0  0  0  0  0  0  0  0  0  0  0  0
  184.0300  174.5640  136.5780 C   0  0  0  0  0  2  0  0  0  0  0  0
  182.1080  175.3360  137.8860 C   0  0  0  0  0  2  0  0  0  0  0  0
  183.4820  174.7080  137.9920 C   0  0  2  0  0  3  0  0  0  0  0  0
  183.5000  177.3860  137.5370 C   0  0  2  0  0  3  0  0  0  0  0  0
  184.9700  177.8390  137.4810 C   0  0  0  0  0  2  0  0  0  0  0  0
  182.7430  177.8490  139.7720 C   0  0  1  0  0  3  0  0  0  0  0  0
  182.7640  178.4250  138.3460 C   0  0  2  0  0  3  0  0  0  0  0  0
  186.0190  176.7360  137.3790 C   0  0  0  0  0  2  0  0  0  0  0  0
  183.2730  176.1660  138.4020 C   0  0  1  0  0  0  0  0  0  0  0  0
  185.7900  175.8470  136.1690 C   0  0  0  0  0  2  0  0  0  0  0  0
  183.0510  176.4690  139.7470 O   0  0  0  0  0  0  0  0  0  0  0  0
  185.4260  174.5710  136.6020 O   0  0  0  0  0  0  0  0  0  0  0  0
  181.3400  178.6170  137.8160 C   0  0  1  0  0  3  0  0  0  0  0  0
  180.4170  178.4220  138.8460 O   0  0  0  0  0  1  0  0  0  0  0  0
  181.1720  180.0200  137.2530 C   0  0  0  0  0  2  0  0  0  0  0  0
  180.4340  180.8980  138.2460 C   0  0  0  0  0  2  0  0  0  0  0  0
  181.3260  181.7990  138.8240 O   0  0  0  0  0  1  0  0  0  0  0  0
  191.3740  176.9210  141.9230 C   0  0  0  0  0  2  0  0  0  0  0  0
  190.5130  177.7850  141.0190 C   0  0  0  0  0  2  0  0  0  0  0  0
  189.9540  176.9470  139.8840 C   0  0  0  0  0  2  0  0  0  0  0  0
  189.7620  175.5660  137.4030 O   0  0  0  0  0  0  0  0  0  0  0  0
  191.0110  176.1420  139.2900 N   0  0  0  0  0  2  0  0  0  0  0  0
  190.8480  175.4680  138.0370 C   0  0  0  0  0  0  0  0  0  0  0  0
  193.1780  175.0010  137.7410 N   0  0  0  0  0  0  0  0  0  0  0  0
  191.9480  174.6640  137.4810 C   0  0  0  0  0  0  0  0  0  0  0  0
  194.3530  174.2890  137.2410 C   0  0  1  0  0  3  0  0  0  0  0  0
  195.1280  175.1820  136.2900 C   0  0  0  0  0  2  0  0  0  0  0  0
  195.2830  174.5420  135.0590 O   0  0  0  0  0  1  0  0  0  0  0  0
  195.9160  173.6230  139.2440 N   0  0  0  0  0  0  0  0  0  0  0  0
  195.2270  173.9170  138.3610 C   0  0  0  0  0  0  0  0  0  0  0  0
  191.6340  173.4950  136.5950 C   0  0  0  0  0  2  0  0  0  0  0  0
  191.7090  173.9090  135.1390 C   0  0  0  0  0  2  0  0  0  0  0  0
  192.4240  172.8310  134.3510 C   0  0  0  0  0  2  0  0  0  0  0  0
  191.6940  171.5030  134.4880 C   0  0  0  0  0  2  0  0  0  0  0  0
  192.6530  170.3730  134.8520 C   0  0  0  0  0  2  0  0  0  0  0  0
  194.0390  170.9020  135.1880 C   0  0  0  0  0  2  0  0  0  0  0  0
  194.3550  170.6800  136.6580 C   0  0  0  0  0  1  0  0  0  0  0  0
  3 10  1  1  0  0  0
  3  8  1  0  0  0  0
  4  5  2  0  0  0  0
  5  9  1  0  0  0  0
  5  2  1  0  0  0  0
  6  1  1  0  0  0  0
  6  4  1  0  0  0  0
  7 39  1  6  0  0  0
  7  3  1  0  0  0  0
  7  6  1  0  0  0  0
  8  4  1  0  0  0  0
 11 13  1  6  0  0  0
 11 10  1  0  0  0  0
 11 14  1  0  0  0  0
 12 13  2  0  0  0  0
 14 16  1  0  0  0  0
 16 15  1  1  0  0  0
 17 16  1  0  0  0  0
 18 17  1  0  0  0  0
 20 21  1  0  0  0  0
 21 19  2  0  0  0  0
 21 18  1  0  0  0  0
 22 33  1  0  0  0  0
 23 24  1  0  0  0  0
 24 22  1  6  0  0  0
 24 30  1  0  0  0  0
 25 26  1  1  0  0  0
 25 28  1  0  0  0  0
 25 30  1  0  0  0  0
 27 20  1  1  0  0  0
 28 34  1  6  0  0  0
 28 27  1  0  0  0  0
 29 26  1  0  0  0  0
 30 23  1  6  0  0  0
 30 32  1  0  0  0  0
 31 33  1  0  0  0  0
 31 29  1  0  0  0  0
 32 27  1  0  0  0  0
 34 35  1  1  0  0  0
 36 34  1  0  0  0  0
 36 37  1  0  0  0  0
 37 38  1  0  0  0  0
 40 39  1  0  0  0  0
 41 40  1  0  0  0  0
 42 44  2  0  0  0  0
 43 41  1  0  0  0  0
 44 43  1  0  0  0  0
 46 45  2  0  0  0  0
 46 44  1  0  0  0  0
 47 48  1  6  0  0  0
 47 45  1  0  0  0  0
 47 51  1  0  0  0  0
 49 48  1  0  0  0  0
 51 50  3  0  0  0  0
 52 46  1  0  0  0  0
 53 52  1  0  0  0  0
 54 55  1  0  0  0  0
 54 53  1  0  0  0  0
 55 56  1  0  0  0  0
 56 57  1  0  0  0  0
 57 58  1  0  0  0  0
M  END
>  <MODEL>
1

>  <REMARK>
 VINA RESULT:      -6.4      0.000      0.000
  Name = 
  26 active torsions:
  status: ('A' for Active; 'I' for Inactive)
    1  A    between atoms: C_1  and  C_30
    2  A    between atoms: C_1  and  C_45
    3  A    between atoms: C_1  and  C_58
    4  A    between atoms: CA_3  and  N_29
    5  A    between atoms: CA_3  and  C_33
    6  A    between atoms: CA_3  and  C_56
    7  A    between atoms: C_9  and  C_24
    8  A    between atoms: C_9  and  C_36
    9  A    between atoms: N_10  and  C_19
   10  A    between atoms: C_12  and  C_39
   11  A    between atoms: C_12  and  C_48
   12  A    between atoms: C_15  and  C_36
   13  A    between atoms: C_16  and  C_58
   14  A    between atoms: N_22  and  C_55
   15  A    between atoms: C_23  and  C_49
   16  A    between atoms: C_25  and  C_41
   17  A    between atoms: C_25  and  C_51
   18  A    between atoms: C_26  and  C_34
   19  A    between atoms: C_30  and  C_31
   20  A    between atoms: C_31  and  C_43
   21  A    between atoms: C_34  and  C_39
   22  A    between atoms: C_38  and  O_53
   23  A    between atoms: C_42  and  C_48
   24  A    between atoms: C_42  and  C_49
   25  A    between atoms: C_43  and  O_53
   26  A    between atoms: C_51  and  C_55
                            x       y       z     vdW  Elec       q    Type
                         _______ _______ _______ _____ _____    ______ ____

>  <TORSDO>
F 26

$$$$
=
 OpenBabel10232409593D

 58 61  0  0  1  0  0  0  0  0999 V2000
  189.1890  176.0820  146.8460 F   0  0  0  0  0  0  0  0  0  0  0  0
  186.3000  179.3240  147.8410 C   0  0  0  0  0  1  0  0  0  0  0  0
  187.8040  177.9790  144.0430 C   0  0  2  0  0  3  0  0  0  0  0  0
  187.7450  177.9980  146.3590 C   0  0  0  0  0  0  0  0  0  0  0  0
  187.3830  178.3270  147.6070 C   0  0  0  0  0  0  0  0  0  0  0  0
  188.7600  177.0670  146.0260 N   0  0  0  0  0  0  0  0  0  0  0  0
  188.8330  176.9680  144.5760 C   0  0  2  0  0  3  0  0  0  0  0  0
  187.1470  178.5610  145.2070 N   0  0  0  0  0  2  0  0  0  0  0  0
  188.0610  177.7440  148.7990 C   0  0  0  0  0  1  0  0  0  0  0  0
  186.7810  177.2780  143.1630 C   0  0  0  0  0  2  0  0  0  0  0  0
  186.6500  178.0010  141.8340 C   0  0  2  0  0  3  0  0  0  0  0  0
  188.5790  178.3140  140.5140 O   0  0  0  0  0  0  0  0  0  0  0  0
  187.9470  178.6580  141.5000 C   0  0  0  0  0  3  0  0  0  0  0  0
  185.5420  179.0430  141.9310 C   0  0  0  0  0  2  0  0  0  0  0  0
  184.0010  179.4580  143.8350 C   0  0  0  0  0  1  0  0  0  0  0  0
  184.3470  178.5060  142.7000 C   0  0  1  0  0  3  0  0  0  0  0  0
  183.1690  178.3870  141.7510 C   0  0  0  0  0  2  0  0  0  0  0  0
  183.3440  177.2700  140.8900 O   0  0  0  0  0  0  0  0  0  0  0  0
  183.3730  178.5260  138.9540 O   0  0  0  0  0  0  0  0  0  0  0  0
  183.0730  176.2230  138.7090 N   0  0  0  0  0  2  0  0  0  0  0  0
  183.2710  177.3940  139.5030 C   0  0  0  0  0  0  0  0  0  0  0  0
  183.1730  172.2660  134.6570 C   0  0  0  0  0  2  0  0  0  0  0  0
  182.4940  174.6170  134.5460 C   0  0  0  0  0  2  0  0  0  0  0  0
  182.1970  173.2920  135.2170 C   0  0  2  0  0  3  0  0  0  0  0  0
  184.3830  174.5800  136.1880 C   0  0  2  0  0  3  0  0  0  0  0  0
  184.9660  173.7170  137.3210 C   0  0  0  0  0  2  0  0  0  0  0  0
  183.0200  176.2510  137.2540 C   0  0  1  0  0  3  0  0  0  0  0  0
  184.4230  176.0070  136.6740 C   0  0  2  0  0  3  0  0  0  0  0  0
  184.4340  172.2920  137.4360 C   0  0  0  0  0  2  0  0  0  0  0  0
  182.8920  174.4070  135.9990 C   0  0  1  0  0  0  0  0  0  0  0  0
  184.6270  171.5110  136.1480 C   0  0  0  0  0  2  0  0  0  0  0  0
  182.1250  175.2520  136.8050 O   0  0  0  0  0  0  0  0  0  0  0  0
  183.3790  171.2420  135.5840 O   0  0  0  0  0  0  0  0  0  0  0  0
  184.7060  176.9670  135.5150 C   0  0  1  0  0  3  0  0  0  0  0  0
  183.7590  177.9940  135.5040 O   0  0  0  0  0  1  0  0  0  0  0  0
  186.0970  177.5700  135.6570 C   0  0  0  0  0  2  0  0  0  0  0  0
  186.3750  177.9070  137.1090 C   0  0  0  0  0  2  0  0  0  0  0  0
  187.5590  177.2920  137.5120 O   0  0  0  0  0  1  0  0  0  0  0  0
  190.2120  177.3780  144.0810 C   0  0  0  0  0  2  0  0  0  0  0  0
  190.6150  176.5980  142.8420 C   0  0  0  0  0  2  0  0  0  0  0  0
  191.6870  177.3560  142.0810 C   0  0  0  0  0  2  0  0  0  0  0  0
  193.1240  178.3870  139.8510 O   0  0  0  0  0  0  0  0  0  0  0  0
  192.1410  176.5710  140.9430 N   0  0  0  0  0  2  0  0  0  0  0  0
  192.8590  177.1530  139.8480 C   0  0  0  0  0  0  0  0  0  0  0  0
  194.3830  175.6110  138.8320 N   0  0  0  0  0  0  0  0  0  0  0  0
  193.2940  176.3150  138.7200 C   0  0  0  0  0  0  0  0  0  0  0  0
  194.9220  174.7490  137.7810 C   0  0  1  0  0  3  0  0  0  0  0  0
  196.3030  175.2320  137.3790 C   0  0  0  0  0  2  0  0  0  0  0  0
  197.2250  174.9140  138.3770 O   0  0  0  0  0  1  0  0  0  0  0  0
  195.1050  172.2790  138.6530 N   0  0  0  0  0  0  0  0  0  0  0  0
  195.0240  173.3680  138.2690 C   0  0  0  0  0  0  0  0  0  0  0  0
  192.4970  176.3150  137.4490 C   0  0  0  0  0  2  0  0  0  0  0  0
  191.1550  175.6470  137.6750 C   0  0  0  0  0  2  0  0  0  0  0  0
  191.2560  174.1860  137.2890 C   0  0  0  0  0  2  0  0  0  0  0  0
  189.8720  173.6090  137.0330 C   0  0  0  0  0  2  0  0  0  0  0  0
  189.5400  173.5860  135.5440 C   0  0  0  0  0  2  0  0  0  0  0  0
  188.0410  173.6820  135.3030 C   0  0  0  0  0  2  0  0  0  0  0  0
  187.7240  174.8190  134.3460 C   0  0  0  0  0  1  0  0  0  0  0  0
  3 10  1  6  0  0  0
  3  7  1  0  0  0  0
  3  8  1  0  0  0  0
  4  5  2  0  0  0  0
  5  2  1  0  0  0  0
  5  9  1  0  0  0  0
  6  4  1  0  0  0  0
  6  1  1  0  0  0  0
  7 39  1  6  0  0  0
  7  6  1  0  0  0  0
  8  4  1  0  0  0  0
 11 13  1  1  0  0  0
 11 14  1  0  0  0  0
 11 10  1  0  0  0  0
 12 13  2  0  0  0  0
 14 16  1  0  0  0  0
 16 15  1  1  0  0  0
 17 16  1  0  0  0  0
 18 17  1  0  0  0  0
 19 21  2  0  0  0  0
 20 21  1  0  0  0  0
 21 18  1  0  0  0  0
 22 24  1  0  0  0  0
 22 33  1  0  0  0  0
 24 23  1  6  0  0  0
 24 30  1  0  0  0  0
 25 28  1  0  0  0  0
 25 26  1  1  0  0  0
 26 29  1  0  0  0  0
 27 20  1  1  0  0  0
 28 34  1  6  0  0  0
 28 27  1  0  0  0  0
 30 23  1  6  0  0  0
 30 25  1  0  0  0  0
 30 32  1  0  0  0  0
 31 29  1  0  0  0  0
 32 27  1  0  0  0  0
 33 31  1  0  0  0  0
 34 35  1  1  0  0  0
 34 36  1  0  0  0  0
 36 37  1  0  0  0  0
 37 38  1  0  0  0  0
 40 39  1  0  0  0  0
 41 40  1  0  0  0  0
 43 41  1  0  0  0  0
 44 42  2  0  0  0  0
 44 43  1  0  0  0  0
 46 45  2  0  0  0  0
 46 44  1  0  0  0  0
 47 48  1  1  0  0  0
 47 51  1  0  0  0  0
 47 45  1  0  0  0  0
 48 49  1  0  0  0  0
 51 50  3  0  0  0  0
 52 53  1  0  0  0  0
 52 46  1  0  0  0  0
 54 53  1  0  0  0  0
 55 54  1  0  0  0  0
 56 55  1  0  0  0  0
 57 56  1  0  0  0  0
 58 57  1  0  0  0  0
M  END
>  <MODEL>
2

>  <REMARK>
 VINA RESULT:      -5.8      2.381      3.727
  Name = 
  26 active torsions:
  status: ('A' for Active; 'I' for Inactive)
    1  A    between atoms: C_1  and  C_30
    2  A    between atoms: C_1  and  C_45
    3  A    between atoms: C_1  and  C_58
    4  A    between atoms: CA_3  and  N_29
    5  A    between atoms: CA_3  and  C_33
    6  A    between atoms: CA_3  and  C_56
    7  A    between atoms: C_9  and  C_24
    8  A    between atoms: C_9  and  C_36
    9  A    between atoms: N_10  and  C_19
   10  A    between atoms: C_12  and  C_39
   11  A    between atoms: C_12  and  C_48
   12  A    between atoms: C_15  and  C_36
   13  A    between atoms: C_16  and  C_58
   14  A    between atoms: N_22  and  C_55
   15  A    between atoms: C_23  and  C_49
   16  A    between atoms: C_25  and  C_41
   17  A    between atoms: C_25  and  C_51
   18  A    between atoms: C_26  and  C_34
   19  A    between atoms: C_30  and  C_31
   20  A    between atoms: C_31  and  C_43
   21  A    between atoms: C_34  and  C_39
   22  A    between atoms: C_38  and  O_53
   23  A    between atoms: C_42  and  C_48
   24  A    between atoms: C_42  and  C_49
   25  A    between atoms: C_43  and  O_53
   26  A    between atoms: C_51  and  C_55
                            x       y       z     vdW  Elec       q    Type
                         _______ _______ _______ _____ _____    ______ ____

>  <TORSDO>
F 26

$$$$
=
 OpenBabel10232409593D

 58 61  0  0  1  0  0  0  0  0999 V2000
  189.6590  176.2530  146.7960 F   0  0  0  0  0  0  0  0  0  0  0  0
  186.1710  178.8720  147.7030 C   0  0  0  0  0  1  0  0  0  0  0  0
  188.0550  177.9120  143.9580 C   0  0  2  0  0  3  0  0  0  0  0  0
  187.8990  177.8720  146.2700 C   0  0  0  0  0  0  0  0  0  0  0  0
  187.4310  178.1020  147.5040 C   0  0  0  0  0  0  0  0  0  0  0  0
  189.0850  177.1560  145.9710 N   0  0  0  0  0  0  0  0  0  0  0  0
  189.2340  177.1020  144.5230 C   0  0  2  0  0  3  0  0  0  0  0  0
  187.2530  178.3360  145.1000 N   0  0  0  0  0  2  0  0  0  0  0  0
  188.1570  177.6320  148.7180 C   0  0  0  0  0  1  0  0  0  0  0  0
  187.2200  177.0490  143.0260 C   0  0  0  0  0  2  0  0  0  0  0  0
  186.7640  177.8630  141.8280 C   0  0  2  0  0  3  0  0  0  0  0  0
  187.9300  178.6930  139.9540 O   0  0  0  0  0  0  0  0  0  0  0  0
  187.9540  178.4540  141.1500 C   0  0  0  0  0  3  0  0  0  0  0  0
  185.8210  178.9660  142.2930 C   0  0  0  0  0  2  0  0  0  0  0  0
  184.0970  179.1040  144.0770 C   0  0  0  0  0  1  0  0  0  0  0  0
  184.5070  178.3920  142.7970 C   0  0  1  0  0  3  0  0  0  0  0  0
  183.4460  178.5940  141.7320 C   0  0  0  0  0  2  0  0  0  0  0  0
  183.5570  177.5900  140.7320 O   0  0  0  0  0  0  0  0  0  0  0  0
  181.3230  177.6960  140.1650 O   0  0  0  0  0  0  0  0  0  0  0  0
  182.6130  176.0930  139.0620 N   0  0  0  0  0  2  0  0  0  0  0  0
  182.4530  177.1580  140.0000 C   0  0  0  0  0  0  0  0  0  0  0  0
  181.6170  171.2550  136.2880 C   0  0  0  0  0  2  0  0  0  0  0  0
  180.0810  173.0590  136.9100 C   0  0  0  0  0  2  0  0  0  0  0  0
  181.0390  172.0260  137.4660 C   0  0  2  0  0  3  0  0  0  0  0  0
  182.2410  174.2150  136.3960 C   0  0  2  0  0  3  0  0  0  0  0  0
  183.7610  174.0390  136.5610 C   0  0  0  0  0  2  0  0  0  0  0  0
  181.5260  175.5990  138.2280 C   0  0  1  0  0  3  0  0  0  0  0  0
  181.9370  175.6500  136.7470 C   0  0  2  0  0  3  0  0  0  0  0  0
  184.2460  172.6490  136.9640 C   0  0  0  0  0  2  0  0  0  0  0  0
  181.4290  173.5050  137.4570 C   0  0  1  0  0  0  0  0  0  0  0  0
  183.7870  171.5840  135.9830 C   0  0  0  0  0  2  0  0  0  0  0  0
  181.2190  174.2710  138.6060 O   0  0  0  0  0  0  0  0  0  0  0  0
  182.8730  170.7410  136.6190 O   0  0  0  0  0  0  0  0  0  0  0  0
  180.7930  176.1890  135.8830 C   0  0  1  0  0  3  0  0  0  0  0  0
  180.3660  177.4250  136.3750 O   0  0  0  0  0  1  0  0  0  0  0  0
  181.2530  176.3550  134.4430 C   0  0  0  0  0  2  0  0  0  0  0  0
  182.6300  176.9910  134.4030 C   0  0  0  0  0  2  0  0  0  0  0  0
  182.5020  178.3780  134.3460 O   0  0  0  0  0  1  0  0  0  0  0  0
  190.5300  177.7740  144.0940 C   0  0  0  0  0  2  0  0  0  0  0  0
  191.2940  176.9270  143.0930 C   0  0  0  0  0  2  0  0  0  0  0  0
  191.7660  177.7910  141.9390 C   0  0  0  0  0  2  0  0  0  0  0  0
  193.5820  178.2230  139.7910 O   0  0  0  0  0  0  0  0  0  0  0  0
  191.8160  177.0050  140.7150 N   0  0  0  0  0  2  0  0  0  0  0  0
  192.7550  177.2790  139.6680 C   0  0  0  0  0  0  0  0  0  0  0  0
  193.7740  176.5360  137.6320 N   0  0  0  0  0  0  0  0  0  0  0  0
  192.7630  176.4550  138.4480 C   0  0  0  0  0  0  0  0  0  0  0  0
  193.8930  175.7770  136.3870 C   0  0  1  0  0  3  0  0  0  0  0  0
  194.4510  176.6700  135.2950 C   0  0  0  0  0  2  0  0  0  0  0  0
  195.6960  177.1690  135.6800 O   0  0  0  0  0  1  0  0  0  0  0  0
  195.5120  173.7390  136.7330 N   0  0  0  0  0  0  0  0  0  0  0  0
  194.7980  174.6380  136.5800 C   0  0  0  0  0  0  0  0  0  0  0  0
  191.5910  175.5680  138.1480 C   0  0  0  0  0  2  0  0  0  0  0  0
  190.5610  176.3230  137.3320 C   0  0  0  0  0  2  0  0  0  0  0  0
  189.1750  175.8410  137.7090 C   0  0  0  0  0  2  0  0  0  0  0  0
  188.7230  174.7380  136.7640 C   0  0  0  0  0  2  0  0  0  0  0  0
  187.4620  175.1350  136.0020 C   0  0  0  0  0  2  0  0  0  0  0  0
  187.1740  176.6230  136.1360 C   0  0  0  0  0  2  0  0  0  0  0  0
  187.9350  177.4120  135.0830 C   0  0  0  0  0  1  0  0  0  0  0  0
  3 10  1  6  0  0  0
  3  7  1  0  0  0  0
  3  8  1  0  0  0  0
  4  5  2  0  0  0  0
  5  2  1  0  0  0  0
  5  9  1  0  0  0  0
  6  4  1  0  0  0  0
  6  1  1  0  0  0  0
  7 39  1  1  0  0  0
  7  6  1  0  0  0  0
  8  4  1  0  0  0  0
 11 13  1  1  0  0  0
 11 14  1  0  0  0  0
 11 10  1  0  0  0  0
 12 13  2  0  0  0  0
 14 16  1  0  0  0  0
 16 15  1  1  0  0  0
 17 16  1  0  0  0  0
 18 17  1  0  0  0  0
 20 21  1  0  0  0  0
 21 19  2  0  0  0  0
 21 18  1  0  0  0  0
 22 33  1  0  0  0  0
 23 24  1  0  0  0  0
 24 22  1  6  0  0  0
 25 26  1  1  0  0  0
 25 28  1  0  0  0  0
 25 30  1  0  0  0  0
 26 29  1  0  0  0  0
 27 32  1  0  0  0  0
 27 20  1  1  0  0  0
 28 34  1  6  0  0  0
 28 27  1  0  0  0  0
 30 23  1  6  0  0  0
 30 24  1  0  0  0  0
 30 32  1  0  0  0  0
 31 33  1  0  0  0  0
 31 29  1  0  0  0  0
 34 35  1  1  0  0  0
 36 34  1  0  0  0  0
 37 36  1  0  0  0  0
 38 37  1  0  0  0  0
 40 39  1  0  0  0  0
 41 40  1  0  0  0  0
 43 41  1  0  0  0  0
 44 42  2  0  0  0  0
 44 43  1  0  0  0  0
 45 46  2  0  0  0  0
 46 44  1  0  0  0  0
 47 48  1  6  0  0  0
 47 51  1  0  0  0  0
 47 45  1  0  0  0  0
 48 49  1  0  0  0  0
 51 50  3  0  0  0  0
 52 46  1  0  0  0  0
 53 54  1  0  0  0  0
 53 52  1  0  0  0  0
 55 54  1  0  0  0  0
 56 57  1  0  0  0  0
 56 55  1  0  0  0  0
 58 57  1  0  0  0  0
M  END
>  <MODEL>
3

>  <REMARK>
 VINA RESULT:      -5.6      2.590      3.805
  Name = 
  26 active torsions:
  status: ('A' for Active; 'I' for Inactive)
    1  A    between atoms: C_1  and  C_30
    2  A    between atoms: C_1  and  C_45
    3  A    between atoms: C_1  and  C_58
    4  A    between atoms: CA_3  and  N_29
    5  A    between atoms: CA_3  and  C_33
    6  A    between atoms: CA_3  and  C_56
    7  A    between atoms: C_9  and  C_24
    8  A    between atoms: C_9  and  C_36
    9  A    between atoms: N_10  and  C_19
   10  A    between atoms: C_12  and  C_39
   11  A    between atoms: C_12  and  C_48
   12  A    between atoms: C_15  and  C_36
   13  A    between atoms: C_16  and  C_58
   14  A    between atoms: N_22  and  C_55
   15  A    between atoms: C_23  and  C_49
   16  A    between atoms: C_25  and  C_41
   17  A    between atoms: C_25  and  C_51
   18  A    between atoms: C_26  and  C_34
   19  A    between atoms: C_30  and  C_31
   20  A    between atoms: C_31  and  C_43
   21  A    between atoms: C_34  and  C_39
   22  A    between atoms: C_38  and  O_53
   23  A    between atoms: C_42  and  C_48
   24  A    between atoms: C_42  and  C_49
   25  A    between atoms: C_43  and  O_53
   26  A    between atoms: C_51  and  C_55
                            x       y       z     vdW  Elec       q    Type
                         _______ _______ _______ _____ _____    ______ ____

>  <TORSDO>
F 26

$$$$
=
 OpenBabel10232409593D

 58 61  0  0  1  0  0  0  0  0999 V2000
  191.3920  175.0660  145.7540 F   0  0  0  0  0  0  0  0  0  0  0  0
  191.7610  177.7130  149.3190 C   0  0  0  0  0  1  0  0  0  0  0  0
  189.0430  177.8590  145.9890 C   0  0  2  0  0  3  0  0  0  0  0  0
  190.8790  177.0250  147.1300 C   0  0  0  0  0  0  0  0  0  0  0  0
  191.8030  176.8730  148.0880 C   0  0  0  0  0  0  0  0  0  0  0  0
  190.8290  176.2820  145.9240 N   0  0  0  0  0  0  0  0  0  0  0  0
  189.6700  176.7230  145.1620 C   0  0  2  0  0  3  0  0  0  0  0  0
  189.8310  177.9710  147.2100 N   0  0  0  0  0  2  0  0  0  0  0  0
  192.9180  175.8930  147.9540 C   0  0  0  0  0  1  0  0  0  0  0  0
  187.5980  177.5280  146.3290 C   0  0  0  0  0  2  0  0  0  0  0  0
  186.6590  178.4620  145.5840 C   0  0  2  0  0  3  0  0  0  0  0  0
  184.7470  178.2920  146.9530 O   0  0  0  0  0  0  0  0  0  0  0  0
  185.6450  179.0030  146.5360 C   0  0  0  0  0  3  0  0  0  0  0  0
  185.9700  177.6980  144.4600 C   0  0  0  0  0  2  0  0  0  0  0  0
  186.9820  178.2210  142.2520 C   0  0  0  0  0  1  0  0  0  0  0  0
  185.8480  178.5520  143.2080 C   0  0  1  0  0  3  0  0  0  0  0  0
  184.5140  178.2600  142.5470 C   0  0  0  0  0  2  0  0  0  0  0  0
  184.6110  178.4450  141.1420 O   0  0  0  0  0  0  0  0  0  0  0  0
  182.8910  179.2910  139.8570 O   0  0  0  0  0  0  0  0  0  0  0  0
  183.0860  176.9660  139.9540 N   0  0  0  0  0  2  0  0  0  0  0  0
  183.5100  178.2850  140.3020 C   0  0  0  0  0  0  0  0  0  0  0  0
  182.2870  173.5410  135.5130 C   0  0  0  0  0  2  0  0  0  0  0  0
  180.6540  174.7250  136.9030 C   0  0  0  0  0  2  0  0  0  0  0  0
  181.7650  173.6960  136.9350 C   0  0  2  0  0  3  0  0  0  0  0  0
  182.6200  176.2700  136.7800 C   0  0  2  0  0  3  0  0  0  0  0  0
  184.1580  176.2490  136.7720 C   0  0  0  0  0  2  0  0  0  0  0  0
  181.9700  176.7030  139.0550 C   0  0  1  0  0  3  0  0  0  0  0  0
  182.2130  177.3920  137.7030 C   0  0  2  0  0  3  0  0  0  0  0  0
  184.8210  174.8940  136.5450 C   0  0  0  0  0  2  0  0  0  0  0  0
  182.0010  175.0950  137.5050 C   0  0  1  0  0  0  0  0  0  0  0  0
  184.3680  174.2540  135.2440 C   0  0  0  0  0  2  0  0  0  0  0  0
  181.8410  175.3060  138.8770 O   0  0  0  0  0  0  0  0  0  0  0  0
  183.6160  173.1130  135.5330 O   0  0  0  0  0  0  0  0  0  0  0  0
  180.9350  178.0700  137.2010 C   0  0  1  0  0  3  0  0  0  0  0  0
  180.0040  178.1590  138.2380 O   0  0  0  0  0  1  0  0  0  0  0  0
  181.2470  179.4680  136.6860 C   0  0  0  0  0  2  0  0  0  0  0  0
  180.7270  179.6320  135.2700 C   0  0  0  0  0  2  0  0  0  0  0  0
  181.4380  178.7940  134.4130 O   0  0  0  0  0  1  0  0  0  0  0  0
  190.0980  177.2880  143.8150 C   0  0  0  0  0  2  0  0  0  0  0  0
  191.1620  176.4250  143.1620 C   0  0  0  0  0  2  0  0  0  0  0  0
  191.6580  177.0910  141.8910 C   0  0  0  0  0  2  0  0  0  0  0  0
  192.3160  177.2690  139.1280 O   0  0  0  0  0  0  0  0  0  0  0  0
  190.7420  176.8160  140.7930 N   0  0  0  0  0  2  0  0  0  0  0  0
  191.1370  176.9290  139.4210 C   0  0  0  0  0  0  0  0  0  0  0  0
  189.1910  177.4720  138.1350 N   0  0  0  0  0  0  0  0  0  0  0  0
  190.1710  176.6420  138.3480 C   0  0  0  0  0  0  0  0  0  0  0  0
  188.1660  177.2930  137.1080 C   0  0  1  0  0  3  0  0  0  0  0  0
  187.0620  178.3160  137.3030 C   0  0  0  0  0  2  0  0  0  0  0  0
  186.7170  178.3900  138.6530 O   0  0  0  0  0  1  0  0  0  0  0  0
  189.2200  177.6220  134.7260 N   0  0  0  0  0  0  0  0  0  0  0  0
  188.7550  177.4770  135.7760 C   0  0  0  0  0  0  0  0  0  0  0  0
  190.3110  175.3820  137.5460 C   0  0  0  0  0  2  0  0  0  0  0  0
  191.6230  175.3900  136.7870 C   0  0  0  0  0  2  0  0  0  0  0  0
  192.4220  174.1600  137.1620 C   0  0  0  0  0  2  0  0  0  0  0  0
  192.1230  173.0200  136.1990 C   0  0  0  0  0  2  0  0  0  0  0  0
  192.3670  173.4330  134.7500 C   0  0  0  0  0  2  0  0  0  0  0  0
  193.8340  173.7510  134.4990 C   0  0  0  0  0  2  0  0  0  0  0  0
  194.6420  172.4710  134.3610 C   0  0  0  0  0  1  0  0  0  0  0  0
  1  6  1  0  0  0  0
  3 10  1  1  0  0  0
  3  8  1  0  0  0  0
  4  8  1  0  0  0  0
  4  5  2  0  0  0  0
  5  2  1  0  0  0  0
  6  4  1  0  0  0  0
  7 39  1  6  0  0  0
  7  6  1  0  0  0  0
  7  3  1  0  0  0  0
  9  5  1  0  0  0  0
 11 14  1  6  0  0  0
 11 10  1  0  0  0  0
 11 13  1  0  0  0  0
 13 12  2  0  0  0  0
 16 15  1  6  0  0  0
 16 14  1  0  0  0  0
 17 16  1  0  0  0  0
 18 17  1  0  0  0  0
 19 21  2  0  0  0  0
 20 21  1  0  0  0  0
 21 18  1  0  0  0  0
 22 33  1  0  0  0  0
 23 24  1  0  0  0  0
 24 22  1  6  0  0  0
 24 30  1  0  0  0  0
 25 26  1  1  0  0  0
 25 30  1  0  0  0  0
 25 28  1  0  0  0  0
 27 20  1  1  0  0  0
 28 34  1  6  0  0  0
 28 27  1  0  0  0  0
 29 26  1  0  0  0  0
 30 23  1  6  0  0  0
 30 32  1  0  0  0  0
 31 33  1  0  0  0  0
 31 29  1  0  0  0  0
 32 27  1  0  0  0  0
 34 35  1  1  0  0  0
 36 34  1  0  0  0  0
 37 36  1  0  0  0  0
 38 37  1  0  0  0  0
 40 39  1  0  0  0  0
 41 40  1  0  0  0  0
 42 44  2  0  0  0  0
 43 41  1  0  0  0  0
 44 43  1  0  0  0  0
 45 46  2  0  0  0  0
 46 44  1  0  0  0  0
 47 51  1  6  0  0  0
 47 48  1  0  0  0  0
 47 45  1  0  0  0  0
 48 49  1  0  0  0  0
 50 51  3  0  0  0  0
 52 46  1  0  0  0  0
 53 54  1  0  0  0  0
 53 52  1  0  0  0  0
 55 54  1  0  0  0  0
 56 55  1  0  0  0  0
 57 56  1  0  0  0  0
 58 57  1  0  0  0  0
M  END
>  <MODEL>
4

>  <REMARK>
 VINA RESULT:      -5.2      2.088      3.600
  Name = 
  26 active torsions:
  status: ('A' for Active; 'I' for Inactive)
    1  A    between atoms: C_1  and  C_30
    2  A    between atoms: C_1  and  C_45
    3  A    between atoms: C_1  and  C_58
    4  A    between atoms: CA_3  and  N_29
    5  A    between atoms: CA_3  and  C_33
    6  A    between atoms: CA_3  and  C_56
    7  A    between atoms: C_9  and  C_24
    8  A    between atoms: C_9  and  C_36
    9  A    between atoms: N_10  and  C_19
   10  A    between atoms: C_12  and  C_39
   11  A    between atoms: C_12  and  C_48
   12  A    between atoms: C_15  and  C_36
   13  A    between atoms: C_16  and  C_58
   14  A    between atoms: N_22  and  C_55
   15  A    between atoms: C_23  and  C_49
   16  A    between atoms: C_25  and  C_41
   17  A    between atoms: C_25  and  C_51
   18  A    between atoms: C_26  and  C_34
   19  A    between atoms: C_30  and  C_31
   20  A    between atoms: C_31  and  C_43
   21  A    between atoms: C_34  and  C_39
   22  A    between atoms: C_38  and  O_53
   23  A    between atoms: C_42  and  C_48
   24  A    between atoms: C_42  and  C_49
   25  A    between atoms: C_43  and  O_53
   26  A    between atoms: C_51  and  C_55
                            x       y       z     vdW  Elec       q    Type
                         _______ _______ _______ _____ _____    ______ ____

>  <TORSDO>
F 26

$$$$
=
 OpenBabel10232409593D

 58 61  0  0  1  0  0  0  0  0999 V2000
  189.2700  178.9490  143.5370 F   0  0  0  0  0  0  0  0  0  0  0  0
  191.6970  175.2780  144.2380 C   0  0  0  0  0  1  0  0  0  0  0  0
  190.0870  176.9230  140.6040 C   0  0  2  0  0  3  0  0  0  0  0  0
  190.3500  176.8440  142.9050 C   0  0  0  0  0  0  0  0  0  0  0  0
  190.7650  176.4350  144.1120 C   0  0  0  0  0  0  0  0  0  0  0  0
  189.4660  177.9280  142.6750 N   0  0  0  0  0  0  0  0  0  0  0  0
  189.2800  178.0690  141.2370 C   0  0  2  0  0  3  0  0  0  0  0  0
  190.7470  176.2210  141.6990 N   0  0  0  0  0  2  0  0  0  0  0  0
  190.2960  177.0900  145.3660 C   0  0  0  0  0  1  0  0  0  0  0  0
  191.1240  177.4770  139.6400 C   0  0  0  0  0  2  0  0  0  0  0  0
  190.6980  177.2150  138.2060 C   0  0  2  0  0  3  0  0  0  0  0  0
  188.6840  177.7670  137.1110 O   0  0  0  0  0  0  0  0  0  0  0  0
  189.5830  178.1390  137.8470 C   0  0  0  0  0  3  0  0  0  0  0  0
  190.2460  175.7670  138.0670 C   0  0  0  0  0  2  0  0  0  0  0  0
  190.5880  173.6940  136.7390 C   0  0  0  0  0  1  0  0  0  0  0  0
  191.2580  174.9470  137.2830 C   0  0  1  0  0  3  0  0  0  0  0  0
  191.7840  175.7900  136.1360 C   0  0  0  0  0  2  0  0  0  0  0  0
  192.7740  175.0710  135.4130 O   0  0  0  0  0  0  0  0  0  0  0  0
  194.6850  176.1900  136.0610 O   0  0  0  0  0  0  0  0  0  0  0  0
  194.8470  173.8710  135.8420 N   0  0  0  0  0  2  0  0  0  0  0  0
  194.1170  175.0980  135.7830 C   0  0  0  0  0  0  0  0  0  0  0  0
  198.3960  169.6380  137.1000 C   0  0  0  0  0  2  0  0  0  0  0  0
  198.8670  171.9810  136.5630 C   0  0  0  0  0  2  0  0  0  0  0  0
  198.2420  170.7090  136.0290 C   0  0  2  0  0  3  0  0  0  0  0  0
  196.7100  172.0430  137.8320 C   0  0  2  0  0  3  0  0  0  0  0  0
  195.3980  171.2580  138.0000 C   0  0  0  0  0  2  0  0  0  0  0  0
  196.2420  173.7970  136.2540 C   0  0  1  0  0  3  0  0  0  0  0  0
  196.3290  173.5010  137.7600 C   0  0  2  0  0  3  0  0  0  0  0  0
  195.3680  169.8480  137.4150 C   0  0  0  0  0  2  0  0  0  0  0  0
  197.3520  171.8700  136.4730 C   0  0  1  0  0  0  0  0  0  0  0  0
  196.4740  168.9770  137.9830 C   0  0  0  0  0  2  0  0  0  0  0  0
  196.8880  172.7770  135.5170 O   0  0  0  0  0  0  0  0  0  0  0  0
  197.3880  168.6800  136.9700 O   0  0  0  0  0  0  0  0  0  0  0  0
  197.3960  174.3750  138.4250 C   0  0  1  0  0  3  0  0  0  0  0  0
  197.6900  175.4720  137.6110 O   0  0  0  0  0  1  0  0  0  0  0  0
  196.9040  174.8720  139.7770 C   0  0  0  0  0  2  0  0  0  0  0  0
  198.0150  175.6140  140.4970 C   0  0  0  0  0  2  0  0  0  0  0  0
  198.3620  174.9220  141.6560 O   0  0  0  0  0  1  0  0  0  0  0  0
  187.8150  177.8880  140.8680 C   0  0  0  0  0  2  0  0  0  0  0  0
  186.9090  178.0700  142.0720 C   0  0  0  0  0  2  0  0  0  0  0  0
  186.2490  179.4360  142.0180 C   0  0  0  0  0  2  0  0  0  0  0  0
  183.7030  178.1650  142.0610 O   0  0  0  0  0  0  0  0  0  0  0  0
  185.2750  179.4780  140.9380 N   0  0  0  0  0  2  0  0  0  0  0  0
  184.0100  178.8120  141.0220 C   0  0  0  0  0  0  0  0  0  0  0  0
  181.8050  179.1300  140.1410 N   0  0  0  0  0  0  0  0  0  0  0  0
  183.0610  178.8830  139.8990 C   0  0  0  0  0  0  0  0  0  0  0  0
  180.7680  179.2170  139.1150 C   0  0  1  0  0  3  0  0  0  0  0  0
  181.1810  180.2180  138.0520 C   0  0  0  0  0  2  0  0  0  0  0  0
  181.4590  181.4510  138.6450 O   0  0  0  0  0  1  0  0  0  0  0  0
  180.4260  176.8700  137.9870 N   0  0  0  0  0  0  0  0  0  0  0  0
  180.5760  177.9050  138.4840 C   0  0  0  0  0  0  0  0  0  0  0  0
  183.5480  178.6340  138.5030 C   0  0  0  0  0  2  0  0  0  0  0  0
  184.0630  177.2140  138.3760 C   0  0  0  0  0  2  0  0  0  0  0  0
  185.3080  177.2120  137.5130 C   0  0  0  0  0  2  0  0  0  0  0  0
  185.9720  175.8430  137.5450 C   0  0  0  0  0  2  0  0  0  0  0  0
  185.2600  174.8540  136.6270 C   0  0  0  0  0  2  0  0  0  0  0  0
  185.1750  175.3770  135.2010 C   0  0  0  0  0  2  0  0  0  0  0  0
  186.2840  174.7850  134.3460 C   0  0  0  0  0  1  0  0  0  0  0  0
  3 10  1  6  0  0  0
  3  7  1  0  0  0  0
  3  8  1  0  0  0  0
  4  5  2  0  0  0  0
  5  2  1  0  0  0  0
  5  9  1  0  0  0  0
  6  4  1  0  0  0  0
  6  1  1  0  0  0  0
  7 39  1  1  0  0  0
  7  6  1  0  0  0  0
  8  4  1  0  0  0  0
 11 13  1  1  0  0  0
 11 10  1  0  0  0  0
 12 13  2  0  0  0  0
 14 11  1  0  0  0  0
 16 15  1  6  0  0  0
 16 14  1  0  0  0  0
 17 16  1  0  0  0  0
 18 21  1  0  0  0  0
 18 17  1  0  0  0  0
 21 20  1  0  0  0  0
 21 19  2  0  0  0  0
 24 30  1  0  0  0  0
 24 23  1  1  0  0  0
 24 22  1  0  0  0  0
 25 26  1  6  0  0  0
 27 20  1  6  0  0  0
 27 28  1  0  0  0  0
 28 25  1  0  0  0  0
 28 34  1  6  0  0  0
 29 31  1  0  0  0  0
 29 26  1  0  0  0  0
 30 23  1  1  0  0  0
 30 25  1  0  0  0  0
 32 27  1  0  0  0  0
 32 30  1  0  0  0  0
 33 22  1  0  0  0  0
 33 31  1  0  0  0  0
 34 35  1  6  0  0  0
 34 36  1  0  0  0  0
 36 37  1  0  0  0  0
 37 38  1  0  0  0  0
 39 40  1  0  0  0  0
 41 40  1  0  0  0  0
 43 44  1  0  0  0  0
 43 41  1  0  0  0  0
 44 42  2  0  0  0  0
 46 45  2  0  0  0  0
 46 44  1  0  0  0  0
 47 48  1  6  0  0  0
 47 45  1  0  0  0  0
 48 49  1  0  0  0  0
 50 51  3  0  0  0  0
 51 47  1  0  0  0  0
 52 46  1  0  0  0  0
 53 52  1  0  0  0  0
 54 55  1  0  0  0  0
 54 53  1  0  0  0  0
 56 55  1  0  0  0  0
 57 56  1  0  0  0  0
 58 57  1  0  0  0  0
M  END
>  <MODEL>
5

>  <REMARK>
 VINA RESULT:      -5.0      2.523     11.393
  Name = 
  26 active torsions:
  status: ('A' for Active; 'I' for Inactive)
    1  A    between atoms: C_1  and  C_30
    2  A    between atoms: C_1  and  C_45
    3  A    between atoms: C_1  and  C_58
    4  A    between atoms: CA_3  and  N_29
    5  A    between atoms: CA_3  and  C_33
    6  A    between atoms: CA_3  and  C_56
    7  A    between atoms: C_9  and  C_24
    8  A    between atoms: C_9  and  C_36
    9  A    between atoms: N_10  and  C_19
   10  A    between atoms: C_12  and  C_39
   11  A    between atoms: C_12  and  C_48
   12  A    between atoms: C_15  and  C_36
   13  A    between atoms: C_16  and  C_58
   14  A    between atoms: N_22  and  C_55
   15  A    between atoms: C_23  and  C_49
   16  A    between atoms: C_25  and  C_41
   17  A    between atoms: C_25  and  C_51
   18  A    between atoms: C_26  and  C_34
   19  A    between atoms: C_30  and  C_31
   20  A    between atoms: C_31  and  C_43
   21  A    between atoms: C_34  and  C_39
   22  A    between atoms: C_38  and  O_53
   23  A    between atoms: C_42  and  C_48
   24  A    between atoms: C_42  and  C_49
   25  A    between atoms: C_43  and  O_53
   26  A    between atoms: C_51  and  C_55
                            x       y       z     vdW  Elec       q    Type
                         _______ _______ _______ _____ _____    ______ ____

>  <TORSDO>
F 26

$$$$
=
 OpenBabel10232409593D

 58 61  0  0  1  0  0  0  0  0999 V2000
  187.1780  175.3620  137.7070 F   0  0  0  0  0  0  0  0  0  0  0  0
  187.6540  171.2320  136.1040 C   0  0  0  0  0  1  0  0  0  0  0  0
  189.9190  174.8100  135.3490 C   0  0  2  0  0  3  0  0  0  0  0  0
  188.1410  173.6370  136.2610 C   0  0  0  0  0  0  0  0  0  0  0  0
  187.3340  172.6120  136.5680 C   0  0  0  0  0  0  0  0  0  0  0  0
  187.9290  174.9830  136.6490 N   0  0  0  0  0  0  0  0  0  0  0  0
  189.0340  175.7850  136.1430 C   0  0  2  0  0  3  0  0  0  0  0  0
  189.3170  173.4890  135.4890 N   0  0  0  0  0  2  0  0  0  0  0  0
  186.0810  172.8080  137.3510 C   0  0  0  0  0  1  0  0  0  0  0  0
  191.3310  174.8020  135.9100 C   0  0  0  0  0  2  0  0  0  0  0  0
  191.5250  175.9750  136.8550 C   0  0  2  0  0  3  0  0  0  0  0  0
  193.5140  176.3170  135.6360 O   0  0  0  0  0  0  0  0  0  0  0  0
  192.8890  176.5470  136.6580 C   0  0  0  0  0  3  0  0  0  0  0  0
  191.3560  175.5010  138.2940 C   0  0  0  0  0  2  0  0  0  0  0  0
  192.0760  177.1020  140.0530 C   0  0  0  0  0  1  0  0  0  0  0  0
  190.9070  176.6370  139.1980 C   0  0  1  0  0  3  0  0  0  0  0  0
  190.4120  177.7820  138.3350 C   0  0  0  0  0  2  0  0  0  0  0  0
  189.0010  177.9110  138.4510 O   0  0  0  0  0  0  0  0  0  0  0  0
  187.1600  178.4390  139.7360 O   0  0  0  0  0  0  0  0  0  0  0  0
  189.1550  178.0280  140.8770 N   0  0  0  0  0  2  0  0  0  0  0  0
  188.3840  178.1380  139.6790 C   0  0  0  0  0  0  0  0  0  0  0  0
  190.9690  177.0020  146.1440 C   0  0  0  0  0  2  0  0  0  0  0  0
  189.1260  178.4120  145.3600 C   0  0  0  0  0  2  0  0  0  0  0  0
  190.6240  178.2050  145.2780 C   0  0  2  0  0  3  0  0  0  0  0  0
  189.1660  176.4790  143.7700 C   0  0  2  0  0  3  0  0  0  0  0  0
  190.1530  175.5530  143.0370 C   0  0  0  0  0  2  0  0  0  0  0  0
  188.5880  178.2120  142.2050 C   0  0  1  0  0  3  0  0  0  0  0  0
  188.1100  176.8610  142.7620 C   0  0  2  0  0  3  0  0  0  0  0  0
  191.6010  175.5840  143.5170 C   0  0  0  0  0  2  0  0  0  0  0  0
  189.7360  177.8440  144.0870 C   0  0  1  0  0  0  0  0  0  0  0  0
  191.7140  175.2590  144.9960 C   0  0  0  0  0  2  0  0  0  0  0  0
  189.5720  178.7710  143.0550 O   0  0  0  0  0  0  0  0  0  0  0  0
  192.1400  176.3980  145.6830 O   0  0  0  0  0  0  0  0  0  0  0  0
  186.7430  177.0040  143.4370 C   0  0  1  0  0  3  0  0  0  0  0  0
  186.8830  176.9100  144.8240 O   0  0  0  0  0  1  0  0  0  0  0  0
  186.1200  178.3470  143.0860 C   0  0  0  0  0  2  0  0  0  0  0  0
  184.7960  178.1390  142.3760 C   0  0  0  0  0  2  0  0  0  0  0  0
  183.7850  178.8010  143.0710 O   0  0  0  0  0  1  0  0  0  0  0  0
  188.5240  176.8580  135.1920 C   0  0  0  0  0  2  0  0  0  0  0  0
  187.1740  177.3960  135.6290 C   0  0  0  0  0  2  0  0  0  0  0  0
  186.0770  176.8040  134.7630 C   0  0  0  0  0  2  0  0  0  0  0  0
  184.4750  175.7320  136.8550 O   0  0  0  0  0  0  0  0  0  0  0  0
  184.7810  177.3230  135.1730 N   0  0  0  0  0  2  0  0  0  0  0  0
  184.0220  176.7330  136.2350 C   0  0  0  0  0  0  0  0  0  0  0  0
  182.6520  178.1850  137.5580 N   0  0  0  0  0  0  0  0  0  0  0  0
  182.7150  177.2950  136.6100 C   0  0  0  0  0  0  0  0  0  0  0  0
  181.4150  178.8100  138.0250 C   0  0  1  0  0  3  0  0  0  0  0  0
  180.9990  178.1960  139.3490 C   0  0  0  0  0  2  0  0  0  0  0  0
  182.1270  177.7510  140.0400 O   0  0  0  0  0  1  0  0  0  0  0  0
  181.7850  181.3880  138.3620 N   0  0  0  0  0  0  0  0  0  0  0  0
  181.6220  180.2510  138.2130 C   0  0  0  0  0  0  0  0  0  0  0  0
  181.4750  176.8060  135.9210 C   0  0  0  0  0  2  0  0  0  0  0  0
  181.8440  175.8850  134.7750 C   0  0  0  0  0  2  0  0  0  0  0  0
  181.2140  174.5270  135.0040 C   0  0  0  0  0  2  0  0  0  0  0  0
  182.2260  173.5720  135.6210 C   0  0  0  0  0  2  0  0  0  0  0  0
  181.5390  172.4580  136.4050 C   0  0  0  0  0  2  0  0  0  0  0  0
  182.5500  171.5460  137.0830 C   0  0  0  0  0  2  0  0  0  0  0  0
  183.2880  170.7070  136.0530 C   0  0  0  0  0  1  0  0  0  0  0  0
  2  5  1  0  0  0  0
  3  8  1  0  0  0  0
  3 10  1  1  0  0  0
  3  7  1  0  0  0  0
  4  5  2  0  0  0  0
  4  6  1  0  0  0  0
  5  9  1  0  0  0  0
  6  1  1  0  0  0  0
  7 39  1  6  0  0  0
  7  6  1  0  0  0  0
  8  4  1  0  0  0  0
 11 10  1  6  0  0  0
 11 14  1  0  0  0  0
 12 13  2  0  0  0  0
 13 11  1  0  0  0  0
 14 16  1  0  0  0  0
 16 15  1  6  0  0  0
 17 18  1  0  0  0  0
 17 16  1  0  0  0  0
 18 21  1  0  0  0  0
 21 19  2  0  0  0  0
 21 20  1  0  0  0  0
 24 23  1  1  0  0  0
 24 22  1  0  0  0  0
 25 26  1  6  0  0  0
 25 30  1  0  0  0  0
 26 29  1  0  0  0  0
 27 20  1  6  0  0  0
 27 28  1  0  0  0  0
 27 32  1  0  0  0  0
 28 34  1  1  0  0  0
 28 25  1  0  0  0  0
 29 31  1  0  0  0  0
 30 24  1  0  0  0  0
 30 23  1  1  0  0  0
 31 33  1  0  0  0  0
 32 30  1  0  0  0  0
 33 22  1  0  0  0  0
 34 35  1  1  0  0  0
 36 34  1  0  0  0  0
 37 38  1  0  0  0  0
 37 36  1  0  0  0  0
 39 40  1  0  0  0  0
 41 43  1  0  0  0  0
 41 40  1  0  0  0  0
 43 44  1  0  0  0  0
 44 46  1  0  0  0  0
 44 42  2  0  0  0  0
 45 47  1  0  0  0  0
 46 45  2  0  0  0  0
 47 51  1  1  0  0  0
 47 48  1  0  0  0  0
 48 49  1  0  0  0  0
 51 50  3  0  0  0  0
 52 46  1  0  0  0  0
 53 54  1  0  0  0  0
 53 52  1  0  0  0  0
 54 55  1  0  0  0  0
 55 56  1  0  0  0  0
 56 57  1  0  0  0  0
 58 57  1  0  0  0  0
M  END
>  <MODEL>
6

>  <REMARK>
 VINA RESULT:      -5.0      2.891      9.564
  Name = 
  26 active torsions:
  status: ('A' for Active; 'I' for Inactive)
    1  A    between atoms: C_1  and  C_30
    2  A    between atoms: C_1  and  C_45
    3  A    between atoms: C_1  and  C_58
    4  A    between atoms: CA_3  and  N_29
    5  A    between atoms: CA_3  and  C_33
    6  A    between atoms: CA_3  and  C_56
    7  A    between atoms: C_9  and  C_24
    8  A    between atoms: C_9  and  C_36
    9  A    between atoms: N_10  and  C_19
   10  A    between atoms: C_12  and  C_39
   11  A    between atoms: C_12  and  C_48
   12  A    between atoms: C_15  and  C_36
   13  A    between atoms: C_16  and  C_58
   14  A    between atoms: N_22  and  C_55
   15  A    between atoms: C_23  and  C_49
   16  A    between atoms: C_25  and  C_41
   17  A    between atoms: C_25  and  C_51
   18  A    between atoms: C_26  and  C_34
   19  A    between atoms: C_30  and  C_31
   20  A    between atoms: C_31  and  C_43
   21  A    between atoms: C_34  and  C_39
   22  A    between atoms: C_38  and  O_53
   23  A    between atoms: C_42  and  C_48
   24  A    between atoms: C_42  and  C_49
   25  A    between atoms: C_43  and  O_53
   26  A    between atoms: C_51  and  C_55
                            x       y       z     vdW  Elec       q    Type
                         _______ _______ _______ _____ _____    ______ ____

>  <TORSDO>
F 26

$$$$
=
 OpenBabel10232409593D

 58 61  0  0  1  0  0  0  0  0999 V2000
  183.5760  174.7690  138.3520 F   0  0  0  0  0  0  0  0  0  0  0  0
  181.5050  173.0760  134.7890 C   0  0  0  0  0  1  0  0  0  0  0  0
  184.4850  176.1630  135.0950 C   0  0  2  0  0  3  0  0  0  0  0  0
  182.9770  174.6430  135.9810 C   0  0  0  0  0  0  0  0  0  0  0  0
  182.0380  173.6890  136.0390 C   0  0  0  0  0  0  0  0  0  0  0  0
  183.5480  175.2900  137.1050 N   0  0  0  0  0  0  0  0  0  0  0  0
  184.5430  176.2410  136.6300 C   0  0  2  0  0  3  0  0  0  0  0  0
  183.5100  175.1300  134.7650 N   0  0  0  0  0  2  0  0  0  0  0  0
  181.4690  173.2250  137.3370 C   0  0  0  0  0  1  0  0  0  0  0  0
  185.8490  175.7920  134.5330 C   0  0  0  0  0  2  0  0  0  0  0  0
  186.9480  176.3180  135.4390 C   0  0  2  0  0  3  0  0  0  0  0  0
  187.5760  178.5270  135.9710 O   0  0  0  0  0  0  0  0  0  0  0  0
  187.2220  177.7460  135.1040 C   0  0  0  0  0  3  0  0  0  0  0  0
  188.2070  175.4810  135.2480 C   0  0  0  0  0  2  0  0  0  0  0  0
  187.1410  174.0190  136.9510 C   0  0  0  0  0  1  0  0  0  0  0  0
  188.4600  174.5840  136.4480 C   0  0  1  0  0  3  0  0  0  0  0  0
  189.3790  173.4530  136.0270 C   0  0  0  0  0  2  0  0  0  0  0  0
  190.4500  173.3190  136.9510 O   0  0  0  0  0  0  0  0  0  0  0  0
  191.9260  174.9890  136.3540 O   0  0  0  0  0  0  0  0  0  0  0  0
  192.8290  172.8650  136.7070 N   0  0  0  0  0  2  0  0  0  0  0  0
  191.7330  173.7800  136.6600 C   0  0  0  0  0  0  0  0  0  0  0  0
  197.6820  170.0650  135.8730 C   0  0  0  0  0  2  0  0  0  0  0  0
  197.1110  172.4010  135.4050 C   0  0  0  0  0  2  0  0  0  0  0  0
  196.7430  170.9680  135.0840 C   0  0  2  0  0  3  0  0  0  0  0  0
  195.8480  171.8460  137.4940 C   0  0  2  0  0  3  0  0  0  0  0  0
  195.0650  170.6940  138.1480 C   0  0  0  0  0  2  0  0  0  0  0  0
  194.2070  173.2640  136.4540 C   0  0  1  0  0  3  0  0  0  0  0  0
  195.0430  173.0990  137.7340 C   0  0  2  0  0  3  0  0  0  0  0  0
  195.2160  169.3170  137.5070 C   0  0  0  0  0  2  0  0  0  0  0  0
  195.8340  171.8080  135.9820 C   0  0  1  0  0  0  0  0  0  0  0  0
  196.6680  168.8780  137.4460 C   0  0  0  0  0  2  0  0  0  0  0  0
  194.7360  172.4620  135.4160 O   0  0  0  0  0  0  0  0  0  0  0  0
  197.0760  168.8300  136.1110 O   0  0  0  0  0  0  0  0  0  0  0  0
  195.9650  174.3050  137.9390 C   0  0  1  0  0  3  0  0  0  0  0  0
  195.4330  175.4260  137.2980 O   0  0  0  0  0  1  0  0  0  0  0  0
  196.1200  174.6030  139.4230 C   0  0  0  0  0  2  0  0  0  0  0  0
  197.5430  175.0340  139.7240 C   0  0  0  0  0  2  0  0  0  0  0  0
  198.1950  175.3510  138.5340 O   0  0  0  0  0  1  0  0  0  0  0  0
  184.1770  177.6550  137.0540 C   0  0  0  0  0  2  0  0  0  0  0  0
  185.1560  178.2020  138.0770 C   0  0  0  0  0  2  0  0  0  0  0  0
  184.4740  179.2500  138.9360 C   0  0  0  0  0  2  0  0  0  0  0  0
  184.0150  177.5930  141.2030 O   0  0  0  0  0  0  0  0  0  0  0  0
  185.1590  179.3720  140.2140 N   0  0  0  0  0  2  0  0  0  0  0  0
  184.8780  178.5050  141.3190 C   0  0  0  0  0  0  0  0  0  0  0  0
  184.9460  178.5540  143.7130 N   0  0  0  0  0  0  0  0  0  0  0  0
  185.5980  178.6720  142.5920 C   0  0  0  0  0  0  0  0  0  0  0  0
  185.5470  178.7060  145.0370 C   0  0  1  0  0  3  0  0  0  0  0  0
  184.4550  178.8490  146.0810 C   0  0  0  0  0  2  0  0  0  0  0  0
  183.2440  179.1630  145.4620 O   0  0  0  0  0  1  0  0  0  0  0  0
  187.0010  176.5950  145.6080 N   0  0  0  0  0  0  0  0  0  0  0  0
  186.3590  177.5260  145.3570 C   0  0  0  0  0  0  0  0  0  0  0  0
  187.0590  179.0120  142.5750 C   0  0  0  0  0  2  0  0  0  0  0  0
  187.8200  178.0020  141.7400 C   0  0  0  0  0  2  0  0  0  0  0  0
  188.9940  177.4780  142.5400 C   0  0  0  0  0  2  0  0  0  0  0  0
  190.2990  178.0350  141.9920 C   0  0  0  0  0  2  0  0  0  0  0  0
  191.0630  176.9850  141.1900 C   0  0  0  0  0  2  0  0  0  0  0  0
  190.3710  176.6760  139.8710 C   0  0  0  0  0  2  0  0  0  0  0  0
  191.2680  177.0390  138.6990 C   0  0  0  0  0  1  0  0  0  0  0  0
  2  5  1  0  0  0  0
  3 10  1  1  0  0  0
  3  7  1  0  0  0  0
  4  5  2  0  0  0  0
  4  6  1  0  0  0  0
  5  9  1  0  0  0  0
  6  1  1  0  0  0  0
  7 39  1  6  0  0  0
  7  6  1  0  0  0  0
  8  3  1  0  0  0  0
  8  4  1  0  0  0  0
 11 10  1  6  0  0  0
 13 11  1  0  0  0  0
 13 12  2  0  0  0  0
 14 11  1  0  0  0  0
 14 16  1  0  0  0  0
 16 15  1  6  0  0  0
 17 16  1  0  0  0  0
 17 18  1  0  0  0  0
 19 21  2  0  0  0  0
 21 20  1  0  0  0  0
 21 18  1  0  0  0  0
 22 33  1  0  0  0  0
 24 23  1  1  0  0  0
 24 22  1  0  0  0  0
 24 30  1  0  0  0  0
 25 28  1  0  0  0  0
 25 26  1  1  0  0  0
 27 20  1  1  0  0  0
 27 28  1  0  0  0  0
 28 34  1  6  0  0  0
 29 26  1  0  0  0  0
 30 23  1  6  0  0  0
 30 25  1  0  0  0  0
 31 29  1  0  0  0  0
 32 30  1  0  0  0  0
 32 27  1  0  0  0  0
 33 31  1  0  0  0  0
 34 35  1  6  0  0  0
 34 36  1  0  0  0  0
 36 37  1  0  0  0  0
 38 37  1  0  0  0  0
 39 40  1  0  0  0  0
 40 41  1  0  0  0  0
 41 43  1  0  0  0  0
 42 44  2  0  0  0  0
 43 44  1  0  0  0  0
 44 46  1  0  0  0  0
 45 47  1  0  0  0  0
 46 45  2  0  0  0  0
 47 51  1  1  0  0  0
 47 48  1  0  0  0  0
 49 48  1  0  0  0  0
 51 50  3  0  0  0  0
 52 46  1  0  0  0  0
 53 54  1  0  0  0  0
 53 52  1  0  0  0  0
 55 54  1  0  0  0  0
 56 55  1  0  0  0  0
 57 56  1  0  0  0  0
 58 57  1  0  0  0  0
M  END
>  <MODEL>
7

>  <REMARK>
 VINA RESULT:      -4.7      3.000     11.742
  Name = 
  26 active torsions:
  status: ('A' for Active; 'I' for Inactive)
    1  A    between atoms: C_1  and  C_30
    2  A    between atoms: C_1  and  C_45
    3  A    between atoms: C_1  and  C_58
    4  A    between atoms: CA_3  and  N_29
    5  A    between atoms: CA_3  and  C_33
    6  A    between atoms: CA_3  and  C_56
    7  A    between atoms: C_9  and  C_24
    8  A    between atoms: C_9  and  C_36
    9  A    between atoms: N_10  and  C_19
   10  A    between atoms: C_12  and  C_39
   11  A    between atoms: C_12  and  C_48
   12  A    between atoms: C_15  and  C_36
   13  A    between atoms: C_16  and  C_58
   14  A    between atoms: N_22  and  C_55
   15  A    between atoms: C_23  and  C_49
   16  A    between atoms: C_25  and  C_41
   17  A    between atoms: C_25  and  C_51
   18  A    between atoms: C_26  and  C_34
   19  A    between atoms: C_30  and  C_31
   20  A    between atoms: C_31  and  C_43
   21  A    between atoms: C_34  and  C_39
   22  A    between atoms: C_38  and  O_53
   23  A    between atoms: C_42  and  C_48
   24  A    between atoms: C_42  and  C_49
   25  A    between atoms: C_43  and  O_53
   26  A    between atoms: C_51  and  C_55
                            x       y       z     vdW  Elec       q    Type
                         _______ _______ _______ _____ _____    ______ ____

>  <TORSDO>
F 26

$$$$
=
 OpenBabel10232409593D

 58 61  0  0  1  0  0  0  0  0999 V2000
  191.1840  174.9170  145.6400 F   0  0  0  0  0  0  0  0  0  0  0  0
  191.6340  177.8190  148.9900 C   0  0  0  0  0  1  0  0  0  0  0  0
  188.9110  177.7820  145.6610 C   0  0  2  0  0  3  0  0  0  0  0  0
  190.7280  176.9890  146.8610 C   0  0  0  0  0  0  0  0  0  0  0  0
  191.6500  176.8870  147.8280 C   0  0  0  0  0  0  0  0  0  0  0  0
  190.6540  176.1580  145.7160 N   0  0  0  0  0  0  0  0  0  0  0  0
  189.5050  176.5700  144.9240 C   0  0  2  0  0  3  0  0  0  0  0  0
  189.7060  177.9670  146.8700 N   0  0  0  0  0  2  0  0  0  0  0  0
  192.7380  175.8690  147.7690 C   0  0  0  0  0  1  0  0  0  0  0  0
  187.4590  177.5180  146.0270 C   0  0  0  0  0  2  0  0  0  0  0  0
  186.5420  178.3980  145.1960 C   0  0  2  0  0  3  0  0  0  0  0  0
  184.5070  179.5330  145.5590 O   0  0  0  0  0  0  0  0  0  0  0  0
  185.4100  178.8720  146.0450 C   0  0  0  0  0  3  0  0  0  0  0  0
  186.0120  177.6020  144.0100 C   0  0  0  0  0  2  0  0  0  0  0  0
  186.8760  178.4210  141.8280 C   0  0  0  0  0  1  0  0  0  0  0  0
  185.7280  178.5070  142.8220 C   0  0  1  0  0  3  0  0  0  0  0  0
  184.4390  178.0550  142.1610 C   0  0  0  0  0  2  0  0  0  0  0  0
  184.3410  178.5970  140.8520 O   0  0  0  0  0  0  0  0  0  0  0  0
  182.2040  179.1150  140.1530 O   0  0  0  0  0  0  0  0  0  0  0  0
  183.2440  177.3060  139.1050 N   0  0  0  0  0  2  0  0  0  0  0  0
  183.2240  178.3790  140.0480 C   0  0  0  0  0  0  0  0  0  0  0  0
  182.5460  173.9010  134.6310 C   0  0  0  0  0  2  0  0  0  0  0  0
  180.8790  175.0350  136.0240 C   0  0  0  0  0  2  0  0  0  0  0  0
  182.0130  174.0320  136.0520 C   0  0  2  0  0  3  0  0  0  0  0  0
  182.8090  176.6260  135.9240 C   0  0  2  0  0  3  0  0  0  0  0  0
  184.3470  176.6420  135.9220 C   0  0  0  0  0  2  0  0  0  0  0  0
  182.1390  177.0240  138.1990 C   0  0  1  0  0  3  0  0  0  0  0  0
  182.3720  177.7300  136.8530 C   0  0  2  0  0  3  0  0  0  0  0  0
  185.0430  175.3040  135.6860 C   0  0  0  0  0  2  0  0  0  0  0  0
  182.2150  175.4300  136.6360 C   0  0  1  0  0  0  0  0  0  0  0  0
  184.6110  174.6640  134.3780 C   0  0  0  0  0  2  0  0  0  0  0  0
  182.0430  175.6260  138.0080 O   0  0  0  0  0  0  0  0  0  0  0  0
  183.8840  173.5040  134.6540 O   0  0  0  0  0  0  0  0  0  0  0  0
  181.0800  178.3830  136.3520 C   0  0  1  0  0  3  0  0  0  0  0  0
  180.1050  178.3410  137.3510 O   0  0  0  0  0  1  0  0  0  0  0  0
  181.3380  179.8320  135.9640 C   0  0  0  0  0  2  0  0  0  0  0  0
  180.2290  180.7200  136.4950 C   0  0  0  0  0  2  0  0  0  0  0  0
  180.7590  181.6310  137.4080 O   0  0  0  0  0  1  0  0  0  0  0  0
  189.9440  177.0180  143.5370 C   0  0  0  0  0  2  0  0  0  0  0  0
  191.4460  177.2250  143.4680 C   0  0  0  0  0  2  0  0  0  0  0  0
  191.7880  178.1390  142.3060 C   0  0  0  0  0  2  0  0  0  0  0  0
  193.7550  177.7180  140.2930 O   0  0  0  0  0  0  0  0  0  0  0  0
  191.5590  177.4510  141.0440 N   0  0  0  0  0  2  0  0  0  0  0  0
  192.5950  177.2750  140.0700 C   0  0  0  0  0  0  0  0  0  0  0  0
  193.2920  176.0280  138.1480 N   0  0  0  0  0  0  0  0  0  0  0  0
  192.3110  176.5740  138.8080 C   0  0  0  0  0  0  0  0  0  0  0  0
  193.1390  175.3140  136.8820 C   0  0  1  0  0  3  0  0  0  0  0  0
  193.3610  176.2690  135.7240 C   0  0  0  0  0  2  0  0  0  0  0  0
  194.5490  176.9770  135.9150 O   0  0  0  0  0  1  0  0  0  0  0  0
  194.8980  173.3700  136.7330 N   0  0  0  0  0  0  0  0  0  0  0  0
  194.1230  174.2270  136.7980 C   0  0  0  0  0  0  0  0  0  0  0  0
  190.9050  176.5320  138.2860 C   0  0  0  0  0  2  0  0  0  0  0  0
  190.5350  175.1140  137.9000 C   0  0  0  0  0  2  0  0  0  0  0  0
  189.3470  175.1470  136.9610 C   0  0  0  0  0  2  0  0  0  0  0  0
  189.7380  174.6100  135.5930 C   0  0  0  0  0  2  0  0  0  0  0  0
  189.4910  175.6400  134.4950 C   0  0  0  0  0  2  0  0  0  0  0  0
  189.2640  177.0290  135.0730 C   0  0  0  0  0  2  0  0  0  0  0  0
  187.7800  177.3530  135.1190 C   0  0  0  0  0  1  0  0  0  0  0  0
  1  6  1  0  0  0  0
  3 10  1  1  0  0  0
  3  8  1  0  0  0  0
  4  8  1  0  0  0  0
  4  5  2  0  0  0  0
  5  2  1  0  0  0  0
  6  4  1  0  0  0  0
  7 39  1  6  0  0  0
  7  3  1  0  0  0  0
  7  6  1  0  0  0  0
  9  5  1  0  0  0  0
 11 14  1  6  0  0  0
 11 10  1  0  0  0  0
 11 13  1  0  0  0  0
 12 13  2  0  0  0  0
 16 15  1  6  0  0  0
 16 14  1  0  0  0  0
 17 16  1  0  0  0  0
 18 17  1  0  0  0  0
 20 21  1  0  0  0  0
 21 19  2  0  0  0  0
 21 18  1  0  0  0  0
 22 33  1  0  0  0  0
 23 24  1  0  0  0  0
 24 22  1  6  0  0  0
 24 30  1  0  0  0  0
 25 26  1  1  0  0  0
 25 30  1  0  0  0  0
 25 28  1  0  0  0  0
 27 20  1  1  0  0  0
 28 34  1  6  0  0  0
 28 27  1  0  0  0  0
 29 26  1  0  0  0  0
 30 23  1  6  0  0  0
 30 32  1  0  0  0  0
 31 33  1  0  0  0  0
 31 29  1  0  0  0  0
 32 27  1  0  0  0  0
 34 35  1  1  0  0  0
 36 34  1  0  0  0  0
 36 37  1  0  0  0  0
 37 38  1  0  0  0  0
 40 39  1  0  0  0  0
 41 40  1  0  0  0  0
 43 41  1  0  0  0  0
 44 42  2  0  0  0  0
 44 43  1  0  0  0  0
 45 46  2  0  0  0  0
 46 44  1  0  0  0  0
 47 48  1  6  0  0  0
 47 45  1  0  0  0  0
 48 49  1  0  0  0  0
 50 51  3  0  0  0  0
 51 47  1  0  0  0  0
 52 46  1  0  0  0  0
 53 52  1  0  0  0  0
 54 53  1  0  0  0  0
 55 54  1  0  0  0  0
 56 57  1  0  0  0  0
 56 55  1  0  0  0  0
 57 58  1  0  0  0  0
M  END
>  <MODEL>
8

>  <REMARK>
 VINA RESULT:      -4.5      2.064      3.134
  Name = 
  26 active torsions:
  status: ('A' for Active; 'I' for Inactive)
    1  A    between atoms: C_1  and  C_30
    2  A    between atoms: C_1  and  C_45
    3  A    between atoms: C_1  and  C_58
    4  A    between atoms: CA_3  and  N_29
    5  A    between atoms: CA_3  and  C_33
    6  A    between atoms: CA_3  and  C_56
    7  A    between atoms: C_9  and  C_24
    8  A    between atoms: C_9  and  C_36
    9  A    between atoms: N_10  and  C_19
   10  A    between atoms: C_12  and  C_39
   11  A    between atoms: C_12  and  C_48
   12  A    between atoms: C_15  and  C_36
   13  A    between atoms: C_16  and  C_58
   14  A    between atoms: N_22  and  C_55
   15  A    between atoms: C_23  and  C_49
   16  A    between atoms: C_25  and  C_41
   17  A    between atoms: C_25  and  C_51
   18  A    between atoms: C_26  and  C_34
   19  A    between atoms: C_30  and  C_31
   20  A    between atoms: C_31  and  C_43
   21  A    between atoms: C_34  and  C_39
   22  A    between atoms: C_38  and  O_53
   23  A    between atoms: C_42  and  C_48
   24  A    between atoms: C_42  and  C_49
   25  A    between atoms: C_43  and  O_53
   26  A    between atoms: C_51  and  C_55
                            x       y       z     vdW  Elec       q    Type
                         _______ _______ _______ _____ _____    ______ ____

>  <TORSDO>
F 26

$$$$
=
 OpenBabel10232409593D

 58 61  0  0  1  0  0  0  0  0999 V2000
  189.2870  179.0450  143.2640 F   0  0  0  0  0  0  0  0  0  0  0  0
  191.2100  175.0290  143.4400 C   0  0  0  0  0  1  0  0  0  0  0  0
  189.4520  177.1540  140.1380 C   0  0  2  0  0  3  0  0  0  0  0  0
  189.9640  176.8640  142.3800 C   0  0  0  0  0  0  0  0  0  0  0  0
  190.4510  176.3110  143.4990 C   0  0  0  0  0  0  0  0  0  0  0  0
  189.2290  178.0750  142.3250 N   0  0  0  0  0  0  0  0  0  0  0  0
  188.9010  178.3500  140.9340 C   0  0  2  0  0  3  0  0  0  0  0  0
  190.1220  176.2850  141.0990 N   0  0  0  0  0  2  0  0  0  0  0  0
  190.2320  176.9280  144.8380 C   0  0  0  0  0  1  0  0  0  0  0  0
  190.4410  177.6290  139.0860 C   0  0  0  0  0  2  0  0  0  0  0  0
  189.7380  177.8100  137.7520 C   0  0  2  0  0  3  0  0  0  0  0  0
  187.8110  178.9530  137.0190 O   0  0  0  0  0  0  0  0  0  0  0  0
  188.6360  178.8040  137.9040 C   0  0  0  0  0  3  0  0  0  0  0  0
  189.1780  176.4710  137.2880 C   0  0  0  0  0  2  0  0  0  0  0  0
  190.2550  174.2310  137.3120 C   0  0  0  0  0  1  0  0  0  0  0  0
  190.2610  175.6070  136.6630 C   0  0  1  0  0  3  0  0  0  0  0  0
  189.9850  175.4780  135.1770 C   0  0  0  0  0  2  0  0  0  0  0  0
  190.8800  174.5420  134.5900 O   0  0  0  0  0  0  0  0  0  0  0  0
  192.8030  175.8170  134.5900 O   0  0  0  0  0  0  0  0  0  0  0  0
  193.0630  173.5220  134.9310 N   0  0  0  0  0  2  0  0  0  0  0  0
  192.2620  174.6820  134.6990 C   0  0  0  0  0  0  0  0  0  0  0  0
  197.0920  169.6680  135.9320 C   0  0  0  0  0  2  0  0  0  0  0  0
  197.2810  171.9650  135.1030 C   0  0  0  0  0  2  0  0  0  0  0  0
  196.6760  170.6080  134.8090 C   0  0  2  0  0  3  0  0  0  0  0  0
  195.3740  172.0310  136.7220 C   0  0  2  0  0  3  0  0  0  0  0  0
  194.1750  171.1900  137.1930 C   0  0  0  0  0  2  0  0  0  0  0  0
  194.5090  173.5760  135.0940 C   0  0  1  0  0  3  0  0  0  0  0  0
  194.8740  173.4470  136.5830 C   0  0  2  0  0  3  0  0  0  0  0  0
  194.1550  169.7280  136.7580 C   0  0  0  0  0  2  0  0  0  0  0  0
  195.7870  171.7540  135.2940 C   0  0  1  0  0  0  0  0  0  0  0  0
  195.4060  168.9890  137.2000 C   0  0  0  0  0  2  0  0  0  0  0  0
  195.0970  172.5240  134.3540 O   0  0  0  0  0  0  0  0  0  0  0  0
  196.1540  168.6430  136.0730 O   0  0  0  0  0  0  0  0  0  0  0  0
  195.9680  174.4500  136.9630 C   0  0  1  0  0  3  0  0  0  0  0  0
  195.4080  175.7150  137.1590 O   0  0  0  0  0  1  0  0  0  0  0  0
  196.6670  174.0080  138.2400 C   0  0  0  0  0  2  0  0  0  0  0  0
  197.9310  174.8190  138.4510 C   0  0  0  0  0  2  0  0  0  0  0  0
  197.9740  175.2810  139.7660 O   0  0  0  0  0  1  0  0  0  0  0  0
  187.3930  178.4030  140.7400 C   0  0  0  0  0  2  0  0  0  0  0  0
  186.6730  178.6940  142.0450 C   0  0  0  0  0  2  0  0  0  0  0  0
  185.2650  179.1830  141.7600 C   0  0  0  0  0  2  0  0  0  0  0  0
  184.4870  179.8800  139.1130 O   0  0  0  0  0  0  0  0  0  0  0  0
  184.6070  178.2890  140.8190 N   0  0  0  0  0  2  0  0  0  0  0  0
  184.2370  178.7050  139.4990 C   0  0  0  0  0  0  0  0  0  0  0  0
  183.0080  176.6940  139.0730 N   0  0  0  0  0  0  0  0  0  0  0  0
  183.5700  177.7630  138.5860 C   0  0  0  0  0  0  0  0  0  0  0  0
  182.3240  175.6820  138.2710 C   0  0  1  0  0  3  0  0  0  0  0  0
  183.2880  174.5590  137.9320 C   0  0  0  0  0  2  0  0  0  0  0  0
  182.5940  173.5000  137.3450 O   0  0  0  0  0  1  0  0  0  0  0  0
  180.2990  174.6900  139.6160 N   0  0  0  0  0  0  0  0  0  0  0  0
  181.1920  175.1270  139.0230 C   0  0  0  0  0  0  0  0  0  0  0  0
  183.5830  178.0300  137.1100 C   0  0  0  0  0  2  0  0  0  0  0  0
  182.4030  178.9020  136.7280 C   0  0  0  0  0  2  0  0  0  0  0  0
  181.3040  178.7310  137.7560 C   0  0  0  0  0  2  0  0  0  0  0  0
  180.6920  180.0790  138.1070 C   0  0  0  0  0  2  0  0  0  0  0  0
  180.3270  180.8710  136.8550 C   0  0  0  0  0  2  0  0  0  0  0  0
  180.3290  182.3690  137.1210 C   0  0  0  0  0  2  0  0  0  0  0  0
  181.4520  182.7410  138.0760 C   0  0  0  0  0  1  0  0  0  0  0  0
  2  5  1  0  0  0  0
  3 10  1  6  0  0  0
  3  7  1  0  0  0  0
  3  8  1  0  0  0  0
  4  5  2  0  0  0  0
  5  9  1  0  0  0  0
  6  4  1  0  0  0  0
  6  1  1  0  0  0  0
  7 39  1  1  0  0  0
  7  6  1  0  0  0  0
  8  4  1  0  0  0  0
 11 14  1  1  0  0  0
 11 13  1  0  0  0  0
 11 10  1  0  0  0  0
 12 13  2  0  0  0  0
 16 14  1  0  0  0  0
 16 15  1  1  0  0  0
 17 16  1  0  0  0  0
 18 21  1  0  0  0  0
 18 17  1  0  0  0  0
 19 21  2  0  0  0  0
 21 20  1  0  0  0  0
 22 33  1  0  0  0  0
 24 23  1  1  0  0  0
 24 30  1  0  0  0  0
 24 22  1  0  0  0  0
 25 26  1  6  0  0  0
 27 20  1  1  0  0  0
 27 28  1  0  0  0  0
 28 25  1  0  0  0  0
 28 34  1  6  0  0  0
 29 26  1  0  0  0  0
 29 31  1  0  0  0  0
 30 23  1  1  0  0  0
 30 25  1  0  0  0  0
 32 27  1  0  0  0  0
 32 30  1  0  0  0  0
 33 31  1  0  0  0  0
 34 35  1  1  0  0  0
 34 36  1  0  0  0  0
 36 37  1  0  0  0  0
 37 38  1  0  0  0  0
 39 40  1  0  0  0  0
 41 40  1  0  0  0  0
 42 44  2  0  0  0  0
 43 41  1  0  0  0  0
 44 43  1  0  0  0  0
 46 45  2  0  0  0  0
 46 44  1  0  0  0  0
 47 48  1  1  0  0  0
 47 51  1  0  0  0  0
 47 45  1  0  0  0  0
 49 48  1  0  0  0  0
 51 50  3  0  0  0  0
 52 46  1  0  0  0  0
 53 52  1  0  0  0  0
 53 54  1  0  0  0  0
 54 55  1  0  0  0  0
 56 57  1  0  0  0  0
 56 55  1  0  0  0  0
 57 58  1  0  0  0  0
M  END
>  <MODEL>
9

>  <REMARK>
 VINA RESULT:      -4.2      2.428     11.358
  Name = 
  26 active torsions:
  status: ('A' for Active; 'I' for Inactive)
    1  A    between atoms: C_1  and  C_30
    2  A    between atoms: C_1  and  C_45
    3  A    between atoms: C_1  and  C_58
    4  A    between atoms: CA_3  and  N_29
    5  A    between atoms: CA_3  and  C_33
    6  A    between atoms: CA_3  and  C_56
    7  A    between atoms: C_9  and  C_24
    8  A    between atoms: C_9  and  C_36
    9  A    between atoms: N_10  and  C_19
   10  A    between atoms: C_12  and  C_39
   11  A    between atoms: C_12  and  C_48
   12  A    between atoms: C_15  and  C_36
   13  A    between atoms: C_16  and  C_58
   14  A    between atoms: N_22  and  C_55
   15  A    between atoms: C_23  and  C_49
   16  A    between atoms: C_25  and  C_41
   17  A    between atoms: C_25  and  C_51
   18  A    between atoms: C_26  and  C_34
   19  A    between atoms: C_30  and  C_31
   20  A    between atoms: C_31  and  C_43
   21  A    between atoms: C_34  and  C_39
   22  A    between atoms: C_38  and  O_53
   23  A    between atoms: C_42  and  C_48
   24  A    between atoms: C_42  and  C_49
   25  A    between atoms: C_43  and  O_53
   26  A    between atoms: C_51  and  C_55
                            x       y       z     vdW  Elec       q    Type
                         _______ _______ _______ _____ _____    ______ ____

>  <TORSDO>
F 26

$$$$
