=
 OpenBabel10232411513D

 47 52  0  0  1  0  0  0  0  0999 V2000
  189.5530  177.0790  145.3450 C   0  0  2  0  0  3  0  0  0  0  0  0
  190.2550  177.2600  141.1000 C   0  0  0  0  0  0  0  0  0  0  0  0
  188.7300  177.0680  142.9830 C   0  0  0  0  0  3  0  0  0  0  0  0
  191.1170  177.2520  143.3660 C   0  0  0  0  0  3  0  0  0  0  0  0
  188.9480  177.1320  141.6040 C   0  0  0  0  0  3  0  0  0  0  0  0
  189.8120  177.1330  143.8700 C   0  0  0  0  0  0  0  0  0  0  0  0
  191.3340  177.3220  141.9860 C   0  0  0  0  0  3  0  0  0  0  0  0
  190.5090  177.3790  139.6600 C   0  0  0  0  0  3  0  0  0  0  0  0
  189.8500  176.6780  138.7940 N   0  0  0  0  0  0  0  0  0  0  0  0
  190.0620  176.8080  137.3830 C   0  0  0  0  0  0  0  0  0  0  0  0
  189.6310  177.8170  136.7610 O   0  0  0  0  0  0  0  0  0  0  0  0
  190.7650  175.7960  136.6640 N   0  0  0  0  0  2  0  0  0  0  0  0
  193.5430  173.8230  137.2300 C   0  0  1  0  0  3  0  0  0  0  0  0
  192.6950  174.9050  137.8240 C   0  0  0  0  0  2  0  0  0  0  0  0
  192.7070  173.3020  136.0890 C   0  0  2  0  0  3  0  0  0  0  0  0
  191.3530  173.5420  136.3750 O   0  0  0  0  0  0  0  0  0  0  0  0
  191.3060  174.6050  137.3000 C   0  0  2  0  0  3  0  0  0  0  0  0
  192.9240  171.8710  135.9290 N   0  0  0  0  0  1  0  0  0  0  0  0
  195.3200  174.0670  135.2110 O   0  0  0  0  0  0  0  0  0  0  0  0
  195.0920  174.4980  136.6390 S   0  0  0  0  0  0  0  0  0  0  0  0
  195.0180  176.0030  136.6880 O   0  0  0  0  0  0  0  0  0  0  0  0
  196.1630  174.2360  139.1150 C   0  0  0  0  0  1  0  0  0  0  0  0
  196.4530  173.9390  137.6520 C   0  0  0  0  0  2  0  0  0  0  0  0
  188.5010  178.1070  145.7680 C   0  0  0  0  0  2  0  0  0  0  0  0
  187.3020  177.4140  146.4110 C   0  0  0  0  0  2  0  0  0  0  0  0
  186.3450  178.7440  144.8450 O   0  0  0  0  0  0  0  0  0  0  0  0
  184.1970  179.0090  145.8000 C   0  0  0  0  0  2  0  0  0  0  0  0
  185.1100  179.3940  144.6670 C   0  0  2  0  0  3  0  0  0  0  0  0
  185.0370  178.0270  146.5450 C   0  0  0  0  0  2  0  0  0  0  0  0
  186.0980  177.6550  145.6270 N   0  0  0  0  0  0  0  0  0  0  0  0
  184.7140  178.5720  140.9690 C   0  0  0  0  0  0  0  0  0  0  0  0
  183.3250  178.4300  140.8710 C   0  0  0  0  0  3  0  0  0  0  0  0
  185.2990  178.8790  142.2000 C   0  0  0  0  0  3  0  0  0  0  0  0
  182.5240  178.5910  142.0060 C   0  0  0  0  0  3  0  0  0  0  0  0
  183.1120  178.8990  143.2390 C   0  0  0  0  0  3  0  0  0  0  0  0
  184.5000  179.0450  143.3400 C   0  0  0  0  0  0  0  0  0  0  0  0
  186.2340  177.4220  137.4420 C   0  0  1  0  0  3  0  0  0  0  0  0
  185.7370  178.5630  138.3550 C   0  0  2  0  0  0  0  0  0  0  0  0
  184.8590  177.3770  137.9020 C   0  0  0  0  0  2  0  0  0  0  0  0
  186.7530  178.4990  139.1870 O   0  0  0  0  0  0  0  0  0  0  0  0
  186.2750  177.8830  136.1220 O   0  0  0  0  0  1  0  0  0  0  0  0
  185.5400  178.3870  139.8240 N   0  0  0  0  0  0  0  0  0  0  0  0
  190.7920  177.3090  146.0710 N   0  0  0  0  0  2  0  0  0  0  0  0
  190.7930  176.4010  147.2100 C   0  0  0  0  0  2  0  0  0  0  0  0
  192.1390  175.7760  147.3410 C   0  0  0  0  0  0  0  0  0  0  0  0
  192.9820  176.1200  148.4370 N   0  0  0  0  0  1  0  0  0  0  0  0
  192.5480  174.9770  146.4600 O   0  0  0  0  0  0  0  0  0  0  0  0
  1 24  1  1  0  0  0
  1 43  1  0  0  0  0
  2  5  2  0  0  0  0
  2  7  1  0  0  0  0
  3  6  2  0  0  0  0
  4  6  1  0  0  0  0
  5  3  1  0  0  0  0
  6  1  1  0  0  0  0
  7  4  2  0  0  0  0
  8  2  1  0  0  0  0
  9  8  2  0  0  0  0
 10  9  1  0  0  0  0
 11 10  2  0  0  0  0
 12 10  1  0  0  0  0
 13 20  1  6  0  0  0
 13 14  1  0  0  0  0
 15 18  1  1  0  0  0
 15 16  1  0  0  0  0
 15 13  1  0  0  0  0
 16 17  1  0  0  0  0
 17 12  1  6  0  0  0
 17 14  1  0  0  0  0
 19 20  2  0  0  0  0
 20 21  2  0  0  0  0
 20 23  1  0  0  0  0
 23 22  1  0  0  0  0
 24 25  1  0  0  0  0
 26 30  1  0  0  0  0
 27 29  1  0  0  0  0
 28 36  1  6  0  0  0
 28 26  1  0  0  0  0
 28 27  1  0  0  0  0
 30 25  1  0  0  0  0
 30 29  1  0  0  0  0
 31 33  1  0  0  0  0
 32 31  2  0  0  0  0
 32 34  1  0  0  0  0
 33 36  2  0  0  0  0
 34 35  2  0  0  0  0
 35 36  1  0  0  0  0
 37 41  1  6  0  0  0
 37 39  1  0  0  0  0
 37 38  1  0  0  0  0
 38 39  1  6  0  0  0
 38 40  1  0  0  0  0
 38 42  1  0  0  0  0
 40 42  1  0  0  0  0
 42 31  1  0  0  0  0
 43 44  1  0  0  0  0
 44 45  1  0  0  0  0
 45 46  1  0  0  0  0
 47 45  2  0  0  0  0
M  END
>  <MODEL>
1

>  <REMARK>
 VINA RESULT:      -8.7      0.000      0.000
  Name = 
  14 active torsions:
  status: ('A' for Active; 'I' for Inactive)
    1  A    between atoms: C_1  and  C_15
    2  A    between atoms: C_1  and  C_45
    3  A    between atoms: C_4  and  C_5
    4  A    between atoms: C_6  and  S_17
    5  A    between atoms: C_7  and  C_13
    6  A    between atoms: C_7  and  N_30
    7  A    between atoms: C_14  and  N_36
    8  A    between atoms: C_15  and  N_32
    9  A    between atoms: S_17  and  C_42
   10  A    between atoms: C_20  and  C_45
   11  A    between atoms: C_22  and  C_44
   12  A    between atoms: C_27  and  N_41
   13  A    between atoms: N_30  and  C_45
   14  A    between atoms: N_35  and  C_38
                            x       y       z     vdW  Elec       q    Type
                         _______ _______ _______ _____ _____    ______ ____

>  <TORSDO>
F 14

$$$$
=
 OpenBabel10232411513D

 47 52  0  0  1  0  0  0  0  0999 V2000
  189.7020  176.8120  143.9010 C   0  0  2  0  0  3  0  0  0  0  0  0
  189.0110  178.0320  139.8290 C   0  0  0  0  0  0  0  0  0  0  0  0
  190.3470  176.8570  141.4850 C   0  0  0  0  0  3  0  0  0  0  0  0
  188.3450  178.0470  142.1600 C   0  0  0  0  0  3  0  0  0  0  0  0
  190.1270  177.2420  140.1600 C   0  0  0  0  0  3  0  0  0  0  0  0
  189.4550  177.2520  142.4900 C   0  0  0  0  0  0  0  0  0  0  0  0
  188.1240  178.4270  140.8330 C   0  0  0  0  0  3  0  0  0  0  0  0
  188.7300  178.4100  138.4400 C   0  0  0  0  0  3  0  0  0  0  0  0
  188.4630  177.5240  137.5340 N   0  0  0  0  0  0  0  0  0  0  0  0
  188.1520  177.8810  136.1830 C   0  0  0  0  0  0  0  0  0  0  0  0
  187.1790  178.6420  135.9290 O   0  0  0  0  0  0  0  0  0  0  0  0
  188.9400  177.3780  135.1050 N   0  0  0  0  0  2  0  0  0  0  0  0
  190.0770  174.1470  135.5500 C   0  0  1  0  0  3  0  0  0  0  0  0
  189.8810  175.2220  134.5270 C   0  0  0  0  0  2  0  0  0  0  0  0
  189.9120  174.8700  136.8620 C   0  0  2  0  0  3  0  0  0  0  0  0
  190.2440  176.2220  136.6780 O   0  0  0  0  0  0  0  0  0  0  0  0
  190.0860  176.5040  135.3050 C   0  0  2  0  0  3  0  0  0  0  0  0
  190.7910  174.2850  137.8640 N   0  0  0  0  0  1  0  0  0  0  0  0
  189.4560  171.6600  134.6990 O   0  0  0  0  0  0  0  0  0  0  0  0
  188.8380  172.8690  135.3580 S   0  0  0  0  0  0  0  0  0  0  0  0
  188.3280  172.4740  136.7210 O   0  0  0  0  0  0  0  0  0  0  0  0
  186.4690  174.1790  135.2430 C   0  0  0  0  0  1  0  0  0  0  0  0
  187.4740  173.4540  134.3630 C   0  0  0  0  0  2  0  0  0  0  0  0
  189.2390  177.8680  144.9060 C   0  0  0  0  0  2  0  0  0  0  0  0
  188.4030  177.2270  146.0120 C   0  0  0  0  0  2  0  0  0  0  0  0
  186.8900  178.7090  145.2080 O   0  0  0  0  0  0  0  0  0  0  0  0
  185.2530  178.5770  146.9100 C   0  0  0  0  0  2  0  0  0  0  0  0
  185.6610  179.2500  145.6280 C   0  0  2  0  0  3  0  0  0  0  0  0
  186.3390  177.5690  147.0820 C   0  0  0  0  0  2  0  0  0  0  0  0
  186.9870  177.4790  145.7860 N   0  0  0  0  0  0  0  0  0  0  0  0
  183.9470  178.9480  142.2400 C   0  0  0  0  0  0  0  0  0  0  0  0
  182.6090  178.8060  142.6260 C   0  0  0  0  0  3  0  0  0  0  0  0
  184.9420  179.0870  143.2100 C   0  0  0  0  0  3  0  0  0  0  0  0
  182.2700  178.8000  143.9820 C   0  0  0  0  0  3  0  0  0  0  0  0
  183.2680  178.9390  144.9530 C   0  0  0  0  0  3  0  0  0  0  0  0
  184.6060  179.0830  144.5710 C   0  0  0  0  0  0  0  0  0  0  0  0
  184.5070  177.9410  138.3990 C   0  0  1  0  0  3  0  0  0  0  0  0
  183.8710  178.8940  139.4340 C   0  0  2  0  0  0  0  0  0  0  0  0
  183.5830  177.3780  139.3660 C   0  0  0  0  0  2  0  0  0  0  0  0
  185.0070  179.4480  139.7970 O   0  0  0  0  0  0  0  0  0  0  0  0
  183.8620  178.1090  137.1710 O   0  0  0  0  0  1  0  0  0  0  0  0
  184.3050  178.9340  140.8620 N   0  0  0  0  0  0  0  0  0  0  0  0
  191.1170  176.5310  144.0890 N   0  0  0  0  0  2  0  0  0  0  0  0
  191.5480  177.2830  145.2580 C   0  0  0  0  0  2  0  0  0  0  0  0
  191.9290  176.3350  146.3420 C   0  0  0  0  0  0  0  0  0  0  0  0
  191.9510  176.7720  147.6990 N   0  0  0  0  0  1  0  0  0  0  0  0
  192.2730  175.1600  146.0550 O   0  0  0  0  0  0  0  0  0  0  0  0
  1 43  1  0  0  0  0
  1 24  1  1  0  0  0
  2  5  2  0  0  0  0
  2  7  1  0  0  0  0
  3  6  2  0  0  0  0
  4  6  1  0  0  0  0
  5  3  1  0  0  0  0
  6  1  1  0  0  0  0
  7  4  2  0  0  0  0
  8  2  1  0  0  0  0
  9  8  2  0  0  0  0
 10  9  1  0  0  0  0
 11 10  2  0  0  0  0
 12 10  1  0  0  0  0
 13 20  1  6  0  0  0
 13 15  1  0  0  0  0
 14 17  1  0  0  0  0
 14 13  1  0  0  0  0
 15 18  1  1  0  0  0
 16 15  1  0  0  0  0
 17 12  1  1  0  0  0
 17 16  1  0  0  0  0
 19 20  2  0  0  0  0
 20 21  2  0  0  0  0
 23 22  1  0  0  0  0
 23 20  1  0  0  0  0
 24 25  1  0  0  0  0
 26 28  1  0  0  0  0
 26 30  1  0  0  0  0
 27 29  1  0  0  0  0
 28 36  1  6  0  0  0
 28 27  1  0  0  0  0
 30 25  1  0  0  0  0
 30 29  1  0  0  0  0
 31 32  2  0  0  0  0
 31 33  1  0  0  0  0
 32 34  1  0  0  0  0
 33 36  2  0  0  0  0
 34 35  2  0  0  0  0
 36 35  1  0  0  0  0
 37 41  1  6  0  0  0
 37 39  1  0  0  0  0
 37 38  1  0  0  0  0
 38 39  1  6  0  0  0
 38 40  1  0  0  0  0
 38 42  1  0  0  0  0
 40 42  1  0  0  0  0
 42 31  1  0  0  0  0
 43 44  1  0  0  0  0
 44 45  1  0  0  0  0
 45 46  1  0  0  0  0
 47 45  2  0  0  0  0
M  END
>  <MODEL>
2

>  <REMARK>
 VINA RESULT:      -8.0      2.546      3.437
  Name = 
  14 active torsions:
  status: ('A' for Active; 'I' for Inactive)
    1  A    between atoms: C_1  and  C_15
    2  A    between atoms: C_1  and  C_45
    3  A    between atoms: C_4  and  C_5
    4  A    between atoms: C_6  and  S_17
    5  A    between atoms: C_7  and  C_13
    6  A    between atoms: C_7  and  N_30
    7  A    between atoms: C_14  and  N_36
    8  A    between atoms: C_15  and  N_32
    9  A    between atoms: S_17  and  C_42
   10  A    between atoms: C_20  and  C_45
   11  A    between atoms: C_22  and  C_44
   12  A    between atoms: C_27  and  N_41
   13  A    between atoms: N_30  and  C_45
   14  A    between atoms: N_35  and  C_38
                            x       y       z     vdW  Elec       q    Type
                         _______ _______ _______ _____ _____    ______ ____

>  <TORSDO>
F 14

$$$$
=
 OpenBabel10232411513D

 47 52  0  0  1  0  0  0  0  0999 V2000
  188.6910  176.9630  145.9140 C   0  0  2  0  0  3  0  0  0  0  0  0
  189.5740  177.5850  141.7450 C   0  0  0  0  0  0  0  0  0  0  0  0
  188.3600  176.4150  143.4960 C   0  0  0  0  0  3  0  0  0  0  0  0
  189.9580  178.1450  144.0720 C   0  0  0  0  0  3  0  0  0  0  0  0
  188.6350  176.6150  142.1400 C   0  0  0  0  0  3  0  0  0  0  0  0
  189.0150  177.1820  144.4670 C   0  0  0  0  0  0  0  0  0  0  0  0
  190.2290  178.3480  142.7150 C   0  0  0  0  0  3  0  0  0  0  0  0
  189.8460  177.8490  140.3280 C   0  0  0  0  0  3  0  0  0  0  0  0
  188.8910  177.9620  139.4610 N   0  0  0  0  0  0  0  0  0  0  0  0
  189.1400  178.2540  138.0810 C   0  0  0  0  0  0  0  0  0  0  0  0
  189.0780  179.4400  137.6560 O   0  0  0  0  0  0  0  0  0  0  0  0
  189.4610  177.2050  137.1690 N   0  0  0  0  0  2  0  0  0  0  0  0
  191.2340  174.2490  136.9450 C   0  0  1  0  0  3  0  0  0  0  0  0
  191.0220  175.4620  137.7970 C   0  0  0  0  0  2  0  0  0  0  0  0
  190.0760  174.2840  135.9810 C   0  0  2  0  0  3  0  0  0  0  0  0
  189.0110  174.9780  136.5790 O   0  0  0  0  0  0  0  0  0  0  0  0
  189.5660  175.8120  137.5730 C   0  0  2  0  0  3  0  0  0  0  0  0
  189.6550  172.9280  135.6640 N   0  0  0  0  0  1  0  0  0  0  0  0
  193.3130  172.9740  135.7850 O   0  0  0  0  0  0  0  0  0  0  0  0
  192.7970  174.3610  136.0800 S   0  0  0  0  0  0  0  0  0  0  0  0
  192.5830  175.0880  134.7760 O   0  0  0  0  0  0  0  0  0  0  0  0
  194.5880  174.3210  138.1140 C   0  0  0  0  0  1  0  0  0  0  0  0
  194.0010  175.2460  137.0590 C   0  0  0  0  0  2  0  0  0  0  0  0
  187.2130  177.2330  146.2050 C   0  0  0  0  0  2  0  0  0  0  0  0
  186.7700  178.5440  145.5600 C   0  0  0  0  0  2  0  0  0  0  0  0
  185.3530  179.4510  144.0430 O   0  0  0  0  0  0  0  0  0  0  0  0
  183.2860  178.9970  145.0990 C   0  0  0  0  0  2  0  0  0  0  0  0
  183.9640  179.6470  143.9250 C   0  0  2  0  0  3  0  0  0  0  0  0
  184.4390  178.3650  145.8030 C   0  0  0  0  0  2  0  0  0  0  0  0
  185.5210  178.3550  144.8350 N   0  0  0  0  0  0  0  0  0  0  0  0
  183.7950  178.4300  140.3190 C   0  0  0  0  0  0  0  0  0  0  0  0
  182.4410  178.0900  140.2130 C   0  0  0  0  0  3  0  0  0  0  0  0
  184.2960  178.9300  141.5230 C   0  0  0  0  0  3  0  0  0  0  0  0
  181.5920  178.2470  141.3120 C   0  0  0  0  0  3  0  0  0  0  0  0
  182.0960  178.7490  142.5180 C   0  0  0  0  0  3  0  0  0  0  0  0
  183.4470  179.0920  142.6270 C   0  0  0  0  0  0  0  0  0  0  0  0
  185.7660  176.9890  137.1390 C   0  0  1  0  0  3  0  0  0  0  0  0
  184.8440  178.0710  137.7400 C   0  0  2  0  0  0  0  0  0  0  0  0
  184.4910  176.5690  137.6910 C   0  0  0  0  0  2  0  0  0  0  0  0
  185.7790  178.6210  138.4840 O   0  0  0  0  0  0  0  0  0  0  0  0
  185.6810  177.0440  135.7440 O   0  0  0  0  0  1  0  0  0  0  0  0
  184.6720  178.2510  139.2120 N   0  0  0  0  0  0  0  0  0  0  0  0
  189.5260  177.8210  146.7400 N   0  0  0  0  0  2  0  0  0  0  0  0
  190.0900  176.9840  147.7890 C   0  0  0  0  0  2  0  0  0  0  0  0
  191.5350  176.7540  147.5120 C   0  0  0  0  0  0  0  0  0  0  0  0
  191.9420  176.1810  146.2720 N   0  0  0  0  0  1  0  0  0  0  0  0
  192.3930  177.0240  148.3900 O   0  0  0  0  0  0  0  0  0  0  0  0
  1 24  1  6  0  0  0
  1 43  1  0  0  0  0
  2  5  2  0  0  0  0
  2  7  1  0  0  0  0
  3  6  2  0  0  0  0
  4  6  1  0  0  0  0
  5  3  1  0  0  0  0
  6  1  1  0  0  0  0
  7  4  2  0  0  0  0
  8  2  1  0  0  0  0
  9  8  2  0  0  0  0
 10  9  1  0  0  0  0
 11 10  2  0  0  0  0
 12 10  1  0  0  0  0
 13 20  1  6  0  0  0
 13 14  1  0  0  0  0
 15 18  1  1  0  0  0
 15 16  1  0  0  0  0
 15 13  1  0  0  0  0
 16 17  1  0  0  0  0
 17 12  1  6  0  0  0
 17 14  1  0  0  0  0
 19 20  2  0  0  0  0
 20 23  1  0  0  0  0
 21 20  2  0  0  0  0
 23 22  1  0  0  0  0
 25 24  1  0  0  0  0
 26 30  1  0  0  0  0
 27 29  1  0  0  0  0
 28 36  1  6  0  0  0
 28 26  1  0  0  0  0
 28 27  1  0  0  0  0
 30 25  1  0  0  0  0
 30 29  1  0  0  0  0
 31 33  1  0  0  0  0
 32 31  2  0  0  0  0
 32 34  1  0  0  0  0
 33 36  2  0  0  0  0
 34 35  2  0  0  0  0
 35 36  1  0  0  0  0
 37 41  1  6  0  0  0
 37 39  1  0  0  0  0
 37 38  1  0  0  0  0
 38 39  1  6  0  0  0
 38 40  1  0  0  0  0
 38 42  1  0  0  0  0
 40 42  1  0  0  0  0
 42 31  1  0  0  0  0
 43 44  1  0  0  0  0
 45 44  1  0  0  0  0
 45 47  2  0  0  0  0
 46 45  1  0  0  0  0
M  END
>  <MODEL>
3

>  <REMARK>
 VINA RESULT:      -7.9      1.558      1.760
  Name = 
  14 active torsions:
  status: ('A' for Active; 'I' for Inactive)
    1  A    between atoms: C_1  and  C_15
    2  A    between atoms: C_1  and  C_45
    3  A    between atoms: C_4  and  C_5
    4  A    between atoms: C_6  and  S_17
    5  A    between atoms: C_7  and  C_13
    6  A    between atoms: C_7  and  N_30
    7  A    between atoms: C_14  and  N_36
    8  A    between atoms: C_15  and  N_32
    9  A    between atoms: S_17  and  C_42
   10  A    between atoms: C_20  and  C_45
   11  A    between atoms: C_22  and  C_44
   12  A    between atoms: C_27  and  N_41
   13  A    between atoms: N_30  and  C_45
   14  A    between atoms: N_35  and  C_38
                            x       y       z     vdW  Elec       q    Type
                         _______ _______ _______ _____ _____    ______ ____

>  <TORSDO>
F 14

$$$$
=
 OpenBabel10232411513D

 47 52  0  0  1  0  0  0  0  0999 V2000
  189.8740  177.0200  143.7140 C   0  0  2  0  0  3  0  0  0  0  0  0
  189.3800  177.7790  139.5040 C   0  0  0  0  0  0  0  0  0  0  0  0
  190.6580  176.8410  141.3460 C   0  0  0  0  0  3  0  0  0  0  0  0
  188.5780  178.0080  141.7800 C   0  0  0  0  0  3  0  0  0  0  0  0
  190.5030  177.0770  139.9770 C   0  0  0  0  0  3  0  0  0  0  0  0
  189.6950  177.3000  142.2530 C   0  0  0  0  0  0  0  0  0  0  0  0
  188.4210  178.2390  140.4100 C   0  0  0  0  0  3  0  0  0  0  0  0
  189.1670  177.9990  138.0690 C   0  0  0  0  0  3  0  0  0  0  0  0
  188.9570  177.0150  137.2540 N   0  0  0  0  0  0  0  0  0  0  0  0
  188.7130  177.2160  135.8580 C   0  0  0  0  0  0  0  0  0  0  0  0
  189.6680  177.4490  135.0680 O   0  0  0  0  0  0  0  0  0  0  0  0
  187.3840  177.1570  135.3420 N   0  0  0  0  0  2  0  0  0  0  0  0
  185.2090  174.7810  136.5900 C   0  0  1  0  0  3  0  0  0  0  0  0
  186.4350  175.5770  136.9140 C   0  0  0  0  0  2  0  0  0  0  0  0
  184.6510  175.4680  135.3710 C   0  0  2  0  0  3  0  0  0  0  0  0
  185.0630  176.8110  135.3810 O   0  0  0  0  0  0  0  0  0  0  0  0
  186.2250  176.8830  136.1770 C   0  0  2  0  0  3  0  0  0  0  0  0
  183.1970  175.4050  135.3890 N   0  0  0  0  0  1  0  0  0  0  0  0
  184.7390  172.1530  136.9970 O   0  0  0  0  0  0  0  0  0  0  0  0
  185.6460  173.0830  136.2300 S   0  0  0  0  0  0  0  0  0  0  0  0
  185.4650  172.8340  134.7540 O   0  0  0  0  0  0  0  0  0  0  0  0
  187.9150  171.6660  135.7880 C   0  0  0  0  0  1  0  0  0  0  0  0
  187.3450  172.7580  136.6790 C   0  0  0  0  0  2  0  0  0  0  0  0
  188.9850  177.9240  144.5710 C   0  0  0  0  0  2  0  0  0  0  0  0
  188.1750  177.0940  145.5640 C   0  0  0  0  0  2  0  0  0  0  0  0
  186.6680  178.5760  144.7490 O   0  0  0  0  0  0  0  0  0  0  0  0
  185.2130  178.7350  146.6080 C   0  0  0  0  0  2  0  0  0  0  0  0
  185.5200  179.2390  145.2240 C   0  0  2  0  0  3  0  0  0  0  0  0
  186.2560  177.6830  146.7850 C   0  0  0  0  0  2  0  0  0  0  0  0
  186.7580  177.4110  145.4510 N   0  0  0  0  0  0  0  0  0  0  0  0
  183.4400  178.7450  142.0720 C   0  0  0  0  0  0  0  0  0  0  0  0
  182.1490  178.6720  142.6080 C   0  0  0  0  0  3  0  0  0  0  0  0
  184.5380  178.9230  142.9160 C   0  0  0  0  0  3  0  0  0  0  0  0
  181.9600  178.7730  143.9900 C   0  0  0  0  0  3  0  0  0  0  0  0
  183.0620  178.9520  144.8350 C   0  0  0  0  0  3  0  0  0  0  0  0
  184.3530  179.0280  144.3020 C   0  0  0  0  0  0  0  0  0  0  0  0
  183.1590  177.7660  138.1930 C   0  0  1  0  0  3  0  0  0  0  0  0
  183.1450  178.8600  139.2820 C   0  0  2  0  0  0  0  0  0  0  0  0
  182.1490  177.6810  139.2330 C   0  0  0  0  0  2  0  0  0  0  0  0
  184.4290  178.7760  139.5490 O   0  0  0  0  0  0  0  0  0  0  0  0
  182.5910  178.2810  137.0250 O   0  0  0  0  0  1  0  0  0  0  0  0
  183.6450  178.6200  140.6680 N   0  0  0  0  0  0  0  0  0  0  0  0
  191.2700  177.2010  144.0820 N   0  0  0  0  0  2  0  0  0  0  0  0
  191.7260  175.9420  144.6540 C   0  0  0  0  0  2  0  0  0  0  0  0
  191.9480  176.1160  146.1170 C   0  0  0  0  0  0  0  0  0  0  0  0
  191.6490  177.3620  146.7410 N   0  0  0  0  0  1  0  0  0  0  0  0
  192.4420  175.1780  146.7920 O   0  0  0  0  0  0  0  0  0  0  0  0
  1 43  1  0  0  0  0
  1 24  1  1  0  0  0
  2  5  2  0  0  0  0
  2  7  1  0  0  0  0
  3  6  2  0  0  0  0
  4  6  1  0  0  0  0
  5  3  1  0  0  0  0
  6  1  1  0  0  0  0
  7  4  2  0  0  0  0
  8  2  1  0  0  0  0
  9  8  2  0  0  0  0
 10  9  1  0  0  0  0
 11 10  2  0  0  0  0
 12 10  1  0  0  0  0
 13 20  1  6  0  0  0
 13 14  1  0  0  0  0
 15 16  1  0  0  0  0
 15 18  1  1  0  0  0
 15 13  1  0  0  0  0
 16 17  1  0  0  0  0
 17 12  1  6  0  0  0
 17 14  1  0  0  0  0
 20 23  1  0  0  0  0
 20 19  2  0  0  0  0
 21 20  2  0  0  0  0
 22 23  1  0  0  0  0
 24 25  1  0  0  0  0
 26 28  1  0  0  0  0
 26 30  1  0  0  0  0
 27 29  1  0  0  0  0
 28 36  1  6  0  0  0
 28 27  1  0  0  0  0
 30 25  1  0  0  0  0
 30 29  1  0  0  0  0
 31 32  2  0  0  0  0
 31 33  1  0  0  0  0
 32 34  1  0  0  0  0
 33 36  2  0  0  0  0
 34 35  2  0  0  0  0
 36 35  1  0  0  0  0
 37 41  1  6  0  0  0
 37 39  1  0  0  0  0
 37 38  1  0  0  0  0
 38 39  1  6  0  0  0
 38 40  1  0  0  0  0
 38 42  1  0  0  0  0
 40 42  1  0  0  0  0
 42 31  1  0  0  0  0
 43 44  1  0  0  0  0
 44 45  1  0  0  0  0
 45 46  1  0  0  0  0
 45 47  2  0  0  0  0
M  END
>  <MODEL>
4

>  <REMARK>
 VINA RESULT:      -7.8      3.186      4.673
  Name = 
  14 active torsions:
  status: ('A' for Active; 'I' for Inactive)
    1  A    between atoms: C_1  and  C_15
    2  A    between atoms: C_1  and  C_45
    3  A    between atoms: C_4  and  C_5
    4  A    between atoms: C_6  and  S_17
    5  A    between atoms: C_7  and  C_13
    6  A    between atoms: C_7  and  N_30
    7  A    between atoms: C_14  and  N_36
    8  A    between atoms: C_15  and  N_32
    9  A    between atoms: S_17  and  C_42
   10  A    between atoms: C_20  and  C_45
   11  A    between atoms: C_22  and  C_44
   12  A    between atoms: C_27  and  N_41
   13  A    between atoms: N_30  and  C_45
   14  A    between atoms: N_35  and  C_38
                            x       y       z     vdW  Elec       q    Type
                         _______ _______ _______ _____ _____    ______ ____

>  <TORSDO>
F 14

$$$$
=
 OpenBabel10232411513D

 47 52  0  0  1  0  0  0  0  0999 V2000
  184.2560  178.8260  142.0040 C   0  0  2  0  0  3  0  0  0  0  0  0
  186.1100  178.2980  138.1520 C   0  0  0  0  0  0  0  0  0  0  0  0
  184.1190  178.5700  139.5200 C   0  0  0  0  0  3  0  0  0  0  0  0
  186.3080  178.5160  140.5590 C   0  0  0  0  0  3  0  0  0  0  0  0
  184.7120  178.4060  138.2650 C   0  0  0  0  0  3  0  0  0  0  0  0
  184.9130  178.6320  140.6710 C   0  0  0  0  0  0  0  0  0  0  0  0
  186.9010  178.3570  139.3020 C   0  0  0  0  0  3  0  0  0  0  0  0
  186.7620  178.1730  136.8440 C   0  0  0  0  0  3  0  0  0  0  0  0
  187.8570  177.4990  136.6930 N   0  0  0  0  0  0  0  0  0  0  0  0
  188.4860  177.3390  135.4160 C   0  0  0  0  0  0  0  0  0  0  0  0
  188.1280  178.0430  134.4330 O   0  0  0  0  0  0  0  0  0  0  0  0
  189.5280  176.3800  135.2410 N   0  0  0  0  0  2  0  0  0  0  0  0
  192.2660  175.0190  136.8480 C   0  0  1  0  0  3  0  0  0  0  0  0
  191.2730  176.1390  136.9030 C   0  0  0  0  0  2  0  0  0  0  0  0
  191.6680  174.0620  135.8500 C   0  0  2  0  0  3  0  0  0  0  0  0
  190.2740  174.2350  135.8370 O   0  0  0  0  0  0  0  0  0  0  0  0
  190.0130  175.5340  136.3210 C   0  0  2  0  0  3  0  0  0  0  0  0
  191.9830  172.6920  136.2260 N   0  0  0  0  0  1  0  0  0  0  0  0
  193.8200  175.8410  134.7980 O   0  0  0  0  0  0  0  0  0  0  0  0
  193.8560  175.6220  136.2900 S   0  0  0  0  0  0  0  0  0  0  0  0
  194.1450  176.9380  136.9690 O   0  0  0  0  0  0  0  0  0  0  0  0
  195.1850  174.2150  138.1880 C   0  0  0  0  0  1  0  0  0  0  0  0
  195.1500  174.4560  136.6880 C   0  0  0  0  0  2  0  0  0  0  0  0
  184.9690  178.0330  143.1010 C   0  0  0  0  0  2  0  0  0  0  0  0
  184.8240  178.7340  144.4500 C   0  0  0  0  0  2  0  0  0  0  0  0
  186.3510  177.3600  145.4050 O   0  0  0  0  0  0  0  0  0  0  0  0
  186.7290  178.5220  147.4300 C   0  0  0  0  0  2  0  0  0  0  0  0
  187.0540  177.2950  146.6230 C   0  0  2  0  0  3  0  0  0  0  0  0
  185.8580  179.2820  146.4880 C   0  0  0  0  0  2  0  0  0  0  0  0
  186.0790  178.6770  145.1880 N   0  0  0  0  0  0  0  0  0  0  0  0
  190.4370  177.0490  144.8900 C   0  0  0  0  0  0  0  0  0  0  0  0
  191.2940  176.9200  145.9890 C   0  0  0  0  0  3  0  0  0  0  0  0
  189.0600  177.1760  145.0900 C   0  0  0  0  0  3  0  0  0  0  0  0
  190.7730  176.9240  147.2860 C   0  0  0  0  0  3  0  0  0  0  0  0
  189.3930  177.0510  147.4850 C   0  0  0  0  0  3  0  0  0  0  0  0
  188.5330  177.1780  146.3890 C   0  0  0  0  0  0  0  0  0  0  0  0
  190.9160  176.8210  140.9160 C   0  0  1  0  0  3  0  0  0  0  0  0
  190.9500  177.6740  142.2010 C   0  0  2  0  0  0  0  0  0  0  0  0
  189.6900  176.9480  141.6820 C   0  0  0  0  0  2  0  0  0  0  0  0
  192.0240  177.0990  142.6950 O   0  0  0  0  0  0  0  0  0  0  0  0
  190.8700  177.6720  139.8080 O   0  0  0  0  0  1  0  0  0  0  0  0
  190.9610  177.0690  143.5660 N   0  0  0  0  0  0  0  0  0  0  0  0
  182.8600  178.4260  141.9270 N   0  0  0  0  0  2  0  0  0  0  0  0
  182.1430  179.1870  142.9410 C   0  0  0  0  0  2  0  0  0  0  0  0
  180.7800  178.6120  143.1160 C   0  0  0  0  0  0  0  0  0  0  0  0
  179.9980  178.2660  141.9760 N   0  0  0  0  0  1  0  0  0  0  0  0
  180.3020  178.4720  144.2710 O   0  0  0  0  0  0  0  0  0  0  0  0
  1 24  1  1  0  0  0
  2  5  2  0  0  0  0
  2  7  1  0  0  0  0
  3  6  2  0  0  0  0
  4  6  1  0  0  0  0
  5  3  1  0  0  0  0
  6  1  1  0  0  0  0
  7  4  2  0  0  0  0
  8  2  1  0  0  0  0
  9  8  2  0  0  0  0
 10  9  1  0  0  0  0
 11 10  2  0  0  0  0
 12 10  1  0  0  0  0
 13 20  1  6  0  0  0
 13 14  1  0  0  0  0
 15 18  1  1  0  0  0
 15 13  1  0  0  0  0
 16 15  1  0  0  0  0
 16 17  1  0  0  0  0
 17 12  1  6  0  0  0
 17 14  1  0  0  0  0
 19 20  2  0  0  0  0
 20 23  1  0  0  0  0
 20 21  2  0  0  0  0
 23 22  1  0  0  0  0
 24 25  1  0  0  0  0
 25 30  1  0  0  0  0
 26 28  1  0  0  0  0
 28 36  1  6  0  0  0
 28 27  1  0  0  0  0
 29 27  1  0  0  0  0
 30 26  1  0  0  0  0
 30 29  1  0  0  0  0
 31 33  2  0  0  0  0
 31 32  1  0  0  0  0
 32 34  2  0  0  0  0
 33 36  1  0  0  0  0
 34 35  1  0  0  0  0
 36 35  2  0  0  0  0
 37 41  1  6  0  0  0
 37 39  1  0  0  0  0
 37 38  1  0  0  0  0
 38 39  1  6  0  0  0
 38 40  1  0  0  0  0
 38 42  1  0  0  0  0
 40 42  1  0  0  0  0
 42 31  1  0  0  0  0
 43  1  1  0  0  0  0
 43 44  1  0  0  0  0
 44 45  1  0  0  0  0
 45 47  2  0  0  0  0
 46 45  1  0  0  0  0
M  END
>  <MODEL>
5

>  <REMARK>
 VINA RESULT:      -7.5      2.101      5.986
  Name = 
  14 active torsions:
  status: ('A' for Active; 'I' for Inactive)
    1  A    between atoms: C_1  and  C_15
    2  A    between atoms: C_1  and  C_45
    3  A    between atoms: C_4  and  C_5
    4  A    between atoms: C_6  and  S_17
    5  A    between atoms: C_7  and  C_13
    6  A    between atoms: C_7  and  N_30
    7  A    between atoms: C_14  and  N_36
    8  A    between atoms: C_15  and  N_32
    9  A    between atoms: S_17  and  C_42
   10  A    between atoms: C_20  and  C_45
   11  A    between atoms: C_22  and  C_44
   12  A    between atoms: C_27  and  N_41
   13  A    between atoms: N_30  and  C_45
   14  A    between atoms: N_35  and  C_38
                            x       y       z     vdW  Elec       q    Type
                         _______ _______ _______ _____ _____    ______ ____

>  <TORSDO>
F 14

$$$$
=
 OpenBabel10232411513D

 47 52  0  0  1  0  0  0  0  0999 V2000
  180.3970  178.4770  140.2610 C   0  0  2  0  0  3  0  0  0  0  0  0
  183.5410  179.0880  143.1400 C   0  0  0  0  0  0  0  0  0  0  0  0
  182.8180  178.5330  140.8870 C   0  0  0  0  0  3  0  0  0  0  0  0
  181.1780  179.0260  142.6030 C   0  0  0  0  0  3  0  0  0  0  0  0
  183.8450  178.7360  141.8130 C   0  0  0  0  0  3  0  0  0  0  0  0
  181.4810  178.6820  141.2750 C   0  0  0  0  0  0  0  0  0  0  0  0
  182.2060  179.2340  143.5270 C   0  0  0  0  0  3  0  0  0  0  0  0
  184.5990  179.3550  144.1200 C   0  0  0  0  0  3  0  0  0  0  0  0
  184.7680  178.6020  145.1610 N   0  0  0  0  0  0  0  0  0  0  0  0
  185.8180  178.8290  146.1070 C   0  0  0  0  0  0  0  0  0  0  0  0
  185.6170  179.5410  147.1290 O   0  0  0  0  0  0  0  0  0  0  0  0
  187.1080  178.2530  145.9050 N   0  0  0  0  0  2  0  0  0  0  0  0
  189.5780  176.7920  143.9820 C   0  0  1  0  0  3  0  0  0  0  0  0
  188.6150  176.5360  145.1000 C   0  0  0  0  0  2  0  0  0  0  0  0
  189.0910  178.0860  143.3830 C   0  0  2  0  0  3  0  0  0  0  0  0
  187.7150  178.2130  143.6380 O   0  0  0  0  0  0  0  0  0  0  0  0
  187.4270  177.4110  144.7620 C   0  0  2  0  0  3  0  0  0  0  0  0
  189.3200  178.0820  141.9450 N   0  0  0  0  0  1  0  0  0  0  0  0
  192.1070  175.8490  144.0830 O   0  0  0  0  0  0  0  0  0  0  0  0
  191.2420  176.9630  144.6200 S   0  0  0  0  0  0  0  0  0  0  0  0
  191.8070  178.2840  144.1610 O   0  0  0  0  0  0  0  0  0  0  0  0
  192.0540  175.7130  146.8840 C   0  0  0  0  0  1  0  0  0  0  0  0
  191.2440  176.9070  146.4060 C   0  0  0  0  0  2  0  0  0  0  0  0
  180.8540  177.5500  139.1320 C   0  0  0  0  0  2  0  0  0  0  0  0
  180.4420  176.1090  139.4220 C   0  0  0  0  0  2  0  0  0  0  0  0
  182.0800  175.8840  137.8730 O   0  0  0  0  0  0  0  0  0  0  0  0
  181.4430  173.8200  136.9080 C   0  0  0  0  0  2  0  0  0  0  0  0
  182.4130  174.9680  136.8570 C   0  0  2  0  0  3  0  0  0  0  0  0
  180.6200  174.1730  138.1010 C   0  0  0  0  0  2  0  0  0  0  0  0
  181.3850  175.1810  138.8110 N   0  0  0  0  0  0  0  0  0  0  0  0
  186.2140  174.9190  137.1070 C   0  0  0  0  0  0  0  0  0  0  0  0
  186.4570  173.5470  137.2460 C   0  0  0  0  0  3  0  0  0  0  0  0
  184.9030  175.3860  136.9860 C   0  0  0  0  0  3  0  0  0  0  0  0
  185.3890  172.6460  137.2670 C   0  0  0  0  0  3  0  0  0  0  0  0
  184.0750  173.1160  137.1460 C   0  0  0  0  0  3  0  0  0  0  0  0
  183.8280  174.4860  137.0050 C   0  0  0  0  0  0  0  0  0  0  0  0
  188.5240  178.1660  136.6690 C   0  0  1  0  0  3  0  0  0  0  0  0
  187.8720  177.1280  137.6070 C   0  0  2  0  0  0  0  0  0  0  0  0
  187.0760  178.0700  136.6780 C   0  0  0  0  0  2  0  0  0  0  0  0
  188.6350  176.1290  137.2240 O   0  0  0  0  0  0  0  0  0  0  0  0
  188.9280  179.2710  137.4250 O   0  0  0  0  0  1  0  0  0  0  0  0
  187.2940  175.8460  137.1070 N   0  0  0  0  0  0  0  0  0  0  0  0
  179.9840  179.7610  139.7150 N   0  0  0  0  0  2  0  0  0  0  0  0
  180.2740  179.7300  138.2890 C   0  0  0  0  0  2  0  0  0  0  0  0
  180.9560  180.9950  137.8960 C   0  0  0  0  0  0  0  0  0  0  0  0
  180.5040  181.7260  136.7600 N   0  0  0  0  0  1  0  0  0  0  0  0
  181.9580  181.3940  138.5430 O   0  0  0  0  0  0  0  0  0  0  0  0
  1 24  1  6  0  0  0
  1  6  1  0  0  0  0
  2  7  1  0  0  0  0
  2  8  1  0  0  0  0
  3  6  2  0  0  0  0
  3  5  1  0  0  0  0
  4  7  2  0  0  0  0
  5  2  2  0  0  0  0
  6  4  1  0  0  0  0
  8  9  2  0  0  0  0
  9 10  1  0  0  0  0
 10 11  2  0  0  0  0
 12 10  1  0  0  0  0
 13 20  1  1  0  0  0
 13 14  1  0  0  0  0
 15 18  1  6  0  0  0
 15 16  1  0  0  0  0
 15 13  1  0  0  0  0
 16 17  1  0  0  0  0
 17 14  1  0  0  0  0
 17 12  1  1  0  0  0
 19 20  2  0  0  0  0
 20 23  1  0  0  0  0
 21 20  2  0  0  0  0
 23 22  1  0  0  0  0
 24 25  1  0  0  0  0
 26 30  1  0  0  0  0
 27 29  1  0  0  0  0
 28 27  1  0  0  0  0
 28 36  1  1  0  0  0
 28 26  1  0  0  0  0
 29 30  1  0  0  0  0
 30 25  1  0  0  0  0
 31 42  1  0  0  0  0
 31 32  1  0  0  0  0
 32 34  2  0  0  0  0
 33 36  1  0  0  0  0
 33 31  2  0  0  0  0
 35 34  1  0  0  0  0
 36 35  2  0  0  0  0
 37 39  1  0  0  0  0
 37 41  1  1  0  0  0
 37 38  1  0  0  0  0
 38 39  1  1  0  0  0
 40 38  1  0  0  0  0
 42 40  1  0  0  0  0
 42 38  1  0  0  0  0
 43  1  1  0  0  0  0
 44 43  1  0  0  0  0
 45 44  1  0  0  0  0
 45 47  2  0  0  0  0
 46 45  1  0  0  0  0
M  END
>  <MODEL>
6

>  <REMARK>
 VINA RESULT:      -7.4      3.939      9.304
  Name = 
  14 active torsions:
  status: ('A' for Active; 'I' for Inactive)
    1  A    between atoms: C_1  and  C_15
    2  A    between atoms: C_1  and  C_45
    3  A    between atoms: C_4  and  C_5
    4  A    between atoms: C_6  and  S_17
    5  A    between atoms: C_7  and  C_13
    6  A    between atoms: C_7  and  N_30
    7  A    between atoms: C_14  and  N_36
    8  A    between atoms: C_15  and  N_32
    9  A    between atoms: S_17  and  C_42
   10  A    between atoms: C_20  and  C_45
   11  A    between atoms: C_22  and  C_44
   12  A    between atoms: C_27  and  N_41
   13  A    between atoms: N_30  and  C_45
   14  A    between atoms: N_35  and  C_38
                            x       y       z     vdW  Elec       q    Type
                         _______ _______ _______ _____ _____    ______ ____

>  <TORSDO>
F 14

$$$$
=
 OpenBabel10232411513D

 47 52  0  0  1  0  0  0  0  0999 V2000
  188.2120  177.6600  144.6460 C   0  0  2  0  0  3  0  0  0  0  0  0
  184.1140  178.7840  143.9400 C   0  0  0  0  0  0  0  0  0  0  0  0
  186.2670  178.0160  143.1130 C   0  0  0  0  0  3  0  0  0  0  0  0
  185.9670  178.4820  145.4730 C   0  0  0  0  0  3  0  0  0  0  0  0
  184.9370  178.3730  142.8760 C   0  0  0  0  0  3  0  0  0  0  0  0
  186.7870  178.0640  144.4120 C   0  0  0  0  0  0  0  0  0  0  0  0
  184.6350  178.8330  145.2360 C   0  0  0  0  0  3  0  0  0  0  0  0
  182.7020  179.1170  143.7270 C   0  0  0  0  0  3  0  0  0  0  0  0
  182.1770  179.1310  142.5430 N   0  0  0  0  0  0  0  0  0  0  0  0
  180.7920  179.4210  142.3230 C   0  0  0  0  0  0  0  0  0  0  0  0
  180.0240  179.6520  143.2960 O   0  0  0  0  0  0  0  0  0  0  0  0
  180.2630  179.4490  140.9980 N   0  0  0  0  0  2  0  0  0  0  0  0
  181.4810  180.6900  138.0130 C   0  0  1  0  0  3  0  0  0  0  0  0
  181.8250  180.4720  139.4540 C   0  0  0  0  0  2  0  0  0  0  0  0
  180.2480  179.8480  137.8110 C   0  0  2  0  0  3  0  0  0  0  0  0
  180.2590  178.7980  138.7430 O   0  0  0  0  0  0  0  0  0  0  0  0
  181.0770  179.2060  139.8170 C   0  0  2  0  0  3  0  0  0  0  0  0
  180.2390  179.3000  136.4620 N   0  0  0  0  0  1  0  0  0  0  0  0
  180.0020  182.8740  138.5930 O   0  0  0  0  0  0  0  0  0  0  0  0
  181.1370  182.4200  137.7090 S   0  0  0  0  0  0  0  0  0  0  0  0
  182.3670  183.2280  138.0420 O   0  0  0  0  0  0  0  0  0  0  0  0
  180.8410  184.1610  135.6530 C   0  0  0  0  0  1  0  0  0  0  0  0
  180.7000  182.6870  135.9970 C   0  0  0  0  0  2  0  0  0  0  0  0
  188.8090  176.9740  143.4160 C   0  0  0  0  0  2  0  0  0  0  0  0
  190.0840  177.6850  142.9710 C   0  0  0  0  0  2  0  0  0  0  0  0
  189.2750  176.9280  140.9950 O   0  0  0  0  0  0  0  0  0  0  0  0
  191.2320  177.0750  139.6740 C   0  0  0  0  0  2  0  0  0  0  0  0
  189.7870  176.6590  139.7110 C   0  0  2  0  0  3  0  0  0  0  0  0
  191.4120  177.6680  141.0310 C   0  0  0  0  0  2  0  0  0  0  0  0
  190.0680  177.8980  141.5300 N   0  0  0  0  0  0  0  0  0  0  0  0
  186.8710  177.9640  137.6370 C   0  0  0  0  0  0  0  0  0  0  0  0
  187.5470  178.6760  136.6390 C   0  0  0  0  0  3  0  0  0  0  0  0
  187.5930  177.3120  138.6400 C   0  0  0  0  0  3  0  0  0  0  0  0
  188.9430  178.7380  136.6490 C   0  0  0  0  0  3  0  0  0  0  0  0
  189.6650  178.0850  137.6550 C   0  0  0  0  0  3  0  0  0  0  0  0
  188.9940  177.3700  138.6520 C   0  0  0  0  0  0  0  0  0  0  0  0
  183.0340  176.9120  137.1410 C   0  0  1  0  0  3  0  0  0  0  0  0
  184.2020  177.2270  138.1000 C   0  0  2  0  0  0  0  0  0  0  0  0
  184.2250  176.0870  137.0600 C   0  0  0  0  0  2  0  0  0  0  0  0
  184.2260  178.5150  137.8350 O   0  0  0  0  0  0  0  0  0  0  0  0
  182.0370  176.2330  137.8490 O   0  0  0  0  0  1  0  0  0  0  0  0
  185.4480  177.9130  137.6480 N   0  0  0  0  0  0  0  0  0  0  0  0
  188.2900  176.7750  145.7970 N   0  0  0  0  0  2  0  0  0  0  0  0
  189.1410  177.4290  146.7810 C   0  0  0  0  0  2  0  0  0  0  0  0
  188.4240  177.5000  148.0850 C   0  0  0  0  0  0  0  0  0  0  0  0
  188.2260  178.7580  148.7230 N   0  0  0  0  0  1  0  0  0  0  0  0
  188.0330  176.4430  148.6430 O   0  0  0  0  0  0  0  0  0  0  0  0
  1 24  1  6  0  0  0
  1 43  1  0  0  0  0
  2  7  1  0  0  0  0
  3  6  2  0  0  0  0
  5  3  1  0  0  0  0
  5  2  2  0  0  0  0
  6  1  1  0  0  0  0
  6  4  1  0  0  0  0
  7  4  2  0  0  0  0
  8  2  1  0  0  0  0
  9  8  2  0  0  0  0
 10  9  1  0  0  0  0
 10 11  2  0  0  0  0
 12 10  1  0  0  0  0
 13 20  1  1  0  0  0
 13 14  1  0  0  0  0
 14 17  1  0  0  0  0
 15 18  1  6  0  0  0
 15 13  1  0  0  0  0
 15 16  1  0  0  0  0
 16 17  1  0  0  0  0
 17 12  1  1  0  0  0
 20 21  2  0  0  0  0
 20 19  2  0  0  0  0
 22 23  1  0  0  0  0
 23 20  1  0  0  0  0
 25 24  1  0  0  0  0
 26 30  1  0  0  0  0
 27 28  1  0  0  0  0
 27 29  1  0  0  0  0
 28 36  1  6  0  0  0
 28 26  1  0  0  0  0
 29 30  1  0  0  0  0
 30 25  1  0  0  0  0
 31 42  1  0  0  0  0
 31 33  1  0  0  0  0
 32 34  1  0  0  0  0
 32 31  2  0  0  0  0
 33 36  2  0  0  0  0
 34 35  2  0  0  0  0
 35 36  1  0  0  0  0
 37 41  1  1  0  0  0
 37 38  1  0  0  0  0
 38 39  1  1  0  0  0
 39 37  1  0  0  0  0
 40 38  1  0  0  0  0
 42 40  1  0  0  0  0
 42 38  1  0  0  0  0
 43 44  1  0  0  0  0
 44 45  1  0  0  0  0
 45 47  2  0  0  0  0
 45 46  1  0  0  0  0
M  END
>  <MODEL>
7

>  <REMARK>
 VINA RESULT:      -7.4      4.315      9.177
  Name = 
  14 active torsions:
  status: ('A' for Active; 'I' for Inactive)
    1  A    between atoms: C_1  and  C_15
    2  A    between atoms: C_1  and  C_45
    3  A    between atoms: C_4  and  C_5
    4  A    between atoms: C_6  and  S_17
    5  A    between atoms: C_7  and  C_13
    6  A    between atoms: C_7  and  N_30
    7  A    between atoms: C_14  and  N_36
    8  A    between atoms: C_15  and  N_32
    9  A    between atoms: S_17  and  C_42
   10  A    between atoms: C_20  and  C_45
   11  A    between atoms: C_22  and  C_44
   12  A    between atoms: C_27  and  N_41
   13  A    between atoms: N_30  and  C_45
   14  A    between atoms: N_35  and  C_38
                            x       y       z     vdW  Elec       q    Type
                         _______ _______ _______ _____ _____    ______ ____

>  <TORSDO>
F 14

$$$$
=
 OpenBabel10232411513D

 47 52  0  0  1  0  0  0  0  0999 V2000
  189.0680  176.9670  146.0460 C   0  0  2  0  0  3  0  0  0  0  0  0
  189.8540  177.6190  141.8620 C   0  0  0  0  0  0  0  0  0  0  0  0
  188.8570  176.3010  143.6450 C   0  0  0  0  0  3  0  0  0  0  0  0
  190.1150  178.3050  144.1720 C   0  0  0  0  0  3  0  0  0  0  0  0
  189.1020  176.5080  142.2840 C   0  0  0  0  0  3  0  0  0  0  0  0
  189.3580  177.2000  144.5940 C   0  0  0  0  0  0  0  0  0  0  0  0
  190.3550  178.5140  142.8110 C   0  0  0  0  0  3  0  0  0  0  0  0
  190.0850  177.8870  140.4380 C   0  0  0  0  0  3  0  0  0  0  0  0
  189.1030  178.0660  139.6130 N   0  0  0  0  0  0  0  0  0  0  0  0
  189.3140  178.3630  138.2280 C   0  0  0  0  0  0  0  0  0  0  0  0
  188.9770  179.4820  137.7540 O   0  0  0  0  0  0  0  0  0  0  0  0
  189.9080  177.3940  137.3640 N   0  0  0  0  0  2  0  0  0  0  0  0
  192.3750  174.9770  137.3320 C   0  0  1  0  0  3  0  0  0  0  0  0
  191.8210  176.1190  138.1270 C   0  0  0  0  0  2  0  0  0  0  0  0
  191.2970  174.6930  136.3180 C   0  0  2  0  0  3  0  0  0  0  0  0
  190.0630  175.1110  136.8410 O   0  0  0  0  0  0  0  0  0  0  0  0
  190.3370  176.0830  137.8260 C   0  0  2  0  0  3  0  0  0  0  0  0
  191.2470  173.2660  136.0350 N   0  0  0  0  0  1  0  0  0  0  0  0
  193.7770  175.2650  135.0420 O   0  0  0  0  0  0  0  0  0  0  0  0
  193.9030  175.4570  136.5330 S   0  0  0  0  0  0  0  0  0  0  0  0
  194.1650  176.9150  136.8160 O   0  0  0  0  0  0  0  0  0  0  0  0
  196.4390  174.5700  136.1760 C   0  0  0  0  0  1  0  0  0  0  0  0
  195.2700  174.4810  137.1430 C   0  0  0  0  0  2  0  0  0  0  0  0
  187.9020  177.8310  146.5310 C   0  0  0  0  0  2  0  0  0  0  0  0
  186.5960  177.0400  146.4900 C   0  0  0  0  0  2  0  0  0  0  0  0
  185.9100  177.8700  144.4970 O   0  0  0  0  0  0  0  0  0  0  0  0
  185.2380  180.0350  145.1710 C   0  0  0  0  0  2  0  0  0  0  0  0
  185.4130  179.0940  144.0110 C   0  0  2  0  0  3  0  0  0  0  0  0
  185.6060  179.1650  146.3250 C   0  0  0  0  0  2  0  0  0  0  0  0
  185.5600  177.8080  145.8130 N   0  0  0  0  0  0  0  0  0  0  0  0
  182.8960  178.3400  141.2540 C   0  0  0  0  0  0  0  0  0  0  0  0
  181.6870  178.5820  141.9180 C   0  0  0  0  0  3  0  0  0  0  0  0
  184.1080  178.4990  141.9300 C   0  0  0  0  0  3  0  0  0  0  0  0
  181.6940  178.9790  143.2580 C   0  0  0  0  0  3  0  0  0  0  0  0
  182.9090  179.1380  143.9350 C   0  0  0  0  0  3  0  0  0  0  0  0
  184.1190  178.8990  143.2730 C   0  0  0  0  0  0  0  0  0  0  0  0
  182.8380  176.1760  137.8780 C   0  0  1  0  0  3  0  0  0  0  0  0
  182.1780  177.2530  138.7670 C   0  0  2  0  0  0  0  0  0  0  0  0
  182.4210  175.7950  139.2150 C   0  0  0  0  0  2  0  0  0  0  0  0
  183.1060  178.1610  138.5580 O   0  0  0  0  0  0  0  0  0  0  0  0
  181.9020  175.7230  136.9440 O   0  0  0  0  0  1  0  0  0  0  0  0
  182.8980  177.9140  139.8950 N   0  0  0  0  0  0  0  0  0  0  0  0
  190.2570  177.2480  146.8360 N   0  0  0  0  0  2  0  0  0  0  0  0
  190.9930  175.9980  146.9560 C   0  0  0  0  0  2  0  0  0  0  0  0
  192.1710  176.2030  147.8450 C   0  0  0  0  0  0  0  0  0  0  0  0
  192.2130  177.3210  148.7290 N   0  0  0  0  0  1  0  0  0  0  0  0
  193.1470  175.4130  147.7850 O   0  0  0  0  0  0  0  0  0  0  0  0
  1 24  1  1  0  0  0
  1 43  1  0  0  0  0
  2  5  2  0  0  0  0
  2  7  1  0  0  0  0
  3  6  2  0  0  0  0
  4  6  1  0  0  0  0
  5  3  1  0  0  0  0
  6  1  1  0  0  0  0
  7  4  2  0  0  0  0
  8  2  1  0  0  0  0
  9  8  2  0  0  0  0
 10  9  1  0  0  0  0
 11 10  2  0  0  0  0
 12 10  1  0  0  0  0
 13 20  1  6  0  0  0
 13 14  1  0  0  0  0
 15 18  1  1  0  0  0
 15 16  1  0  0  0  0
 15 13  1  0  0  0  0
 16 17  1  0  0  0  0
 17 12  1  6  0  0  0
 17 14  1  0  0  0  0
 19 20  2  0  0  0  0
 20 21  2  0  0  0  0
 20 23  1  0  0  0  0
 22 23  1  0  0  0  0
 25 24  1  0  0  0  0
 26 30  1  0  0  0  0
 27 29  1  0  0  0  0
 28 36  1  1  0  0  0
 28 26  1  0  0  0  0
 28 27  1  0  0  0  0
 30 29  1  0  0  0  0
 30 25  1  0  0  0  0
 31 32  2  0  0  0  0
 31 33  1  0  0  0  0
 32 34  1  0  0  0  0
 33 36  2  0  0  0  0
 34 35  2  0  0  0  0
 36 35  1  0  0  0  0
 37 41  1  6  0  0  0
 37 38  1  0  0  0  0
 37 39  1  0  0  0  0
 38 39  1  6  0  0  0
 38 42  1  0  0  0  0
 40 38  1  0  0  0  0
 40 42  1  0  0  0  0
 42 31  1  0  0  0  0
 43 44  1  0  0  0  0
 44 45  1  0  0  0  0
 45 46  1  0  0  0  0
 47 45  2  0  0  0  0
M  END
>  <MODEL>
8

>  <REMARK>
 VINA RESULT:      -7.4      1.685      1.932
  Name = 
  14 active torsions:
  status: ('A' for Active; 'I' for Inactive)
    1  A    between atoms: C_1  and  C_15
    2  A    between atoms: C_1  and  C_45
    3  A    between atoms: C_4  and  C_5
    4  A    between atoms: C_6  and  S_17
    5  A    between atoms: C_7  and  C_13
    6  A    between atoms: C_7  and  N_30
    7  A    between atoms: C_14  and  N_36
    8  A    between atoms: C_15  and  N_32
    9  A    between atoms: S_17  and  C_42
   10  A    between atoms: C_20  and  C_45
   11  A    between atoms: C_22  and  C_44
   12  A    between atoms: C_27  and  N_41
   13  A    between atoms: N_30  and  C_45
   14  A    between atoms: N_35  and  C_38
                            x       y       z     vdW  Elec       q    Type
                         _______ _______ _______ _____ _____    ______ ____

>  <TORSDO>
F 14

$$$$
=
 OpenBabel10232411513D

 47 52  0  0  1  0  0  0  0  0999 V2000
  188.6880  177.4550  144.5620 C   0  0  2  0  0  3  0  0  0  0  0  0
  184.5650  178.5640  143.9980 C   0  0  0  0  0  0  0  0  0  0  0  0
  186.6630  177.7110  143.1160 C   0  0  0  0  0  3  0  0  0  0  0  0
  186.4990  178.3630  145.4460 C   0  0  0  0  0  3  0  0  0  0  0  0
  185.3240  178.0630  142.9260 C   0  0  0  0  0  3  0  0  0  0  0  0
  187.2550  177.8540  144.3770 C   0  0  0  0  0  0  0  0  0  0  0  0
  185.1570  178.7090  145.2560 C   0  0  0  0  0  3  0  0  0  0  0  0
  183.1440  178.8950  143.8390 C   0  0  0  0  0  3  0  0  0  0  0  0
  182.5420  178.7750  142.6990 N   0  0  0  0  0  0  0  0  0  0  0  0
  181.1490  179.0610  142.5360 C   0  0  0  0  0  0  0  0  0  0  0  0
  180.4190  179.2860  143.5400 O   0  0  0  0  0  0  0  0  0  0  0  0
  180.5670  179.0930  141.2330 N   0  0  0  0  0  2  0  0  0  0  0  0
  181.6010  180.3210  138.1750 C   0  0  1  0  0  3  0  0  0  0  0  0
  182.0180  180.1410  139.6020 C   0  0  0  0  0  2  0  0  0  0  0  0
  180.3900  179.4340  138.0440 C   0  0  2  0  0  3  0  0  0  0  0  0
  180.4810  178.4020  138.9920 O   0  0  0  0  0  0  0  0  0  0  0  0
  181.3330  178.8570  140.0200 C   0  0  2  0  0  3  0  0  0  0  0  0
  180.3380  178.8620  136.7060 N   0  0  0  0  0  1  0  0  0  0  0  0
  179.9920  182.4270  138.6980 O   0  0  0  0  0  0  0  0  0  0  0  0
  181.1830  182.0330  137.8590 S   0  0  0  0  0  0  0  0  0  0  0  0
  182.3570  182.9010  138.2410 O   0  0  0  0  0  0  0  0  0  0  0  0
  180.7190  183.7710  135.8320 C   0  0  0  0  0  1  0  0  0  0  0  0
  180.8020  182.2830  136.1320 C   0  0  0  0  0  2  0  0  0  0  0  0
  189.1280  176.4410  143.5050 C   0  0  0  0  0  2  0  0  0  0  0  0
  190.2390  177.0230  142.6330 C   0  0  0  0  0  2  0  0  0  0  0  0
  191.1900  176.9320  140.5790 O   0  0  0  0  0  0  0  0  0  0  0  0
  189.4040  177.7630  139.2700 C   0  0  0  0  0  2  0  0  0  0  0  0
  190.8300  177.2830  139.2640 C   0  0  2  0  0  3  0  0  0  0  0  0
  189.0190  177.5520  140.6950 C   0  0  0  0  0  2  0  0  0  0  0  0
  190.0280  176.6610  141.2380 N   0  0  0  0  0  0  0  0  0  0  0  0
  192.3900  174.4040  137.3180 C   0  0  0  0  0  0  0  0  0  0  0  0
  191.3040  173.9840  136.5400 C   0  0  0  0  0  3  0  0  0  0  0  0
  192.2400  175.4700  138.2080 C   0  0  0  0  0  3  0  0  0  0  0  0
  190.0700  174.6300  136.6570 C   0  0  0  0  0  3  0  0  0  0  0  0
  189.9210  175.6980  137.5490 C   0  0  0  0  0  3  0  0  0  0  0  0
  191.0040  176.1220  138.3270 C   0  0  0  0  0  0  0  0  0  0  0  0
  196.2650  173.5090  136.8040 C   0  0  1  0  0  3  0  0  0  0  0  0
  195.0350  173.5620  137.7370 C   0  0  2  0  0  0  0  0  0  0  0  0
  195.6500  174.8000  137.0490 C   0  0  0  0  0  2  0  0  0  0  0  0
  194.3910  172.5860  137.1360 O   0  0  0  0  0  0  0  0  0  0  0  0
  197.4190  173.3800  137.5820 O   0  0  0  0  0  1  0  0  0  0  0  0
  193.6450  173.7380  137.2230 N   0  0  0  0  0  0  0  0  0  0  0  0
  188.8760  176.9000  145.8940 N   0  0  0  0  0  2  0  0  0  0  0  0
  189.8640  177.7310  146.5660 C   0  0  0  0  0  2  0  0  0  0  0  0
  191.1000  176.9330  146.8020 C   0  0  0  0  0  0  0  0  0  0  0  0
  191.6500  176.1410  145.7530 N   0  0  0  0  0  1  0  0  0  0  0  0
  191.6330  176.9250  147.9410 O   0  0  0  0  0  0  0  0  0  0  0  0
  1 24  1  6  0  0  0
  1 43  1  0  0  0  0
  2  7  1  0  0  0  0
  3  6  2  0  0  0  0
  5  3  1  0  0  0  0
  5  2  2  0  0  0  0
  6  1  1  0  0  0  0
  6  4  1  0  0  0  0
  7  4  2  0  0  0  0
  8  2  1  0  0  0  0
  9  8  2  0  0  0  0
 10  9  1  0  0  0  0
 10 11  2  0  0  0  0
 12 10  1  0  0  0  0
 13 20  1  1  0  0  0
 13 14  1  0  0  0  0
 14 17  1  0  0  0  0
 15 18  1  6  0  0  0
 15 13  1  0  0  0  0
 15 16  1  0  0  0  0
 16 17  1  0  0  0  0
 17 12  1  1  0  0  0
 20 21  2  0  0  0  0
 20 19  2  0  0  0  0
 22 23  1  0  0  0  0
 23 20  1  0  0  0  0
 25 24  1  0  0  0  0
 26 30  1  0  0  0  0
 27 29  1  0  0  0  0
 28 36  1  6  0  0  0
 28 27  1  0  0  0  0
 28 26  1  0  0  0  0
 29 30  1  0  0  0  0
 30 25  1  0  0  0  0
 31 33  1  0  0  0  0
 32 34  1  0  0  0  0
 32 31  2  0  0  0  0
 33 36  2  0  0  0  0
 34 35  2  0  0  0  0
 35 36  1  0  0  0  0
 37 39  1  0  0  0  0
 37 41  1  1  0  0  0
 37 38  1  0  0  0  0
 38 39  1  1  0  0  0
 40 42  1  0  0  0  0
 40 38  1  0  0  0  0
 42 31  1  0  0  0  0
 42 38  1  0  0  0  0
 43 44  1  0  0  0  0
 44 45  1  0  0  0  0
 45 47  2  0  0  0  0
 46 45  1  0  0  0  0
M  END
>  <MODEL>
9

>  <REMARK>
 VINA RESULT:      -7.3      4.000      9.964
  Name = 
  14 active torsions:
  status: ('A' for Active; 'I' for Inactive)
    1  A    between atoms: C_1  and  C_15
    2  A    between atoms: C_1  and  C_45
    3  A    between atoms: C_4  and  C_5
    4  A    between atoms: C_6  and  S_17
    5  A    between atoms: C_7  and  C_13
    6  A    between atoms: C_7  and  N_30
    7  A    between atoms: C_14  and  N_36
    8  A    between atoms: C_15  and  N_32
    9  A    between atoms: S_17  and  C_42
   10  A    between atoms: C_20  and  C_45
   11  A    between atoms: C_22  and  C_44
   12  A    between atoms: C_27  and  N_41
   13  A    between atoms: N_30  and  C_45
   14  A    between atoms: N_35  and  C_38
                            x       y       z     vdW  Elec       q    Type
                         _______ _______ _______ _____ _____    ______ ____

>  <TORSDO>
F 14

$$$$
