=
 OpenBabel10232407523D

 61 66  0  0  1  0  0  0  0  0999 V2000
  189.4390  176.4860  137.3550 C   0  0  1  0  0  3  0  0  0  0  0  0
  188.3880  175.9060  135.2550 O   0  0  0  0  0  1  0  0  0  0  0  0
  187.1420  178.1240  135.7420 F   0  0  0  0  0  0  0  0  0  0  0  0
  186.6670  178.3150  142.4120 C   0  0  0  0  0  0  0  0  0  0  0  0
  184.0540  177.2420  138.2770 C   0  0  0  0  0  2  0  0  0  0  0  0
  184.7960  177.6650  137.1710 O   0  0  0  0  0  0  0  0  0  0  0  0
  187.1230  177.2430  136.8180 C   0  0  2  0  0  0  0  0  0  0  0  0
  183.9990  178.5220  140.3150 C   0  0  0  0  0  0  0  0  0  0  0  0
  188.6770  178.5870  137.9280 C   0  0  1  0  0  3  0  0  0  0  0  0
  187.4720  177.7320  141.5630 C   0  0  0  0  0  0  0  0  0  0  0  0
  185.7210  176.6450  136.9350 C   0  0  2  0  0  3  0  0  0  0  0  0
  188.2760  177.1460  140.7190 C   0  0  0  0  0  3  0  0  0  0  0  0
  189.6790  177.8650  137.2210 O   0  0  0  0  0  0  0  0  0  0  0  0
  185.6760  179.3020  141.8810 C   0  0  0  0  0  2  0  0  0  0  0  0
  187.4100  177.9430  138.0120 O   0  0  0  0  0  0  0  0  0  0  0  0
  189.5040  177.8350  140.2190 C   0  0  0  0  0  2  0  0  0  0  0  0
  184.3880  178.6260  141.5550 C   0  0  0  0  0  3  0  0  0  0  0  0
  188.1500  176.1120  136.6200 C   0  0  2  0  0  3  0  0  0  0  0  0
  183.6050  178.4250  139.0770 C   0  0  0  0  0  0  0  0  0  0  0  0
  185.3750  175.9730  135.7600 O   0  0  0  0  0  1  0  0  0  0  0  0
  189.1670  179.0190  139.3120 C   0  0  0  0  0  2  0  0  0  0  0  0
  190.5760  175.7280  136.8500 N   0  0  0  0  0  2  0  0  0  0  0  0
  191.9810  176.2670  138.6360 O   0  0  0  0  0  0  0  0  0  0  0  0
  191.8470  175.7140  137.5090 C   0  0  0  0  0  0  0  0  0  0  0  0
  196.2600  173.1620  135.1070 F   0  0  0  0  0  0  0  0  0  0  0  0
  193.5490  173.8890  137.4550 C   0  0  0  0  0  3  0  0  0  0  0  0
  194.6480  173.2590  136.8620 C   0  0  0  0  0  3  0  0  0  0  0  0
  193.5590  175.5550  135.6980 C   0  0  0  0  0  3  0  0  0  0  0  0
  192.9980  175.0430  136.8790 C   0  0  0  0  0  0  0  0  0  0  0  0
  194.6560  174.9230  135.1040 C   0  0  0  0  0  3  0  0  0  0  0  0
  195.2010  173.7760  135.6870 C   0  0  0  0  0  0  0  0  0  0  0  0
  185.5450  177.9590  144.4610 O   0  0  0  0  0  0  0  0  0  0  0  0
  186.6520  177.9580  143.8550 C   0  0  0  0  0  0  0  0  0  0  0  0
  191.8450  176.4620  146.2440 C   0  0  0  0  0  3  0  0  0  0  0  0
  189.0530  177.3330  144.0200 N   0  0  0  0  0  0  0  0  0  0  0  0
  189.8580  177.0580  145.0550 C   0  0  0  0  0  0  0  0  0  0  0  0
  189.1710  177.1600  146.2240 C   0  0  0  0  0  0  0  0  0  0  0  0
  187.8670  177.6060  144.6270 C   0  0  0  0  0  0  0  0  0  0  0  0
  191.2050  176.7080  145.0150 C   0  0  0  0  0  3  0  0  0  0  0  0
  191.1320  176.5720  147.4590 C   0  0  0  0  0  3  0  0  0  0  0  0
  189.7700  176.9260  147.4590 C   0  0  0  0  0  3  0  0  0  0  0  0
  187.8990  177.5060  145.9840 N   0  0  0  0  0  2  0  0  0  0  0  0
  182.6120  179.4320  138.5660 C   0  0  0  0  0  2  0  0  0  0  0  0
  181.1700  178.9410  138.6240 C   0  0  2  0  0  3  0  0  0  0  0  0
  180.4610  177.8670  140.3490 C   0  0  0  0  0  2  0  0  0  0  0  0
  180.5410  179.3270  139.9510 C   0  0  0  0  0  2  0  0  0  0  0  0
  181.1140  177.4790  139.0360 C   0  0  1  0  0  3  0  0  0  0  0  0
  180.1540  176.6430  138.1760 C   0  0  0  0  0  2  0  0  0  0  0  0
  181.0020  176.6540  136.0360 O   0  0  0  0  0  1  0  0  0  0  0  0
  180.8540  175.8790  137.1420 N   0  0  0  0  0  0  0  0  0  0  0  0
  180.1580  174.7290  136.8500 O   0  0  0  0  0  0  0  0  0  0  0  0
  180.7030  174.1090  135.7000 C   0  0  0  0  0  2  0  0  0  0  0  0
  181.5110  171.9390  134.9130 C   0  0  0  0  0  1  0  0  0  0  0  0
  181.6660  172.9560  136.0310 C   0  0  2  0  0  0  0  0  0  0  0  0
  181.3370  172.2620  137.3640 C   0  0  0  0  0  2  0  0  0  0  0  0
  180.2460  171.4000  137.2250 O   0  0  0  0  0  1  0  0  0  0  0  0
  183.0530  173.4460  135.9930 N   0  0  0  0  0  2  0  0  0  0  0  0
  185.4440  172.0560  135.4060 O   0  0  0  0  0  0  0  0  0  0  0  0
  184.2420  172.2720  136.5780 P   0  0  0  0  0  0  0  0  0  0  0  0
  183.5930  170.9390  136.8770 O   0  0  0  0  0  1  0  0  0  0  0  0
  184.9540  172.8690  137.9910 O   0  0  0  0  0  1  0  0  0  0  0  0
  1 22  1  6  0  0  0
  4 33  1  0  0  0  0
  5 19  1  0  0  0  0
  6  5  1  0  0  0  0
  7  3  1  6  0  0  0
  7 11  1  0  0  0  0
  7 15  1  0  0  0  0
  8 17  2  0  0  0  0
  9 15  1  0  0  0  0
  9 21  1  1  0  0  0
 10  4  2  0  0  0  0
 11 20  1  6  0  0  0
 11  6  1  0  0  0  0
 12 10  2  0  0  0  0
 13  1  1  0  0  0  0
 13  9  1  0  0  0  0
 14  4  1  0  0  0  0
 16 12  1  0  0  0  0
 17 14  1  0  0  0  0
 18  2  1  6  0  0  0
 18  7  1  0  0  0  0
 18  1  1  0  0  0  0
 19  8  2  0  0  0  0
 21 16  1  0  0  0  0
 22 24  1  0  0  0  0
 24 23  2  0  0  0  0
 25 31  1  0  0  0  0
 27 26  2  0  0  0  0
 28 29  2  0  0  0  0
 29 26  1  0  0  0  0
 29 24  1  0  0  0  0
 30 31  2  0  0  0  0
 30 28  1  0  0  0  0
 31 27  1  0  0  0  0
 33 32  2  0  0  0  0
 33 38  1  0  0  0  0
 34 40  1  0  0  0  0
 35 38  2  0  0  0  0
 35 36  1  0  0  0  0
 36 37  2  0  0  0  0
 37 41  1  0  0  0  0
 38 42  1  0  0  0  0
 39 36  1  0  0  0  0
 39 34  2  0  0  0  0
 40 41  2  0  0  0  0
 42 37  1  0  0  0  0
 43 19  1  0  0  0  0
 44 43  1  1  0  0  0
 44 47  1  0  0  0  0
 44 46  1  0  0  0  0
 46 45  1  0  0  0  0
 47 48  1  6  0  0  0
 47 45  1  0  0  0  0
 49 50  1  0  0  0  0
 50 48  1  0  0  0  0
 51 50  1  0  0  0  0
 52 54  1  0  0  0  0
 52 51  1  0  0  0  0
 54 53  1  6  0  0  0
 54 55  1  0  0  0  0
 56 55  1  0  0  0  0
 57 54  1  0  0  0  0
 57 59  1  0  0  0  0
 58 59  2  0  0  0  0
 59 60  1  0  0  0  0
 59 61  1  0  0  0  0
M  END
>  <MODEL>
1

>  <REMARK>
 VINA RESULT:      -8.3      0.000      0.000
  Name = 
  14 active torsions:
  status: ('A' for Active; 'I' for Inactive)
    1  A    between atoms: N_1  and  C_2
    2  A    between atoms: C_4  and  C_53
    3  A    between atoms: C_4  and  N_57
    4  A    between atoms: C_9  and  C_49
    5  A    between atoms: C_12  and  C_17
    6  A    between atoms: C_12  and  O_40
    7  A    between atoms: C_14  and  C_55
    8  A    between atoms: C_15  and  C_42
    9  A    between atoms: C_16  and  C_17
   10  A    between atoms: C_17  and  N_30
   11  A    between atoms: N_30  and  P_32
   12  A    between atoms: C_36  and  C_55
   13  A    between atoms: O_40  and  N_57
   14  A    between atoms: C_49  and  C_52
                            x       y       z     vdW  Elec       q    Type
                         _______ _______ _______ _____ _____    ______ ____

>  <TORSDO>
F 14

$$$$
=
 OpenBabel10232407523D

 61 66  0  0  1  0  0  0  0  0999 V2000
  188.7860  177.5490  145.6320 C   0  0  1  0  0  3  0  0  0  0  0  0
  187.2010  178.2660  147.3120 O   0  0  0  0  0  1  0  0  0  0  0  0
  185.5820  177.0190  145.7200 F   0  0  0  0  0  0  0  0  0  0  0  0
  188.1680  178.0130  139.6310 C   0  0  0  0  0  0  0  0  0  0  0  0
  184.5810  179.6280  142.7300 C   0  0  0  0  0  2  0  0  0  0  0  0
  184.5150  178.7490  143.8150 O   0  0  0  0  0  0  0  0  0  0  0  0
  186.3890  177.9400  145.0610 C   0  0  2  0  0  0  0  0  0  0  0  0
  184.9840  178.8320  140.4940 C   0  0  0  0  0  0  0  0  0  0  0  0
  187.6410  176.1810  144.1690 C   0  0  1  0  0  3  0  0  0  0  0  0
  188.6500  178.0090  140.8460 C   0  0  0  0  0  0  0  0  0  0  0  0
  185.5380  179.1510  144.6780 C   0  0  2  0  0  3  0  0  0  0  0  0
  189.1340  178.0100  142.0580 C   0  0  0  0  0  3  0  0  0  0  0  0
  188.3980  176.2230  145.3720 O   0  0  0  0  0  0  0  0  0  0  0  0
  186.7560  177.5650  139.4310 C   0  0  0  0  0  2  0  0  0  0  0  0
  186.9010  177.3630  143.8760 O   0  0  0  0  0  0  0  0  0  0  0  0
  189.6360  176.7510  142.6880 C   0  0  0  0  0  2  0  0  0  0  0  0
  185.8240  178.7270  139.5030 C   0  0  0  0  0  3  0  0  0  0  0  0
  187.5530  178.3940  145.9620 C   0  0  2  0  0  3  0  0  0  0  0  0
  184.1380  178.9340  141.4800 C   0  0  0  0  0  0  0  0  0  0  0  0
  184.9770  179.7350  145.8160 O   0  0  0  0  0  1  0  0  0  0  0  0
  188.5040  175.7650  142.9760 C   0  0  0  0  0  2  0  0  0  0  0  0
  189.7580  177.5840  146.7160 N   0  0  0  0  0  2  0  0  0  0  0  0
  191.3840  176.3680  145.5630 O   0  0  0  0  0  0  0  0  0  0  0  0
  191.0200  176.9120  146.6420 C   0  0  0  0  0  0  0  0  0  0  0  0
  194.3800  176.7380  151.1630 F   0  0  0  0  0  0  0  0  0  0  0  0
  192.7410  175.7640  148.0390 C   0  0  0  0  0  3  0  0  0  0  0  0
  193.5710  175.7190  149.1650 C   0  0  0  0  0  3  0  0  0  0  0  0
  191.9110  177.9270  148.7430 C   0  0  0  0  0  3  0  0  0  0  0  0
  191.9030  176.8680  147.8220 C   0  0  0  0  0  0  0  0  0  0  0  0
  192.7430  177.8820  149.8660 C   0  0  0  0  0  3  0  0  0  0  0  0
  193.5710  176.7780  150.0780 C   0  0  0  0  0  0  0  0  0  0  0  0
  188.9480  179.7740  138.2620 O   0  0  0  0  0  0  0  0  0  0  0  0
  188.9500  178.5300  138.4770 C   0  0  0  0  0  0  0  0  0  0  0  0
  192.5510  175.0050  135.3930 C   0  0  0  0  0  3  0  0  0  0  0  0
  190.8650  177.0350  137.9490 N   0  0  0  0  0  0  0  0  0  0  0  0
  191.2430  176.3910  136.8370 C   0  0  0  0  0  0  0  0  0  0  0  0
  190.3650  176.6380  135.8290 C   0  0  0  0  0  0  0  0  0  0  0  0
  189.7260  177.6670  137.5560 C   0  0  0  0  0  0  0  0  0  0  0  0
  192.3600  175.5770  136.6650 C   0  0  0  0  0  3  0  0  0  0  0  0
  191.6370  175.2590  134.3470 C   0  0  0  0  0  3  0  0  0  0  0  0
  190.5210  176.0900  134.5590 C   0  0  0  0  0  3  0  0  0  0  0  0
  189.3880  177.4490  136.2570 N   0  0  0  0  0  2  0  0  0  0  0  0
  182.7250  178.4720  141.2550 C   0  0  0  0  0  2  0  0  0  0  0  0
  182.1870  178.8270  139.8730 C   0  0  2  0  0  3  0  0  0  0  0  0
  180.0840  178.6550  139.4520 C   0  0  0  0  0  2  0  0  0  0  0  0
  180.9840  179.7450  140.0010 C   0  0  0  0  0  2  0  0  0  0  0  0
  181.2790  177.7270  139.3480 C   0  0  1  0  0  3  0  0  0  0  0  0
  181.5570  177.3580  137.8840 C   0  0  0  0  0  2  0  0  0  0  0  0
  182.3430  175.4190  138.8430 O   0  0  0  0  0  1  0  0  0  0  0  0
  181.7990  175.9250  137.7060 N   0  0  0  0  0  0  0  0  0  0  0  0
  182.6260  175.7150  136.6270 O   0  0  0  0  0  0  0  0  0  0  0  0
  183.5630  174.6960  136.9240 C   0  0  0  0  0  2  0  0  0  0  0  0
  182.7970  174.0060  134.7060 C   0  0  0  0  0  1  0  0  0  0  0  0
  183.4810  173.4970  135.9640 C   0  0  2  0  0  0  0  0  0  0  0  0
  182.6500  172.3310  136.5280 C   0  0  0  0  0  2  0  0  0  0  0  0
  182.4080  171.3670  135.5450 O   0  0  0  0  0  1  0  0  0  0  0  0
  184.8380  173.0740  135.5880 N   0  0  0  0  0  2  0  0  0  0  0  0
  187.5700  172.8680  136.2870 O   0  0  0  0  0  0  0  0  0  0  0  0
  186.0690  173.4560  136.8020 P   0  0  0  0  0  0  0  0  0  0  0  0
  185.7260  172.8410  138.1410 O   0  0  0  0  0  1  0  0  0  0  0  0
  186.1670  175.1360  136.9740 O   0  0  0  0  0  1  0  0  0  0  0  0
  1 18  1  0  0  0  0
  1 22  1  1  0  0  0
  4 10  2  0  0  0  0
  5  6  1  0  0  0  0
  6 11  1  0  0  0  0
  7  3  1  1  0  0  0
  7 18  1  0  0  0  0
  8 19  2  0  0  0  0
  9 21  1  6  0  0  0
  9 13  1  0  0  0  0
 10 12  2  0  0  0  0
 11  7  1  0  0  0  0
 11 20  1  1  0  0  0
 12 16  1  0  0  0  0
 13  1  1  0  0  0  0
 14 17  1  0  0  0  0
 14  4  1  0  0  0  0
 15  9  1  0  0  0  0
 15  7  1  0  0  0  0
 16 21  1  0  0  0  0
 17  8  2  0  0  0  0
 18  2  1  1  0  0  0
 19  5  1  0  0  0  0
 23 24  2  0  0  0  0
 24 22  1  0  0  0  0
 24 29  1  0  0  0  0
 26 27  1  0  0  0  0
 27 31  2  0  0  0  0
 28 30  2  0  0  0  0
 29 26  2  0  0  0  0
 29 28  1  0  0  0  0
 30 31  1  0  0  0  0
 31 25  1  0  0  0  0
 32 33  2  0  0  0  0
 33  4  1  0  0  0  0
 34 39  1  0  0  0  0
 36 35  1  0  0  0  0
 37 42  1  0  0  0  0
 37 36  1  0  0  0  0
 38 35  2  0  0  0  0
 38 33  1  0  0  0  0
 39 36  2  0  0  0  0
 40 41  1  0  0  0  0
 40 34  2  0  0  0  0
 41 37  2  0  0  0  0
 42 38  1  0  0  0  0
 43 19  1  0  0  0  0
 44 46  1  0  0  0  0
 44 43  1  1  0  0  0
 45 46  1  0  0  0  0
 47 48  1  6  0  0  0
 47 45  1  0  0  0  0
 47 44  1  0  0  0  0
 50 48  1  0  0  0  0
 50 49  1  0  0  0  0
 51 52  1  0  0  0  0
 51 50  1  0  0  0  0
 54 53  1  6  0  0  0
 54 55  1  0  0  0  0
 54 52  1  0  0  0  0
 56 55  1  0  0  0  0
 57 54  1  0  0  0  0
 57 59  1  0  0  0  0
 58 59  2  0  0  0  0
 59 61  1  0  0  0  0
 59 60  1  0  0  0  0
M  END
>  <MODEL>
2

>  <REMARK>
 VINA RESULT:      -6.3      3.214      7.669
  Name = 
  14 active torsions:
  status: ('A' for Active; 'I' for Inactive)
    1  A    between atoms: N_1  and  C_2
    2  A    between atoms: C_4  and  C_53
    3  A    between atoms: C_4  and  N_57
    4  A    between atoms: C_9  and  C_49
    5  A    between atoms: C_12  and  C_17
    6  A    between atoms: C_12  and  O_40
    7  A    between atoms: C_14  and  C_55
    8  A    between atoms: C_15  and  C_42
    9  A    between atoms: C_16  and  C_17
   10  A    between atoms: C_17  and  N_30
   11  A    between atoms: N_30  and  P_32
   12  A    between atoms: C_36  and  C_55
   13  A    between atoms: O_40  and  N_57
   14  A    between atoms: C_49  and  C_52
                            x       y       z     vdW  Elec       q    Type
                         _______ _______ _______ _____ _____    ______ ____

>  <TORSDO>
F 14

$$$$
=
 OpenBabel10232407523D

 61 66  0  0  1  0  0  0  0  0999 V2000
  189.9220  177.3680  140.6070 C   0  0  1  0  0  3  0  0  0  0  0  0
  192.0940  177.7960  141.5820 O   0  0  0  0  0  1  0  0  0  0  0  0
  192.6120  178.4270  139.1240 F   0  0  0  0  0  0  0  0  0  0  0  0
  188.7720  174.3010  135.5200 C   0  0  0  0  0  0  0  0  0  0  0  0
  193.4660  174.9510  137.1400 C   0  0  0  0  0  2  0  0  0  0  0  0
  193.5600  176.2270  137.7000 O   0  0  0  0  0  0  0  0  0  0  0  0
  192.0060  177.1810  139.2480 C   0  0  2  0  0  0  0  0  0  0  0  0
  192.1450  174.5410  135.1700 C   0  0  0  0  0  0  0  0  0  0  0  0
  190.0190  178.0810  138.4150 C   0  0  1  0  0  3  0  0  0  0  0  0
  188.7190  174.7810  136.7350 C   0  0  0  0  0  0  0  0  0  0  0  0
  193.0570  176.0990  138.9970 C   0  0  2  0  0  3  0  0  0  0  0  0
  188.6650  175.2560  137.9490 C   0  0  0  0  0  3  0  0  0  0  0  0
  189.7330  178.4690  139.7530 O   0  0  0  0  0  0  0  0  0  0  0  0
  189.8110  174.8430  134.5910 C   0  0  0  0  0  2  0  0  0  0  0  0
  190.9890  177.0470  138.2760 O   0  0  0  0  0  0  0  0  0  0  0  0
  187.9840  176.5550  138.2380 C   0  0  0  0  0  2  0  0  0  0  0  0
  191.0570  174.0280  134.6670 C   0  0  0  0  0  3  0  0  0  0  0  0
  191.4070  177.0000  140.6550 C   0  0  2  0  0  3  0  0  0  0  0  0
  193.2360  175.0540  135.6650 C   0  0  0  0  0  0  0  0  0  0  0  0
  194.1060  176.2140  139.9130 O   0  0  0  0  0  1  0  0  0  0  0  0
  188.7410  177.7430  137.6430 C   0  0  0  0  0  2  0  0  0  0  0  0
  189.4070  177.6690  141.9350 N   0  0  0  0  0  2  0  0  0  0  0  0
  189.4530  175.4540  142.6720 O   0  0  0  0  0  0  0  0  0  0  0  0
  189.1300  176.6520  142.9040 C   0  0  0  0  0  0  0  0  0  0  0  0
  186.6370  177.9770  147.7810 F   0  0  0  0  0  0  0  0  0  0  0  0
  189.2310  177.0800  145.3610 C   0  0  0  0  0  3  0  0  0  0  0  0
  188.6110  177.4030  146.5720 C   0  0  0  0  0  3  0  0  0  0  0  0
  187.1000  177.2590  144.2260 C   0  0  0  0  0  3  0  0  0  0  0  0
  188.4800  177.0030  144.1790 C   0  0  0  0  0  0  0  0  0  0  0  0
  186.4820  177.5860  145.4370 C   0  0  0  0  0  3  0  0  0  0  0  0
  187.2370  177.6560  146.6100 C   0  0  0  0  0  0  0  0  0  0  0  0
  188.4060  172.2720  134.3660 O   0  0  0  0  0  0  0  0  0  0  0  0
  187.8990  173.1820  135.0780 C   0  0  0  0  0  0  0  0  0  0  0  0
  182.3590  172.1190  136.8360 C   0  0  0  0  0  3  0  0  0  0  0  0
  185.9830  172.0980  136.2350 N   0  0  0  0  0  0  0  0  0  0  0  0
  184.6690  172.3560  136.2670 C   0  0  0  0  0  0  0  0  0  0  0  0
  184.3840  173.4390  135.4970 C   0  0  0  0  0  0  0  0  0  0  0  0
  186.4610  173.0770  135.4200 C   0  0  0  0  0  0  0  0  0  0  0  0
  183.6830  171.6570  136.9580 C   0  0  0  0  0  3  0  0  0  0  0  0
  182.0640  173.2480  136.0400 C   0  0  0  0  0  3  0  0  0  0  0  0
  183.0880  173.9270  135.3540 C   0  0  0  0  0  3  0  0  0  0  0  0
  185.5050  173.9210  134.9440 N   0  0  0  0  0  2  0  0  0  0  0  0
  194.2630  175.5970  134.7100 C   0  0  0  0  0  2  0  0  0  0  0  0
  195.5010  176.1510  135.4060 C   0  0  2  0  0  3  0  0  0  0  0  0
  196.8500  177.4510  134.3470 C   0  0  0  0  0  2  0  0  0  0  0  0
  195.5990  177.6490  135.1810 C   0  0  0  0  0  2  0  0  0  0  0  0
  196.7390  175.9510  134.5470 C   0  0  1  0  0  3  0  0  0  0  0  0
  197.9440  175.4160  135.3350 C   0  0  0  0  0  2  0  0  0  0  0  0
  198.2390  174.9350  137.5670 O   0  0  0  0  0  1  0  0  0  0  0  0
  197.5420  174.5690  136.4590 N   0  0  0  0  0  0  0  0  0  0  0  0
  197.7590  173.2450  136.1540 O   0  0  0  0  0  0  0  0  0  0  0  0
  197.6450  172.4530  137.3220 C   0  0  0  0  0  2  0  0  0  0  0  0
  198.4660  170.1530  137.4670 C   0  0  0  0  0  1  0  0  0  0  0  0
  197.2750  170.9890  137.0300 C   0  0  2  0  0  0  0  0  0  0  0  0
  197.0190  170.7210  135.5360 C   0  0  0  0  0  2  0  0  0  0  0  0
  198.2080  170.4070  134.8720 O   0  0  0  0  0  1  0  0  0  0  0  0
  196.1290  170.5950  137.8630 N   0  0  0  0  0  2  0  0  0  0  0  0
  196.6140  168.0440  138.9810 O   0  0  0  0  0  1  0  0  0  0  0  0
  195.7470  168.8680  137.7840 P   0  0  0  0  0  0  0  0  0  0  0  0
  196.0980  168.2920  136.4290 O   0  0  0  0  0  0  0  0  0  0  0  0
  194.0920  168.6580  138.0620 O   0  0  0  0  0  1  0  0  0  0  0  0
  1 18  1  0  0  0  0
  1 22  1  1  0  0  0
  4 10  2  0  0  0  0
  5  6  1  0  0  0  0
  6 11  1  0  0  0  0
  7  3  1  6  0  0  0
  7 18  1  0  0  0  0
  8 19  2  0  0  0  0
  9 21  1  1  0  0  0
  9 13  1  0  0  0  0
 10 12  2  0  0  0  0
 11  7  1  0  0  0  0
 11 20  1  1  0  0  0
 12 16  1  0  0  0  0
 13  1  1  0  0  0  0
 14 17  1  0  0  0  0
 14  4  1  0  0  0  0
 15  9  1  0  0  0  0
 15  7  1  0  0  0  0
 17  8  2  0  0  0  0
 18  2  1  1  0  0  0
 19  5  1  0  0  0  0
 21 16  1  0  0  0  0
 22 24  1  0  0  0  0
 23 24  2  0  0  0  0
 24 29  1  0  0  0  0
 26 27  1  0  0  0  0
 27 31  2  0  0  0  0
 28 30  2  0  0  0  0
 29 28  1  0  0  0  0
 29 26  2  0  0  0  0
 30 31  1  0  0  0  0
 31 25  1  0  0  0  0
 32 33  2  0  0  0  0
 33 38  1  0  0  0  0
 33  4  1  0  0  0  0
 34 39  1  0  0  0  0
 35 36  1  0  0  0  0
 36 39  2  0  0  0  0
 37 36  1  0  0  0  0
 38 35  2  0  0  0  0
 40 34  2  0  0  0  0
 41 37  2  0  0  0  0
 41 40  1  0  0  0  0
 42 38  1  0  0  0  0
 42 37  1  0  0  0  0
 43 19  1  0  0  0  0
 44 43  1  6  0  0  0
 45 47  1  0  0  0  0
 45 46  1  0  0  0  0
 46 44  1  0  0  0  0
 47 48  1  1  0  0  0
 47 44  1  0  0  0  0
 48 50  1  0  0  0  0
 50 49  1  0  0  0  0
 51 50  1  0  0  0  0
 51 52  1  0  0  0  0
 54 52  1  0  0  0  0
 54 53  1  1  0  0  0
 54 57  1  0  0  0  0
 55 54  1  0  0  0  0
 56 55  1  0  0  0  0
 59 57  1  0  0  0  0
 59 61  1  0  0  0  0
 59 58  1  0  0  0  0
 60 59  2  0  0  0  0
M  END
>  <MODEL>
3

>  <REMARK>
 VINA RESULT:      -6.2      4.357     11.794
  Name = 
  14 active torsions:
  status: ('A' for Active; 'I' for Inactive)
    1  A    between atoms: N_1  and  C_2
    2  A    between atoms: C_4  and  C_53
    3  A    between atoms: C_4  and  N_57
    4  A    between atoms: C_9  and  C_49
    5  A    between atoms: C_12  and  C_17
    6  A    between atoms: C_12  and  O_40
    7  A    between atoms: C_14  and  C_55
    8  A    between atoms: C_15  and  C_42
    9  A    between atoms: C_16  and  C_17
   10  A    between atoms: C_17  and  N_30
   11  A    between atoms: N_30  and  P_32
   12  A    between atoms: C_36  and  C_55
   13  A    between atoms: O_40  and  N_57
   14  A    between atoms: C_49  and  C_52
                            x       y       z     vdW  Elec       q    Type
                         _______ _______ _______ _____ _____    ______ ____

>  <TORSDO>
F 14

$$$$
=
 OpenBabel10232407523D

 61 66  0  0  1  0  0  0  0  0999 V2000
  188.8510  177.5810  145.5590 C   0  0  1  0  0  3  0  0  0  0  0  0
  187.2610  178.2950  147.2360 O   0  0  0  0  0  1  0  0  0  0  0  0
  185.6520  177.0160  145.6600 F   0  0  0  0  0  0  0  0  0  0  0  0
  188.2140  177.9840  139.5560 C   0  0  0  0  0  0  0  0  0  0  0  0
  184.6160  179.5870  142.6490 C   0  0  0  0  0  2  0  0  0  0  0  0
  184.5620  178.7170  143.7410 O   0  0  0  0  0  0  0  0  0  0  0  0
  186.4480  177.9400  144.9900 C   0  0  2  0  0  0  0  0  0  0  0  0
  185.0220  178.7760  140.4190 C   0  0  0  0  0  0  0  0  0  0  0  0
  187.7170  176.1870  144.1110 C   0  0  1  0  0  3  0  0  0  0  0  0
  188.6990  177.9970  140.7700 C   0  0  0  0  0  0  0  0  0  0  0  0
  185.5820  179.1380  144.5980 C   0  0  2  0  0  3  0  0  0  0  0  0
  189.1850  178.0140  141.9800 C   0  0  0  0  0  3  0  0  0  0  0  0
  188.4770  176.2480  145.3120 O   0  0  0  0  0  0  0  0  0  0  0  0
  186.8050  177.5190  139.3630 C   0  0  0  0  0  2  0  0  0  0  0  0
  186.9630  177.3580  143.8100 O   0  0  0  0  0  0  0  0  0  0  0  0
  189.7030  176.7660  142.6200 C   0  0  0  0  0  2  0  0  0  0  0  0
  185.8610  178.6710  139.4270 C   0  0  0  0  0  3  0  0  0  0  0  0
  187.6090  178.4150  145.8840 C   0  0  2  0  0  3  0  0  0  0  0  0
  184.1780  178.8770  141.4060 C   0  0  0  0  0  0  0  0  0  0  0  0
  185.0180  179.7260  145.7330 O   0  0  0  0  0  1  0  0  0  0  0  0
  188.5820  175.7700  142.9200 C   0  0  0  0  0  2  0  0  0  0  0  0
  189.8250  177.6370  146.6400 N   0  0  0  0  0  2  0  0  0  0  0  0
  191.3550  176.2100  145.6020 O   0  0  0  0  0  0  0  0  0  0  0  0
  191.0340  176.8700  146.6290 C   0  0  0  0  0  0  0  0  0  0  0  0
  194.4130  176.8390  151.1390 F   0  0  0  0  0  0  0  0  0  0  0  0
  191.8980  177.9330  148.7160 C   0  0  0  0  0  3  0  0  0  0  0  0
  192.7410  177.9270  149.8320 C   0  0  0  0  0  3  0  0  0  0  0  0
  192.7810  175.7810  148.0430 C   0  0  0  0  0  3  0  0  0  0  0  0
  191.9130  176.8610  147.8120 C   0  0  0  0  0  0  0  0  0  0  0  0
  193.6210  175.7750  149.1600 C   0  0  0  0  0  3  0  0  0  0  0  0
  193.6030  176.8490  150.0540 C   0  0  0  0  0  0  0  0  0  0  0  0
  188.9510  179.7380  138.1550 O   0  0  0  0  0  0  0  0  0  0  0  0
  188.9860  178.5000  138.3950 C   0  0  0  0  0  0  0  0  0  0  0  0
  192.7030  175.0160  135.4020 C   0  0  0  0  0  3  0  0  0  0  0  0
  190.9460  177.0490  137.9080 N   0  0  0  0  0  0  0  0  0  0  0  0
  191.3480  176.3930  136.8110 C   0  0  0  0  0  0  0  0  0  0  0  0
  190.4690  176.5950  135.7940 C   0  0  0  0  0  0  0  0  0  0  0  0
  189.7920  177.6400  137.4960 C   0  0  0  0  0  0  0  0  0  0  0  0
  192.4880  175.6080  136.6610 C   0  0  0  0  0  3  0  0  0  0  0  0
  191.7870  175.2220  134.3460 C   0  0  0  0  0  3  0  0  0  0  0  0
  190.6470  176.0250  134.5360 C   0  0  0  0  0  3  0  0  0  0  0  0
  189.4670  177.3860  136.2000 N   0  0  0  0  0  2  0  0  0  0  0  0
  182.7690  178.3980  141.1880 C   0  0  0  0  0  2  0  0  0  0  0  0
  181.9820  179.2630  140.2110 C   0  0  2  0  0  3  0  0  0  0  0  0
  180.0420  178.6320  139.5240 C   0  0  0  0  0  2  0  0  0  0  0  0
  180.5550  179.4380  140.7020 C   0  0  0  0  0  2  0  0  0  0  0  0
  181.4680  178.4330  139.0460 C   0  0  1  0  0  3  0  0  0  0  0  0
  181.6840  179.1040  137.6820 C   0  0  0  0  0  2  0  0  0  0  0  0
  180.4200  178.3270  135.9210 O   0  0  0  0  0  1  0  0  0  0  0  0
  181.5990  178.1510  136.5740 N   0  0  0  0  0  0  0  0  0  0  0  0
  181.7150  176.8640  137.0450 O   0  0  0  0  0  0  0  0  0  0  0  0
  182.1900  176.0110  136.0200 C   0  0  0  0  0  2  0  0  0  0  0  0
  184.1910  175.9190  137.4230 C   0  0  0  0  0  1  0  0  0  0  0  0
  183.3360  175.0930  136.4770 C   0  0  2  0  0  0  0  0  0  0  0  0
  184.2250  174.6160  135.3150 C   0  0  0  0  0  2  0  0  0  0  0  0
  184.9760  175.6730  134.7930 O   0  0  0  0  0  1  0  0  0  0  0  0
  182.7870  173.9660  137.2470 N   0  0  0  0  0  2  0  0  0  0  0  0
  181.2720  171.5920  136.9970 O   0  0  0  0  0  1  0  0  0  0  0  0
  181.3770  173.2050  136.4940 P   0  0  0  0  0  0  0  0  0  0  0  0
  181.4720  173.2500  134.9850 O   0  0  0  0  0  0  0  0  0  0  0  0
  179.9820  174.0250  136.9860 O   0  0  0  0  0  1  0  0  0  0  0  0
  1 18  1  0  0  0  0
  1 22  1  1  0  0  0
  4 10  2  0  0  0  0
  5  6  1  0  0  0  0
  6 11  1  0  0  0  0
  7  3  1  1  0  0  0
  7 18  1  0  0  0  0
  8 19  2  0  0  0  0
  9 21  1  6  0  0  0
  9 13  1  0  0  0  0
 10 12  2  0  0  0  0
 11  7  1  0  0  0  0
 11 20  1  1  0  0  0
 12 16  1  0  0  0  0
 13  1  1  0  0  0  0
 14 17  1  0  0  0  0
 14  4  1  0  0  0  0
 15  9  1  0  0  0  0
 15  7  1  0  0  0  0
 16 21  1  0  0  0  0
 17  8  2  0  0  0  0
 18  2  1  1  0  0  0
 19  5  1  0  0  0  0
 23 24  2  0  0  0  0
 24 22  1  0  0  0  0
 24 29  1  0  0  0  0
 26 27  1  0  0  0  0
 27 31  2  0  0  0  0
 28 30  2  0  0  0  0
 29 28  1  0  0  0  0
 29 26  2  0  0  0  0
 30 31  1  0  0  0  0
 31 25  1  0  0  0  0
 32 33  2  0  0  0  0
 33  4  1  0  0  0  0
 34 39  1  0  0  0  0
 36 35  1  0  0  0  0
 37 42  1  0  0  0  0
 37 36  1  0  0  0  0
 38 35  2  0  0  0  0
 38 33  1  0  0  0  0
 39 36  2  0  0  0  0
 40 41  1  0  0  0  0
 40 34  2  0  0  0  0
 41 37  2  0  0  0  0
 42 38  1  0  0  0  0
 43 19  1  0  0  0  0
 44 46  1  0  0  0  0
 44 43  1  1  0  0  0
 45 46  1  0  0  0  0
 47 48  1  6  0  0  0
 47 45  1  0  0  0  0
 47 44  1  0  0  0  0
 49 50  1  0  0  0  0
 50 51  1  0  0  0  0
 50 48  1  0  0  0  0
 52 54  1  0  0  0  0
 52 51  1  0  0  0  0
 54 57  1  0  0  0  0
 54 53  1  1  0  0  0
 55 54  1  0  0  0  0
 56 55  1  0  0  0  0
 59 61  1  0  0  0  0
 59 58  1  0  0  0  0
 59 57  1  0  0  0  0
 60 59  2  0  0  0  0
M  END
>  <MODEL>
4

>  <REMARK>
 VINA RESULT:      -6.1      3.221      7.799
  Name = 
  14 active torsions:
  status: ('A' for Active; 'I' for Inactive)
    1  A    between atoms: N_1  and  C_2
    2  A    between atoms: C_4  and  C_53
    3  A    between atoms: C_4  and  N_57
    4  A    between atoms: C_9  and  C_49
    5  A    between atoms: C_12  and  C_17
    6  A    between atoms: C_12  and  O_40
    7  A    between atoms: C_14  and  C_55
    8  A    between atoms: C_15  and  C_42
    9  A    between atoms: C_16  and  C_17
   10  A    between atoms: C_17  and  N_30
   11  A    between atoms: N_30  and  P_32
   12  A    between atoms: C_36  and  C_55
   13  A    between atoms: O_40  and  N_57
   14  A    between atoms: C_49  and  C_52
                            x       y       z     vdW  Elec       q    Type
                         _______ _______ _______ _____ _____    ______ ____

>  <TORSDO>
F 14

$$$$
=
 OpenBabel10232407523D

 61 66  0  0  1  0  0  0  0  0999 V2000
  187.7570  177.7660  140.3400 C   0  0  1  0  0  3  0  0  0  0  0  0
  189.9860  177.9650  141.2570 O   0  0  0  0  0  1  0  0  0  0  0  0
  190.5050  178.5280  138.7830 F   0  0  0  0  0  0  0  0  0  0  0  0
  186.1590  174.8160  135.3050 C   0  0  0  0  0  0  0  0  0  0  0  0
  190.9350  174.9740  136.8010 C   0  0  0  0  0  2  0  0  0  0  0  0
  191.1780  176.2350  137.3510 O   0  0  0  0  0  0  0  0  0  0  0  0
  189.7740  177.3540  138.9300 C   0  0  2  0  0  0  0  0  0  0  0  0
  189.5280  174.6970  134.8680 C   0  0  0  0  0  0  0  0  0  0  0  0
  187.8720  178.4560  138.1420 C   0  0  1  0  0  3  0  0  0  0  0  0
  186.1880  175.3050  136.5170 C   0  0  0  0  0  0  0  0  0  0  0  0
  190.6970  176.1660  138.6610 C   0  0  2  0  0  3  0  0  0  0  0  0
  186.2150  175.7870  137.7290 C   0  0  0  0  0  3  0  0  0  0  0  0
  187.6630  178.8770  139.4840 O   0  0  0  0  0  0  0  0  0  0  0  0
  187.2250  175.2420  134.3460 C   0  0  0  0  0  2  0  0  0  0  0  0
  188.7230  177.3240  137.9860 O   0  0  0  0  0  0  0  0  0  0  0  0
  185.6830  177.1530  138.0270 C   0  0  0  0  0  2  0  0  0  0  0  0
  188.3790  174.3010  134.3960 C   0  0  0  0  0  3  0  0  0  0  0  0
  189.1950  177.2430  140.3540 C   0  0  2  0  0  3  0  0  0  0  0  0
  190.6790  175.0940  135.3320 C   0  0  0  0  0  0  0  0  0  0  0  0
  191.7760  176.1730  139.5490 O   0  0  0  0  0  1  0  0  0  0  0  0
  186.5460  178.2510  137.4050 C   0  0  0  0  0  2  0  0  0  0  0  0
  187.3100  178.1250  141.6790 N   0  0  0  0  0  2  0  0  0  0  0  0
  188.1300  176.1840  142.6880 O   0  0  0  0  0  0  0  0  0  0  0  0
  187.4690  177.2540  142.8050 C   0  0  0  0  0  0  0  0  0  0  0  0
  185.1840  178.6050  147.7760 F   0  0  0  0  0  0  0  0  0  0  0  0
  187.5820  177.3840  145.2950 C   0  0  0  0  0  3  0  0  0  0  0  0
  187.0120  177.7140  146.5290 C   0  0  0  0  0  3  0  0  0  0  0  0
  185.5920  178.1790  144.1670 C   0  0  0  0  0  3  0  0  0  0  0  0
  186.8750  177.6120  144.1050 C   0  0  0  0  0  0  0  0  0  0  0  0
  185.0250  178.5110  145.4010 C   0  0  0  0  0  3  0  0  0  0  0  0
  185.7330  178.2770  146.5810 C   0  0  0  0  0  0  0  0  0  0  0  0
  184.0670  174.1890  134.4050 O   0  0  0  0  0  0  0  0  0  0  0  0
  185.1610  173.7950  134.8930 C   0  0  0  0  0  0  0  0  0  0  0  0
  186.7620  168.1210  135.2890 C   0  0  0  0  0  3  0  0  0  0  0  0
  186.6110  171.7750  134.9350 N   0  0  0  0  0  0  0  0  0  0  0  0
  186.3570  170.4700  135.1000 C   0  0  0  0  0  0  0  0  0  0  0  0
  185.0240  170.2690  135.2810 C   0  0  0  0  0  0  0  0  0  0  0  0
  185.3740  172.3350  135.0300 C   0  0  0  0  0  0  0  0  0  0  0  0
  187.2700  169.4190  135.0950 C   0  0  0  0  0  3  0  0  0  0  0  0
  185.3780  167.9140  135.4810 C   0  0  0  0  0  3  0  0  0  0  0  0
  184.4850  169.0020  135.4770 C   0  0  0  0  0  3  0  0  0  0  0  0
  184.3720  171.4390  135.2400 N   0  0  0  0  0  2  0  0  0  0  0  0
  191.7330  175.5220  134.3480 C   0  0  0  0  0  2  0  0  0  0  0  0
  193.0430  174.7580  134.4970 C   0  0  2  0  0  3  0  0  0  0  0  0
  193.8390  174.3420  136.4530 C   0  0  0  0  0  2  0  0  0  0  0  0
  192.8820  173.6390  135.5100 C   0  0  0  0  0  2  0  0  0  0  0  0
  193.9810  175.4750  135.4540 C   0  0  1  0  0  3  0  0  0  0  0  0
  195.4240  175.5660  134.9350 C   0  0  0  0  0  2  0  0  0  0  0  0
  196.7510  177.4460  134.8950 O   0  0  0  0  0  1  0  0  0  0  0  0
  196.2400  176.4950  135.7190 N   0  0  0  0  0  0  0  0  0  0  0  0
  197.2430  175.8120  136.3680 O   0  0  0  0  0  0  0  0  0  0  0  0
  198.0250  175.0930  135.4320 C   0  0  0  0  0  2  0  0  0  0  0  0
  197.7740  173.4600  137.2350 C   0  0  0  0  0  1  0  0  0  0  0  0
  198.5950  173.7810  135.9980 C   0  0  2  0  0  0  0  0  0  0  0  0
  200.0710  173.8980  136.4160 C   0  0  0  0  0  2  0  0  0  0  0  0
  200.2140  174.7400  137.5220 O   0  0  0  0  0  1  0  0  0  0  0  0
  198.3810  172.6940  135.0310 N   0  0  0  0  0  2  0  0  0  0  0  0
  199.5170  170.1110  134.8450 O   0  0  0  0  0  0  0  0  0  0  0  0
  198.4580  171.0760  135.7470 P   0  0  0  0  0  0  0  0  0  0  0  0
  197.0930  170.4240  135.7740 O   0  0  0  0  0  1  0  0  0  0  0  0
  199.0420  171.2020  137.3290 O   0  0  0  0  0  1  0  0  0  0  0  0
  1 18  1  0  0  0  0
  1 22  1  1  0  0  0
  4 10  2  0  0  0  0
  5  6  1  0  0  0  0
  6 11  1  0  0  0  0
  7  3  1  6  0  0  0
  7 18  1  0  0  0  0
  8 19  2  0  0  0  0
  9 21  1  1  0  0  0
  9 13  1  0  0  0  0
 10 12  2  0  0  0  0
 11  7  1  0  0  0  0
 11 20  1  1  0  0  0
 12 16  1  0  0  0  0
 13  1  1  0  0  0  0
 14 17  1  0  0  0  0
 14  4  1  0  0  0  0
 15  9  1  0  0  0  0
 15  7  1  0  0  0  0
 17  8  2  0  0  0  0
 18  2  1  1  0  0  0
 19  5  1  0  0  0  0
 21 16  1  0  0  0  0
 22 24  1  0  0  0  0
 23 24  2  0  0  0  0
 24 29  1  0  0  0  0
 26 27  1  0  0  0  0
 27 31  2  0  0  0  0
 28 30  2  0  0  0  0
 29 28  1  0  0  0  0
 29 26  2  0  0  0  0
 30 31  1  0  0  0  0
 31 25  1  0  0  0  0
 32 33  2  0  0  0  0
 33 38  1  0  0  0  0
 33  4  1  0  0  0  0
 34 40  1  0  0  0  0
 35 38  2  0  0  0  0
 35 36  1  0  0  0  0
 36 37  2  0  0  0  0
 37 41  1  0  0  0  0
 38 42  1  0  0  0  0
 39 36  1  0  0  0  0
 39 34  2  0  0  0  0
 41 40  2  0  0  0  0
 42 37  1  0  0  0  0
 43 19  1  0  0  0  0
 44 43  1  1  0  0  0
 44 47  1  0  0  0  0
 44 46  1  0  0  0  0
 46 45  1  0  0  0  0
 47 48  1  6  0  0  0
 47 45  1  0  0  0  0
 48 50  1  0  0  0  0
 49 50  1  0  0  0  0
 50 51  1  0  0  0  0
 52 54  1  0  0  0  0
 52 51  1  0  0  0  0
 54 55  1  0  0  0  0
 54 53  1  1  0  0  0
 55 56  1  0  0  0  0
 57 59  1  0  0  0  0
 57 54  1  0  0  0  0
 58 59  2  0  0  0  0
 59 60  1  0  0  0  0
 59 61  1  0  0  0  0
M  END
>  <MODEL>
5

>  <REMARK>
 VINA RESULT:      -5.7      4.604     11.836
  Name = 
  14 active torsions:
  status: ('A' for Active; 'I' for Inactive)
    1  A    between atoms: N_1  and  C_2
    2  A    between atoms: C_4  and  C_53
    3  A    between atoms: C_4  and  N_57
    4  A    between atoms: C_9  and  C_49
    5  A    between atoms: C_12  and  C_17
    6  A    between atoms: C_12  and  O_40
    7  A    between atoms: C_14  and  C_55
    8  A    between atoms: C_15  and  C_42
    9  A    between atoms: C_16  and  C_17
   10  A    between atoms: C_17  and  N_30
   11  A    between atoms: N_30  and  P_32
   12  A    between atoms: C_36  and  C_55
   13  A    between atoms: O_40  and  N_57
   14  A    between atoms: C_49  and  C_52
                            x       y       z     vdW  Elec       q    Type
                         _______ _______ _______ _____ _____    ______ ____

>  <TORSDO>
F 14

$$$$
