=
 OpenBabel10232412043D

 42 47  0  0  1  0  0  0  0  0999 V2000
  187.7970  178.1340  139.7160 C   0  0  1  0  0  3  0  0  0  0  0  0
  189.1170  177.4330  145.2330 C   0  0  0  0  0  1  0  0  0  0  0  0
  188.7510  176.4630  142.9970 C   0  0  0  0  0  2  0  0  0  0  0  0
  189.8870  177.9370  140.7860 C   0  0  2  0  0  3  0  0  0  0  0  0
  191.6800  177.5160  142.2380 C   0  0  0  0  0  2  0  0  0  0  0  0
  190.9830  177.6670  143.5820 C   0  0  0  0  0  0  0  0  0  0  0  0
  191.6640  178.2010  144.5000 O   0  0  0  0  0  0  0  0  0  0  0  0
  190.8100  176.8790  141.1890 C   0  0  2  0  0  3  0  0  0  0  0  0
  187.9990  177.3590  141.9970 C   0  0  0  0  0  2  0  0  0  0  0  0
  188.5870  177.2960  140.6410 N   0  0  0  0  0  0  0  0  0  0  0  0
  190.9140  177.4580  139.8440 N   0  0  0  0  0  2  0  0  0  0  0  0
  189.6170  177.2520  143.8780 N   0  0  0  0  0  0  0  0  0  0  0  0
  189.6150  177.5710  136.6860 C   0  0  0  0  0  2  0  0  0  0  0  0
  189.0790  179.6240  137.7970 O   0  0  0  0  0  1  0  0  0  0  0  0
  189.0710  176.1610  136.8180 C   0  0  2  0  0  3  0  0  0  0  0  0
  188.5270  178.4620  137.2420 C   0  0  2  0  0  3  0  0  0  0  0  0
  188.2070  176.1650  138.0660 C   0  0  0  0  0  2  0  0  0  0  0  0
  187.7640  177.6110  138.2580 C   0  0  1  0  0  3  0  0  0  0  0  0
  190.1990  175.1440  136.9620 C   0  0  0  0  0  2  0  0  0  0  0  0
  191.2490  175.0350  134.6840 C   0  0  0  0  0  2  0  0  0  0  0  0
  192.5670  174.3480  134.3470 C   0  0  0  0  0  2  0  0  0  0  0  0
  192.6020  174.8910  136.6400 N   0  0  1  0  0  0  0  0  0  0  0  0
  193.4510  174.8220  135.4720 C   0  0  1  0  0  3  0  0  0  0  0  0
  194.6740  174.0220  135.7980 C   0  0  0  0  0  0  0  0  0  0  0  0
  195.0760  173.1250  135.0700 O   0  0  0  0  0  0  0  0  0  0  0  0
  193.2910  175.7220  137.6220 C   0  0  0  0  0  2  0  0  0  0  0  0
  195.4390  174.4250  137.0340 C   0  0  2  0  0  3  0  0  0  0  0  0
  191.4070  175.5380  136.1220 C   0  0  2  0  0  3  0  0  0  0  0  0
  194.4990  174.9300  138.1560 C   0  0  0  0  0  2  0  0  0  0  0  0
  196.3620  175.4230  136.7060 O   0  0  0  0  0  0  0  0  0  0  0  0
  197.6110  174.8000  136.7920 C   0  0  0  0  0  1  0  0  0  0  0  0
  185.5630  179.1880  138.1510 O   0  0  0  0  0  0  0  0  0  0  0  0
  185.3870  178.9780  139.3840 C   0  0  0  0  0  0  0  0  0  0  0  0
  186.4200  178.3660  140.1750 N   0  0  0  0  0  2  0  0  0  0  0  0
  184.0770  179.3670  140.0150 C   0  0  1  0  0  3  0  0  0  0  0  0
  183.0320  179.6820  138.9570 C   0  0  0  0  0  2  0  0  0  0  0  0
  182.9150  178.3900  139.7460 C   0  0  1  0  0  3  0  0  0  0  0  0
  183.2650  177.1920  138.8530 C   0  0  1  0  0  3  0  0  0  0  0  0
  182.9340  176.0100  139.5220 O   0  0  0  0  0  1  0  0  0  0  0  0
  182.5030  177.2470  137.5400 C   0  0  0  0  0  2  0  0  0  0  0  0
  183.4420  177.0290  136.3610 C   0  0  0  0  0  2  0  0  0  0  0  0
  184.5660  176.3220  136.7900 O   0  0  0  0  0  1  0  0  0  0  0  0
  1 34  1  1  0  0  0
  1 10  1  0  0  0  0
  3 12  1  0  0  0  0
  4 11  1  6  0  0  0
  4  8  1  0  0  0  0
  5  6  1  0  0  0  0
  6 12  1  0  0  0  0
  6  7  2  0  0  0  0
  8  5  1  1  0  0  0
  9  3  1  0  0  0  0
 10  4  1  0  0  0  0
 10  9  1  0  0  0  0
 11  8  1  0  0  0  0
 12  2  1  0  0  0  0
 13 15  1  0  0  0  0
 13 16  1  0  0  0  0
 15 19  1  1  0  0  0
 15 17  1  0  0  0  0
 16 14  1  1  0  0  0
 16 18  1  0  0  0  0
 17 18  1  0  0  0  0
 18  1  1  1  0  0  0
 20 28  1  0  0  0  0
 21 20  1  0  0  0  0
 22 26  1  1  0  0  0
 23 21  1  6  0  0  0
 23 24  1  0  0  0  0
 23 22  1  0  0  0  0
 24 27  1  0  0  0  0
 25 24  2  0  0  0  0
 26 29  1  0  0  0  0
 27 30  1  6  0  0  0
 27 29  1  0  0  0  0
 28 22  1  0  0  0  0
 28 19  1  1  0  0  0
 30 31  1  0  0  0  0
 32 33  2  0  0  0  0
 33 34  1  0  0  0  0
 35 33  1  6  0  0  0
 36 37  1  0  0  0  0
 36 35  1  0  0  0  0
 37 38  1  6  0  0  0
 37 35  1  0  0  0  0
 38 39  1  1  0  0  0
 40 38  1  0  0  0  0
 41 42  1  0  0  0  0
 41 40  1  0  0  0  0
M  END
>  <MODEL>
1

>  <REMARK>
 VINA RESULT:      -6.8      0.000      0.000
  Name = 
  10 active torsions:
  status: ('A' for Active; 'I' for Inactive)
    1  A    between atoms: C_6  and  C_10
    2  A    between atoms: C_6  and  C_42
    3  A    between atoms: C_8  and  C_21
    4  A    between atoms: C_10  and  C_22
    5  A    between atoms: C_14  and  C_16
    6  A    between atoms: C_14  and  C_37
    7  A    between atoms: O_20  and  C_36
    8  A    between atoms: C_24  and  N_26
    9  A    between atoms: C_24  and  C_32
   10  A    between atoms: C_24  and  N_38
                            x       y       z     vdW  Elec       q    Type
                         _______ _______ _______ _____ _____    ______ ____

>  <TORSDO>
F 10

$$$$
=
 OpenBabel10232412043D

 42 47  0  0  1  0  0  0  0  0999 V2000
  186.2270  177.4640  137.2770 C   0  0  1  0  0  3  0  0  0  0  0  0
  180.6340  176.4120  137.8040 C   0  0  0  0  0  1  0  0  0  0  0  0
  182.9150  176.2820  138.7270 C   0  0  0  0  0  2  0  0  0  0  0  0
  184.5360  178.6530  138.4090 C   0  0  2  0  0  3  0  0  0  0  0  0
  182.5980  179.3710  139.5160 C   0  0  0  0  0  2  0  0  0  0  0  0
  181.5560  178.4990  138.8330 C   0  0  0  0  0  0  0  0  0  0  0  0
  180.4350  179.0390  138.6240 O   0  0  0  0  0  0  0  0  0  0  0  0
  183.9110  178.6670  139.7290 C   0  0  2  0  0  3  0  0  0  0  0  0
  184.0550  176.4960  137.7160 C   0  0  0  0  0  2  0  0  0  0  0  0
  185.1410  177.3350  138.2700 N   0  0  0  0  0  0  0  0  0  0  0  0
  185.1100  179.4780  139.4870 N   0  0  0  0  0  2  0  0  0  0  0  0
  181.7530  177.1180  138.4090 N   0  0  0  0  0  0  0  0  0  0  0  0
  188.9620  179.1500  138.8540 C   0  0  0  0  0  2  0  0  0  0  0  0
  188.0260  179.4500  136.6690 O   0  0  0  0  0  1  0  0  0  0  0  0
  188.8380  178.0370  139.8790 C   0  0  2  0  0  3  0  0  0  0  0  0
  188.5950  178.5070  137.5350 C   0  0  2  0  0  3  0  0  0  0  0  0
  187.7170  177.1410  139.3850 C   0  0  0  0  0  2  0  0  0  0  0  0
  187.6510  177.3530  137.8770 C   0  0  1  0  0  3  0  0  0  0  0  0
  188.5000  178.5920  141.2590 C   0  0  0  0  0  2  0  0  0  0  0  0
  187.1230  177.4330  143.0090 C   0  0  0  0  0  2  0  0  0  0  0  0
  187.4360  177.3900  144.5000 C   0  0  0  0  0  2  0  0  0  0  0  0
  189.4560  177.7780  143.3490 N   0  0  1  0  0  0  0  0  0  0  0  0
  188.9110  177.0770  144.4910 C   0  0  1  0  0  3  0  0  0  0  0  0
  189.7150  177.4160  145.7060 C   0  0  0  0  0  0  0  0  0  0  0  0
  189.1900  177.7510  146.7600 O   0  0  0  0  0  0  0  0  0  0  0  0
  190.7570  177.1830  143.0630 C   0  0  0  0  0  2  0  0  0  0  0  0
  191.2110  177.2500  145.5990 C   0  0  2  0  0  3  0  0  0  0  0  0
  188.4840  177.4870  142.3080 C   0  0  2  0  0  3  0  0  0  0  0  0
  191.7300  177.5990  144.1820 C   0  0  0  0  0  2  0  0  0  0  0  0
  191.5580  175.9340  145.9190 O   0  0  0  0  0  0  0  0  0  0  0  0
  192.0980  176.0070  147.2070 C   0  0  0  0  0  1  0  0  0  0  0  0
  187.1060  174.6770  137.1990 O   0  0  0  0  0  0  0  0  0  0  0  0
  186.6420  175.1910  136.1430 C   0  0  0  0  0  0  0  0  0  0  0  0
  186.1030  176.5240  136.1550 N   0  0  0  0  0  2  0  0  0  0  0  0
  186.6500  174.3860  134.8700 C   0  0  1  0  0  3  0  0  0  0  0  0
  186.8660  172.9090  135.1580 C   0  0  0  0  0  2  0  0  0  0  0  0
  185.4880  173.3830  134.7330 C   0  0  1  0  0  3  0  0  0  0  0  0
  184.5240  173.3370  135.9260 C   0  0  1  0  0  3  0  0  0  0  0  0
  183.2470  173.7150  135.4980 O   0  0  0  0  0  1  0  0  0  0  0  0
  184.4520  171.9400  136.5180 C   0  0  0  0  0  2  0  0  0  0  0  0
  183.7420  170.9860  135.5660 C   0  0  0  0  0  2  0  0  0  0  0  0
  183.5450  169.7590  136.2000 O   0  0  0  0  0  1  0  0  0  0  0  0
  1 34  1  6  0  0  0
  1 10  1  0  0  0  0
  2 12  1  0  0  0  0
  4 11  1  1  0  0  0
  4  8  1  0  0  0  0
  6  5  1  0  0  0  0
  7  6  2  0  0  0  0
  8  5  1  6  0  0  0
  9 10  1  0  0  0  0
  9  3  1  0  0  0  0
 10  4  1  0  0  0  0
 11  8  1  0  0  0  0
 12  3  1  0  0  0  0
 12  6  1  0  0  0  0
 13 15  1  0  0  0  0
 15 19  1  1  0  0  0
 16 14  1  6  0  0  0
 16 18  1  0  0  0  0
 16 13  1  0  0  0  0
 17 15  1  0  0  0  0
 18  1  1  1  0  0  0
 18 17  1  0  0  0  0
 20 21  1  0  0  0  0
 22 26  1  6  0  0  0
 22 23  1  0  0  0  0
 23 21  1  1  0  0  0
 23 24  1  0  0  0  0
 24 25  2  0  0  0  0
 26 29  1  0  0  0  0
 27 24  1  0  0  0  0
 27 30  1  6  0  0  0
 28 19  1  6  0  0  0
 28 20  1  0  0  0  0
 28 22  1  0  0  0  0
 29 27  1  0  0  0  0
 30 31  1  0  0  0  0
 33 34  1  0  0  0  0
 33 32  2  0  0  0  0
 35 36  1  0  0  0  0
 35 33  1  1  0  0  0
 37 35  1  0  0  0  0
 37 36  1  0  0  0  0
 37 38  1  1  0  0  0
 38 39  1  6  0  0  0
 38 40  1  0  0  0  0
 41 42  1  0  0  0  0
 41 40  1  0  0  0  0
M  END
>  <MODEL>
2

>  <REMARK>
 VINA RESULT:      -6.8      4.141      7.748
  Name = 
  10 active torsions:
  status: ('A' for Active; 'I' for Inactive)
    1  A    between atoms: C_6  and  C_10
    2  A    between atoms: C_6  and  C_42
    3  A    between atoms: C_8  and  C_21
    4  A    between atoms: C_10  and  C_22
    5  A    between atoms: C_14  and  C_16
    6  A    between atoms: C_14  and  C_37
    7  A    between atoms: O_20  and  C_36
    8  A    between atoms: C_24  and  N_26
    9  A    between atoms: C_24  and  C_32
   10  A    between atoms: C_24  and  N_38
                            x       y       z     vdW  Elec       q    Type
                         _______ _______ _______ _____ _____    ______ ____

>  <TORSDO>
F 10

$$$$
=
 OpenBabel10232412043D

 42 47  0  0  1  0  0  0  0  0999 V2000
  189.4430  176.1660  136.4550 C   0  0  1  0  0  3  0  0  0  0  0  0
  187.7760  170.7630  135.6150 C   0  0  0  0  0  1  0  0  0  0  0  0
  188.2710  172.6160  137.1620 C   0  0  0  0  0  2  0  0  0  0  0  0
  187.2880  175.2150  136.3650 C   0  0  2  0  0  3  0  0  0  0  0  0
  185.4050  173.8190  136.3830 C   0  0  0  0  0  2  0  0  0  0  0  0
  186.0180  172.5280  135.8610 C   0  0  0  0  0  0  0  0  0  0  0  0
  185.2870  171.8370  135.1000 O   0  0  0  0  0  0  0  0  0  0  0  0
  186.3320  174.5950  137.2780 C   0  0  2  0  0  3  0  0  0  0  0  0
  189.0910  173.7760  136.5710 C   0  0  0  0  0  2  0  0  0  0  0  0
  188.5890  175.0960  137.0110 N   0  0  0  0  0  0  0  0  0  0  0  0
  186.3180  176.0500  137.0940 N   0  0  0  0  0  2  0  0  0  0  0  0
  187.3590  172.0430  136.1670 N   0  0  0  0  0  0  0  0  0  0  0  0
  188.9350  178.5820  139.0440 C   0  0  0  0  0  2  0  0  0  0  0  0
  188.4750  178.7250  136.6980 O   0  0  0  0  0  1  0  0  0  0  0  0
  189.7870  177.6330  139.8670 C   0  0  2  0  0  3  0  0  0  0  0  0
  189.4840  178.4800  137.6390 C   0  0  2  0  0  3  0  0  0  0  0  0
  190.1660  176.4990  138.9310 C   0  0  0  0  0  2  0  0  0  0  0  0
  190.0900  177.0800  137.5240 C   0  0  1  0  0  3  0  0  0  0  0  0
  189.0140  177.0910  141.0650 C   0  0  0  0  0  2  0  0  0  0  0  0
  190.6880  178.0050  142.6970 C   0  0  0  0  0  2  0  0  0  0  0  0
  190.7040  177.7340  144.1970 C   0  0  0  0  0  2  0  0  0  0  0  0
  188.5010  177.4060  143.4270 N   0  0  1  0  0  0  0  0  0  0  0  0
  189.2510  177.9180  144.5530 C   0  0  1  0  0  3  0  0  0  0  0  0
  188.7440  177.2860  145.8110 C   0  0  0  0  0  0  0  0  0  0  0  0
  189.4980  176.8010  146.6430 O   0  0  0  0  0  0  0  0  0  0  0  0
  187.1450  177.9330  143.5410 C   0  0  0  0  0  2  0  0  0  0  0  0
  187.2540  177.3430  146.0470 C   0  0  2  0  0  3  0  0  0  0  0  0
  189.2120  177.9720  142.2920 C   0  0  2  0  0  3  0  0  0  0  0  0
  186.4560  177.2300  144.7250 C   0  0  0  0  0  2  0  0  0  0  0  0
  186.9310  178.5400  146.6950 O   0  0  0  0  0  0  0  0  0  0  0  0
  185.5330  178.5680  146.7210 C   0  0  0  0  0  1  0  0  0  0  0  0
  192.3360  176.4420  136.7750 O   0  0  0  0  0  0  0  0  0  0  0  0
  191.8960  175.9140  135.7150 C   0  0  0  0  0  0  0  0  0  0  0  0
  190.4900  175.6630  135.5550 N   0  0  0  0  0  2  0  0  0  0  0  0
  192.8650  175.5400  134.6250 C   0  0  1  0  0  3  0  0  0  0  0  0
  194.2880  175.4720  135.1570 C   0  0  0  0  0  2  0  0  0  0  0  0
  193.5640  174.1800  134.8210 C   0  0  1  0  0  3  0  0  0  0  0  0
  193.1900  173.4350  136.1090 C   0  0  1  0  0  3  0  0  0  0  0  0
  192.3490  172.3640  135.7910 O   0  0  0  0  0  1  0  0  0  0  0  0
  194.4260  172.9000  136.8110 C   0  0  0  0  0  2  0  0  0  0  0  0
  194.6820  173.6600  138.1060 C   0  0  0  0  0  2  0  0  0  0  0  0
  195.4120  172.8530  138.9800 O   0  0  0  0  0  1  0  0  0  0  0  0
  1 34  1  1  0  0  0
  1 10  1  0  0  0  0
  2 12  1  0  0  0  0
  4 10  1  0  0  0  0
  4 11  1  1  0  0  0
  4  8  1  0  0  0  0
  6 12  1  0  0  0  0
  6  5  1  0  0  0  0
  7  6  2  0  0  0  0
  8  5  1  6  0  0  0
  9 10  1  0  0  0  0
  9  3  1  0  0  0  0
 11  8  1  0  0  0  0
 12  3  1  0  0  0  0
 13 15  1  0  0  0  0
 15 19  1  1  0  0  0
 16 14  1  6  0  0  0
 16 13  1  0  0  0  0
 17 15  1  0  0  0  0
 18  1  1  6  0  0  0
 18 16  1  0  0  0  0
 18 17  1  0  0  0  0
 20 21  1  0  0  0  0
 22 26  1  1  0  0  0
 22 23  1  0  0  0  0
 23 21  1  6  0  0  0
 23 24  1  0  0  0  0
 24 27  1  0  0  0  0
 24 25  2  0  0  0  0
 26 29  1  0  0  0  0
 27 30  1  6  0  0  0
 28 19  1  6  0  0  0
 28 20  1  0  0  0  0
 28 22  1  0  0  0  0
 29 27  1  0  0  0  0
 30 31  1  0  0  0  0
 33 32  2  0  0  0  0
 34 33  1  0  0  0  0
 35 37  1  0  0  0  0
 35 36  1  0  0  0  0
 35 33  1  1  0  0  0
 37 36  1  0  0  0  0
 37 38  1  1  0  0  0
 38 39  1  6  0  0  0
 38 40  1  0  0  0  0
 40 41  1  0  0  0  0
 41 42  1  0  0  0  0
M  END
>  <MODEL>
3

>  <REMARK>
 VINA RESULT:      -6.7      2.971      9.389
  Name = 
  10 active torsions:
  status: ('A' for Active; 'I' for Inactive)
    1  A    between atoms: C_6  and  C_10
    2  A    between atoms: C_6  and  C_42
    3  A    between atoms: C_8  and  C_21
    4  A    between atoms: C_10  and  C_22
    5  A    between atoms: C_14  and  C_16
    6  A    between atoms: C_14  and  C_37
    7  A    between atoms: O_20  and  C_36
    8  A    between atoms: C_24  and  N_26
    9  A    between atoms: C_24  and  C_32
   10  A    between atoms: C_24  and  N_38
                            x       y       z     vdW  Elec       q    Type
                         _______ _______ _______ _____ _____    ______ ____

>  <TORSDO>
F 10

$$$$
=
 OpenBabel10232412043D

 42 47  0  0  1  0  0  0  0  0999 V2000
  184.2890  179.0830  139.2360 C   0  0  1  0  0  3  0  0  0  0  0  0
  181.2700  177.9670  134.5120 C   0  0  0  0  0  1  0  0  0  0  0  0
  181.5060  177.8360  136.9620 C   0  0  0  0  0  2  0  0  0  0  0  0
  182.4750  180.2290  138.2610 C   0  0  2  0  0  3  0  0  0  0  0  0
  180.5820  180.9030  137.0530 C   0  0  0  0  0  2  0  0  0  0  0  0
  180.7290  180.0380  135.8100 C   0  0  0  0  0  0  0  0  0  0  0  0
  180.3850  180.5720  134.7210 O   0  0  0  0  0  0  0  0  0  0  0  0
  181.0160  180.2070  138.3140 C   0  0  2  0  0  3  0  0  0  0  0  0
  182.9220  178.0850  137.5090 C   0  0  0  0  0  2  0  0  0  0  0  0
  182.9110  178.9210  138.7300 N   0  0  0  0  0  0  0  0  0  0  0  0
  181.7630  181.0340  139.2680 N   0  0  0  0  0  2  0  0  0  0  0  0
  181.2310  178.6690  135.7870 N   0  0  0  0  0  0  0  0  0  0  0  0
  184.7020  177.6600  142.4930 C   0  0  0  0  0  2  0  0  0  0  0  0
  182.9470  177.3510  140.8930 O   0  0  0  0  0  1  0  0  0  0  0  0
  185.7960  178.7040  142.6270 C   0  0  2  0  0  3  0  0  0  0  0  0
  183.6430  178.3140  141.6350 C   0  0  2  0  0  3  0  0  0  0  0  0
  185.7860  179.4840  141.3250 C   0  0  0  0  0  2  0  0  0  0  0  0
  184.3780  179.3340  140.7620 C   0  0  1  0  0  3  0  0  0  0  0  0
  187.1580  178.0520  142.8410 C   0  0  0  0  0  2  0  0  0  0  0  0
  186.0560  177.7290  145.0730 C   0  0  0  0  0  2  0  0  0  0  0  0
  186.6980  178.0040  146.4280 C   0  0  0  0  0  2  0  0  0  0  0  0
  188.4270  177.6130  144.8750 N   0  0  1  0  0  0  0  0  0  0  0  0
  188.0550  177.3730  146.2530 C   0  0  1  0  0  3  0  0  0  0  0  0
  189.1670  177.8230  147.1480 C   0  0  0  0  0  0  0  0  0  0  0  0
  188.9670  178.5290  148.1270 O   0  0  0  0  0  0  0  0  0  0  0  0
  189.5070  176.6840  144.5560 C   0  0  0  0  0  2  0  0  0  0  0  0
  190.5470  177.3010  146.8330 C   0  0  2  0  0  3  0  0  0  0  0  0
  187.2040  177.2900  144.1590 C   0  0  2  0  0  3  0  0  0  0  0  0
  190.7710  177.1440  145.3080 C   0  0  0  0  0  2  0  0  0  0  0  0
  190.7350  176.0690  147.4680 O   0  0  0  0  0  0  0  0  0  0  0  0
  192.0110  175.6530  147.0760 C   0  0  0  0  0  1  0  0  0  0  0  0
  186.5210  179.1250  137.3480 O   0  0  0  0  0  0  0  0  0  0  0  0
  186.1950  178.0210  137.8710 C   0  0  0  0  0  0  0  0  0  0  0  0
  185.1730  177.9660  138.8800 N   0  0  0  0  0  2  0  0  0  0  0  0
  186.9000  176.7650  137.4310 C   0  0  1  0  0  3  0  0  0  0  0  0
  188.1870  177.0900  136.6900 C   0  0  0  0  0  2  0  0  0  0  0  0
  188.2690  176.5250  138.0970 C   0  0  1  0  0  3  0  0  0  0  0  0
  188.7150  177.6170  139.0790 C   0  0  1  0  0  3  0  0  0  0  0  0
  188.6150  177.1280  140.3850 O   0  0  0  0  0  1  0  0  0  0  0  0
  190.1530  178.0340  138.8170 C   0  0  0  0  0  2  0  0  0  0  0  0
  191.1100  176.8900  139.1250 C   0  0  0  0  0  2  0  0  0  0  0  0
  192.0530  177.3150  140.0610 O   0  0  0  0  0  1  0  0  0  0  0  0
  1 34  1  1  0  0  0
  2 12  1  0  0  0  0
  3  9  1  0  0  0  0
  4  8  1  0  0  0  0
  4 10  1  0  0  0  0
  4 11  1  1  0  0  0
  6  5  1  0  0  0  0
  7  6  2  0  0  0  0
  8  5  1  6  0  0  0
  8 11  1  0  0  0  0
  9 10  1  0  0  0  0
 10  1  1  0  0  0  0
 12  6  1  0  0  0  0
 12  3  1  0  0  0  0
 13 15  1  0  0  0  0
 15 19  1  6  0  0  0
 16 14  1  6  0  0  0
 16 13  1  0  0  0  0
 17 15  1  0  0  0  0
 18  1  1  6  0  0  0
 18 17  1  0  0  0  0
 18 16  1  0  0  0  0
 20 21  1  0  0  0  0
 22 26  1  6  0  0  0
 22 23  1  0  0  0  0
 23 21  1  1  0  0  0
 23 24  1  0  0  0  0
 24 25  2  0  0  0  0
 26 29  1  0  0  0  0
 27 24  1  0  0  0  0
 27 30  1  1  0  0  0
 28 19  1  6  0  0  0
 28 22  1  0  0  0  0
 28 20  1  0  0  0  0
 29 27  1  0  0  0  0
 31 30  1  0  0  0  0
 32 33  2  0  0  0  0
 33 34  1  0  0  0  0
 35 33  1  1  0  0  0
 35 37  1  0  0  0  0
 36 35  1  0  0  0  0
 36 37  1  0  0  0  0
 37 38  1  1  0  0  0
 38 39  1  1  0  0  0
 40 38  1  0  0  0  0
 40 41  1  0  0  0  0
 41 42  1  0  0  0  0
M  END
>  <MODEL>
4

>  <REMARK>
 VINA RESULT:      -6.6      3.529      9.303
  Name = 
  10 active torsions:
  status: ('A' for Active; 'I' for Inactive)
    1  A    between atoms: C_6  and  C_10
    2  A    between atoms: C_6  and  C_42
    3  A    between atoms: C_8  and  C_21
    4  A    between atoms: C_10  and  C_22
    5  A    between atoms: C_14  and  C_16
    6  A    between atoms: C_14  and  C_37
    7  A    between atoms: O_20  and  C_36
    8  A    between atoms: C_24  and  N_26
    9  A    between atoms: C_24  and  C_32
   10  A    between atoms: C_24  and  N_38
                            x       y       z     vdW  Elec       q    Type
                         _______ _______ _______ _____ _____    ______ ____

>  <TORSDO>
F 10

$$$$
=
 OpenBabel10232412043D

 42 47  0  0  1  0  0  0  0  0999 V2000
  188.2570  176.1980  137.5710 C   0  0  1  0  0  3  0  0  0  0  0  0
  192.6440  172.8030  136.1930 C   0  0  0  0  0  1  0  0  0  0  0  0
  190.3430  173.5750  135.7700 C   0  0  0  0  0  2  0  0  0  0  0  0
  189.9270  176.4310  135.9240 C   0  0  2  0  0  3  0  0  0  0  0  0
  191.6360  176.1370  134.3460 C   0  0  0  0  0  2  0  0  0  0  0  0
  192.3890  174.9730  134.9730 C   0  0  0  0  0  0  0  0  0  0  0  0
  193.6440  174.9980  134.8530 O   0  0  0  0  0  0  0  0  0  0  0  0
  190.1460  176.0480  134.5320 C   0  0  2  0  0  3  0  0  0  0  0  0
  189.6800  174.3540  136.9200 C   0  0  0  0  0  2  0  0  0  0  0  0
  188.9100  175.5200  136.4320 N   0  0  0  0  0  0  0  0  0  0  0  0
  189.4690  177.3140  134.8370 N   0  0  0  0  0  2  0  0  0  0  0  0
  191.7790  173.8580  135.6890 N   0  0  0  0  0  0  0  0  0  0  0  0
  188.6910  178.2700  140.4560 C   0  0  0  0  0  2  0  0  0  0  0  0
  187.1280  178.4570  138.6510 O   0  0  0  0  0  1  0  0  0  0  0  0
  189.9790  177.4830  140.6200 C   0  0  2  0  0  3  0  0  0  0  0  0
  188.4920  178.3820  138.9610 C   0  0  2  0  0  3  0  0  0  0  0  0
  190.0320  176.5240  139.4440 C   0  0  0  0  0  2  0  0  0  0  0  0
  189.1850  177.1630  138.3500 C   0  0  1  0  0  3  0  0  0  0  0  0
  189.9900  176.7070  141.9330 C   0  0  0  0  0  2  0  0  0  0  0  0
  191.3600  177.6380  143.8200 C   0  0  0  0  0  2  0  0  0  0  0  0
  191.0650  177.4570  145.3040 C   0  0  0  0  0  2  0  0  0  0  0  0
  189.0410  177.1870  144.1270 N   0  0  1  0  0  0  0  0  0  0  0  0
  189.5830  177.7310  145.3530 C   0  0  1  0  0  3  0  0  0  0  0  0
  188.8020  177.2000  146.5140 C   0  0  0  0  0  0  0  0  0  0  0  0
  189.3480  176.7310  147.5030 O   0  0  0  0  0  0  0  0  0  0  0  0
  187.7220  177.7840  143.9410 C   0  0  0  0  0  2  0  0  0  0  0  0
  187.3010  177.3410  146.4450 C   0  0  2  0  0  3  0  0  0  0  0  0
  189.9930  177.6500  143.1300 C   0  0  2  0  0  3  0  0  0  0  0  0
  186.7740  177.1870  144.9970 C   0  0  0  0  0  2  0  0  0  0  0  0
  186.9270  178.5890  146.9550 O   0  0  0  0  0  0  0  0  0  0  0  0
  185.5450  178.6590  146.7520 C   0  0  0  0  0  1  0  0  0  0  0  0
  185.6500  175.0280  136.9550 O   0  0  0  0  0  0  0  0  0  0  0  0
  185.7990  176.2730  136.8090 C   0  0  0  0  0  0  0  0  0  0  0  0
  187.0290  176.9110  137.1950 N   0  0  0  0  0  2  0  0  0  0  0  0
  184.6690  177.0860  136.2350 C   0  0  1  0  0  3  0  0  0  0  0  0
  183.3510  176.3340  136.3310 C   0  0  0  0  0  2  0  0  0  0  0  0
  183.5960  177.5120  137.2560 C   0  0  1  0  0  3  0  0  0  0  0  0
  183.8290  177.0170  138.6900 C   0  0  1  0  0  3  0  0  0  0  0  0
  183.9530  178.1200  139.5410 O   0  0  0  0  0  1  0  0  0  0  0  0
  182.6730  176.1540  139.1660 C   0  0  0  0  0  2  0  0  0  0  0  0
  181.6280  177.0000  139.8820 C   0  0  0  0  0  2  0  0  0  0  0  0
  180.5480  177.2240  139.0260 O   0  0  0  0  0  1  0  0  0  0  0  0
  1 34  1  6  0  0  0
  3  9  1  0  0  0  0
  4 11  1  6  0  0  0
  4 10  1  0  0  0  0
  5  6  1  0  0  0  0
  6 12  1  0  0  0  0
  7  6  2  0  0  0  0
  8  5  1  1  0  0  0
  8 11  1  0  0  0  0
  8  4  1  0  0  0  0
 10  9  1  0  0  0  0
 10  1  1  0  0  0  0
 12  3  1  0  0  0  0
 12  2  1  0  0  0  0
 13 15  1  0  0  0  0
 15 19  1  1  0  0  0
 16 14  1  1  0  0  0
 16 13  1  0  0  0  0
 17 15  1  0  0  0  0
 18  1  1  1  0  0  0
 18 16  1  0  0  0  0
 18 17  1  0  0  0  0
 20 21  1  0  0  0  0
 22 26  1  6  0  0  0
 22 23  1  0  0  0  0
 23 21  1  1  0  0  0
 23 24  1  0  0  0  0
 24 25  2  0  0  0  0
 26 29  1  0  0  0  0
 27 24  1  0  0  0  0
 27 30  1  6  0  0  0
 28 19  1  6  0  0  0
 28 20  1  0  0  0  0
 28 22  1  0  0  0  0
 29 27  1  0  0  0  0
 31 30  1  0  0  0  0
 33 32  2  0  0  0  0
 33 34  1  0  0  0  0
 35 36  1  0  0  0  0
 35 33  1  1  0  0  0
 35 37  1  0  0  0  0
 36 37  1  0  0  0  0
 37 38  1  1  0  0  0
 38 40  1  0  0  0  0
 38 39  1  1  0  0  0
 40 41  1  0  0  0  0
 42 41  1  0  0  0  0
M  END
>  <MODEL>
5

>  <REMARK>
 VINA RESULT:      -6.5      2.278      7.780
  Name = 
  10 active torsions:
  status: ('A' for Active; 'I' for Inactive)
    1  A    between atoms: C_6  and  C_10
    2  A    between atoms: C_6  and  C_42
    3  A    between atoms: C_8  and  C_21
    4  A    between atoms: C_10  and  C_22
    5  A    between atoms: C_14  and  C_16
    6  A    between atoms: C_14  and  C_37
    7  A    between atoms: O_20  and  C_36
    8  A    between atoms: C_24  and  N_26
    9  A    between atoms: C_24  and  C_32
   10  A    between atoms: C_24  and  N_38
                            x       y       z     vdW  Elec       q    Type
                         _______ _______ _______ _____ _____    ______ ____

>  <TORSDO>
F 10

$$$$
=
 OpenBabel10232412043D

 42 47  0  0  1  0  0  0  0  0999 V2000
  189.4110  175.4660  136.1780 C   0  0  1  0  0  3  0  0  0  0  0  0
  186.2170  170.8220  135.2230 C   0  0  0  0  0  1  0  0  0  0  0  0
  187.1250  172.4890  136.7960 C   0  0  0  0  0  2  0  0  0  0  0  0
  187.0840  175.2300  135.8840 C   0  0  2  0  0  3  0  0  0  0  0  0
  184.8650  174.4920  135.7270 C   0  0  0  0  0  2  0  0  0  0  0  0
  185.0870  173.0550  135.2790 C   0  0  0  0  0  0  0  0  0  0  0  0
  184.2480  172.5970  134.4550 O   0  0  0  0  0  0  0  0  0  0  0  0
  185.9030  174.9750  136.7030 C   0  0  2  0  0  3  0  0  0  0  0  0
  188.3180  173.3110  136.2790 C   0  0  0  0  0  2  0  0  0  0  0  0
  188.2180  174.7380  136.6560 N   0  0  0  0  0  0  0  0  0  0  0  0
  186.3630  176.3540  136.5060 N   0  0  0  0  0  2  0  0  0  0  0  0
  186.1740  172.1890  135.7200 N   0  0  0  0  0  0  0  0  0  0  0  0
  188.7610  178.7120  137.5360 C   0  0  0  0  0  2  0  0  0  0  0  0
  189.2010  178.0520  135.2760 O   0  0  0  0  0  1  0  0  0  0  0  0
  188.9650  178.0110  138.8670 C   0  0  2  0  0  3  0  0  0  0  0  0
  189.7070  178.0170  136.5820 C   0  0  2  0  0  3  0  0  0  0  0  0
  189.2980  176.5690  138.5300 C   0  0  0  0  0  2  0  0  0  0  0  0
  189.8840  176.5970  137.1240 C   0  0  1  0  0  3  0  0  0  0  0  0
  187.7050  178.0740  139.7240 C   0  0  0  0  0  2  0  0  0  0  0  0
  189.3580  178.1520  141.6120 C   0  0  0  0  0  2  0  0  0  0  0  0
  189.1030  177.6700  143.0350 C   0  0  0  0  0  2  0  0  0  0  0  0
  187.0180  178.1790  142.0610 N   0  0  1  0  0  0  0  0  0  0  0  0
  187.7400  178.2520  143.3120 C   0  0  1  0  0  3  0  0  0  0  0  0
  186.9120  177.6340  144.3950 C   0  0  0  0  0  0  0  0  0  0  0  0
  187.3740  176.8150  145.1780 O   0  0  0  0  0  0  0  0  0  0  0  0
  185.8820  179.0880  142.1700 C   0  0  0  0  0  2  0  0  0  0  0  0
  185.4920  178.1260  144.5290 C   0  0  2  0  0  3  0  0  0  0  0  0
  188.0030  178.6530  141.1020 C   0  0  2  0  0  3  0  0  0  0  0  0
  184.8700  178.4730  143.1540 C   0  0  0  0  0  2  0  0  0  0  0  0
  185.4660  179.2530  145.3570 O   0  0  0  0  0  0  0  0  0  0  0  0
  185.5240  178.7440  146.6590 C   0  0  0  0  0  1  0  0  0  0  0  0
  191.2880  174.2860  138.0840 O   0  0  0  0  0  0  0  0  0  0  0  0
  191.4950  174.1110  136.8500 C   0  0  0  0  0  0  0  0  0  0  0  0
  190.5470  174.5830  135.8780 N   0  0  0  0  0  2  0  0  0  0  0  0
  192.7420  173.3920  136.4090 C   0  0  1  0  0  3  0  0  0  0  0  0
  193.0220  173.6350  134.9350 C   0  0  0  0  0  2  0  0  0  0  0  0
  193.8990  174.3130  135.9730 C   0  0  1  0  0  3  0  0  0  0  0  0
  193.5900  175.8150  136.0250 C   0  0  1  0  0  3  0  0  0  0  0  0
  194.1780  176.3640  137.1680 O   0  0  0  0  0  1  0  0  0  0  0  0
  194.1340  176.5280  134.7990 C   0  0  0  0  0  2  0  0  0  0  0  0
  195.5460  177.0410  135.0560 C   0  0  0  0  0  2  0  0  0  0  0  0
  195.4850  178.3700  135.4770 O   0  0  0  0  0  1  0  0  0  0  0  0
  1 34  1  1  0  0  0
  1 10  1  0  0  0  0
  2 12  1  0  0  0  0
  4 11  1  1  0  0  0
  4 10  1  0  0  0  0
  4  8  1  0  0  0  0
  6 12  1  0  0  0  0
  6  5  1  0  0  0  0
  7  6  2  0  0  0  0
  8  5  1  6  0  0  0
  9 10  1  0  0  0  0
  9  3  1  0  0  0  0
 11  8  1  0  0  0  0
 12  3  1  0  0  0  0
 13 15  1  0  0  0  0
 15 19  1  1  0  0  0
 16 14  1  6  0  0  0
 16 18  1  0  0  0  0
 16 13  1  0  0  0  0
 17 15  1  0  0  0  0
 18  1  1  6  0  0  0
 18 17  1  0  0  0  0
 20 21  1  0  0  0  0
 22 26  1  1  0  0  0
 22 23  1  0  0  0  0
 23 21  1  6  0  0  0
 23 24  1  0  0  0  0
 24 27  1  0  0  0  0
 24 25  2  0  0  0  0
 26 29  1  0  0  0  0
 27 30  1  1  0  0  0
 28 19  1  6  0  0  0
 28 20  1  0  0  0  0
 28 22  1  0  0  0  0
 29 27  1  0  0  0  0
 30 31  1  0  0  0  0
 33 32  2  0  0  0  0
 34 33  1  0  0  0  0
 35 33  1  1  0  0  0
 36 37  1  0  0  0  0
 36 35  1  0  0  0  0
 37 38  1  1  0  0  0
 37 35  1  0  0  0  0
 38 39  1  1  0  0  0
 40 41  1  0  0  0  0
 40 38  1  0  0  0  0
 41 42  1  0  0  0  0
M  END
>  <MODEL>
6

>  <REMARK>
 VINA RESULT:      -6.5      3.162      9.531
  Name = 
  10 active torsions:
  status: ('A' for Active; 'I' for Inactive)
    1  A    between atoms: C_6  and  C_10
    2  A    between atoms: C_6  and  C_42
    3  A    between atoms: C_8  and  C_21
    4  A    between atoms: C_10  and  C_22
    5  A    between atoms: C_14  and  C_16
    6  A    between atoms: C_14  and  C_37
    7  A    between atoms: O_20  and  C_36
    8  A    between atoms: C_24  and  N_26
    9  A    between atoms: C_24  and  C_32
   10  A    between atoms: C_24  and  N_38
                            x       y       z     vdW  Elec       q    Type
                         _______ _______ _______ _____ _____    ______ ____

>  <TORSDO>
F 10

$$$$
=
 OpenBabel10232412043D

 42 47  0  0  1  0  0  0  0  0999 V2000
  188.6380  176.5990  136.8170 C   0  0  1  0  0  3  0  0  0  0  0  0
  184.0360  173.5650  135.3050 C   0  0  0  0  0  1  0  0  0  0  0  0
  185.6100  174.3100  137.0490 C   0  0  0  0  0  2  0  0  0  0  0  0
  186.3410  177.1040  136.9730 C   0  0  2  0  0  3  0  0  0  0  0  0
  184.0000  177.0800  137.0930 C   0  0  0  0  0  2  0  0  0  0  0  0
  183.6950  175.8690  136.2240 C   0  0  0  0  0  0  0  0  0  0  0  0
  182.6630  175.9510  135.5040 O   0  0  0  0  0  0  0  0  0  0  0  0
  185.2460  176.9170  137.9200 C   0  0  2  0  0  3  0  0  0  0  0  0
  186.9330  174.9070  136.5410 C   0  0  0  0  0  2  0  0  0  0  0  0
  187.3400  176.1000  137.3150 N   0  0  0  0  0  0  0  0  0  0  0  0
  186.0970  178.1070  138.0240 N   0  0  0  0  0  2  0  0  0  0  0  0
  184.4930  174.6490  136.1620 N   0  0  0  0  0  0  0  0  0  0  0  0
  189.2570  178.8140  139.5580 C   0  0  0  0  0  2  0  0  0  0  0  0
  188.9540  179.2960  137.2310 O   0  0  0  0  0  1  0  0  0  0  0  0
  189.5620  177.5310  140.3080 C   0  0  2  0  0  3  0  0  0  0  0  0
  189.7200  178.5570  138.1420 C   0  0  2  0  0  3  0  0  0  0  0  0
  189.3920  176.4100  139.2990 C   0  0  0  0  0  2  0  0  0  0  0  0
  189.6160  177.0460  137.9320 C   0  0  1  0  0  3  0  0  0  0  0  0
  188.6070  177.3340  141.4810 C   0  0  0  0  0  2  0  0  0  0  0  0
  190.5960  178.0640  142.8270 C   0  0  0  0  0  2  0  0  0  0  0  0
  190.8760  177.6800  144.2750 C   0  0  0  0  0  2  0  0  0  0  0  0
  188.5560  177.4860  143.9130 N   0  0  1  0  0  0  0  0  0  0  0  0
  189.5250  177.8860  144.9100 C   0  0  1  0  0  3  0  0  0  0  0  0
  189.2290  177.1790  146.1950 C   0  0  0  0  0  0  0  0  0  0  0  0
  190.1000  176.6060  146.8360 O   0  0  0  0  0  0  0  0  0  0  0  0
  187.2710  178.0510  144.3150 C   0  0  0  0  0  2  0  0  0  0  0  0
  187.8140  177.2680  146.7110 C   0  0  2  0  0  3  0  0  0  0  0  0
  189.0700  178.1130  142.7060 C   0  0  2  0  0  3  0  0  0  0  0  0
  186.7800  177.2840  145.5580 C   0  0  0  0  0  2  0  0  0  0  0  0
  187.6730  178.4230  147.4870 O   0  0  0  0  0  0  0  0  0  0  0  0
  187.8570  177.9950  148.8050 C   0  0  0  0  0  1  0  0  0  0  0  0
  190.0070  174.1320  137.5820 O   0  0  0  0  0  0  0  0  0  0  0  0
  190.0620  174.5010  136.3750 C   0  0  0  0  0  0  0  0  0  0  0  0
  189.3230  175.6500  135.9290 N   0  0  0  0  0  2  0  0  0  0  0  0
  190.9050  173.7150  135.4060 C   0  0  1  0  0  3  0  0  0  0  0  0
  191.5220  174.6240  134.3550 C   0  0  0  0  0  2  0  0  0  0  0  0
  192.4100  174.0460  135.4430 C   0  0  1  0  0  3  0  0  0  0  0  0
  192.8110  175.1440  136.4360 C   0  0  1  0  0  3  0  0  0  0  0  0
  193.4060  174.5540  137.5560 O   0  0  0  0  0  1  0  0  0  0  0  0
  193.7950  176.1170  135.8090 C   0  0  0  0  0  2  0  0  0  0  0  0
  195.0850  175.4040  135.4220 C   0  0  0  0  0  2  0  0  0  0  0  0
  196.1290  175.8700  136.2210 O   0  0  0  0  0  1  0  0  0  0  0  0
  1 34  1  1  0  0  0
  1 10  1  0  0  0  0
  2 12  1  0  0  0  0
  4 10  1  0  0  0  0
  4  8  1  0  0  0  0
  4 11  1  1  0  0  0
  6  5  1  0  0  0  0
  7  6  2  0  0  0  0
  8  5  1  6  0  0  0
  8 11  1  0  0  0  0
  9  3  1  0  0  0  0
  9 10  1  0  0  0  0
 12  6  1  0  0  0  0
 12  3  1  0  0  0  0
 13 15  1  0  0  0  0
 15 19  1  1  0  0  0
 16 14  1  6  0  0  0
 16 13  1  0  0  0  0
 17 15  1  0  0  0  0
 18  1  1  6  0  0  0
 18 16  1  0  0  0  0
 18 17  1  0  0  0  0
 20 21  1  0  0  0  0
 22 26  1  1  0  0  0
 22 23  1  0  0  0  0
 23 21  1  6  0  0  0
 23 24  1  0  0  0  0
 24 27  1  0  0  0  0
 24 25  2  0  0  0  0
 26 29  1  0  0  0  0
 27 30  1  6  0  0  0
 28 19  1  6  0  0  0
 28 20  1  0  0  0  0
 28 22  1  0  0  0  0
 29 27  1  0  0  0  0
 30 31  1  0  0  0  0
 33 32  2  0  0  0  0
 34 33  1  0  0  0  0
 35 37  1  0  0  0  0
 35 33  1  1  0  0  0
 36 35  1  0  0  0  0
 36 37  1  0  0  0  0
 37 38  1  1  0  0  0
 38 39  1  1  0  0  0
 40 38  1  0  0  0  0
 41 40  1  0  0  0  0
 41 42  1  0  0  0  0
M  END
>  <MODEL>
7

>  <REMARK>
 VINA RESULT:      -6.4      2.416      9.177
  Name = 
  10 active torsions:
  status: ('A' for Active; 'I' for Inactive)
    1  A    between atoms: C_6  and  C_10
    2  A    between atoms: C_6  and  C_42
    3  A    between atoms: C_8  and  C_21
    4  A    between atoms: C_10  and  C_22
    5  A    between atoms: C_14  and  C_16
    6  A    between atoms: C_14  and  C_37
    7  A    between atoms: O_20  and  C_36
    8  A    between atoms: C_24  and  N_26
    9  A    between atoms: C_24  and  C_32
   10  A    between atoms: C_24  and  N_38
                            x       y       z     vdW  Elec       q    Type
                         _______ _______ _______ _____ _____    ______ ____

>  <TORSDO>
F 10

$$$$
=
 OpenBabel10232412043D

 42 47  0  0  1  0  0  0  0  0999 V2000
  188.3120  177.7290  141.2190 C   0  0  1  0  0  3  0  0  0  0  0  0
  184.1500  180.2880  144.1850 C   0  0  0  0  0  1  0  0  0  0  0  0
  184.9570  178.3450  142.9010 C   0  0  0  0  0  2  0  0  0  0  0  0
  187.6600  177.4970  143.4720 C   0  0  2  0  0  3  0  0  0  0  0  0
  186.5520  177.4690  145.5380 C   0  0  0  0  0  2  0  0  0  0  0  0
  185.6580  178.6900  145.3840 C   0  0  0  0  0  0  0  0  0  0  0  0
  185.4810  179.3800  146.4250 O   0  0  0  0  0  0  0  0  0  0  0  0
  186.7250  176.6970  144.2590 C   0  0  2  0  0  3  0  0  0  0  0  0
  186.2060  178.5900  142.0380 C   0  0  0  0  0  2  0  0  0  0  0  0
  187.1600  177.4610  142.1030 N   0  0  0  0  0  0  0  0  0  0  0  0
  188.0780  176.1880  144.0040 N   0  0  0  0  0  2  0  0  0  0  0  0
  185.0080  179.1130  144.1490 N   0  0  0  0  0  0  0  0  0  0  0  0
  187.6550  177.3340  137.7240 C   0  0  0  0  0  2  0  0  0  0  0  0
  189.6680  176.9450  138.9630 O   0  0  0  0  0  1  0  0  0  0  0  0
  186.3820  178.0940  138.0480 C   0  0  2  0  0  3  0  0  0  0  0  0
  188.6990  177.9090  138.6540 C   0  0  2  0  0  3  0  0  0  0  0  0
  186.4550  178.4120  139.5310 C   0  0  0  0  0  2  0  0  0  0  0  0
  187.9380  178.4150  139.8810 C   0  0  1  0  0  3  0  0  0  0  0  0
  185.1450  177.2530  137.7500 C   0  0  0  0  0  2  0  0  0  0  0  0
  184.7770  177.0130  135.2780 C   0  0  0  0  0  2  0  0  0  0  0  0
  183.9480  175.9250  134.6060 C   0  0  0  0  0  2  0  0  0  0  0  0
  184.6470  175.1080  136.7030 N   0  0  1  0  0  0  0  0  0  0  0  0
  184.4160  174.6930  135.3370 C   0  0  1  0  0  3  0  0  0  0  0  0
  183.5310  173.4860  135.3320 C   0  0  0  0  0  0  0  0  0  0  0  0
  182.5510  173.4030  134.6050 O   0  0  0  0  0  0  0  0  0  0  0  0
  185.4780  174.0840  137.3270 C   0  0  0  0  0  2  0  0  0  0  0  0
  183.9480  172.3340  136.2130 C   0  0  2  0  0  3  0  0  0  0  0  0
  185.3640  176.3620  136.5340 C   0  0  2  0  0  3  0  0  0  0  0  0
  184.6170  172.8220  137.5220 C   0  0  0  0  0  2  0  0  0  0  0  0
  184.8300  171.5060  135.5110 O   0  0  0  0  0  0  0  0  0  0  0  0
  184.3330  170.2120  135.6970 C   0  0  0  0  0  1  0  0  0  0  0  0
  191.0410  176.8470  141.7880 O   0  0  0  0  0  0  0  0  0  0  0  0
  190.6740  177.9790  142.2130 C   0  0  0  0  0  0  0  0  0  0  0  0
  189.3780  178.5000  141.8730 N   0  0  0  0  0  2  0  0  0  0  0  0
  191.6150  178.7800  143.0720 C   0  0  1  0  0  3  0  0  0  0  0  0
  190.9000  179.3440  144.2890 C   0  0  0  0  0  2  0  0  0  0  0  0
  191.8710  178.1920  144.4730 C   0  0  1  0  0  3  0  0  0  0  0  0
  191.1040  176.9000  144.7860 C   0  0  1  0  0  3  0  0  0  0  0  0
  191.9620  175.8080  144.6270 O   0  0  0  0  0  1  0  0  0  0  0  0
  190.5760  176.9090  146.2110 C   0  0  0  0  0  2  0  0  0  0  0  0
  191.5010  176.1260  147.1340 C   0  0  0  0  0  2  0  0  0  0  0  0
  191.9960  176.9760  148.1230 O   0  0  0  0  0  1  0  0  0  0  0  0
  1 34  1  1  0  0  0
  1 10  1  0  0  0  0
  3 12  1  0  0  0  0
  4 11  1  6  0  0  0
  4  8  1  0  0  0  0
  6  5  1  0  0  0  0
  6  7  2  0  0  0  0
  8  5  1  1  0  0  0
  9 10  1  0  0  0  0
  9  3  1  0  0  0  0
 10  4  1  0  0  0  0
 11  8  1  0  0  0  0
 12  2  1  0  0  0  0
 12  6  1  0  0  0  0
 13 15  1  0  0  0  0
 13 16  1  0  0  0  0
 15 19  1  1  0  0  0
 15 17  1  0  0  0  0
 16 14  1  1  0  0  0
 16 18  1  0  0  0  0
 17 18  1  0  0  0  0
 18  1  1  1  0  0  0
 20 28  1  0  0  0  0
 21 20  1  0  0  0  0
 22 26  1  1  0  0  0
 23 21  1  6  0  0  0
 23 22  1  0  0  0  0
 24 23  1  0  0  0  0
 24 27  1  0  0  0  0
 25 24  2  0  0  0  0
 26 29  1  0  0  0  0
 27 30  1  6  0  0  0
 27 29  1  0  0  0  0
 28 22  1  0  0  0  0
 28 19  1  1  0  0  0
 30 31  1  0  0  0  0
 32 33  2  0  0  0  0
 34 33  1  0  0  0  0
 35 33  1  6  0  0  0
 35 36  1  0  0  0  0
 35 37  1  0  0  0  0
 36 37  1  0  0  0  0
 37 38  1  6  0  0  0
 38 39  1  1  0  0  0
 38 40  1  0  0  0  0
 40 41  1  0  0  0  0
 41 42  1  0  0  0  0
M  END
>  <MODEL>
8

>  <REMARK>
 VINA RESULT:      -6.3      4.255      7.938
  Name = 
  10 active torsions:
  status: ('A' for Active; 'I' for Inactive)
    1  A    between atoms: C_6  and  C_10
    2  A    between atoms: C_6  and  C_42
    3  A    between atoms: C_8  and  C_21
    4  A    between atoms: C_10  and  C_22
    5  A    between atoms: C_14  and  C_16
    6  A    between atoms: C_14  and  C_37
    7  A    between atoms: O_20  and  C_36
    8  A    between atoms: C_24  and  N_26
    9  A    between atoms: C_24  and  C_32
   10  A    between atoms: C_24  and  N_38
                            x       y       z     vdW  Elec       q    Type
                         _______ _______ _______ _____ _____    ______ ____

>  <TORSDO>
F 10

$$$$
=
 OpenBabel10232412043D

 42 47  0  0  1  0  0  0  0  0999 V2000
  189.4670  175.7590  137.3950 C   0  0  1  0  0  3  0  0  0  0  0  0
  194.7250  173.5240  137.5630 C   0  0  0  0  0  1  0  0  0  0  0  0
  192.4620  173.5570  136.5880 C   0  0  0  0  0  2  0  0  0  0  0  0
  191.3610  176.1750  136.0560 C   0  0  2  0  0  3  0  0  0  0  0  0
  193.4010  176.1140  134.9010 C   0  0  0  0  0  2  0  0  0  0  0  0
  194.2460  175.3170  135.8830 C   0  0  0  0  0  0  0  0  0  0  0  0
  195.4540  175.6660  135.9830 O   0  0  0  0  0  0  0  0  0  0  0  0
  191.9710  175.6500  134.8370 C   0  0  2  0  0  3  0  0  0  0  0  0
  191.3940  174.2970  137.4110 C   0  0  0  0  0  2  0  0  0  0  0  0
  190.5000  175.1130  136.5590 N   0  0  0  0  0  0  0  0  0  0  0  0
  190.9640  176.7130  134.7420 N   0  0  0  0  0  2  0  0  0  0  0  0
  193.7710  174.2070  136.7010 N   0  0  0  0  0  0  0  0  0  0  0  0
  188.9140  177.9040  140.2040 C   0  0  0  0  0  2  0  0  0  0  0  0
  187.6560  177.6700  138.1790 O   0  0  0  0  0  1  0  0  0  0  0  0
  190.3140  177.4710  140.5980 C   0  0  2  0  0  3  0  0  0  0  0  0
  188.9300  177.9470  138.6930 C   0  0  2  0  0  3  0  0  0  0  0  0
  190.7870  176.5440  139.4930 C   0  0  0  0  0  2  0  0  0  0  0  0
  189.9910  176.9360  138.2540 C   0  0  1  0  0  3  0  0  0  0  0  0
  190.3100  176.7380  141.9350 C   0  0  0  0  0  2  0  0  0  0  0  0
  191.5310  177.8200  143.8440 C   0  0  0  0  0  2  0  0  0  0  0  0
  191.1850  177.6650  145.3210 C   0  0  0  0  0  2  0  0  0  0  0  0
  189.2370  177.2180  144.0710 N   0  0  1  0  0  0  0  0  0  0  0  0
  189.6870  177.8350  145.2990 C   0  0  1  0  0  3  0  0  0  0  0  0
  188.8950  177.2870  146.4450 C   0  0  0  0  0  0  0  0  0  0  0  0
  189.4280  176.8880  147.4710 O   0  0  0  0  0  0  0  0  0  0  0  0
  187.8900  177.7150  143.8110 C   0  0  0  0  0  2  0  0  0  0  0  0
  187.3920  177.3210  146.3090 C   0  0  2  0  0  3  0  0  0  0  0  0
  190.1970  177.7150  143.0990 C   0  0  2  0  0  3  0  0  0  0  0  0
  186.9390  177.0860  144.8470 C   0  0  0  0  0  2  0  0  0  0  0  0
  186.9120  178.5550  146.7610 O   0  0  0  0  0  0  0  0  0  0  0  0
  185.5230  178.4730  146.6190 C   0  0  0  0  0  1  0  0  0  0  0  0
  187.9360  174.2170  135.4380 O   0  0  0  0  0  0  0  0  0  0  0  0
  187.6430  175.4350  135.6070 C   0  0  0  0  0  0  0  0  0  0  0  0
  188.2970  176.2070  136.6270 N   0  0  0  0  0  2  0  0  0  0  0  0
  186.5920  176.0640  134.7310 C   0  0  1  0  0  3  0  0  0  0  0  0
  185.5230  175.0550  134.3460 C   0  0  0  0  0  2  0  0  0  0  0  0
  185.1860  176.1350  135.3580 C   0  0  1  0  0  3  0  0  0  0  0  0
  185.0680  175.5240  136.7610 C   0  0  1  0  0  3  0  0  0  0  0  0
  184.5210  176.4740  137.6290 O   0  0  0  0  0  1  0  0  0  0  0  0
  184.1770  174.2940  136.7490 C   0  0  0  0  0  2  0  0  0  0  0  0
  184.6990  173.2400  137.7180 C   0  0  0  0  0  2  0  0  0  0  0  0
  185.7320  172.5250  137.1100 O   0  0  0  0  0  1  0  0  0  0  0  0
  1 34  1  6  0  0  0
  3 12  1  0  0  0  0
  3  9  1  0  0  0  0
  4 11  1  6  0  0  0
  4 10  1  0  0  0  0
  5  6  1  0  0  0  0
  6  7  2  0  0  0  0
  6 12  1  0  0  0  0
  8  5  1  1  0  0  0
  8  4  1  0  0  0  0
 10  1  1  0  0  0  0
 10  9  1  0  0  0  0
 11  8  1  0  0  0  0
 12  2  1  0  0  0  0
 13 15  1  0  0  0  0
 15 19  1  1  0  0  0
 16 14  1  6  0  0  0
 16 13  1  0  0  0  0
 17 15  1  0  0  0  0
 18  1  1  1  0  0  0
 18 16  1  0  0  0  0
 18 17  1  0  0  0  0
 20 21  1  0  0  0  0
 22 26  1  6  0  0  0
 22 23  1  0  0  0  0
 23 21  1  1  0  0  0
 23 24  1  0  0  0  0
 24 25  2  0  0  0  0
 26 29  1  0  0  0  0
 27 24  1  0  0  0  0
 27 30  1  6  0  0  0
 28 19  1  6  0  0  0
 28 20  1  0  0  0  0
 28 22  1  0  0  0  0
 29 27  1  0  0  0  0
 31 30  1  0  0  0  0
 32 33  2  0  0  0  0
 33 34  1  0  0  0  0
 35 37  1  0  0  0  0
 35 33  1  1  0  0  0
 36 35  1  0  0  0  0
 36 37  1  0  0  0  0
 37 38  1  1  0  0  0
 38 39  1  1  0  0  0
 40 38  1  0  0  0  0
 40 41  1  0  0  0  0
 42 41  1  0  0  0  0
M  END
>  <MODEL>
9

>  <REMARK>
 VINA RESULT:      -6.3      2.477      7.917
  Name = 
  10 active torsions:
  status: ('A' for Active; 'I' for Inactive)
    1  A    between atoms: C_6  and  C_10
    2  A    between atoms: C_6  and  C_42
    3  A    between atoms: C_8  and  C_21
    4  A    between atoms: C_10  and  C_22
    5  A    between atoms: C_14  and  C_16
    6  A    between atoms: C_14  and  C_37
    7  A    between atoms: O_20  and  C_36
    8  A    between atoms: C_24  and  N_26
    9  A    between atoms: C_24  and  C_32
   10  A    between atoms: C_24  and  N_38
                            x       y       z     vdW  Elec       q    Type
                         _______ _______ _______ _____ _____    ______ ____

>  <TORSDO>
F 10

$$$$
