=
 OpenBabel10232409443D

 25 27  0  0  1  0  0  0  0  0999 V2000
  189.0330  176.5530  142.3420 C   0  0  0  0  0  2  0  0  0  0  0  0
  187.5980  178.2360  138.1990 O   0  0  0  0  0  0  0  0  0  0  0  0
  187.8360  178.8220  140.9380 C   0  0  0  0  0  2  0  0  0  0  0  0
  188.4030  177.7160  143.1180 C   0  0  0  0  0  3  0  0  0  0  0  0
  189.6120  177.0520  141.0230 C   0  0  0  0  0  2  0  0  0  0  0  0
  187.2760  178.3020  142.2580 C   0  0  0  0  0  2  0  0  0  0  0  0
  188.4290  177.5520  138.8550 C   0  0  0  0  0  0  0  0  0  0  0  0
  188.5800  177.7590  140.2670 N   0  0  0  0  0  0  0  0  0  0  0  0
  184.5480  178.4900  145.0680 C   0  0  0  0  0  0  0  0  0  0  0  0
  185.5510  177.9940  144.3910 N   0  0  0  0  0  0  0  0  0  0  0  0
  187.9020  177.2410  144.4260 N   0  0  1  0  0  0  0  0  0  0  0  0
  183.3000  178.4740  144.5400 F   0  0  0  0  0  0  0  0  0  0  0  0
  188.2450  177.7130  146.8130 C   0  0  1  0  0  3  0  0  0  0  0  0
  185.8590  178.7250  147.0570 C   0  0  0  0  0  3  0  0  0  0  0  0
  186.8050  177.7630  146.4120 C   0  0  1  0  0  3  0  0  0  0  0  0
  188.4440  176.6630  147.8880 C   0  0  0  0  0  1  0  0  0  0  0  0
  184.7650  179.0140  146.4020 N   0  0  0  0  0  0  0  0  0  0  0  0
  190.1000  178.2290  145.2650 C   0  0  0  0  0  1  0  0  0  0  0  0
  188.9330  177.2690  145.5110 C   0  0  2  0  0  3  0  0  0  0  0  0
  186.8870  178.1320  144.9710 C   0  0  2  0  0  3  0  0  0  0  0  0
  189.2140  176.5010  138.1440 C   0  0  0  0  0  2  0  0  0  0  0  0
  190.3360  177.1120  137.4510 N   0  0  0  0  0  2  0  0  0  0  0  0
  191.5400  176.4430  137.9120 C   0  0  0  0  0  2  0  0  0  0  0  0
  192.1930  174.3770  137.5010 C   0  0  0  0  0  1  0  0  0  0  0  0
  191.2510  175.1120  138.2190 O   0  0  0  0  0  0  0  0  0  0  0  0
  1  4  1  0  0  0  0
  2  7  2  0  0  0  0
  3  6  1  0  0  0  0
  5  1  1  0  0  0  0
  6  4  1  0  0  0  0
  7  8  1  0  0  0  0
  8  3  1  0  0  0  0
  8  5  1  0  0  0  0
  9 17  1  0  0  0  0
 10  9  2  0  0  0  0
 11  4  1  6  0  0  0
 11 20  1  0  0  0  0
 11 19  1  0  0  0  0
 12  9  1  0  0  0  0
 13 16  1  1  0  0  0
 15 13  1  0  0  0  0
 15 14  1  1  0  0  0
 17 14  2  0  0  0  0
 19 18  1  6  0  0  0
 19 13  1  0  0  0  0
 20 10  1  6  0  0  0
 20 15  1  0  0  0  0
 21  7  1  0  0  0  0
 22 23  1  0  0  0  0
 22 21  1  0  0  0  0
 23 25  1  0  0  0  0
 24 25  1  0  0  0  0
M  END
>  <MODEL>
1

>  <REMARK>
 VINA RESULT:      -8.1      0.000      0.000
  Name = 
  5 active torsions:
  status: ('A' for Active; 'I' for Inactive)
    1  A    between atoms: N_4  and  C_15
    2  A    between atoms: O_8  and  C_16
    3  A    between atoms: C_10  and  N_12
    4  A    between atoms: C_10  and  C_23
    5  A    between atoms: N_12  and  C_16
                            x       y       z     vdW  Elec       q    Type
                         _______ _______ _______ _____ _____    ______ ____

>  <TORSDO>
F 5

$$$$
=
 OpenBabel10232409443D

 25 27  0  0  1  0  0  0  0  0999 V2000
  190.0710  176.8720  141.6780 C   0  0  0  0  0  2  0  0  0  0  0  0
  186.8380  178.2580  138.5660 O   0  0  0  0  0  0  0  0  0  0  0  0
  187.8480  178.6980  141.1520 C   0  0  0  0  0  2  0  0  0  0  0  0
  189.4450  177.6980  142.8090 C   0  0  0  0  0  3  0  0  0  0  0  0
  189.9730  177.6280  140.3570 C   0  0  0  0  0  2  0  0  0  0  0  0
  187.9680  177.9300  142.4650 C   0  0  0  0  0  2  0  0  0  0  0  0
  188.0080  177.8500  138.7940 C   0  0  0  0  0  0  0  0  0  0  0  0
  188.5810  177.9970  140.1020 N   0  0  0  0  0  0  0  0  0  0  0  0
  186.7860  177.6650  146.2990 C   0  0  0  0  0  0  0  0  0  0  0  0
  187.4250  177.4060  145.1880 N   0  0  0  0  0  0  0  0  0  0  0  0
  189.6020  176.9940  144.0990 N   0  0  1  0  0  0  0  0  0  0  0  0
  185.4370  177.5410  146.3510 F   0  0  0  0  0  0  0  0  0  0  0  0
  190.9190  177.1970  146.1630 C   0  0  1  0  0  3  0  0  0  0  0  0
  188.8140  177.8230  147.5610 C   0  0  0  0  0  3  0  0  0  0  0  0
  189.4490  177.0950  146.4200 C   0  0  1  0  0  3  0  0  0  0  0  0
  191.6420  176.0550  146.8510 C   0  0  0  0  0  1  0  0  0  0  0  0
  187.5270  178.0380  147.4890 N   0  0  0  0  0  0  0  0  0  0  0  0
  191.8690  178.1640  144.0980 C   0  0  0  0  0  1  0  0  0  0  0  0
  190.9990  177.0250  144.6370 C   0  0  2  0  0  3  0  0  0  0  0  0
  188.8670  177.6550  145.1680 C   0  0  2  0  0  3  0  0  0  0  0  0
  188.7610  177.1760  137.6970 C   0  0  0  0  0  2  0  0  0  0  0  0
  188.3570  175.7820  137.6100 N   0  0  0  0  0  2  0  0  0  0  0  0
  189.5090  175.0310  137.1440 C   0  0  0  0  0  2  0  0  0  0  0  0
  191.6500  174.6180  137.4770 C   0  0  0  0  0  1  0  0  0  0  0  0
  190.4860  175.0000  138.1410 O   0  0  0  0  0  0  0  0  0  0  0  0
  1  4  1  0  0  0  0
  2  7  2  0  0  0  0
  3  6  1  0  0  0  0
  5  1  1  0  0  0  0
  6  4  1  0  0  0  0
  7  8  1  0  0  0  0
  8  5  1  0  0  0  0
  8  3  1  0  0  0  0
  9 12  1  0  0  0  0
  9 17  1  0  0  0  0
 10  9  2  0  0  0  0
 11  4  1  6  0  0  0
 11 19  1  0  0  0  0
 11 20  1  0  0  0  0
 13 15  1  0  0  0  0
 13 16  1  1  0  0  0
 15 14  1  1  0  0  0
 17 14  2  0  0  0  0
 19 18  1  6  0  0  0
 19 13  1  0  0  0  0
 20 10  1  6  0  0  0
 20 15  1  0  0  0  0
 21  7  1  0  0  0  0
 22 21  1  0  0  0  0
 23 22  1  0  0  0  0
 23 25  1  0  0  0  0
 24 25  1  0  0  0  0
M  END
>  <MODEL>
2

>  <REMARK>
 VINA RESULT:      -8.0      1.540      2.035
  Name = 
  5 active torsions:
  status: ('A' for Active; 'I' for Inactive)
    1  A    between atoms: N_4  and  C_15
    2  A    between atoms: O_8  and  C_16
    3  A    between atoms: C_10  and  N_12
    4  A    between atoms: C_10  and  C_23
    5  A    between atoms: N_12  and  C_16
                            x       y       z     vdW  Elec       q    Type
                         _______ _______ _______ _____ _____    ______ ____

>  <TORSDO>
F 5

$$$$
=
 OpenBabel10232409443D

 25 27  0  0  1  0  0  0  0  0999 V2000
  189.9580  176.7420  141.8290 C   0  0  0  0  0  2  0  0  0  0  0  0
  186.7720  178.2990  138.7500 O   0  0  0  0  0  0  0  0  0  0  0  0
  187.8720  178.7220  141.3020 C   0  0  0  0  0  2  0  0  0  0  0  0
  189.4250  177.6410  142.9500 C   0  0  0  0  0  3  0  0  0  0  0  0
  189.8890  177.4700  140.4900 C   0  0  0  0  0  2  0  0  0  0  0  0
  187.9630  177.9790  142.6310 C   0  0  0  0  0  2  0  0  0  0  0  0
  187.9130  177.8070  138.9640 C   0  0  0  0  0  0  0  0  0  0  0  0
  188.5250  177.9400  140.2550 N   0  0  0  0  0  0  0  0  0  0  0  0
  186.7330  177.7240  146.4150 C   0  0  0  0  0  0  0  0  0  0  0  0
  187.3770  177.4320  145.3150 N   0  0  0  0  0  0  0  0  0  0  0  0
  189.5560  176.9580  144.2550 N   0  0  1  0  0  0  0  0  0  0  0  0
  185.3820  177.6270  146.4550 F   0  0  0  0  0  0  0  0  0  0  0  0
  190.8580  177.1760  146.3280 C   0  0  1  0  0  3  0  0  0  0  0  0
  188.7520  177.8680  147.6930 C   0  0  0  0  0  3  0  0  0  0  0  0
  189.3830  177.1070  146.5720 C   0  0  1  0  0  3  0  0  0  0  0  0
  191.5520  176.0340  147.0440 C   0  0  0  0  0  1  0  0  0  0  0  0
  187.4690  178.1050  147.6050 N   0  0  0  0  0  0  0  0  0  0  0  0
  191.8450  178.0850  144.2540 C   0  0  0  0  0  1  0  0  0  0  0  0
  190.9480  176.9740  144.8060 C   0  0  2  0  0  3  0  0  0  0  0  0
  188.8230  177.6530  145.3040 C   0  0  2  0  0  3  0  0  0  0  0  0
  188.5850  177.0500  137.8690 C   0  0  0  0  0  2  0  0  0  0  0  0
  189.0540  177.9740  136.8500 N   0  0  0  0  0  2  0  0  0  0  0  0
  188.3960  177.6110  135.6070 C   0  0  0  0  0  2  0  0  0  0  0  0
  186.3090  177.4320  134.9190 C   0  0  0  0  0  1  0  0  0  0  0  0
  187.2110  178.3370  135.4720 O   0  0  0  0  0  0  0  0  0  0  0  0
  1  4  1  0  0  0  0
  2  7  2  0  0  0  0
  3  6  1  0  0  0  0
  5  1  1  0  0  0  0
  6  4  1  0  0  0  0
  7  8  1  0  0  0  0
  8  5  1  0  0  0  0
  8  3  1  0  0  0  0
  9 12  1  0  0  0  0
  9 17  1  0  0  0  0
 10  9  2  0  0  0  0
 11  4  1  6  0  0  0
 11 19  1  0  0  0  0
 11 20  1  0  0  0  0
 13 15  1  0  0  0  0
 13 16  1  1  0  0  0
 15 14  1  1  0  0  0
 17 14  2  0  0  0  0
 19 18  1  6  0  0  0
 19 13  1  0  0  0  0
 20 10  1  6  0  0  0
 20 15  1  0  0  0  0
 21  7  1  0  0  0  0
 22 21  1  0  0  0  0
 23 22  1  0  0  0  0
 24 25  1  0  0  0  0
 25 23  1  0  0  0  0
M  END
>  <MODEL>
3

>  <REMARK>
 VINA RESULT:      -7.8      2.080      2.759
  Name = 
  5 active torsions:
  status: ('A' for Active; 'I' for Inactive)
    1  A    between atoms: N_4  and  C_15
    2  A    between atoms: O_8  and  C_16
    3  A    between atoms: C_10  and  N_12
    4  A    between atoms: C_10  and  C_23
    5  A    between atoms: N_12  and  C_16
                            x       y       z     vdW  Elec       q    Type
                         _______ _______ _______ _____ _____    ______ ____

>  <TORSDO>
F 5

$$$$
=
 OpenBabel10232409443D

 25 27  0  0  1  0  0  0  0  0999 V2000
  190.1330  176.6890  142.1980 C   0  0  0  0  0  2  0  0  0  0  0  0
  189.2260  177.4480  137.6530 O   0  0  0  0  0  0  0  0  0  0  0  0
  188.6990  178.3480  140.2630 C   0  0  0  0  0  2  0  0  0  0  0  0
  189.0590  177.6820  142.6560 C   0  0  0  0  0  3  0  0  0  0  0  0
  190.8260  177.2040  140.9410 C   0  0  0  0  0  2  0  0  0  0  0  0
  188.0290  177.8190  141.5270 C   0  0  0  0  0  2  0  0  0  0  0  0
  190.0500  177.1110  138.5460 C   0  0  0  0  0  0  0  0  0  0  0  0
  189.8300  177.4930  139.9110 N   0  0  0  0  0  0  0  0  0  0  0  0
  184.9720  178.3000  144.1310 C   0  0  0  0  0  0  0  0  0  0  0  0
  186.0700  177.8410  143.5870 N   0  0  0  0  0  0  0  0  0  0  0  0
  188.4350  177.2130  143.9110 N   0  0  1  0  0  0  0  0  0  0  0  0
  183.7950  178.2070  143.4650 F   0  0  0  0  0  0  0  0  0  0  0  0
  188.4780  177.7580  146.3070 C   0  0  1  0  0  3  0  0  0  0  0  0
  186.0320  178.6500  146.2490 C   0  0  0  0  0  3  0  0  0  0  0  0
  187.0930  177.7230  145.7440 C   0  0  1  0  0  3  0  0  0  0  0  0
  188.6030  176.7450  147.4280 C   0  0  0  0  0  1  0  0  0  0  0  0
  185.0080  178.8660  145.4660 N   0  0  0  0  0  0  0  0  0  0  0  0
  190.4710  178.3340  144.9660 C   0  0  0  0  0  1  0  0  0  0  0  0
  189.3320  177.3200  145.1060 C   0  0  2  0  0  3  0  0  0  0  0  0
  187.3220  178.0620  144.3110 C   0  0  2  0  0  3  0  0  0  0  0  0
  191.2240  176.2750  138.1610 C   0  0  0  0  0  2  0  0  0  0  0  0
  190.8380  174.8750  138.1250 N   0  0  0  0  0  2  0  0  0  0  0  0
  191.6760  174.2250  137.1320 C   0  0  0  0  0  2  0  0  0  0  0  0
  193.7780  174.1810  136.4670 C   0  0  0  0  0  1  0  0  0  0  0  0
  192.9830  174.1280  137.6110 O   0  0  0  0  0  0  0  0  0  0  0  0
  1  4  1  0  0  0  0
  2  7  2  0  0  0  0
  3  6  1  0  0  0  0
  5  1  1  0  0  0  0
  6  4  1  0  0  0  0
  7  8  1  0  0  0  0
  8  3  1  0  0  0  0
  8  5  1  0  0  0  0
  9 17  1  0  0  0  0
 10  9  2  0  0  0  0
 11  4  1  6  0  0  0
 11 20  1  0  0  0  0
 11 19  1  0  0  0  0
 12  9  1  0  0  0  0
 13 16  1  1  0  0  0
 15 14  1  1  0  0  0
 15 13  1  0  0  0  0
 17 14  2  0  0  0  0
 19 18  1  6  0  0  0
 19 13  1  0  0  0  0
 20 10  1  6  0  0  0
 20 15  1  0  0  0  0
 21  7  1  0  0  0  0
 22 21  1  0  0  0  0
 23 25  1  0  0  0  0
 23 22  1  0  0  0  0
 24 25  1  0  0  0  0
M  END
>  <MODEL>
4

>  <REMARK>
 VINA RESULT:      -7.5      1.183      1.352
  Name = 
  5 active torsions:
  status: ('A' for Active; 'I' for Inactive)
    1  A    between atoms: N_4  and  C_15
    2  A    between atoms: O_8  and  C_16
    3  A    between atoms: C_10  and  N_12
    4  A    between atoms: C_10  and  C_23
    5  A    between atoms: N_12  and  C_16
                            x       y       z     vdW  Elec       q    Type
                         _______ _______ _______ _____ _____    ______ ____

>  <TORSDO>
F 5

$$$$
=
 OpenBabel10232409443D

 25 27  0  0  1  0  0  0  0  0999 V2000
  185.1190  177.9170  142.2830 C   0  0  0  0  0  2  0  0  0  0  0  0
  180.9120  179.3740  143.7780 O   0  0  0  0  0  0  0  0  0  0  0  0
  183.6610  179.3570  144.3690 C   0  0  0  0  0  2  0  0  0  0  0  0
  185.8050  178.3080  143.5970 C   0  0  0  0  0  3  0  0  0  0  0  0
  184.0440  178.9370  141.9250 C   0  0  0  0  0  2  0  0  0  0  0  0
  184.7390  178.3310  144.7000 C   0  0  0  0  0  2  0  0  0  0  0  0
  181.6970  179.1540  142.8170 C   0  0  0  0  0  0  0  0  0  0  0  0
  183.1130  179.0850  143.0420 N   0  0  0  0  0  0  0  0  0  0  0  0
  187.9650  177.6800  147.3650 C   0  0  0  0  0  0  0  0  0  0  0  0
  187.1460  177.6250  146.3470 N   0  0  0  0  0  0  0  0  0  0  0  0
  186.8920  177.3550  143.9070 N   0  0  1  0  0  0  0  0  0  0  0  0
  187.4820  177.6010  148.6290 F   0  0  0  0  0  0  0  0  0  0  0  0
  189.2950  177.0900  143.4660 C   0  0  1  0  0  3  0  0  0  0  0  0
  189.8980  177.5050  145.9650 C   0  0  0  0  0  3  0  0  0  0  0  0
  188.9570  176.9960  144.9200 C   0  0  1  0  0  3  0  0  0  0  0  0
  189.9600  175.8080  143.0080 C   0  0  0  0  0  1  0  0  0  0  0  0
  189.3940  177.7790  147.1390 N   0  0  0  0  0  0  0  0  0  0  0  0
  187.9730  178.4130  141.8520 C   0  0  0  0  0  1  0  0  0  0  0  0
  187.9080  177.2240  142.8150 C   0  0  2  0  0  3  0  0  0  0  0  0
  187.7170  177.8170  145.0140 C   0  0  2  0  0  3  0  0  0  0  0  0
  181.1230  178.9230  141.4590 C   0  0  0  0  0  2  0  0  0  0  0  0
  180.2880  177.7340  141.4760 N   0  0  0  0  0  2  0  0  0  0  0  0
  180.5630  176.9990  140.2540 C   0  0  0  0  0  2  0  0  0  0  0  0
  182.4950  176.1630  139.5960 C   0  0  0  0  0  1  0  0  0  0  0  0
  181.8130  177.3680  139.7550 O   0  0  0  0  0  0  0  0  0  0  0  0
  1  4  1  0  0  0  0
  3  6  1  0  0  0  0
  4  6  1  0  0  0  0
  5  1  1  0  0  0  0
  5  8  1  0  0  0  0
  7  8  1  0  0  0  0
  7  2  2  0  0  0  0
  8  3  1  0  0  0  0
  9 12  1  0  0  0  0
 10  9  2  0  0  0  0
 11  4  1  6  0  0  0
 11 20  1  0  0  0  0
 13 16  1  6  0  0  0
 13 15  1  0  0  0  0
 14 17  2  0  0  0  0
 15 20  1  0  0  0  0
 15 14  1  1  0  0  0
 17  9  1  0  0  0  0
 19 18  1  6  0  0  0
 19 13  1  0  0  0  0
 19 11  1  0  0  0  0
 20 10  1  1  0  0  0
 21 22  1  0  0  0  0
 21  7  1  0  0  0  0
 23 22  1  0  0  0  0
 24 25  1  0  0  0  0
 25 23  1  0  0  0  0
M  END
>  <MODEL>
5

>  <REMARK>
 VINA RESULT:      -7.1      3.825      6.265
  Name = 
  5 active torsions:
  status: ('A' for Active; 'I' for Inactive)
    1  A    between atoms: N_4  and  C_15
    2  A    between atoms: O_8  and  C_16
    3  A    between atoms: C_10  and  N_12
    4  A    between atoms: C_10  and  C_23
    5  A    between atoms: N_12  and  C_16
                            x       y       z     vdW  Elec       q    Type
                         _______ _______ _______ _____ _____    ______ ____

>  <TORSDO>
F 5

$$$$
=
 OpenBabel10232409443D

 25 27  0  0  1  0  0  0  0  0999 V2000
  187.9540  178.5760  141.8330 C   0  0  0  0  0  2  0  0  0  0  0  0
  191.0540  177.2380  138.5680 O   0  0  0  0  0  0  0  0  0  0  0  0
  189.9750  176.5990  141.0850 C   0  0  0  0  0  2  0  0  0  0  0  0
  188.4760  177.5570  142.8540 C   0  0  0  0  0  3  0  0  0  0  0  0
  187.9850  177.9800  140.4300 C   0  0  0  0  0  2  0  0  0  0  0  0
  189.9230  177.2120  142.4800 C   0  0  0  0  0  2  0  0  0  0  0  0
  189.9310  177.7390  138.8470 C   0  0  0  0  0  0  0  0  0  0  0  0
  189.3320  177.4970  140.1290 N   0  0  0  0  0  0  0  0  0  0  0  0
  190.9690  176.7330  146.3700 C   0  0  0  0  0  0  0  0  0  0  0  0
  190.4230  177.2260  145.2880 N   0  0  0  0  0  0  0  0  0  0  0  0
  188.3820  178.1140  144.2200 N   0  0  1  0  0  0  0  0  0  0  0  0
  192.3180  176.6310  146.4620 F   0  0  0  0  0  0  0  0  0  0  0  0
  186.9690  177.8720  146.2160 C   0  0  1  0  0  3  0  0  0  0  0  0
  188.8940  176.7480  147.5620 C   0  0  0  0  0  3  0  0  0  0  0  0
  188.4260  177.7040  146.5120 C   0  0  1  0  0  3  0  0  0  0  0  0
  186.4080  179.0210  147.0310 C   0  0  0  0  0  1  0  0  0  0  0  0
  190.1330  176.3400  147.4880 N   0  0  0  0  0  0  0  0  0  0  0  0
  185.9610  177.3320  144.0270 C   0  0  0  0  0  1  0  0  0  0  0  0
  186.9770  178.2400  144.7230 C   0  0  2  0  0  3  0  0  0  0  0  0
  188.9620  177.2170  145.2090 C   0  0  2  0  0  3  0  0  0  0  0  0
  189.2660  178.6170  137.8410 C   0  0  0  0  0  2  0  0  0  0  0  0
  188.7200  177.8050  136.7670 N   0  0  0  0  0  2  0  0  0  0  0  0
  187.4940  178.4470  136.3250 C   0  0  0  0  0  2  0  0  0  0  0  0
  185.7130  177.8370  137.4740 C   0  0  0  0  0  1  0  0  0  0  0  0
  186.7210  178.7980  137.4330 O   0  0  0  0  0  0  0  0  0  0  0  0
  1  4  1  0  0  0  0
  2  7  2  0  0  0  0
  3  6  1  0  0  0  0
  5  1  1  0  0  0  0
  6  4  1  0  0  0  0
  7  8  1  0  0  0  0
  8  5  1  0  0  0  0
  8  3  1  0  0  0  0
  9 12  1  0  0  0  0
  9 17  1  0  0  0  0
 10  9  2  0  0  0  0
 11  4  1  6  0  0  0
 11 19  1  0  0  0  0
 11 20  1  0  0  0  0
 13 15  1  0  0  0  0
 13 16  1  1  0  0  0
 15 14  1  1  0  0  0
 17 14  2  0  0  0  0
 19 18  1  6  0  0  0
 19 13  1  0  0  0  0
 20 10  1  1  0  0  0
 20 15  1  0  0  0  0
 21  7  1  0  0  0  0
 22 21  1  0  0  0  0
 23 22  1  0  0  0  0
 23 25  1  0  0  0  0
 25 24  1  0  0  0  0
M  END
>  <MODEL>
6

>  <REMARK>
 VINA RESULT:      -7.0      2.577      4.095
  Name = 
  5 active torsions:
  status: ('A' for Active; 'I' for Inactive)
    1  A    between atoms: N_4  and  C_15
    2  A    between atoms: O_8  and  C_16
    3  A    between atoms: C_10  and  N_12
    4  A    between atoms: C_10  and  C_23
    5  A    between atoms: N_12  and  C_16
                            x       y       z     vdW  Elec       q    Type
                         _______ _______ _______ _____ _____    ______ ____

>  <TORSDO>
F 5

$$$$
=
 OpenBabel10232409443D

 25 27  0  0  1  0  0  0  0  0999 V2000
  186.2060  177.6690  142.5580 C   0  0  0  0  0  2  0  0  0  0  0  0
  181.8910  179.0760  143.7670 O   0  0  0  0  0  0  0  0  0  0  0  0
  184.5980  179.1190  144.5240 C   0  0  0  0  0  2  0  0  0  0  0  0
  186.8040  178.0960  143.9040 C   0  0  0  0  0  3  0  0  0  0  0  0
  185.1370  178.6640  142.1170 C   0  0  0  0  0  2  0  0  0  0  0  0
  185.6720  178.1190  144.9390 C   0  0  0  0  0  2  0  0  0  0  0  0
  182.7370  178.8530  142.8590 C   0  0  0  0  0  0  0  0  0  0  0  0
  184.1370  178.8140  143.1720 N   0  0  0  0  0  0  0  0  0  0  0  0
  188.4850  177.3080  147.8800 C   0  0  0  0  0  0  0  0  0  0  0  0
  187.8080  177.2870  146.7620 N   0  0  0  0  0  0  0  0  0  0  0  0
  187.8850  177.1680  144.2970 N   0  0  1  0  0  0  0  0  0  0  0  0
  187.8470  177.1270  149.0620 F   0  0  0  0  0  0  0  0  0  0  0  0
  190.3350  177.0280  144.1630 C   0  0  1  0  0  3  0  0  0  0  0  0
  190.5890  177.3020  146.7400 C   0  0  0  0  0  3  0  0  0  0  0  0
  189.8160  176.8250  145.5510 C   0  0  1  0  0  3  0  0  0  0  0  0
  191.1150  175.8060  143.7210 C   0  0  0  0  0  1  0  0  0  0  0  0
  189.9250  177.4780  147.8510 N   0  0  0  0  0  0  0  0  0  0  0  0
  189.1710  178.4010  142.4710 C   0  0  0  0  0  1  0  0  0  0  0  0
  189.0390  177.1500  143.3430 C   0  0  2  0  0  3  0  0  0  0  0  0
  188.5370  177.5880  145.5290 C   0  0  2  0  0  3  0  0  0  0  0  0
  182.2510  178.5880  141.4740 C   0  0  0  0  0  2  0  0  0  0  0  0
  180.8270  178.8680  141.3920 N   0  0  0  0  0  2  0  0  0  0  0  0
  180.1540  177.6020  141.1650 C   0  0  0  0  0  2  0  0  0  0  0  0
  180.2730  175.8140  139.8790 C   0  0  0  0  0  1  0  0  0  0  0  0
  180.3320  177.2060  139.8380 O   0  0  0  0  0  0  0  0  0  0  0  0
  1  4  1  0  0  0  0
  3  6  1  0  0  0  0
  4  6  1  0  0  0  0
  5  1  1  0  0  0  0
  5  8  1  0  0  0  0
  7  8  1  0  0  0  0
  7  2  2  0  0  0  0
  8  3  1  0  0  0  0
  9 12  1  0  0  0  0
 10  9  2  0  0  0  0
 11  4  1  6  0  0  0
 11 20  1  0  0  0  0
 13 16  1  6  0  0  0
 13 15  1  0  0  0  0
 14 17  2  0  0  0  0
 15 14  1  1  0  0  0
 17  9  1  0  0  0  0
 19 18  1  1  0  0  0
 19 13  1  0  0  0  0
 19 11  1  0  0  0  0
 20 15  1  0  0  0  0
 20 10  1  1  0  0  0
 21  7  1  0  0  0  0
 22 21  1  0  0  0  0
 23 22  1  0  0  0  0
 25 24  1  0  0  0  0
 25 23  1  0  0  0  0
M  END
>  <MODEL>
7

>  <REMARK>
 VINA RESULT:      -6.7      4.224      6.334
  Name = 
  5 active torsions:
  status: ('A' for Active; 'I' for Inactive)
    1  A    between atoms: N_4  and  C_15
    2  A    between atoms: O_8  and  C_16
    3  A    between atoms: C_10  and  N_12
    4  A    between atoms: C_10  and  C_23
    5  A    between atoms: N_12  and  C_16
                            x       y       z     vdW  Elec       q    Type
                         _______ _______ _______ _____ _____    ______ ____

>  <TORSDO>
F 5

$$$$
=
 OpenBabel10232409443D

 25 27  0  0  1  0  0  0  0  0999 V2000
  188.3130  177.4350  143.6390 C   0  0  0  0  0  2  0  0  0  0  0  0
  184.4140  179.1180  145.6460 O   0  0  0  0  0  0  0  0  0  0  0  0
  185.5640  178.3310  143.2030 C   0  0  0  0  0  2  0  0  0  0  0  0
  187.7780  177.6750  142.2220 C   0  0  0  0  0  3  0  0  0  0  0  0
  187.1850  176.9790  144.5590 C   0  0  0  0  0  2  0  0  0  0  0  0
  186.7100  178.7730  142.2990 C   0  0  0  0  0  2  0  0  0  0  0  0
  185.4170  178.3570  145.7100 C   0  0  0  0  0  0  0  0  0  0  0  0
  186.0890  177.9450  144.5110 N   0  0  0  0  0  0  0  0  0  0  0  0
  187.7480  178.2240  137.8690 C   0  0  0  0  0  0  0  0  0  0  0  0
  187.7170  178.3750  139.1670 N   0  0  0  0  0  0  0  0  0  0  0  0
  188.8850  178.0510  141.3180 N   0  0  1  0  0  0  0  0  0  0  0  0
  186.8420  178.8640  137.0900 F   0  0  0  0  0  0  0  0  0  0  0  0
  190.8860  177.0260  140.3260 C   0  0  1  0  0  3  0  0  0  0  0  0
  189.8490  177.0800  137.9380 C   0  0  0  0  0  3  0  0  0  0  0  0
  189.9940  177.6620  139.3080 C   0  0  1  0  0  3  0  0  0  0  0  0
  192.2590  177.6650  140.2780 C   0  0  0  0  0  1  0  0  0  0  0  0
  188.7810  177.4090  137.2600 N   0  0  0  0  0  0  0  0  0  0  0  0
  190.0560  176.0920  142.4570 C   0  0  0  0  0  1  0  0  0  0  0  0
  190.1840  177.3840  141.6470 C   0  0  2  0  0  3  0  0  0  0  0  0
  188.6560  177.5810  139.9590 C   0  0  2  0  0  3  0  0  0  0  0  0
  185.9130  177.9350  147.0520 C   0  0  0  0  0  2  0  0  0  0  0  0
  187.0150  178.7910  147.4580 N   0  0  0  0  0  2  0  0  0  0  0  0
  187.7900  178.0550  148.4420 C   0  0  0  0  0  2  0  0  0  0  0  0
  189.5560  177.2890  147.3670 C   0  0  0  0  0  1  0  0  0  0  0  0
  188.3130  176.8990  147.8600 O   0  0  0  0  0  0  0  0  0  0  0  0
  1  5  1  0  0  0  0
  2  7  2  0  0  0  0
  3  8  1  0  0  0  0
  4  6  1  0  0  0  0
  4  1  1  0  0  0  0
  6  3  1  0  0  0  0
  7 21  1  0  0  0  0
  8  5  1  0  0  0  0
  8  7  1  0  0  0  0
  9 10  2  0  0  0  0
 11 19  1  0  0  0  0
 11  4  1  1  0  0  0
 12  9  1  0  0  0  0
 13 16  1  1  0  0  0
 13 19  1  0  0  0  0
 15 14  1  6  0  0  0
 15 20  1  0  0  0  0
 15 13  1  0  0  0  0
 17  9  1  0  0  0  0
 17 14  2  0  0  0  0
 19 18  1  6  0  0  0
 20 10  1  6  0  0  0
 20 11  1  0  0  0  0
 21 22  1  0  0  0  0
 22 23  1  0  0  0  0
 24 25  1  0  0  0  0
 25 23  1  0  0  0  0
M  END
>  <MODEL>
8

>  <REMARK>
 VINA RESULT:      -6.7      3.441      7.352
  Name = 
  5 active torsions:
  status: ('A' for Active; 'I' for Inactive)
    1  A    between atoms: N_4  and  C_15
    2  A    between atoms: O_8  and  C_16
    3  A    between atoms: C_10  and  N_12
    4  A    between atoms: C_10  and  C_23
    5  A    between atoms: N_12  and  C_16
                            x       y       z     vdW  Elec       q    Type
                         _______ _______ _______ _____ _____    ______ ____

>  <TORSDO>
F 5

$$$$
=
 OpenBabel10232409443D

 25 27  0  0  1  0  0  0  0  0999 V2000
  186.6000  177.3380  143.5870 C   0  0  0  0  0  2  0  0  0  0  0  0
  190.5880  177.5350  141.1140 O   0  0  0  0  0  0  0  0  0  0  0  0
  188.0910  178.7630  141.5130 C   0  0  0  0  0  2  0  0  0  0  0  0
  185.9180  178.3980  142.7130 C   0  0  0  0  0  3  0  0  0  0  0  0
  188.0740  177.6810  143.7770 C   0  0  0  0  0  2  0  0  0  0  0  0
  186.6170  178.4080  141.3480 C   0  0  0  0  0  2  0  0  0  0  0  0
  190.0100  177.3000  142.2090 C   0  0  0  0  0  0  0  0  0  0  0  0
  188.7120  177.8540  142.4730 N   0  0  0  0  0  0  0  0  0  0  0  0
  183.3730  178.4430  139.1380 C   0  0  0  0  0  0  0  0  0  0  0  0
  184.1500  178.1190  140.1390 N   0  0  0  0  0  0  0  0  0  0  0  0
  184.4750  178.1000  142.5860 N   0  0  1  0  0  0  0  0  0  0  0  0
  183.6230  177.9530  137.8990 F   0  0  0  0  0  0  0  0  0  0  0  0
  182.3200  179.1630  143.1000 C   0  0  1  0  0  3  0  0  0  0  0  0
  181.7610  179.4760  140.5760 C   0  0  0  0  0  3  0  0  0  0  0  0
  182.4190  178.7080  141.6780 C   0  0  1  0  0  3  0  0  0  0  0  0
  181.1510  178.4780  143.7790 C   0  0  0  0  0  1  0  0  0  0  0  0
  182.2160  179.2870  139.3650 N   0  0  0  0  0  0  0  0  0  0  0  0
  184.2800  179.8360  144.4460 C   0  0  0  0  0  1  0  0  0  0  0  0
  183.6440  178.6600  143.6990 C   0  0  2  0  0  3  0  0  0  0  0  0
  183.8880  178.7590  141.4290 C   0  0  2  0  0  3  0  0  0  0  0  0
  190.6790  176.4050  143.1970 C   0  0  0  0  0  2  0  0  0  0  0  0
  191.6080  177.1760  144.0060 N   0  0  0  0  0  2  0  0  0  0  0  0
  191.2840  176.9140  145.3980 C   0  0  0  0  0  2  0  0  0  0  0  0
  191.9820  175.9010  147.2280 C   0  0  0  0  0  1  0  0  0  0  0  0
  191.9820  175.7890  145.8390 O   0  0  0  0  0  0  0  0  0  0  0  0
  1  5  1  0  0  0  0
  2  7  2  0  0  0  0
  3  8  1  0  0  0  0
  4  1  1  0  0  0  0
  6  3  1  0  0  0  0
  6  4  1  0  0  0  0
  7  8  1  0  0  0  0
  7 21  1  0  0  0  0
  8  5  1  0  0  0  0
  9 17  1  0  0  0  0
  9 10  2  0  0  0  0
 11  4  1  1  0  0  0
 11 19  1  0  0  0  0
 12  9  1  0  0  0  0
 13 19  1  0  0  0  0
 13 16  1  1  0  0  0
 15 14  1  6  0  0  0
 15 13  1  0  0  0  0
 17 14  2  0  0  0  0
 19 18  1  6  0  0  0
 20 10  1  6  0  0  0
 20 15  1  0  0  0  0
 20 11  1  0  0  0  0
 21 22  1  0  0  0  0
 22 23  1  0  0  0  0
 23 25  1  0  0  0  0
 25 24  1  0  0  0  0
M  END
>  <MODEL>
9

>  <REMARK>
 VINA RESULT:      -6.5      3.662      5.796
  Name = 
  5 active torsions:
  status: ('A' for Active; 'I' for Inactive)
    1  A    between atoms: N_4  and  C_15
    2  A    between atoms: O_8  and  C_16
    3  A    between atoms: C_10  and  N_12
    4  A    between atoms: C_10  and  C_23
    5  A    between atoms: N_12  and  C_16
                            x       y       z     vdW  Elec       q    Type
                         _______ _______ _______ _____ _____    ______ ____

>  <TORSDO>
F 5

$$$$
