=
 OpenBabel10232411523D

 31 34  0  0  1  0  0  0  0  0999 V2000
  191.2280  178.0700  143.6340 C   0  0  0  0  0  2  0  0  0  0  0  0
  189.3250  176.2450  142.5490 C   0  0  0  0  0  2  0  0  0  0  0  0
  191.1800  177.3540  141.1840 C   0  0  0  0  0  0  0  0  0  0  0  0
  189.7900  176.9920  141.3730 N   0  0  0  0  0  0  0  0  0  0  0  0
  191.8050  176.1710  137.5930 C   0  0  2  0  0  3  0  0  0  0  0  0
  191.0790  176.7880  138.7430 C   0  0  0  0  0  0  0  0  0  0  0  0
  189.5880  176.6220  136.9950 C   0  0  0  0  0  3  0  0  0  0  0  0
  188.7820  177.6100  140.5640 C   0  0  0  0  0  0  0  0  0  0  0  0
  186.7960  178.6980  139.9370 N   0  0  0  0  0  0  0  0  0  0  0  0
  190.8830  176.2090  136.4570 N   0  0  0  0  0  0  0  0  0  0  0  0
  187.5340  178.1990  141.0980 C   0  0  0  0  0  3  0  0  0  0  0  0
  193.2110  177.6530  139.8120 C   0  0  0  0  0  1  0  0  0  0  0  0
  190.6550  176.7910  144.2680 C   0  0  1  0  0  3  0  0  0  0  0  0
  191.7680  177.2730  139.9690 C   0  0  0  0  0  0  0  0  0  0  0  0
  188.7790  177.6140  139.2540 C   0  0  0  0  0  0  0  0  0  0  0  0
  192.0290  177.7710  142.3710 C   0  0  0  0  0  2  0  0  0  0  0  0
  190.4010  175.7850  143.3180 O   0  0  0  0  0  0  0  0  0  0  0  0
  189.8210  177.0070  138.4060 C   0  0  0  0  0  0  0  0  0  0  0  0
  187.5100  178.2060  138.7530 C   0  0  1  0  0  3  0  0  0  0  0  0
  192.1510  174.7170  137.8920 C   0  0  0  0  0  2  0  0  0  0  0  0
  194.7300  174.2940  137.6910 N   0  0  0  0  0  0  0  0  0  0  0  0
  193.5920  174.4810  137.7780 C   0  0  0  0  0  0  0  0  0  0  0  0
  186.6640  177.1460  138.0540 C   0  0  0  0  0  2  0  0  0  0  0  0
  185.7920  177.7670  136.9730 C   0  0  2  0  0  3  0  0  0  0  0  0
  184.3200  177.5610  137.2860 C   0  0  0  0  0  1  0  0  0  0  0  0
  186.9150  177.9780  134.6590 C   0  0  0  0  0  1  0  0  0  0  0  0
  185.7590  176.0520  135.3410 O   0  0  0  0  0  0  0  0  0  0  0  0
  186.1250  177.1790  135.6370 C   0  0  0  0  0  0  0  0  0  0  0  0
  191.5580  176.2620  145.3790 C   0  0  0  0  0  2  0  0  0  0  0  0
  189.6650  176.9050  146.8420 C   0  0  0  0  0  1  0  0  0  0  0  0
  191.1730  176.8150  146.7420 C   0  0  0  0  0  2  0  0  0  0  0  0
  1 13  1  0  0  0  0
  2 17  1  0  0  0  0
  3  4  1  0  0  0  0
  3 16  1  0  0  0  0
  4  2  1  0  0  0  0
  5 20  1  1  0  0  0
  5  6  1  0  0  0  0
  6 14  1  0  0  0  0
  7 18  1  0  0  0  0
  8 11  1  0  0  0  0
  8  4  1  0  0  0  0
  9 11  2  0  0  0  0
 10  7  2  0  0  0  0
 10  5  1  0  0  0  0
 12 14  1  0  0  0  0
 13 29  1  1  0  0  0
 14  3  2  0  0  0  0
 15  8  2  0  0  0  0
 16  1  1  0  0  0  0
 17 13  1  0  0  0  0
 18  6  2  0  0  0  0
 18 15  1  0  0  0  0
 19 23  1  1  0  0  0
 19 15  1  0  0  0  0
 19  9  1  0  0  0  0
 21 22  3  0  0  0  0
 22 20  1  0  0  0  0
 24 25  1  1  0  0  0
 24 23  1  0  0  0  0
 26 28  1  0  0  0  0
 27 28  2  0  0  0  0
 28 24  1  0  0  0  0
 29 31  1  0  0  0  0
 31 30  1  0  0  0  0
M  END
>  <MODEL>
1

>  <REMARK>
 VINA RESULT:      -6.8      0.000      0.000
  Name = 
  7 active torsions:
  status: ('A' for Active; 'I' for Inactive)
    1  A    between atoms: C_2  and  C_13
    2  A    between atoms: C_7  and  C_21
    3  A    between atoms: C_7  and  C_22
    4  A    between atoms: C_9  and  C_13
    5  A    between atoms: C_16  and  C_30
    6  A    between atoms: C_21  and  C_31
    7  A    between atoms: C_24  and  C_30
                            x       y       z     vdW  Elec       q    Type
                         _______ _______ _______ _____ _____    ______ ____

>  <TORSDO>
F 7

$$$$
=
 OpenBabel10232411523D

 31 34  0  0  1  0  0  0  0  0999 V2000
  191.2160  177.8550  143.6210 C   0  0  0  0  0  2  0  0  0  0  0  0
  188.8910  176.3650  142.9100 C   0  0  0  0  0  2  0  0  0  0  0  0
  190.5350  177.3420  141.2140 C   0  0  0  0  0  0  0  0  0  0  0  0
  189.1850  177.1390  141.6960 N   0  0  0  0  0  0  0  0  0  0  0  0
  190.1930  176.3740  137.5230 C   0  0  2  0  0  3  0  0  0  0  0  0
  189.8270  176.9840  138.8360 C   0  0  0  0  0  0  0  0  0  0  0  0
  187.9810  177.1360  137.4660 C   0  0  0  0  0  3  0  0  0  0  0  0
  188.1180  177.9360  141.1690 C   0  0  0  0  0  0  0  0  0  0  0  0
  186.2100  179.3030  141.0620 N   0  0  0  0  0  0  0  0  0  0  0  0
  189.0590  176.6120  136.6290 N   0  0  0  0  0  0  0  0  0  0  0  0
  187.1090  178.6290  142.0000 C   0  0  0  0  0  3  0  0  0  0  0  0
  192.2390  177.4970  139.4340 C   0  0  0  0  0  1  0  0  0  0  0  0
  190.6260  176.6100  144.3060 C   0  0  1  0  0  3  0  0  0  0  0  0
  190.8270  177.2850  139.8950 C   0  0  0  0  0  0  0  0  0  0  0  0
  187.8300  178.0420  139.8950 C   0  0  0  0  0  0  0  0  0  0  0  0
  191.6730  177.5600  142.1960 C   0  0  0  0  0  2  0  0  0  0  0  0
  190.0370  175.7190  143.3910 O   0  0  0  0  0  0  0  0  0  0  0  0
  188.5680  177.3800  138.8040 C   0  0  0  0  0  0  0  0  0  0  0  0
  186.5730  178.8210  139.7250 C   0  0  1  0  0  3  0  0  0  0  0  0
  190.3940  174.8700  137.6650 C   0  0  0  0  0  2  0  0  0  0  0  0
  192.9140  174.2200  137.3470 N   0  0  0  0  0  0  0  0  0  0  0  0
  191.8030  174.5050  137.4880 C   0  0  0  0  0  0  0  0  0  0  0  0
  185.4590  177.9300  139.1860 C   0  0  0  0  0  2  0  0  0  0  0  0
  184.1110  178.3250  139.7710 C   0  0  2  0  0  3  0  0  0  0  0  0
  183.2060  177.1110  139.9000 C   0  0  0  0  0  1  0  0  0  0  0  0
  182.2740  179.0070  138.0920 C   0  0  0  0  0  1  0  0  0  0  0  0
  183.8890  180.5120  138.8920 O   0  0  0  0  0  0  0  0  0  0  0  0
  183.4600  179.3680  138.9170 C   0  0  0  0  0  0  0  0  0  0  0  0
  191.6700  175.8910  145.1560 C   0  0  0  0  0  2  0  0  0  0  0  0
  190.3180  176.9570  146.9370 C   0  0  0  0  0  1  0  0  0  0  0  0
  191.6770  176.3840  146.5940 C   0  0  0  0  0  2  0  0  0  0  0  0
  1 13  1  0  0  0  0
  2 17  1  0  0  0  0
  3  4  1  0  0  0  0
  3 16  1  0  0  0  0
  4  2  1  0  0  0  0
  5 20  1  1  0  0  0
  5  6  1  0  0  0  0
  6 14  1  0  0  0  0
  7 18  1  0  0  0  0
  8  4  1  0  0  0  0
  8 11  1  0  0  0  0
  9 11  2  0  0  0  0
 10  7  2  0  0  0  0
 10  5  1  0  0  0  0
 12 14  1  0  0  0  0
 13 29  1  6  0  0  0
 14  3  2  0  0  0  0
 15  8  2  0  0  0  0
 16  1  1  0  0  0  0
 17 13  1  0  0  0  0
 18  6  2  0  0  0  0
 18 15  1  0  0  0  0
 19 23  1  1  0  0  0
 19 15  1  0  0  0  0
 19  9  1  0  0  0  0
 21 22  3  0  0  0  0
 22 20  1  0  0  0  0
 23 24  1  0  0  0  0
 24 25  1  6  0  0  0
 26 28  1  0  0  0  0
 27 28  2  0  0  0  0
 28 24  1  0  0  0  0
 29 31  1  0  0  0  0
 31 30  1  0  0  0  0
M  END
>  <MODEL>
2

>  <REMARK>
 VINA RESULT:      -6.5      1.733      2.205
  Name = 
  7 active torsions:
  status: ('A' for Active; 'I' for Inactive)
    1  A    between atoms: C_2  and  C_13
    2  A    between atoms: C_7  and  C_21
    3  A    between atoms: C_7  and  C_22
    4  A    between atoms: C_9  and  C_13
    5  A    between atoms: C_16  and  C_30
    6  A    between atoms: C_21  and  C_31
    7  A    between atoms: C_24  and  C_30
                            x       y       z     vdW  Elec       q    Type
                         _______ _______ _______ _____ _____    ______ ____

>  <TORSDO>
F 7

$$$$
=
 OpenBabel10232411523D

 31 34  0  0  1  0  0  0  0  0999 V2000
  191.0630  177.9390  142.8830 C   0  0  0  0  0  2  0  0  0  0  0  0
  188.6100  176.5170  142.5880 C   0  0  0  0  0  2  0  0  0  0  0  0
  190.0770  177.2540  140.6300 C   0  0  0  0  0  0  0  0  0  0  0  0
  188.7870  177.1640  141.2820 N   0  0  0  0  0  0  0  0  0  0  0  0
  189.2540  175.9840  137.1100 C   0  0  2  0  0  3  0  0  0  0  0  0
  189.0740  176.7260  138.3940 C   0  0  0  0  0  0  0  0  0  0  0  0
  187.0840  176.8530  137.2390 C   0  0  0  0  0  3  0  0  0  0  0  0
  187.6990  177.9670  140.8100 C   0  0  0  0  0  0  0  0  0  0  0  0
  185.8490  179.4160  140.7980 N   0  0  0  0  0  0  0  0  0  0  0  0
  188.0310  176.2020  136.3350 N   0  0  0  0  0  0  0  0  0  0  0  0
  186.8270  178.7810  141.6840 C   0  0  0  0  0  3  0  0  0  0  0  0
  191.5590  177.1630  138.6570 C   0  0  0  0  0  1  0  0  0  0  0  0
  190.5100  176.7920  143.7450 C   0  0  1  0  0  3  0  0  0  0  0  0
  190.2050  177.0650  139.2970 C   0  0  0  0  0  0  0  0  0  0  0  0
  187.2640  177.9750  139.5740 C   0  0  0  0  0  0  0  0  0  0  0  0
  191.3330  177.4970  141.4480 C   0  0  0  0  0  2  0  0  0  0  0  0
  189.7780  175.8560  142.9920 O   0  0  0  0  0  0  0  0  0  0  0  0
  187.8370  177.1820  138.4710 C   0  0  0  0  0  0  0  0  0  0  0  0
  186.0290  178.8010  139.4790 C   0  0  1  0  0  3  0  0  0  0  0  0
  189.4080  174.4900  137.3670 C   0  0  0  0  0  2  0  0  0  0  0  0
  191.7910  173.6480  136.6700 N   0  0  0  0  0  0  0  0  0  0  0  0
  190.7410  174.0210  136.9780 C   0  0  0  0  0  0  0  0  0  0  0  0
  184.8230  177.9250  139.1580 C   0  0  0  0  0  2  0  0  0  0  0  0
  183.8990  178.6080  138.1600 C   0  0  2  0  0  3  0  0  0  0  0  0
  182.9580  179.5670  138.8690 C   0  0  0  0  0  1  0  0  0  0  0  0
  183.3320  176.1400  137.6680 C   0  0  0  0  0  1  0  0  0  0  0  0
  182.3060  177.9290  136.5460 O   0  0  0  0  0  0  0  0  0  0  0  0
  183.1180  177.5870  137.3930 C   0  0  0  0  0  0  0  0  0  0  0  0
  191.6170  176.0970  144.5310 C   0  0  0  0  0  2  0  0  0  0  0  0
  190.2790  177.0060  146.4070 C   0  0  0  0  0  1  0  0  0  0  0  0
  191.6580  176.5460  145.9830 C   0  0  0  0  0  2  0  0  0  0  0  0
  1 13  1  0  0  0  0
  2 17  1  0  0  0  0
  3  4  1  0  0  0  0
  3 16  1  0  0  0  0
  4  2  1  0  0  0  0
  5 20  1  1  0  0  0
  5  6  1  0  0  0  0
  6 18  2  0  0  0  0
  6 14  1  0  0  0  0
  7 18  1  0  0  0  0
  8  4  1  0  0  0  0
  8 11  1  0  0  0  0
  9 11  2  0  0  0  0
 10  5  1  0  0  0  0
 10  7  2  0  0  0  0
 12 14  1  0  0  0  0
 13 29  1  6  0  0  0
 14  3  2  0  0  0  0
 15  8  2  0  0  0  0
 16  1  1  0  0  0  0
 17 13  1  0  0  0  0
 18 15  1  0  0  0  0
 19 23  1  1  0  0  0
 19 15  1  0  0  0  0
 19  9  1  0  0  0  0
 21 22  3  0  0  0  0
 22 20  1  0  0  0  0
 24 25  1  1  0  0  0
 24 23  1  0  0  0  0
 27 28  2  0  0  0  0
 28 26  1  0  0  0  0
 28 24  1  0  0  0  0
 29 31  1  0  0  0  0
 31 30  1  0  0  0  0
M  END
>  <MODEL>
3

>  <REMARK>
 VINA RESULT:      -6.1      1.660      2.242
  Name = 
  7 active torsions:
  status: ('A' for Active; 'I' for Inactive)
    1  A    between atoms: C_2  and  C_13
    2  A    between atoms: C_7  and  C_21
    3  A    between atoms: C_7  and  C_22
    4  A    between atoms: C_9  and  C_13
    5  A    between atoms: C_16  and  C_30
    6  A    between atoms: C_21  and  C_31
    7  A    between atoms: C_24  and  C_30
                            x       y       z     vdW  Elec       q    Type
                         _______ _______ _______ _____ _____    ______ ____

>  <TORSDO>
F 7

$$$$
=
 OpenBabel10232411523D

 31 34  0  0  1  0  0  0  0  0999 V2000
  189.9200  178.3270  143.5150 C   0  0  0  0  0  2  0  0  0  0  0  0
  187.6460  176.6160  143.3430 C   0  0  0  0  0  2  0  0  0  0  0  0
  188.4320  178.1420  141.4480 C   0  0  0  0  0  0  0  0  0  0  0  0
  187.3880  177.6300  142.3130 N   0  0  0  0  0  0  0  0  0  0  0  0
  186.8120  177.7990  137.9930 C   0  0  2  0  0  3  0  0  0  0  0  0
  186.9140  178.0960  139.4540 C   0  0  0  0  0  0  0  0  0  0  0  0
  184.6820  178.1740  138.8890 C   0  0  0  0  0  3  0  0  0  0  0  0
  186.1330  178.3160  142.3880 C   0  0  0  0  0  0  0  0  0  0  0  0
  184.2080  179.3370  143.2690 N   0  0  0  0  0  0  0  0  0  0  0  0
  185.4070  177.9970  137.6320 N   0  0  0  0  0  0  0  0  0  0  0  0
  185.4530  178.6700  143.6530 C   0  0  0  0  0  3  0  0  0  0  0  0
  189.3150  178.8960  139.2700 C   0  0  0  0  0  1  0  0  0  0  0  0
  189.7500  176.8990  144.0610 C   0  0  1  0  0  3  0  0  0  0  0  0
  188.2080  178.3690  140.1340 C   0  0  0  0  0  0  0  0  0  0  0  0
  185.3760  178.5960  141.3550 C   0  0  0  0  0  0  0  0  0  0  0  0
  189.8310  178.3710  141.9930 C   0  0  0  0  0  2  0  0  0  0  0  0
  188.9430  176.0980  143.2330 O   0  0  0  0  0  0  0  0  0  0  0  0
  185.7050  178.2730  139.9550 C   0  0  0  0  0  0  0  0  0  0  0  0
  184.0830  179.1690  141.8170 C   0  0  1  0  0  3  0  0  0  0  0  0
  187.1890  176.3500  137.7100 C   0  0  0  0  0  2  0  0  0  0  0  0
  188.4250  176.1230  135.4100 N   0  0  0  0  0  0  0  0  0  0  0  0
  187.8800  176.2250  136.4240 C   0  0  0  0  0  0  0  0  0  0  0  0
  182.9350  178.2120  141.5140 C   0  0  0  0  0  2  0  0  0  0  0  0
  181.6410  178.9710  141.2610 C   0  0  2  0  0  3  0  0  0  0  0  0
  180.6790  178.7950  142.4240 C   0  0  0  0  0  1  0  0  0  0  0  0
  181.0630  177.0630  139.6230 C   0  0  0  0  0  1  0  0  0  0  0  0
  180.4390  179.2950  139.2480 O   0  0  0  0  0  0  0  0  0  0  0  0
  181.0060  178.5060  139.9880 C   0  0  0  0  0  0  0  0  0  0  0  0
  191.0990  176.2280  144.3040 C   0  0  0  0  0  2  0  0  0  0  0  0
  190.5010  176.8140  146.6360 C   0  0  0  0  0  1  0  0  0  0  0  0
  191.6490  176.5320  145.6890 C   0  0  0  0  0  2  0  0  0  0  0  0
  1 13  1  0  0  0  0
  3 16  1  0  0  0  0
  3  4  1  0  0  0  0
  4  8  1  0  0  0  0
  4  2  1  0  0  0  0
  5 20  1  1  0  0  0
  5  6  1  0  0  0  0
  6 18  2  0  0  0  0
  6 14  1  0  0  0  0
  7 18  1  0  0  0  0
  8 11  1  0  0  0  0
  9 11  2  0  0  0  0
 10  5  1  0  0  0  0
 10  7  2  0  0  0  0
 12 14  1  0  0  0  0
 13 29  1  6  0  0  0
 14  3  2  0  0  0  0
 15 19  1  0  0  0  0
 15  8  2  0  0  0  0
 16  1  1  0  0  0  0
 17  2  1  0  0  0  0
 17 13  1  0  0  0  0
 18 15  1  0  0  0  0
 19 23  1  1  0  0  0
 19  9  1  0  0  0  0
 21 22  3  0  0  0  0
 22 20  1  0  0  0  0
 24 23  1  0  0  0  0
 24 25  1  1  0  0  0
 26 28  1  0  0  0  0
 27 28  2  0  0  0  0
 28 24  1  0  0  0  0
 29 31  1  0  0  0  0
 31 30  1  0  0  0  0
M  END
>  <MODEL>
4

>  <REMARK>
 VINA RESULT:      -6.0      3.013      4.596
  Name = 
  7 active torsions:
  status: ('A' for Active; 'I' for Inactive)
    1  A    between atoms: C_2  and  C_13
    2  A    between atoms: C_7  and  C_21
    3  A    between atoms: C_7  and  C_22
    4  A    between atoms: C_9  and  C_13
    5  A    between atoms: C_16  and  C_30
    6  A    between atoms: C_21  and  C_31
    7  A    between atoms: C_24  and  C_30
                            x       y       z     vdW  Elec       q    Type
                         _______ _______ _______ _____ _____    ______ ____

>  <TORSDO>
F 7

$$$$
=
 OpenBabel10232411523D

 31 34  0  0  1  0  0  0  0  0999 V2000
  191.0540  178.1780  142.8190 C   0  0  0  0  0  2  0  0  0  0  0  0
  189.3140  176.4080  141.4170 C   0  0  0  0  0  2  0  0  0  0  0  0
  191.5370  177.2610  140.4850 C   0  0  0  0  0  0  0  0  0  0  0  0
  190.1160  177.0160  140.3470 N   0  0  0  0  0  0  0  0  0  0  0  0
  192.9040  175.7360  137.2480 C   0  0  2  0  0  3  0  0  0  0  0  0
  191.9790  176.4990  138.1390 C   0  0  0  0  0  0  0  0  0  0  0  0
  190.9470  176.2900  136.0900 C   0  0  0  0  0  3  0  0  0  0  0  0
  189.3930  177.6340  139.2750 C   0  0  0  0  0  0  0  0  0  0  0  0
  187.7230  178.8020  138.1050 N   0  0  0  0  0  0  0  0  0  0  0  0
  192.2910  175.7420  135.9180 N   0  0  0  0  0  0  0  0  0  0  0  0
  188.1110  178.3530  139.4430 C   0  0  0  0  0  3  0  0  0  0  0  0
  193.8580  177.2980  139.6450 C   0  0  0  0  0  1  0  0  0  0  0  0
  190.2320  177.0020  143.3730 C   0  0  1  0  0  3  0  0  0  0  0  0
  192.3920  177.0360  139.4620 C   0  0  0  0  0  0  0  0  0  0  0  0
  189.7080  177.5260  138.0080 C   0  0  0  0  0  0  0  0  0  0  0  0
  192.1070  177.7170  141.8170 C   0  0  0  0  0  2  0  0  0  0  0  0
  190.1270  175.9390  142.4570 O   0  0  0  0  0  0  0  0  0  0  0  0
  190.8650  176.7770  137.4860 C   0  0  0  0  0  0  0  0  0  0  0  0
  188.6560  178.1620  137.1700 C   0  0  1  0  0  3  0  0  0  0  0  0
  193.0340  174.2920  137.7170 C   0  0  0  0  0  2  0  0  0  0  0  0
  195.5060  173.7390  138.3930 N   0  0  0  0  0  0  0  0  0  0  0  0
  194.4160  173.9810  138.0960 C   0  0  0  0  0  0  0  0  0  0  0  0
  187.9130  177.1090  136.3540 C   0  0  0  0  0  2  0  0  0  0  0  0
  187.0830  176.2040  137.2530 C   0  0  2  0  0  3  0  0  0  0  0  0
  187.5820  174.7710  137.1800 C   0  0  0  0  0  1  0  0  0  0  0  0
  184.7420  177.2520  137.5370 C   0  0  0  0  0  1  0  0  0  0  0  0
  185.1880  175.5310  136.0030 O   0  0  0  0  0  0  0  0  0  0  0  0
  185.6380  176.2710  136.8650 C   0  0  0  0  0  0  0  0  0  0  0  0
  190.7880  176.5080  144.7050 C   0  0  0  0  0  2  0  0  0  0  0  0
  188.8950  177.3000  146.0920 C   0  0  0  0  0  1  0  0  0  0  0  0
  190.3880  177.4080  145.8630 C   0  0  0  0  0  2  0  0  0  0  0  0
  1 13  1  0  0  0  0
  2 17  1  0  0  0  0
  3 16  1  0  0  0  0
  4  3  1  0  0  0  0
  4  2  1  0  0  0  0
  5 20  1  1  0  0  0
  5  6  1  0  0  0  0
  6 14  1  0  0  0  0
  7 18  1  0  0  0  0
  8 11  1  0  0  0  0
  8  4  1  0  0  0  0
  9 11  2  0  0  0  0
 10  7  2  0  0  0  0
 10  5  1  0  0  0  0
 13 29  1  1  0  0  0
 14 12  1  0  0  0  0
 14  3  2  0  0  0  0
 15  8  2  0  0  0  0
 16  1  1  0  0  0  0
 17 13  1  0  0  0  0
 18 15  1  0  0  0  0
 18  6  2  0  0  0  0
 19 23  1  1  0  0  0
 19 15  1  0  0  0  0
 19  9  1  0  0  0  0
 20 22  1  0  0  0  0
 22 21  3  0  0  0  0
 23 24  1  0  0  0  0
 24 25  1  6  0  0  0
 27 28  2  0  0  0  0
 28 24  1  0  0  0  0
 28 26  1  0  0  0  0
 29 31  1  0  0  0  0
 31 30  1  0  0  0  0
M  END
>  <MODEL>
5

>  <REMARK>
 VINA RESULT:      -5.9      1.228      1.653
  Name = 
  7 active torsions:
  status: ('A' for Active; 'I' for Inactive)
    1  A    between atoms: C_2  and  C_13
    2  A    between atoms: C_7  and  C_21
    3  A    between atoms: C_7  and  C_22
    4  A    between atoms: C_9  and  C_13
    5  A    between atoms: C_16  and  C_30
    6  A    between atoms: C_21  and  C_31
    7  A    between atoms: C_24  and  C_30
                            x       y       z     vdW  Elec       q    Type
                         _______ _______ _______ _____ _____    ______ ____

>  <TORSDO>
F 7

$$$$
=
 OpenBabel10232411523D

 31 34  0  0  1  0  0  0  0  0999 V2000
  187.6340  175.0560  135.4890 C   0  0  0  0  0  2  0  0  0  0  0  0
  189.6580  173.4930  136.7480 C   0  0  0  0  0  2  0  0  0  0  0  0
  189.1610  175.9290  137.3390 C   0  0  0  0  0  0  0  0  0  0  0  0
  190.0920  174.8740  136.9950 N   0  0  0  0  0  0  0  0  0  0  0  0
  190.8500  177.4790  140.4100 C   0  0  2  0  0  3  0  0  0  0  0  0
  190.7330  176.8680  139.0510 C   0  0  0  0  0  0  0  0  0  0  0  0
  192.9750  176.9680  139.5730 C   0  0  0  0  0  3  0  0  0  0  0  0
  191.4250  175.2100  136.5940 C   0  0  0  0  0  0  0  0  0  0  0  0
  193.4360  175.2500  135.3780 N   0  0  0  0  0  0  0  0  0  0  0  0
  192.2810  177.6630  140.6550 N   0  0  0  0  0  0  0  0  0  0  0  0
  192.0970  174.6560  135.3980 C   0  0  0  0  0  3  0  0  0  0  0  0
  188.4730  177.9320  138.6090 C   0  0  0  0  0  1  0  0  0  0  0  0
  187.5870  173.5740  135.8970 C   0  0  1  0  0  3  0  0  0  0  0  0
  189.4640  176.8560  138.2770 C   0  0  0  0  0  0  0  0  0  0  0  0
  192.2510  175.9410  137.3000 C   0  0  0  0  0  0  0  0  0  0  0  0
  187.7870  175.9770  136.6950 C   0  0  0  0  0  2  0  0  0  0  0  0
  188.3080  173.3170  137.0770 O   0  0  0  0  0  0  0  0  0  0  0  0
  191.9350  176.5530  138.6040 C   0  0  0  0  0  0  0  0  0  0  0  0
  193.5920  175.9550  136.6550 C   0  0  1  0  0  3  0  0  0  0  0  0
  190.2900  176.5410  141.4720 C   0  0  0  0  0  2  0  0  0  0  0  0
  188.1970  177.5920  142.6510 N   0  0  0  0  0  0  0  0  0  0  0  0
  189.1200  177.1270  142.1320 C   0  0  0  0  0  0  0  0  0  0  0  0
  194.6100  175.2180  137.5200 C   0  0  0  0  0  2  0  0  0  0  0  0
  195.6040  174.4500  136.6620 C   0  0  2  0  0  3  0  0  0  0  0  0
  195.6240  172.9810  137.0480 C   0  0  0  0  0  1  0  0  0  0  0  0
  197.9860  174.3560  137.6490 C   0  0  0  0  0  1  0  0  0  0  0  0
  197.2690  176.0740  136.2190 O   0  0  0  0  0  0  0  0  0  0  0  0
  196.9730  175.0410  136.7990 C   0  0  0  0  0  0  0  0  0  0  0  0
  186.1510  173.0740  136.0280 C   0  0  0  0  0  2  0  0  0  0  0  0
  184.4650  173.7260  137.7220 C   0  0  0  0  0  1  0  0  0  0  0  0
  185.7260  172.9240  137.4800 C   0  0  0  0  0  2  0  0  0  0  0  0
  1 13  1  0  0  0  0
  1 16  1  0  0  0  0
  2  4  1  0  0  0  0
  2 17  1  0  0  0  0
  3 14  2  0  0  0  0
  4  3  1  0  0  0  0
  5 10  1  0  0  0  0
  5 20  1  1  0  0  0
  6  5  1  0  0  0  0
  7 10  2  0  0  0  0
  8  4  1  0  0  0  0
  8 15  2  0  0  0  0
  9 11  2  0  0  0  0
  9 19  1  0  0  0  0
 11  8  1  0  0  0  0
 13 29  1  1  0  0  0
 13 17  1  0  0  0  0
 14 12  1  0  0  0  0
 14  6  1  0  0  0  0
 15 18  1  0  0  0  0
 16  3  1  0  0  0  0
 18  6  2  0  0  0  0
 18  7  1  0  0  0  0
 19 15  1  0  0  0  0
 19 23  1  1  0  0  0
 20 22  1  0  0  0  0
 22 21  3  0  0  0  0
 24 28  1  0  0  0  0
 24 25  1  1  0  0  0
 24 23  1  0  0  0  0
 27 28  2  0  0  0  0
 28 26  1  0  0  0  0
 29 31  1  0  0  0  0
 31 30  1  0  0  0  0
M  END
>  <MODEL>
6

>  <REMARK>
 VINA RESULT:      -5.7      3.039      7.905
  Name = 
  7 active torsions:
  status: ('A' for Active; 'I' for Inactive)
    1  A    between atoms: C_2  and  C_13
    2  A    between atoms: C_7  and  C_21
    3  A    between atoms: C_7  and  C_22
    4  A    between atoms: C_9  and  C_13
    5  A    between atoms: C_16  and  C_30
    6  A    between atoms: C_21  and  C_31
    7  A    between atoms: C_24  and  C_30
                            x       y       z     vdW  Elec       q    Type
                         _______ _______ _______ _____ _____    ______ ____

>  <TORSDO>
F 7

$$$$
=
 OpenBabel10232411523D

 31 34  0  0  1  0  0  0  0  0999 V2000
  190.6260  176.5050  135.5930 C   0  0  0  0  0  2  0  0  0  0  0  0
  189.6660  175.0460  137.8480 C   0  0  0  0  0  2  0  0  0  0  0  0
  188.8090  177.3580  137.1720 C   0  0  0  0  0  0  0  0  0  0  0  0
  189.3170  176.4360  138.1680 N   0  0  0  0  0  0  0  0  0  0  0  0
  185.7270  178.7880  138.9440 C   0  0  2  0  0  3  0  0  0  0  0  0
  187.1270  178.2930  138.7790 C   0  0  0  0  0  0  0  0  0  0  0  0
  186.7550  178.5700  141.0350 C   0  0  0  0  0  3  0  0  0  0  0  0
  189.7760  176.9400  139.4280 C   0  0  0  0  0  0  0  0  0  0  0  0
  191.1180  177.2890  141.3250 N   0  0  0  0  0  0  0  0  0  0  0  0
  185.5640  179.0920  140.3660 N   0  0  0  0  0  0  0  0  0  0  0  0
  191.0630  176.5650  140.0540 C   0  0  0  0  0  3  0  0  0  0  0  0
  187.3070  179.1590  136.4010 C   0  0  0  0  0  1  0  0  0  0  0  0
  190.3610  174.9950  135.7170 C   0  0  1  0  0  3  0  0  0  0  0  0
  187.8100  178.2220  137.4600 C   0  0  0  0  0  0  0  0  0  0  0  0
  189.0610  177.6840  140.2350 C   0  0  0  0  0  0  0  0  0  0  0  0
  189.3490  177.3240  135.7530 C   0  0  0  0  0  2  0  0  0  0  0  0
  189.2630  174.7070  136.5500 O   0  0  0  0  0  0  0  0  0  0  0  0
  187.6850  178.1410  139.9660 C   0  0  0  0  0  0  0  0  0  0  0  0
  189.7920  177.8900  141.5140 C   0  0  1  0  0  3  0  0  0  0  0  0
  184.7240  177.7070  138.5580 C   0  0  0  0  0  2  0  0  0  0  0  0
  182.4130  178.0960  139.7320 N   0  0  0  0  0  0  0  0  0  0  0  0
  183.4330  177.9250  139.2160 C   0  0  0  0  0  0  0  0  0  0  0  0
  189.0750  177.1840  142.6610 C   0  0  0  0  0  2  0  0  0  0  0  0
  189.1620  177.9980  143.9440 C   0  0  2  0  0  3  0  0  0  0  0  0
  190.5570  177.9130  144.5390 C   0  0  0  0  0  1  0  0  0  0  0  0
  186.7440  177.2860  144.4930 C   0  0  0  0  0  1  0  0  0  0  0  0
  188.4580  177.3080  146.0970 O   0  0  0  0  0  0  0  0  0  0  0  0
  188.1470  177.5170  144.9340 C   0  0  0  0  0  0  0  0  0  0  0  0
  190.1800  174.3440  134.3490 C   0  0  0  0  0  2  0  0  0  0  0  0
  191.6440  172.5170  135.1570 C   0  0  0  0  0  1  0  0  0  0  0  0
  190.3710  172.8370  134.4020 C   0  0  0  0  0  2  0  0  0  0  0  0
  1 13  1  0  0  0  0
  1 16  1  0  0  0  0
  2  4  1  0  0  0  0
  3 14  2  0  0  0  0
  3  4  1  0  0  0  0
  4  8  1  0  0  0  0
  5 20  1  1  0  0  0
  5 10  1  0  0  0  0
  6  5  1  0  0  0  0
  6 18  2  0  0  0  0
  8 11  1  0  0  0  0
  8 15  2  0  0  0  0
  9 19  1  0  0  0  0
 10  7  2  0  0  0  0
 11  9  2  0  0  0  0
 12 14  1  0  0  0  0
 13 29  1  6  0  0  0
 13 17  1  0  0  0  0
 14  6  1  0  0  0  0
 15 19  1  0  0  0  0
 16  3  1  0  0  0  0
 17  2  1  0  0  0  0
 18 15  1  0  0  0  0
 18  7  1  0  0  0  0
 19 23  1  1  0  0  0
 20 22  1  0  0  0  0
 22 21  3  0  0  0  0
 23 24  1  0  0  0  0
 24 25  1  1  0  0  0
 24 28  1  0  0  0  0
 26 28  1  0  0  0  0
 28 27  2  0  0  0  0
 29 31  1  0  0  0  0
 31 30  1  0  0  0  0
M  END
>  <MODEL>
7

>  <REMARK>
 VINA RESULT:      -5.6      2.295      7.782
  Name = 
  7 active torsions:
  status: ('A' for Active; 'I' for Inactive)
    1  A    between atoms: C_2  and  C_13
    2  A    between atoms: C_7  and  C_21
    3  A    between atoms: C_7  and  C_22
    4  A    between atoms: C_9  and  C_13
    5  A    between atoms: C_16  and  C_30
    6  A    between atoms: C_21  and  C_31
    7  A    between atoms: C_24  and  C_30
                            x       y       z     vdW  Elec       q    Type
                         _______ _______ _______ _____ _____    ______ ____

>  <TORSDO>
F 7

$$$$
=
 OpenBabel10232411523D

 31 34  0  0  1  0  0  0  0  0999 V2000
  183.3050  179.3730  138.6490 C   0  0  0  0  0  2  0  0  0  0  0  0
  184.8810  177.0400  138.2010 C   0  0  0  0  0  2  0  0  0  0  0  0
  185.3850  178.7790  140.0050 C   0  0  0  0  0  0  0  0  0  0  0  0
  185.8040  177.9460  138.8970 N   0  0  0  0  0  0  0  0  0  0  0  0
  188.0980  178.0280  142.6050 C   0  0  2  0  0  3  0  0  0  0  0  0
  187.5010  178.3080  141.2640 C   0  0  0  0  0  0  0  0  0  0  0  0
  189.6960  177.6950  140.9280 C   0  0  0  0  0  3  0  0  0  0  0  0
  187.0590  178.2020  138.2540 C   0  0  0  0  0  0  0  0  0  0  0  0
  188.6640  178.5480  136.5730 N   0  0  0  0  0  0  0  0  0  0  0  0
  189.5230  177.7830  142.3770 N   0  0  0  0  0  0  0  0  0  0  0  0
  187.2380  178.2950  136.7890 C   0  0  0  0  0  3  0  0  0  0  0  0
  185.7050  179.8240  142.2190 C   0  0  0  0  0  1  0  0  0  0  0  0
  182.8360  177.9520  138.2960 C   0  0  1  0  0  3  0  0  0  0  0  0
  186.1740  178.9560  141.0890 C   0  0  0  0  0  0  0  0  0  0  0  0
  188.2120  178.2550  138.8720 C   0  0  0  0  0  0  0  0  0  0  0  0
  184.0100  179.4230  140.0010 C   0  0  0  0  0  2  0  0  0  0  0  0
  183.6520  176.9570  138.8670 O   0  0  0  0  0  0  0  0  0  0  0  0
  188.4010  178.0840  140.3250 C   0  0  0  0  0  0  0  0  0  0  0  0
  189.3130  178.3830  137.8790 C   0  0  1  0  0  3  0  0  0  0  0  0
  187.4810  176.7770  143.2190 C   0  0  0  0  0  2  0  0  0  0  0  0
  186.4460  177.2870  145.5740 N   0  0  0  0  0  0  0  0  0  0  0  0
  186.9020  177.0640  144.5340 C   0  0  0  0  0  0  0  0  0  0  0  0
  190.1700  177.1210  137.8640 C   0  0  0  0  0  2  0  0  0  0  0  0
  189.8900  176.2840  136.6250 C   0  0  2  0  0  3  0  0  0  0  0  0
  189.3530  174.9160  137.0110 C   0  0  0  0  0  1  0  0  0  0  0  0
  192.3630  175.5740  136.4260 C   0  0  0  0  0  1  0  0  0  0  0  0
  191.1500  176.4760  134.6290 O   0  0  0  0  0  0  0  0  0  0  0  0
  191.1330  176.1390  135.8040 C   0  0  0  0  0  0  0  0  0  0  0  0
  181.3760  177.7310  138.6790 C   0  0  0  0  0  2  0  0  0  0  0  0
  180.7300  177.9680  141.0590 C   0  0  0  0  0  1  0  0  0  0  0  0
  181.2350  177.0030  140.0070 C   0  0  0  0  0  2  0  0  0  0  0  0
  1 16  1  0  0  0  0
  2 17  1  0  0  0  0
  2  4  1  0  0  0  0
  3 14  2  0  0  0  0
  4  3  1  0  0  0  0
  5 20  1  6  0  0  0
  6  5  1  0  0  0  0
  7 10  2  0  0  0  0
  8 15  2  0  0  0  0
  8  4  1  0  0  0  0
  9 11  2  0  0  0  0
  9 19  1  0  0  0  0
 10  5  1  0  0  0  0
 11  8  1  0  0  0  0
 13  1  1  0  0  0  0
 13 29  1  1  0  0  0
 13 17  1  0  0  0  0
 14  6  1  0  0  0  0
 14 12  1  0  0  0  0
 15 18  1  0  0  0  0
 16  3  1  0  0  0  0
 18  7  1  0  0  0  0
 18  6  2  0  0  0  0
 19 23  1  6  0  0  0
 19 15  1  0  0  0  0
 20 22  1  0  0  0  0
 22 21  3  0  0  0  0
 24 25  1  1  0  0  0
 24 23  1  0  0  0  0
 27 28  2  0  0  0  0
 28 26  1  0  0  0  0
 28 24  1  0  0  0  0
 29 31  1  0  0  0  0
 31 30  1  0  0  0  0
M  END
>  <MODEL>
8

>  <REMARK>
 VINA RESULT:      -5.5      3.079      7.096
  Name = 
  7 active torsions:
  status: ('A' for Active; 'I' for Inactive)
    1  A    between atoms: C_2  and  C_13
    2  A    between atoms: C_7  and  C_21
    3  A    between atoms: C_7  and  C_22
    4  A    between atoms: C_9  and  C_13
    5  A    between atoms: C_16  and  C_30
    6  A    between atoms: C_21  and  C_31
    7  A    between atoms: C_24  and  C_30
                            x       y       z     vdW  Elec       q    Type
                         _______ _______ _______ _____ _____    ______ ____

>  <TORSDO>
F 7

$$$$
=
 OpenBabel10232411523D

 31 34  0  0  1  0  0  0  0  0999 V2000
  191.9290  175.2850  135.0080 C   0  0  0  0  0  2  0  0  0  0  0  0
  190.8210  174.3490  137.4620 C   0  0  0  0  0  2  0  0  0  0  0  0
  189.8630  176.2990  136.1140 C   0  0  0  0  0  0  0  0  0  0  0  0
  190.3180  175.7260  137.3640 N   0  0  0  0  0  0  0  0  0  0  0  0
  186.4740  177.7710  137.1270 C   0  0  2  0  0  3  0  0  0  0  0  0
  187.9200  177.4140  137.2390 C   0  0  0  0  0  0  0  0  0  0  0  0
  187.2450  178.2120  139.2920 C   0  0  0  0  0  3  0  0  0  0  0  0
  190.5710  176.5830  138.4840 C   0  0  0  0  0  0  0  0  0  0  0  0
  191.6300  177.5560  140.3430 N   0  0  0  0  0  0  0  0  0  0  0  0
  186.1090  178.4070  138.3940 N   0  0  0  0  0  0  0  0  0  0  0  0
  191.7960  176.5300  139.3120 C   0  0  0  0  0  3  0  0  0  0  0  0
  188.3230  177.6600  134.7470 C   0  0  0  0  0  1  0  0  0  0  0  0
  191.7790  173.8370  135.5020 C   0  0  1  0  0  3  0  0  0  0  0  0
  188.7660  177.0870  136.0610 C   0  0  0  0  0  0  0  0  0  0  0  0
  189.7000  177.4210  138.9890 C   0  0  0  0  0  0  0  0  0  0  0  0
  190.5780  175.9670  134.8160 C   0  0  0  0  0  2  0  0  0  0  0  0
  190.6140  173.6460  136.2680 O   0  0  0  0  0  0  0  0  0  0  0  0
  188.3350  177.6340  138.4730 C   0  0  0  0  0  0  0  0  0  0  0  0
  190.2450  178.0290  140.2330 C   0  0  1  0  0  3  0  0  0  0  0  0
  185.6220  176.5200  136.9460 C   0  0  0  0  0  2  0  0  0  0  0  0
  183.8730  176.8390  135.0190 N   0  0  0  0  0  0  0  0  0  0  0  0
  184.6430  176.6970  135.8700 C   0  0  0  0  0  0  0  0  0  0  0  0
  189.4520  177.5620  141.4490 C   0  0  0  0  0  2  0  0  0  0  0  0
  190.3780  177.1840  142.5950 C   0  0  2  0  0  3  0  0  0  0  0  0
  190.1120  175.7600  143.0540 C   0  0  0  0  0  1  0  0  0  0  0  0
  189.2940  177.7810  144.8600 C   0  0  0  0  0  1  0  0  0  0  0  0
  190.8090  179.1990  143.7610 O   0  0  0  0  0  0  0  0  0  0  0  0
  190.2070  178.1360  143.7370 C   0  0  0  0  0  0  0  0  0  0  0  0
  191.8270  172.8420  134.3460 C   0  0  0  0  0  2  0  0  0  0  0  0
  193.5560  171.8930  135.8440 C   0  0  0  0  0  1  0  0  0  0  0  0
  192.6110  171.5890  134.7000 C   0  0  0  0  0  2  0  0  0  0  0  0
  1 13  1  0  0  0  0
  3  4  1  0  0  0  0
  4  2  1  0  0  0  0
  4  8  1  0  0  0  0
  5 20  1  1  0  0  0
  5  6  1  0  0  0  0
  5 10  1  0  0  0  0
  6 18  2  0  0  0  0
  8 15  2  0  0  0  0
  8 11  1  0  0  0  0
 10  7  2  0  0  0  0
 11  9  2  0  0  0  0
 12 14  1  0  0  0  0
 13 29  1  6  0  0  0
 13 17  1  0  0  0  0
 14  3  2  0  0  0  0
 14  6  1  0  0  0  0
 15 19  1  0  0  0  0
 16  1  1  0  0  0  0
 16  3  1  0  0  0  0
 17  2  1  0  0  0  0
 18 15  1  0  0  0  0
 18  7  1  0  0  0  0
 19  9  1  0  0  0  0
 19 23  1  1  0  0  0
 21 22  3  0  0  0  0
 22 20  1  0  0  0  0
 23 24  1  0  0  0  0
 24 25  1  1  0  0  0
 24 28  1  0  0  0  0
 28 27  2  0  0  0  0
 28 26  1  0  0  0  0
 29 31  1  0  0  0  0
 31 30  1  0  0  0  0
M  END
>  <MODEL>
9

>  <REMARK>
 VINA RESULT:      -5.4      2.415      7.568
  Name = 
  7 active torsions:
  status: ('A' for Active; 'I' for Inactive)
    1  A    between atoms: C_2  and  C_13
    2  A    between atoms: C_7  and  C_21
    3  A    between atoms: C_7  and  C_22
    4  A    between atoms: C_9  and  C_13
    5  A    between atoms: C_16  and  C_30
    6  A    between atoms: C_21  and  C_31
    7  A    between atoms: C_24  and  C_30
                            x       y       z     vdW  Elec       q    Type
                         _______ _______ _______ _____ _____    ______ ____

>  <TORSDO>
F 7

$$$$
