=
 OpenBabel10232407463D

 25 26  0  0  1  0  0  0  0  0999 V2000
  187.5800  177.5520  143.9090 C   0  0  0  0  0  0  0  0  0  0  0  0
  185.3820  178.1430  143.7180 C   0  0  0  0  0  0  0  0  0  0  0  0
  186.3040  177.4630  144.6810 C   0  0  2  0  0  3  0  0  0  0  0  0
  185.9750  178.5520  142.6450 N   0  0  0  0  0  0  0  0  0  0  0  0
  187.3430  178.1840  142.7590 C   0  0  0  0  0  0  0  0  0  0  0  0
  186.9680  178.8270  147.8990 C   0  0  0  0  0  3  0  0  0  0  0  0
  186.4000  178.2280  145.9670 C   0  0  0  0  0  0  0  0  0  0  0  0
  186.0510  179.7100  147.4600 N   0  0  0  0  0  0  0  0  0  0  0  0
  185.6910  179.3360  146.2450 N   0  0  0  0  0  0  0  0  0  0  0  0
  187.2140  177.8730  146.9760 N   0  0  0  0  0  2  0  0  0  0  0  0
  188.8590  176.9910  144.3830 C   0  0  0  0  0  3  0  0  0  0  0  0
  189.8630  177.7400  144.7050 N   0  0  0  0  0  0  0  0  0  0  0  0
  191.5440  176.0370  144.2440 C   0  0  0  0  0  1  0  0  0  0  0  0
  191.1100  177.1600  145.1710 C   0  0  0  0  0  3  0  0  0  0  0  0
  190.9150  176.6040  146.5650 C   0  0  0  0  0  1  0  0  0  0  0  0
  188.5790  177.6090  140.7310 C   0  0  0  0  0  3  0  0  0  0  0  0
  188.3390  178.4670  141.7190 C   0  0  0  0  0  3  0  0  0  0  0  0
  190.9030  177.3970  139.8920 C   0  0  0  0  0  1  0  0  0  0  0  0
  189.2160  178.6110  138.4990 C   0  0  0  0  0  1  0  0  0  0  0  0
  189.5470  177.8750  139.7120 N   0  0  0  0  0  0  0  0  0  0  0  0
  183.9250  178.3510  143.9590 C   0  0  0  0  0  2  0  0  0  0  0  0
  183.2390  178.7910  142.6780 C   0  0  0  0  0  2  0  0  0  0  0  0
  181.7770  178.9360  142.9120 C   0  0  0  0  0  0  0  0  0  0  0  0
  180.9110  179.2540  141.8310 N   0  0  0  0  0  1  0  0  0  0  0  0
  181.3020  178.7460  144.0630 O   0  0  0  0  0  0  0  0  0  0  0  0
  1 11  1  0  0  0  0
  1  3  1  0  0  0  0
  2 21  1  0  0  0  0
  2  3  1  0  0  0  0
  3  7  1  1  0  0  0
  4  5  1  0  0  0  0
  4  2  2  0  0  0  0
  5  1  2  0  0  0  0
  7  9  2  0  0  0  0
  7 10  1  0  0  0  0
  8  6  2  0  0  0  0
  9  8  1  0  0  0  0
 10  6  1  0  0  0  0
 11 12  2  0  0  0  0
 12 14  1  0  0  0  0
 13 14  1  0  0  0  0
 14 15  1  0  0  0  0
 16 17  2  0  0  0  0
 17  5  1  0  0  0  0
 19 20  1  0  0  0  0
 20 18  1  0  0  0  0
 20 16  1  0  0  0  0
 22 23  1  0  0  0  0
 22 21  1  0  0  0  0
 23 25  2  0  0  0  0
 24 23  1  0  0  0  0
M  END
>  <MODEL>
1

>  <REMARK>
 VINA RESULT:      -7.0      0.000      0.000
  Name = 
  8 active torsions:
  status: ('A' for Active; 'I' for Inactive)
    1  A    between atoms: C_2  and  C_5
    2  A    between atoms: C_3  and  N_23
    3  A    between atoms: C_4  and  C_21
    4  A    between atoms: C_6  and  C_11
    5  A    between atoms: C_7  and  C_24
    6  A    between atoms: C_8  and  C_9
    7  A    between atoms: C_8  and  C_21
    8  A    between atoms: C_18  and  N_25
                            x       y       z     vdW  Elec       q    Type
                         _______ _______ _______ _____ _____    ______ ____

>  <TORSDO>
F 8

$$$$
=
 OpenBabel10232407463D

 25 26  0  0  1  0  0  0  0  0999 V2000
  189.1510  177.8650  144.1920 C   0  0  0  0  0  0  0  0  0  0  0  0
  190.6160  177.5590  142.4660 C   0  0  0  0  0  0  0  0  0  0  0  0
  190.6220  177.8690  143.9310 C   0  0  2  0  0  3  0  0  0  0  0  0
  189.4290  177.3930  141.9830 N   0  0  0  0  0  0  0  0  0  0  0  0
  188.5140  177.5860  143.0550 C   0  0  0  0  0  0  0  0  0  0  0  0
  192.1730  174.9440  145.2330 C   0  0  0  0  0  3  0  0  0  0  0  0
  191.3080  176.7860  144.7070 C   0  0  0  0  0  0  0  0  0  0  0  0
  192.2860  175.7590  146.3000 N   0  0  0  0  0  0  0  0  0  0  0  0
  191.7430  176.9170  145.9730 N   0  0  0  0  0  0  0  0  0  0  0  0
  191.5580  175.5640  144.2040 N   0  0  0  0  0  2  0  0  0  0  0  0
  188.5580  178.1560  145.5100 C   0  0  0  0  0  3  0  0  0  0  0  0
  188.3130  177.2270  146.3750 N   0  0  0  0  0  0  0  0  0  0  0  0
  186.5880  178.5300  147.5000 C   0  0  0  0  0  1  0  0  0  0  0  0
  187.7300  177.5430  147.6680 C   0  0  0  0  0  3  0  0  0  0  0  0
  188.7890  178.1560  148.5600 C   0  0  0  0  0  1  0  0  0  0  0  0
  186.3380  178.5230  142.4570 C   0  0  0  0  0  3  0  0  0  0  0  0
  187.0580  177.4930  142.8910 C   0  0  0  0  0  3  0  0  0  0  0  0
  184.0730  178.5310  143.4690 C   0  0  0  0  0  1  0  0  0  0  0  0
  184.2950  178.2800  140.9890 C   0  0  0  0  0  1  0  0  0  0  0  0
  184.9190  178.4440  142.2940 N   0  0  0  0  0  0  0  0  0  0  0  0
  191.8460  177.4360  141.6320 C   0  0  0  0  0  2  0  0  0  0  0  0
  191.4770  177.3560  140.1610 C   0  0  0  0  0  2  0  0  0  0  0  0
  192.6770  176.9990  139.3580 C   0  0  0  0  0  0  0  0  0  0  0  0
  192.5250  176.3500  138.1020 N   0  0  0  0  0  1  0  0  0  0  0  0
  193.8260  177.2990  139.7750 O   0  0  0  0  0  0  0  0  0  0  0  0
  1 11  1  0  0  0  0
  2  3  1  0  0  0  0
  3  1  1  0  0  0  0
  3  7  1  1  0  0  0
  4  2  2  0  0  0  0
  4  5  1  0  0  0  0
  5  1  2  0  0  0  0
  6  8  2  0  0  0  0
  7  9  2  0  0  0  0
  9  8  1  0  0  0  0
 10  7  1  0  0  0  0
 10  6  1  0  0  0  0
 11 12  2  0  0  0  0
 12 14  1  0  0  0  0
 13 14  1  0  0  0  0
 14 15  1  0  0  0  0
 16 17  2  0  0  0  0
 17  5  1  0  0  0  0
 19 20  1  0  0  0  0
 20 16  1  0  0  0  0
 20 18  1  0  0  0  0
 21  2  1  0  0  0  0
 22 21  1  0  0  0  0
 23 25  2  0  0  0  0
 23 22  1  0  0  0  0
 24 23  1  0  0  0  0
M  END
>  <MODEL>
2

>  <REMARK>
 VINA RESULT:      -6.9      3.308      6.633
  Name = 
  8 active torsions:
  status: ('A' for Active; 'I' for Inactive)
    1  A    between atoms: C_2  and  C_5
    2  A    between atoms: C_3  and  N_23
    3  A    between atoms: C_4  and  C_21
    4  A    between atoms: C_6  and  C_11
    5  A    between atoms: C_7  and  C_24
    6  A    between atoms: C_8  and  C_9
    7  A    between atoms: C_8  and  C_21
    8  A    between atoms: C_18  and  N_25
                            x       y       z     vdW  Elec       q    Type
                         _______ _______ _______ _____ _____    ______ ____

>  <TORSDO>
F 8

$$$$
=
 OpenBabel10232407463D

 25 26  0  0  1  0  0  0  0  0999 V2000
  188.3290  177.9540  143.7130 C   0  0  0  0  0  0  0  0  0  0  0  0
  189.0400  177.8120  141.5460 C   0  0  0  0  0  0  0  0  0  0  0  0
  189.6010  177.9070  142.9310 C   0  0  2  0  0  3  0  0  0  0  0  0
  187.7480  177.7880  141.5190 N   0  0  0  0  0  0  0  0  0  0  0  0
  187.3020  177.8790  142.8660 C   0  0  0  0  0  0  0  0  0  0  0  0
  191.8730  175.4200  144.0730 C   0  0  0  0  0  3  0  0  0  0  0  0
  190.3980  176.6840  143.2730 C   0  0  0  0  0  0  0  0  0  0  0  0
  191.0260  174.6490  143.3640 N   0  0  0  0  0  2  0  0  0  0  0  0
  190.0980  175.4410  142.8590 N   0  0  0  0  0  0  0  0  0  0  0  0
  191.5040  176.7170  144.0370 N   0  0  0  0  0  0  0  0  0  0  0  0
  188.2800  178.0870  145.1800 C   0  0  0  0  0  3  0  0  0  0  0  0
  188.1890  177.0610  145.9620 N   0  0  0  0  0  0  0  0  0  0  0  0
  187.1190  178.2760  147.7840 C   0  0  0  0  0  1  0  0  0  0  0  0
  188.1450  177.2210  147.4060 C   0  0  0  0  0  3  0  0  0  0  0  0
  189.5070  177.6540  147.9040 C   0  0  0  0  0  1  0  0  0  0  0  0
  185.0260  178.7480  142.6810 C   0  0  0  0  0  3  0  0  0  0  0  0
  185.8830  177.8980  143.2400 C   0  0  0  0  0  3  0  0  0  0  0  0
  183.2800  178.8630  144.4400 C   0  0  0  0  0  1  0  0  0  0  0  0
  182.5800  178.7170  142.0420 C   0  0  0  0  0  1  0  0  0  0  0  0
  183.6400  178.7750  143.0390 N   0  0  0  0  0  0  0  0  0  0  0  0
  189.8700  177.7370  140.3100 C   0  0  0  0  0  2  0  0  0  0  0  0
  189.0330  177.2380  139.1450 C   0  0  0  0  0  2  0  0  0  0  0  0
  189.1730  178.1650  137.9900 C   0  0  0  0  0  0  0  0  0  0  0  0
  189.5310  177.6590  136.7110 N   0  0  0  0  0  1  0  0  0  0  0  0
  188.9420  179.3940  138.1370 O   0  0  0  0  0  0  0  0  0  0  0  0
  1 11  1  0  0  0  0
  2  3  1  0  0  0  0
  3  7  1  1  0  0  0
  3  1  1  0  0  0  0
  4  2  2  0  0  0  0
  4  5  1  0  0  0  0
  5 17  1  0  0  0  0
  5  1  2  0  0  0  0
  7 10  1  0  0  0  0
  8  6  1  0  0  0  0
  9  7  2  0  0  0  0
  9  8  1  0  0  0  0
 10  6  2  0  0  0  0
 11 12  2  0  0  0  0
 12 14  1  0  0  0  0
 14 13  1  0  0  0  0
 14 15  1  0  0  0  0
 16 20  1  0  0  0  0
 16 17  2  0  0  0  0
 19 20  1  0  0  0  0
 20 18  1  0  0  0  0
 21  2  1  0  0  0  0
 22 21  1  0  0  0  0
 23 25  2  0  0  0  0
 23 22  1  0  0  0  0
 24 23  1  0  0  0  0
M  END
>  <MODEL>
3

>  <REMARK>
 VINA RESULT:      -6.9      2.631      6.011
  Name = 
  8 active torsions:
  status: ('A' for Active; 'I' for Inactive)
    1  A    between atoms: C_2  and  C_5
    2  A    between atoms: C_3  and  N_23
    3  A    between atoms: C_4  and  C_21
    4  A    between atoms: C_6  and  C_11
    5  A    between atoms: C_7  and  C_24
    6  A    between atoms: C_8  and  C_9
    7  A    between atoms: C_8  and  C_21
    8  A    between atoms: C_18  and  N_25
                            x       y       z     vdW  Elec       q    Type
                         _______ _______ _______ _____ _____    ______ ____

>  <TORSDO>
F 8

$$$$
=
 OpenBabel10232407463D

 25 26  0  0  1  0  0  0  0  0999 V2000
  189.6800  177.6060  140.7410 C   0  0  0  0  0  0  0  0  0  0  0  0
  189.0700  178.4780  138.7190 C   0  0  0  0  0  0  0  0  0  0  0  0
  190.2690  177.8910  139.3980 C   0  0  2  0  0  3  0  0  0  0  0  0
  188.0220  178.5130  139.4740 N   0  0  0  0  0  0  0  0  0  0  0  0
  188.3980  177.9740  140.7340 C   0  0  0  0  0  0  0  0  0  0  0  0
  191.8820  175.1790  137.7560 C   0  0  0  0  0  3  0  0  0  0  0  0
  190.7030  176.6250  138.7220 C   0  0  0  0  0  0  0  0  0  0  0  0
  190.6420  174.6660  137.8830 N   0  0  0  0  0  2  0  0  0  0  0  0
  189.8990  175.5730  138.4900 N   0  0  0  0  0  0  0  0  0  0  0  0
  191.9560  176.4210  138.2780 N   0  0  0  0  0  0  0  0  0  0  0  0
  190.4480  177.0340  141.8610 C   0  0  0  0  0  3  0  0  0  0  0  0
  190.8430  177.7500  142.8630 N   0  0  0  0  0  0  0  0  0  0  0  0
  191.6600  175.6500  143.7910 C   0  0  0  0  0  1  0  0  0  0  0  0
  191.5970  177.1590  143.9550 C   0  0  0  0  0  3  0  0  0  0  0  0
  190.9190  177.4870  145.2680 C   0  0  0  0  0  1  0  0  0  0  0  0
  186.3370  178.5540  141.9100 C   0  0  0  0  0  3  0  0  0  0  0  0
  187.4710  177.8610  141.8670 C   0  0  0  0  0  3  0  0  0  0  0  0
  184.0150  178.6840  142.7730 C   0  0  0  0  0  1  0  0  0  0  0  0
  185.8690  178.1220  144.3560 C   0  0  0  0  0  1  0  0  0  0  0  0
  185.4260  178.4520  143.0090 N   0  0  0  0  0  0  0  0  0  0  0  0
  189.0620  178.9670  137.3110 C   0  0  0  0  0  2  0  0  0  0  0  0
  187.8810  178.3800  136.5580 C   0  0  0  0  0  2  0  0  0  0  0  0
  188.3180  177.1860  135.7860 C   0  0  0  0  0  0  0  0  0  0  0  0
  189.6340  177.1260  135.2520 N   0  0  0  0  0  1  0  0  0  0  0  0
  187.5320  176.2140  135.6310 O   0  0  0  0  0  0  0  0  0  0  0  0
  1 11  1  0  0  0  0
  2  3  1  0  0  0  0
  2  4  2  0  0  0  0
  3  7  1  6  0  0  0
  3  1  1  0  0  0  0
  4  5  1  0  0  0  0
  5  1  2  0  0  0  0
  5 17  1  0  0  0  0
  6  8  1  0  0  0  0
  6 10  2  0  0  0  0
  8  9  1  0  0  0  0
  9  7  2  0  0  0  0
 10  7  1  0  0  0  0
 11 12  2  0  0  0  0
 12 14  1  0  0  0  0
 13 14  1  0  0  0  0
 14 15  1  0  0  0  0
 16 20  1  0  0  0  0
 17 16  2  0  0  0  0
 18 20  1  0  0  0  0
 20 19  1  0  0  0  0
 21  2  1  0  0  0  0
 22 21  1  0  0  0  0
 23 22  1  0  0  0  0
 24 23  1  0  0  0  0
 25 23  2  0  0  0  0
M  END
>  <MODEL>
4

>  <REMARK>
 VINA RESULT:      -6.8      3.094      7.171
  Name = 
  8 active torsions:
  status: ('A' for Active; 'I' for Inactive)
    1  A    between atoms: C_2  and  C_5
    2  A    between atoms: C_3  and  N_23
    3  A    between atoms: C_4  and  C_21
    4  A    between atoms: C_6  and  C_11
    5  A    between atoms: C_7  and  C_24
    6  A    between atoms: C_8  and  C_9
    7  A    between atoms: C_8  and  C_21
    8  A    between atoms: C_18  and  N_25
                            x       y       z     vdW  Elec       q    Type
                         _______ _______ _______ _____ _____    ______ ____

>  <TORSDO>
F 8

$$$$
=
 OpenBabel10232407463D

 25 26  0  0  1  0  0  0  0  0999 V2000
  187.8160  177.5300  142.1860 C   0  0  0  0  0  0  0  0  0  0  0  0
  187.3920  177.2840  144.4170 C   0  0  0  0  0  0  0  0  0  0  0  0
  188.4430  176.9420  143.4080 C   0  0  2  0  0  3  0  0  0  0  0  0
  186.3950  177.9340  143.9160 N   0  0  0  0  0  0  0  0  0  0  0  0
  186.6540  178.0870  142.5270 C   0  0  0  0  0  0  0  0  0  0  0  0
  191.1970  179.1070  144.0270 C   0  0  0  0  0  3  0  0  0  0  0  0
  189.7400  177.6230  143.7280 C   0  0  0  0  0  0  0  0  0  0  0  0
  191.7730  177.9190  144.2960 N   0  0  0  0  0  0  0  0  0  0  0  0
  190.8600  176.9840  144.1090 N   0  0  0  0  0  0  0  0  0  0  0  0
  189.9060  178.9560  143.6640 N   0  0  0  0  0  2  0  0  0  0  0  0
  188.4200  177.4540  140.8440 C   0  0  0  0  0  3  0  0  0  0  0  0
  188.6480  178.5070  140.1300 N   0  0  0  0  0  0  0  0  0  0  0  0
  188.1640  178.3310  137.7480 C   0  0  0  0  0  1  0  0  0  0  0  0
  189.2470  178.4030  138.8100 C   0  0  0  0  0  3  0  0  0  0  0  0
  190.0930  177.1490  138.7410 C   0  0  0  0  0  1  0  0  0  0  0  0
  184.5170  178.2860  141.3580 C   0  0  0  0  0  3  0  0  0  0  0  0
  185.7320  178.7680  141.6100 C   0  0  0  0  0  3  0  0  0  0  0  0
  182.1920  178.9140  140.7650 C   0  0  0  0  0  1  0  0  0  0  0  0
  184.0630  179.6330  139.2680 C   0  0  0  0  0  1  0  0  0  0  0  0
  183.6100  178.9410  140.4660 N   0  0  0  0  0  0  0  0  0  0  0  0
  187.4750  176.9310  145.8640 C   0  0  0  0  0  2  0  0  0  0  0  0
  187.7660  178.1700  146.6910 C   0  0  0  0  0  2  0  0  0  0  0  0
  188.7030  177.8320  147.7950 C   0  0  0  0  0  0  0  0  0  0  0  0
  189.9690  177.2550  147.5030 N   0  0  0  0  0  1  0  0  0  0  0  0
  188.3880  178.0860  148.9880 O   0  0  0  0  0  0  0  0  0  0  0  0
  1  5  2  0  0  0  0
  1  3  1  0  0  0  0
  2 21  1  0  0  0  0
  3  7  1  1  0  0  0
  3  2  1  0  0  0  0
  4  2  2  0  0  0  0
  5  4  1  0  0  0  0
  6  8  2  0  0  0  0
  7  9  2  0  0  0  0
  9  8  1  0  0  0  0
 10  7  1  0  0  0  0
 10  6  1  0  0  0  0
 11  1  1  0  0  0  0
 12 11  2  0  0  0  0
 13 14  1  0  0  0  0
 14 12  1  0  0  0  0
 15 14  1  0  0  0  0
 16 17  2  0  0  0  0
 17  5  1  0  0  0  0
 19 20  1  0  0  0  0
 20 18  1  0  0  0  0
 20 16  1  0  0  0  0
 21 22  1  0  0  0  0
 22 23  1  0  0  0  0
 23 25  2  0  0  0  0
 24 23  1  0  0  0  0
M  END
>  <MODEL>
5

>  <REMARK>
 VINA RESULT:      -6.8      2.609      5.870
  Name = 
  8 active torsions:
  status: ('A' for Active; 'I' for Inactive)
    1  A    between atoms: C_2  and  C_5
    2  A    between atoms: C_3  and  N_23
    3  A    between atoms: C_4  and  C_21
    4  A    between atoms: C_6  and  C_11
    5  A    between atoms: C_7  and  C_24
    6  A    between atoms: C_8  and  C_9
    7  A    between atoms: C_8  and  C_21
    8  A    between atoms: C_18  and  N_25
                            x       y       z     vdW  Elec       q    Type
                         _______ _______ _______ _____ _____    ______ ____

>  <TORSDO>
F 8

$$$$
=
 OpenBabel10232407463D

 25 26  0  0  1  0  0  0  0  0999 V2000
  188.1300  178.0600  143.5720 C   0  0  0  0  0  0  0  0  0  0  0  0
  188.8980  177.9300  141.4240 C   0  0  0  0  0  0  0  0  0  0  0  0
  189.4210  178.0670  142.8210 C   0  0  2  0  0  3  0  0  0  0  0  0
  187.6100  177.8440  141.3680 N   0  0  0  0  0  0  0  0  0  0  0  0
  187.1280  177.9270  142.7030 C   0  0  0  0  0  0  0  0  0  0  0  0
  190.9380  174.9160  143.4700 C   0  0  0  0  0  3  0  0  0  0  0  0
  190.2680  176.8880  143.1960 C   0  0  0  0  0  0  0  0  0  0  0  0
  191.8980  175.7350  143.9420 N   0  0  0  0  0  0  0  0  0  0  0  0
  191.4800  176.9750  143.7710 N   0  0  0  0  0  0  0  0  0  0  0  0
  189.8900  175.6140  142.9890 N   0  0  0  0  0  2  0  0  0  0  0  0
  188.0400  178.2060  145.0360 C   0  0  0  0  0  3  0  0  0  0  0  0
  187.9590  177.1850  145.8270 N   0  0  0  0  0  0  0  0  0  0  0  0
  186.8230  178.4000  147.6080 C   0  0  0  0  0  1  0  0  0  0  0  0
  187.8740  177.3580  147.2670 C   0  0  0  0  0  3  0  0  0  0  0  0
  189.2150  177.8160  147.7970 C   0  0  0  0  0  1  0  0  0  0  0  0
  184.8720  178.8640  142.7060 C   0  0  0  0  0  3  0  0  0  0  0  0
  185.7010  177.8810  143.0440 C   0  0  0  0  0  3  0  0  0  0  0  0
  182.5090  178.7350  141.9610 C   0  0  0  0  0  1  0  0  0  0  0  0
  183.0040  178.8880  144.4090 C   0  0  0  0  0  1  0  0  0  0  0  0
  183.4790  178.8300  143.0340 N   0  0  0  0  0  0  0  0  0  0  0  0
  189.7600  177.8830  140.2090 C   0  0  0  0  0  2  0  0  0  0  0  0
  188.9880  177.2950  139.0410 C   0  0  0  0  0  2  0  0  0  0  0  0
  189.2980  178.0530  137.7990 C   0  0  0  0  0  0  0  0  0  0  0  0
  188.8960  179.4110  137.6740 N   0  0  0  0  0  1  0  0  0  0  0  0
  189.9430  177.5010  136.8690 O   0  0  0  0  0  0  0  0  0  0  0  0
  1 11  1  0  0  0  0
  2  3  1  0  0  0  0
  3  7  1  1  0  0  0
  3  1  1  0  0  0  0
  4  2  2  0  0  0  0
  4  5  1  0  0  0  0
  5 17  1  0  0  0  0
  5  1  2  0  0  0  0
  6  8  2  0  0  0  0
  7  9  2  0  0  0  0
  9  8  1  0  0  0  0
 10  7  1  0  0  0  0
 10  6  1  0  0  0  0
 11 12  2  0  0  0  0
 12 14  1  0  0  0  0
 14 13  1  0  0  0  0
 14 15  1  0  0  0  0
 16 20  1  0  0  0  0
 16 17  2  0  0  0  0
 18 20  1  0  0  0  0
 20 19  1  0  0  0  0
 21  2  1  0  0  0  0
 22 21  1  0  0  0  0
 23 22  1  0  0  0  0
 24 23  1  0  0  0  0
 25 23  2  0  0  0  0
M  END
>  <MODEL>
6

>  <REMARK>
 VINA RESULT:      -6.6      2.879      6.105
  Name = 
  8 active torsions:
  status: ('A' for Active; 'I' for Inactive)
    1  A    between atoms: C_2  and  C_5
    2  A    between atoms: C_3  and  N_23
    3  A    between atoms: C_4  and  C_21
    4  A    between atoms: C_6  and  C_11
    5  A    between atoms: C_7  and  C_24
    6  A    between atoms: C_8  and  C_9
    7  A    between atoms: C_8  and  C_21
    8  A    between atoms: C_18  and  N_25
                            x       y       z     vdW  Elec       q    Type
                         _______ _______ _______ _____ _____    ______ ____

>  <TORSDO>
F 8

$$$$
=
 OpenBabel10232407463D

 25 26  0  0  1  0  0  0  0  0999 V2000
  189.1180  177.1020  141.6490 C   0  0  0  0  0  0  0  0  0  0  0  0
  187.5920  177.6490  143.2580 C   0  0  0  0  0  0  0  0  0  0  0  0
  188.8260  176.8180  143.0860 C   0  0  2  0  0  3  0  0  0  0  0  0
  187.2510  178.2850  142.1870 N   0  0  0  0  0  0  0  0  0  0  0  0
  188.1970  177.9450  141.1820 C   0  0  0  0  0  0  0  0  0  0  0  0
  191.3680  177.4260  145.4990 C   0  0  0  0  0  3  0  0  0  0  0  0
  189.9330  177.3110  143.9680 C   0  0  0  0  0  0  0  0  0  0  0  0
  191.4670  178.5560  144.7720 N   0  0  0  0  0  2  0  0  0  0  0  0
  190.5660  178.4860  143.8090 N   0  0  0  0  0  0  0  0  0  0  0  0
  190.4050  176.6130  145.0170 N   0  0  0  0  0  0  0  0  0  0  0  0
  190.2440  176.4990  140.9130 C   0  0  0  0  0  3  0  0  0  0  0  0
  190.9420  177.1660  140.0530 N   0  0  0  0  0  0  0  0  0  0  0  0
  193.3470  177.2590  139.6750 C   0  0  0  0  0  1  0  0  0  0  0  0
  192.0480  176.5460  139.3430 C   0  0  0  0  0  3  0  0  0  0  0  0
  191.8000  176.6340  137.8530 C   0  0  0  0  0  1  0  0  0  0  0  0
  187.7090  177.7110  138.7990 C   0  0  0  0  0  3  0  0  0  0  0  0
  188.1320  178.4650  139.8110 C   0  0  0  0  0  3  0  0  0  0  0  0
  188.7530  178.9810  136.9410 C   0  0  0  0  0  1  0  0  0  0  0  0
  186.4930  177.9620  136.5970 C   0  0  0  0  0  1  0  0  0  0  0  0
  187.6410  178.2080  137.4590 N   0  0  0  0  0  0  0  0  0  0  0  0
  186.8270  177.7560  144.5340 C   0  0  0  0  0  2  0  0  0  0  0  0
  185.4410  178.3170  144.2690 C   0  0  0  0  0  2  0  0  0  0  0  0
  184.8660  178.8590  145.5290 C   0  0  0  0  0  0  0  0  0  0  0  0
  185.7180  179.1780  146.6210 N   0  0  0  0  0  1  0  0  0  0  0  0
  183.6270  179.0640  145.6180 O   0  0  0  0  0  0  0  0  0  0  0  0
  1  3  1  0  0  0  0
  2 21  1  0  0  0  0
  3  2  1  0  0  0  0
  3  7  1  1  0  0  0
  4  2  2  0  0  0  0
  5  1  2  0  0  0  0
  5  4  1  0  0  0  0
  7 10  1  0  0  0  0
  8  6  1  0  0  0  0
  9  7  2  0  0  0  0
  9  8  1  0  0  0  0
 10  6  2  0  0  0  0
 11  1  1  0  0  0  0
 12 11  2  0  0  0  0
 14 13  1  0  0  0  0
 14 12  1  0  0  0  0
 15 14  1  0  0  0  0
 16 17  2  0  0  0  0
 17  5  1  0  0  0  0
 18 20  1  0  0  0  0
 19 20  1  0  0  0  0
 20 16  1  0  0  0  0
 22 21  1  0  0  0  0
 22 23  1  0  0  0  0
 23 25  2  0  0  0  0
 23 24  1  0  0  0  0
M  END
>  <MODEL>
7

>  <REMARK>
 VINA RESULT:      -6.6      2.134      4.299
  Name = 
  8 active torsions:
  status: ('A' for Active; 'I' for Inactive)
    1  A    between atoms: C_2  and  C_5
    2  A    between atoms: C_3  and  N_23
    3  A    between atoms: C_4  and  C_21
    4  A    between atoms: C_6  and  C_11
    5  A    between atoms: C_7  and  C_24
    6  A    between atoms: C_8  and  C_9
    7  A    between atoms: C_8  and  C_21
    8  A    between atoms: C_18  and  N_25
                            x       y       z     vdW  Elec       q    Type
                         _______ _______ _______ _____ _____    ______ ____

>  <TORSDO>
F 8

$$$$
=
 OpenBabel10232407463D

 25 26  0  0  1  0  0  0  0  0999 V2000
  186.8330  178.6710  142.3000 C   0  0  0  0  0  0  0  0  0  0  0  0
  184.9150  179.0850  143.4710 C   0  0  0  0  0  0  0  0  0  0  0  0
  185.5500  179.4230  142.1570 C   0  0  2  0  0  3  0  0  0  0  0  0
  185.6400  178.3060  144.2030 N   0  0  0  0  0  0  0  0  0  0  0  0
  186.8360  178.0480  143.4790 C   0  0  0  0  0  0  0  0  0  0  0  0
  183.7930  178.7130  139.1470 C   0  0  0  0  0  3  0  0  0  0  0  0
  184.7390  178.8900  141.0150 C   0  0  0  0  0  0  0  0  0  0  0  0
  183.5020  177.6020  139.8510 N   0  0  0  0  0  2  0  0  0  0  0  0
  184.0950  177.7100  141.0260 N   0  0  0  0  0  0  0  0  0  0  0  0
  184.5770  179.5520  139.8550 N   0  0  0  0  0  0  0  0  0  0  0  0
  187.8970  178.6750  141.2790 C   0  0  0  0  0  3  0  0  0  0  0  0
  188.0190  177.7270  140.4090 N   0  0  0  0  0  0  0  0  0  0  0  0
  188.6950  176.8990  138.2180 C   0  0  0  0  0  1  0  0  0  0  0  0
  189.0760  177.7580  139.4120 C   0  0  0  0  0  3  0  0  0  0  0  0
  190.3550  177.2220  140.0200 C   0  0  0  0  0  1  0  0  0  0  0  0
  189.0310  177.7370  144.5070 C   0  0  0  0  0  3  0  0  0  0  0  0
  187.9220  177.2070  143.9980 C   0  0  0  0  0  3  0  0  0  0  0  0
  190.9670  176.2460  144.0780 C   0  0  0  0  0  1  0  0  0  0  0  0
  190.3320  176.7630  146.4420 C   0  0  0  0  0  1  0  0  0  0  0  0
  190.0950  176.9270  145.0150 N   0  0  0  0  0  0  0  0  0  0  0  0
  183.5760  179.5770  143.9040 C   0  0  0  0  0  2  0  0  0  0  0  0
  182.6070  178.4160  144.0340 C   0  0  0  0  0  2  0  0  0  0  0  0
  181.3100  178.7660  143.3960 C   0  0  0  0  0  0  0  0  0  0  0  0
  180.0980  178.6350  144.1290 N   0  0  0  0  0  1  0  0  0  0  0  0
  181.2870  179.2080  142.2170 O   0  0  0  0  0  0  0  0  0  0  0  0
  1  5  2  0  0  0  0
  2 21  1  0  0  0  0
  2  4  2  0  0  0  0
  3  7  1  6  0  0  0
  3  1  1  0  0  0  0
  3  2  1  0  0  0  0
  5 17  1  0  0  0  0
  5  4  1  0  0  0  0
  6  8  1  0  0  0  0
  6 10  2  0  0  0  0
  7  9  2  0  0  0  0
  8  9  1  0  0  0  0
 10  7  1  0  0  0  0
 11  1  1  0  0  0  0
 12 11  2  0  0  0  0
 13 14  1  0  0  0  0
 14 15  1  0  0  0  0
 14 12  1  0  0  0  0
 16 20  1  0  0  0  0
 17 16  2  0  0  0  0
 18 20  1  0  0  0  0
 20 19  1  0  0  0  0
 21 22  1  0  0  0  0
 23 22  1  0  0  0  0
 23 24  1  0  0  0  0
 25 23  2  0  0  0  0
M  END
>  <MODEL>
8

>  <REMARK>
 VINA RESULT:      -6.5      1.834      4.937
  Name = 
  8 active torsions:
  status: ('A' for Active; 'I' for Inactive)
    1  A    between atoms: C_2  and  C_5
    2  A    between atoms: C_3  and  N_23
    3  A    between atoms: C_4  and  C_21
    4  A    between atoms: C_6  and  C_11
    5  A    between atoms: C_7  and  C_24
    6  A    between atoms: C_8  and  C_9
    7  A    between atoms: C_8  and  C_21
    8  A    between atoms: C_18  and  N_25
                            x       y       z     vdW  Elec       q    Type
                         _______ _______ _______ _____ _____    ______ ____

>  <TORSDO>
F 8

$$$$
=
 OpenBabel10232407463D

 25 26  0  0  1  0  0  0  0  0999 V2000
  186.3300  179.0730  141.5760 C   0  0  0  0  0  0  0  0  0  0  0  0
  187.9040  178.5640  140.0010 C   0  0  0  0  0  0  0  0  0  0  0  0
  187.8150  179.0070  141.4280 C   0  0  2  0  0  3  0  0  0  0  0  0
  186.7500  178.3910  139.4470 N   0  0  0  0  0  0  0  0  0  0  0  0
  185.7670  178.7090  140.4240 C   0  0  0  0  0  0  0  0  0  0  0  0
  188.7500  176.1770  143.3690 C   0  0  0  0  0  3  0  0  0  0  0  0
  188.4030  177.9800  142.3480 C   0  0  0  0  0  0  0  0  0  0  0  0
  189.6620  177.0670  143.8070 N   0  0  0  0  0  0  0  0  0  0  0  0
  189.4460  178.2020  143.1670 N   0  0  0  0  0  0  0  0  0  0  0  0
  187.9350  176.7230  142.4430 N   0  0  0  0  0  2  0  0  0  0  0  0
  185.6540  179.5010  142.8140 C   0  0  0  0  0  3  0  0  0  0  0  0
  185.3070  178.6630  143.7360 N   0  0  0  0  0  0  0  0  0  0  0  0
  185.2340  178.4130  146.1590 C   0  0  0  0  0  1  0  0  0  0  0  0
  184.6440  179.1140  144.9470 C   0  0  0  0  0  3  0  0  0  0  0  0
  183.1670  178.7930  144.8600 C   0  0  0  0  0  1  0  0  0  0  0  0
  183.7190  179.5380  139.3810 C   0  0  0  0  0  3  0  0  0  0  0  0
  184.3250  178.6460  140.1600 C   0  0  0  0  0  3  0  0  0  0  0  0
  181.8280  179.9240  137.8220 C   0  0  0  0  0  1  0  0  0  0  0  0
  181.3560  179.0090  140.1030 C   0  0  0  0  0  1  0  0  0  0  0  0
  182.3140  179.4870  139.1160 N   0  0  0  0  0  0  0  0  0  0  0  0
  189.1860  178.3280  139.2770 C   0  0  0  0  0  2  0  0  0  0  0  0
  189.1870  176.9460  138.6490 C   0  0  0  0  0  2  0  0  0  0  0  0
  190.3490  176.1640  139.1490 C   0  0  0  0  0  0  0  0  0  0  0  0
  191.0150  175.2480  138.2890 N   0  0  0  0  0  1  0  0  0  0  0  0
  190.7640  176.3360  140.3260 O   0  0  0  0  0  0  0  0  0  0  0  0
  1 11  1  0  0  0  0
  2  3  1  0  0  0  0
  3  1  1  0  0  0  0
  3  7  1  1  0  0  0
  4  2  2  0  0  0  0
  4  5  1  0  0  0  0
  5  1  2  0  0  0  0
  6  8  2  0  0  0  0
  7 10  1  0  0  0  0
  7  9  2  0  0  0  0
  9  8  1  0  0  0  0
 10  6  1  0  0  0  0
 11 12  2  0  0  0  0
 12 14  1  0  0  0  0
 14 13  1  0  0  0  0
 15 14  1  0  0  0  0
 16 17  2  0  0  0  0
 17  5  1  0  0  0  0
 18 20  1  0  0  0  0
 20 16  1  0  0  0  0
 20 19  1  0  0  0  0
 21  2  1  0  0  0  0
 22 23  1  0  0  0  0
 22 21  1  0  0  0  0
 23 25  2  0  0  0  0
 24 23  1  0  0  0  0
M  END
>  <MODEL>
9

>  <REMARK>
 VINA RESULT:      -6.3      3.092      6.625
  Name = 
  8 active torsions:
  status: ('A' for Active; 'I' for Inactive)
    1  A    between atoms: C_2  and  C_5
    2  A    between atoms: C_3  and  N_23
    3  A    between atoms: C_4  and  C_21
    4  A    between atoms: C_6  and  C_11
    5  A    between atoms: C_7  and  C_24
    6  A    between atoms: C_8  and  C_9
    7  A    between atoms: C_8  and  C_21
    8  A    between atoms: C_18  and  N_25
                            x       y       z     vdW  Elec       q    Type
                         _______ _______ _______ _____ _____    ______ ____

>  <TORSDO>
F 8

$$$$
