=
 OpenBabel10232411473D

 47 53  0  0  1  0  0  0  0  0999 V2000
  188.5640  176.0850  136.9750 C   0  0  2  0  0  3  0  0  0  0  0  0
  186.4120  177.2820  137.5140 C   0  0  0  0  0  3  0  0  0  0  0  0
  186.4160  178.1790  140.4820 C   0  0  0  0  0  3  0  0  0  0  0  0
  192.1920  176.5910  138.7560 S   0  0  0  0  0  0  0  0  0  0  0  0
  190.8630  177.7280  139.3300 C   0  0  1  0  0  3  0  0  0  0  0  0
  187.7380  177.1940  137.5880 C   0  0  0  0  0  0  0  0  0  0  0  0
  189.1400  177.7860  141.0860 O   0  0  0  0  0  0  0  0  0  0  0  0
  188.7190  177.7730  142.4230 C   0  0  0  0  0  0  0  0  0  0  0  0
  189.8340  177.6230  138.3110 N   0  0  0  0  0  0  0  0  0  0  0  0
  189.2770  177.6060  144.7890 C   0  0  0  0  0  3  0  0  0  0  0  0
  188.5240  178.0820  138.3860 N   0  0  0  0  0  2  0  0  0  0  0  0
  189.8970  176.4620  137.5390 C   0  0  0  0  0  0  0  0  0  0  0  0
  187.3490  177.9080  142.7670 C   0  0  0  0  0  0  0  0  0  0  0  0
  190.3770  177.2020  140.6820 C   0  0  0  0  0  2  0  0  0  0  0  0
  190.9980  175.7530  137.6860 C   0  0  0  0  0  0  0  0  0  0  0  0
  186.2480  178.0130  141.7890 C   0  0  0  0  0  3  0  0  0  0  0  0
  189.6680  177.6220  143.4500 C   0  0  0  0  0  3  0  0  0  0  0  0
  185.7130  178.3440  138.1640 N   0  0  0  0  0  2  0  0  0  0  0  0
  186.9740  177.8830  144.1160 C   0  0  0  0  0  3  0  0  0  0  0  0
  187.9240  177.7370  145.1290 C   0  0  0  0  0  0  0  0  0  0  0  0
  185.2480  178.2440  139.5420 C   0  0  2  0  0  3  0  0  0  0  0  0
  193.4800  173.3850  136.6130 C   0  0  0  0  0  3  0  0  0  0  0  0
  192.3110  173.8780  136.9020 C   0  0  0  0  0  0  0  0  0  0  0  0
  191.1410  174.3790  137.1930 C   0  0  0  0  0  3  0  0  0  0  0  0
  197.9910  173.0860  137.3690 C   0  0  0  0  0  1  0  0  0  0  0  0
  196.7790  173.2070  136.5580 N   0  0  0  0  0  0  0  0  0  0  0  0
  196.3000  174.6010  136.4960 C   0  0  2  0  0  3  0  0  0  0  0  0
  195.7410  172.4660  137.2850 C   0  0  1  0  0  3  0  0  0  0  0  0
  194.5880  173.4280  137.6200 C   0  0  1  0  0  3  0  0  0  0  0  0
  197.3640  175.5940  136.6270 N   0  0  0  0  0  1  0  0  0  0  0  0
  195.2370  174.7840  137.5570 C   0  0  0  0  0  2  0  0  0  0  0  0
  196.0350  171.0090  135.2160 C   0  0  0  0  0  2  0  0  0  0  0  0
  195.3290  171.1690  136.5690 C   0  0  0  0  0  3  0  0  0  0  0  0
  194.9450  168.8290  135.4170 O   0  0  0  0  0  0  0  0  0  0  0  0
  195.6010  169.9500  137.4660 C   0  0  0  0  0  2  0  0  0  0  0  0
  195.8280  169.5990  134.6330 C   0  0  0  0  0  2  0  0  0  0  0  0
  195.5720  168.6400  136.6630 C   0  0  0  0  0  2  0  0  0  0  0  0
  184.3660  179.4120  139.8470 C   0  0  0  0  0  0  0  0  0  0  0  0
  184.4130  180.4290  139.1030 O   0  0  0  0  0  0  0  0  0  0  0  0
  182.2690  178.7630  140.9640 C   0  0  0  0  0  1  0  0  0  0  0  0
  183.5410  179.3920  140.9760 O   0  0  0  0  0  0  0  0  0  0  0  0
  188.6020  176.2090  135.4580 C   0  0  0  0  0  2  0  0  0  0  0  0
  188.1270  174.9210  134.8120 C   0  0  0  0  0  1  0  0  0  0  0  0
  187.4980  177.7270  146.4600 O   0  0  0  0  0  0  0  0  0  0  0  0
  188.3090  177.2480  147.5240 C   0  0  2  0  0  3  0  0  0  0  0  0
  187.8940  177.8810  148.7920 C   0  0  0  0  0  2  0  0  0  0  0  0
  189.0250  178.3240  148.0820 O   0  0  0  0  0  0  0  0  0  0  0  0
  1 42  1  6  0  0  0
  1 12  1  0  0  0  0
  1  6  1  0  0  0  0
  2  6  2  0  0  0  0
  2 18  1  0  0  0  0
  3 16  2  0  0  0  0
  4  5  1  0  0  0  0
  5 14  1  1  0  0  0
  6 11  1  0  0  0  0
  7  8  1  0  0  0  0
  8 13  2  0  0  0  0
  8 17  1  0  0  0  0
  9 11  1  0  0  0  0
  9  5  1  0  0  0  0
 10 20  1  0  0  0  0
 12 15  2  0  0  0  0
 12  9  1  0  0  0  0
 13 19  1  0  0  0  0
 14  7  1  0  0  0  0
 15  4  1  0  0  0  0
 16 13  1  0  0  0  0
 17 10  2  0  0  0  0
 18 21  1  0  0  0  0
 19 20  2  0  0  0  0
 20 44  1  0  0  0  0
 21 38  1  1  0  0  0
 21  3  1  0  0  0  0
 22 23  2  0  0  0  0
 23 24  2  0  0  0  0
 24 15  1  0  0  0  0
 26 28  1  0  0  0  0
 26 25  1  0  0  0  0
 27 26  1  0  0  0  0
 27 30  1  1  0  0  0
 27 31  1  0  0  0  0
 28 33  1  6  0  0  0
 28 29  1  0  0  0  0
 29 22  1  6  0  0  0
 31 29  1  0  0  0  0
 32 33  1  0  0  0  0
 33 35  1  0  0  0  0
 34 37  1  0  0  0  0
 36 32  1  0  0  0  0
 36 34  1  0  0  0  0
 37 35  1  0  0  0  0
 38 41  1  0  0  0  0
 39 38  2  0  0  0  0
 40 41  1  0  0  0  0
 43 42  1  0  0  0  0
 45 44  1  6  0  0  0
 45 47  1  0  0  0  0
 45 46  1  0  0  0  0
 47 46  1  0  0  0  0
M  END
>  <MODEL>
1

>  <REMARK>
 VINA RESULT:      -8.5      0.000      0.000
  Name = 
  8 active torsions:
  status: ('A' for Active; 'I' for Inactive)
    1  A    between atoms: C_1  and  C_28
    2  A    between atoms: C_16  and  O_44
    3  A    between atoms: C_18  and  C_19
    4  A    between atoms: C_20  and  C_26
    5  A    between atoms: C_22  and  O_32
    6  A    between atoms: C_22  and  C_45
    7  A    between atoms: C_31  and  C_43
    8  A    between atoms: C_42  and  O_44
                            x       y       z     vdW  Elec       q    Type
                         _______ _______ _______ _____ _____    ______ ____

>  <TORSDO>
F 8

$$$$
=
 OpenBabel10232411473D

 47 53  0  0  1  0  0  0  0  0999 V2000
  183.7120  177.6650  138.4250 C   0  0  2  0  0  3  0  0  0  0  0  0
  183.2520  178.3130  140.8170 C   0  0  0  0  0  3  0  0  0  0  0  0
  185.8630  178.1320  142.4820 C   0  0  0  0  0  3  0  0  0  0  0  0
  187.2310  178.0010  136.4020 S   0  0  0  0  0  0  0  0  0  0  0  0
  187.2310  178.6890  138.1090 C   0  0  1  0  0  3  0  0  0  0  0  0
  184.0090  178.3790  139.7250 C   0  0  0  0  0  0  0  0  0  0  0  0
  187.7380  177.9160  140.3900 O   0  0  0  0  0  0  0  0  0  0  0  0
  188.5920  177.3910  141.3690 C   0  0  0  0  0  0  0  0  0  0  0  0
  185.8250  178.8050  138.4500 N   0  0  0  0  0  0  0  0  0  0  0  0
  190.7750  176.4990  141.9780 C   0  0  0  0  0  3  0  0  0  0  0  0
  185.2800  179.0350  139.7090 N   0  0  0  0  0  2  0  0  0  0  0  0
  184.9740  177.9970  137.6940 C   0  0  0  0  0  0  0  0  0  0  0  0
  188.1600  177.2200  142.7100 C   0  0  0  0  0  0  0  0  0  0  0  0
  187.9480  177.6730  139.0000 C   0  0  0  0  0  2  0  0  0  0  0  0
  185.5300  177.4310  136.6430 C   0  0  0  0  0  0  0  0  0  0  0  0
  186.7950  177.5080  143.1920 C   0  0  0  0  0  3  0  0  0  0  0  0
  189.9040  177.0230  141.0230 C   0  0  0  0  0  3  0  0  0  0  0  0
  183.6380  178.9870  142.0160 N   0  0  0  0  0  2  0  0  0  0  0  0
  189.0460  176.6850  143.6540 C   0  0  0  0  0  3  0  0  0  0  0  0
  190.3500  176.3280  143.3020 C   0  0  0  0  0  0  0  0  0  0  0  0
  184.4830  178.3610  143.0260 C   0  0  2  0  0  3  0  0  0  0  0  0
  186.2960  174.3110  135.0320 C   0  0  0  0  0  3  0  0  0  0  0  0
  185.5970  175.3230  135.4600 C   0  0  0  0  0  0  0  0  0  0  0  0
  184.9020  176.3400  135.8900 C   0  0  0  0  0  3  0  0  0  0  0  0
  188.3770  170.3260  135.9240 C   0  0  0  0  0  1  0  0  0  0  0  0
  187.6690  171.3070  135.1000 N   0  0  0  0  0  0  0  0  0  0  0  0
  188.5880  172.3220  134.5500 C   0  0  2  0  0  3  0  0  0  0  0  0
  186.7870  172.0330  136.0210 C   0  0  1  0  0  3  0  0  0  0  0  0
  187.1490  173.5280  135.9800 C   0  0  1  0  0  3  0  0  0  0  0  0
  189.9490  171.8330  134.3460 N   0  0  0  0  0  1  0  0  0  0  0  0
  188.5620  173.5290  135.4620 C   0  0  0  0  0  2  0  0  0  0  0  0
  185.0820  170.2430  135.4040 C   0  0  0  0  0  2  0  0  0  0  0  0
  185.3000  171.7110  135.7930 C   0  0  0  0  0  3  0  0  0  0  0  0
  182.7690  170.9790  135.7030 O   0  0  0  0  0  0  0  0  0  0  0  0
  184.4760  172.0650  137.0420 C   0  0  0  0  0  2  0  0  0  0  0  0
  183.5910  169.8630  135.4400 C   0  0  0  0  0  2  0  0  0  0  0  0
  183.0850  171.4140  137.0040 C   0  0  0  0  0  2  0  0  0  0  0  0
  184.5130  179.2290  144.2440 C   0  0  0  0  0  0  0  0  0  0  0  0
  184.8510  180.4380  144.1300 O   0  0  0  0  0  0  0  0  0  0  0  0
  185.2380  178.4030  146.4490 C   0  0  0  0  0  1  0  0  0  0  0  0
  184.2220  178.6850  145.4980 O   0  0  0  0  0  0  0  0  0  0  0  0
  182.5290  178.3050  137.7110 C   0  0  0  0  0  2  0  0  0  0  0  0
  181.5210  177.2460  137.3080 C   0  0  0  0  0  1  0  0  0  0  0  0
  191.1970  175.8060  144.2840 O   0  0  0  0  0  0  0  0  0  0  0  0
  191.7210  176.5930  145.3440 C   0  0  2  0  0  3  0  0  0  0  0  0
  192.0870  175.7210  146.4780 C   0  0  0  0  0  2  0  0  0  0  0  0
  190.8910  176.4620  146.4730 O   0  0  0  0  0  0  0  0  0  0  0  0
  1 42  1  6  0  0  0
  1  6  1  0  0  0  0
  2 18  1  0  0  0  0
  3 21  1  0  0  0  0
  3 16  2  0  0  0  0
  4 15  1  0  0  0  0
  4  5  1  0  0  0  0
  5  9  1  0  0  0  0
  5 14  1  1  0  0  0
  6  2  2  0  0  0  0
  7  8  1  0  0  0  0
  8 13  1  0  0  0  0
  9 11  1  0  0  0  0
 10 20  2  0  0  0  0
 11  6  1  0  0  0  0
 12  1  1  0  0  0  0
 12  9  1  0  0  0  0
 13 16  1  0  0  0  0
 13 19  2  0  0  0  0
 14  7  1  0  0  0  0
 15 12  2  0  0  0  0
 17  8  2  0  0  0  0
 17 10  1  0  0  0  0
 18 21  1  0  0  0  0
 20 19  1  0  0  0  0
 20 44  1  0  0  0  0
 21 38  1  1  0  0  0
 22 23  2  0  0  0  0
 23 24  2  0  0  0  0
 24 15  1  0  0  0  0
 26 25  1  0  0  0  0
 26 28  1  0  0  0  0
 27 30  1  1  0  0  0
 27 26  1  0  0  0  0
 27 31  1  0  0  0  0
 28 33  1  6  0  0  0
 29 22  1  6  0  0  0
 29 28  1  0  0  0  0
 31 29  1  0  0  0  0
 32 36  1  0  0  0  0
 32 33  1  0  0  0  0
 33 35  1  0  0  0  0
 34 37  1  0  0  0  0
 36 34  1  0  0  0  0
 37 35  1  0  0  0  0
 38 41  1  0  0  0  0
 39 38  2  0  0  0  0
 41 40  1  0  0  0  0
 43 42  1  0  0  0  0
 45 44  1  6  0  0  0
 45 47  1  0  0  0  0
 45 46  1  0  0  0  0
 47 46  1  0  0  0  0
M  END
>  <MODEL>
2

>  <REMARK>
 VINA RESULT:      -8.3      4.809      6.637
  Name = 
  8 active torsions:
  status: ('A' for Active; 'I' for Inactive)
    1  A    between atoms: C_1  and  C_28
    2  A    between atoms: C_16  and  O_44
    3  A    between atoms: C_18  and  C_19
    4  A    between atoms: C_20  and  C_26
    5  A    between atoms: C_22  and  O_32
    6  A    between atoms: C_22  and  C_45
    7  A    between atoms: C_31  and  C_43
    8  A    between atoms: C_42  and  O_44
                            x       y       z     vdW  Elec       q    Type
                         _______ _______ _______ _____ _____    ______ ____

>  <TORSDO>
F 8

$$$$
=
 OpenBabel10232411473D

 47 53  0  0  1  0  0  0  0  0999 V2000
  184.6330  177.6760  142.3750 C   0  0  2  0  0  3  0  0  0  0  0  0
  186.6200  177.7940  143.9210 C   0  0  0  0  0  3  0  0  0  0  0  0
  189.2470  177.7080  142.2750 C   0  0  0  0  0  3  0  0  0  0  0  0
  184.4360  178.9080  138.4980 S   0  0  0  0  0  0  0  0  0  0  0  0
  186.0230  179.2610  139.3600 C   0  0  1  0  0  3  0  0  0  0  0  0
  185.9930  178.1750  142.8110 C   0  0  0  0  0  0  0  0  0  0  0  0
  188.2010  178.1670  139.7000 O   0  0  0  0  0  0  0  0  0  0  0  0
  189.4020  177.6070  139.2420 C   0  0  0  0  0  0  0  0  0  0  0  0
  185.7110  179.0990  140.7690 N   0  0  0  0  0  0  0  0  0  0  0  0
  190.8280  176.9590  137.3770 C   0  0  0  0  0  3  0  0  0  0  0  0
  186.6100  179.0080  141.8260 N   0  0  0  0  0  2  0  0  0  0  0  0
  184.5790  178.3240  141.0280 C   0  0  0  0  0  0  0  0  0  0  0  0
  190.3840  177.1280  140.1460 C   0  0  0  0  0  0  0  0  0  0  0  0
  187.0350  178.2200  138.8810 C   0  0  0  0  0  2  0  0  0  0  0  0
  183.8350  178.0520  139.9750 C   0  0  0  0  0  0  0  0  0  0  0  0
  190.2340  177.1130  141.6140 C   0  0  0  0  0  3  0  0  0  0  0  0
  189.6420  177.5120  137.8600 C   0  0  0  0  0  3  0  0  0  0  0  0
  187.9260  178.2870  144.2280 N   0  0  0  0  0  2  0  0  0  0  0  0
  191.5660  176.5700  139.6440 C   0  0  0  0  0  3  0  0  0  0  0  0
  191.7990  176.4850  138.2690 C   0  0  0  0  0  0  0  0  0  0  0  0
  189.1380  177.6220  143.7700 C   0  0  2  0  0  3  0  0  0  0  0  0
  182.6870  175.1720  138.1580 C   0  0  0  0  0  3  0  0  0  0  0  0
  182.7300  176.1010  139.0680 C   0  0  0  0  0  0  0  0  0  0  0  0
  182.7780  177.0360  139.9780 C   0  0  0  0  0  3  0  0  0  0  0  0
  185.3850  173.1930  135.0250 C   0  0  0  0  0  1  0  0  0  0  0  0
  184.3400  174.0980  135.5060 N   0  0  0  0  0  0  0  0  0  0  0  0
  184.9080  175.3500  136.0420 C   0  0  2  0  0  3  0  0  0  0  0  0
  183.7290  173.4200  136.6560 C   0  0  1  0  0  3  0  0  0  0  0  0
  183.8860  174.3130  137.8990 C   0  0  1  0  0  3  0  0  0  0  0  0
  186.1760  175.7320  135.4230 N   0  0  0  0  0  1  0  0  0  0  0  0
  185.0440  175.2060  137.5410 C   0  0  0  0  0  2  0  0  0  0  0  0
  181.8280  173.3430  134.9610 C   0  0  0  0  0  2  0  0  0  0  0  0
  182.2960  172.9430  136.3660 C   0  0  0  0  0  3  0  0  0  0  0  0
  179.9860  171.8900  135.6530 O   0  0  0  0  0  0  0  0  0  0  0  0
  182.1890  171.4200  136.5560 C   0  0  0  0  0  2  0  0  0  0  0  0
  180.5130  172.6400  134.5810 C   0  0  0  0  0  2  0  0  0  0  0  0
  180.9100  170.8600  135.9160 C   0  0  0  0  0  2  0  0  0  0  0  0
  190.3220  178.2440  144.4410 C   0  0  0  0  0  0  0  0  0  0  0  0
  190.7740  179.3350  144.0000 O   0  0  0  0  0  0  0  0  0  0  0  0
  190.2020  176.9760  146.5490 C   0  0  0  0  0  1  0  0  0  0  0  0
  190.9460  177.5920  145.5080 O   0  0  0  0  0  0  0  0  0  0  0  0
  183.5340  178.2490  143.2580 C   0  0  0  0  0  2  0  0  0  0  0  0
  184.0330  179.4810  143.9890 C   0  0  0  0  0  1  0  0  0  0  0  0
  192.9990  175.9260  137.8190 O   0  0  0  0  0  0  0  0  0  0  0  0
  193.3720  175.9070  136.4480 C   0  0  2  0  0  3  0  0  0  0  0  0
  194.7420  175.3710  136.3120 C   0  0  0  0  0  2  0  0  0  0  0  0
  194.4810  176.7520  136.2570 O   0  0  0  0  0  0  0  0  0  0  0  0
  1  6  1  0  0  0  0
  1 42  1  1  0  0  0
  2 18  1  0  0  0  0
  3 21  1  0  0  0  0
  4  5  1  0  0  0  0
  4 15  1  0  0  0  0
  5 14  1  6  0  0  0
  5  9  1  0  0  0  0
  6  2  2  0  0  0  0
  8  7  1  0  0  0  0
  8 13  1  0  0  0  0
  9 12  1  0  0  0  0
  9 11  1  0  0  0  0
 10 17  1  0  0  0  0
 10 20  2  0  0  0  0
 11  6  1  0  0  0  0
 12  1  1  0  0  0  0
 13 16  1  0  0  0  0
 14  7  1  0  0  0  0
 15 24  1  0  0  0  0
 15 12  2  0  0  0  0
 16  3  2  0  0  0  0
 17  8  2  0  0  0  0
 19 13  2  0  0  0  0
 20 19  1  0  0  0  0
 21 18  1  0  0  0  0
 21 38  1  1  0  0  0
 22 23  2  0  0  0  0
 23 24  2  0  0  0  0
 25 26  1  0  0  0  0
 26 27  1  0  0  0  0
 26 28  1  0  0  0  0
 27 30  1  6  0  0  0
 27 31  1  0  0  0  0
 28 33  1  6  0  0  0
 28 29  1  0  0  0  0
 29 22  1  6  0  0  0
 31 29  1  0  0  0  0
 32 33  1  0  0  0  0
 33 35  1  0  0  0  0
 34 37  1  0  0  0  0
 36 32  1  0  0  0  0
 36 34  1  0  0  0  0
 37 35  1  0  0  0  0
 38 41  1  0  0  0  0
 39 38  2  0  0  0  0
 41 40  1  0  0  0  0
 42 43  1  0  0  0  0
 44 20  1  0  0  0  0
 45 44  1  1  0  0  0
 46 45  1  0  0  0  0
 47 46  1  0  0  0  0
 47 45  1  0  0  0  0
M  END
>  <MODEL>
3

>  <REMARK>
 VINA RESULT:      -7.1      4.086      9.639
  Name = 
  8 active torsions:
  status: ('A' for Active; 'I' for Inactive)
    1  A    between atoms: C_1  and  C_28
    2  A    between atoms: C_16  and  O_44
    3  A    between atoms: C_18  and  C_19
    4  A    between atoms: C_20  and  C_26
    5  A    between atoms: C_22  and  O_32
    6  A    between atoms: C_22  and  C_45
    7  A    between atoms: C_31  and  C_43
    8  A    between atoms: C_42  and  O_44
                            x       y       z     vdW  Elec       q    Type
                         _______ _______ _______ _____ _____    ______ ____

>  <TORSDO>
F 8

$$$$
=
 OpenBabel10232411473D

 47 53  0  0  1  0  0  0  0  0999 V2000
  185.1910  177.6230  138.3330 C   0  0  2  0  0  3  0  0  0  0  0  0
  184.2640  178.1370  140.6200 C   0  0  0  0  0  3  0  0  0  0  0  0
  186.5490  178.1130  142.7160 C   0  0  0  0  0  3  0  0  0  0  0  0
  188.9640  178.3320  136.9740 S   0  0  0  0  0  0  0  0  0  0  0  0
  188.6050  178.9510  138.6690 C   0  0  1  0  0  3  0  0  0  0  0  0
  185.1910  178.3090  139.6810 C   0  0  0  0  0  0  0  0  0  0  0  0
  188.7730  178.1360  140.9850 O   0  0  0  0  0  0  0  0  0  0  0  0
  189.4860  177.6480  142.0890 C   0  0  0  0  0  0  0  0  0  0  0  0
  187.1560  178.9360  138.7590 N   0  0  0  0  0  0  0  0  0  0  0  0
  191.6010  176.9200  143.0540 C   0  0  0  0  0  3  0  0  0  0  0  0
  186.3810  179.0700  139.9060 N   0  0  0  0  0  2  0  0  0  0  0  0
  186.5260  178.0880  137.8450 C   0  0  0  0  0  0  0  0  0  0  0  0
  188.8440  177.3900  143.3270 C   0  0  0  0  0  0  0  0  0  0  0  0
  189.2430  177.9660  139.6500 C   0  0  0  0  0  2  0  0  0  0  0  0
  187.3060  177.6120  136.8960 C   0  0  0  0  0  0  0  0  0  0  0  0
  187.3960  177.5430  143.5660 C   0  0  0  0  0  3  0  0  0  0  0  0
  190.8660  177.4060  141.9730 C   0  0  0  0  0  3  0  0  0  0  0  0
  184.3730  178.7950  141.8830 N   0  0  0  0  0  2  0  0  0  0  0  0
  189.5960  176.8960  144.4010 C   0  0  0  0  0  3  0  0  0  0  0  0
  190.9680  176.6630  144.2770 C   0  0  0  0  0  0  0  0  0  0  0  0
  185.0800  178.2040  143.0120 C   0  0  2  0  0  3  0  0  0  0  0  0
  188.7070  174.9180  134.9730 C   0  0  0  0  0  3  0  0  0  0  0  0
  187.8120  175.7070  135.4950 C   0  0  0  0  0  0  0  0  0  0  0  0
  186.9200  176.5020  136.0190 C   0  0  0  0  0  3  0  0  0  0  0  0
  192.0160  171.7600  135.2710 C   0  0  0  0  0  1  0  0  0  0  0  0
  191.0650  172.6370  134.5850 N   0  0  0  0  0  0  0  0  0  0  0  0
  191.5930  174.0070  134.4410 C   0  0  2  0  0  3  0  0  0  0  0  0
  189.9130  172.7520  135.4870 C   0  0  1  0  0  3  0  0  0  0  0  0
  189.7120  174.2340  135.8480 C   0  0  1  0  0  3  0  0  0  0  0  0
  193.0500  174.0700  134.3610 N   0  0  0  0  0  1  0  0  0  0  0  0
  191.0630  174.8420  135.5860 C   0  0  0  0  0  2  0  0  0  0  0  0
  188.8190  170.5060  134.9860 C   0  0  0  0  0  2  0  0  0  0  0  0
  188.6660  172.0320  134.9460 C   0  0  0  0  0  3  0  0  0  0  0  0
  186.4650  170.7060  134.3530 O   0  0  0  0  0  0  0  0  0  0  0  0
  187.4140  172.4680  135.7260 C   0  0  0  0  0  2  0  0  0  0  0  0
  187.4840  169.7950  134.7010 C   0  0  0  0  0  2  0  0  0  0  0  0
  186.2370  171.5080  135.4890 C   0  0  0  0  0  2  0  0  0  0  0  0
  184.8200  179.0240  144.2360 C   0  0  0  0  0  0  0  0  0  0  0  0
  184.7620  180.2790  144.1350 O   0  0  0  0  0  0  0  0  0  0  0  0
  185.1880  179.0020  146.6710 C   0  0  0  0  0  1  0  0  0  0  0  0
  184.6970  178.4020  145.4820 O   0  0  0  0  0  0  0  0  0  0  0  0
  184.0990  178.1880  137.4350 C   0  0  0  0  0  2  0  0  0  0  0  0
  183.4100  177.0700  136.6760 C   0  0  0  0  0  1  0  0  0  0  0  0
  191.6740  176.1770  145.3820 O   0  0  0  0  0  0  0  0  0  0  0  0
  191.5290  176.7200  146.6860 C   0  0  2  0  0  3  0  0  0  0  0  0
  192.5410  176.1310  147.5870 C   0  0  0  0  0  2  0  0  0  0  0  0
  191.2060  175.6870  147.5860 O   0  0  0  0  0  0  0  0  0  0  0  0
  1 42  1  6  0  0  0
  1  6  1  0  0  0  0
  2 18  1  0  0  0  0
  3 21  1  0  0  0  0
  3 16  2  0  0  0  0
  4  5  1  0  0  0  0
  5  9  1  0  0  0  0
  5 14  1  1  0  0  0
  6 11  1  0  0  0  0
  6  2  2  0  0  0  0
  7  8  1  0  0  0  0
  8 13  1  0  0  0  0
  9 11  1  0  0  0  0
 10 20  2  0  0  0  0
 12  1  1  0  0  0  0
 12  9  1  0  0  0  0
 13 16  1  0  0  0  0
 13 19  2  0  0  0  0
 14  7  1  0  0  0  0
 15  4  1  0  0  0  0
 15 12  2  0  0  0  0
 17  8  2  0  0  0  0
 17 10  1  0  0  0  0
 18 21  1  0  0  0  0
 20 19  1  0  0  0  0
 20 44  1  0  0  0  0
 21 38  1  1  0  0  0
 22 23  2  0  0  0  0
 23 24  2  0  0  0  0
 24 15  1  0  0  0  0
 26 25  1  0  0  0  0
 26 28  1  0  0  0  0
 27 30  1  1  0  0  0
 27 26  1  0  0  0  0
 27 31  1  0  0  0  0
 28 33  1  6  0  0  0
 28 29  1  0  0  0  0
 29 22  1  6  0  0  0
 31 29  1  0  0  0  0
 33 32  1  0  0  0  0
 33 35  1  0  0  0  0
 34 36  1  0  0  0  0
 34 37  1  0  0  0  0
 36 32  1  0  0  0  0
 37 35  1  0  0  0  0
 38 41  1  0  0  0  0
 39 38  2  0  0  0  0
 41 40  1  0  0  0  0
 43 42  1  0  0  0  0
 45 44  1  6  0  0  0
 45 47  1  0  0  0  0
 45 46  1  0  0  0  0
 47 46  1  0  0  0  0
M  END
>  <MODEL>
4

>  <REMARK>
 VINA RESULT:      -6.8      3.285      4.932
  Name = 
  8 active torsions:
  status: ('A' for Active; 'I' for Inactive)
    1  A    between atoms: C_1  and  C_28
    2  A    between atoms: C_16  and  O_44
    3  A    between atoms: C_18  and  C_19
    4  A    between atoms: C_20  and  C_26
    5  A    between atoms: C_22  and  O_32
    6  A    between atoms: C_22  and  C_45
    7  A    between atoms: C_31  and  C_43
    8  A    between atoms: C_42  and  O_44
                            x       y       z     vdW  Elec       q    Type
                         _______ _______ _______ _____ _____    ______ ____

>  <TORSDO>
F 8

$$$$
=
 OpenBabel10232411473D

 47 53  0  0  1  0  0  0  0  0999 V2000
  189.3100  174.9630  137.5770 C   0  0  2  0  0  3  0  0  0  0  0  0
  187.5000  173.4990  136.6110 C   0  0  0  0  0  3  0  0  0  0  0  0
  184.7470  174.8970  136.8950 C   0  0  0  0  0  3  0  0  0  0  0  0
  189.3120  179.0250  137.8790 S   0  0  0  0  0  0  0  0  0  0  0  0
  187.8660  178.2970  137.0040 C   0  0  1  0  0  3  0  0  0  0  0  0
  188.0680  174.6940  136.7570 C   0  0  0  0  0  0  0  0  0  0  0  0
  185.6070  177.4960  137.5620 O   0  0  0  0  0  0  0  0  0  0  0  0
  184.3100  177.6670  138.0640 C   0  0  0  0  0  0  0  0  0  0  0  0
  188.2800  176.9410  136.6900 N   0  0  0  0  0  0  0  0  0  0  0  0
  182.6520  179.1040  139.1230 C   0  0  0  0  0  3  0  0  0  0  0  0
  187.4740  175.8940  136.2560 N   0  0  0  0  0  2  0  0  0  0  0  0
  189.3250  176.4550  137.4780 C   0  0  0  0  0  0  0  0  0  0  0  0
  183.3600  176.6140  138.0300 C   0  0  0  0  0  0  0  0  0  0  0  0
  186.6920  178.3180  137.9850 C   0  0  0  0  0  2  0  0  0  0  0  0
  189.9310  177.3590  138.2200 C   0  0  0  0  0  0  0  0  0  0  0  0
  183.6380  175.2520  137.5350 C   0  0  0  0  0  3  0  0  0  0  0  0
  183.9360  178.9050  138.6170 C   0  0  0  0  0  3  0  0  0  0  0  0
  186.3000  173.3490  135.8520 N   0  0  0  0  0  2  0  0  0  0  0  0
  182.0770  176.8290  138.5500 C   0  0  0  0  0  3  0  0  0  0  0  0
  181.7130  178.0650  139.0920 C   0  0  0  0  0  0  0  0  0  0  0  0
  184.9770  173.4820  136.4490 C   0  0  2  0  0  3  0  0  0  0  0  0
  190.1400  177.2760  141.8070 C   0  0  0  0  0  3  0  0  0  0  0  0
  190.4970  177.1460  140.5620 C   0  0  0  0  0  0  0  0  0  0  0  0
  190.8490  177.0180  139.3120 C   0  0  0  0  0  3  0  0  0  0  0  0
  186.5420  177.5640  144.6330 C   0  0  0  0  0  1  0  0  0  0  0  0
  187.7220  178.0550  143.9200 N   0  0  0  0  0  0  0  0  0  0  0  0
  187.3980  178.4550  142.5380 C   0  0  2  0  0  3  0  0  0  0  0  0
  188.6180  176.9000  143.7960 C   0  0  1  0  0  3  0  0  0  0  0  0
  188.8810  176.6340  142.3030 C   0  0  1  0  0  3  0  0  0  0  0  0
  186.0220  178.9160  142.3680 N   0  0  0  0  0  1  0  0  0  0  0  0
  187.7110  177.2920  141.6220 C   0  0  0  0  0  2  0  0  0  0  0  0
  189.5380  177.0390  146.1680 C   0  0  0  0  0  2  0  0  0  0  0  0
  189.8760  177.0300  144.6710 C   0  0  0  0  0  3  0  0  0  0  0  0
  191.9800  176.9170  146.2570 O   0  0  0  0  0  0  0  0  0  0  0  0
  190.8730  175.9030  144.3510 C   0  0  0  0  0  2  0  0  0  0  0  0
  190.8030  176.8990  147.0350 C   0  0  0  0  0  2  0  0  0  0  0  0
  191.9430  175.7670  145.4450 C   0  0  0  0  0  2  0  0  0  0  0  0
  183.9460  173.0470  135.4560 C   0  0  0  0  0  0  0  0  0  0  0  0
  184.3190  172.5650  134.3530 O   0  0  0  0  0  0  0  0  0  0  0  0
  181.5740  172.6530  134.9220 C   0  0  0  0  0  1  0  0  0  0  0  0
  182.5880  173.2270  135.7340 O   0  0  0  0  0  0  0  0  0  0  0  0
  190.5480  174.3970  136.8940 C   0  0  0  0  0  2  0  0  0  0  0  0
  191.7710  174.5990  137.7680 C   0  0  0  0  0  1  0  0  0  0  0  0
  180.4170  178.2300  139.5900 O   0  0  0  0  0  0  0  0  0  0  0  0
  180.0970  178.0770  140.9650 C   0  0  2  0  0  3  0  0  0  0  0  0
  180.0920  179.3980  141.6260 C   0  0  0  0  0  2  0  0  0  0  0  0
  181.1820  178.5160  141.7460 O   0  0  0  0  0  0  0  0  0  0  0  0
  1 42  1  6  0  0  0
  2  6  2  0  0  0  0
  3 16  2  0  0  0  0
  4 15  1  0  0  0  0
  5  4  1  0  0  0  0
  5 14  1  1  0  0  0
  6  1  1  0  0  0  0
  7 14  1  0  0  0  0
  7  8  1  0  0  0  0
  8 17  1  0  0  0  0
  9  5  1  0  0  0  0
  9 12  1  0  0  0  0
 11  9  1  0  0  0  0
 11  6  1  0  0  0  0
 12  1  1  0  0  0  0
 12 15  2  0  0  0  0
 13  8  2  0  0  0  0
 13 19  1  0  0  0  0
 15 24  1  0  0  0  0
 16 13  1  0  0  0  0
 17 10  2  0  0  0  0
 18 21  1  0  0  0  0
 18  2  1  0  0  0  0
 19 20  2  0  0  0  0
 20 10  1  0  0  0  0
 20 44  1  0  0  0  0
 21 38  1  6  0  0  0
 21  3  1  0  0  0  0
 23 22  2  0  0  0  0
 24 23  2  0  0  0  0
 26 25  1  0  0  0  0
 27 30  1  1  0  0  0
 27 26  1  0  0  0  0
 28 26  1  0  0  0  0
 28 33  1  1  0  0  0
 29 22  1  6  0  0  0
 29 28  1  0  0  0  0
 31 29  1  0  0  0  0
 31 27  1  0  0  0  0
 32 36  1  0  0  0  0
 33 32  1  0  0  0  0
 34 36  1  0  0  0  0
 35 33  1  0  0  0  0
 35 37  1  0  0  0  0
 37 34  1  0  0  0  0
 38 41  1  0  0  0  0
 39 38  2  0  0  0  0
 40 41  1  0  0  0  0
 42 43  1  0  0  0  0
 45 44  1  6  0  0  0
 45 46  1  0  0  0  0
 45 47  1  0  0  0  0
 46 47  1  0  0  0  0
M  END
>  <MODEL>
5

>  <REMARK>
 VINA RESULT:      -6.4      4.069      8.438
  Name = 
  8 active torsions:
  status: ('A' for Active; 'I' for Inactive)
    1  A    between atoms: C_1  and  C_28
    2  A    between atoms: C_16  and  O_44
    3  A    between atoms: C_18  and  C_19
    4  A    between atoms: C_20  and  C_26
    5  A    between atoms: C_22  and  O_32
    6  A    between atoms: C_22  and  C_45
    7  A    between atoms: C_31  and  C_43
    8  A    between atoms: C_42  and  O_44
                            x       y       z     vdW  Elec       q    Type
                         _______ _______ _______ _____ _____    ______ ____

>  <TORSDO>
F 8

$$$$
=
 OpenBabel10232411473D

 47 53  0  0  1  0  0  0  0  0999 V2000
  189.9140  175.8550  137.4430 C   0  0  2  0  0  3  0  0  0  0  0  0
  189.7460  173.4630  136.6650 C   0  0  0  0  0  3  0  0  0  0  0  0
  186.7660  172.6560  136.3670 C   0  0  0  0  0  3  0  0  0  0  0  0
  187.2310  178.8550  136.8220 S   0  0  0  0  0  0  0  0  0  0  0  0
  186.8340  177.2570  136.0010 C   0  0  1  0  0  3  0  0  0  0  0  0
  189.3590  174.7340  136.5920 C   0  0  0  0  0  0  0  0  0  0  0  0
  185.5740  175.2050  136.5100 O   0  0  0  0  0  0  0  0  0  0  0  0
  184.4030  174.5070  136.8360 C   0  0  0  0  0  0  0  0  0  0  0  0
  188.0800  176.5120  136.0400 N   0  0  0  0  0  0  0  0  0  0  0  0
  182.0290  174.5480  137.3840 C   0  0  0  0  0  3  0  0  0  0  0  0
  188.2620  175.1590  135.7800 N   0  0  0  0  0  2  0  0  0  0  0  0
  188.9850  176.9440  137.0120 C   0  0  0  0  0  0  0  0  0  0  0  0
  184.3940  173.0930  136.9510 C   0  0  0  0  0  0  0  0  0  0  0  0
  185.7450  176.5820  136.8380 C   0  0  0  0  0  2  0  0  0  0  0  0
  188.6820  178.0910  137.5860 C   0  0  0  0  0  0  0  0  0  0  0  0
  185.5850  172.2340  136.8030 C   0  0  0  0  0  3  0  0  0  0  0  0
  183.2100  175.2170  137.0580 C   0  0  0  0  0  3  0  0  0  0  0  0
  189.1310  172.4640  135.8500 N   0  0  0  0  0  2  0  0  0  0  0  0
  183.2020  172.4390  137.2850 C   0  0  0  0  0  3  0  0  0  0  0  0
  182.0200  173.1520  137.4990 C   0  0  0  0  0  0  0  0  0  0  0  0
  187.9460  171.7310  136.2740 C   0  0  2  0  0  3  0  0  0  0  0  0
  187.9820  178.9430  141.0070 C   0  0  0  0  0  3  0  0  0  0  0  0
  188.6590  178.7590  139.9110 C   0  0  0  0  0  0  0  0  0  0  0  0
  189.3330  178.5750  138.8080 C   0  0  0  0  0  3  0  0  0  0  0  0
  186.1660  177.0300  144.7550 C   0  0  0  0  0  1  0  0  0  0  0  0
  186.8400  178.0740  143.9830 N   0  0  0  0  0  0  0  0  0  0  0  0
  185.8770  178.9140  143.2460 C   0  0  2  0  0  3  0  0  0  0  0  0
  187.6140  177.3680  142.9550 C   0  0  1  0  0  3  0  0  0  0  0  0
  187.1410  177.8380  141.5680 C   0  0  1  0  0  3  0  0  0  0  0  0
  184.5690  179.0130  143.8900 N   0  0  0  0  0  1  0  0  0  0  0  0
  185.7620  178.3770  141.8360 C   0  0  0  0  0  2  0  0  0  0  0  0
  189.4630  177.8520  144.6400 C   0  0  0  0  0  2  0  0  0  0  0  0
  189.1310  177.4530  143.1960 C   0  0  0  0  0  3  0  0  0  0  0  0
  191.6940  177.3040  143.7970 O   0  0  0  0  0  0  0  0  0  0  0  0
  189.8070  176.1200  142.8360 C   0  0  0  0  0  2  0  0  0  0  0  0
  190.9620  177.6740  144.9450 C   0  0  0  0  0  2  0  0  0  0  0  0
  191.2270  176.0320  143.4160 C   0  0  0  0  0  2  0  0  0  0  0  0
  187.6900  170.6150  135.3120 C   0  0  0  0  0  0  0  0  0  0  0  0
  186.8240  170.7680  134.4080 O   0  0  0  0  0  0  0  0  0  0  0  0
  187.7240  168.1530  135.2350 C   0  0  0  0  0  1  0  0  0  0  0  0
  188.3660  169.4000  135.4530 O   0  0  0  0  0  0  0  0  0  0  0  0
  191.3350  176.2050  137.0240 C   0  0  0  0  0  2  0  0  0  0  0  0
  192.2790  176.0810  138.2050 C   0  0  0  0  0  1  0  0  0  0  0  0
  180.8540  172.4510  137.8230 O   0  0  0  0  0  0  0  0  0  0  0  0
  179.9820  171.9120  136.8390 C   0  0  2  0  0  3  0  0  0  0  0  0
  180.1120  170.4410  136.8090 C   0  0  0  0  0  2  0  0  0  0  0  0
  180.7430  171.2570  135.8530 O   0  0  0  0  0  0  0  0  0  0  0  0
  1 42  1  6  0  0  0
  3 16  2  0  0  0  0
  4 15  1  0  0  0  0
  5  9  1  0  0  0  0
  5  4  1  0  0  0  0
  5 14  1  1  0  0  0
  6  2  2  0  0  0  0
  6  1  1  0  0  0  0
  7  8  1  0  0  0  0
  7 14  1  0  0  0  0
  8 13  2  0  0  0  0
  8 17  1  0  0  0  0
  9 12  1  0  0  0  0
 10 20  1  0  0  0  0
 11  9  1  0  0  0  0
 11  6  1  0  0  0  0
 12  1  1  0  0  0  0
 12 15  2  0  0  0  0
 13 19  1  0  0  0  0
 15 24  1  0  0  0  0
 16 13  1  0  0  0  0
 17 10  2  0  0  0  0
 18 21  1  0  0  0  0
 18  2  1  0  0  0  0
 19 20  2  0  0  0  0
 20 44  1  0  0  0  0
 21 38  1  6  0  0  0
 21  3  1  0  0  0  0
 23 22  2  0  0  0  0
 24 23  2  0  0  0  0
 26 25  1  0  0  0  0
 27 30  1  1  0  0  0
 27 26  1  0  0  0  0
 28 33  1  1  0  0  0
 28 26  1  0  0  0  0
 29 22  1  1  0  0  0
 29 31  1  0  0  0  0
 29 28  1  0  0  0  0
 31 27  1  0  0  0  0
 32 36  1  0  0  0  0
 33 32  1  0  0  0  0
 34 36  1  0  0  0  0
 35 33  1  0  0  0  0
 35 37  1  0  0  0  0
 37 34  1  0  0  0  0
 38 41  1  0  0  0  0
 39 38  2  0  0  0  0
 40 41  1  0  0  0  0
 42 43  1  0  0  0  0
 45 44  1  1  0  0  0
 46 45  1  0  0  0  0
 47 46  1  0  0  0  0
 47 45  1  0  0  0  0
M  END
>  <MODEL>
6

>  <REMARK>
 VINA RESULT:      -6.3      4.470      9.885
  Name = 
  8 active torsions:
  status: ('A' for Active; 'I' for Inactive)
    1  A    between atoms: C_1  and  C_28
    2  A    between atoms: C_16  and  O_44
    3  A    between atoms: C_18  and  C_19
    4  A    between atoms: C_20  and  C_26
    5  A    between atoms: C_22  and  O_32
    6  A    between atoms: C_22  and  C_45
    7  A    between atoms: C_31  and  C_43
    8  A    between atoms: C_42  and  O_44
                            x       y       z     vdW  Elec       q    Type
                         _______ _______ _______ _____ _____    ______ ____

>  <TORSDO>
F 8

$$$$
=
 OpenBabel10232411473D

 47 53  0  0  1  0  0  0  0  0999 V2000
  192.5990  175.8750  137.1120 C   0  0  2  0  0  3  0  0  0  0  0  0
  191.4390  177.1080  138.9790 C   0  0  0  0  0  3  0  0  0  0  0  0
  188.3710  177.0670  138.5290 C   0  0  0  0  0  3  0  0  0  0  0  0
  191.0970  172.8490  134.8370 S   0  0  0  0  0  0  0  0  0  0  0  0
  190.0040  173.4340  136.1970 C   0  0  1  0  0  3  0  0  0  0  0  0
  191.5260  176.0620  138.1620 C   0  0  0  0  0  0  0  0  0  0  0  0
  188.2200  175.0980  136.5190 O   0  0  0  0  0  0  0  0  0  0  0  0
  186.9650  175.6540  136.2360 C   0  0  0  0  0  0  0  0  0  0  0  0
  190.8840  174.1950  137.0650 N   0  0  0  0  0  0  0  0  0  0  0  0
  184.9190  175.6310  134.9140 C   0  0  0  0  0  3  0  0  0  0  0  0
  190.5160  175.0530  138.0960 N   0  0  0  0  0  2  0  0  0  0  0  0
  192.0540  174.6480  136.4530 C   0  0  0  0  0  0  0  0  0  0  0  0
  186.4740  176.7740  136.9550 C   0  0  0  0  0  0  0  0  0  0  0  0
  188.9320  174.3200  135.5600 C   0  0  0  0  0  2  0  0  0  0  0  0
  192.3000  174.1310  135.2660 C   0  0  0  0  0  0  0  0  0  0  0  0
  187.2270  177.4900  138.0040 C   0  0  0  0  0  3  0  0  0  0  0  0
  186.1720  175.0980  135.2170 C   0  0  0  0  0  3  0  0  0  0  0  0
  190.3620  177.2210  139.9110 N   0  0  0  0  0  2  0  0  0  0  0  0
  185.2170  177.3010  136.6330 C   0  0  0  0  0  3  0  0  0  0  0  0
  184.4340  176.7370  135.6230 C   0  0  0  0  0  0  0  0  0  0  0  0
  189.1000  177.8660  139.5700 C   0  0  2  0  0  3  0  0  0  0  0  0
  195.8010  173.9290  134.4790 C   0  0  0  0  0  3  0  0  0  0  0  0
  194.5550  174.3010  134.4100 C   0  0  0  0  0  0  0  0  0  0  0  0
  193.3050  174.6720  134.3460 C   0  0  0  0  0  3  0  0  0  0  0  0
  196.4940  170.0900  136.8850 C   0  0  0  0  0  1  0  0  0  0  0  0
  196.0530  171.4680  136.6700 N   0  0  0  0  0  0  0  0  0  0  0  0
  194.7150  171.5220  136.0510 C   0  0  2  0  0  3  0  0  0  0  0  0
  196.9710  172.0250  135.6700 C   0  0  1  0  0  3  0  0  0  0  0  0
  196.1570  172.4750  134.4440 C   0  0  1  0  0  3  0  0  0  0  0  0
  193.8680  170.3780  136.3810 N   0  0  0  0  0  1  0  0  0  0  0  0
  194.8890  171.6710  134.5560 C   0  0  0  0  0  2  0  0  0  0  0  0
  197.4450  173.5700  137.6400 C   0  0  0  0  0  2  0  0  0  0  0  0
  197.9120  173.0890  136.2590 C   0  0  0  0  0  3  0  0  0  0  0  0
  199.6280  174.6640  137.4960 O   0  0  0  0  0  0  0  0  0  0  0  0
  199.3510  172.5520  136.3350 C   0  0  0  0  0  2  0  0  0  0  0  0
  198.5200  174.4250  138.3350 C   0  0  0  0  0  2  0  0  0  0  0  0
  200.2290  173.4130  137.2550 C   0  0  0  0  0  2  0  0  0  0  0  0
  188.2800  178.0230  140.8120 C   0  0  0  0  0  0  0  0  0  0  0  0
  188.5210  177.2850  141.8050 O   0  0  0  0  0  0  0  0  0  0  0  0
  186.1270  178.7900  141.7280 C   0  0  0  0  0  1  0  0  0  0  0  0
  187.2260  178.9400  140.8430 O   0  0  0  0  0  0  0  0  0  0  0  0
  193.9400  175.5520  137.7560 C   0  0  0  0  0  2  0  0  0  0  0  0
  194.0200  174.0760  138.0960 C   0  0  0  0  0  1  0  0  0  0  0  0
  183.1820  177.2960  135.3450 O   0  0  0  0  0  0  0  0  0  0  0  0
  182.0620  177.1360  136.2040 C   0  0  2  0  0  3  0  0  0  0  0  0
  180.8900  177.8260  135.6270 C   0  0  0  0  0  2  0  0  0  0  0  0
  181.6470  178.4000  136.6650 O   0  0  0  0  0  0  0  0  0  0  0  0
  1 42  1  1  0  0  0
  1  6  1  0  0  0  0
  2 18  1  0  0  0  0
  3 21  1  0  0  0  0
  4 15  1  0  0  0  0
  4  5  1  0  0  0  0
  5 14  1  6  0  0  0
  5  9  1  0  0  0  0
  6  2  2  0  0  0  0
  8  7  1  0  0  0  0
  8 13  1  0  0  0  0
  9 11  1  0  0  0  0
 10 17  1  0  0  0  0
 10 20  2  0  0  0  0
 11  6  1  0  0  0  0
 12  9  1  0  0  0  0
 12  1  1  0  0  0  0
 13 16  1  0  0  0  0
 14  7  1  0  0  0  0
 15 12  2  0  0  0  0
 16  3  2  0  0  0  0
 17  8  2  0  0  0  0
 19 13  2  0  0  0  0
 20 19  1  0  0  0  0
 21 18  1  0  0  0  0
 21 38  1  1  0  0  0
 23 22  2  0  0  0  0
 24 23  2  0  0  0  0
 24 15  1  0  0  0  0
 26 25  1  0  0  0  0
 27 30  1  6  0  0  0
 27 26  1  0  0  0  0
 28 33  1  1  0  0  0
 28 26  1  0  0  0  0
 29 22  1  1  0  0  0
 29 31  1  0  0  0  0
 29 28  1  0  0  0  0
 31 27  1  0  0  0  0
 32 36  1  0  0  0  0
 33 35  1  0  0  0  0
 33 32  1  0  0  0  0
 34 36  1  0  0  0  0
 35 37  1  0  0  0  0
 37 34  1  0  0  0  0
 38 41  1  0  0  0  0
 38 39  2  0  0  0  0
 41 40  1  0  0  0  0
 42 43  1  0  0  0  0
 44 20  1  0  0  0  0
 45 44  1  6  0  0  0
 45 47  1  0  0  0  0
 46 45  1  0  0  0  0
 46 47  1  0  0  0  0
M  END
>  <MODEL>
7

>  <REMARK>
 VINA RESULT:      -6.3      3.153      6.460
  Name = 
  8 active torsions:
  status: ('A' for Active; 'I' for Inactive)
    1  A    between atoms: C_1  and  C_28
    2  A    between atoms: C_16  and  O_44
    3  A    between atoms: C_18  and  C_19
    4  A    between atoms: C_20  and  C_26
    5  A    between atoms: C_22  and  O_32
    6  A    between atoms: C_22  and  C_45
    7  A    between atoms: C_31  and  C_43
    8  A    between atoms: C_42  and  O_44
                            x       y       z     vdW  Elec       q    Type
                         _______ _______ _______ _____ _____    ______ ____

>  <TORSDO>
F 8

$$$$
=
 OpenBabel10232411473D

 47 53  0  0  1  0  0  0  0  0999 V2000
  186.0410  177.8210  138.8780 C   0  0  2  0  0  3  0  0  0  0  0  0
  187.6720  177.9620  140.7950 C   0  0  0  0  0  3  0  0  0  0  0  0
  190.4830  177.0450  139.8600 C   0  0  0  0  0  3  0  0  0  0  0  0
  186.8630  178.1190  134.9010 S   0  0  0  0  0  0  0  0  0  0  0  0
  188.2930  178.3910  136.0260 C   0  0  1  0  0  3  0  0  0  0  0  0
  187.3670  178.1710  139.5170 C   0  0  0  0  0  0  0  0  0  0  0  0
  190.0760  177.0540  137.0720 O   0  0  0  0  0  0  0  0  0  0  0  0
  191.1910  176.2060  137.0260 C   0  0  0  0  0  0  0  0  0  0  0  0
  187.6890  178.6210  137.3270 N   0  0  0  0  0  0  0  0  0  0  0  0
  192.7730  174.9040  135.7100 C   0  0  0  0  0  3  0  0  0  0  0  0
  188.3280  178.6300  138.5620 N   0  0  0  0  0  2  0  0  0  0  0  0
  186.3880  178.1330  137.4570 C   0  0  0  0  0  0  0  0  0  0  0  0
  191.8540  175.7950  138.2110 C   0  0  0  0  0  0  0  0  0  0  0  0
  189.1280  177.1090  136.0080 C   0  0  0  0  0  2  0  0  0  0  0  0
  185.8190  177.7510  136.3320 C   0  0  0  0  0  0  0  0  0  0  0  0
  191.4250  176.1520  139.5770 C   0  0  0  0  0  3  0  0  0  0  0  0
  191.6650  175.7490  135.7850 C   0  0  0  0  0  3  0  0  0  0  0  0
  188.9690  178.2840  141.2990 N   0  0  0  0  0  2  0  0  0  0  0  0
  192.9600  174.9410  138.1170 C   0  0  0  0  0  3  0  0  0  0  0  0
  193.4280  174.4960  136.8790 C   0  0  0  0  0  0  0  0  0  0  0  0
  190.0730  177.3330  141.2750 C   0  0  2  0  0  3  0  0  0  0  0  0
  184.6500  174.3710  135.9710 C   0  0  0  0  0  3  0  0  0  0  0  0
  184.6150  175.6630  136.1270 C   0  0  0  0  0  0  0  0  0  0  0  0
  184.5860  176.9590  136.2830 C   0  0  0  0  0  3  0  0  0  0  0  0
  187.7890  171.0500  136.3260 C   0  0  0  0  0  1  0  0  0  0  0  0
  186.9860  172.0590  135.6340 N   0  0  0  0  0  0  0  0  0  0  0  0
  187.5620  173.4090  135.7820 C   0  0  2  0  0  3  0  0  0  0  0  0
  185.7030  172.0990  136.3460 C   0  0  1  0  0  3  0  0  0  0  0  0
  185.4790  173.5230  136.8850 C   0  0  1  0  0  3  0  0  0  0  0  0
  189.0140  173.4130  135.9480 N   0  0  0  0  0  1  0  0  0  0  0  0
  186.8690  174.0970  136.9370 C   0  0  0  0  0  2  0  0  0  0  0  0
  184.8780  170.1350  134.9480 C   0  0  0  0  0  2  0  0  0  0  0  0
  184.5460  171.5240  135.5110 C   0  0  0  0  0  3  0  0  0  0  0  0
  182.5130  170.3140  134.3470 O   0  0  0  0  0  0  0  0  0  0  0  0
  183.2550  171.4730  136.3450 C   0  0  0  0  0  2  0  0  0  0  0  0
  183.6340  169.4560  134.3470 C   0  0  0  0  0  2  0  0  0  0  0  0
  182.1990  170.5660  135.6960 C   0  0  0  0  0  2  0  0  0  0  0  0
  191.2130  177.8860  142.0720 C   0  0  0  0  0  0  0  0  0  0  0  0
  192.3390  178.0220  141.5210 O   0  0  0  0  0  0  0  0  0  0  0  0
  191.2430  179.5070  143.9260 C   0  0  0  0  0  1  0  0  0  0  0  0
  191.0370  178.1950  143.4240 O   0  0  0  0  0  0  0  0  0  0  0  0
  184.9440  178.7650  139.3510 C   0  0  0  0  0  2  0  0  0  0  0  0
  183.7380  177.9760  139.8250 C   0  0  0  0  0  1  0  0  0  0  0  0
  194.5410  173.6510  136.8400 O   0  0  0  0  0  0  0  0  0  0  0  0
  195.4540  173.5310  137.9220 C   0  0  2  0  0  3  0  0  0  0  0  0
  196.7190  172.9370  137.4430 C   0  0  0  0  0  2  0  0  0  0  0  0
  195.7560  172.1710  138.1250 O   0  0  0  0  0  0  0  0  0  0  0  0
  1 42  1  1  0  0  0
  1  6  1  0  0  0  0
  2 18  1  0  0  0  0
  3 21  1  0  0  0  0
  4  5  1  0  0  0  0
  4 15  1  0  0  0  0
  5 14  1  1  0  0  0
  5  9  1  0  0  0  0
  6  2  2  0  0  0  0
  8  7  1  0  0  0  0
  8 13  1  0  0  0  0
  9 12  1  0  0  0  0
  9 11  1  0  0  0  0
 10 17  1  0  0  0  0
 10 20  2  0  0  0  0
 11  6  1  0  0  0  0
 12  1  1  0  0  0  0
 13 16  1  0  0  0  0
 14  7  1  0  0  0  0
 15 12  2  0  0  0  0
 16  3  2  0  0  0  0
 17  8  2  0  0  0  0
 19 13  2  0  0  0  0
 20 19  1  0  0  0  0
 21 18  1  0  0  0  0
 21 38  1  1  0  0  0
 22 23  2  0  0  0  0
 23 24  2  0  0  0  0
 24 15  1  0  0  0  0
 26 27  1  0  0  0  0
 26 25  1  0  0  0  0
 26 28  1  0  0  0  0
 27 30  1  1  0  0  0
 27 31  1  0  0  0  0
 28 33  1  6  0  0  0
 28 29  1  0  0  0  0
 29 22  1  6  0  0  0
 29 31  1  0  0  0  0
 32 33  1  0  0  0  0
 33 35  1  0  0  0  0
 34 36  1  0  0  0  0
 34 37  1  0  0  0  0
 36 32  1  0  0  0  0
 37 35  1  0  0  0  0
 38 41  1  0  0  0  0
 39 38  2  0  0  0  0
 41 40  1  0  0  0  0
 42 43  1  0  0  0  0
 44 20  1  0  0  0  0
 45 44  1  6  0  0  0
 45 47  1  0  0  0  0
 46 45  1  0  0  0  0
 46 47  1  0  0  0  0
M  END
>  <MODEL>
8

>  <REMARK>
 VINA RESULT:      -5.8      3.763      8.667
  Name = 
  8 active torsions:
  status: ('A' for Active; 'I' for Inactive)
    1  A    between atoms: C_1  and  C_28
    2  A    between atoms: C_16  and  O_44
    3  A    between atoms: C_18  and  C_19
    4  A    between atoms: C_20  and  C_26
    5  A    between atoms: C_22  and  O_32
    6  A    between atoms: C_22  and  C_45
    7  A    between atoms: C_31  and  C_43
    8  A    between atoms: C_42  and  O_44
                            x       y       z     vdW  Elec       q    Type
                         _______ _______ _______ _____ _____    ______ ____

>  <TORSDO>
F 8

$$$$
