=
 OpenBabel10222422073D

 31 31  0  0  1  0  0  0  0  0999 V2000
  188.8140  177.5560  145.2700 C   0  0  0  0  0  0  0  0  0  0  0  0
  189.6450  177.0930  144.3090 C   0  0  0  0  0  0  0  0  0  0  0  0
  189.3140  178.2670  146.3570 O   0  0  0  0  0  1  0  0  0  0  0  0
  191.1540  177.3460  144.4180 C   0  0  2  0  0  0  0  0  0  0  0  0
  191.5440  177.1950  145.7500 O   0  0  0  0  0  1  0  0  0  0  0  0
  191.5690  178.7450  143.9860 C   0  0  0  0  0  1  0  0  0  0  0  0
  192.1050  175.1300  144.2580 O   0  0  0  0  0  1  0  0  0  0  0  0
  191.9310  176.3360  143.5720 C   0  0  0  0  0  2  0  0  0  0  0  0
  187.7210  175.6310  143.4980 C   0  0  0  0  0  1  0  0  0  0  0  0
  189.0380  176.3160  143.1570 C   0  0  1  0  0  3  0  0  0  0  0  0
  189.9880  176.7840  140.8510 C   0  0  0  0  0  3  0  0  0  0  0  0
  188.9080  179.1450  138.1750 N   0  0  0  0  0  1  0  0  0  0  0  0
  190.8950  177.1890  138.6560 O   0  0  0  0  0  1  0  0  0  0  0  0
  189.0430  177.0590  141.8520 C   0  0  0  0  0  0  0  0  0  0  0  0
  189.9490  177.4710  139.6340 C   0  0  0  0  0  0  0  0  0  0  0  0
  188.0540  178.0200  141.6180 C   0  0  0  0  0  3  0  0  0  0  0  0
  188.0140  178.7090  140.4020 C   0  0  0  0  0  3  0  0  0  0  0  0
  188.9600  178.4380  139.4100 C   0  0  0  0  0  0  0  0  0  0  0  0
  187.3300  177.3450  145.2070 C   0  0  0  0  0  2  0  0  0  0  0  0
  186.6010  178.6590  144.9660 C   0  0  0  0  0  2  0  0  0  0  0  0
  185.1900  178.4340  144.4330 C   0  0  1  0  0  3  0  0  0  0  0  0
  184.1920  178.7700  145.4870 C   0  0  0  0  0  0  0  0  0  0  0  0
  184.4980  178.5950  146.8320 O   0  0  0  0  0  1  0  0  0  0  0  0
  183.0630  179.2170  145.1570 O   0  0  0  0  0  0  0  0  0  0  0  0
  184.9330  179.2800  143.1920 C   0  0  0  0  0  2  0  0  0  0  0  0
  184.5720  178.4580  142.0890 O   0  0  0  0  0  0  0  0  0  0  0  0
  183.4110  178.6660  141.3390 C   0  0  0  0  0  0  0  0  0  0  0  0
  182.2910  178.5970  141.9130 O   0  0  0  0  0  0  0  0  0  0  0  0
  182.3380  179.6690  139.4780 O   0  0  0  0  0  1  0  0  0  0  0  0
  183.4740  178.9610  139.8720 C   0  0  1  0  0  3  0  0  0  0  0  0
  184.6630  179.7400  139.5710 N   0  0  0  0  0  1  0  0  0  0  0  0
  1  3  1  0  0  0  0
  2  4  1  0  0  0  0
  2  1  2  0  0  0  0
  4  6  1  6  0  0  0
  4  5  1  0  0  0  0
  8  7  1  0  0  0  0
  8  4  1  0  0  0  0
 10  9  1  1  0  0  0
 10  2  1  0  0  0  0
 11 14  1  0  0  0  0
 12 18  1  0  0  0  0
 13 15  1  0  0  0  0
 14 10  1  0  0  0  0
 15 11  2  0  0  0  0
 16 14  2  0  0  0  0
 17 16  1  0  0  0  0
 18 15  1  0  0  0  0
 18 17  2  0  0  0  0
 19  1  1  0  0  0  0
 20 19  1  0  0  0  0
 21 25  1  6  0  0  0
 21 20  1  0  0  0  0
 21 22  1  0  0  0  0
 22 23  1  0  0  0  0
 24 22  2  0  0  0  0
 26 25  1  0  0  0  0
 27 28  2  0  0  0  0
 27 26  1  0  0  0  0
 30 29  1  1  0  0  0
 30 27  1  0  0  0  0
 31 30  1  0  0  0  0
M  END
>  <MODEL>
1

>  <REMARK>
 VINA RESULT:      -7.2      0.000      0.000
  Name = 
  12 active torsions:
  status: ('A' for Active; 'I' for Inactive)
    1  A    between atoms: O_1  and  C_2
    2  A    between atoms: O_1  and  C_26
    3  A    between atoms: C_2  and  C_19
    4  A    between atoms: C_3  and  C_23
    5  A    between atoms: C_5  and  C_9
    6  A    between atoms: C_5  and  C_18
    7  A    between atoms: C_6  and  C_31
    8  A    between atoms: C_9  and  C_16
    9  A    between atoms: C_13  and  C_18
   10  A    between atoms: C_20  and  C_23
   11  A    between atoms: C_20  and  C_31
   12  A    between atoms: C_26  and  C_31
                            x       y       z     vdW  Elec       q    Type
                         _______ _______ _______ _____ _____    ______ ____

>  <TORSDO>
F 12

$$$$
=
 OpenBabel10222422073D

 31 31  0  0  1  0  0  0  0  0999 V2000
  188.7150  177.4810  145.4840 C   0  0  0  0  0  0  0  0  0  0  0  0
  189.9570  177.7100  145.0000 C   0  0  0  0  0  0  0  0  0  0  0  0
  188.5130  176.5670  146.5140 O   0  0  0  0  0  1  0  0  0  0  0  0
  191.1560  176.9520  145.5850 C   0  0  2  0  0  0  0  0  0  0  0  0
  192.2950  177.7520  145.4800 O   0  0  0  0  0  1  0  0  0  0  0  0
  191.4580  175.6450  144.8660 C   0  0  0  0  0  1  0  0  0  0  0  0
  192.0650  176.9120  147.8240 O   0  0  0  0  0  1  0  0  0  0  0  0
  190.9230  176.6380  147.0650 C   0  0  0  0  0  2  0  0  0  0  0  0
  191.1250  179.8090  144.1490 C   0  0  0  0  0  1  0  0  0  0  0  0
  190.1080  178.7100  143.8700 C   0  0  1  0  0  3  0  0  0  0  0  0
  189.0990  177.9460  141.6710 C   0  0  0  0  0  3  0  0  0  0  0  0
  190.6490  176.3830  138.6620 N   0  0  0  0  0  1  0  0  0  0  0  0
  188.1190  177.2530  139.5830 O   0  0  0  0  0  1  0  0  0  0  0  0
  190.2160  178.0820  142.5110 C   0  0  0  0  0  0  0  0  0  0  0  0
  189.2360  177.3830  140.3990 C   0  0  0  0  0  0  0  0  0  0  0  0
  191.4710  177.6590  142.0590 C   0  0  0  0  0  3  0  0  0  0  0  0
  191.6100  177.0960  140.7870 C   0  0  0  0  0  3  0  0  0  0  0  0
  190.4950  176.9560  139.9560 C   0  0  0  0  0  0  0  0  0  0  0  0
  187.5110  178.2020  144.9540 C   0  0  0  0  0  2  0  0  0  0  0  0
  186.2630  177.3370  145.0640 C   0  0  0  0  0  2  0  0  0  0  0  0
  185.0530  178.0050  144.4220 C   0  0  1  0  0  3  0  0  0  0  0  0
  184.3330  178.8260  145.4360 C   0  0  0  0  0  0  0  0  0  0  0  0
  184.8320  178.9520  146.7280 O   0  0  0  0  0  1  0  0  0  0  0  0
  183.2660  179.4120  145.1200 O   0  0  0  0  0  0  0  0  0  0  0  0
  185.4700  178.8830  143.2490 C   0  0  0  0  0  2  0  0  0  0  0  0
  185.0850  178.2890  142.0160 O   0  0  0  0  0  0  0  0  0  0  0  0
  183.9330  178.6710  141.3200 C   0  0  0  0  0  0  0  0  0  0  0  0
  182.8070  178.4800  141.8510 O   0  0  0  0  0  0  0  0  0  0  0  0
  185.3510  179.4400  139.5830 O   0  0  0  0  0  1  0  0  0  0  0  0
  184.0160  179.2920  139.9600 C   0  0  1  0  0  3  0  0  0  0  0  0
  183.3240  178.4610  138.9890 N   0  0  0  0  0  1  0  0  0  0  0  0
  1  3  1  0  0  0  0
  2  1  2  0  0  0  0
  2  4  1  0  0  0  0
  4  6  1  6  0  0  0
  4  8  1  0  0  0  0
  5  4  1  0  0  0  0
  8  7  1  0  0  0  0
 10  9  1  1  0  0  0
 10  2  1  0  0  0  0
 11 14  1  0  0  0  0
 12 18  1  0  0  0  0
 13 15  1  0  0  0  0
 14 10  1  0  0  0  0
 15 11  2  0  0  0  0
 16 14  2  0  0  0  0
 17 16  1  0  0  0  0
 18 15  1  0  0  0  0
 18 17  2  0  0  0  0
 19 20  1  0  0  0  0
 19  1  1  0  0  0  0
 21 25  1  6  0  0  0
 21 20  1  0  0  0  0
 21 22  1  0  0  0  0
 22 23  1  0  0  0  0
 24 22  2  0  0  0  0
 26 25  1  0  0  0  0
 27 28  2  0  0  0  0
 27 26  1  0  0  0  0
 29 30  1  0  0  0  0
 30 31  1  6  0  0  0
 30 27  1  0  0  0  0
M  END
>  <MODEL>
2

>  <REMARK>
 VINA RESULT:      -6.9      1.558      2.273
  Name = 
  12 active torsions:
  status: ('A' for Active; 'I' for Inactive)
    1  A    between atoms: O_1  and  C_2
    2  A    between atoms: O_1  and  C_26
    3  A    between atoms: C_2  and  C_19
    4  A    between atoms: C_3  and  C_23
    5  A    between atoms: C_5  and  C_9
    6  A    between atoms: C_5  and  C_18
    7  A    between atoms: C_6  and  C_31
    8  A    between atoms: C_9  and  C_16
    9  A    between atoms: C_13  and  C_18
   10  A    between atoms: C_20  and  C_23
   11  A    between atoms: C_20  and  C_31
   12  A    between atoms: C_26  and  C_31
                            x       y       z     vdW  Elec       q    Type
                         _______ _______ _______ _____ _____    ______ ____

>  <TORSDO>
F 12

$$$$
=
 OpenBabel10222422073D

 31 31  0  0  1  0  0  0  0  0999 V2000
  188.3200  178.4170  141.7940 C   0  0  0  0  0  0  0  0  0  0  0  0
  189.0500  177.5270  142.5050 C   0  0  0  0  0  0  0  0  0  0  0  0
  188.9420  179.3030  140.9190 O   0  0  0  0  0  1  0  0  0  0  0  0
  190.5760  177.4980  142.3550 C   0  0  2  0  0  0  0  0  0  0  0  0
  191.0690  176.3320  142.9440 O   0  0  0  0  0  1  0  0  0  0  0  0
  191.2760  178.6700  143.0280 C   0  0  0  0  0  1  0  0  0  0  0  0
  190.6330  176.2820  140.2670 O   0  0  0  0  0  1  0  0  0  0  0  0
  190.9710  177.4940  140.8770 C   0  0  0  0  0  2  0  0  0  0  0  0
  188.6790  175.1270  143.2770 C   0  0  0  0  0  1  0  0  0  0  0  0
  188.3140  176.5960  143.4490 C   0  0  1  0  0  3  0  0  0  0  0  0
  187.1080  177.6090  145.4380 C   0  0  0  0  0  3  0  0  0  0  0  0
  188.2530  178.3060  148.9180 N   0  0  0  0  0  1  0  0  0  0  0  0
  185.9320  178.5500  147.3180 O   0  0  0  0  0  1  0  0  0  0  0  0
  188.2760  177.0740  144.8710 C   0  0  0  0  0  0  0  0  0  0  0  0
  187.0950  178.0190  146.7740 C   0  0  0  0  0  0  0  0  0  0  0  0
  189.4260  176.9450  145.6590 C   0  0  0  0  0  3  0  0  0  0  0  0
  189.4150  177.3560  146.9950 C   0  0  0  0  0  3  0  0  0  0  0  0
  188.2530  177.8930  147.5550 C   0  0  0  0  0  0  0  0  0  0  0  0
  186.8260  178.4800  141.8970 C   0  0  0  0  0  2  0  0  0  0  0  0
  186.1920  178.6880  140.5280 C   0  0  0  0  0  2  0  0  0  0  0  0
  184.7200  179.0710  140.6380 C   0  0  1  0  0  3  0  0  0  0  0  0
  184.1770  179.3830  139.2860 C   0  0  0  0  0  0  0  0  0  0  0  0
  183.7820  178.3610  138.4290 O   0  0  0  0  0  0  0  0  0  0  0  0
  184.0750  180.5810  138.9170 O   0  0  0  0  0  1  0  0  0  0  0  0
  183.9090  177.9490  141.2730 C   0  0  0  0  0  2  0  0  0  0  0  0
  182.6960  178.4530  141.8200 O   0  0  0  0  0  0  0  0  0  0  0  0
  182.6190  179.0120  143.1000 C   0  0  0  0  0  0  0  0  0  0  0  0
  181.5510  179.5780  143.4560 O   0  0  0  0  0  0  0  0  0  0  0  0
  184.5770  180.0870  143.8920 O   0  0  0  0  0  1  0  0  0  0  0  0
  183.7780  178.9530  144.0460 C   0  0  1  0  0  3  0  0  0  0  0  0
  183.3010  178.8750  145.4160 N   0  0  0  0  0  1  0  0  0  0  0  0
  1 19  1  0  0  0  0
  1  2  2  0  0  0  0
  2 10  1  0  0  0  0
  3  1  1  0  0  0  0
  4  2  1  0  0  0  0
  4  5  1  0  0  0  0
  4  6  1  1  0  0  0
  7  8  1  0  0  0  0
  8  4  1  0  0  0  0
 10  9  1  1  0  0  0
 10 14  1  0  0  0  0
 11 15  1  0  0  0  0
 14 11  2  0  0  0  0
 14 16  1  0  0  0  0
 15 13  1  0  0  0  0
 15 18  2  0  0  0  0
 16 17  2  0  0  0  0
 17 18  1  0  0  0  0
 18 12  1  0  0  0  0
 20 19  1  0  0  0  0
 21 20  1  6  0  0  0
 21 25  1  0  0  0  0
 22 21  1  0  0  0  0
 23 22  2  0  0  0  0
 24 22  1  0  0  0  0
 25 26  1  0  0  0  0
 26 27  1  0  0  0  0
 27 28  2  0  0  0  0
 27 30  1  0  0  0  0
 30 29  1  1  0  0  0
 30 31  1  0  0  0  0
M  END
>  <MODEL>
3

>  <REMARK>
 VINA RESULT:      -6.7      2.647      5.205
  Name = 
  12 active torsions:
  status: ('A' for Active; 'I' for Inactive)
    1  A    between atoms: O_1  and  C_2
    2  A    between atoms: O_1  and  C_26
    3  A    between atoms: C_2  and  C_19
    4  A    between atoms: C_3  and  C_23
    5  A    between atoms: C_5  and  C_9
    6  A    between atoms: C_5  and  C_18
    7  A    between atoms: C_6  and  C_31
    8  A    between atoms: C_9  and  C_16
    9  A    between atoms: C_13  and  C_18
   10  A    between atoms: C_20  and  C_23
   11  A    between atoms: C_20  and  C_31
   12  A    between atoms: C_26  and  C_31
                            x       y       z     vdW  Elec       q    Type
                         _______ _______ _______ _____ _____    ______ ____

>  <TORSDO>
F 12

$$$$
=
 OpenBabel10222422073D

 31 31  0  0  1  0  0  0  0  0999 V2000
  184.3870  178.8590  141.2710 C   0  0  0  0  0  0  0  0  0  0  0  0
  183.4340  178.7050  140.3250 C   0  0  0  0  0  0  0  0  0  0  0  0
  185.5650  179.5430  140.9850 O   0  0  0  0  0  1  0  0  0  0  0  0
  183.6520  179.2820  138.9200 C   0  0  2  0  0  0  0  0  0  0  0  0
  184.2760  180.5260  139.0320 O   0  0  0  0  0  1  0  0  0  0  0  0
  182.3610  179.4970  138.1440 C   0  0  0  0  0  1  0  0  0  0  0  0
  185.8590  178.8670  138.0270 O   0  0  0  0  0  1  0  0  0  0  0  0
  184.5560  178.3630  138.0960 C   0  0  0  0  0  2  0  0  0  0  0  0
  181.0150  178.8280  141.1190 C   0  0  0  0  0  1  0  0  0  0  0  0
  182.1780  177.9400  140.6970 C   0  0  1  0  0  3  0  0  0  0  0  0
  182.7900  175.9830  139.2030 C   0  0  0  0  0  3  0  0  0  0  0  0
  180.6860  173.7510  137.0820 N   0  0  0  0  0  1  0  0  0  0  0  0
  183.3950  174.1110  137.8120 O   0  0  0  0  0  1  0  0  0  0  0  0
  181.8190  176.8500  139.7290 C   0  0  0  0  0  0  0  0  0  0  0  0
  182.4210  174.9580  138.3260 C   0  0  0  0  0  0  0  0  0  0  0  0
  180.4770  176.6730  139.3770 C   0  0  0  0  0  3  0  0  0  0  0  0
  180.1060  175.6490  138.5010 C   0  0  0  0  0  3  0  0  0  0  0  0
  181.0750  174.7910  137.9740 C   0  0  0  0  0  0  0  0  0  0  0  0
  184.2190  178.3230  142.6620 C   0  0  0  0  0  2  0  0  0  0  0  0
  184.4800  179.4050  143.7000 C   0  0  0  0  0  2  0  0  0  0  0  0
  185.5870  179.0060  144.6690 C   0  0  1  0  0  3  0  0  0  0  0  0
  185.0590  178.9910  146.0620 C   0  0  0  0  0  0  0  0  0  0  0  0
  185.8580  179.3950  147.1260 O   0  0  0  0  0  1  0  0  0  0  0  0
  183.8780  178.6120  146.2760 O   0  0  0  0  0  0  0  0  0  0  0  0
  186.1530  177.6360  144.3180 C   0  0  0  0  0  2  0  0  0  0  0  0
  187.2440  177.3090  145.1700 O   0  0  0  0  0  0  0  0  0  0  0  0
  188.5150  176.9870  144.6810 C   0  0  0  0  0  0  0  0  0  0  0  0
  188.6100  176.2690  143.6510 O   0  0  0  0  0  0  0  0  0  0  0  0
  190.2070  178.6460  144.7540 O   0  0  0  0  0  1  0  0  0  0  0  0
  189.7570  177.4740  145.3630 C   0  0  1  0  0  3  0  0  0  0  0  0
  189.4880  177.7260  146.7680 N   0  0  0  0  0  1  0  0  0  0  0  0
  1 19  1  0  0  0  0
  2 10  1  0  0  0  0
  2  1  2  0  0  0  0
  3  1  1  0  0  0  0
  4  6  1  6  0  0  0
  4  5  1  0  0  0  0
  4  2  1  0  0  0  0
  7  8  1  0  0  0  0
  8  4  1  0  0  0  0
 10  9  1  6  0  0  0
 11 14  1  0  0  0  0
 12 18  1  0  0  0  0
 13 15  1  0  0  0  0
 14 10  1  0  0  0  0
 15 11  2  0  0  0  0
 16 14  2  0  0  0  0
 17 16  1  0  0  0  0
 18 15  1  0  0  0  0
 18 17  2  0  0  0  0
 19 20  1  0  0  0  0
 21 20  1  6  0  0  0
 21 22  1  0  0  0  0
 22 24  2  0  0  0  0
 22 23  1  0  0  0  0
 25 21  1  0  0  0  0
 25 26  1  0  0  0  0
 27 26  1  0  0  0  0
 27 30  1  0  0  0  0
 28 27  2  0  0  0  0
 30 29  1  6  0  0  0
 30 31  1  0  0  0  0
M  END
>  <MODEL>
4

>  <REMARK>
 VINA RESULT:      -6.6      3.341      7.398
  Name = 
  12 active torsions:
  status: ('A' for Active; 'I' for Inactive)
    1  A    between atoms: O_1  and  C_2
    2  A    between atoms: O_1  and  C_26
    3  A    between atoms: C_2  and  C_19
    4  A    between atoms: C_3  and  C_23
    5  A    between atoms: C_5  and  C_9
    6  A    between atoms: C_5  and  C_18
    7  A    between atoms: C_6  and  C_31
    8  A    between atoms: C_9  and  C_16
    9  A    between atoms: C_13  and  C_18
   10  A    between atoms: C_20  and  C_23
   11  A    between atoms: C_20  and  C_31
   12  A    between atoms: C_26  and  C_31
                            x       y       z     vdW  Elec       q    Type
                         _______ _______ _______ _____ _____    ______ ____

>  <TORSDO>
F 12

$$$$
=
 OpenBabel10222422073D

 31 31  0  0  1  0  0  0  0  0999 V2000
  188.5820  177.8980  139.8060 C   0  0  0  0  0  0  0  0  0  0  0  0
  188.7650  177.4420  138.5460 C   0  0  0  0  0  0  0  0  0  0  0  0
  188.1510  179.2020  140.0320 O   0  0  0  0  0  1  0  0  0  0  0  0
  188.5010  178.3700  137.3530 C   0  0  2  0  0  0  0  0  0  0  0  0
  188.9870  179.6440  137.6530 O   0  0  0  0  0  1  0  0  0  0  0  0
  187.0250  178.5220  137.0150 C   0  0  0  0  0  1  0  0  0  0  0  0
  188.3580  177.7880  135.0120 O   0  0  0  0  0  1  0  0  0  0  0  0
  189.2260  177.8610  136.1060 C   0  0  0  0  0  2  0  0  0  0  0  0
  188.4250  175.2050  137.3730 C   0  0  0  0  0  1  0  0  0  0  0  0
  189.2460  176.0150  138.3680 C   0  0  1  0  0  3  0  0  0  0  0  0
  191.6240  176.6980  138.9320 C   0  0  0  0  0  3  0  0  0  0  0  0
  194.9090  175.3860  137.7520 N   0  0  0  0  0  1  0  0  0  0  0  0
  193.8710  177.3490  139.5060 O   0  0  0  0  0  1  0  0  0  0  0  0
  190.7340  175.8890  138.2080 C   0  0  0  0  0  0  0  0  0  0  0  0
  193.0040  176.5370  138.7840 C   0  0  0  0  0  0  0  0  0  0  0  0
  191.2400  174.9120  137.3440 C   0  0  0  0  0  3  0  0  0  0  0  0
  192.6210  174.7500  137.1940 C   0  0  0  0  0  3  0  0  0  0  0  0
  193.5040  175.5610  137.9120 C   0  0  0  0  0  0  0  0  0  0  0  0
  188.8160  177.0290  141.0060 C   0  0  0  0  0  2  0  0  0  0  0  0
  188.5970  177.8080  142.2960 C   0  0  0  0  0  2  0  0  0  0  0  0
  189.5490  177.3570  143.3980 C   0  0  1  0  0  3  0  0  0  0  0  0
  190.8860  177.9840  143.2000 C   0  0  0  0  0  0  0  0  0  0  0  0
  191.1460  179.2620  143.6810 O   0  0  0  0  0  1  0  0  0  0  0  0
  191.7870  177.3490  142.5930 O   0  0  0  0  0  0  0  0  0  0  0  0
  189.0060  177.7240  144.7740 C   0  0  0  0  0  2  0  0  0  0  0  0
  187.6250  177.3970  144.8730 O   0  0  0  0  0  0  0  0  0  0  0  0
  186.7810  177.9630  145.8330 C   0  0  0  0  0  0  0  0  0  0  0  0
  187.0480  177.8030  147.0540 O   0  0  0  0  0  0  0  0  0  0  0  0
  185.0640  178.2680  144.2270 O   0  0  0  0  0  1  0  0  0  0  0  0
  185.5680  178.7470  145.4370 C   0  0  1  0  0  3  0  0  0  0  0  0
  184.5480  178.6420  146.4660 N   0  0  0  0  0  1  0  0  0  0  0  0
  1  3  1  0  0  0  0
  1 19  1  0  0  0  0
  2  1  2  0  0  0  0
  4  6  1  6  0  0  0
  4  5  1  0  0  0  0
  4  2  1  0  0  0  0
  7  8  1  0  0  0  0
  8  4  1  0  0  0  0
 10  9  1  6  0  0  0
 10  2  1  0  0  0  0
 12 18  1  0  0  0  0
 14 10  1  0  0  0  0
 14 11  2  0  0  0  0
 15 11  1  0  0  0  0
 15 13  1  0  0  0  0
 16 14  1  0  0  0  0
 17 16  2  0  0  0  0
 17 18  1  0  0  0  0
 18 15  2  0  0  0  0
 19 20  1  0  0  0  0
 21 20  1  6  0  0  0
 21 25  1  0  0  0  0
 22 21  1  0  0  0  0
 22 23  1  0  0  0  0
 24 22  2  0  0  0  0
 25 26  1  0  0  0  0
 26 27  1  0  0  0  0
 27 28  2  0  0  0  0
 30 29  1  6  0  0  0
 30 27  1  0  0  0  0
 30 31  1  0  0  0  0
M  END
>  <MODEL>
5

>  <REMARK>
 VINA RESULT:      -6.6      3.164      6.320
  Name = 
  12 active torsions:
  status: ('A' for Active; 'I' for Inactive)
    1  A    between atoms: O_1  and  C_2
    2  A    between atoms: O_1  and  C_26
    3  A    between atoms: C_2  and  C_19
    4  A    between atoms: C_3  and  C_23
    5  A    between atoms: C_5  and  C_9
    6  A    between atoms: C_5  and  C_18
    7  A    between atoms: C_6  and  C_31
    8  A    between atoms: C_9  and  C_16
    9  A    between atoms: C_13  and  C_18
   10  A    between atoms: C_20  and  C_23
   11  A    between atoms: C_20  and  C_31
   12  A    between atoms: C_26  and  C_31
                            x       y       z     vdW  Elec       q    Type
                         _______ _______ _______ _____ _____    ______ ____

>  <TORSDO>
F 12

$$$$
=
 OpenBabel10222422073D

 31 31  0  0  1  0  0  0  0  0999 V2000
  188.7710  177.6850  142.7760 C   0  0  0  0  0  0  0  0  0  0  0  0
  190.0680  177.7350  142.3930 C   0  0  0  0  0  0  0  0  0  0  0  0
  187.7950  177.2010  141.9090 O   0  0  0  0  0  1  0  0  0  0  0  0
  190.4680  177.2610  140.9900 C   0  0  2  0  0  0  0  0  0  0  0  0
  190.4170  175.8660  140.9500 O   0  0  0  0  0  1  0  0  0  0  0  0
  191.8790  177.6690  140.5910 C   0  0  0  0  0  1  0  0  0  0  0  0
  190.0500  177.7360  138.6580 O   0  0  0  0  0  1  0  0  0  0  0  0
  189.4990  177.8080  139.9410 C   0  0  0  0  0  2  0  0  0  0  0  0
  190.8740  179.7510  143.7280 C   0  0  0  0  0  1  0  0  0  0  0  0
  191.0800  178.2830  143.3800 C   0  0  1  0  0  3  0  0  0  0  0  0
  191.0750  177.8050  145.8720 C   0  0  0  0  0  3  0  0  0  0  0  0
  191.9870  174.7420  147.7940 N   0  0  0  0  0  1  0  0  0  0  0  0
  191.0370  177.3690  148.2410 O   0  0  0  0  0  1  0  0  0  0  0  0
  191.3320  177.3850  144.5570 C   0  0  0  0  0  0  0  0  0  0  0  0
  191.2920  176.9360  146.9460 C   0  0  0  0  0  0  0  0  0  0  0  0
  191.7960  176.0850  144.3280 C   0  0  0  0  0  3  0  0  0  0  0  0
  192.0130  175.2150  145.4010 C   0  0  0  0  0  3  0  0  0  0  0  0
  191.7630  175.6380  146.7090 C   0  0  0  0  0  0  0  0  0  0  0  0
  188.3280  178.1270  144.1390 C   0  0  0  0  0  2  0  0  0  0  0  0
  187.4660  177.0630  144.8040 C   0  0  0  0  0  2  0  0  0  0  0  0
  186.1740  177.6490  145.3630 C   0  0  1  0  0  3  0  0  0  0  0  0
  186.4280  178.2440  146.7050 C   0  0  0  0  0  0  0  0  0  0  0  0
  185.7790  179.4100  147.0970 O   0  0  0  0  0  0  0  0  0  0  0  0
  187.2360  177.6850  147.4910 O   0  0  0  0  0  1  0  0  0  0  0  0
  185.6060  178.7100  144.4280 C   0  0  0  0  0  2  0  0  0  0  0  0
  184.8570  178.1070  143.3800 O   0  0  0  0  0  0  0  0  0  0  0  0
  184.7500  178.6720  142.1050 C   0  0  0  0  0  0  0  0  0  0  0  0
  185.5900  179.5410  141.7490 O   0  0  0  0  0  0  0  0  0  0  0  0
  182.4350  178.7760  141.6090 O   0  0  0  0  0  1  0  0  0  0  0  0
  183.6560  178.2700  141.1650 C   0  0  1  0  0  3  0  0  0  0  0  0
  183.9360  178.7720  139.8300 N   0  0  0  0  0  1  0  0  0  0  0  0
  1 19  1  0  0  0  0
  2  1  2  0  0  0  0
  2 10  1  0  0  0  0
  3  1  1  0  0  0  0
  4  6  1  6  0  0  0
  4  2  1  0  0  0  0
  5  4  1  0  0  0  0
  7  8  1  0  0  0  0
  8  4  1  0  0  0  0
 10  9  1  1  0  0  0
 10 14  1  0  0  0  0
 11 15  1  0  0  0  0
 14 11  2  0  0  0  0
 15 13  1  0  0  0  0
 16 14  1  0  0  0  0
 16 17  2  0  0  0  0
 17 18  1  0  0  0  0
 18 15  2  0  0  0  0
 18 12  1  0  0  0  0
 19 20  1  0  0  0  0
 20 21  1  0  0  0  0
 21 25  1  6  0  0  0
 21 22  1  0  0  0  0
 22 23  2  0  0  0  0
 22 24  1  0  0  0  0
 26 25  1  0  0  0  0
 27 26  1  0  0  0  0
 28 27  2  0  0  0  0
 30 31  1  6  0  0  0
 30 29  1  0  0  0  0
 30 27  1  0  0  0  0
M  END
>  <MODEL>
6

>  <REMARK>
 VINA RESULT:      -6.4      2.569      4.786
  Name = 
  12 active torsions:
  status: ('A' for Active; 'I' for Inactive)
    1  A    between atoms: O_1  and  C_2
    2  A    between atoms: O_1  and  C_26
    3  A    between atoms: C_2  and  C_19
    4  A    between atoms: C_3  and  C_23
    5  A    between atoms: C_5  and  C_9
    6  A    between atoms: C_5  and  C_18
    7  A    between atoms: C_6  and  C_31
    8  A    between atoms: C_9  and  C_16
    9  A    between atoms: C_13  and  C_18
   10  A    between atoms: C_20  and  C_23
   11  A    between atoms: C_20  and  C_31
   12  A    between atoms: C_26  and  C_31
                            x       y       z     vdW  Elec       q    Type
                         _______ _______ _______ _____ _____    ______ ____

>  <TORSDO>
F 12

$$$$
=
 OpenBabel10222422073D

 31 31  0  0  1  0  0  0  0  0999 V2000
  188.5230  178.1700  141.7580 C   0  0  0  0  0  0  0  0  0  0  0  0
  189.3770  177.5300  142.5880 C   0  0  0  0  0  0  0  0  0  0  0  0
  188.9820  179.1650  140.8990 O   0  0  0  0  0  1  0  0  0  0  0  0
  190.8640  177.9050  142.5900 C   0  0  2  0  0  0  0  0  0  0  0  0
  191.5870  176.8930  143.2240 O   0  0  0  0  0  1  0  0  0  0  0  0
  191.1630  179.2000  143.3320 C   0  0  0  0  0  1  0  0  0  0  0  0
  191.2540  176.8450  140.4530 O   0  0  0  0  0  1  0  0  0  0  0  0
  191.3860  178.0450  141.1590 C   0  0  0  0  0  2  0  0  0  0  0  0
  189.4660  175.0980  143.3440 C   0  0  0  0  0  1  0  0  0  0  0  0
  188.8120  176.4640  143.5060 C   0  0  1  0  0  3  0  0  0  0  0  0
  187.4080  177.3960  145.4020 C   0  0  0  0  0  3  0  0  0  0  0  0
  188.2300  178.0690  148.9760 N   0  0  0  0  0  1  0  0  0  0  0  0
  186.0440  178.2600  147.1900 O   0  0  0  0  0  1  0  0  0  0  0  0
  188.6370  176.9140  144.9280 C   0  0  0  0  0  0  0  0  0  0  0  0
  187.2670  177.7810  146.7390 C   0  0  0  0  0  0  0  0  0  0  0  0
  189.7210  176.8110  145.8080 C   0  0  0  0  0  3  0  0  0  0  0  0
  189.5830  177.1960  147.1440 C   0  0  0  0  0  3  0  0  0  0  0  0
  188.3590  177.6810  147.6120 C   0  0  0  0  0  0  0  0  0  0  0  0
  187.0620  177.8350  141.7090 C   0  0  0  0  0  2  0  0  0  0  0  0
  186.2600  178.7500  142.6250 C   0  0  0  0  0  2  0  0  0  0  0  0
  184.8490  178.2220  142.8600 C   0  0  1  0  0  3  0  0  0  0  0  0
  184.1700  179.0410  143.9030 C   0  0  0  0  0  0  0  0  0  0  0  0
  184.8980  179.9210  144.6960 O   0  0  0  0  0  1  0  0  0  0  0  0
  182.9270  178.9350  144.0650 O   0  0  0  0  0  0  0  0  0  0  0  0
  184.0350  178.2470  141.5720 C   0  0  0  0  0  2  0  0  0  0  0  0
  184.2820  179.4440  140.8450 O   0  0  0  0  0  0  0  0  0  0  0  0
  184.3370  179.4830  139.4480 C   0  0  0  0  0  0  0  0  0  0  0  0
  183.8850  180.4920  138.8460 O   0  0  0  0  0  0  0  0  0  0  0  0
  184.0790  178.0390  137.5860 O   0  0  0  0  0  1  0  0  0  0  0  0
  184.9140  178.3470  138.6610 C   0  0  1  0  0  3  0  0  0  0  0  0
  186.2330  178.7010  138.1680 N   0  0  0  0  0  1  0  0  0  0  0  0
  1  2  2  0  0  0  0
  2  4  1  0  0  0  0
  2 10  1  0  0  0  0
  3  1  1  0  0  0  0
  4  5  1  0  0  0  0
  4  6  1  1  0  0  0
  7  8  1  0  0  0  0
  8  4  1  0  0  0  0
 10  9  1  1  0  0  0
 10 14  1  0  0  0  0
 11 15  1  0  0  0  0
 14 11  2  0  0  0  0
 14 16  1  0  0  0  0
 15 13  1  0  0  0  0
 15 18  2  0  0  0  0
 16 17  2  0  0  0  0
 17 18  1  0  0  0  0
 18 12  1  0  0  0  0
 19  1  1  0  0  0  0
 19 20  1  0  0  0  0
 20 21  1  0  0  0  0
 21 25  1  6  0  0  0
 21 22  1  0  0  0  0
 22 24  2  0  0  0  0
 22 23  1  0  0  0  0
 26 25  1  0  0  0  0
 27 26  1  0  0  0  0
 28 27  2  0  0  0  0
 30 29  1  6  0  0  0
 30 27  1  0  0  0  0
 31 30  1  0  0  0  0
M  END
>  <MODEL>
7

>  <REMARK>
 VINA RESULT:      -6.3      2.477      4.462
  Name = 
  12 active torsions:
  status: ('A' for Active; 'I' for Inactive)
    1  A    between atoms: O_1  and  C_2
    2  A    between atoms: O_1  and  C_26
    3  A    between atoms: C_2  and  C_19
    4  A    between atoms: C_3  and  C_23
    5  A    between atoms: C_5  and  C_9
    6  A    between atoms: C_5  and  C_18
    7  A    between atoms: C_6  and  C_31
    8  A    between atoms: C_9  and  C_16
    9  A    between atoms: C_13  and  C_18
   10  A    between atoms: C_20  and  C_23
   11  A    between atoms: C_20  and  C_31
   12  A    between atoms: C_26  and  C_31
                            x       y       z     vdW  Elec       q    Type
                         _______ _______ _______ _____ _____    ______ ____

>  <TORSDO>
F 12

$$$$
=
 OpenBabel10222422073D

 31 31  0  0  1  0  0  0  0  0999 V2000
  190.7910  177.3790  141.8650 C   0  0  0  0  0  0  0  0  0  0  0  0
  190.0600  177.2490  142.9950 C   0  0  0  0  0  0  0  0  0  0  0  0
  191.9840  178.0950  141.8720 O   0  0  0  0  0  1  0  0  0  0  0  0
  190.5440  177.9010  144.2960 C   0  0  2  0  0  0  0  0  0  0  0  0
  189.4610  178.0340  145.1680 O   0  0  0  0  0  1  0  0  0  0  0  0
  191.1320  179.2910  144.0970 C   0  0  0  0  0  1  0  0  0  0  0  0
  191.1820  176.6190  146.2430 O   0  0  0  0  0  1  0  0  0  0  0  0
  191.6020  177.0290  144.9740 C   0  0  0  0  0  2  0  0  0  0  0  0
  188.7780  175.1680  143.7170 C   0  0  0  0  0  1  0  0  0  0  0  0
  188.7640  176.4650  142.9190 C   0  0  1  0  0  3  0  0  0  0  0  0
  186.9940  178.0620  142.0480 C   0  0  0  0  0  3  0  0  0  0  0  0
  184.0040  179.5600  143.6970 N   0  0  0  0  0  1  0  0  0  0  0  0
  185.3130  179.5580  141.1890 O   0  0  0  0  0  1  0  0  0  0  0  0
  187.5320  177.3040  143.1010 C   0  0  0  0  0  0  0  0  0  0  0  0
  185.8300  178.8100  142.2400 C   0  0  0  0  0  0  0  0  0  0  0  0
  186.8860  177.2950  144.3420 C   0  0  0  0  0  3  0  0  0  0  0  0
  185.7210  178.0440  144.5360 C   0  0  0  0  0  3  0  0  0  0  0  0
  185.1920  178.8020  143.4880 C   0  0  0  0  0  0  0  0  0  0  0  0
  190.3670  176.7530  140.5690 C   0  0  0  0  0  2  0  0  0  0  0  0
  190.1700  177.8090  139.4900 C   0  0  0  0  0  2  0  0  0  0  0  0
  189.2270  177.3280  138.3930 C   0  0  1  0  0  3  0  0  0  0  0  0
  188.3120  178.4340  137.9920 C   0  0  0  0  0  0  0  0  0  0  0  0
  186.9660  178.3980  138.3370 O   0  0  0  0  0  1  0  0  0  0  0  0
  188.7630  179.4090  137.3380 O   0  0  0  0  0  0  0  0  0  0  0  0
  190.0070  176.8380  137.1790 C   0  0  0  0  0  2  0  0  0  0  0  0
  190.7390  175.6600  137.4940 O   0  0  0  0  0  0  0  0  0  0  0  0
  192.0780  175.4820  137.1300 C   0  0  0  0  0  0  0  0  0  0  0  0
  192.4210  174.4080  136.5680 O   0  0  0  0  0  0  0  0  0  0  0  0
  193.4460  176.5360  138.7530 O   0  0  0  0  0  1  0  0  0  0  0  0
  193.1050  176.5380  137.4000 C   0  0  1  0  0  3  0  0  0  0  0  0
  194.2910  176.2970  136.5970 N   0  0  0  0  0  1  0  0  0  0  0  0
  1  3  1  0  0  0  0
  1  2  2  0  0  0  0
  2  4  1  0  0  0  0
  4  6  1  6  0  0  0
  4  8  1  0  0  0  0
  4  5  1  0  0  0  0
  8  7  1  0  0  0  0
 10  2  1  0  0  0  0
 10 14  1  0  0  0  0
 10  9  1  1  0  0  0
 11 15  2  0  0  0  0
 11 14  1  0  0  0  0
 13 15  1  0  0  0  0
 14 16  2  0  0  0  0
 15 18  1  0  0  0  0
 16 17  1  0  0  0  0
 18 12  1  0  0  0  0
 18 17  2  0  0  0  0
 19  1  1  0  0  0  0
 20 19  1  0  0  0  0
 21 25  1  6  0  0  0
 21 20  1  0  0  0  0
 22 23  1  0  0  0  0
 22 21  1  0  0  0  0
 24 22  2  0  0  0  0
 25 26  1  0  0  0  0
 27 30  1  0  0  0  0
 27 26  1  0  0  0  0
 28 27  2  0  0  0  0
 30 31  1  6  0  0  0
 30 29  1  0  0  0  0
M  END
>  <MODEL>
8

>  <REMARK>
 VINA RESULT:      -6.3      2.465      6.665
  Name = 
  12 active torsions:
  status: ('A' for Active; 'I' for Inactive)
    1  A    between atoms: O_1  and  C_2
    2  A    between atoms: O_1  and  C_26
    3  A    between atoms: C_2  and  C_19
    4  A    between atoms: C_3  and  C_23
    5  A    between atoms: C_5  and  C_9
    6  A    between atoms: C_5  and  C_18
    7  A    between atoms: C_6  and  C_31
    8  A    between atoms: C_9  and  C_16
    9  A    between atoms: C_13  and  C_18
   10  A    between atoms: C_20  and  C_23
   11  A    between atoms: C_20  and  C_31
   12  A    between atoms: C_26  and  C_31
                            x       y       z     vdW  Elec       q    Type
                         _______ _______ _______ _____ _____    ______ ____

>  <TORSDO>
F 12

$$$$
=
 OpenBabel10222422073D

 31 31  0  0  1  0  0  0  0  0999 V2000
  190.7340  177.3360  141.7900 C   0  0  0  0  0  0  0  0  0  0  0  0
  190.0390  177.2020  142.9420 C   0  0  0  0  0  0  0  0  0  0  0  0
  191.9370  178.0370  141.7660 O   0  0  0  0  0  1  0  0  0  0  0  0
  190.5740  177.8330  144.2340 C   0  0  2  0  0  0  0  0  0  0  0  0
  189.5160  177.9990  145.1300 O   0  0  0  0  0  1  0  0  0  0  0  0
  191.2030  179.2030  144.0260 C   0  0  0  0  0  1  0  0  0  0  0  0
  191.5420  176.9860  146.2800 O   0  0  0  0  0  1  0  0  0  0  0  0
  191.6170  176.9230  144.8850 C   0  0  0  0  0  2  0  0  0  0  0  0
  188.7520  175.1330  143.6890 C   0  0  0  0  0  1  0  0  0  0  0  0
  188.7310  176.4350  142.9000 C   0  0  1  0  0  3  0  0  0  0  0  0
  186.9500  178.0500  142.0890 C   0  0  0  0  0  3  0  0  0  0  0  0
  184.0390  179.5870  143.8390 N   0  0  0  0  0  1  0  0  0  0  0  0
  185.2560  179.5630  141.2860 O   0  0  0  0  0  1  0  0  0  0  0  0
  187.5170  177.2890  143.1230 C   0  0  0  0  0  0  0  0  0  0  0  0
  185.8010  178.8120  142.3200 C   0  0  0  0  0  0  0  0  0  0  0  0
  186.9160  177.2920  144.3870 C   0  0  0  0  0  3  0  0  0  0  0  0
  185.7680  178.0540  144.6210 C   0  0  0  0  0  3  0  0  0  0  0  0
  185.2090  178.8150  143.5900 C   0  0  0  0  0  0  0  0  0  0  0  0
  190.2610  176.7300  140.5020 C   0  0  0  0  0  2  0  0  0  0  0  0
  190.5160  177.6680  139.3310 C   0  0  0  0  0  2  0  0  0  0  0  0
  190.8500  176.9040  138.0550 C   0  0  1  0  0  3  0  0  0  0  0  0
  192.1330  176.1660  138.2300 C   0  0  0  0  0  0  0  0  0  0  0  0
  193.2740  176.8260  138.6730 O   0  0  0  0  0  1  0  0  0  0  0  0
  192.1830  174.9350  137.9750 O   0  0  0  0  0  0  0  0  0  0  0  0
  189.7380  175.9260  137.6960 C   0  0  0  0  0  2  0  0  0  0  0  0
  188.8270  176.5170  136.7770 O   0  0  0  0  0  0  0  0  0  0  0  0
  187.5070  176.8300  137.1160 C   0  0  0  0  0  0  0  0  0  0  0  0
  186.7020  175.8950  137.3670 O   0  0  0  0  0  0  0  0  0  0  0  0
  186.4520  178.5040  138.4210 O   0  0  0  0  0  1  0  0  0  0  0  0
  187.0370  178.2510  137.1800 C   0  0  1  0  0  3  0  0  0  0  0  0
  188.1540  179.1560  136.9730 N   0  0  0  0  0  1  0  0  0  0  0  0
  1  2  2  0  0  0  0
  2  4  1  0  0  0  0
  3  1  1  0  0  0  0
  4  6  1  6  0  0  0
  4  8  1  0  0  0  0
  4  5  1  0  0  0  0
  8  7  1  0  0  0  0
 10  2  1  0  0  0  0
 10 14  1  0  0  0  0
 10  9  1  1  0  0  0
 11 15  2  0  0  0  0
 11 14  1  0  0  0  0
 13 15  1  0  0  0  0
 14 16  2  0  0  0  0
 15 18  1  0  0  0  0
 16 17  1  0  0  0  0
 18 12  1  0  0  0  0
 18 17  2  0  0  0  0
 19  1  1  0  0  0  0
 20 19  1  0  0  0  0
 21 25  1  1  0  0  0
 21 22  1  0  0  0  0
 21 20  1  0  0  0  0
 22 23  1  0  0  0  0
 24 22  2  0  0  0  0
 26 27  1  0  0  0  0
 26 25  1  0  0  0  0
 27 30  1  0  0  0  0
 27 28  2  0  0  0  0
 30 31  1  1  0  0  0
 30 29  1  0  0  0  0
M  END
>  <MODEL>
9

>  <REMARK>
 VINA RESULT:      -6.3      2.237      5.975
  Name = 
  12 active torsions:
  status: ('A' for Active; 'I' for Inactive)
    1  A    between atoms: O_1  and  C_2
    2  A    between atoms: O_1  and  C_26
    3  A    between atoms: C_2  and  C_19
    4  A    between atoms: C_3  and  C_23
    5  A    between atoms: C_5  and  C_9
    6  A    between atoms: C_5  and  C_18
    7  A    between atoms: C_6  and  C_31
    8  A    between atoms: C_9  and  C_16
    9  A    between atoms: C_13  and  C_18
   10  A    between atoms: C_20  and  C_23
   11  A    between atoms: C_20  and  C_31
   12  A    between atoms: C_26  and  C_31
                            x       y       z     vdW  Elec       q    Type
                         _______ _______ _______ _____ _____    ______ ____

>  <TORSDO>
F 12

$$$$
