=
 OpenBabel10232409203D

 30 32  0  0  0  0  0  0  0  0999 V2000
  191.0600  176.8940  137.7360 C   0  0  0  0  0  3  0  0  0  0  0  0
  184.4390  176.2210  136.8090 C   0  0  0  0  0  3  0  0  0  0  0  0
  187.3950  177.0300  144.4800 N   0  0  0  0  0  2  0  0  0  0  0  0
  187.7890  177.3260  135.9580 C   0  0  0  0  0  2  0  0  0  0  0  0
  186.9260  176.2220  136.5600 C   0  0  0  0  0  2  0  0  0  0  0  0
  188.4530  177.2010  142.2230 C   0  0  0  0  0  0  0  0  0  0  0  0
  189.7090  177.1730  137.5200 C   0  0  0  0  0  0  0  0  0  0  0  0
  188.9170  177.5230  138.6160 C   0  0  0  0  0  3  0  0  0  0  0  0
  189.4490  177.5620  139.8980 C   0  0  0  0  0  0  0  0  0  0  0  0
  183.3060  176.7000  137.3880 N   0  0  0  0  0  0  0  0  0  0  0  0
  186.1950  178.0100  142.6990 N   0  0  0  0  0  0  0  0  0  0  0  0
  189.1680  177.0810  136.2320 O   0  0  0  0  0  0  0  0  0  0  0  0
  187.3010  177.4580  143.1170 C   0  0  0  0  0  0  0  0  0  0  0  0
  190.8160  177.2890  140.0720 C   0  0  0  0  0  0  0  0  0  0  0  0
  183.3520  177.7120  138.2940 C   0  0  0  0  0  3  0  0  0  0  0  0
  188.5680  177.8930  140.9740 N   0  0  0  0  0  2  0  0  0  0  0  0
  191.5820  176.9660  138.9920 N   0  0  0  0  0  0  0  0  0  0  0  0
  185.9900  178.4260  141.3770 N   0  0  0  0  0  0  0  0  0  0  0  0
  191.4010  177.3980  141.2900 F   0  0  0  0  0  0  0  0  0  0  0  0
  184.5850  178.2680  138.6410 C   0  0  0  0  0  0  0  0  0  0  0  0
  184.8550  178.9240  141.0130 C   0  0  0  0  0  3  0  0  0  0  0  0
  185.7200  177.7830  138.0660 N   0  0  0  0  0  0  0  0  0  0  0  0
  189.3090  176.3390  142.5540 O   0  0  0  0  0  0  0  0  0  0  0  0
  185.6720  176.7800  137.1470 C   0  0  0  0  0  0  0  0  0  0  0  0
  184.6520  179.4010  139.6120 C   0  0  0  0  0  2  0  0  0  0  0  0
  186.3310  177.1790  145.3830 N   0  0  0  0  0  2  0  0  0  0  0  0
  186.7810  178.0700  146.4400 C   0  0  0  0  0  2  0  0  0  0  0  0
  185.8980  179.9470  147.6060 O   0  0  0  0  0  1  0  0  0  0  0  0
  184.3890  178.7610  146.3530 O   0  0  0  0  0  0  0  0  0  0  0  0
  185.6750  178.9870  146.8240 C   0  0  0  0  0  0  0  0  0  0  0  0
  1 17  1  0  0  0  0
  2 24  2  0  0  0  0
  2 10  1  0  0  0  0
  3 26  1  0  0  0  0
  4 12  1  0  0  0  0
  4  5  1  0  0  0  0
  5 24  1  0  0  0  0
  6 23  2  0  0  0  0
  6 13  1  0  0  0  0
  7  1  2  0  0  0  0
  7  8  1  0  0  0  0
  8  9  2  0  0  0  0
  9 14  1  0  0  0  0
  9 16  1  0  0  0  0
 10 15  2  0  0  0  0
 11 13  2  0  0  0  0
 12  7  1  0  0  0  0
 13  3  1  0  0  0  0
 14 19  1  0  0  0  0
 15 20  1  0  0  0  0
 16  6  1  0  0  0  0
 17 14  2  0  0  0  0
 18 11  1  0  0  0  0
 20 25  1  0  0  0  0
 21 18  2  0  0  0  0
 22 20  2  0  0  0  0
 24 22  1  0  0  0  0
 25 21  1  0  0  0  0
 26 27  1  0  0  0  0
 27 30  1  0  0  0  0
 29 30  2  0  0  0  0
 30 28  1  0  0  0  0
M  END
>  <MODEL>
1

>  <REMARK>
 VINA RESULT:      -8.3      0.000      0.000
  Name = 
  3 active torsions:
  status: ('A' for Active; 'I' for Inactive)
    1  A    between atoms: N_3  and  N_27
    2  A    between atoms: C_26  and  N_27
    3  A    between atoms: C_26  and  C_30
                            x       y       z     vdW  Elec       q    Type
                         _______ _______ _______ _____ _____    ______ ____

>  <TORSDO>
F 3

$$$$
=
 OpenBabel10232409203D

 30 32  0  0  0  0  0  0  0  0999 V2000
  184.2120  178.9000  142.1880 C   0  0  0  0  0  3  0  0  0  0  0  0
  188.5650  176.6050  146.7640 C   0  0  0  0  0  3  0  0  0  0  0  0
  190.6530  176.4950  138.7720 N   0  0  0  0  0  2  0  0  0  0  0  0
  185.9370  178.7710  145.5140 C   0  0  0  0  0  2  0  0  0  0  0  0
  186.5230  177.3640  145.5390 C   0  0  0  0  0  2  0  0  0  0  0  0
  188.7040  177.4540  140.0070 C   0  0  0  0  0  0  0  0  0  0  0  0
  185.2360  178.8250  143.1350 C   0  0  0  0  0  0  0  0  0  0  0  0
  186.5510  178.6850  142.6870 C   0  0  0  0  0  3  0  0  0  0  0  0
  186.8360  178.5880  141.3310 C   0  0  0  0  0  0  0  0  0  0  0  0
  189.9150  176.6030  146.9310 N   0  0  0  0  0  0  0  0  0  0  0  0
  190.9820  177.4650  140.8990 N   0  0  0  0  0  0  0  0  0  0  0  0
  184.9350  178.8720  144.5020 O   0  0  0  0  0  0  0  0  0  0  0  0
  190.1560  177.1690  139.9330 C   0  0  0  0  0  0  0  0  0  0  0  0
  185.7800  178.6810  140.4090 C   0  0  0  0  0  0  0  0  0  0  0  0
  190.7230  177.3590  146.1420 C   0  0  0  0  0  3  0  0  0  0  0  0
  188.2020  178.4090  140.9490 N   0  0  0  0  0  2  0  0  0  0  0  0
  184.5040  178.8350  140.8590 N   0  0  0  0  0  0  0  0  0  0  0  0
  190.5870  178.0890  142.0900 N   0  0  0  0  0  0  0  0  0  0  0  0
  186.0160  178.6780  139.0740 F   0  0  0  0  0  0  0  0  0  0  0  0
  190.1590  178.1500  145.1390 C   0  0  0  0  0  0  0  0  0  0  0  0
  191.4440  178.3120  143.0300 C   0  0  0  0  0  3  0  0  0  0  0  0
  188.8080  178.1460  144.9680 N   0  0  0  0  0  0  0  0  0  0  0  0
  187.9130  176.8180  139.2620 O   0  0  0  0  0  0  0  0  0  0  0  0
  187.9980  177.4000  145.7670 C   0  0  0  0  0  0  0  0  0  0  0  0
  191.0280  179.0110  144.2830 C   0  0  0  0  0  2  0  0  0  0  0  0
  192.0020  176.1330  138.6410 N   0  0  0  0  0  2  0  0  0  0  0  0
  192.3490  176.2520  137.2350 C   0  0  0  0  0  2  0  0  0  0  0  0
  194.3920  176.8920  136.1960 O   0  0  0  0  0  0  0  0  0  0  0  0
  194.5770  175.3430  137.8760 O   0  0  0  0  0  1  0  0  0  0  0  0
  193.8260  176.1940  137.0770 C   0  0  0  0  0  0  0  0  0  0  0  0
  1  7  1  0  0  0  0
  2 10  1  0  0  0  0
  3 13  1  0  0  0  0
  4  5  1  0  0  0  0
  5 24  1  0  0  0  0
  6 16  1  0  0  0  0
  7 12  1  0  0  0  0
  8  7  2  0  0  0  0
  9  8  1  0  0  0  0
 11 18  1  0  0  0  0
 12  4  1  0  0  0  0
 13  6  1  0  0  0  0
 13 11  2  0  0  0  0
 14 17  1  0  0  0  0
 14  9  2  0  0  0  0
 15 10  2  0  0  0  0
 16  9  1  0  0  0  0
 17  1  2  0  0  0  0
 18 21  2  0  0  0  0
 19 14  1  0  0  0  0
 20 15  1  0  0  0  0
 21 25  1  0  0  0  0
 22 20  2  0  0  0  0
 22 24  1  0  0  0  0
 23  6  2  0  0  0  0
 24  2  2  0  0  0  0
 25 20  1  0  0  0  0
 26  3  1  0  0  0  0
 27 26  1  0  0  0  0
 28 30  2  0  0  0  0
 30 27  1  0  0  0  0
 30 29  1  0  0  0  0
M  END
>  <MODEL>
2

>  <REMARK>
 VINA RESULT:      -8.0      2.802      8.426
  Name = 
  3 active torsions:
  status: ('A' for Active; 'I' for Inactive)
    1  A    between atoms: N_3  and  N_27
    2  A    between atoms: C_26  and  N_27
    3  A    between atoms: C_26  and  C_30
                            x       y       z     vdW  Elec       q    Type
                         _______ _______ _______ _____ _____    ______ ____

>  <TORSDO>
F 3

$$$$
=
 OpenBabel10232409203D

 30 32  0  0  0  0  0  0  0  0999 V2000
  184.1090  178.7730  145.2850 C   0  0  0  0  0  3  0  0  0  0  0  0
  189.6840  175.8640  142.9140 C   0  0  0  0  0  3  0  0  0  0  0  0
  183.4180  177.4190  137.7600 N   0  0  0  0  0  2  0  0  0  0  0  0
  187.7890  178.0910  145.0620 C   0  0  0  0  0  2  0  0  0  0  0  0
  187.8420  176.7390  144.3610 C   0  0  0  0  0  2  0  0  0  0  0  0
  183.8430  178.0160  140.1490 C   0  0  0  0  0  0  0  0  0  0  0  0
  185.3770  178.5690  144.7350 C   0  0  0  0  0  0  0  0  0  0  0  0
  185.5120  178.5880  143.3450 C   0  0  0  0  0  3  0  0  0  0  0  0
  184.4080  178.7710  142.5230 C   0  0  0  0  0  0  0  0  0  0  0  0
  190.4050  175.9010  141.7620 N   0  0  0  0  0  0  0  0  0  0  0  0
  185.6060  177.9730  138.4530 N   0  0  0  0  0  0  0  0  0  0  0  0
  186.4770  178.3340  145.5690 O   0  0  0  0  0  0  0  0  0  0  0  0
  184.3480  177.8270  138.7690 C   0  0  0  0  0  0  0  0  0  0  0  0
  183.1520  178.9870  143.1140 C   0  0  0  0  0  0  0  0  0  0  0  0
  190.1600  176.8370  140.8080 C   0  0  0  0  0  3  0  0  0  0  0  0
  184.6180  178.7420  141.1100 N   0  0  0  0  0  2  0  0  0  0  0  0
  183.0370  178.9830  144.4720 N   0  0  0  0  0  0  0  0  0  0  0  0
  186.5980  178.3320  139.3750 N   0  0  0  0  0  0  0  0  0  0  0  0
  182.0600  179.2550  142.3580 F   0  0  0  0  0  0  0  0  0  0  0  0
  189.1470  177.7770  141.0110 C   0  0  0  0  0  0  0  0  0  0  0  0
  187.8350  178.4130  139.0120 C   0  0  0  0  0  3  0  0  0  0  0  0
  188.4220  177.7350  142.1620 N   0  0  0  0  0  0  0  0  0  0  0  0
  182.7450  177.4960  140.4780 O   0  0  0  0  0  0  0  0  0  0  0  0
  188.6770  176.8070  143.1250 C   0  0  0  0  0  0  0  0  0  0  0  0
  188.8840  178.8320  139.9880 C   0  0  0  0  0  2  0  0  0  0  0  0
  183.8180  177.1600  136.4400 N   0  0  0  0  0  2  0  0  0  0  0  0
  183.5230  175.7640  136.1640 C   0  0  0  0  0  2  0  0  0  0  0  0
  184.1020  174.0840  137.7470 O   0  0  0  0  0  1  0  0  0  0  0  0
  185.8570  175.0130  136.6030 O   0  0  0  0  0  0  0  0  0  0  0  0
  184.5010  174.8980  136.8740 C   0  0  0  0  0  0  0  0  0  0  0  0
  2 24  1  0  0  0  0
  3 13  1  0  0  0  0
  4 12  1  0  0  0  0
  5  4  1  0  0  0  0
  6 23  2  0  0  0  0
  6 16  1  0  0  0  0
  7  1  1  0  0  0  0
  7 12  1  0  0  0  0
  8  7  2  0  0  0  0
  9 14  2  0  0  0  0
  9  8  1  0  0  0  0
 10  2  2  0  0  0  0
 11 13  2  0  0  0  0
 11 18  1  0  0  0  0
 13  6  1  0  0  0  0
 14 17  1  0  0  0  0
 15 20  2  0  0  0  0
 15 10  1  0  0  0  0
 16  9  1  0  0  0  0
 17  1  2  0  0  0  0
 19 14  1  0  0  0  0
 20 22  1  0  0  0  0
 21 18  2  0  0  0  0
 21 25  1  0  0  0  0
 22 24  2  0  0  0  0
 24  5  1  0  0  0  0
 25 20  1  0  0  0  0
 26  3  1  0  0  0  0
 27 26  1  0  0  0  0
 27 30  1  0  0  0  0
 29 30  2  0  0  0  0
 30 28  1  0  0  0  0
M  END
>  <MODEL>
3

>  <REMARK>
 VINA RESULT:      -7.8      2.974      7.855
  Name = 
  3 active torsions:
  status: ('A' for Active; 'I' for Inactive)
    1  A    between atoms: N_3  and  N_27
    2  A    between atoms: C_26  and  N_27
    3  A    between atoms: C_26  and  C_30
                            x       y       z     vdW  Elec       q    Type
                         _______ _______ _______ _____ _____    ______ ____

>  <TORSDO>
F 3

$$$$
=
 OpenBabel10232409203D

 30 32  0  0  0  0  0  0  0  0999 V2000
  190.7840  176.7560  136.9520 C   0  0  0  0  0  3  0  0  0  0  0  0
  184.1080  176.0640  137.2840 C   0  0  0  0  0  3  0  0  0  0  0  0
  188.4250  177.1150  144.2490 N   0  0  0  0  0  2  0  0  0  0  0  0
  187.2390  177.1350  135.7950 C   0  0  0  0  0  2  0  0  0  0  0  0
  186.5070  176.0530  136.5810 C   0  0  0  0  0  2  0  0  0  0  0  0
  189.0480  177.2120  141.8310 C   0  0  0  0  0  0  0  0  0  0  0  0
  189.4150  177.0290  136.9810 C   0  0  0  0  0  0  0  0  0  0  0  0
  188.8370  177.4160  138.1920 C   0  0  0  0  0  3  0  0  0  0  0  0
  189.5960  177.4950  139.3520 C   0  0  0  0  0  0  0  0  0  0  0  0
  183.0990  176.5640  138.0470 N   0  0  0  0  0  0  0  0  0  0  0  0
  186.9120  178.0390  142.6890 N   0  0  0  0  0  0  0  0  0  0  0  0
  188.6460  176.8970  135.8180 O   0  0  0  0  0  0  0  0  0  0  0  0
  188.0780  177.4980  142.9130 C   0  0  0  0  0  0  0  0  0  0  0  0
  190.9730  177.2260  139.2800 C   0  0  0  0  0  0  0  0  0  0  0  0
  183.3080  177.6040  138.8960 C   0  0  0  0  0  3  0  0  0  0  0  0
  188.9280  177.8620  140.5610 N   0  0  0  0  0  2  0  0  0  0  0  0
  191.5280  176.8670  138.0880 N   0  0  0  0  0  0  0  0  0  0  0  0
  186.4660  178.4130  141.4150 N   0  0  0  0  0  0  0  0  0  0  0  0
  191.7720  177.3730  140.3650 F   0  0  0  0  0  0  0  0  0  0  0  0
  184.5810  178.1690  138.9910 C   0  0  0  0  0  0  0  0  0  0  0  0
  185.2810  178.9000  141.2500 C   0  0  0  0  0  3  0  0  0  0  0  0
  185.5920  177.6640  138.2330 N   0  0  0  0  0  0  0  0  0  0  0  0
  189.9530  176.3590  142.0270 O   0  0  0  0  0  0  0  0  0  0  0  0
  185.3810  176.6320  137.3710 C   0  0  0  0  0  0  0  0  0  0  0  0
  184.8220  179.3320  139.8970 C   0  0  0  0  0  2  0  0  0  0  0  0
  187.5440  177.2950  145.3270 N   0  0  0  0  0  2  0  0  0  0  0  0
  188.3480  177.6340  146.4900 C   0  0  0  0  0  2  0  0  0  0  0  0
  186.3580  178.6010  147.3690 O   0  0  0  0  0  0  0  0  0  0  0  0
  187.8570  177.8320  148.9240 O   0  0  0  0  0  1  0  0  0  0  0  0
  187.4580  178.0380  147.6110 C   0  0  0  0  0  0  0  0  0  0  0  0
  1  7  2  0  0  0  0
  1 17  1  0  0  0  0
  2 24  2  0  0  0  0
  2 10  1  0  0  0  0
  3 26  1  0  0  0  0
  4 12  1  0  0  0  0
  4  5  1  0  0  0  0
  5 24  1  0  0  0  0
  6 23  2  0  0  0  0
  6 13  1  0  0  0  0
  7  8  1  0  0  0  0
  8  9  2  0  0  0  0
  9 16  1  0  0  0  0
 10 15  2  0  0  0  0
 11 13  2  0  0  0  0
 12  7  1  0  0  0  0
 13  3  1  0  0  0  0
 14  9  1  0  0  0  0
 14 19  1  0  0  0  0
 15 20  1  0  0  0  0
 16  6  1  0  0  0  0
 17 14  2  0  0  0  0
 18 11  1  0  0  0  0
 20 25  1  0  0  0  0
 21 18  2  0  0  0  0
 22 20  2  0  0  0  0
 24 22  1  0  0  0  0
 25 21  1  0  0  0  0
 26 27  1  0  0  0  0
 27 30  1  0  0  0  0
 28 30  2  0  0  0  0
 30 29  1  0  0  0  0
M  END
>  <MODEL>
4

>  <REMARK>
 VINA RESULT:      -7.6      0.975      1.176
  Name = 
  3 active torsions:
  status: ('A' for Active; 'I' for Inactive)
    1  A    between atoms: N_3  and  N_27
    2  A    between atoms: C_26  and  N_27
    3  A    between atoms: C_26  and  C_30
                            x       y       z     vdW  Elec       q    Type
                         _______ _______ _______ _____ _____    ______ ____

>  <TORSDO>
F 3

$$$$
=
 OpenBabel10232409203D

 30 32  0  0  0  0  0  0  0  0999 V2000
  191.9150  177.2870  141.6390 C   0  0  0  0  0  3  0  0  0  0  0  0
  188.3380  175.0220  136.4200 C   0  0  0  0  0  3  0  0  0  0  0  0
  184.4170  178.3890  142.8650 N   0  0  0  0  0  2  0  0  0  0  0  0
  191.2090  176.5470  138.0330 C   0  0  0  0  0  2  0  0  0  0  0  0
  190.1220  175.4810  138.1100 C   0  0  0  0  0  2  0  0  0  0  0  0
  186.8330  178.1890  142.2590 C   0  0  0  0  0  0  0  0  0  0  0  0
  191.2330  177.2100  140.4230 C   0  0  0  0  0  0  0  0  0  0  0  0
  189.9110  177.6570  140.3690 C   0  0  0  0  0  3  0  0  0  0  0  0
  189.2740  178.1370  141.5060 C   0  0  0  0  0  0  0  0  0  0  0  0
  187.2020  175.3860  135.7690 N   0  0  0  0  0  0  0  0  0  0  0  0
  185.0770  178.6010  140.6080 N   0  0  0  0  0  0  0  0  0  0  0  0
  191.8660  176.6760  139.2930 O   0  0  0  0  0  0  0  0  0  0  0  0
  185.4280  178.4200  141.8510 C   0  0  0  0  0  0  0  0  0  0  0  0
  189.9980  178.2120  142.7080 C   0  0  0  0  0  0  0  0  0  0  0  0
  186.6060  176.5830  136.0070 C   0  0  0  0  0  3  0  0  0  0  0  0
  187.9090  178.5420  141.3820 N   0  0  0  0  0  2  0  0  0  0  0  0
  191.2920  177.7890  142.7420 N   0  0  0  0  0  0  0  0  0  0  0  0
  185.9850  178.6080  139.5410 N   0  0  0  0  0  0  0  0  0  0  0  0
  189.4480  178.7520  143.8220 F   0  0  0  0  0  0  0  0  0  0  0  0
  187.1680  177.4570  136.9410 C   0  0  0  0  0  0  0  0  0  0  0  0
  185.5700  178.7450  138.3250 C   0  0  0  0  0  3  0  0  0  0  0  0
  188.3020  177.0890  137.5980 N   0  0  0  0  0  0  0  0  0  0  0  0
  187.0700  177.6410  143.3680 O   0  0  0  0  0  0  0  0  0  0  0  0
  188.9070  175.8960  137.3480 C   0  0  0  0  0  0  0  0  0  0  0  0
  186.5440  178.7900  137.1940 C   0  0  0  0  0  2  0  0  0  0  0  0
  183.0550  178.5400  142.5620 N   0  0  0  0  0  2  0  0  0  0  0  0
  182.4180  179.1450  143.7210 C   0  0  0  0  0  2  0  0  0  0  0  0
  180.2380  178.2000  143.8570 O   0  0  0  0  0  1  0  0  0  0  0  0
  180.3560  180.2880  142.9190 O   0  0  0  0  0  0  0  0  0  0  0  0
  180.9460  179.1840  143.5180 C   0  0  0  0  0  0  0  0  0  0  0  0
  1 17  1  0  0  0  0
  2 24  1  0  0  0  0
  4  5  1  0  0  0  0
  4 12  1  0  0  0  0
  6 23  2  0  0  0  0
  7  1  2  0  0  0  0
  8  7  1  0  0  0  0
  8  9  2  0  0  0  0
  9 14  1  0  0  0  0
 10 15  1  0  0  0  0
 10  2  2  0  0  0  0
 11 13  2  0  0  0  0
 12  7  1  0  0  0  0
 13  6  1  0  0  0  0
 13  3  1  0  0  0  0
 14 17  2  0  0  0  0
 14 19  1  0  0  0  0
 15 20  2  0  0  0  0
 16  9  1  0  0  0  0
 16  6  1  0  0  0  0
 18 11  1  0  0  0  0
 20 25  1  0  0  0  0
 20 22  1  0  0  0  0
 21 18  2  0  0  0  0
 24 22  2  0  0  0  0
 24  5  1  0  0  0  0
 25 21  1  0  0  0  0
 26  3  1  0  0  0  0
 26 27  1  0  0  0  0
 29 30  2  0  0  0  0
 30 27  1  0  0  0  0
 30 28  1  0  0  0  0
M  END
>  <MODEL>
5

>  <REMARK>
 VINA RESULT:      -7.1      2.636      3.730
  Name = 
  3 active torsions:
  status: ('A' for Active; 'I' for Inactive)
    1  A    between atoms: N_3  and  N_27
    2  A    between atoms: C_26  and  N_27
    3  A    between atoms: C_26  and  C_30
                            x       y       z     vdW  Elec       q    Type
                         _______ _______ _______ _____ _____    ______ ____

>  <TORSDO>
F 3

$$$$
=
 OpenBabel10232409203D

 30 32  0  0  0  0  0  0  0  0999 V2000
  184.4340  179.0460  139.4250 C   0  0  0  0  0  3  0  0  0  0  0  0
  187.6260  177.0000  144.9730 C   0  0  0  0  0  3  0  0  0  0  0  0
  190.6230  174.9000  137.5660 N   0  0  0  0  0  2  0  0  0  0  0  0
  185.6700  179.2950  142.9550 C   0  0  0  0  0  2  0  0  0  0  0  0
  185.9490  177.8420  143.3210 C   0  0  0  0  0  2  0  0  0  0  0  0
  188.7730  176.4190  138.2840 C   0  0  0  0  0  0  0  0  0  0  0  0
  185.2960  178.9860  140.5220 C   0  0  0  0  0  0  0  0  0  0  0  0
  186.6000  178.5290  140.3230 C   0  0  0  0  0  3  0  0  0  0  0  0
  187.0250  178.1090  139.0700 C   0  0  0  0  0  0  0  0  0  0  0  0
  188.9160  176.7950  145.3530 N   0  0  0  0  0  0  0  0  0  0  0  0
  190.8760  176.2090  139.5150 N   0  0  0  0  0  0  0  0  0  0  0  0
  184.8440  179.3630  141.7930 O   0  0  0  0  0  0  0  0  0  0  0  0
  190.1330  175.8730  138.4960 C   0  0  0  0  0  0  0  0  0  0  0  0
  186.1340  178.1970  137.9870 C   0  0  0  0  0  0  0  0  0  0  0  0
  189.9520  177.2200  144.5840 C   0  0  0  0  0  3  0  0  0  0  0  0
  188.3620  177.6180  138.9500 N   0  0  0  0  0  2  0  0  0  0  0  0
  184.8690  178.6620  138.1920 N   0  0  0  0  0  0  0  0  0  0  0  0
  190.4720  177.1220  140.4980 N   0  0  0  0  0  0  0  0  0  0  0  0
  186.5270  177.8800  136.7300 F   0  0  0  0  0  0  0  0  0  0  0  0
  189.6900  177.8770  143.3800 C   0  0  0  0  0  0  0  0  0  0  0  0
  191.2340  177.3780  141.5100 C   0  0  0  0  0  3  0  0  0  0  0  0
  188.3990  178.0760  142.9970 N   0  0  0  0  0  0  0  0  0  0  0  0
  187.9670  175.7930  137.5450 O   0  0  0  0  0  0  0  0  0  0  0  0
  187.3610  177.6640  143.7740 C   0  0  0  0  0  0  0  0  0  0  0  0
  190.8170  178.3790  142.5370 C   0  0  0  0  0  2  0  0  0  0  0  0
  191.8760  174.2870  137.7210 N   0  0  0  0  0  2  0  0  0  0  0  0
  192.4240  174.0810  136.3910 C   0  0  0  0  0  2  0  0  0  0  0  0
  194.1850  175.6810  136.4540 O   0  0  0  0  0  1  0  0  0  0  0  0
  192.5090  176.1110  134.9500 O   0  0  0  0  0  0  0  0  0  0  0  0
  193.0970  175.3230  135.9300 C   0  0  0  0  0  0  0  0  0  0  0  0
  1  7  1  0  0  0  0
  2 10  1  0  0  0  0
  3 26  1  0  0  0  0
  3 13  1  0  0  0  0
  4  5  1  0  0  0  0
  5 24  1  0  0  0  0
  6 13  1  0  0  0  0
  6 16  1  0  0  0  0
  7 12  1  0  0  0  0
  8  7  2  0  0  0  0
  9  8  1  0  0  0  0
 11 18  1  0  0  0  0
 12  4  1  0  0  0  0
 13 11  2  0  0  0  0
 14 17  1  0  0  0  0
 14  9  2  0  0  0  0
 15 10  2  0  0  0  0
 16  9  1  0  0  0  0
 17  1  2  0  0  0  0
 18 21  2  0  0  0  0
 19 14  1  0  0  0  0
 20 15  1  0  0  0  0
 21 25  1  0  0  0  0
 22 20  2  0  0  0  0
 22 24  1  0  0  0  0
 23  6  2  0  0  0  0
 24  2  2  0  0  0  0
 25 20  1  0  0  0  0
 27 26  1  0  0  0  0
 29 30  2  0  0  0  0
 30 27  1  0  0  0  0
 30 28  1  0  0  0  0
M  END
>  <MODEL>
6

>  <REMARK>
 VINA RESULT:      -7.1      2.788      7.966
  Name = 
  3 active torsions:
  status: ('A' for Active; 'I' for Inactive)
    1  A    between atoms: N_3  and  N_27
    2  A    between atoms: C_26  and  N_27
    3  A    between atoms: C_26  and  C_30
                            x       y       z     vdW  Elec       q    Type
                         _______ _______ _______ _____ _____    ______ ____

>  <TORSDO>
F 3

$$$$
=
 OpenBabel10232409203D

 30 32  0  0  0  0  0  0  0  0999 V2000
  188.5980  177.8610  137.0310 C   0  0  0  0  0  3  0  0  0  0  0  0
  182.4160  175.4630  138.1250 C   0  0  0  0  0  3  0  0  0  0  0  0
  187.1430  177.5720  144.5640 N   0  0  0  0  0  2  0  0  0  0  0  0
  184.9590  177.3130  136.3150 C   0  0  0  0  0  2  0  0  0  0  0  0
  184.6320  176.0750  137.1430 C   0  0  0  0  0  2  0  0  0  0  0  0
  187.4180  177.8350  142.0940 C   0  0  0  0  0  0  0  0  0  0  0  0
  187.2180  177.7700  137.2310 C   0  0  0  0  0  0  0  0  0  0  0  0
  186.7140  177.9900  138.5150 C   0  0  0  0  0  3  0  0  0  0  0  0
  187.5650  178.2590  139.5790 C   0  0  0  0  0  0  0  0  0  0  0  0
  181.4150  175.6810  139.0190 N   0  0  0  0  0  0  0  0  0  0  0  0
  185.2640  178.0780  143.2270 N   0  0  0  0  0  0  0  0  0  0  0  0
  186.3720  177.4470  136.1630 O   0  0  0  0  0  0  0  0  0  0  0  0
  186.5480  177.8570  143.2930 C   0  0  0  0  0  0  0  0  0  0  0  0
  188.9450  178.3560  139.3350 C   0  0  0  0  0  0  0  0  0  0  0  0
  181.4520  176.7370  139.8740 C   0  0  0  0  0  3  0  0  0  0  0  0
  186.9790  178.4360  140.8710 N   0  0  0  0  0  2  0  0  0  0  0  0
  189.4220  178.1570  138.0750 N   0  0  0  0  0  0  0  0  0  0  0  0
  184.5830  178.3280  142.0280 N   0  0  0  0  0  0  0  0  0  0  0  0
  189.8070  178.7010  140.3230 F   0  0  0  0  0  0  0  0  0  0  0  0
  182.5400  177.6120  139.8380 C   0  0  0  0  0  0  0  0  0  0  0  0
  183.3010  178.4920  142.0230 C   0  0  0  0  0  3  0  0  0  0  0  0
  183.5450  177.3890  138.9480 N   0  0  0  0  0  0  0  0  0  0  0  0
  188.5290  177.2450  142.1510 O   0  0  0  0  0  0  0  0  0  0  0  0
  183.5010  176.3400  138.0810 C   0  0  0  0  0  0  0  0  0  0  0  0
  182.5830  178.7950  140.7490 C   0  0  0  0  0  2  0  0  0  0  0  0
  186.3860  177.5140  145.7440 N   0  0  0  0  0  2  0  0  0  0  0  0
  187.1120  178.2560  146.7610 C   0  0  0  0  0  2  0  0  0  0  0  0
  188.2260  176.5640  148.0100 O   0  0  0  0  0  1  0  0  0  0  0  0
  189.5640  177.8320  146.6480 O   0  0  0  0  0  0  0  0  0  0  0  0
  188.3220  177.4940  147.1680 C   0  0  0  0  0  0  0  0  0  0  0  0
  1  7  2  0  0  0  0
  1 17  1  0  0  0  0
  2 10  1  0  0  0  0
  3 26  1  0  0  0  0
  4  5  1  0  0  0  0
  5 24  1  0  0  0  0
  6 23  2  0  0  0  0
  6 13  1  0  0  0  0
  7  8  1  0  0  0  0
  8  9  2  0  0  0  0
  9 16  1  0  0  0  0
 10 15  2  0  0  0  0
 11 13  2  0  0  0  0
 12  4  1  0  0  0  0
 12  7  1  0  0  0  0
 13  3  1  0  0  0  0
 14  9  1  0  0  0  0
 14 19  1  0  0  0  0
 16  6  1  0  0  0  0
 17 14  2  0  0  0  0
 18 11  1  0  0  0  0
 20 15  1  0  0  0  0
 20 25  1  0  0  0  0
 21 18  2  0  0  0  0
 22 20  2  0  0  0  0
 24  2  2  0  0  0  0
 24 22  1  0  0  0  0
 25 21  1  0  0  0  0
 26 27  1  0  0  0  0
 27 30  1  0  0  0  0
 29 30  2  0  0  0  0
 30 28  1  0  0  0  0
M  END
>  <MODEL>
7

>  <REMARK>
 VINA RESULT:      -7.0      2.003      2.417
  Name = 
  3 active torsions:
  status: ('A' for Active; 'I' for Inactive)
    1  A    between atoms: N_3  and  N_27
    2  A    between atoms: C_26  and  N_27
    3  A    between atoms: C_26  and  C_30
                            x       y       z     vdW  Elec       q    Type
                         _______ _______ _______ _____ _____    ______ ____

>  <TORSDO>
F 3

$$$$
=
 OpenBabel10232409203D

 30 32  0  0  0  0  0  0  0  0999 V2000
  193.3140  175.5490  137.7380 C   0  0  0  0  0  3  0  0  0  0  0  0
  187.4810  173.5370  135.0750 C   0  0  0  0  0  3  0  0  0  0  0  0
  187.4250  178.6810  141.5390 N   0  0  0  0  0  2  0  0  0  0  0  0
  190.9790  174.5000  134.9990 C   0  0  0  0  0  2  0  0  0  0  0  0
  189.8760  173.7670  135.7540 C   0  0  0  0  0  2  0  0  0  0  0  0
  189.2560  177.7900  140.0910 C   0  0  0  0  0  0  0  0  0  0  0  0
  192.1640  175.4730  136.9490 C   0  0  0  0  0  0  0  0  0  0  0  0
  191.0490  176.2280  137.3200 C   0  0  0  0  0  3  0  0  0  0  0  0
  191.0680  177.0120  138.4660 C   0  0  0  0  0  0  0  0  0  0  0  0
  186.2530  174.0790  134.8620 N   0  0  0  0  0  0  0  0  0  0  0  0
  187.0480  178.3900  139.2270 N   0  0  0  0  0  0  0  0  0  0  0  0
  192.1350  174.6390  135.8240 O   0  0  0  0  0  0  0  0  0  0  0  0
  187.8750  178.3070  140.2320 C   0  0  0  0  0  0  0  0  0  0  0  0
  192.2480  177.0740  139.2250 C   0  0  0  0  0  0  0  0  0  0  0  0
  186.0320  175.4100  135.0240 C   0  0  0  0  0  3  0  0  0  0  0  0
  189.8770  177.7280  138.8020 N   0  0  0  0  0  2  0  0  0  0  0  0
  193.3340  176.3460  138.8420 N   0  0  0  0  0  0  0  0  0  0  0  0
  187.3810  178.0140  137.9190 N   0  0  0  0  0  0  0  0  0  0  0  0
  192.3440  177.8910  140.3030 F   0  0  0  0  0  0  0  0  0  0  0  0
  187.0860  176.2380  135.4200 C   0  0  0  0  0  0  0  0  0  0  0  0
  186.5020  178.0740  136.9740 C   0  0  0  0  0  3  0  0  0  0  0  0
  188.3140  175.6930  135.6400 N   0  0  0  0  0  0  0  0  0  0  0  0
  189.8610  177.3650  141.1100 O   0  0  0  0  0  0  0  0  0  0  0  0
  188.5380  174.3620  135.4630 C   0  0  0  0  0  0  0  0  0  0  0  0
  186.8700  177.7070  135.5740 C   0  0  0  0  0  2  0  0  0  0  0  0
  186.1150  179.1260  141.7760 N   0  0  0  0  0  2  0  0  0  0  0  0
  185.4640  178.1310  142.6120 C   0  0  0  0  0  2  0  0  0  0  0  0
  185.5370  178.1520  144.9900 O   0  0  0  0  0  1  0  0  0  0  0  0
  184.3900  179.8820  144.0200 O   0  0  0  0  0  0  0  0  0  0  0  0
  185.1480  178.7220  143.9380 C   0  0  0  0  0  0  0  0  0  0  0  0
  1 17  1  0  0  0  0
  2 24  1  0  0  0  0
  3 26  1  0  0  0  0
  4  5  1  0  0  0  0
  4 12  1  0  0  0  0
  6 13  1  0  0  0  0
  6 23  2  0  0  0  0
  7  8  1  0  0  0  0
  7  1  2  0  0  0  0
  8  9  2  0  0  0  0
  9 16  1  0  0  0  0
  9 14  1  0  0  0  0
 10 15  1  0  0  0  0
 10  2  2  0  0  0  0
 11 13  2  0  0  0  0
 12  7  1  0  0  0  0
 13  3  1  0  0  0  0
 14 19  1  0  0  0  0
 15 20  2  0  0  0  0
 16  6  1  0  0  0  0
 17 14  2  0  0  0  0
 18 11  1  0  0  0  0
 20 25  1  0  0  0  0
 20 22  1  0  0  0  0
 21 18  2  0  0  0  0
 24 22  2  0  0  0  0
 24  5  1  0  0  0  0
 25 21  1  0  0  0  0
 26 27  1  0  0  0  0
 27 30  1  0  0  0  0
 30 29  2  0  0  0  0
 30 28  1  0  0  0  0
M  END
>  <MODEL>
8

>  <REMARK>
 VINA RESULT:      -6.8      2.400      3.521
  Name = 
  3 active torsions:
  status: ('A' for Active; 'I' for Inactive)
    1  A    between atoms: N_3  and  N_27
    2  A    between atoms: C_26  and  N_27
    3  A    between atoms: C_26  and  C_30
                            x       y       z     vdW  Elec       q    Type
                         _______ _______ _______ _____ _____    ______ ____

>  <TORSDO>
F 3

$$$$
=
 OpenBabel10232409203D

 30 32  0  0  0  0  0  0  0  0999 V2000
  189.2430  177.0420  137.1470 C   0  0  0  0  0  3  0  0  0  0  0  0
  182.9540  174.6810  136.9700 C   0  0  0  0  0  3  0  0  0  0  0  0
  185.3760  179.2860  143.3870 N   0  0  0  0  0  2  0  0  0  0  0  0
  186.0250  175.9830  135.5430 C   0  0  0  0  0  2  0  0  0  0  0  0
  185.3930  175.0900  136.6040 C   0  0  0  0  0  2  0  0  0  0  0  0
  186.4600  178.6900  141.2160 C   0  0  0  0  0  0  0  0  0  0  0  0
  187.8730  176.9140  136.9100 C   0  0  0  0  0  0  0  0  0  0  0  0
  186.9830  177.5260  137.7950 C   0  0  0  0  0  3  0  0  0  0  0  0
  187.4450  178.2190  138.9070 C   0  0  0  0  0  0  0  0  0  0  0  0
  181.7240  175.1150  137.3540 N   0  0  0  0  0  0  0  0  0  0  0  0
  184.0650  179.1370  141.4300 N   0  0  0  0  0  0  0  0  0  0  0  0
  187.4130  176.1700  135.8160 O   0  0  0  0  0  0  0  0  0  0  0  0
  185.2450  179.0590  141.9790 C   0  0  0  0  0  0  0  0  0  0  0  0
  188.8310  178.3380  139.1030 C   0  0  0  0  0  0  0  0  0  0  0  0
  181.5200  176.4020  137.7390 C   0  0  0  0  0  3  0  0  0  0  0  0
  186.4740  178.7880  139.7880 N   0  0  0  0  0  2  0  0  0  0  0  0
  189.6890  177.7500  138.2220 N   0  0  0  0  0  0  0  0  0  0  0  0
  183.8280  178.8960  140.0700 N   0  0  0  0  0  0  0  0  0  0  0  0
  189.3320  179.0750  140.1240 F   0  0  0  0  0  0  0  0  0  0  0  0
  182.5940  177.2960  137.7460 C   0  0  0  0  0  0  0  0  0  0  0  0
  182.6280  178.9420  139.5940 C   0  0  0  0  0  3  0  0  0  0  0  0
  183.8270  176.8580  137.3690 N   0  0  0  0  0  0  0  0  0  0  0  0
  187.4650  178.2500  141.8340 O   0  0  0  0  0  0  0  0  0  0  0  0
  184.0280  175.5730  136.9680 C   0  0  0  0  0  0  0  0  0  0  0  0
  182.3830  178.7210  138.1370 C   0  0  0  0  0  2  0  0  0  0  0  0
  184.2700  179.5820  144.1990 N   0  0  0  0  0  2  0  0  0  0  0  0
  184.2070  178.5640  145.2350 C   0  0  0  0  0  2  0  0  0  0  0  0
  185.6050  179.5400  146.8950 O   0  0  0  0  0  1  0  0  0  0  0  0
  186.4370  177.6600  145.8800 O   0  0  0  0  0  0  0  0  0  0  0  0
  185.4430  178.6130  146.0590 C   0  0  0  0  0  0  0  0  0  0  0  0
  1 17  1  0  0  0  0
  2 10  1  0  0  0  0
  3 26  1  0  0  0  0
  4 12  1  0  0  0  0
  4  5  1  0  0  0  0
  5 24  1  0  0  0  0
  6 23  2  0  0  0  0
  6 13  1  0  0  0  0
  7  1  2  0  0  0  0
  7  8  1  0  0  0  0
  8  9  2  0  0  0  0
  9 14  1  0  0  0  0
  9 16  1  0  0  0  0
 10 15  2  0  0  0  0
 11 13  2  0  0  0  0
 12  7  1  0  0  0  0
 13  3  1  0  0  0  0
 14 19  1  0  0  0  0
 15 20  1  0  0  0  0
 16  6  1  0  0  0  0
 17 14  2  0  0  0  0
 18 11  1  0  0  0  0
 20 25  1  0  0  0  0
 21 18  2  0  0  0  0
 22 20  2  0  0  0  0
 24  2  2  0  0  0  0
 24 22  1  0  0  0  0
 25 21  1  0  0  0  0
 26 27  1  0  0  0  0
 27 30  1  0  0  0  0
 29 30  2  0  0  0  0
 30 28  1  0  0  0  0
M  END
>  <MODEL>
9

>  <REMARK>
 VINA RESULT:      -6.7      1.923      2.413
  Name = 
  3 active torsions:
  status: ('A' for Active; 'I' for Inactive)
    1  A    between atoms: N_3  and  N_27
    2  A    between atoms: C_26  and  N_27
    3  A    between atoms: C_26  and  C_30
                            x       y       z     vdW  Elec       q    Type
                         _______ _______ _______ _____ _____    ______ ____

>  <TORSDO>
F 3

$$$$
