=
 OpenBabel10232412343D

 34 39  0  0  1  0  0  0  0  0999 V2000
  190.3700  172.2750  134.4860 C   0  0  0  0  0  2  0  0  0  0  0  0
  190.5350  175.2840  138.8370 N   0  0  0  0  0  2  0  0  0  0  0  0
  192.6470  172.8330  135.2440 C   0  0  0  0  0  0  0  0  0  0  0  0
  189.0310  174.8700  135.4990 N   0  0  0  0  0  2  0  0  0  0  0  0
  194.3040  174.0830  134.5680 N   0  0  0  0  0  0  0  0  0  0  0  0
  188.4310  175.2410  136.7710 C   0  0  1  0  0  3  0  0  0  0  0  0
  189.2440  172.4420  135.4910 C   0  0  0  0  0  2  0  0  0  0  0  0
  185.9900  173.5850  134.9540 O   0  0  0  0  0  1  0  0  0  0  0  0
  193.7350  174.7250  135.6040 C   0  0  0  0  0  0  0  0  0  0  0  0
  188.5590  176.7110  137.0280 C   0  0  0  0  0  0  0  0  0  0  0  0
  193.6460  172.9530  134.3460 N   0  0  0  0  0  0  0  0  0  0  0  0
  186.9990  174.7730  136.7410 C   0  0  0  0  0  2  0  0  0  0  0  0
  191.7310  174.1650  137.1040 C   0  0  0  0  0  3  0  0  0  0  0  0
  191.6250  175.2940  137.9060 C   0  0  0  0  0  0  0  0  0  0  0  0
  188.2720  178.9940  136.5680 C   0  0  0  0  0  3  0  0  0  0  0  0
  193.5510  176.7250  137.0400 C   0  0  0  0  0  3  0  0  0  0  0  0
  189.1080  178.9140  138.0250 S   0  0  0  0  0  0  0  0  0  0  0  0
  187.0470  173.5480  135.8600 C   0  0  2  0  0  3  0  0  0  0  0  0
  194.1410  175.9730  136.0330 C   0  0  0  0  0  3  0  0  0  0  0  0
  191.6150  171.7520  135.1840 C   0  0  0  0  0  2  0  0  0  0  0  0
  188.0470  177.6840  136.1530 C   0  0  0  0  0  3  0  0  0  0  0  0
  188.3690  173.6280  135.1110 C   0  0  1  0  0  3  0  0  0  0  0  0
  189.2150  177.2400  138.1400 C   0  0  0  0  0  0  0  0  0  0  0  0
  192.6370  173.9220  136.0890 C   0  0  0  0  0  0  0  0  0  0  0  0
  189.7950  176.4570  139.2990 C   0  0  2  0  0  3  0  0  0  0  0  0
  192.4490  176.4260  137.8430 C   0  0  0  0  0  3  0  0  0  0  0  0
  190.7970  177.4520  140.4370 S   0  0  0  0  0  0  0  0  0  0  0  0
  188.6260  177.0560  141.8890 N   0  0  0  0  0  1  0  0  0  0  0  0
  189.9720  177.5410  141.8310 C   0  0  2  0  0  3  0  0  0  0  0  0
  190.4760  178.3810  142.8900 N   0  0  0  0  0  0  0  0  0  0  0  0
  191.2390  177.6520  143.9480 C   0  0  1  0  0  3  0  0  0  0  0  0
  189.8350  177.9820  144.1570 C   0  0  0  0  0  2  0  0  0  0  0  0
  191.3700  176.1390  143.7610 C   0  0  0  0  0  2  0  0  0  0  0  0
  191.8410  175.5080  145.0550 C   0  0  0  0  0  1  0  0  0  0  0  0
  1 20  1  0  0  0  0
  1  7  1  0  0  0  0
  2 25  1  0  0  0  0
  3 24  1  0  0  0  0
  4  6  1  0  0  0  0
  5  9  2  0  0  0  0
  6 12  1  6  0  0  0
  6 10  1  0  0  0  0
  9 19  1  0  0  0  0
  9 24  1  0  0  0  0
 10 23  2  0  0  0  0
 11  5  1  0  0  0  0
 11  3  2  0  0  0  0
 13 14  1  0  0  0  0
 14  2  1  0  0  0  0
 15 17  1  0  0  0  0
 16 26  1  0  0  0  0
 17 23  1  0  0  0  0
 18  8  1  6  0  0  0
 18 12  1  0  0  0  0
 19 16  2  0  0  0  0
 20  3  1  0  0  0  0
 21 15  2  0  0  0  0
 21 10  1  0  0  0  0
 22  7  1  1  0  0  0
 22  4  1  0  0  0  0
 22 18  1  0  0  0  0
 23 25  1  0  0  0  0
 24 13  2  0  0  0  0
 25 27  1  6  0  0  0
 26 14  2  0  0  0  0
 27 29  1  0  0  0  0
 29 28  1  6  0  0  0
 29 30  1  0  0  0  0
 30 31  1  0  0  0  0
 30 32  1  0  0  0  0
 31 33  1  6  0  0  0
 31 32  1  0  0  0  0
 33 34  1  0  0  0  0
M  END
>  <MODEL>
1

>  <REMARK>
 VINA RESULT:      -6.2      0.000      0.000
  Name = 
  3 active torsions:
  status: ('A' for Active; 'I' for Inactive)
    1  A    between atoms: N_3  and  C_29
    2  A    between atoms: C_6  and  C_16
    3  A    between atoms: S_13  and  C_32
                            x       y       z     vdW  Elec       q    Type
                         _______ _______ _______ _____ _____    ______ ____

>  <TORSDO>
F 3

$$$$
=
 OpenBabel10232412343D

 34 39  0  0  1  0  0  0  0  0999 V2000
  185.1010  178.4130  139.4520 C   0  0  0  0  0  2  0  0  0  0  0  0
  190.1440  177.6350  138.0440 N   0  0  0  0  0  2  0  0  0  0  0  0
  186.7160  178.6620  141.2960 C   0  0  0  0  0  0  0  0  0  0  0  0
  186.7140  176.3000  137.8730 N   0  0  0  0  0  2  0  0  0  0  0  0
  187.2700  177.5720  143.1050 N   0  0  0  0  0  0  0  0  0  0  0  0
  187.7430  176.4050  136.8520 C   0  0  1  0  0  3  0  0  0  0  0  0
  185.6480  178.4860  138.0370 C   0  0  0  0  0  2  0  0  0  0  0  0
  184.6920  176.6460  135.2300 O   0  0  0  0  0  1  0  0  0  0  0  0
  188.2410  177.3410  142.2030 C   0  0  0  0  0  0  0  0  0  0  0  0
  188.6790  175.2360  136.8980 C   0  0  0  0  0  0  0  0  0  0  0  0
  186.3510  178.3570  142.5580 N   0  0  0  0  0  0  0  0  0  0  0  0
  187.0430  176.5420  135.5250 C   0  0  0  0  0  2  0  0  0  0  0  0
  188.5770  178.1080  139.7770 C   0  0  0  0  0  3  0  0  0  0  0  0
  189.7300  177.4300  139.4010 C   0  0  0  0  0  0  0  0  0  0  0  0
  189.2680  172.9650  136.8360 C   0  0  0  0  0  3  0  0  0  0  0  0
  190.2970  176.1490  141.5320 C   0  0  0  0  0  3  0  0  0  0  0  0
  190.7020  173.8120  137.0730 S   0  0  0  0  0  0  0  0  0  0  0  0
  185.7620  177.2600  135.8770 C   0  0  2  0  0  3  0  0  0  0  0  0
  189.3060  176.4940  142.4410 C   0  0  0  0  0  3  0  0  0  0  0  0
  185.8340  179.4030  140.3430 C   0  0  0  0  0  2  0  0  0  0  0  0
  188.2460  173.9070  136.7610 C   0  0  0  0  0  3  0  0  0  0  0  0
  185.6040  177.1130  137.3830 C   0  0  1  0  0  3  0  0  0  0  0  0
  190.0540  175.3630  137.1050 C   0  0  0  0  0  0  0  0  0  0  0  0
  187.9170  178.0560  140.9910 C   0  0  0  0  0  0  0  0  0  0  0  0
  190.8320  176.6570  137.2030 C   0  0  2  0  0  3  0  0  0  0  0  0
  190.4680  176.5530  140.2070 C   0  0  0  0  0  3  0  0  0  0  0  0
  192.5560  176.4460  137.7290 S   0  0  0  0  0  0  0  0  0  0  0  0
  192.6860  175.6180  135.2240 N   0  0  0  0  0  1  0  0  0  0  0  0
  193.3880  175.9710  136.4210 C   0  0  2  0  0  3  0  0  0  0  0  0
  194.7760  175.6050  136.5700 N   0  0  0  0  0  0  0  0  0  0  0  0
  195.7190  176.4000  135.7260 C   0  0  1  0  0  3  0  0  0  0  0  0
  195.2710  175.0870  135.2810 C   0  0  0  0  0  2  0  0  0  0  0  0
  195.0860  177.4680  134.8340 C   0  0  0  0  0  2  0  0  0  0  0  0
  196.0730  178.5970  134.6160 C   0  0  0  0  0  1  0  0  0  0  0  0
  1 20  1  0  0  0  0
  2 14  1  0  0  0  0
  3 11  1  0  0  0  0
  6 12  1  6  0  0  0
  6 10  1  0  0  0  0
  6  4  1  0  0  0  0
  7  1  1  0  0  0  0
  9 19  2  0  0  0  0
  9  5  1  0  0  0  0
 10 23  2  0  0  0  0
 11  5  2  0  0  0  0
 12 18  1  0  0  0  0
 13 24  1  0  0  0  0
 14 13  2  0  0  0  0
 14 26  1  0  0  0  0
 15 17  1  0  0  0  0
 16 19  1  0  0  0  0
 17 23  1  0  0  0  0
 18  8  1  6  0  0  0
 18 22  1  0  0  0  0
 20  3  1  0  0  0  0
 21 15  2  0  0  0  0
 21 10  1  0  0  0  0
 22  4  1  0  0  0  0
 22  7  1  1  0  0  0
 23 25  1  0  0  0  0
 24  3  2  0  0  0  0
 24  9  1  0  0  0  0
 25 27  1  1  0  0  0
 25  2  1  0  0  0  0
 26 16  2  0  0  0  0
 29 28  1  1  0  0  0
 29 30  1  0  0  0  0
 29 27  1  0  0  0  0
 31 33  1  6  0  0  0
 31 30  1  0  0  0  0
 32 31  1  0  0  0  0
 32 30  1  0  0  0  0
 34 33  1  0  0  0  0
M  END
>  <MODEL>
2

>  <REMARK>
 VINA RESULT:      -5.3      2.533      7.155
  Name = 
  3 active torsions:
  status: ('A' for Active; 'I' for Inactive)
    1  A    between atoms: N_3  and  C_29
    2  A    between atoms: C_6  and  C_16
    3  A    between atoms: S_13  and  C_32
                            x       y       z     vdW  Elec       q    Type
                         _______ _______ _______ _____ _____    ______ ____

>  <TORSDO>
F 3

$$$$
=
 OpenBabel10232412343D

 34 39  0  0  1  0  0  0  0  0999 V2000
  184.7970  178.4510  139.7420 C   0  0  0  0  0  2  0  0  0  0  0  0
  189.7480  177.6690  138.0410 N   0  0  0  0  0  2  0  0  0  0  0  0
  186.5170  178.7040  141.4870 C   0  0  0  0  0  0  0  0  0  0  0  0
  186.3140  176.3340  138.0760 N   0  0  0  0  0  2  0  0  0  0  0  0
  187.1770  177.6180  143.2620 N   0  0  0  0  0  0  0  0  0  0  0  0
  187.2820  176.4360  136.9950 C   0  0  1  0  0  3  0  0  0  0  0  0
  185.2590  178.5200  138.2970 C   0  0  0  0  0  2  0  0  0  0  0  0
  184.1400  176.6730  135.5550 O   0  0  0  0  0  1  0  0  0  0  0  0
  188.0930  177.3850  142.3050 C   0  0  0  0  0  0  0  0  0  0  0  0
  188.2190  175.2670  136.9890 C   0  0  0  0  0  0  0  0  0  0  0  0
  186.2270  178.4020  142.7690 N   0  0  0  0  0  0  0  0  0  0  0  0
  186.5040  176.5700  135.7120 C   0  0  0  0  0  2  0  0  0  0  0  0
  188.2860  178.1460  139.8630 C   0  0  0  0  0  3  0  0  0  0  0  0
  189.4150  177.4680  139.4200 C   0  0  0  0  0  0  0  0  0  0  0  0
  188.8040  172.9970  136.8980 C   0  0  0  0  0  3  0  0  0  0  0  0
  190.1070  176.1910  141.5170 C   0  0  0  0  0  3  0  0  0  0  0  0
  190.2490  173.8440  137.0480 S   0  0  0  0  0  0  0  0  0  0  0  0
  185.2460  177.2890  136.1370 C   0  0  2  0  0  3  0  0  0  0  0  0
  189.1700  176.5380  142.4820 C   0  0  0  0  0  3  0  0  0  0  0  0
  185.5810  179.4420  140.5850 C   0  0  0  0  0  2  0  0  0  0  0  0
  187.7780  173.9380  136.8800 C   0  0  0  0  0  3  0  0  0  0  0  0
  185.1770  177.1460  137.6490 C   0  0  1  0  0  3  0  0  0  0  0  0
  189.6030  175.3950  137.1140 C   0  0  0  0  0  0  0  0  0  0  0  0
  187.6980  178.0970  141.1130 C   0  0  0  0  0  0  0  0  0  0  0  0
  190.3860  176.6890  137.1640 C   0  0  2  0  0  3  0  0  0  0  0  0
  190.1990  176.5920  140.1840 C   0  0  0  0  0  3  0  0  0  0  0  0
  192.1370  176.4800  137.5870 S   0  0  0  0  0  0  0  0  0  0  0  0
  192.2100  176.1630  134.9660 N   0  0  0  0  0  1  0  0  0  0  0  0
  192.9400  176.3160  136.1870 C   0  0  2  0  0  3  0  0  0  0  0  0
  194.3500  176.0090  136.2210 N   0  0  0  0  0  0  0  0  0  0  0  0
  194.6800  174.5830  135.9240 C   0  0  1  0  0  3  0  0  0  0  0  0
  194.5990  175.0410  137.3050 C   0  0  0  0  0  2  0  0  0  0  0  0
  193.4920  173.6630  135.6370 C   0  0  0  0  0  2  0  0  0  0  0  0
  193.7590  172.2920  136.2210 C   0  0  0  0  0  1  0  0  0  0  0  0
  1 20  1  0  0  0  0
  2 14  1  0  0  0  0
  3 11  1  0  0  0  0
  6 12  1  6  0  0  0
  6  4  1  0  0  0  0
  7  1  1  0  0  0  0
  9 19  2  0  0  0  0
  9  5  1  0  0  0  0
 10  6  1  0  0  0  0
 10 23  2  0  0  0  0
 11  5  2  0  0  0  0
 12 18  1  0  0  0  0
 13 24  1  0  0  0  0
 14 13  2  0  0  0  0
 14 26  1  0  0  0  0
 15 17  1  0  0  0  0
 16 19  1  0  0  0  0
 17 23  1  0  0  0  0
 18  8  1  6  0  0  0
 18 22  1  0  0  0  0
 20  3  1  0  0  0  0
 21 15  2  0  0  0  0
 21 10  1  0  0  0  0
 22  4  1  0  0  0  0
 22  7  1  1  0  0  0
 23 25  1  0  0  0  0
 24  3  2  0  0  0  0
 24  9  1  0  0  0  0
 25 27  1  1  0  0  0
 25  2  1  0  0  0  0
 26 16  2  0  0  0  0
 29 28  1  6  0  0  0
 29 30  1  0  0  0  0
 29 27  1  0  0  0  0
 30 32  1  0  0  0  0
 31 33  1  1  0  0  0
 31 30  1  0  0  0  0
 31 32  1  0  0  0  0
 33 34  1  0  0  0  0
M  END
>  <MODEL>
3

>  <REMARK>
 VINA RESULT:      -5.2      2.613      7.047
  Name = 
  3 active torsions:
  status: ('A' for Active; 'I' for Inactive)
    1  A    between atoms: N_3  and  C_29
    2  A    between atoms: C_6  and  C_16
    3  A    between atoms: S_13  and  C_32
                            x       y       z     vdW  Elec       q    Type
                         _______ _______ _______ _____ _____    ______ ____

>  <TORSDO>
F 3

$$$$
=
 OpenBabel10232412343D

 34 39  0  0  1  0  0  0  0  0999 V2000
  184.8670  179.1630  141.5130 C   0  0  0  0  0  2  0  0  0  0  0  0
  184.4820  175.3780  137.8320 N   0  0  0  0  0  2  0  0  0  0  0  0
  182.5530  178.5760  140.9040 C   0  0  0  0  0  0  0  0  0  0  0  0
  186.1090  178.5550  138.7470 N   0  0  0  0  0  2  0  0  0  0  0  0
  180.8900  179.4980  139.8310 N   0  0  0  0  0  0  0  0  0  0  0  0
  186.6560  177.3450  138.1550 C   0  0  1  0  0  3  0  0  0  0  0  0
  185.9530  178.1660  141.1480 C   0  0  0  0  0  2  0  0  0  0  0  0
  189.1960  178.7890  140.0160 O   0  0  0  0  0  1  0  0  0  0  0  0
  181.4080  178.5670  139.0110 C   0  0  0  0  0  0  0  0  0  0  0  0
  186.4840  177.3390  136.6670 C   0  0  0  0  0  0  0  0  0  0  0  0
  181.5830  179.5100  140.9630 N   0  0  0  0  0  0  0  0  0  0  0  0
  188.0990  177.2540  138.5790 C   0  0  0  0  0  2  0  0  0  0  0  0
  183.3730  176.9360  139.2570 C   0  0  0  0  0  3  0  0  0  0  0  0
  183.4240  176.3290  138.0080 C   0  0  0  0  0  0  0  0  0  0  0  0
  186.7330  178.1630  134.4830 C   0  0  0  0  0  3  0  0  0  0  0  0
  181.4960  177.4770  136.7960 C   0  0  0  0  0  3  0  0  0  0  0  0
  185.8490  176.7380  134.3460 S   0  0  0  0  0  0  0  0  0  0  0  0
  188.1100  177.9210  139.9340 C   0  0  2  0  0  3  0  0  0  0  0  0
  180.9580  178.3620  137.7210 C   0  0  0  0  0  3  0  0  0  0  0  0
  183.6120  178.4250  141.9480 C   0  0  0  0  0  2  0  0  0  0  0  0
  187.0020  178.3470  135.8360 C   0  0  0  0  0  3  0  0  0  0  0  0
  186.8130  178.7110  140.0170 C   0  0  1  0  0  3  0  0  0  0  0  0
  185.7780  176.3500  135.9810 C   0  0  0  0  0  0  0  0  0  0  0  0
  182.5080  177.9230  139.6900 C   0  0  0  0  0  0  0  0  0  0  0  0
  185.1780  175.0950  136.5780 C   0  0  2  0  0  3  0  0  0  0  0  0
  182.5760  176.6030  136.9260 C   0  0  0  0  0  3  0  0  0  0  0  0
  184.1150  174.1680  135.4380 S   0  0  0  0  0  0  0  0  0  0  0  0
  185.1470  172.2070  136.8760 N   0  0  0  0  0  1  0  0  0  0  0  0
  184.1920  172.6120  135.8890 C   0  0  2  0  0  3  0  0  0  0  0  0
  183.5350  171.6150  135.0780 N   0  0  0  0  0  0  0  0  0  0  0  0
  182.2420  171.1170  135.6360 C   0  0  1  0  0  3  0  0  0  0  0  0
  183.4670  170.3540  135.8400 C   0  0  0  0  0  2  0  0  0  0  0  0
  181.8080  171.7230  136.9720 C   0  0  0  0  0  2  0  0  0  0  0  0
  180.2990  171.6630  137.0890 C   0  0  0  0  0  1  0  0  0  0  0  0
  1 20  1  0  0  0  0
  2 14  1  0  0  0  0
  3 11  1  0  0  0  0
  3 20  1  0  0  0  0
  4 22  1  0  0  0  0
  5 11  2  0  0  0  0
  6 12  1  6  0  0  0
  6  4  1  0  0  0  0
  7  1  1  0  0  0  0
  9 24  1  0  0  0  0
  9  5  1  0  0  0  0
 10  6  1  0  0  0  0
 12 18  1  0  0  0  0
 13 24  1  0  0  0  0
 14 13  2  0  0  0  0
 15 21  2  0  0  0  0
 16 26  2  0  0  0  0
 16 19  1  0  0  0  0
 17 15  1  0  0  0  0
 17 23  1  0  0  0  0
 18  8  1  6  0  0  0
 18 22  1  0  0  0  0
 19  9  2  0  0  0  0
 21 10  1  0  0  0  0
 22  7  1  1  0  0  0
 23 25  1  0  0  0  0
 23 10  2  0  0  0  0
 24  3  2  0  0  0  0
 25 27  1  6  0  0  0
 25  2  1  0  0  0  0
 26 14  1  0  0  0  0
 27 29  1  0  0  0  0
 29 28  1  6  0  0  0
 30 31  1  0  0  0  0
 30 32  1  0  0  0  0
 30 29  1  0  0  0  0
 31 32  1  0  0  0  0
 31 33  1  1  0  0  0
 33 34  1  0  0  0  0
M  END
>  <MODEL>
4

>  <REMARK>
 VINA RESULT:      -5.1      5.426      9.899
  Name = 
  3 active torsions:
  status: ('A' for Active; 'I' for Inactive)
    1  A    between atoms: N_3  and  C_29
    2  A    between atoms: C_6  and  C_16
    3  A    between atoms: S_13  and  C_32
                            x       y       z     vdW  Elec       q    Type
                         _______ _______ _______ _____ _____    ______ ____

>  <TORSDO>
F 3

$$$$
=
 OpenBabel10232412343D

 34 39  0  0  1  0  0  0  0  0999 V2000
  184.1570  179.1630  140.6420 C   0  0  0  0  0  2  0  0  0  0  0  0
  185.5060  175.2290  137.3680 N   0  0  0  0  0  2  0  0  0  0  0  0
  182.3460  178.4300  139.1430 C   0  0  0  0  0  0  0  0  0  0  0  0
  186.4800  178.5210  138.7060 N   0  0  0  0  0  2  0  0  0  0  0  0
  181.2700  179.2210  137.4150 N   0  0  0  0  0  0  0  0  0  0  0  0
  187.2670  177.3210  138.4710 C   0  0  1  0  0  3  0  0  0  0  0  0
  185.3280  178.2140  140.8310 C   0  0  0  0  0  2  0  0  0  0  0  0
  188.7210  178.9680  141.1490 O   0  0  0  0  0  1  0  0  0  0  0  0
  182.1190  178.2890  136.9470 C   0  0  0  0  0  0  0  0  0  0  0  0
  187.7480  177.2510  137.0540 C   0  0  0  0  0  0  0  0  0  0  0  0
  181.4130  179.3120  138.7310 N   0  0  0  0  0  0  0  0  0  0  0  0
  188.3930  177.3240  139.4720 C   0  0  0  0  0  2  0  0  0  0  0  0
  183.8440  176.7760  138.0960 C   0  0  0  0  0  3  0  0  0  0  0  0
  184.4430  176.1280  137.0230 C   0  0  0  0  0  0  0  0  0  0  0  0
  188.8770  178.0050  135.1400 C   0  0  0  0  0  3  0  0  0  0  0  0
  183.1790  177.1240  135.0440 C   0  0  0  0  0  3  0  0  0  0  0  0
  188.1840  176.5300  134.7210 S   0  0  0  0  0  0  0  0  0  0  0  0
  187.8030  178.0410  140.6630 C   0  0  2  0  0  3  0  0  0  0  0  0
  182.2700  178.0130  135.6020 C   0  0  0  0  0  3  0  0  0  0  0  0
  182.8620  178.3750  140.5450 C   0  0  0  0  0  2  0  0  0  0  0  0
  188.5370  178.2540  136.4660 C   0  0  0  0  0  3  0  0  0  0  0  0
  186.5690  178.7620  140.1430 C   0  0  1  0  0  3  0  0  0  0  0  0
  187.4350  176.2000  136.1900 C   0  0  0  0  0  0  0  0  0  0  0  0
  182.8450  177.7310  138.0640 C   0  0  0  0  0  0  0  0  0  0  0  0
  186.6790  174.9380  136.5460 C   0  0  2  0  0  3  0  0  0  0  0  0
  184.1300  176.3150  135.6700 C   0  0  0  0  0  3  0  0  0  0  0  0
  186.2350  173.9130  135.1170 S   0  0  0  0  0  0  0  0  0  0  0  0
  187.4900  172.1510  136.6340 N   0  0  0  0  0  1  0  0  0  0  0  0
  186.6960  172.3980  135.4680 C   0  0  2  0  0  3  0  0  0  0  0  0
  186.5770  171.3780  134.4540 N   0  0  0  0  0  0  0  0  0  0  0  0
  185.3880  170.4870  134.6080 C   0  0  1  0  0  3  0  0  0  0  0  0
  186.6920  170.0550  135.0960 C   0  0  0  0  0  2  0  0  0  0  0  0
  184.4820  170.7760  135.8060 C   0  0  0  0  0  2  0  0  0  0  0  0
  183.0350  170.5730  135.4070 C   0  0  0  0  0  1  0  0  0  0  0  0
  1  7  1  0  0  0  0
  3 20  1  0  0  0  0
  4 22  1  0  0  0  0
  5 11  2  0  0  0  0
  6  4  1  0  0  0  0
  6 12  1  1  0  0  0
  9  5  1  0  0  0  0
  9 24  1  0  0  0  0
 10  6  1  0  0  0  0
 11  3  1  0  0  0  0
 12 18  1  0  0  0  0
 14  2  1  0  0  0  0
 14 13  2  0  0  0  0
 15 21  2  0  0  0  0
 16 19  1  0  0  0  0
 16 26  2  0  0  0  0
 17 15  1  0  0  0  0
 17 23  1  0  0  0  0
 18  8  1  6  0  0  0
 19  9  2  0  0  0  0
 20  1  1  0  0  0  0
 21 10  1  0  0  0  0
 22 18  1  0  0  0  0
 22  7  1  1  0  0  0
 23 25  1  0  0  0  0
 23 10  2  0  0  0  0
 24 13  1  0  0  0  0
 24  3  2  0  0  0  0
 25 27  1  6  0  0  0
 25  2  1  0  0  0  0
 26 14  1  0  0  0  0
 27 29  1  0  0  0  0
 29 28  1  6  0  0  0
 30 31  1  0  0  0  0
 30 32  1  0  0  0  0
 30 29  1  0  0  0  0
 31 32  1  0  0  0  0
 31 33  1  1  0  0  0
 34 33  1  0  0  0  0
M  END
>  <MODEL>
5

>  <REMARK>
 VINA RESULT:      -4.6      4.667      9.283
  Name = 
  3 active torsions:
  status: ('A' for Active; 'I' for Inactive)
    1  A    between atoms: N_3  and  C_29
    2  A    between atoms: C_6  and  C_16
    3  A    between atoms: S_13  and  C_32
                            x       y       z     vdW  Elec       q    Type
                         _______ _______ _______ _____ _____    ______ ____

>  <TORSDO>
F 3

$$$$
=
 OpenBabel10232412343D

 34 39  0  0  1  0  0  0  0  0999 V2000
  182.9970  178.2140  139.2440 C   0  0  0  0  0  2  0  0  0  0  0  0
  187.8440  177.6240  137.2000 N   0  0  0  0  0  2  0  0  0  0  0  0
  184.8010  179.1600  140.6300 C   0  0  0  0  0  0  0  0  0  0  0  0
  184.6770  175.9260  138.0180 N   0  0  0  0  0  2  0  0  0  0  0  0
  185.7740  178.7060  142.5310 N   0  0  0  0  0  0  0  0  0  0  0  0
  185.5210  175.8450  136.8360 C   0  0  1  0  0  3  0  0  0  0  0  0
  183.3170  177.9350  137.7860 C   0  0  0  0  0  2  0  0  0  0  0  0
  182.2680  175.2700  135.7910 O   0  0  0  0  0  1  0  0  0  0  0  0
  186.6290  178.3330  141.5620 C   0  0  0  0  0  0  0  0  0  0  0  0
  186.6250  174.8500  137.0200 C   0  0  0  0  0  0  0  0  0  0  0  0
  184.6740  179.1930  141.9720 N   0  0  0  0  0  0  0  0  0  0  0  0
  184.6240  175.5150  135.6710 C   0  0  0  0  0  2  0  0  0  0  0  0
  186.4880  178.4000  139.0010 C   0  0  0  0  0  3  0  0  0  0  0  0
  187.6670  177.7740  138.6150 C   0  0  0  0  0  0  0  0  0  0  0  0
  187.5480  172.7370  137.4580 C   0  0  0  0  0  3  0  0  0  0  0  0
  188.7280  177.2330  140.8700 C   0  0  0  0  0  3  0  0  0  0  0  0
  188.8500  173.7690  137.1970 S   0  0  0  0  0  0  0  0  0  0  0  0
  183.3100  176.1580  136.0460 C   0  0  2  0  0  3  0  0  0  0  0  0
  187.8360  177.7140  141.8190 C   0  0  0  0  0  3  0  0  0  0  0  0
  183.6860  179.4920  139.6910 C   0  0  0  0  0  2  0  0  0  0  0  0
  186.3900  173.4980  137.3220 C   0  0  0  0  0  3  0  0  0  0  0  0
  183.3960  176.4360  137.5390 C   0  0  1  0  0  3  0  0  0  0  0  0
  187.9780  175.1820  136.9320 C   0  0  0  0  0  0  0  0  0  0  0  0
  186.0260  178.6280  140.2830 C   0  0  0  0  0  0  0  0  0  0  0  0
  188.5500  176.5270  136.5390 C   0  0  2  0  0  3  0  0  0  0  0  0
  188.6420  177.2540  139.4770 C   0  0  0  0  0  3  0  0  0  0  0  0
  190.3420  176.6680  136.7790 S   0  0  0  0  0  0  0  0  0  0  0  0
  190.2370  175.6390  134.3490 N   0  0  0  0  0  1  0  0  0  0  0  0
  191.0370  176.2200  135.3840 C   0  0  2  0  0  3  0  0  0  0  0  0
  192.4750  176.1160  135.3200 N   0  0  0  0  0  0  0  0  0  0  0  0
  193.0200  174.7980  135.7650 C   0  0  1  0  0  3  0  0  0  0  0  0
  192.9980  175.9270  136.6860 C   0  0  0  0  0  2  0  0  0  0  0  0
  191.9910  173.7640  136.2230 C   0  0  0  0  0  2  0  0  0  0  0  0
  191.9760  172.5990  135.2550 C   0  0  0  0  0  1  0  0  0  0  0  0
  1 20  1  0  0  0  0
  2 14  1  0  0  0  0
  3 11  1  0  0  0  0
  6 12  1  6  0  0  0
  6 10  1  0  0  0  0
  6  4  1  0  0  0  0
  7  1  1  0  0  0  0
  9 19  2  0  0  0  0
  9  5  1  0  0  0  0
 10 21  1  0  0  0  0
 11  5  2  0  0  0  0
 12 18  1  0  0  0  0
 13 24  1  0  0  0  0
 14 13  2  0  0  0  0
 14 26  1  0  0  0  0
 16 19  1  0  0  0  0
 17 15  1  0  0  0  0
 18  8  1  1  0  0  0
 18 22  1  0  0  0  0
 20  3  1  0  0  0  0
 21 15  2  0  0  0  0
 22  7  1  6  0  0  0
 22  4  1  0  0  0  0
 23 10  2  0  0  0  0
 23 17  1  0  0  0  0
 24  3  2  0  0  0  0
 24  9  1  0  0  0  0
 25 27  1  1  0  0  0
 25 23  1  0  0  0  0
 25  2  1  0  0  0  0
 26 16  2  0  0  0  0
 29 28  1  1  0  0  0
 29 27  1  0  0  0  0
 30 29  1  0  0  0  0
 30 31  1  0  0  0  0
 30 32  1  0  0  0  0
 31 33  1  1  0  0  0
 31 32  1  0  0  0  0
 34 33  1  0  0  0  0
M  END
>  <MODEL>
6

>  <REMARK>
 VINA RESULT:      -4.6      3.264      7.530
  Name = 
  3 active torsions:
  status: ('A' for Active; 'I' for Inactive)
    1  A    between atoms: N_3  and  C_29
    2  A    between atoms: C_6  and  C_16
    3  A    between atoms: S_13  and  C_32
                            x       y       z     vdW  Elec       q    Type
                         _______ _______ _______ _____ _____    ______ ____

>  <TORSDO>
F 3

$$$$
=
 OpenBabel10232412343D

 34 39  0  0  1  0  0  0  0  0999 V2000
  186.1190  171.5340  135.2480 C   0  0  0  0  0  2  0  0  0  0  0  0
  183.7010  175.3170  138.0520 N   0  0  0  0  0  2  0  0  0  0  0  0
  187.5700  173.4330  135.8470 C   0  0  0  0  0  0  0  0  0  0  0  0
  183.4930  173.1570  135.0740 N   0  0  0  0  0  2  0  0  0  0  0  0
  188.5390  175.1000  134.8230 N   0  0  0  0  0  0  0  0  0  0  0  0
  182.4860  173.5140  136.0600 C   0  0  1  0  0  3  0  0  0  0  0  0
  184.8350  171.3660  136.0410 C   0  0  0  0  0  2  0  0  0  0  0  0
  181.6930  170.3410  134.9170 O   0  0  0  0  0  1  0  0  0  0  0  0
  187.4880  175.6140  135.4870 C   0  0  0  0  0  0  0  0  0  0  0  0
  181.8240  174.8140  135.7200 C   0  0  0  0  0  0  0  0  0  0  0  0
  188.5830  173.7910  135.0320 N   0  0  0  0  0  0  0  0  0  0  0  0
  181.5140  172.3660  136.1390 C   0  0  0  0  0  2  0  0  0  0  0  0
  185.6860  174.5530  136.9740 C   0  0  0  0  0  3  0  0  0  0  0  0
  184.8510  175.6280  137.2550 C   0  0  0  0  0  0  0  0  0  0  0  0
  180.6110  176.3080  134.3780 C   0  0  0  0  0  3  0  0  0  0  0  0
  186.0080  177.5240  136.0010 C   0  0  0  0  0  3  0  0  0  0  0  0
  180.9770  177.1440  135.7910 S   0  0  0  0  0  0  0  0  0  0  0  0
  182.3660  171.1610  135.8200 C   0  0  2  0  0  3  0  0  0  0  0  0
  187.1220  176.9440  135.4080 C   0  0  0  0  0  3  0  0  0  0  0  0
  187.2350  172.0110  136.1630 C   0  0  0  0  0  2  0  0  0  0  0  0
  181.1540  175.0330  134.5050 C   0  0  0  0  0  3  0  0  0  0  0  0
  183.6310  171.7070  135.1750 C   0  0  1  0  0  3  0  0  0  0  0  0
  181.8370  175.9240  136.5660 C   0  0  0  0  0  0  0  0  0  0  0  0
  186.8240  174.5410  136.1890 C   0  0  0  0  0  0  0  0  0  0  0  0
  182.4000  175.9790  137.9690 C   0  0  2  0  0  3  0  0  0  0  0  0
  185.0190  176.9410  136.7940 C   0  0  0  0  0  3  0  0  0  0  0  0
  182.4740  177.6490  138.6740 S   0  0  0  0  0  0  0  0  0  0  0  0
  180.6870  176.5130  140.2530 N   0  0  0  0  0  1  0  0  0  0  0  0
  181.5220  177.6440  139.9870 C   0  0  2  0  0  3  0  0  0  0  0  0
  181.2900  178.8850  140.6870 N   0  0  0  0  0  0  0  0  0  0  0  0
  182.2560  179.1630  141.7920 C   0  0  1  0  0  3  0  0  0  0  0  0
  180.9530  178.5820  142.0900 C   0  0  0  0  0  2  0  0  0  0  0  0
  183.3360  178.1050  142.0230 C   0  0  0  0  0  2  0  0  0  0  0  0
  184.6740  178.7820  142.2310 C   0  0  0  0  0  1  0  0  0  0  0  0
  1  7  1  0  0  0  0
  1 20  1  0  0  0  0
  3 20  1  0  0  0  0
  3 24  1  0  0  0  0
  4 22  1  0  0  0  0
  4  6  1  0  0  0  0
  5 11  1  0  0  0  0
  5  9  2  0  0  0  0
  6 12  1  6  0  0  0
  9 24  1  0  0  0  0
 10  6  1  0  0  0  0
 10 23  2  0  0  0  0
 11  3  2  0  0  0  0
 13 14  1  0  0  0  0
 14  2  1  0  0  0  0
 15 21  2  0  0  0  0
 15 17  1  0  0  0  0
 16 26  1  0  0  0  0
 17 23  1  0  0  0  0
 18  8  1  6  0  0  0
 18 12  1  0  0  0  0
 19  9  1  0  0  0  0
 19 16  2  0  0  0  0
 21 10  1  0  0  0  0
 22 18  1  0  0  0  0
 22  7  1  1  0  0  0
 23 25  1  0  0  0  0
 24 13  2  0  0  0  0
 25  2  1  0  0  0  0
 25 27  1  6  0  0  0
 26 14  2  0  0  0  0
 27 29  1  0  0  0  0
 29 28  1  6  0  0  0
 29 30  1  0  0  0  0
 30 31  1  0  0  0  0
 30 32  1  0  0  0  0
 31 33  1  6  0  0  0
 31 32  1  0  0  0  0
 33 34  1  0  0  0  0
M  END
>  <MODEL>
7

>  <REMARK>
 VINA RESULT:      -4.5      5.193      7.057
  Name = 
  3 active torsions:
  status: ('A' for Active; 'I' for Inactive)
    1  A    between atoms: N_3  and  C_29
    2  A    between atoms: C_6  and  C_16
    3  A    between atoms: S_13  and  C_32
                            x       y       z     vdW  Elec       q    Type
                         _______ _______ _______ _____ _____    ______ ____

>  <TORSDO>
F 3

$$$$
=
 OpenBabel10232412343D

 34 39  0  0  1  0  0  0  0  0999 V2000
  182.4650  178.5930  142.6200 C   0  0  0  0  0  2  0  0  0  0  0  0
  185.9690  178.8260  138.6590 N   0  0  0  0  0  2  0  0  0  0  0  0
  184.7870  178.9860  143.3450 C   0  0  0  0  0  0  0  0  0  0  0  0
  183.1710  176.9220  140.1160 N   0  0  0  0  0  2  0  0  0  0  0  0
  186.3530  177.8800  144.3890 N   0  0  0  0  0  0  0  0  0  0  0  0
  183.4570  177.2830  138.7370 C   0  0  1  0  0  3  0  0  0  0  0  0
  182.1390  178.8670  141.1620 C   0  0  0  0  0  2  0  0  0  0  0  0
  180.0100  177.1010  139.0330 O   0  0  0  0  0  1  0  0  0  0  0  0
  186.6920  177.8920  143.0870 C   0  0  0  0  0  0  0  0  0  0  0  0
  184.3860  176.2980  138.0960 C   0  0  0  0  0  0  0  0  0  0  0  0
  185.2060  178.5280  144.5420 N   0  0  0  0  0  0  0  0  0  0  0  0
  182.1360  177.3920  138.0220 C   0  0  0  0  0  2  0  0  0  0  0  0
  185.5630  178.8840  141.0080 C   0  0  0  0  0  3  0  0  0  0  0  0
  186.3880  178.4510  139.9770 C   0  0  0  0  0  0  0  0  0  0  0  0
  185.0880  174.1780  137.3740 C   0  0  0  0  0  3  0  0  0  0  0  0
  188.1620  177.1350  141.2530 C   0  0  0  0  0  3  0  0  0  0  0  0
  186.3170  175.2450  136.9490 S   0  0  0  0  0  0  0  0  0  0  0  0
  181.1860  177.8440  139.1050 C   0  0  2  0  0  3  0  0  0  0  0  0
  187.7980  177.2310  142.5900 C   0  0  0  0  0  3  0  0  0  0  0  0
  183.4530  179.6280  143.1330 C   0  0  0  0  0  2  0  0  0  0  0  0
  184.0950  174.9270  138.0000 C   0  0  0  0  0  3  0  0  0  0  0  0
  181.8940  177.5610  140.4210 C   0  0  1  0  0  3  0  0  0  0  0  0
  185.6270  176.6500  137.5630 C   0  0  0  0  0  0  0  0  0  0  0  0
  185.6830  178.6260  142.3610 C   0  0  0  0  0  0  0  0  0  0  0  0
  186.1880  178.0500  137.4390 C   0  0  2  0  0  3  0  0  0  0  0  0
  187.5370  177.6600  140.1210 C   0  0  0  0  0  3  0  0  0  0  0  0
  187.9290  178.1090  136.9340 S   0  0  0  0  0  0  0  0  0  0  0  0
  186.7330  177.8420  134.5950 N   0  0  0  0  0  1  0  0  0  0  0  0
  187.9460  178.0900  135.3130 C   0  0  2  0  0  3  0  0  0  0  0  0
  189.2140  178.0050  134.6280 N   0  0  0  0  0  0  0  0  0  0  0  0
  189.6720  176.6110  134.3460 C   0  0  1  0  0  3  0  0  0  0  0  0
  190.1840  177.3270  135.5070 C   0  0  0  0  0  2  0  0  0  0  0  0
  188.7480  175.4890  134.8230 C   0  0  0  0  0  2  0  0  0  0  0  0
  189.5650  174.2470  135.1120 C   0  0  0  0  0  1  0  0  0  0  0  0
  1 20  1  0  0  0  0
  2 14  1  0  0  0  0
  3 11  1  0  0  0  0
  4 22  1  0  0  0  0
  5 11  2  0  0  0  0
  6 12  1  6  0  0  0
  6  4  1  0  0  0  0
  7  1  1  0  0  0  0
  9  5  1  0  0  0  0
 10  6  1  0  0  0  0
 12 18  1  0  0  0  0
 13 24  1  0  0  0  0
 14 26  1  0  0  0  0
 14 13  2  0  0  0  0
 15 21  2  0  0  0  0
 16 19  1  0  0  0  0
 17 15  1  0  0  0  0
 17 23  1  0  0  0  0
 18  8  1  1  0  0  0
 18 22  1  0  0  0  0
 19  9  2  0  0  0  0
 20  3  1  0  0  0  0
 21 10  1  0  0  0  0
 22  7  1  6  0  0  0
 23 10  2  0  0  0  0
 24  9  1  0  0  0  0
 24  3  2  0  0  0  0
 25 27  1  1  0  0  0
 25 23  1  0  0  0  0
 25  2  1  0  0  0  0
 26 16  2  0  0  0  0
 29 28  1  1  0  0  0
 29 27  1  0  0  0  0
 30 29  1  0  0  0  0
 30 32  1  0  0  0  0
 31 30  1  0  0  0  0
 31 33  1  1  0  0  0
 31 32  1  0  0  0  0
 33 34  1  0  0  0  0
M  END
>  <MODEL>
8

>  <REMARK>
 VINA RESULT:      -4.1      4.466      8.746
  Name = 
  3 active torsions:
  status: ('A' for Active; 'I' for Inactive)
    1  A    between atoms: N_3  and  C_29
    2  A    between atoms: C_6  and  C_16
    3  A    between atoms: S_13  and  C_32
                            x       y       z     vdW  Elec       q    Type
                         _______ _______ _______ _____ _____    ______ ____

>  <TORSDO>
F 3

$$$$
=
 OpenBabel10232412343D

 34 39  0  0  1  0  0  0  0  0999 V2000
  188.6170  175.1740  136.6540 C   0  0  0  0  0  2  0  0  0  0  0  0
  184.7260  178.5260  137.9380 N   0  0  0  0  0  2  0  0  0  0  0  0
  186.3630  174.3930  136.0350 C   0  0  0  0  0  0  0  0  0  0  0  0
  187.7440  176.7880  139.1430 N   0  0  0  0  0  2  0  0  0  0  0  0
  184.9640  172.8480  136.6830 N   0  0  0  0  0  0  0  0  0  0  0  0
  187.3040  178.1620  139.3240 C   0  0  1  0  0  3  0  0  0  0  0  0
  188.7820  176.6560  136.9410 C   0  0  0  0  0  2  0  0  0  0  0  0
  190.7680  178.2030  139.3590 O   0  0  0  0  0  1  0  0  0  0  0  0
  184.4960  174.0150  137.1600 C   0  0  0  0  0  0  0  0  0  0  0  0
  186.3630  178.2860  140.4830 C   0  0  0  0  0  0  0  0  0  0  0  0
  186.0890  173.0730  136.0170 N   0  0  0  0  0  0  0  0  0  0  0  0
  188.5400  179.0080  139.4800 C   0  0  0  0  0  2  0  0  0  0  0  0
  185.3630  176.4260  137.0070 C   0  0  0  0  0  3  0  0  0  0  0  0
  184.4600  177.1250  137.7980 C   0  0  0  0  0  0  0  0  0  0  0  0
  185.6950  178.0910  142.7240 C   0  0  0  0  0  3  0  0  0  0  0  0
  182.8870  175.2650  138.5550 C   0  0  0  0  0  3  0  0  0  0  0  0
  184.3800  178.7410  141.9010 S   0  0  0  0  0  0  0  0  0  0  0  0
  189.5710  178.2810  138.6510 C   0  0  2  0  0  3  0  0  0  0  0  0
  183.3790  174.1080  137.9660 C   0  0  0  0  0  3  0  0  0  0  0  0
  187.6370  174.9740  135.5100 C   0  0  0  0  0  2  0  0  0  0  0  0
  186.7080  177.9000  141.7890 C   0  0  0  0  0  3  0  0  0  0  0  0
  189.0140  176.8830  138.4280 C   0  0  1  0  0  3  0  0  0  0  0  0
  185.0600  178.7700  140.3630 C   0  0  0  0  0  0  0  0  0  0  0  0
  185.3910  175.0690  136.7420 C   0  0  0  0  0  0  0  0  0  0  0  0
  184.4240  179.3400  139.1140 C   0  0  2  0  0  3  0  0  0  0  0  0
  183.3700  176.5730  138.4860 C   0  0  0  0  0  3  0  0  0  0  0  0
  182.6400  179.6350  139.2590 S   0  0  0  0  0  0  0  0  0  0  0  0
  183.4740  181.9920  138.4080 N   0  0  0  0  0  1  0  0  0  0  0  0
  182.3670  181.1340  138.7020 C   0  0  2  0  0  3  0  0  0  0  0  0
  181.0400  181.6900  138.8110 N   0  0  0  0  0  0  0  0  0  0  0  0
  180.2100  181.5570  137.5760 C   0  0  1  0  0  3  0  0  0  0  0  0
  180.9120  182.8040  137.8530 C   0  0  0  0  0  2  0  0  0  0  0  0
  180.8790  180.8650  136.3870 C   0  0  0  0  0  2  0  0  0  0  0  0
  180.7010  181.7100  135.1430 C   0  0  0  0  0  1  0  0  0  0  0  0
  1  7  1  0  0  0  0
  2 25  1  0  0  0  0
  3 24  1  0  0  0  0
  4  6  1  0  0  0  0
  5  9  2  0  0  0  0
  6 12  1  1  0  0  0
  6 10  1  0  0  0  0
  9 19  1  0  0  0  0
 10 21  1  0  0  0  0
 11  3  2  0  0  0  0
 11  5  1  0  0  0  0
 13 14  1  0  0  0  0
 14  2  1  0  0  0  0
 14 26  2  0  0  0  0
 17 15  1  0  0  0  0
 18  8  1  1  0  0  0
 18 12  1  0  0  0  0
 19 16  2  0  0  0  0
 20  3  1  0  0  0  0
 20  1  1  0  0  0  0
 21 15  2  0  0  0  0
 22  7  1  6  0  0  0
 22 18  1  0  0  0  0
 22  4  1  0  0  0  0
 23 10  2  0  0  0  0
 23 17  1  0  0  0  0
 24 13  2  0  0  0  0
 24  9  1  0  0  0  0
 25 27  1  1  0  0  0
 25 23  1  0  0  0  0
 26 16  1  0  0  0  0
 29 28  1  1  0  0  0
 29 30  1  0  0  0  0
 29 27  1  0  0  0  0
 31 33  1  6  0  0  0
 31 32  1  0  0  0  0
 31 30  1  0  0  0  0
 32 30  1  0  0  0  0
 34 33  1  0  0  0  0
M  END
>  <MODEL>
9

>  <REMARK>
 VINA RESULT:      -3.8      5.069      8.319
  Name = 
  3 active torsions:
  status: ('A' for Active; 'I' for Inactive)
    1  A    between atoms: N_3  and  C_29
    2  A    between atoms: C_6  and  C_16
    3  A    between atoms: S_13  and  C_32
                            x       y       z     vdW  Elec       q    Type
                         _______ _______ _______ _____ _____    ______ ____

>  <TORSDO>
F 3

$$$$
