=
 OpenBabel10232408263D

 45 49  0  0  1  0  0  0  0  0999 V2000
  191.7630  173.9700  135.3800 C   0  0  0  0  0  2  0  0  0  0  0  0
  192.8320  174.7280  136.1450 C   0  0  2  0  0  0  0  0  0  0  0  0
  192.3070  175.0630  137.5230 C   0  0  2  0  0  3  0  0  0  0  0  0
  193.4870  175.9260  135.4750 C   0  0  0  0  0  1  0  0  0  0  0  0
  193.4560  174.0660  137.3770 C   0  0  2  0  0  3  0  0  0  0  0  0
  190.7350  173.5180  136.4080 C   0  0  1  0  0  3  0  0  0  0  0  0
  190.9790  174.3320  137.6900 C   0  0  2  0  0  3  0  0  0  0  0  0
  189.3010  173.4140  135.8530 C   0  0  1  0  0  3  0  0  0  0  0  0
  189.2970  173.6280  134.3460 C   0  0  0  0  0  1  0  0  0  0  0  0
  188.6010  172.1080  136.2150 C   0  0  0  0  0  2  0  0  0  0  0  0
  187.3930  172.3830  137.0940 C   0  0  0  0  0  2  0  0  0  0  0  0
  186.8430  173.6230  136.7610 O   0  0  0  0  0  0  0  0  0  0  0  0
  185.4680  173.4820  136.9890 C   0  0  1  0  0  3  0  0  0  0  0  0
  185.2560  172.9630  138.2770 O   0  0  0  0  0  1  0  0  0  0  0  0
  184.7780  174.8320  136.8480 C   0  0  0  0  0  2  0  0  0  0  0  0
  185.0600  177.0280  136.6580 C   0  0  0  0  0  1  0  0  0  0  0  0
  185.6750  175.8650  137.1360 O   0  0  0  0  0  0  0  0  0  0  0  0
  189.9180  175.3040  137.9490 N   0  0  0  0  0  2  0  0  0  0  0  0
  189.9060  176.6420  137.4220 C   0  0  0  0  0  0  0  0  0  0  0  0
  189.5500  176.8590  136.1610 C   0  0  0  0  0  2  0  0  0  0  0  0
  190.1250  177.8300  138.3380 C   0  0  1  0  0  3  0  0  0  0  0  0
  189.1860  179.0310  138.0950 C   0  0  2  0  0  3  0  0  0  0  0  0
  187.6790  177.2970  140.1940 C   0  0  0  0  0  2  0  0  0  0  0  0
  190.1970  177.4600  139.7980 C   0  0  0  0  0  0  0  0  0  0  0  0
  187.3670  178.6350  139.7230 N   0  0  0  0  0  2  0  0  0  0  0  0
  191.6390  177.0400  144.2540 C   0  0  0  0  0  3  0  0  0  0  0  0
  189.1060  177.2400  140.6290 C   0  0  0  0  0  0  0  0  0  0  0  0
  191.0040  177.2090  141.8590 C   0  0  0  0  0  0  0  0  0  0  0  0
  190.4200  176.9760  144.9390 C   0  0  0  0  0  0  0  0  0  0  0  0
  189.1400  176.9450  144.3670 C   0  0  0  0  0  3  0  0  0  0  0  0
  188.7390  176.9920  143.0380 C   0  0  0  0  0  3  0  0  0  0  0  0
  191.3710  177.4290  140.5390 C   0  0  0  0  0  3  0  0  0  0  0  0
  191.9130  177.1500  142.8970 C   0  0  0  0  0  3  0  0  0  0  0  0
  187.7010  178.7000  138.3050 C   0  0  0  0  0  2  0  0  0  0  0  0
  189.5550  177.1100  141.9240 C   0  0  0  0  0  0  0  0  0  0  0  0
  189.3730  179.5250  136.8160 F   0  0  0  0  0  0  0  0  0  0  0  0
  189.3170  176.9640  147.1820 O   0  0  0  0  0  1  0  0  0  0  0  0
  190.4840  176.9860  146.4150 C   0  0  0  0  0  0  0  0  0  0  0  0
  191.6040  176.9230  146.9980 O   0  0  0  0  0  0  0  0  0  0  0  0
  194.7770  174.7100  137.7930 C   0  0  0  0  0  2  0  0  0  0  0  0
  195.9520  173.7740  137.5510 C   0  0  0  0  0  2  0  0  0  0  0  0
  197.0840  175.9230  136.0430 O   0  0  0  0  0  0  0  0  0  0  0  0
  197.4670  174.7050  137.1530 P   0  0  0  0  0  0  0  0  0  0  0  0
  198.1130  175.4020  138.5550 O   0  0  0  0  0  1  0  0  0  0  0  0
  198.4890  173.7710  136.5410 O   0  0  0  0  0  1  0  0  0  0  0  0
  1  2  1  0  0  0  0
  1  6  1  0  0  0  0
  2  4  1  6  0  0  0
  2  5  1  0  0  0  0
  2  3  1  0  0  0  0
  3  7  1  0  0  0  0
  5  3  1  0  0  0  0
  5 40  1  0  0  0  0
  6  7  1  0  0  0  0
  7 18  1  0  0  0  0
  8 10  1  0  0  0  0
  8  6  1  0  0  0  0
  9  8  1  0  0  0  0
 10 11  1  0  0  0  0
 12 13  1  0  0  0  0
 12 11  1  0  0  0  0
 13 14  1  0  0  0  0
 15 13  1  0  0  0  0
 15 17  1  0  0  0  0
 16 17  1  0  0  0  0
 19 18  1  0  0  0  0
 19 21  1  0  0  0  0
 20 19  2  0  0  0  0
 21 24  1  0  0  0  0
 22 34  1  0  0  0  0
 22 21  1  0  0  0  0
 23 27  1  0  0  0  0
 24 32  2  0  0  0  0
 24 27  1  0  0  0  0
 25 23  1  0  0  0  0
 26 29  2  0  0  0  0
 27 35  2  0  0  0  0
 28 35  1  0  0  0  0
 28 33  2  0  0  0  0
 29 38  1  0  0  0  0
 30 29  1  0  0  0  0
 31 30  2  0  0  0  0
 32 28  1  0  0  0  0
 33 26  1  0  0  0  0
 34 25  1  0  0  0  0
 35 31  1  0  0  0  0
 36 22  1  0  0  0  0
 38 39  2  0  0  0  0
 38 37  1  0  0  0  0
 41 40  1  0  0  0  0
 42 43  2  0  0  0  0
 43 41  1  0  0  0  0
 43 44  1  0  0  0  0
 45 43  1  0  0  0  0
M  END
>  <MODEL>
1

>  <REMARK>
 VINA RESULT:      -6.7      0.000      0.000
  Name = 
  14 active torsions:
  status: ('A' for Active; 'I' for Inactive)
    1  A    between atoms: C_1  and  C_31
    2  A    between atoms: N_3  and  C_31
    3  A    between atoms: N_3  and  C_44
    4  A    between atoms: C_5  and  O_10
    5  A    between atoms: C_5  and  C_16
    6  A    between atoms: C_16  and  O_26
    7  A    between atoms: C_17  and  C_32
    8  A    between atoms: P_22  and  C_28
    9  A    between atoms: C_25  and  C_36
   10  A    between atoms: O_26  and  C_33
   11  A    between atoms: C_28  and  C_36
   12  A    between atoms: C_30  and  C_41
   13  A    between atoms: C_30  and  C_42
   14  A    between atoms: C_33  and  C_41
                            x       y       z     vdW  Elec       q    Type
                         _______ _______ _______ _____ _____    ______ ____

>  <TORSDO>
F 14

$$$$
=
 OpenBabel10232408263D

 45 49  0  0  1  0  0  0  0  0999 V2000
  183.6170  174.9800  135.3780 C   0  0  0  0  0  2  0  0  0  0  0  0
  184.6330  176.0930  135.5510 C   0  0  2  0  0  0  0  0  0  0  0  0
  184.2560  176.9210  136.7590 C   0  0  2  0  0  3  0  0  0  0  0  0
  184.9690  176.9590  134.3460 C   0  0  0  0  0  1  0  0  0  0  0  0
  185.5300  176.0770  136.7930 C   0  0  2  0  0  3  0  0  0  0  0  0
  182.8380  174.9010  136.6840 C   0  0  1  0  0  3  0  0  0  0  0  0
  183.1120  176.1980  137.4620 C   0  0  2  0  0  3  0  0  0  0  0  0
  181.3800  174.4290  136.5130 C   0  0  1  0  0  3  0  0  0  0  0  0
  180.9780  174.4620  135.0460 C   0  0  0  0  0  1  0  0  0  0  0  0
  181.1110  173.0540  137.1160 C   0  0  0  0  0  2  0  0  0  0  0  0
  180.7630  172.0580  136.0220 C   0  0  0  0  0  2  0  0  0  0  0  0
  181.4500  170.8610  136.2410 O   0  0  0  0  0  0  0  0  0  0  0  0
  181.9140  170.4740  134.9780 C   0  0  1  0  0  3  0  0  0  0  0  0
  182.7870  171.4530  134.4770 O   0  0  0  0  0  1  0  0  0  0  0  0
  182.6310  169.1340  135.0780 C   0  0  0  0  0  2  0  0  0  0  0  0
  184.7810  168.6010  135.2580 C   0  0  0  0  0  1  0  0  0  0  0  0
  183.7320  169.2370  135.9320 O   0  0  0  0  0  0  0  0  0  0  0  0
  181.9460  177.0760  137.5220 N   0  0  0  0  0  2  0  0  0  0  0  0
  181.5090  177.7550  138.7130 C   0  0  0  0  0  0  0  0  0  0  0  0
  180.5100  177.2590  139.4340 C   0  0  0  0  0  2  0  0  0  0  0  0
  182.2890  178.9370  139.2540 C   0  0  1  0  0  3  0  0  0  0  0  0
  181.5420  180.2880  139.2240 C   0  0  2  0  0  3  0  0  0  0  0  0
  180.8340  179.0860  142.0060 C   0  0  0  0  0  2  0  0  0  0  0  0
  182.9230  178.6750  140.5970 C   0  0  0  0  0  0  0  0  0  0  0  0
  180.5670  180.4190  141.4930 N   0  0  0  0  0  2  0  0  0  0  0  0
  186.0600  178.3070  144.0810 C   0  0  0  0  0  3  0  0  0  0  0  0
  182.2790  178.7600  141.8240 C   0  0  0  0  0  0  0  0  0  0  0  0
  184.4890  178.4200  142.1600 C   0  0  0  0  0  0  0  0  0  0  0  0
  185.2630  178.5600  145.2040 C   0  0  0  0  0  0  0  0  0  0  0  0
  183.8750  178.7580  145.2170 C   0  0  0  0  0  3  0  0  0  0  0  0
  182.9530  178.7860  144.1780 C   0  0  0  0  0  3  0  0  0  0  0  0
  184.2810  178.4520  140.7890 C   0  0  0  0  0  3  0  0  0  0  0  0
  185.7350  178.2490  142.7320 C   0  0  0  0  0  3  0  0  0  0  0  0
  180.2620  180.2990  140.0720 C   0  0  0  0  0  2  0  0  0  0  0  0
  183.2150  178.6380  142.8250 C   0  0  0  0  0  0  0  0  0  0  0  0
  181.2360  180.6290  137.9180 F   0  0  0  0  0  0  0  0  0  0  0  0
  185.5380  179.5930  147.4630 O   0  0  0  0  0  1  0  0  0  0  0  0
  185.9590  178.6710  146.5030 C   0  0  0  0  0  0  0  0  0  0  0  0
  186.8890  177.8660  146.7910 O   0  0  0  0  0  0  0  0  0  0  0  0
  186.7630  176.9660  136.6480 C   0  0  0  0  0  2  0  0  0  0  0  0
  187.1680  177.5760  137.9810 C   0  0  0  0  0  2  0  0  0  0  0  0
  189.7400  177.3660  136.7500 O   0  0  0  0  0  0  0  0  0  0  0  0
  188.8700  178.2220  137.9220 P   0  0  0  0  0  0  0  0  0  0  0  0
  188.8600  179.8690  137.5250 O   0  0  0  0  0  1  0  0  0  0  0  0
  189.5300  178.0370  139.2720 O   0  0  0  0  0  1  0  0  0  0  0  0
  1  2  1  0  0  0  0
  1  6  1  0  0  0  0
  2  4  1  6  0  0  0
  2  3  1  0  0  0  0
  2  5  1  0  0  0  0
  3  5  1  0  0  0  0
  3  7  1  0  0  0  0
  6  7  1  0  0  0  0
  7 18  1  0  0  0  0
  8  6  1  0  0  0  0
  8 10  1  0  0  0  0
  9  8  1  0  0  0  0
 11 12  1  0  0  0  0
 11 10  1  0  0  0  0
 13 15  1  0  0  0  0
 13 12  1  0  0  0  0
 14 13  1  0  0  0  0
 15 17  1  0  0  0  0
 16 17  1  0  0  0  0
 18 19  1  0  0  0  0
 19 21  1  0  0  0  0
 19 20  2  0  0  0  0
 21 24  1  0  0  0  0
 22 21  1  0  0  0  0
 22 34  1  0  0  0  0
 24 32  2  0  0  0  0
 24 27  1  0  0  0  0
 25 23  1  0  0  0  0
 26 29  2  0  0  0  0
 27 23  1  0  0  0  0
 27 35  2  0  0  0  0
 28 33  2  0  0  0  0
 28 35  1  0  0  0  0
 29 30  1  0  0  0  0
 29 38  1  0  0  0  0
 31 30  2  0  0  0  0
 32 28  1  0  0  0  0
 33 26  1  0  0  0  0
 34 25  1  0  0  0  0
 35 31  1  0  0  0  0
 36 22  1  0  0  0  0
 38 39  2  0  0  0  0
 38 37  1  0  0  0  0
 40  5  1  0  0  0  0
 40 41  1  0  0  0  0
 42 43  2  0  0  0  0
 43 41  1  0  0  0  0
 43 45  1  0  0  0  0
 44 43  1  0  0  0  0
M  END
>  <MODEL>
2

>  <REMARK>
 VINA RESULT:      -6.5      5.497      7.539
  Name = 
  14 active torsions:
  status: ('A' for Active; 'I' for Inactive)
    1  A    between atoms: C_1  and  C_31
    2  A    between atoms: N_3  and  C_31
    3  A    between atoms: N_3  and  C_44
    4  A    between atoms: C_5  and  O_10
    5  A    between atoms: C_5  and  C_16
    6  A    between atoms: C_16  and  O_26
    7  A    between atoms: C_17  and  C_32
    8  A    between atoms: P_22  and  C_28
    9  A    between atoms: C_25  and  C_36
   10  A    between atoms: O_26  and  C_33
   11  A    between atoms: C_28  and  C_36
   12  A    between atoms: C_30  and  C_41
   13  A    between atoms: C_30  and  C_42
   14  A    between atoms: C_33  and  C_41
                            x       y       z     vdW  Elec       q    Type
                         _______ _______ _______ _____ _____    ______ ____

>  <TORSDO>
F 14

$$$$
=
 OpenBabel10232408263D

 45 49  0  0  1  0  0  0  0  0999 V2000
  186.9630  178.1290  143.9430 C   0  0  0  0  0  2  0  0  0  0  0  0
  185.6980  178.7330  143.3630 C   0  0  2  0  0  0  0  0  0  0  0  0
  185.7830  178.7010  141.8530 C   0  0  2  0  0  3  0  0  0  0  0  0
  185.2420  180.0890  143.8810 C   0  0  0  0  0  1  0  0  0  0  0  0
  184.7530  177.8270  142.5680 C   0  0  2  0  0  3  0  0  0  0  0  0
  187.6510  177.3920  142.8020 C   0  0  1  0  0  3  0  0  0  0  0  0
  187.0200  177.8860  141.4890 C   0  0  2  0  0  3  0  0  0  0  0  0
  189.1870  177.3530  142.9210 C   0  0  1  0  0  3  0  0  0  0  0  0
  189.7350  178.7450  143.1990 C   0  0  0  0  0  1  0  0  0  0  0  0
  189.6920  176.3560  143.9600 C   0  0  0  0  0  2  0  0  0  0  0  0
  190.4030  177.0850  145.0880 C   0  0  0  0  0  2  0  0  0  0  0  0
  191.0520  176.1590  145.9090 O   0  0  0  0  0  0  0  0  0  0  0  0
  190.7490  176.5600  147.2160 C   0  0  1  0  0  3  0  0  0  0  0  0
  191.9190  176.9970  147.8570 O   0  0  0  0  0  1  0  0  0  0  0  0
  189.7180  177.6800  147.1880 C   0  0  0  0  0  2  0  0  0  0  0  0
  187.5930  177.9260  147.7930 C   0  0  0  0  0  1  0  0  0  0  0  0
  188.8560  177.5720  148.2830 O   0  0  0  0  0  0  0  0  0  0  0  0
  187.9320  178.7120  140.7020 N   0  0  0  0  0  2  0  0  0  0  0  0
  188.4850  178.3180  139.4340 C   0  0  0  0  0  0  0  0  0  0  0  0
  189.5770  177.5630  139.3900 C   0  0  0  0  0  2  0  0  0  0  0  0
  187.7390  178.6060  138.1470 C   0  0  1  0  0  3  0  0  0  0  0  0
  188.6230  178.7310  136.8870 C   0  0  2  0  0  3  0  0  0  0  0  0
  187.8830  175.7100  137.0040 C   0  0  0  0  0  2  0  0  0  0  0  0
  186.5600  177.6930  137.9180 C   0  0  0  0  0  0  0  0  0  0  0  0
  188.5420  176.4470  135.9400 N   0  0  0  0  0  2  0  0  0  0  0  0
  182.2200  176.1030  137.0530 C   0  0  0  0  0  3  0  0  0  0  0  0
  186.6230  176.4100  137.3920 C   0  0  0  0  0  0  0  0  0  0  0  0
  184.4570  177.0220  137.6160 C   0  0  0  0  0  0  0  0  0  0  0  0
  182.4890  174.8920  136.4060 C   0  0  0  0  0  0  0  0  0  0  0  0
  183.7510  174.3160  136.1990 C   0  0  0  0  0  3  0  0  0  0  0  0
  185.0200  174.7690  136.5330 C   0  0  0  0  0  3  0  0  0  0  0  0
  185.2350  178.0770  138.0750 C   0  0  0  0  0  3  0  0  0  0  0  0
  183.0770  177.0570  137.5860 C   0  0  0  0  0  3  0  0  0  0  0  0
  189.4030  177.4500  136.5570 C   0  0  0  0  0  2  0  0  0  0  0  0
  185.3430  175.9630  137.1590 C   0  0  0  0  0  0  0  0  0  0  0  0
  189.5060  179.7860  137.0320 F   0  0  0  0  0  0  0  0  0  0  0  0
  181.5130  173.0200  135.0660 O   0  0  0  0  0  0  0  0  0  0  0  0
  181.3310  174.1650  135.8450 C   0  0  0  0  0  0  0  0  0  0  0  0
  180.1570  174.5240  136.1430 O   0  0  0  0  0  1  0  0  0  0  0  0
  183.3530  178.4180  142.4130 C   0  0  0  0  0  2  0  0  0  0  0  0
  182.9230  178.4520  140.9540 C   0  0  0  0  0  2  0  0  0  0  0  0
  180.4410  178.7190  142.3470 O   0  0  0  0  0  1  0  0  0  0  0  0
  181.1110  178.5600  140.8010 P   0  0  0  0  0  0  0  0  0  0  0  0
  180.6800  179.8990  139.8590 O   0  0  0  0  0  0  0  0  0  0  0  0
  180.5800  177.2990  140.1520 O   0  0  0  0  0  1  0  0  0  0  0  0
  2  4  1  1  0  0  0
  2  1  1  0  0  0  0
  3  5  1  0  0  0  0
  3  2  1  0  0  0  0
  5  2  1  0  0  0  0
  6  8  1  0  0  0  0
  6  1  1  0  0  0  0
  7  3  1  0  0  0  0
  7  6  1  0  0  0  0
  8  9  1  0  0  0  0
  8 10  1  0  0  0  0
 10 11  1  0  0  0  0
 11 12  1  0  0  0  0
 12 13  1  0  0  0  0
 13 14  1  0  0  0  0
 15 13  1  0  0  0  0
 15 17  1  0  0  0  0
 16 17  1  0  0  0  0
 18  7  1  0  0  0  0
 19 18  1  0  0  0  0
 20 19  2  0  0  0  0
 21 19  1  0  0  0  0
 22 36  1  0  0  0  0
 22 21  1  0  0  0  0
 23 27  1  0  0  0  0
 24 32  1  0  0  0  0
 24 21  1  0  0  0  0
 25 34  1  0  0  0  0
 25 23  1  0  0  0  0
 26 33  2  0  0  0  0
 27 24  2  0  0  0  0
 28 32  2  0  0  0  0
 29 26  1  0  0  0  0
 30 29  2  0  0  0  0
 30 31  1  0  0  0  0
 31 35  2  0  0  0  0
 33 28  1  0  0  0  0
 34 22  1  0  0  0  0
 35 27  1  0  0  0  0
 35 28  1  0  0  0  0
 37 38  2  0  0  0  0
 38 39  1  0  0  0  0
 38 29  1  0  0  0  0
 40  5  1  0  0  0  0
 41 40  1  0  0  0  0
 43 41  1  0  0  0  0
 43 42  1  0  0  0  0
 44 43  2  0  0  0  0
 45 43  1  0  0  0  0
M  END
>  <MODEL>
3

>  <REMARK>
 VINA RESULT:      -6.2      4.910     10.551
  Name = 
  14 active torsions:
  status: ('A' for Active; 'I' for Inactive)
    1  A    between atoms: C_1  and  C_31
    2  A    between atoms: N_3  and  C_31
    3  A    between atoms: N_3  and  C_44
    4  A    between atoms: C_5  and  O_10
    5  A    between atoms: C_5  and  C_16
    6  A    between atoms: C_16  and  O_26
    7  A    between atoms: C_17  and  C_32
    8  A    between atoms: P_22  and  C_28
    9  A    between atoms: C_25  and  C_36
   10  A    between atoms: O_26  and  C_33
   11  A    between atoms: C_28  and  C_36
   12  A    between atoms: C_30  and  C_41
   13  A    between atoms: C_30  and  C_42
   14  A    between atoms: C_33  and  C_41
                            x       y       z     vdW  Elec       q    Type
                         _______ _______ _______ _____ _____    ______ ____

>  <TORSDO>
F 14

$$$$
=
 OpenBabel10232408263D

 45 49  0  0  1  0  0  0  0  0999 V2000
  187.1580  176.1920  136.1320 C   0  0  0  0  0  2  0  0  0  0  0  0
  187.6230  177.3630  136.9770 C   0  0  2  0  0  0  0  0  0  0  0  0
  186.4830  177.8160  137.8610 C   0  0  2  0  0  3  0  0  0  0  0  0
  188.3050  178.5300  136.2800 C   0  0  0  0  0  1  0  0  0  0  0  0
  187.7190  177.1770  138.4940 C   0  0  2  0  0  3  0  0  0  0  0  0
  185.8650  175.6930  136.7620 C   0  0  1  0  0  3  0  0  0  0  0  0
  185.3630  176.7910  137.7140 C   0  0  2  0  0  3  0  0  0  0  0  0
  184.8770  175.0750  135.7520 C   0  0  1  0  0  3  0  0  0  0  0  0
  185.1680  175.5790  134.3460 C   0  0  0  0  0  1  0  0  0  0  0  0
  184.8490  173.5500  135.7840 C   0  0  0  0  0  2  0  0  0  0  0  0
  183.4470  173.0550  136.1000 C   0  0  0  0  0  2  0  0  0  0  0  0
  182.7390  174.0510  136.7760 O   0  0  0  0  0  0  0  0  0  0  0  0
  181.3950  173.6660  136.6830 C   0  0  1  0  0  3  0  0  0  0  0  0
  180.6170  174.7660  136.2880 O   0  0  0  0  0  1  0  0  0  0  0  0
  181.2510  172.5330  135.6750 C   0  0  0  0  0  2  0  0  0  0  0  0
  180.2420  171.8400  137.5300 C   0  0  0  0  0  1  0  0  0  0  0  0
  180.7380  171.3930  136.3000 O   0  0  0  0  0  0  0  0  0  0  0  0
  184.1580  177.4550  137.2220 N   0  0  0  0  0  2  0  0  0  0  0  0
  183.1390  178.0080  138.0730 C   0  0  0  0  0  0  0  0  0  0  0  0
  181.9930  177.3580  138.2470 C   0  0  0  0  0  2  0  0  0  0  0  0
  183.4210  179.2360  138.9140 C   0  0  1  0  0  3  0  0  0  0  0  0
  182.2990  180.2960  138.9300 C   0  0  2  0  0  3  0  0  0  0  0  0
  181.6210  178.4300  141.3270 C   0  0  0  0  0  2  0  0  0  0  0  0
  183.9100  178.9140  140.3040 C   0  0  0  0  0  0  0  0  0  0  0  0
  181.0220  179.7030  140.9650 N   0  0  0  0  0  2  0  0  0  0  0  0
  186.4780  178.7980  144.2410 C   0  0  0  0  0  3  0  0  0  0  0  0
  183.1050  178.5730  141.3840 C   0  0  0  0  0  0  0  0  0  0  0  0
  185.2400  178.8230  142.0890 C   0  0  0  0  0  0  0  0  0  0  0  0
  185.4930  178.5900  145.2130 C   0  0  0  0  0  0  0  0  0  0  0  0
  184.1250  178.3760  144.9860 C   0  0  0  0  0  3  0  0  0  0  0  0
  183.3980  178.3380  143.8030 C   0  0  0  0  0  3  0  0  0  0  0  0
  185.2270  179.0570  140.7210 C   0  0  0  0  0  3  0  0  0  0  0  0
  186.3820  178.9100  142.8610 C   0  0  0  0  0  3  0  0  0  0  0  0
  180.9740  179.7770  139.5080 C   0  0  0  0  0  2  0  0  0  0  0  0
  183.8810  178.5340  142.5190 C   0  0  0  0  0  0  0  0  0  0  0  0
  182.0870  180.7790  137.6510 F   0  0  0  0  0  0  0  0  0  0  0  0
  186.8940  177.7630  147.1120 O   0  0  0  0  0  0  0  0  0  0  0  0
  185.9270  178.6450  146.6250 C   0  0  0  0  0  0  0  0  0  0  0  0
  185.4890  179.5560  147.3840 O   0  0  0  0  0  1  0  0  0  0  0  0
  188.5820  178.2400  139.1710 C   0  0  0  0  0  2  0  0  0  0  0  0
  188.8520  177.8920  140.6270 C   0  0  0  0  0  2  0  0  0  0  0  0
  190.1580  175.8230  142.1050 O   0  0  0  0  0  1  0  0  0  0  0  0
  190.3550  176.8760  140.7960 P   0  0  0  0  0  0  0  0  0  0  0  0
  190.6200  175.9790  139.3840 O   0  0  0  0  0  0  0  0  0  0  0  0
  191.5480  177.7740  141.0490 O   0  0  0  0  0  1  0  0  0  0  0  0
  1  6  1  0  0  0  0
  1  2  1  0  0  0  0
  2  4  1  6  0  0  0
  2  3  1  0  0  0  0
  2  5  1  0  0  0  0
  3  5  1  0  0  0  0
  5 40  1  0  0  0  0
  6  7  1  0  0  0  0
  7  3  1  0  0  0  0
  8 10  1  0  0  0  0
  8  6  1  0  0  0  0
  9  8  1  0  0  0  0
 10 11  1  0  0  0  0
 11 12  1  0  0  0  0
 13 12  1  0  0  0  0
 14 13  1  0  0  0  0
 15 17  1  0  0  0  0
 15 13  1  0  0  0  0
 17 16  1  0  0  0  0
 18  7  1  0  0  0  0
 18 19  1  0  0  0  0
 19 20  2  0  0  0  0
 19 21  1  0  0  0  0
 21 22  1  0  0  0  0
 21 24  1  0  0  0  0
 22 34  1  0  0  0  0
 23 27  1  0  0  0  0
 24 32  2  0  0  0  0
 24 27  1  0  0  0  0
 25 23  1  0  0  0  0
 26 29  2  0  0  0  0
 27 35  2  0  0  0  0
 28 35  1  0  0  0  0
 28 33  2  0  0  0  0
 29 38  1  0  0  0  0
 30 29  1  0  0  0  0
 31 30  2  0  0  0  0
 32 28  1  0  0  0  0
 33 26  1  0  0  0  0
 34 25  1  0  0  0  0
 35 31  1  0  0  0  0
 36 22  1  0  0  0  0
 38 37  2  0  0  0  0
 38 39  1  0  0  0  0
 40 41  1  0  0  0  0
 41 43  1  0  0  0  0
 43 45  1  0  0  0  0
 43 42  1  0  0  0  0
 44 43  2  0  0  0  0
M  END
>  <MODEL>
4

>  <REMARK>
 VINA RESULT:      -6.1      4.614      6.274
  Name = 
  14 active torsions:
  status: ('A' for Active; 'I' for Inactive)
    1  A    between atoms: C_1  and  C_31
    2  A    between atoms: N_3  and  C_31
    3  A    between atoms: N_3  and  C_44
    4  A    between atoms: C_5  and  O_10
    5  A    between atoms: C_5  and  C_16
    6  A    between atoms: C_16  and  O_26
    7  A    between atoms: C_17  and  C_32
    8  A    between atoms: P_22  and  C_28
    9  A    between atoms: C_25  and  C_36
   10  A    between atoms: O_26  and  C_33
   11  A    between atoms: C_28  and  C_36
   12  A    between atoms: C_30  and  C_41
   13  A    between atoms: C_30  and  C_42
   14  A    between atoms: C_33  and  C_41
                            x       y       z     vdW  Elec       q    Type
                         _______ _______ _______ _____ _____    ______ ____

>  <TORSDO>
F 14

$$$$
=
 OpenBabel10232408263D

 45 49  0  0  1  0  0  0  0  0999 V2000
  185.6180  179.4060  146.8220 C   0  0  0  0  0  2  0  0  0  0  0  0
  185.1330  179.4050  145.3840 C   0  0  2  0  0  0  0  0  0  0  0  0
  185.9310  178.3910  144.5950 C   0  0  2  0  0  3  0  0  0  0  0  0
  185.0250  180.7370  144.6580 C   0  0  0  0  0  1  0  0  0  0  0  0
  184.4420  178.1480  144.8460 C   0  0  2  0  0  3  0  0  0  0  0  0
  186.4460  178.1400  146.9980 C   0  0  1  0  0  3  0  0  0  0  0  0
  186.7790  177.6100  145.5930 C   0  0  2  0  0  3  0  0  0  0  0  0
  187.5820  178.2760  148.0310 C   0  0  1  0  0  3  0  0  0  0  0  0
  187.4600  177.2010  149.1010 C   0  0  0  0  0  1  0  0  0  0  0  0
  188.9750  178.2630  147.4090 C   0  0  0  0  0  2  0  0  0  0  0  0
  189.9230  177.4280  148.2540 C   0  0  0  0  0  2  0  0  0  0  0  0
  191.1990  177.4490  147.6870 O   0  0  0  0  0  0  0  0  0  0  0  0
  191.3000  176.2440  146.9800 C   0  0  1  0  0  3  0  0  0  0  0  0
  191.8630  176.4860  145.7170 O   0  0  0  0  0  1  0  0  0  0  0  0
  192.1610  175.2580  147.7580 C   0  0  0  0  0  2  0  0  0  0  0  0
  193.4820  176.1330  149.3170 C   0  0  0  0  0  1  0  0  0  0  0  0
  193.4390  175.7870  147.9610 O   0  0  0  0  0  0  0  0  0  0  0  0
  188.1920  177.7620  145.2550 N   0  0  0  0  0  2  0  0  0  0  0  0
  188.7670  177.3610  143.9990 C   0  0  0  0  0  0  0  0  0  0  0  0
  188.8200  176.0750  143.6710 C   0  0  0  0  0  2  0  0  0  0  0  0
  189.1550  178.3990  142.9640 C   0  0  1  0  0  3  0  0  0  0  0  0
  190.5970  178.9390  143.0810 C   0  0  2  0  0  3  0  0  0  0  0  0
  190.8510  176.4920  141.1750 C   0  0  0  0  0  2  0  0  0  0  0  0
  188.8200  177.9940  141.5500 C   0  0  0  0  0  0  0  0  0  0  0  0
  191.8450  177.4990  141.5030 N   0  0  0  0  0  2  0  0  0  0  0  0
  187.1310  178.0040  137.1620 C   0  0  0  0  0  3  0  0  0  0  0  0
  189.5860  177.1590  140.7470 C   0  0  0  0  0  0  0  0  0  0  0  0
  187.8900  178.0250  139.5270 C   0  0  0  0  0  0  0  0  0  0  0  0
  188.0950  177.2460  136.4880 C   0  0  0  0  0  0  0  0  0  0  0  0
  189.1970  176.5940  137.0610 C   0  0  0  0  0  3  0  0  0  0  0  0
  189.6350  176.5410  138.3780 C   0  0  0  0  0  3  0  0  0  0  0  0
  187.7660  178.5220  140.8170 C   0  0  0  0  0  3  0  0  0  0  0  0
  187.0300  178.3630  138.5000 C   0  0  0  0  0  3  0  0  0  0  0  0
  191.6720  177.8570  142.9070 C   0  0  0  0  0  2  0  0  0  0  0  0
  189.0650  177.1700  139.4730 C   0  0  0  0  0  0  0  0  0  0  0  0
  190.7680  179.5690  144.3010 F   0  0  0  0  0  0  0  0  0  0  0  0
  186.9530  177.8430  134.3460 O   0  0  0  0  0  0  0  0  0  0  0  0
  187.9660  177.1570  135.0190 C   0  0  0  0  0  0  0  0  0  0  0  0
  188.8310  176.5270  134.3470 O   0  0  0  0  0  1  0  0  0  0  0  0
  183.6370  178.4090  143.5750 C   0  0  0  0  0  2  0  0  0  0  0  0
  184.4610  178.1260  142.3280 C   0  0  0  0  0  2  0  0  0  0  0  0
  183.3150  176.9950  139.9660 O   0  0  0  0  0  1  0  0  0  0  0  0
  183.4990  178.4470  140.8140 P   0  0  0  0  0  0  0  0  0  0  0  0
  181.9730  179.0680  141.2080 O   0  0  0  0  0  1  0  0  0  0  0  0
  184.2370  179.4460  139.9470 O   0  0  0  0  0  0  0  0  0  0  0  0
  1  6  1  0  0  0  0
  2  4  1  6  0  0  0
  2  1  1  0  0  0  0
  3  5  1  0  0  0  0
  3  2  1  0  0  0  0
  3  7  1  0  0  0  0
  5  2  1  0  0  0  0
  6  8  1  0  0  0  0
  7  6  1  0  0  0  0
  8  9  1  0  0  0  0
 10  8  1  0  0  0  0
 10 11  1  0  0  0  0
 12 11  1  0  0  0  0
 13 12  1  0  0  0  0
 13 15  1  0  0  0  0
 14 13  1  0  0  0  0
 15 17  1  0  0  0  0
 17 16  1  0  0  0  0
 18  7  1  0  0  0  0
 19 18  1  0  0  0  0
 20 19  2  0  0  0  0
 21 22  1  0  0  0  0
 21 19  1  0  0  0  0
 22 36  1  0  0  0  0
 23 25  1  0  0  0  0
 24 21  1  0  0  0  0
 25 34  1  0  0  0  0
 26 33  2  0  0  0  0
 27 23  1  0  0  0  0
 27 24  2  0  0  0  0
 28 32  2  0  0  0  0
 29 30  2  0  0  0  0
 29 26  1  0  0  0  0
 30 31  1  0  0  0  0
 31 35  2  0  0  0  0
 32 24  1  0  0  0  0
 33 28  1  0  0  0  0
 34 22  1  0  0  0  0
 35 28  1  0  0  0  0
 35 27  1  0  0  0  0
 37 38  2  0  0  0  0
 38 29  1  0  0  0  0
 39 38  1  0  0  0  0
 40  5  1  0  0  0  0
 41 40  1  0  0  0  0
 42 43  1  0  0  0  0
 43 44  1  0  0  0  0
 43 41  1  0  0  0  0
 45 43  2  0  0  0  0
M  END
>  <MODEL>
5

>  <REMARK>
 VINA RESULT:      -6.0      4.651     10.743
  Name = 
  14 active torsions:
  status: ('A' for Active; 'I' for Inactive)
    1  A    between atoms: C_1  and  C_31
    2  A    between atoms: N_3  and  C_31
    3  A    between atoms: N_3  and  C_44
    4  A    between atoms: C_5  and  O_10
    5  A    between atoms: C_5  and  C_16
    6  A    between atoms: C_16  and  O_26
    7  A    between atoms: C_17  and  C_32
    8  A    between atoms: P_22  and  C_28
    9  A    between atoms: C_25  and  C_36
   10  A    between atoms: O_26  and  C_33
   11  A    between atoms: C_28  and  C_36
   12  A    between atoms: C_30  and  C_41
   13  A    between atoms: C_30  and  C_42
   14  A    between atoms: C_33  and  C_41
                            x       y       z     vdW  Elec       q    Type
                         _______ _______ _______ _____ _____    ______ ____

>  <TORSDO>
F 14

$$$$
=
 OpenBabel10232408263D

 45 49  0  0  1  0  0  0  0  0999 V2000
  188.8820  176.1990  134.4340 C   0  0  0  0  0  2  0  0  0  0  0  0
  190.2440  175.5840  134.6950 C   0  0  2  0  0  0  0  0  0  0  0  0
  190.2820  175.0550  136.1110 C   0  0  2  0  0  3  0  0  0  0  0  0
  191.4810  176.3990  134.3560 C   0  0  0  0  0  1  0  0  0  0  0  0
  190.3290  174.0740  134.9400 C   0  0  2  0  0  3  0  0  0  0  0  0
  187.9680  175.7160  135.5530 C   0  0  1  0  0  3  0  0  0  0  0  0
  188.8660  175.1580  136.6700 C   0  0  2  0  0  3  0  0  0  0  0  0
  186.8540  176.7140  135.9220 C   0  0  1  0  0  3  0  0  0  0  0  0
  187.1250  178.0730  135.2930 C   0  0  0  0  0  1  0  0  0  0  0  0
  185.4540  176.2230  135.5650 C   0  0  0  0  0  2  0  0  0  0  0  0
  184.4100  176.9620  136.3860 C   0  0  0  0  0  2  0  0  0  0  0  0
  184.4740  176.5380  137.7160 O   0  0  0  0  0  0  0  0  0  0  0  0
  183.4790  175.5600  137.8320 C   0  0  1  0  0  3  0  0  0  0  0  0
  184.0730  174.3160  138.1030 O   0  0  0  0  0  1  0  0  0  0  0  0
  182.5130  175.9330  138.9480 C   0  0  0  0  0  2  0  0  0  0  0  0
  182.1190  177.7310  140.1930 C   0  0  0  0  0  1  0  0  0  0  0  0
  183.1220  176.8230  139.8370 O   0  0  0  0  0  0  0  0  0  0  0  0
  188.8740  176.0050  137.8610 N   0  0  0  0  0  2  0  0  0  0  0  0
  190.0570  176.3200  138.6170 C   0  0  0  0  0  0  0  0  0  0  0  0
  191.1460  175.5700  138.4930 C   0  0  0  0  0  2  0  0  0  0  0  0
  190.1350  177.6010  139.4230 C   0  0  1  0  0  3  0  0  0  0  0  0
  189.2890  178.7730  138.8800 C   0  0  2  0  0  3  0  0  0  0  0  0
  187.3770  177.2930  140.8400 C   0  0  0  0  0  2  0  0  0  0  0  0
  189.9270  177.3960  140.9020 C   0  0  0  0  0  0  0  0  0  0  0  0
  187.1920  178.5730  140.1770 N   0  0  0  0  0  2  0  0  0  0  0  0
  190.5150  177.4670  145.5670 C   0  0  0  0  0  3  0  0  0  0  0  0
  188.6970  177.2770  141.5360 C   0  0  0  0  0  0  0  0  0  0  0  0
  190.3350  177.3710  143.0920 C   0  0  0  0  0  0  0  0  0  0  0  0
  189.1900  177.4870  146.0170 C   0  0  0  0  0  0  0  0  0  0  0  0
  188.0360  177.4000  145.2240 C   0  0  0  0  0  3  0  0  0  0  0  0
  187.8880  177.3010  143.8470 C   0  0  0  0  0  3  0  0  0  0  0  0
  190.9440  177.4400  141.8470 C   0  0  0  0  0  3  0  0  0  0  0  0
  191.0360  177.4230  144.2810 C   0  0  0  0  0  3  0  0  0  0  0  0
  187.7830  178.4770  138.8460 C   0  0  0  0  0  2  0  0  0  0  0  0
  188.8970  177.2890  142.8970 C   0  0  0  0  0  0  0  0  0  0  0  0
  189.7210  179.1200  137.6130 F   0  0  0  0  0  0  0  0  0  0  0  0
  187.7060  177.5570  148.0280 O   0  0  0  0  0  0  0  0  0  0  0  0
  188.9810  177.6620  147.4690 C   0  0  0  0  0  0  0  0  0  0  0  0
  189.9760  177.8180  148.2340 O   0  0  0  0  0  1  0  0  0  0  0  0
  191.7410  173.5210  134.7630 C   0  0  0  0  0  2  0  0  0  0  0  0
  192.2250  172.8200  136.0230 C   0  0  0  0  0  2  0  0  0  0  0  0
  194.6490  173.8970  134.9550 O   0  0  0  0  0  0  0  0  0  0  0  0
  193.9930  173.1430  136.3210 P   0  0  0  0  0  0  0  0  0  0  0  0
  194.1880  174.1490  137.6690 O   0  0  0  0  0  1  0  0  0  0  0  0
  194.7130  171.8340  136.5660 O   0  0  0  0  0  1  0  0  0  0  0  0
  1  2  1  0  0  0  0
  1  6  1  0  0  0  0
  2  4  1  6  0  0  0
  2  5  1  0  0  0  0
  2  3  1  0  0  0  0
  3  7  1  0  0  0  0
  5  3  1  0  0  0  0
  6  8  1  0  0  0  0
  6  7  1  0  0  0  0
  7 18  1  0  0  0  0
  9  8  1  0  0  0  0
 10  8  1  0  0  0  0
 10 11  1  0  0  0  0
 11 12  1  0  0  0  0
 12 13  1  0  0  0  0
 13 14  1  0  0  0  0
 13 15  1  0  0  0  0
 15 17  1  0  0  0  0
 17 16  1  0  0  0  0
 18 19  1  0  0  0  0
 19 21  1  0  0  0  0
 20 19  2  0  0  0  0
 21 24  1  0  0  0  0
 22 21  1  0  0  0  0
 23 27  1  0  0  0  0
 24 27  2  0  0  0  0
 24 32  1  0  0  0  0
 25 23  1  0  0  0  0
 26 29  1  0  0  0  0
 27 35  1  0  0  0  0
 28 33  1  0  0  0  0
 29 38  1  0  0  0  0
 30 29  2  0  0  0  0
 31 30  1  0  0  0  0
 32 28  2  0  0  0  0
 33 26  2  0  0  0  0
 34 22  1  0  0  0  0
 34 25  1  0  0  0  0
 35 28  1  0  0  0  0
 35 31  2  0  0  0  0
 36 22  1  0  0  0  0
 38 37  2  0  0  0  0
 38 39  1  0  0  0  0
 40  5  1  0  0  0  0
 40 41  1  0  0  0  0
 41 43  1  0  0  0  0
 42 43  2  0  0  0  0
 43 45  1  0  0  0  0
 43 44  1  0  0  0  0
M  END
>  <MODEL>
6

>  <REMARK>
 VINA RESULT:      -5.5      2.070      2.956
  Name = 
  14 active torsions:
  status: ('A' for Active; 'I' for Inactive)
    1  A    between atoms: C_1  and  C_31
    2  A    between atoms: N_3  and  C_31
    3  A    between atoms: N_3  and  C_44
    4  A    between atoms: C_5  and  O_10
    5  A    between atoms: C_5  and  C_16
    6  A    between atoms: C_16  and  O_26
    7  A    between atoms: C_17  and  C_32
    8  A    between atoms: P_22  and  C_28
    9  A    between atoms: C_25  and  C_36
   10  A    between atoms: O_26  and  C_33
   11  A    between atoms: C_28  and  C_36
   12  A    between atoms: C_30  and  C_41
   13  A    between atoms: C_30  and  C_42
   14  A    between atoms: C_33  and  C_41
                            x       y       z     vdW  Elec       q    Type
                         _______ _______ _______ _____ _____    ______ ____

>  <TORSDO>
F 14

$$$$
=
 OpenBabel10232408263D

 45 49  0  0  1  0  0  0  0  0999 V2000
  191.6760  177.5880  142.0810 C   0  0  0  0  0  2  0  0  0  0  0  0
  190.5820  178.0390  143.0310 C   0  0  2  0  0  0  0  0  0  0  0  0
  189.2440  177.9150  142.3350 C   0  0  2  0  0  3  0  0  0  0  0  0
  190.7400  179.3790  143.7310 C   0  0  0  0  0  1  0  0  0  0  0  0
  189.5650  177.0020  143.5180 C   0  0  2  0  0  3  0  0  0  0  0  0
  190.9840  176.8420  140.9480 C   0  0  1  0  0  3  0  0  0  0  0  0
  189.4870  177.1900  141.0150 C   0  0  2  0  0  3  0  0  0  0  0  0
  191.7130  176.9470  139.5940 C   0  0  1  0  0  3  0  0  0  0  0  0
  193.1810  177.2870  139.8050 C   0  0  0  0  0  1  0  0  0  0  0  0
  191.5660  175.7020  138.7260 C   0  0  0  0  0  2  0  0  0  0  0  0
  192.6010  175.7100  137.6130 C   0  0  0  0  0  2  0  0  0  0  0  0
  193.3630  174.5400  137.6710 O   0  0  0  0  0  0  0  0  0  0  0  0
  194.6420  174.9210  137.2470 C   0  0  1  0  0  3  0  0  0  0  0  0
  195.5080  174.9730  138.3510 O   0  0  0  0  0  1  0  0  0  0  0  0
  195.1640  173.9250  136.2190 C   0  0  0  0  0  2  0  0  0  0  0  0
  195.1590  171.7040  136.1260 C   0  0  0  0  0  1  0  0  0  0  0  0
  195.6610  172.7860  136.8590 O   0  0  0  0  0  0  0  0  0  0  0  0
  189.0580  178.0410  139.9080 N   0  0  0  0  0  2  0  0  0  0  0  0
  187.6830  178.3410  139.6080 C   0  0  0  0  0  0  0  0  0  0  0  0
  186.8470  178.6740  140.5850 C   0  0  0  0  0  2  0  0  0  0  0  0
  187.2160  178.4550  138.1710 C   0  0  1  0  0  3  0  0  0  0  0  0
  188.3320  178.7050  137.1330 C   0  0  2  0  0  3  0  0  0  0  0  0
  188.1150  175.6040  137.2860 C   0  0  0  0  0  2  0  0  0  0  0  0
  186.2960  177.3370  137.7470 C   0  0  0  0  0  0  0  0  0  0  0  0
  188.8650  176.4210  136.3470 N   0  0  0  0  0  2  0  0  0  0  0  0
  182.6120  174.9610  136.0470 C   0  0  0  0  0  3  0  0  0  0  0  0
  186.6980  176.0730  137.3350 C   0  0  0  0  0  0  0  0  0  0  0  0
  184.4670  176.2860  137.0300 C   0  0  0  0  0  0  0  0  0  0  0  0
  183.2260  173.8020  135.5580 C   0  0  0  0  0  0  0  0  0  0  0  0
  184.5820  173.4600  135.6760 C   0  0  0  0  0  3  0  0  0  0  0  0
  185.6430  174.1460  136.2530 C   0  0  0  0  0  3  0  0  0  0  0  0
  184.9250  177.4770  137.5790 C   0  0  0  0  0  3  0  0  0  0  0  0
  183.1470  176.0680  136.6920 C   0  0  0  0  0  3  0  0  0  0  0  0
  189.3750  177.5800  137.0720 C   0  0  0  0  0  2  0  0  0  0  0  0
  185.6020  175.3950  136.8530 C   0  0  0  0  0  0  0  0  0  0  0  0
  188.9640  179.9070  137.4010 F   0  0  0  0  0  0  0  0  0  0  0  0
  182.7460  171.5270  134.6400 O   0  0  0  0  0  1  0  0  0  0  0  0
  182.3720  172.8620  134.8030 C   0  0  0  0  0  0  0  0  0  0  0  0
  181.2450  173.2410  134.3750 O   0  0  0  0  0  0  0  0  0  0  0  0
  188.8040  177.4540  144.7630 C   0  0  0  0  0  2  0  0  0  0  0  0
  189.4550  176.9290  146.0330 C   0  0  0  0  0  2  0  0  0  0  0  0
  187.2000  178.3720  147.0340 O   0  0  0  0  0  0  0  0  0  0  0  0
  188.5780  177.5170  147.5180 P   0  0  0  0  0  0  0  0  0  0  0  0
  188.1180  176.2060  148.4870 O   0  0  0  0  0  1  0  0  0  0  0  0
  189.4840  178.4330  148.3130 O   0  0  0  0  0  1  0  0  0  0  0  0
  1  2  1  0  0  0  0
  2  5  1  0  0  0  0
  2  4  1  1  0  0  0
  3  2  1  0  0  0  0
  3  5  1  0  0  0  0
  5 40  1  0  0  0  0
  6  7  1  0  0  0  0
  6  1  1  0  0  0  0
  7  3  1  0  0  0  0
  8  9  1  0  0  0  0
  8  6  1  0  0  0  0
 10  8  1  0  0  0  0
 11 12  1  0  0  0  0
 11 10  1  0  0  0  0
 13 12  1  0  0  0  0
 13 14  1  0  0  0  0
 15 17  1  0  0  0  0
 15 13  1  0  0  0  0
 16 17  1  0  0  0  0
 18  7  1  0  0  0  0
 19 18  1  0  0  0  0
 19 20  2  0  0  0  0
 21 19  1  0  0  0  0
 22 36  1  0  0  0  0
 22 21  1  0  0  0  0
 23 27  1  0  0  0  0
 24 21  1  0  0  0  0
 25 34  1  0  0  0  0
 25 23  1  0  0  0  0
 26 33  2  0  0  0  0
 27 24  2  0  0  0  0
 28 32  2  0  0  0  0
 29 30  2  0  0  0  0
 29 26  1  0  0  0  0
 30 31  1  0  0  0  0
 31 35  2  0  0  0  0
 32 24  1  0  0  0  0
 33 28  1  0  0  0  0
 34 22  1  0  0  0  0
 35 28  1  0  0  0  0
 35 27  1  0  0  0  0
 37 38  1  0  0  0  0
 38 29  1  0  0  0  0
 39 38  2  0  0  0  0
 40 41  1  0  0  0  0
 41 43  1  0  0  0  0
 42 43  2  0  0  0  0
 43 45  1  0  0  0  0
 43 44  1  0  0  0  0
M  END
>  <MODEL>
7

>  <REMARK>
 VINA RESULT:      -5.3      3.069      9.196
  Name = 
  14 active torsions:
  status: ('A' for Active; 'I' for Inactive)
    1  A    between atoms: C_1  and  C_31
    2  A    between atoms: N_3  and  C_31
    3  A    between atoms: N_3  and  C_44
    4  A    between atoms: C_5  and  O_10
    5  A    between atoms: C_5  and  C_16
    6  A    between atoms: C_16  and  O_26
    7  A    between atoms: C_17  and  C_32
    8  A    between atoms: P_22  and  C_28
    9  A    between atoms: C_25  and  C_36
   10  A    between atoms: O_26  and  C_33
   11  A    between atoms: C_28  and  C_36
   12  A    between atoms: C_30  and  C_41
   13  A    between atoms: C_30  and  C_42
   14  A    between atoms: C_33  and  C_41
                            x       y       z     vdW  Elec       q    Type
                         _______ _______ _______ _____ _____    ______ ____

>  <TORSDO>
F 14

$$$$
=
 OpenBabel10232408263D

 45 49  0  0  1  0  0  0  0  0999 V2000
  189.8420  173.3900  134.9590 C   0  0  0  0  0  2  0  0  0  0  0  0
  188.5210  173.7770  135.5970 C   0  0  2  0  0  0  0  0  0  0  0  0
  188.4950  175.2760  135.8030 C   0  0  2  0  0  3  0  0  0  0  0  0
  188.0700  173.0230  136.8380 C   0  0  0  0  0  1  0  0  0  0  0  0
  187.5440  174.6370  134.7910 C   0  0  2  0  0  3  0  0  0  0  0  0
  190.4620  174.6770  134.4340 C   0  0  1  0  0  3  0  0  0  0  0  0
  189.7220  175.8490  135.1010 C   0  0  2  0  0  3  0  0  0  0  0  0
  192.0030  174.6730  134.4350 C   0  0  1  0  0  3  0  0  0  0  0  0
  192.5400  176.0970  134.3860 C   0  0  0  0  0  1  0  0  0  0  0  0
  192.6090  173.9080  135.6070 C   0  0  0  0  0  2  0  0  0  0  0  0
  193.4870  174.8270  136.4400 C   0  0  0  0  0  2  0  0  0  0  0  0
  193.9930  174.1250  137.5370 O   0  0  0  0  0  0  0  0  0  0  0  0
  195.3850  174.1740  137.3860 C   0  0  1  0  0  3  0  0  0  0  0  0
  195.7590  175.4280  136.8770 O   0  0  0  0  0  1  0  0  0  0  0  0
  196.0600  173.9320  138.7300 C   0  0  0  0  0  2  0  0  0  0  0  0
  198.1230  174.6630  139.1160 C   0  0  0  0  0  1  0  0  0  0  0  0
  196.7820  175.0640  139.1190 O   0  0  0  0  0  0  0  0  0  0  0  0
  190.5510  176.5580  136.0730 N   0  0  0  0  0  2  0  0  0  0  0  0
  190.3620  176.4860  137.4970 C   0  0  0  0  0  0  0  0  0  0  0  0
  190.3740  175.3090  138.1120 C   0  0  0  0  0  2  0  0  0  0  0  0
  190.3240  177.7500  138.3320 C   0  0  1  0  0  3  0  0  0  0  0  0
  189.3590  178.8450  137.8280 C   0  0  2  0  0  3  0  0  0  0  0  0
  187.6280  177.1380  139.7710 C   0  0  0  0  0  2  0  0  0  0  0  0
  190.1570  177.4910  139.8090 C   0  0  0  0  0  0  0  0  0  0  0  0
  187.3090  178.4080  139.1410 N   0  0  0  0  0  2  0  0  0  0  0  0
  190.7940  177.5130  144.4680 C   0  0  0  0  0  3  0  0  0  0  0  0
  188.9520  177.2370  140.4520 C   0  0  0  0  0  0  0  0  0  0  0  0
  190.5930  177.4570  141.9930 C   0  0  0  0  0  0  0  0  0  0  0  0
  189.4790  177.3920  144.9320 C   0  0  0  0  0  0  0  0  0  0  0  0
  188.3290  177.2090  144.1490 C   0  0  0  0  0  3  0  0  0  0  0  0
  188.1740  177.1280  142.7710 C   0  0  0  0  0  3  0  0  0  0  0  0
  191.1760  177.6140  140.7430 C   0  0  0  0  0  3  0  0  0  0  0  0
  191.3010  177.5500  143.1750 C   0  0  0  0  0  3  0  0  0  0  0  0
  187.8900  178.4010  137.8020 C   0  0  0  0  0  2  0  0  0  0  0  0
  189.1670  177.2370  141.8110 C   0  0  0  0  0  0  0  0  0  0  0  0
  189.7390  179.2620  136.5640 F   0  0  0  0  0  0  0  0  0  0  0  0
  190.3250  177.2940  147.2820 O   0  0  0  0  0  1  0  0  0  0  0  0
  189.2730  177.5120  146.3900 C   0  0  0  0  0  0  0  0  0  0  0  0
  188.1580  177.9030  146.8390 O   0  0  0  0  0  0  0  0  0  0  0  0
  186.1210  174.6000  135.3450 C   0  0  0  0  0  2  0  0  0  0  0  0
  185.6680  175.9780  135.8030 C   0  0  0  0  0  2  0  0  0  0  0  0
  182.8230  176.0370  136.0760 O   0  0  0  0  0  0  0  0  0  0  0  0
  184.2590  175.8610  136.9530 P   0  0  0  0  0  0  0  0  0  0  0  0
  184.2620  174.3590  137.7350 O   0  0  0  0  0  1  0  0  0  0  0  0
  184.3550  176.9640  137.9860 O   0  0  0  0  0  1  0  0  0  0  0  0
  1  2  1  0  0  0  0
  2  3  1  0  0  0  0
  2  4  1  1  0  0  0
  5 40  1  0  0  0  0
  5  2  1  0  0  0  0
  5  3  1  0  0  0  0
  6  8  1  0  0  0  0
  6  1  1  0  0  0  0
  6  7  1  0  0  0  0
  7  3  1  0  0  0  0
  7 18  1  0  0  0  0
  8 10  1  0  0  0  0
  9  8  1  0  0  0  0
 10 11  1  0  0  0  0
 11 12  1  0  0  0  0
 13 12  1  0  0  0  0
 13 15  1  0  0  0  0
 14 13  1  0  0  0  0
 15 17  1  0  0  0  0
 16 17  1  0  0  0  0
 18 19  1  0  0  0  0
 19 20  2  0  0  0  0
 19 21  1  0  0  0  0
 21 24  1  0  0  0  0
 22 21  1  0  0  0  0
 23 27  1  0  0  0  0
 24 27  2  0  0  0  0
 24 32  1  0  0  0  0
 25 23  1  0  0  0  0
 26 29  1  0  0  0  0
 27 35  1  0  0  0  0
 28 33  1  0  0  0  0
 29 38  1  0  0  0  0
 30 29  2  0  0  0  0
 31 30  1  0  0  0  0
 32 28  2  0  0  0  0
 33 26  2  0  0  0  0
 34 22  1  0  0  0  0
 34 25  1  0  0  0  0
 35 28  1  0  0  0  0
 35 31  2  0  0  0  0
 36 22  1  0  0  0  0
 38 39  2  0  0  0  0
 38 37  1  0  0  0  0
 40 41  1  0  0  0  0
 41 43  1  0  0  0  0
 42 43  2  0  0  0  0
 43 44  1  0  0  0  0
 43 45  1  0  0  0  0
M  END
>  <MODEL>
8

>  <REMARK>
 VINA RESULT:      -5.3      2.430      6.590
  Name = 
  14 active torsions:
  status: ('A' for Active; 'I' for Inactive)
    1  A    between atoms: C_1  and  C_31
    2  A    between atoms: N_3  and  C_31
    3  A    between atoms: N_3  and  C_44
    4  A    between atoms: C_5  and  O_10
    5  A    between atoms: C_5  and  C_16
    6  A    between atoms: C_16  and  O_26
    7  A    between atoms: C_17  and  C_32
    8  A    between atoms: P_22  and  C_28
    9  A    between atoms: C_25  and  C_36
   10  A    between atoms: O_26  and  C_33
   11  A    between atoms: C_28  and  C_36
   12  A    between atoms: C_30  and  C_41
   13  A    between atoms: C_30  and  C_42
   14  A    between atoms: C_33  and  C_41
                            x       y       z     vdW  Elec       q    Type
                         _______ _______ _______ _____ _____    ______ ____

>  <TORSDO>
F 14

$$$$
=
 OpenBabel10232408263D

 45 49  0  0  1  0  0  0  0  0999 V2000
  188.7830  176.2010  134.4540 C   0  0  0  0  0  2  0  0  0  0  0  0
  190.1030  175.4960  134.7000 C   0  0  2  0  0  0  0  0  0  0  0  0
  190.1230  174.9650  136.1160 C   0  0  2  0  0  3  0  0  0  0  0  0
  191.3890  176.2280  134.3460 C   0  0  0  0  0  1  0  0  0  0  0  0
  190.0910  173.9840  134.9430 C   0  0  2  0  0  3  0  0  0  0  0  0
  187.8520  175.7800  135.5840 C   0  0  1  0  0  3  0  0  0  0  0  0
  188.7240  175.1620  136.6900 C   0  0  2  0  0  3  0  0  0  0  0  0
  186.8110  176.8500  135.9660 C   0  0  1  0  0  3  0  0  0  0  0  0
  187.0510  178.1310  135.1810 C   0  0  0  0  0  1  0  0  0  0  0  0
  185.3680  176.3800  135.8060 C   0  0  0  0  0  2  0  0  0  0  0  0
  185.2990  174.8620  135.8590 C   0  0  0  0  0  2  0  0  0  0  0  0
  185.0420  174.4500  137.1690 O   0  0  0  0  0  0  0  0  0  0  0  0
  184.9810  173.0530  137.1030 C   0  0  1  0  0  3  0  0  0  0  0  0
  184.0660  172.6690  136.1090 O   0  0  0  0  0  1  0  0  0  0  0  0
  186.3600  172.4880  136.7900 C   0  0  0  0  0  2  0  0  0  0  0  0
  187.5700  171.2440  135.4020 C   0  0  0  0  0  1  0  0  0  0  0  0
  186.2610  171.4640  135.8440 O   0  0  0  0  0  0  0  0  0  0  0  0
  188.8020  176.0050  137.8810 N   0  0  0  0  0  2  0  0  0  0  0  0
  190.0160  176.2610  138.6090 C   0  0  0  0  0  0  0  0  0  0  0  0
  191.0660  175.4620  138.4540 C   0  0  0  0  0  2  0  0  0  0  0  0
  190.1750  177.5330  139.4180 C   0  0  1  0  0  3  0  0  0  0  0  0
  189.3370  178.7340  138.9280 C   0  0  2  0  0  3  0  0  0  0  0  0
  187.4840  177.2950  140.9730 C   0  0  0  0  0  2  0  0  0  0  0  0
  190.0370  177.3210  140.9050 C   0  0  0  0  0  0  0  0  0  0  0  0
  187.3040  178.5850  140.3290 N   0  0  0  0  0  2  0  0  0  0  0  0
  190.8660  177.3370  145.5330 C   0  0  0  0  0  3  0  0  0  0  0  0
  188.8380  177.2340  141.6000 C   0  0  0  0  0  0  0  0  0  0  0  0
  190.5560  177.2670  143.0700 C   0  0  0  0  0  0  0  0  0  0  0  0
  189.5660  177.3930  146.0510 C   0  0  0  0  0  0  0  0  0  0  0  0
  188.3710  177.3470  145.3180 C   0  0  0  0  0  3  0  0  0  0  0  0
  188.1490  177.2640  143.9500 C   0  0  0  0  0  3  0  0  0  0  0  0
  191.1020  177.3280  141.7960 C   0  0  0  0  0  3  0  0  0  0  0  0
  191.3180  177.2880  144.2210 C   0  0  0  0  0  3  0  0  0  0  0  0
  187.8230  178.4820  138.9690 C   0  0  0  0  0  2  0  0  0  0  0  0
  189.1080  177.2290  142.9490 C   0  0  0  0  0  0  0  0  0  0  0  0
  189.7130  179.0780  137.6410 F   0  0  0  0  0  0  0  0  0  0  0  0
  188.1900  177.4980  148.1350 O   0  0  0  0  0  0  0  0  0  0  0  0
  189.4380  177.5620  147.5130 C   0  0  0  0  0  0  0  0  0  0  0  0
  190.4750  177.6760  148.2280 O   0  0  0  0  0  1  0  0  0  0  0  0
  191.4610  173.3380  134.7500 C   0  0  0  0  0  2  0  0  0  0  0  0
  192.0290  172.8350  136.0680 C   0  0  0  0  0  2  0  0  0  0  0  0
  194.2310  174.4050  135.1440 O   0  0  0  0  0  0  0  0  0  0  0  0
  193.8260  173.1190  136.1650 P   0  0  0  0  0  0  0  0  0  0  0  0
  194.2760  173.4960  137.7540 O   0  0  0  0  0  1  0  0  0  0  0  0
  194.5610  171.8730  135.7190 O   0  0  0  0  0  1  0  0  0  0  0  0
  1  2  1  0  0  0  0
  1  6  1  0  0  0  0
  2  4  1  6  0  0  0
  2  5  1  0  0  0  0
  2  3  1  0  0  0  0
  3  7  1  0  0  0  0
  5  3  1  0  0  0  0
  6  8  1  0  0  0  0
  6  7  1  0  0  0  0
  7 18  1  0  0  0  0
  9  8  1  0  0  0  0
 10 11  1  0  0  0  0
 10  8  1  0  0  0  0
 11 12  1  0  0  0  0
 13 12  1  0  0  0  0
 14 13  1  0  0  0  0
 15 13  1  0  0  0  0
 16 17  1  0  0  0  0
 17 15  1  0  0  0  0
 18 19  1  0  0  0  0
 19 21  1  0  0  0  0
 20 19  2  0  0  0  0
 21 24  1  0  0  0  0
 22 34  1  0  0  0  0
 22 21  1  0  0  0  0
 23 27  1  0  0  0  0
 24 27  2  0  0  0  0
 24 32  1  0  0  0  0
 25 23  1  0  0  0  0
 26 29  1  0  0  0  0
 27 35  1  0  0  0  0
 28 33  1  0  0  0  0
 29 38  1  0  0  0  0
 30 29  2  0  0  0  0
 31 30  1  0  0  0  0
 32 28  2  0  0  0  0
 33 26  2  0  0  0  0
 34 25  1  0  0  0  0
 35 28  1  0  0  0  0
 35 31  2  0  0  0  0
 36 22  1  0  0  0  0
 38 37  2  0  0  0  0
 38 39  1  0  0  0  0
 40  5  1  0  0  0  0
 40 41  1  0  0  0  0
 41 43  1  0  0  0  0
 42 43  2  0  0  0  0
 43 44  1  0  0  0  0
 45 43  1  0  0  0  0
M  END
>  <MODEL>
9

>  <REMARK>
 VINA RESULT:      -5.3      1.928      2.949
  Name = 
  14 active torsions:
  status: ('A' for Active; 'I' for Inactive)
    1  A    between atoms: C_1  and  C_31
    2  A    between atoms: N_3  and  C_31
    3  A    between atoms: N_3  and  C_44
    4  A    between atoms: C_5  and  O_10
    5  A    between atoms: C_5  and  C_16
    6  A    between atoms: C_16  and  O_26
    7  A    between atoms: C_17  and  C_32
    8  A    between atoms: P_22  and  C_28
    9  A    between atoms: C_25  and  C_36
   10  A    between atoms: O_26  and  C_33
   11  A    between atoms: C_28  and  C_36
   12  A    between atoms: C_30  and  C_41
   13  A    between atoms: C_30  and  C_42
   14  A    between atoms: C_33  and  C_41
                            x       y       z     vdW  Elec       q    Type
                         _______ _______ _______ _____ _____    ______ ____

>  <TORSDO>
F 14

$$$$
