=
 OpenBabel10232411373D

 27 31  0  0  1  0  0  0  0  0999 V2000
  187.9480  177.1610  143.2650 N   0  0  0  0  0  0  0  0  0  0  0  0
  184.9000  178.8840  143.8450 C   0  0  0  0  0  0  0  0  0  0  0  0
  188.2870  178.0370  148.2270 C   0  0  0  0  0  0  0  0  0  0  0  0
  185.7600  178.2390  142.7930 C   0  0  0  0  0  2  0  0  0  0  0  0
  187.2400  178.0740  147.3970 C   0  0  0  0  0  3  0  0  0  0  0  0
  187.4100  177.6300  146.0040 C   0  0  0  0  0  0  0  0  0  0  0  0
  183.8450  179.5140  143.5740 O   0  0  0  0  0  0  0  0  0  0  0  0
  188.1420  178.4620  149.5050 F   0  0  0  0  0  0  0  0  0  0  0  0
  189.6260  177.6380  147.7380 C   0  0  0  0  0  3  0  0  0  0  0  0
  188.6020  176.7580  145.6580 C   0  0  1  0  0  3  0  0  0  0  0  0
  186.5540  177.9610  145.0420 C   0  0  0  0  0  0  0  0  0  0  0  0
  186.8240  177.6720  143.6590 C   0  0  0  0  0  0  0  0  0  0  0  0
  188.9230  176.7810  144.2130 N   0  0  0  0  0  0  0  0  0  0  0  0
  189.7900  177.0900  146.5270 C   0  0  0  0  0  3  0  0  0  0  0  0
  185.3740  178.7340  145.1850 N   0  0  0  0  0  2  0  0  0  0  0  0
  190.1180  176.1020  143.7280 C   0  0  0  0  0  2  0  0  0  0  0  0
  190.5320  176.6660  142.4130 C   0  0  0  0  0  0  0  0  0  0  0  0
  190.4630  177.3110  140.3120 N   0  0  0  0  0  0  0  0  0  0  0  0
  191.6320  177.7290  140.8410 C   0  0  0  0  0  3  0  0  0  0  0  0
  189.7710  176.6620  141.2670 C   0  0  0  0  0  3  0  0  0  0  0  0
  191.7100  177.3460  142.1680 C   0  0  0  0  0  3  0  0  0  0  0  0
  189.2060  178.6280  138.6470 C   0  0  0  0  0  3  0  0  0  0  0  0
  189.1680  177.9600  136.3200 C   0  0  0  0  0  3  0  0  0  0  0  0
  190.4100  176.6520  137.9350 C   0  0  0  0  0  3  0  0  0  0  0  0
  189.9830  176.8660  136.6210 C   0  0  0  0  0  3  0  0  0  0  0  0
  188.7800  178.8410  137.3330 C   0  0  0  0  0  3  0  0  0  0  0  0
  190.0250  177.5310  138.9610 C   0  0  0  0  0  0  0  0  0  0  0  0
  1 12  2  0  0  0  0
  1 13  1  0  0  0  0
  2 15  1  0  0  0  0
  3  8  1  0  0  0  0
  4 12  1  0  0  0  0
  4  2  1  0  0  0  0
  5  3  2  0  0  0  0
  6  5  1  0  0  0  0
  7  2  2  0  0  0  0
  9  3  1  0  0  0  0
 10  6  1  0  0  0  0
 10 14  1  1  0  0  0
 11 15  1  0  0  0  0
 11  6  2  0  0  0  0
 12 11  1  0  0  0  0
 13 10  1  0  0  0  0
 14  9  2  0  0  0  0
 16 13  1  0  0  0  0
 17 16  1  0  0  0  0
 18 19  1  0  0  0  0
 18 20  1  0  0  0  0
 19 21  2  0  0  0  0
 20 17  2  0  0  0  0
 21 17  1  0  0  0  0
 22 27  1  0  0  0  0
 23 25  2  0  0  0  0
 23 26  1  0  0  0  0
 24 27  2  0  0  0  0
 25 24  1  0  0  0  0
 26 22  2  0  0  0  0
 27 18  1  0  0  0  0
M  END
>  <MODEL>
1

>  <REMARK>
 VINA RESULT:      -9.4      0.000      0.000
  Name = 
  3 active torsions:
  status: ('A' for Active; 'I' for Inactive)
    1  A    between atoms: C_13  and  C_17
    2  A    between atoms: C_17  and  N_20
    3  A    between atoms: N_21  and  C_24
                            x       y       z     vdW  Elec       q    Type
                         _______ _______ _______ _____ _____    ______ ____

>  <TORSDO>
F 3

$$$$
=
 OpenBabel10232411373D

 27 31  0  0  0  0  0  0  0  0999 V2000
  187.8450  177.6550  143.4690 N   0  0  0  0  0  0  0  0  0  0  0  0
  190.6240  177.3090  141.2880 C   0  0  0  0  0  0  0  0  0  0  0  0
  191.5070  176.5640  146.7710 C   0  0  0  0  0  0  0  0  0  0  0  0
  189.1460  177.5790  141.3540 C   0  0  0  0  0  2  0  0  0  0  0  0
  191.5620  176.9830  145.5030 C   0  0  0  0  0  2  0  0  0  0  0  0
  190.3170  177.3610  144.8150 C   0  0  0  0  0  0  0  0  0  0  0  0
  191.2480  177.1730  140.2040 O   0  0  0  0  0  0  0  0  0  0  0  0
  192.6470  176.1960  147.4040 F   0  0  0  0  0  0  0  0  0  0  0  0
  190.2050  176.3960  147.4560 C   0  0  0  0  0  3  0  0  0  0  0  0
  189.0920  177.6810  145.6510 C   0  0  0  0  0  0  0  0  0  0  0  0
  190.2310  177.4390  143.4900 C   0  0  0  0  0  0  0  0  0  0  0  0
  188.9700  177.6350  142.8270 C   0  0  0  0  0  0  0  0  0  0  0  0
  187.8330  177.5740  144.8790 N   0  0  0  0  0  0  0  0  0  0  0  0
  189.0710  176.8660  146.9210 C   0  0  0  0  0  3  0  0  0  0  0  0
  191.2740  177.2110  142.5580 N   0  0  0  0  0  2  0  0  0  0  0  0
  186.5540  177.7210  145.5600 C   0  0  0  0  0  2  0  0  0  0  0  0
  185.5530  178.3420  144.6480 C   0  0  0  0  0  0  0  0  0  0  0  0
  184.3710  178.7780  142.8460 N   0  0  0  0  0  0  0  0  0  0  0  0
  183.8500  179.4850  143.8700 C   0  0  0  0  0  3  0  0  0  0  0  0
  185.4150  178.0640  143.3070 C   0  0  0  0  0  3  0  0  0  0  0  0
  184.5670  179.2310  145.0270 C   0  0  0  0  0  3  0  0  0  0  0  0
  182.5320  178.5300  141.2200 C   0  0  0  0  0  3  0  0  0  0  0  0
  182.9410  178.7780  138.8470 C   0  0  0  0  0  3  0  0  0  0  0  0
  184.7620  179.0280  140.4230 C   0  0  0  0  0  3  0  0  0  0  0  0
  184.2910  179.0270  139.1060 C   0  0  0  0  0  3  0  0  0  0  0  0
  182.0610  178.5300  139.9040 C   0  0  0  0  0  3  0  0  0  0  0  0
  183.8870  178.7780  141.4930 C   0  0  0  0  0  0  0  0  0  0  0  0
  1 13  1  0  0  0  0
  2  4  1  0  0  0  0
  2 15  1  0  0  0  0
  3  8  1  0  0  0  0
  3  9  2  0  0  0  0
  4 12  1  0  0  0  0
  5  3  1  0  0  0  0
  6  5  1  0  0  0  0
  6 10  1  0  0  0  0
  7  2  2  0  0  0  0
 10 14  2  0  0  0  0
 11  6  2  0  0  0  0
 12  1  2  0  0  0  0
 12 11  1  0  0  0  0
 13 16  1  0  0  0  0
 13 10  1  0  0  0  0
 14  9  1  0  0  0  0
 15 11  1  0  0  0  0
 17 21  1  0  0  0  0
 17 16  1  0  0  0  0
 18 20  1  0  0  0  0
 18 19  1  0  0  0  0
 19 21  2  0  0  0  0
 20 17  2  0  0  0  0
 22 27  1  0  0  0  0
 23 25  2  0  0  0  0
 23 26  1  0  0  0  0
 24 27  2  0  0  0  0
 25 24  1  0  0  0  0
 26 22  2  0  0  0  0
 27 18  1  0  0  0  0
M  END
>  <MODEL>
2

>  <REMARK>
 VINA RESULT:      -9.3      2.933      5.498
  Name = 
  3 active torsions:
  status: ('A' for Active; 'I' for Inactive)
    1  A    between atoms: C_13  and  C_17
    2  A    between atoms: C_17  and  N_20
    3  A    between atoms: N_21  and  C_24
                            x       y       z     vdW  Elec       q    Type
                         _______ _______ _______ _____ _____    ______ ____

>  <TORSDO>
F 3

$$$$
=
 OpenBabel10232411373D

 27 31  0  0  1  0  0  0  0  0999 V2000
  190.3250  176.5080  143.8990 N   0  0  0  0  0  0  0  0  0  0  0  0
  191.6770  176.2380  147.1700 C   0  0  0  0  0  0  0  0  0  0  0  0
  186.4380  178.1590  146.6670 C   0  0  0  0  0  0  0  0  0  0  0  0
  191.9500  176.0030  145.7090 C   0  0  0  0  0  2  0  0  0  0  0  0
  187.7310  178.0100  146.9680 C   0  0  0  0  0  3  0  0  0  0  0  0
  188.6790  177.6350  145.9060 C   0  0  0  0  0  0  0  0  0  0  0  0
  192.4690  175.8830  148.0800 O   0  0  0  0  0  0  0  0  0  0  0  0
  185.5570  178.4870  147.6440 F   0  0  0  0  0  0  0  0  0  0  0  0
  185.9400  177.8670  145.3040 C   0  0  0  0  0  3  0  0  0  0  0  0
  188.2720  177.8430  144.4600 C   0  0  1  0  0  3  0  0  0  0  0  0
  189.8790  177.1260  146.1700 C   0  0  0  0  0  0  0  0  0  0  0  0
  190.7210  176.6000  145.1300 C   0  0  0  0  0  0  0  0  0  0  0  0
  189.0630  177.0160  143.5210 N   0  0  0  0  0  0  0  0  0  0  0  0
  186.7830  177.6690  144.2830 C   0  0  0  0  0  3  0  0  0  0  0  0
  190.4380  176.8940  147.4520 N   0  0  0  0  0  2  0  0  0  0  0  0
  188.7150  176.9970  142.1070 C   0  0  0  0  0  2  0  0  0  0  0  0
  189.9500  177.0410  141.2730 C   0  0  0  0  0  0  0  0  0  0  0  0
  191.3040  176.8470  139.5510 N   0  0  0  0  0  0  0  0  0  0  0  0
  191.9720  177.4740  140.5420 C   0  0  0  0  0  3  0  0  0  0  0  0
  190.0560  176.5790  139.9810 C   0  0  0  0  0  3  0  0  0  0  0  0
  191.1470  177.6210  141.6430 C   0  0  0  0  0  3  0  0  0  0  0  0
  193.2180  176.4890  138.0370 C   0  0  0  0  0  3  0  0  0  0  0  0
  192.8620  175.9030  135.7150 C   0  0  0  0  0  3  0  0  0  0  0  0
  190.9660  176.2470  137.1820 C   0  0  0  0  0  3  0  0  0  0  0  0
  191.4800  175.9370  135.9190 C   0  0  0  0  0  3  0  0  0  0  0  0
  193.7300  176.1780  136.7750 C   0  0  0  0  0  3  0  0  0  0  0  0
  191.8310  176.5270  138.2530 C   0  0  0  0  0  0  0  0  0  0  0  0
  1 12  2  0  0  0  0
  2 15  1  0  0  0  0
  2  7  2  0  0  0  0
  3  5  2  0  0  0  0
  3  8  1  0  0  0  0
  4  2  1  0  0  0  0
  6 11  2  0  0  0  0
  6  5  1  0  0  0  0
  9  3  1  0  0  0  0
 10 14  1  1  0  0  0
 10  6  1  0  0  0  0
 11 15  1  0  0  0  0
 12  4  1  0  0  0  0
 12 11  1  0  0  0  0
 13  1  1  0  0  0  0
 13 10  1  0  0  0  0
 14  9  2  0  0  0  0
 16 13  1  0  0  0  0
 17 21  1  0  0  0  0
 17 16  1  0  0  0  0
 18 20  1  0  0  0  0
 18 19  1  0  0  0  0
 19 21  2  0  0  0  0
 20 17  2  0  0  0  0
 22 27  1  0  0  0  0
 23 25  2  0  0  0  0
 23 26  1  0  0  0  0
 24 27  2  0  0  0  0
 25 24  1  0  0  0  0
 26 22  2  0  0  0  0
 27 18  1  0  0  0  0
M  END
>  <MODEL>
3

>  <REMARK>
 VINA RESULT:      -9.2      2.702      4.051
  Name = 
  3 active torsions:
  status: ('A' for Active; 'I' for Inactive)
    1  A    between atoms: C_13  and  C_17
    2  A    between atoms: C_17  and  N_20
    3  A    between atoms: N_21  and  C_24
                            x       y       z     vdW  Elec       q    Type
                         _______ _______ _______ _____ _____    ______ ____

>  <TORSDO>
F 3

$$$$
=
 OpenBabel10232411373D

 27 31  0  0  1  0  0  0  0  0999 V2000
  186.9110  177.6500  143.2090 N   0  0  0  0  0  0  0  0  0  0  0  0
  183.8940  178.9480  144.5530 C   0  0  0  0  0  0  0  0  0  0  0  0
  188.1530  178.0680  148.0860 C   0  0  0  0  0  0  0  0  0  0  0  0
  184.5840  178.5120  143.2900 C   0  0  0  0  0  2  0  0  0  0  0  0
  186.9630  178.0660  147.4790 C   0  0  0  0  0  3  0  0  0  0  0  0
  186.8910  177.7840  146.0360 C   0  0  0  0  0  0  0  0  0  0  0  0
  182.7530  179.4770  144.5630 O   0  0  0  0  0  0  0  0  0  0  0  0
  188.2280  178.3450  149.4110 F   0  0  0  0  0  0  0  0  0  0  0  0
  189.3990  177.8740  147.3100 C   0  0  0  0  0  3  0  0  0  0  0  0
  188.0660  177.0910  145.3700 C   0  0  1  0  0  3  0  0  0  0  0  0
  185.8330  178.1070  145.2990 C   0  0  0  0  0  0  0  0  0  0  0  0
  185.8470  177.9880  143.8650 C   0  0  0  0  0  0  0  0  0  0  0  0
  188.0880  177.2930  143.9040 N   0  0  0  0  0  0  0  0  0  0  0  0
  189.3680  177.4700  146.0330 C   0  0  0  0  0  3  0  0  0  0  0  0
  184.6400  178.7220  145.7530 N   0  0  0  0  0  2  0  0  0  0  0  0
  189.2190  176.8050  143.1260 C   0  0  0  0  0  2  0  0  0  0  0  0
  189.1570  177.3410  141.7370 C   0  0  0  0  0  0  0  0  0  0  0  0
  189.3440  177.4770  139.5500 N   0  0  0  0  0  0  0  0  0  0  0  0
  188.6830  178.5710  139.9830 C   0  0  0  0  0  3  0  0  0  0  0  0
  189.6370  176.7070  140.6140 C   0  0  0  0  0  3  0  0  0  0  0  0
  188.5400  178.5180  141.3590 C   0  0  0  0  0  3  0  0  0  0  0  0
  190.7460  176.3280  137.8760 C   0  0  0  0  0  3  0  0  0  0  0  0
  190.3120  176.5980  135.5100 C   0  0  0  0  0  3  0  0  0  0  0  0
  188.9210  177.7350  137.1330 C   0  0  0  0  0  3  0  0  0  0  0  0
  189.2410  177.4450  135.8030 C   0  0  0  0  0  3  0  0  0  0  0  0
  191.0640  176.0390  136.5470 C   0  0  0  0  0  3  0  0  0  0  0  0
  189.6710  177.1800  138.1830 C   0  0  0  0  0  0  0  0  0  0  0  0
  1 12  2  0  0  0  0
  1 13  1  0  0  0  0
  2  7  2  0  0  0  0
  2 15  1  0  0  0  0
  3  8  1  0  0  0  0
  4 12  1  0  0  0  0
  4  2  1  0  0  0  0
  5  3  2  0  0  0  0
  6  5  1  0  0  0  0
  9  3  1  0  0  0  0
 10 14  1  1  0  0  0
 10  6  1  0  0  0  0
 11 15  1  0  0  0  0
 11  6  2  0  0  0  0
 12 11  1  0  0  0  0
 13 10  1  0  0  0  0
 14  9  2  0  0  0  0
 16 13  1  0  0  0  0
 17 16  1  0  0  0  0
 18 19  1  0  0  0  0
 18 20  1  0  0  0  0
 19 21  2  0  0  0  0
 20 17  2  0  0  0  0
 21 17  1  0  0  0  0
 22 27  1  0  0  0  0
 23 25  2  0  0  0  0
 23 26  1  0  0  0  0
 24 27  2  0  0  0  0
 25 24  1  0  0  0  0
 26 22  2  0  0  0  0
 27 18  1  0  0  0  0
M  END
>  <MODEL>
4

>  <REMARK>
 VINA RESULT:      -9.0      1.125      1.648
  Name = 
  3 active torsions:
  status: ('A' for Active; 'I' for Inactive)
    1  A    between atoms: C_13  and  C_17
    2  A    between atoms: C_17  and  N_20
    3  A    between atoms: N_21  and  C_24
                            x       y       z     vdW  Elec       q    Type
                         _______ _______ _______ _____ _____    ______ ____

>  <TORSDO>
F 3

$$$$
=
 OpenBabel10232411373D

 27 31  0  0  0  0  0  0  0  0999 V2000
  185.8280  178.6350  143.4270 N   0  0  0  0  0  0  0  0  0  0  0  0
  186.9220  178.6140  140.0500 C   0  0  0  0  0  0  0  0  0  0  0  0
  181.4150  179.0150  141.0020 C   0  0  0  0  0  0  0  0  0  0  0  0
  187.3750  178.5790  141.4840 C   0  0  0  0  0  2  0  0  0  0  0  0
  182.6240  178.6380  140.5740 C   0  0  0  0  0  2  0  0  0  0  0  0
  183.7170  178.4850  141.5490 C   0  0  0  0  0  0  0  0  0  0  0  0
  187.7210  178.6880  139.0810 O   0  0  0  0  0  0  0  0  0  0  0  0
  180.4090  179.1750  140.1080 F   0  0  0  0  0  0  0  0  0  0  0  0
  181.1900  179.3620  142.4230 C   0  0  0  0  0  3  0  0  0  0  0  0
  183.3670  178.3340  143.0170 C   0  0  0  0  0  0  0  0  0  0  0  0
  184.9960  178.4690  141.1870 C   0  0  0  0  0  0  0  0  0  0  0  0
  186.0560  178.4990  142.1580 C   0  0  0  0  0  0  0  0  0  0  0  0
  184.5010  178.6660  143.9090 N   0  0  0  0  0  0  0  0  0  0  0  0
  182.1100  179.0960  143.3590 C   0  0  0  0  0  3  0  0  0  0  0  0
  185.5040  178.5630  139.8670 N   0  0  0  0  0  2  0  0  0  0  0  0
  184.2990  178.6990  145.3510 C   0  0  0  0  0  2  0  0  0  0  0  0
  185.5850  178.4350  146.0570 C   0  0  0  0  0  0  0  0  0  0  0  0
  187.6800  177.8740  146.4220 N   0  0  0  0  0  0  0  0  0  0  0  0
  187.1760  178.3830  147.5660 C   0  0  0  0  0  3  0  0  0  0  0  0
  186.7170  177.9050  145.4810 C   0  0  0  0  0  3  0  0  0  0  0  0
  185.8580  178.7550  147.3730 C   0  0  0  0  0  3  0  0  0  0  0  0
  189.7970  177.0000  147.3380 C   0  0  0  0  0  3  0  0  0  0  0  0
  191.6400  176.4450  145.8700 C   0  0  0  0  0  3  0  0  0  0  0  0
  189.5720  177.3000  144.9470 C   0  0  0  0  0  3  0  0  0  0  0  0
  190.8770  176.8300  144.7660 C   0  0  0  0  0  3  0  0  0  0  0  0
  191.1000  176.5300  147.1560 C   0  0  0  0  0  3  0  0  0  0  0  0
  189.0200  177.3900  146.2350 C   0  0  0  0  0  0  0  0  0  0  0  0
  1 13  1  0  0  0  0
  2  4  1  0  0  0  0
  3  9  2  0  0  0  0
  4 12  1  0  0  0  0
  5  3  1  0  0  0  0
  5  6  1  0  0  0  0
  6 10  1  0  0  0  0
  7  2  2  0  0  0  0
  8  3  1  0  0  0  0
  9 14  1  0  0  0  0
 10 14  2  0  0  0  0
 10 13  1  0  0  0  0
 11  6  2  0  0  0  0
 11 12  1  0  0  0  0
 12  1  2  0  0  0  0
 13 16  1  0  0  0  0
 15  2  1  0  0  0  0
 15 11  1  0  0  0  0
 16 17  1  0  0  0  0
 17 21  1  0  0  0  0
 18 19  1  0  0  0  0
 20 17  2  0  0  0  0
 20 18  1  0  0  0  0
 21 19  2  0  0  0  0
 23 26  2  0  0  0  0
 24 27  1  0  0  0  0
 25 24  2  0  0  0  0
 25 23  1  0  0  0  0
 26 22  1  0  0  0  0
 27 18  1  0  0  0  0
 27 22  2  0  0  0  0
M  END
>  <MODEL>
5

>  <REMARK>
 VINA RESULT:      -8.8      3.728      7.317
  Name = 
  3 active torsions:
  status: ('A' for Active; 'I' for Inactive)
    1  A    between atoms: C_13  and  C_17
    2  A    between atoms: C_17  and  N_20
    3  A    between atoms: N_21  and  C_24
                            x       y       z     vdW  Elec       q    Type
                         _______ _______ _______ _____ _____    ______ ____

>  <TORSDO>
F 3

$$$$
=
 OpenBabel10232411373D

 27 31  0  0  0  0  0  0  0  0999 V2000
  186.5960  178.6800  141.9390 N   0  0  0  0  0  0  0  0  0  0  0  0
  183.3560  178.7430  143.3850 C   0  0  0  0  0  0  0  0  0  0  0  0
  183.7270  177.8880  137.8600 C   0  0  0  0  0  0  0  0  0  0  0  0
  184.8280  178.8370  143.6760 C   0  0  0  0  0  2  0  0  0  0  0  0
  183.4210  178.3600  139.0720 C   0  0  0  0  0  2  0  0  0  0  0  0
  184.5020  178.6200  140.0370 C   0  0  0  0  0  0  0  0  0  0  0  0
  182.4790  178.7220  144.2860 O   0  0  0  0  0  0  0  0  0  0  0  0
  182.7360  177.6290  136.9730 F   0  0  0  0  0  0  0  0  0  0  0  0
  185.1250  177.5450  137.5120 C   0  0  0  0  0  3  0  0  0  0  0  0
  185.9210  178.7630  139.5200 C   0  0  0  0  0  0  0  0  0  0  0  0
  184.2770  178.7390  141.3420 C   0  0  0  0  0  0  0  0  0  0  0  0
  185.3570  178.8150  142.2900 C   0  0  0  0  0  0  0  0  0  0  0  0
  186.9360  178.5430  140.5750 N   0  0  0  0  0  0  0  0  0  0  0  0
  186.1460  177.9020  138.3010 C   0  0  0  0  0  3  0  0  0  0  0  0
  183.0210  178.6700  141.9960 N   0  0  0  0  0  2  0  0  0  0  0  0
  188.3490  178.5140  140.2230 C   0  0  0  0  0  2  0  0  0  0  0  0
  189.1200  177.7580  141.2500 C   0  0  0  0  0  0  0  0  0  0  0  0
  189.8910  177.0930  143.1990 N   0  0  0  0  0  0  0  0  0  0  0  0
  190.3540  176.2480  142.2540 C   0  0  0  0  0  3  0  0  0  0  0  0
  189.1240  178.0240  142.6000 C   0  0  0  0  0  3  0  0  0  0  0  0
  189.8840  176.6320  141.0100 C   0  0  0  0  0  3  0  0  0  0  0  0
  191.4230  176.6000  145.0680 C   0  0  0  0  0  3  0  0  0  0  0  0
  190.6880  176.8410  147.3620 C   0  0  0  0  0  3  0  0  0  0  0  0
  189.1660  177.3320  145.5450 C   0  0  0  0  0  3  0  0  0  0  0  0
  189.4290  177.2480  146.9160 C   0  0  0  0  0  3  0  0  0  0  0  0
  191.6850  176.5170  146.4380 C   0  0  0  0  0  3  0  0  0  0  0  0
  190.1610  177.0080  144.6080 C   0  0  0  0  0  0  0  0  0  0  0  0
  1 12  2  0  0  0  0
  2  4  1  0  0  0  0
  2  7  2  0  0  0  0
  3  5  1  0  0  0  0
  5  6  1  0  0  0  0
  6 11  2  0  0  0  0
  8  3  1  0  0  0  0
  9  3  2  0  0  0  0
  9 14  1  0  0  0  0
 10  6  1  0  0  0  0
 10 13  1  0  0  0  0
 11 15  1  0  0  0  0
 11 12  1  0  0  0  0
 12  4  1  0  0  0  0
 13  1  1  0  0  0  0
 14 10  2  0  0  0  0
 15  2  1  0  0  0  0
 16 13  1  0  0  0  0
 16 17  1  0  0  0  0
 17 20  2  0  0  0  0
 18 27  1  0  0  0  0
 19 18  1  0  0  0  0
 20 18  1  0  0  0  0
 21 17  1  0  0  0  0
 21 19  2  0  0  0  0
 22 26  1  0  0  0  0
 24 25  2  0  0  0  0
 25 23  1  0  0  0  0
 26 23  2  0  0  0  0
 27 22  2  0  0  0  0
 27 24  1  0  0  0  0
M  END
>  <MODEL>
6

>  <REMARK>
 VINA RESULT:      -8.7      3.563      6.924
  Name = 
  3 active torsions:
  status: ('A' for Active; 'I' for Inactive)
    1  A    between atoms: C_13  and  C_17
    2  A    between atoms: C_17  and  N_20
    3  A    between atoms: N_21  and  C_24
                            x       y       z     vdW  Elec       q    Type
                         _______ _______ _______ _____ _____    ______ ____

>  <TORSDO>
F 3

$$$$
=
 OpenBabel10232411373D

 27 31  0  0  0  0  0  0  0  0999 V2000
  188.3490  177.8520  141.1530 N   0  0  0  0  0  0  0  0  0  0  0  0
  185.2260  179.0300  139.9500 C   0  0  0  0  0  0  0  0  0  0  0  0
  188.9010  177.0900  136.1920 C   0  0  0  0  0  0  0  0  0  0  0  0
  186.0500  178.7890  141.1850 C   0  0  0  0  0  2  0  0  0  0  0  0
  188.0340  177.8440  136.8750 C   0  0  0  0  0  2  0  0  0  0  0  0
  188.1970  177.9870  138.3310 C   0  0  0  0  0  0  0  0  0  0  0  0
  184.0270  179.4090  139.9890 O   0  0  0  0  0  0  0  0  0  0  0  0
  188.7460  176.9380  134.8540 F   0  0  0  0  0  0  0  0  0  0  0  0
  189.9630  176.3340  136.8940 C   0  0  0  0  0  3  0  0  0  0  0  0
  189.5420  177.6550  138.9500 C   0  0  0  0  0  0  0  0  0  0  0  0
  187.2110  178.4030  139.1190 C   0  0  0  0  0  0  0  0  0  0  0  0
  187.3250  178.3700  140.5530 C   0  0  0  0  0  0  0  0  0  0  0  0
  189.4460  177.3780  140.4010 N   0  0  0  0  0  0  0  0  0  0  0  0
  190.2340  176.5520  138.1870 C   0  0  0  0  0  3  0  0  0  0  0  0
  185.9080  178.7890  138.7160 N   0  0  0  0  0  2  0  0  0  0  0  0
  190.6220  176.9150  141.1250 C   0  0  0  0  0  2  0  0  0  0  0  0
  190.5830  177.4000  142.5340 C   0  0  0  0  0  0  0  0  0  0  0  0
  189.9090  177.7340  144.6000 N   0  0  0  0  0  0  0  0  0  0  0  0
  191.1490  178.2540  144.4740 C   0  0  0  0  0  3  0  0  0  0  0  0
  189.5490  177.1990  143.4190 C   0  0  0  0  0  3  0  0  0  0  0  0
  191.6100  178.0560  143.1840 C   0  0  0  0  0  3  0  0  0  0  0  0
  189.7220  177.6570  147.0590 C   0  0  0  0  0  3  0  0  0  0  0  0
  187.5560  177.7550  148.1350 C   0  0  0  0  0  3  0  0  0  0  0  0
  187.7130  177.8340  145.7200 C   0  0  0  0  0  3  0  0  0  0  0  0
  186.9390  177.8400  146.8840 C   0  0  0  0  0  3  0  0  0  0  0  0
  188.9480  177.6640  148.2220 C   0  0  0  0  0  3  0  0  0  0  0  0
  189.1130  177.7420  145.7960 C   0  0  0  0  0  0  0  0  0  0  0  0
  2  7  2  0  0  0  0
  2  4  1  0  0  0  0
  3  5  1  0  0  0  0
  3  9  2  0  0  0  0
  5  6  1  0  0  0  0
  6 10  1  0  0  0  0
  6 11  2  0  0  0  0
  8  3  1  0  0  0  0
  9 14  1  0  0  0  0
 10 13  1  0  0  0  0
 11 12  1  0  0  0  0
 12  1  2  0  0  0  0
 12  4  1  0  0  0  0
 13 16  1  0  0  0  0
 13  1  1  0  0  0  0
 14 10  2  0  0  0  0
 15 11  1  0  0  0  0
 15  2  1  0  0  0  0
 16 17  1  0  0  0  0
 17 21  1  0  0  0  0
 17 20  2  0  0  0  0
 18 27  1  0  0  0  0
 19 18  1  0  0  0  0
 20 18  1  0  0  0  0
 21 19  2  0  0  0  0
 22 26  1  0  0  0  0
 23 26  2  0  0  0  0
 24 27  1  0  0  0  0
 24 25  2  0  0  0  0
 25 23  1  0  0  0  0
 27 22  2  0  0  0  0
M  END
>  <MODEL>
7

>  <REMARK>
 VINA RESULT:      -8.7      3.369      7.514
  Name = 
  3 active torsions:
  status: ('A' for Active; 'I' for Inactive)
    1  A    between atoms: C_13  and  C_17
    2  A    between atoms: C_17  and  N_20
    3  A    between atoms: N_21  and  C_24
                            x       y       z     vdW  Elec       q    Type
                         _______ _______ _______ _____ _____    ______ ____

>  <TORSDO>
F 3

$$$$
=
 OpenBabel10232411373D

 27 31  0  0  1  0  0  0  0  0999 V2000
  187.4260  178.4180  142.1140 N   0  0  0  0  0  0  0  0  0  0  0  0
  184.0810  178.7880  143.2390 C   0  0  0  0  0  0  0  0  0  0  0  0
  187.9750  177.4540  147.0400 C   0  0  0  0  0  0  0  0  0  0  0  0
  184.9850  178.8730  142.0410 C   0  0  0  0  0  2  0  0  0  0  0  0
  186.8870  177.4750  146.2640 C   0  0  0  0  0  3  0  0  0  0  0  0
  187.0430  177.6530  144.8110 C   0  0  0  0  0  0  0  0  0  0  0  0
  182.8680  179.1210  143.2070 O   0  0  0  0  0  0  0  0  0  0  0  0
  187.8380  177.3100  148.3810 F   0  0  0  0  0  0  0  0  0  0  0  0
  189.3190  177.6920  146.4660 C   0  0  0  0  0  3  0  0  0  0  0  0
  188.3980  177.3780  144.1850 C   0  0  1  0  0  3  0  0  0  0  0  0
  186.0390  178.0390  144.0300 C   0  0  0  0  0  0  0  0  0  0  0  0
  186.2460  178.3790  142.6480 C   0  0  0  0  0  0  0  0  0  0  0  0
  188.5570  178.0310  142.8660 N   0  0  0  0  0  0  0  0  0  0  0  0
  189.5170  177.7100  145.1420 C   0  0  0  0  0  3  0  0  0  0  0  0
  184.7060  178.3050  144.4320 N   0  0  0  0  0  2  0  0  0  0  0  0
  189.8440  177.9780  142.1860 C   0  0  0  0  0  2  0  0  0  0  0  0
  189.6700  177.4710  140.7950 C   0  0  0  0  0  0  0  0  0  0  0  0
  188.9230  177.2570  138.7380 N   0  0  0  0  0  0  0  0  0  0  0  0
  189.9780  176.4290  138.8890 C   0  0  0  0  0  3  0  0  0  0  0  0
  188.7240  177.9110  139.8980 C   0  0  0  0  0  3  0  0  0  0  0  0
  190.4810  176.5410  140.1740 C   0  0  0  0  0  3  0  0  0  0  0  0
  186.7480  177.5040  137.6000 C   0  0  0  0  0  3  0  0  0  0  0  0
  186.6350  177.7420  135.1940 C   0  0  0  0  0  3  0  0  0  0  0  0
  188.7820  177.5040  136.2870 C   0  0  0  0  0  3  0  0  0  0  0  0
  188.0280  177.6630  135.1200 C   0  0  0  0  0  3  0  0  0  0  0  0
  185.9950  177.6630  136.4340 C   0  0  0  0  0  3  0  0  0  0  0  0
  188.1490  177.4220  137.5380 C   0  0  0  0  0  0  0  0  0  0  0  0
  1 12  2  0  0  0  0
  1 13  1  0  0  0  0
  2 15  1  0  0  0  0
  3  8  1  0  0  0  0
  4 12  1  0  0  0  0
  4  2  1  0  0  0  0
  5  3  2  0  0  0  0
  6  5  1  0  0  0  0
  7  2  2  0  0  0  0
  9  3  1  0  0  0  0
 10  6  1  0  0  0  0
 10 14  1  1  0  0  0
 11 15  1  0  0  0  0
 11  6  2  0  0  0  0
 12 11  1  0  0  0  0
 13 10  1  0  0  0  0
 14  9  2  0  0  0  0
 16 13  1  0  0  0  0
 17 16  1  0  0  0  0
 18 19  1  0  0  0  0
 18 20  1  0  0  0  0
 19 21  2  0  0  0  0
 20 17  2  0  0  0  0
 21 17  1  0  0  0  0
 23 26  1  0  0  0  0
 24 27  2  0  0  0  0
 25 23  2  0  0  0  0
 25 24  1  0  0  0  0
 26 22  2  0  0  0  0
 27 22  1  0  0  0  0
 27 18  1  0  0  0  0
M  END
>  <MODEL>
8

>  <REMARK>
 VINA RESULT:      -8.6      1.526      1.996
  Name = 
  3 active torsions:
  status: ('A' for Active; 'I' for Inactive)
    1  A    between atoms: C_13  and  C_17
    2  A    between atoms: C_17  and  N_20
    3  A    between atoms: N_21  and  C_24
                            x       y       z     vdW  Elec       q    Type
                         _______ _______ _______ _____ _____    ______ ____

>  <TORSDO>
F 3

$$$$
=
 OpenBabel10232411373D

 27 31  0  0  0  0  0  0  0  0999 V2000
  186.5950  178.8170  140.4200 N   0  0  0  0  0  0  0  0  0  0  0  0
  183.2750  178.6350  139.1810 C   0  0  0  0  0  0  0  0  0  0  0  0
  187.3040  176.1200  136.2100 C   0  0  0  0  0  0  0  0  0  0  0  0
  184.1360  179.1420  140.3050 C   0  0  0  0  0  2  0  0  0  0  0  0
  186.2810  176.8830  136.6030 C   0  0  0  0  0  2  0  0  0  0  0  0
  186.4070  177.6770  137.8360 C   0  0  0  0  0  0  0  0  0  0  0  0
  182.0190  178.7180  139.1880 O   0  0  0  0  0  0  0  0  0  0  0  0
  187.1890  175.3720  135.0850 F   0  0  0  0  0  0  0  0  0  0  0  0
  188.5220  175.9980  137.0440 C   0  0  0  0  0  3  0  0  0  0  0  0
  187.7930  177.9520  138.3870 C   0  0  0  0  0  0  0  0  0  0  0  0
  185.3500  178.1650  138.4800 C   0  0  0  0  0  0  0  0  0  0  0  0
  185.4740  178.7830  139.7720 C   0  0  0  0  0  0  0  0  0  0  0  0
  187.7730  178.3180  139.8210 N   0  0  0  0  0  0  0  0  0  0  0  0
  188.7340  176.8100  138.0870 C   0  0  0  0  0  3  0  0  0  0  0  0
  183.9920  178.0390  138.0960 N   0  0  0  0  0  2  0  0  0  0  0  0
  189.0290  178.4880  140.5400 C   0  0  0  0  0  2  0  0  0  0  0  0
  188.9820  177.7560  141.8370 C   0  0  0  0  0  0  0  0  0  0  0  0
  188.7270  177.3370  143.9810 N   0  0  0  0  0  0  0  0  0  0  0  0
  188.9280  176.1640  143.3450 C   0  0  0  0  0  3  0  0  0  0  0  0
  188.7510  178.3260  143.0680 C   0  0  0  0  0  3  0  0  0  0  0  0
  189.0860  176.3870  141.9890 C   0  0  0  0  0  3  0  0  0  0  0  0
  187.2530  177.8770  145.8840 C   0  0  0  0  0  3  0  0  0  0  0  0
  188.0980  177.8290  148.1520 C   0  0  0  0  0  3  0  0  0  0  0  0
  189.5650  177.2940  146.3010 C   0  0  0  0  0  3  0  0  0  0  0  0
  189.3570  177.4560  147.6740 C   0  0  0  0  0  3  0  0  0  0  0  0
  187.0460  178.0380  147.2560 C   0  0  0  0  0  3  0  0  0  0  0  0
  188.5150  177.5030  145.3920 C   0  0  0  0  0  0  0  0  0  0  0  0
  2  7  2  0  0  0  0
  2  4  1  0  0  0  0
  3  5  1  0  0  0  0
  3  9  2  0  0  0  0
  5  6  1  0  0  0  0
  6 10  1  0  0  0  0
  6 11  2  0  0  0  0
  8  3  1  0  0  0  0
  9 14  1  0  0  0  0
 10 13  1  0  0  0  0
 11 12  1  0  0  0  0
 12  4  1  0  0  0  0
 12  1  2  0  0  0  0
 13  1  1  0  0  0  0
 13 16  1  0  0  0  0
 14 10  2  0  0  0  0
 15 11  1  0  0  0  0
 15  2  1  0  0  0  0
 16 17  1  0  0  0  0
 17 21  1  0  0  0  0
 17 20  2  0  0  0  0
 18 27  1  0  0  0  0
 19 18  1  0  0  0  0
 20 18  1  0  0  0  0
 21 19  2  0  0  0  0
 22 26  1  0  0  0  0
 24 25  2  0  0  0  0
 25 23  1  0  0  0  0
 26 23  2  0  0  0  0
 27 22  2  0  0  0  0
 27 24  1  0  0  0  0
M  END
>  <MODEL>
9

>  <REMARK>
 VINA RESULT:      -8.6      3.871      7.732
  Name = 
  3 active torsions:
  status: ('A' for Active; 'I' for Inactive)
    1  A    between atoms: C_13  and  C_17
    2  A    between atoms: C_17  and  N_20
    3  A    between atoms: N_21  and  C_24
                            x       y       z     vdW  Elec       q    Type
                         _______ _______ _______ _____ _____    ______ ____

>  <TORSDO>
F 3

$$$$
