=
 OpenBabel10232410013D

 26 29  0  0  1  0  0  0  0  0999 V2000
  189.0880  176.9790  143.2450 C   0  0  0  0  0  0  0  0  0  0  0  0
  189.1670  177.7170  145.5790 C   0  0  0  0  0  3  0  0  0  0  0  0
  189.7460  176.5360  141.9770 C   0  0  0  0  0  2  0  0  0  0  0  0
  192.0120  177.2120  143.1740 N   0  0  0  0  0  2  0  0  0  0  0  0
  185.5950  177.5550  144.7320 C   0  0  2  0  0  3  0  0  0  0  0  0
  190.6810  177.6230  141.4280 C   0  0  1  0  0  3  0  0  0  0  0  0
  187.0550  177.5040  144.4190 C   0  0  0  0  0  0  0  0  0  0  0  0
  183.5980  179.1720  145.7630 N   0  0  0  0  0  2  0  0  0  0  0  0
  184.6980  178.8750  146.5870 N   0  0  0  0  0  0  0  0  0  0  0  0
  183.7030  179.0200  144.3650 N   0  0  0  0  0  0  0  0  0  0  0  0
  184.7010  178.3710  143.8360 C   0  0  0  0  0  0  0  0  0  0  0  0
  185.6760  178.1930  146.0830 C   0  0  0  0  0  0  0  0  0  0  0  0
  187.7780  177.8010  145.5580 C   0  0  0  0  0  0  0  0  0  0  0  0
  186.9610  178.1870  146.6080 O   0  0  0  0  0  0  0  0  0  0  0  0
  189.8420  177.3060  144.4150 C   0  0  0  0  0  0  0  0  0  0  0  0
  191.7900  176.0220  145.2790 C   0  0  0  0  0  1  0  0  0  0  0  0
  187.6870  177.0630  143.2590 C   0  0  0  0  0  3  0  0  0  0  0  0
  191.3560  177.2390  144.4820 C   0  0  1  0  0  3  0  0  0  0  0  0
  184.7580  178.2050  142.3570 C   0  0  0  0  0  1  0  0  0  0  0  0
  191.5020  178.2200  142.4140 O   0  0  0  0  0  0  0  0  0  0  0  0
  191.5090  177.0770  140.2750 C   0  0  0  0  0  2  0  0  0  0  0  0
  190.6770  176.2570  139.4130 N   0  0  0  0  0  2  0  0  0  0  0  0
  190.4330  177.0320  138.2090 C   0  0  0  0  0  2  0  0  0  0  0  0
  189.0630  179.0960  138.4640 O   0  0  0  0  0  1  0  0  0  0  0  0
  189.1170  177.7170  138.3140 C   0  0  0  0  0  0  0  0  0  0  0  0
  188.0550  177.0430  138.3040 O   0  0  0  0  0  0  0  0  0  0  0  0
  1 17  2  0  0  0  0
  1 15  1  0  0  0  0
  3  1  1  0  0  0  0
  4 18  1  0  0  0  0
  5 11  1  6  0  0  0
  5 12  1  0  0  0  0
  6 21  1  6  0  0  0
  6  3  1  0  0  0  0
  6 20  1  0  0  0  0
  7  5  1  0  0  0  0
  7 13  2  0  0  0  0
  8  9  1  0  0  0  0
 10  8  1  0  0  0  0
 11 10  2  0  0  0  0
 12  9  2  0  0  0  0
 12 14  1  0  0  0  0
 13  2  1  0  0  0  0
 13 14  1  0  0  0  0
 15 18  1  0  0  0  0
 15  2  2  0  0  0  0
 17  7  1  0  0  0  0
 18 16  1  6  0  0  0
 19 11  1  0  0  0  0
 20  4  1  0  0  0  0
 22 21  1  0  0  0  0
 23 25  1  0  0  0  0
 23 22  1  0  0  0  0
 25 24  1  0  0  0  0
 26 25  2  0  0  0  0
M  END
>  <MODEL>
1

>  <REMARK>
 VINA RESULT:      -9.3      0.000      0.000
  Name = 
  4 active torsions:
  status: ('A' for Active; 'I' for Inactive)
    1  A    between atoms: C_1  and  N_7
    2  A    between atoms: C_1  and  C_10
    3  A    between atoms: N_7  and  C_8
    4  A    between atoms: C_8  and  C_16
                            x       y       z     vdW  Elec       q    Type
                         _______ _______ _______ _____ _____    ______ ____

>  <TORSDO>
F 4

$$$$
=
 OpenBabel10232410013D

 26 29  0  0  1  0  0  0  0  0999 V2000
  189.1020  176.9980  143.3950 C   0  0  0  0  0  0  0  0  0  0  0  0
  189.1080  177.7420  145.7290 C   0  0  0  0  0  3  0  0  0  0  0  0
  189.7990  176.5590  142.1480 C   0  0  0  0  0  2  0  0  0  0  0  0
  192.0250  177.2580  143.4060 N   0  0  0  0  0  2  0  0  0  0  0  0
  185.5630  177.5450  144.7810 C   0  0  2  0  0  3  0  0  0  0  0  0
  190.7400  177.6530  141.6220 C   0  0  1  0  0  3  0  0  0  0  0  0
  187.0310  177.5070  144.5090 C   0  0  0  0  0  0  0  0  0  0  0  0
  183.5220  179.1450  145.7510 N   0  0  0  0  0  2  0  0  0  0  0  0
  184.6020  178.8610  146.6060 N   0  0  0  0  0  0  0  0  0  0  0  0
  183.6690  178.9920  144.3560 N   0  0  0  0  0  0  0  0  0  0  0  0
  184.6870  178.3510  143.8570 C   0  0  0  0  0  0  0  0  0  0  0  0
  185.5990  178.1870  146.1320 C   0  0  0  0  0  0  0  0  0  0  0  0
  187.7190  177.8130  145.6670 C   0  0  0  0  0  0  0  0  0  0  0  0
  186.8690  178.1940  146.6930 O   0  0  0  0  0  0  0  0  0  0  0  0
  189.8190  177.3350  144.5850 C   0  0  0  0  0  0  0  0  0  0  0  0
  191.7540  176.0710  145.5080 C   0  0  0  0  0  1  0  0  0  0  0  0
  187.7000  177.0690  143.3690 C   0  0  0  0  0  3  0  0  0  0  0  0
  191.3320  177.2820  144.6960 C   0  0  1  0  0  3  0  0  0  0  0  0
  184.7880  178.1820  142.3810 C   0  0  0  0  0  1  0  0  0  0  0  0
  191.5270  178.2600  142.6300 O   0  0  0  0  0  0  0  0  0  0  0  0
  191.6060  177.1120  140.4950 C   0  0  0  0  0  2  0  0  0  0  0  0
  190.8010  176.3000  139.5990 N   0  0  0  0  0  2  0  0  0  0  0  0
  191.1940  176.6560  138.2480 C   0  0  0  0  0  2  0  0  0  0  0  0
  192.5150  174.5910  137.8090 O   0  0  0  0  0  1  0  0  0  0  0  0
  192.4690  175.9760  137.9010 C   0  0  0  0  0  0  0  0  0  0  0  0
  193.5160  176.6520  137.7280 O   0  0  0  0  0  0  0  0  0  0  0  0
  1 15  1  0  0  0  0
  3  1  1  0  0  0  0
  4 18  1  0  0  0  0
  5 11  1  6  0  0  0
  5 12  1  0  0  0  0
  6 21  1  6  0  0  0
  6  3  1  0  0  0  0
  6 20  1  0  0  0  0
  7  5  1  0  0  0  0
  7 13  2  0  0  0  0
  8  9  1  0  0  0  0
 10  8  1  0  0  0  0
 11 10  2  0  0  0  0
 12  9  2  0  0  0  0
 12 14  1  0  0  0  0
 13  2  1  0  0  0  0
 13 14  1  0  0  0  0
 15 18  1  0  0  0  0
 15  2  2  0  0  0  0
 17  1  2  0  0  0  0
 17  7  1  0  0  0  0
 18 16  1  6  0  0  0
 19 11  1  0  0  0  0
 20  4  1  0  0  0  0
 22 21  1  0  0  0  0
 23 22  1  0  0  0  0
 24 25  1  0  0  0  0
 25 23  1  0  0  0  0
 26 25  2  0  0  0  0
M  END
>  <MODEL>
2

>  <REMARK>
 VINA RESULT:      -9.1      1.508      1.740
  Name = 
  4 active torsions:
  status: ('A' for Active; 'I' for Inactive)
    1  A    between atoms: C_1  and  N_7
    2  A    between atoms: C_1  and  C_10
    3  A    between atoms: N_7  and  C_8
    4  A    between atoms: C_8  and  C_16
                            x       y       z     vdW  Elec       q    Type
                         _______ _______ _______ _____ _____    ______ ____

>  <TORSDO>
F 4

$$$$
=
 OpenBabel10232410013D

 26 29  0  0  1  0  0  0  0  0999 V2000
  186.5760  177.7730  144.0830 C   0  0  0  0  0  0  0  0  0  0  0  0
  185.4410  179.1220  142.3830 C   0  0  0  0  0  3  0  0  0  0  0  0
  186.7340  177.2730  145.4840 C   0  0  0  0  0  2  0  0  0  0  0  0
  184.8960  179.0800  146.1030 N   0  0  0  0  0  2  0  0  0  0  0  0
  188.1280  177.3650  140.5950 C   0  0  2  0  0  3  0  0  0  0  0  0
  187.0030  178.4280  146.4590 C   0  0  1  0  0  3  0  0  0  0  0  0
  187.3810  177.7910  141.8160 C   0  0  0  0  0  0  0  0  0  0  0  0
  189.5170  178.3130  138.3950 N   0  0  0  0  0  2  0  0  0  0  0  0
  188.1770  178.7120  138.5530 N   0  0  0  0  0  0  0  0  0  0  0  0
  190.2400  177.8190  139.5010 N   0  0  0  0  0  0  0  0  0  0  0  0
  189.6300  177.4800  140.6010 C   0  0  0  0  0  0  0  0  0  0  0  0
  187.5490  178.3440  139.6230 C   0  0  0  0  0  0  0  0  0  0  0  0
  186.3660  178.6560  141.4540 C   0  0  0  0  0  0  0  0  0  0  0  0
  186.4170  178.9830  140.1080 O   0  0  0  0  0  0  0  0  0  0  0  0
  185.5390  178.6860  143.7180 C   0  0  0  0  0  0  0  0  0  0  0  0
  183.1720  178.5550  144.4740 C   0  0  0  0  0  1  0  0  0  0  0  0
  187.4880  177.3130  143.1190 C   0  0  0  0  0  3  0  0  0  0  0  0
  184.5150  179.2280  144.6970 C   0  0  1  0  0  3  0  0  0  0  0  0
  190.4260  176.9320  141.7340 C   0  0  0  0  0  1  0  0  0  0  0  0
  186.1640  179.5510  146.2580 O   0  0  0  0  0  0  0  0  0  0  0  0
  186.9320  177.9360  147.8970 C   0  0  0  0  0  2  0  0  0  0  0  0
  188.0830  177.1010  148.1900 N   0  0  0  0  0  2  0  0  0  0  0  0
  189.2570  177.9440  148.0550 C   0  0  0  0  0  2  0  0  0  0  0  0
  191.5800  177.0570  147.9190 O   0  0  0  0  0  1  0  0  0  0  0  0
  190.3270  177.2010  147.3380 C   0  0  0  0  0  0  0  0  0  0  0  0
  190.1080  176.7340  146.1900 O   0  0  0  0  0  0  0  0  0  0  0  0
  1  3  1  0  0  0  0
  2 15  2  0  0  0  0
  3  6  1  0  0  0  0
  4 20  1  0  0  0  0
  5 12  1  6  0  0  0
  5 11  1  0  0  0  0
  5  7  1  0  0  0  0
  6 21  1  1  0  0  0
  7 17  1  0  0  0  0
  8  9  1  0  0  0  0
  8 10  1  0  0  0  0
  9 12  2  0  0  0  0
 10 11  2  0  0  0  0
 11 19  1  0  0  0  0
 12 14  1  0  0  0  0
 13  7  2  0  0  0  0
 13  2  1  0  0  0  0
 14 13  1  0  0  0  0
 15  1  1  0  0  0  0
 15 18  1  0  0  0  0
 17  1  2  0  0  0  0
 18 16  1  1  0  0  0
 18  4  1  0  0  0  0
 20  6  1  0  0  0  0
 21 22  1  0  0  0  0
 23 22  1  0  0  0  0
 25 24  1  0  0  0  0
 25 23  1  0  0  0  0
 26 25  2  0  0  0  0
M  END
>  <MODEL>
3

>  <REMARK>
 VINA RESULT:      -8.4      2.262      7.103
  Name = 
  4 active torsions:
  status: ('A' for Active; 'I' for Inactive)
    1  A    between atoms: C_1  and  N_7
    2  A    between atoms: C_1  and  C_10
    3  A    between atoms: N_7  and  C_8
    4  A    between atoms: C_8  and  C_16
                            x       y       z     vdW  Elec       q    Type
                         _______ _______ _______ _____ _____    ______ ____

>  <TORSDO>
F 4

$$$$
=
 OpenBabel10232410013D

 26 29  0  0  1  0  0  0  0  0999 V2000
  183.5110  178.3960  141.4880 C   0  0  0  0  0  0  0  0  0  0  0  0
  182.1460  178.7880  143.4830 C   0  0  0  0  0  3  0  0  0  0  0  0
  183.6670  178.1570  140.0200 C   0  0  0  0  0  2  0  0  0  0  0  0
  181.0300  177.8940  140.0060 N   0  0  0  0  0  2  0  0  0  0  0  0
  185.6260  178.8700  144.6580 C   0  0  2  0  0  3  0  0  0  0  0  0
  182.9660  176.8600  139.5920 C   0  0  1  0  0  3  0  0  0  0  0  0
  184.5560  178.6430  143.6420 C   0  0  0  0  0  0  0  0  0  0  0  0
  186.5250  178.0800  147.1550 N   0  0  0  0  0  2  0  0  0  0  0  0
  185.2290  178.6170  147.0590 N   0  0  0  0  0  0  0  0  0  0  0  0
  187.1650  177.5730  146.0040 N   0  0  0  0  0  0  0  0  0  0  0  0
  186.6960  177.8210  144.8140 C   0  0  0  0  0  0  0  0  0  0  0  0
  184.7700  178.9070  145.8840 C   0  0  0  0  0  0  0  0  0  0  0  0
  183.3190  178.8290  144.2290 C   0  0  0  0  0  0  0  0  0  0  0  0
  183.4180  179.0340  145.5960 O   0  0  0  0  0  0  0  0  0  0  0  0
  182.2290  178.5660  142.0960 C   0  0  0  0  0  0  0  0  0  0  0  0
  180.3620  179.9220  141.1640 C   0  0  0  0  0  1  0  0  0  0  0  0
  184.6780  178.4530  142.2680 C   0  0  0  0  0  3  0  0  0  0  0  0
  180.9230  178.5210  141.3240 C   0  0  1  0  0  3  0  0  0  0  0  0
  187.4190  177.2950  143.6240 C   0  0  0  0  0  1  0  0  0  0  0  0
  181.6720  176.7020  140.1450 O   0  0  0  0  0  0  0  0  0  0  0  0
  182.9360  176.7490  138.0750 C   0  0  0  0  0  2  0  0  0  0  0  0
  183.8880  177.6780  137.4930 N   0  0  0  0  0  2  0  0  0  0  0  0
  184.9670  176.8790  136.9400 C   0  0  0  0  0  2  0  0  0  0  0  0
  186.3590  178.7880  137.7280 O   0  0  0  0  0  1  0  0  0  0  0  0
  186.2750  177.4550  137.3470 C   0  0  0  0  0  0  0  0  0  0  0  0
  187.3140  176.7460  137.3120 O   0  0  0  0  0  0  0  0  0  0  0  0
  1 15  2  0  0  0  0
  1 17  1  0  0  0  0
  2 13  2  0  0  0  0
  3  1  1  0  0  0  0
  4 20  1  0  0  0  0
  4 18  1  0  0  0  0
  5  7  1  6  0  0  0
  5 11  1  0  0  0  0
  5 12  1  0  0  0  0
  6 21  1  6  0  0  0
  6  3  1  0  0  0  0
  6 20  1  0  0  0  0
  7 13  1  0  0  0  0
  9  8  1  0  0  0  0
 10  8  1  0  0  0  0
 11 10  2  0  0  0  0
 12  9  2  0  0  0  0
 13 14  1  0  0  0  0
 14 12  1  0  0  0  0
 15  2  1  0  0  0  0
 17  7  2  0  0  0  0
 18 16  1  6  0  0  0
 18 15  1  0  0  0  0
 19 11  1  0  0  0  0
 22 21  1  0  0  0  0
 23 25  1  0  0  0  0
 23 22  1  0  0  0  0
 25 24  1  0  0  0  0
 26 25  2  0  0  0  0
M  END
>  <MODEL>
4

>  <REMARK>
 VINA RESULT:      -7.9      3.446      6.402
  Name = 
  4 active torsions:
  status: ('A' for Active; 'I' for Inactive)
    1  A    between atoms: C_1  and  N_7
    2  A    between atoms: C_1  and  C_10
    3  A    between atoms: N_7  and  C_8
    4  A    between atoms: C_8  and  C_16
                            x       y       z     vdW  Elec       q    Type
                         _______ _______ _______ _____ _____    ______ ____

>  <TORSDO>
F 4

$$$$
=
 OpenBabel10232410013D

 26 29  0  0  1  0  0  0  0  0999 V2000
  183.4780  178.2690  141.5230 C   0  0  0  0  0  0  0  0  0  0  0  0
  182.1350  178.8440  143.4890 C   0  0  0  0  0  3  0  0  0  0  0  0
  183.6200  177.9340  140.0730 C   0  0  0  0  0  2  0  0  0  0  0  0
  180.9740  177.7880  140.0730 N   0  0  0  0  0  2  0  0  0  0  0  0
  185.6180  178.8440  144.6590 C   0  0  2  0  0  3  0  0  0  0  0  0
  182.8610  176.6450  139.7250 C   0  0  1  0  0  3  0  0  0  0  0  0
  184.5370  178.6010  143.6580 C   0  0  0  0  0  0  0  0  0  0  0  0
  186.4870  178.1700  147.2010 N   0  0  0  0  0  2  0  0  0  0  0  0
  185.2150  178.7570  147.0710 N   0  0  0  0  0  0  0  0  0  0  0  0
  187.1010  177.5650  146.0840 N   0  0  0  0  0  0  0  0  0  0  0  0
  186.6410  177.7600  144.8810 C   0  0  0  0  0  0  0  0  0  0  0  0
  184.7670  178.9940  145.8800 C   0  0  0  0  0  0  0  0  0  0  0  0
  183.3110  178.8790  144.2330 C   0  0  0  0  0  0  0  0  0  0  0  0
  183.4220  179.1630  145.5840 O   0  0  0  0  0  0  0  0  0  0  0  0
  182.2060  178.5340  142.1180 C   0  0  0  0  0  0  0  0  0  0  0  0
  180.3990  179.9110  141.1040 C   0  0  0  0  0  1  0  0  0  0  0  0
  184.6480  178.3230  142.2990 C   0  0  0  0  0  3  0  0  0  0  0  0
  180.8970  178.4990  141.3510 C   0  0  1  0  0  3  0  0  0  0  0  0
  187.3370  177.1290  143.7260 C   0  0  0  0  0  1  0  0  0  0  0  0
  181.5630  176.5790  140.2860 O   0  0  0  0  0  0  0  0  0  0  0  0
  182.8230  176.4430  138.2180 C   0  0  0  0  0  2  0  0  0  0  0  0
  182.7730  175.0250  137.9100 N   0  0  0  0  0  2  0  0  0  0  0  0
  183.9790  174.7160  137.1640 C   0  0  0  0  0  2  0  0  0  0  0  0
  183.6620  172.2510  137.3260 O   0  0  0  0  0  0  0  0  0  0  0  0
  184.4670  173.3620  137.5390 C   0  0  0  0  0  0  0  0  0  0  0  0
  185.5930  173.2280  138.0840 O   0  0  0  0  0  1  0  0  0  0  0  0
  1 15  2  0  0  0  0
  1 17  1  0  0  0  0
  2 13  2  0  0  0  0
  3  1  1  0  0  0  0
  4 20  1  0  0  0  0
  4 18  1  0  0  0  0
  5  7  1  6  0  0  0
  5 11  1  0  0  0  0
  5 12  1  0  0  0  0
  6 21  1  6  0  0  0
  6  3  1  0  0  0  0
  6 20  1  0  0  0  0
  7 13  1  0  0  0  0
  9  8  1  0  0  0  0
 10  8  1  0  0  0  0
 11 10  2  0  0  0  0
 12  9  2  0  0  0  0
 13 14  1  0  0  0  0
 14 12  1  0  0  0  0
 15  2  1  0  0  0  0
 17  7  2  0  0  0  0
 18 16  1  6  0  0  0
 18 15  1  0  0  0  0
 19 11  1  0  0  0  0
 22 21  1  0  0  0  0
 23 25  1  0  0  0  0
 23 22  1  0  0  0  0
 24 25  2  0  0  0  0
 25 26  1  0  0  0  0
M  END
>  <MODEL>
5

>  <REMARK>
 VINA RESULT:      -7.7      4.183      6.858
  Name = 
  4 active torsions:
  status: ('A' for Active; 'I' for Inactive)
    1  A    between atoms: C_1  and  N_7
    2  A    between atoms: C_1  and  C_10
    3  A    between atoms: N_7  and  C_8
    4  A    between atoms: C_8  and  C_16
                            x       y       z     vdW  Elec       q    Type
                         _______ _______ _______ _____ _____    ______ ____

>  <TORSDO>
F 4

$$$$
=
 OpenBabel10232410013D

 26 29  0  0  1  0  0  0  0  0999 V2000
  187.6720  177.4580  144.1380 C   0  0  0  0  0  0  0  0  0  0  0  0
  186.4950  178.4190  146.0580 C   0  0  0  0  0  3  0  0  0  0  0  0
  188.9000  176.9210  143.4750 C   0  0  0  0  0  2  0  0  0  0  0  0
  190.1770  177.7920  145.6280 N   0  0  0  0  0  2  0  0  0  0  0  0
  183.9410  178.0440  143.4430 C   0  0  2  0  0  3  0  0  0  0  0  0
  190.0060  177.9840  143.4090 C   0  0  1  0  0  3  0  0  0  0  0  0
  185.3380  178.0180  143.9720 C   0  0  0  0  0  0  0  0  0  0  0  0
  181.7370  179.6770  143.0680 N   0  0  0  0  0  2  0  0  0  0  0  0
  182.2130  179.5020  144.3800 N   0  0  0  0  0  0  0  0  0  0  0  0
  182.5760  179.3960  141.9700 N   0  0  0  0  0  0  0  0  0  0  0  0
  183.6880  178.7360  142.1290 C   0  0  0  0  0  0  0  0  0  0  0  0
  183.2940  178.8110  144.5520 C   0  0  0  0  0  0  0  0  0  0  0  0
  185.3390  178.4490  145.2840 C   0  0  0  0  0  0  0  0  0  0  0  0
  184.0930  178.9030  145.6840 O   0  0  0  0  0  0  0  0  0  0  0  0
  187.6830  177.9240  145.4880 C   0  0  0  0  0  0  0  0  0  0  0  0
  188.8310  176.8020  147.3900 C   0  0  0  0  0  1  0  0  0  0  0  0
  186.4860  177.4910  143.3860 C   0  0  0  0  0  3  0  0  0  0  0  0
  188.9200  177.9200  146.3670 C   0  0  1  0  0  3  0  0  0  0  0  0
  184.5300  178.4320  140.9400 C   0  0  0  0  0  1  0  0  0  0  0  0
  190.1780  178.7030  144.6160 O   0  0  0  0  0  0  0  0  0  0  0  0
  191.3140  177.3610  142.9460 C   0  0  0  0  0  2  0  0  0  0  0  0
  191.1600  176.8300  141.6030 N   0  0  0  0  0  2  0  0  0  0  0  0
  192.1110  177.5350  140.7630 C   0  0  0  0  0  2  0  0  0  0  0  0
  193.3490  176.8610  138.7100 O   0  0  0  0  0  0  0  0  0  0  0  0
  192.1550  176.9030  139.4180 C   0  0  0  0  0  0  0  0  0  0  0  0
  191.1030  176.4410  138.9050 O   0  0  0  0  0  1  0  0  0  0  0  0
  1 15  1  0  0  0  0
  3  1  1  0  0  0  0
  4 18  1  0  0  0  0
  5 11  1  6  0  0  0
  5  7  1  0  0  0  0
  5 12  1  0  0  0  0
  6 21  1  1  0  0  0
  6  3  1  0  0  0  0
  6 20  1  0  0  0  0
  7 13  2  0  0  0  0
  8  9  1  0  0  0  0
  9 12  2  0  0  0  0
 10 11  2  0  0  0  0
 10  8  1  0  0  0  0
 12 14  1  0  0  0  0
 13 14  1  0  0  0  0
 13  2  1  0  0  0  0
 15  2  2  0  0  0  0
 15 18  1  0  0  0  0
 17  7  1  0  0  0  0
 17  1  2  0  0  0  0
 18 16  1  1  0  0  0
 19 11  1  0  0  0  0
 20  4  1  0  0  0  0
 22 21  1  0  0  0  0
 23 22  1  0  0  0  0
 24 25  2  0  0  0  0
 25 23  1  0  0  0  0
 26 25  1  0  0  0  0
M  END
>  <MODEL>
6

>  <REMARK>
 VINA RESULT:      -7.7      1.995      2.785
  Name = 
  4 active torsions:
  status: ('A' for Active; 'I' for Inactive)
    1  A    between atoms: C_1  and  N_7
    2  A    between atoms: C_1  and  C_10
    3  A    between atoms: N_7  and  C_8
    4  A    between atoms: C_8  and  C_16
                            x       y       z     vdW  Elec       q    Type
                         _______ _______ _______ _____ _____    ______ ____

>  <TORSDO>
F 4

$$$$
=
 OpenBabel10232410013D

 26 29  0  0  1  0  0  0  0  0999 V2000
  189.1280  177.8060  141.5270 C   0  0  0  0  0  0  0  0  0  0  0  0
  191.5360  177.3700  141.4380 C   0  0  0  0  0  3  0  0  0  0  0  0
  187.8750  178.1540  142.2660 C   0  0  0  0  0  2  0  0  0  0  0  0
  189.3430  177.8580  144.4530 N   0  0  0  0  0  2  0  0  0  0  0  0
  190.3670  177.0720  137.9680 C   0  0  2  0  0  3  0  0  0  0  0  0
  187.5560  177.1070  143.3420 C   0  0  1  0  0  3  0  0  0  0  0  0
  190.1780  177.2290  139.4410 C   0  0  0  0  0  0  0  0  0  0  0  0
  191.4220  175.4020  136.0270 N   0  0  0  0  0  2  0  0  0  0  0  0
  192.2930  175.9050  137.0110 N   0  0  0  0  0  0  0  0  0  0  0  0
  190.0310  175.3910  136.2570 N   0  0  0  0  0  0  0  0  0  0  0  0
  189.5100  176.0680  137.2420 C   0  0  0  0  0  0  0  0  0  0  0  0
  191.7910  176.6140  137.9700 C   0  0  0  0  0  0  0  0  0  0  0  0
  191.4050  177.1470  140.0710 C   0  0  0  0  0  0  0  0  0  0  0  0
  192.4210  176.8130  139.1910 O   0  0  0  0  0  0  0  0  0  0  0  0
  190.3910  177.7010  142.1870 C   0  0  0  0  0  0  0  0  0  0  0  0
  191.2470  179.2690  143.9200 C   0  0  0  0  0  1  0  0  0  0  0  0
  189.0300  177.5850  140.1440 C   0  0  0  0  0  3  0  0  0  0  0  0
  190.5810  177.9260  143.6760 C   0  0  1  0  0  3  0  0  0  0  0  0
  188.0330  176.0560  137.4310 C   0  0  0  0  0  1  0  0  0  0  0  0
  188.6800  176.7190  144.1110 O   0  0  0  0  0  0  0  0  0  0  0  0
  186.4190  177.5880  144.2300 C   0  0  0  0  0  2  0  0  0  0  0  0
  185.2810  177.9680  143.4130 N   0  0  0  0  0  2  0  0  0  0  0  0
  184.7900  179.2280  143.9410 C   0  0  0  0  0  2  0  0  0  0  0  0
  182.3880  178.7210  144.3640 O   0  0  0  0  0  0  0  0  0  0  0  0
  183.6570  178.9740  144.8700 C   0  0  0  0  0  0  0  0  0  0  0  0
  183.8390  179.0250  146.1140 O   0  0  0  0  0  1  0  0  0  0  0  0
  1 15  1  0  0  0  0
  1  3  1  0  0  0  0
  2 15  2  0  0  0  0
  3  6  1  0  0  0  0
  5 11  1  1  0  0  0
  5 12  1  0  0  0  0
  5  7  1  0  0  0  0
  6 20  1  0  0  0  0
  6 21  1  1  0  0  0
  7 13  2  0  0  0  0
  7 17  1  0  0  0  0
  8 10  1  0  0  0  0
  8  9  1  0  0  0  0
  9 12  2  0  0  0  0
 10 11  2  0  0  0  0
 11 19  1  0  0  0  0
 12 14  1  0  0  0  0
 13  2  1  0  0  0  0
 14 13  1  0  0  0  0
 15 18  1  0  0  0  0
 17  1  2  0  0  0  0
 18 16  1  6  0  0  0
 18  4  1  0  0  0  0
 20  4  1  0  0  0  0
 22 23  1  0  0  0  0
 22 21  1  0  0  0  0
 23 25  1  0  0  0  0
 24 25  2  0  0  0  0
 25 26  1  0  0  0  0
M  END
>  <MODEL>
7

>  <REMARK>
 VINA RESULT:      -7.7      2.331      7.324
  Name = 
  4 active torsions:
  status: ('A' for Active; 'I' for Inactive)
    1  A    between atoms: C_1  and  N_7
    2  A    between atoms: C_1  and  C_10
    3  A    between atoms: N_7  and  C_8
    4  A    between atoms: C_8  and  C_16
                            x       y       z     vdW  Elec       q    Type
                         _______ _______ _______ _____ _____    ______ ____

>  <TORSDO>
F 4

$$$$
=
 OpenBabel10232410013D

 26 29  0  0  1  0  0  0  0  0999 V2000
  188.6510  177.7940  141.3480 C   0  0  0  0  0  0  0  0  0  0  0  0
  190.5670  177.0010  140.0460 C   0  0  0  0  0  3  0  0  0  0  0  0
  187.9280  178.0050  142.6410 C   0  0  0  0  0  2  0  0  0  0  0  0
  189.8360  176.5000  143.7000 N   0  0  0  0  0  2  0  0  0  0  0  0
  188.2800  178.4990  137.5920 C   0  0  2  0  0  3  0  0  0  0  0  0
  187.6380  176.6690  143.3390 C   0  0  1  0  0  3  0  0  0  0  0  0
  188.6630  178.0180  138.9530 C   0  0  0  0  0  0  0  0  0  0  0  0
  187.9570  177.7000  134.9600 N   0  0  0  0  0  2  0  0  0  0  0  0
  189.2250  177.5410  135.5480 N   0  0  0  0  0  0  0  0  0  0  0  0
  186.8160  177.8490  135.7760 N   0  0  0  0  0  0  0  0  0  0  0  0
  186.9320  178.1010  137.0490 C   0  0  0  0  0  0  0  0  0  0  0  0
  189.3600  177.8310  136.8030 C   0  0  0  0  0  0  0  0  0  0  0  0
  189.9160  177.4370  138.8970 C   0  0  0  0  0  0  0  0  0  0  0  0
  190.3890  177.3450  137.5980 O   0  0  0  0  0  0  0  0  0  0  0  0
  189.9370  177.1730  141.2930 C   0  0  0  0  0  0  0  0  0  0  0  0
  191.8210  177.6170  142.8560 C   0  0  0  0  0  1  0  0  0  0  0  0
  188.0240  178.2330  140.1710 C   0  0  0  0  0  3  0  0  0  0  0  0
  190.6810  176.6740  142.5170 C   0  0  1  0  0  3  0  0  0  0  0  0
  185.7020  178.2840  137.8680 C   0  0  0  0  0  1  0  0  0  0  0  0
  188.7380  175.7780  143.3440 O   0  0  0  0  0  0  0  0  0  0  0  0
  187.1140  176.9080  144.7460 C   0  0  0  0  0  2  0  0  0  0  0  0
  187.0610  178.3340  145.0180 N   0  0  0  0  0  2  0  0  0  0  0  0
  185.9270  178.5500  145.8980 C   0  0  0  0  0  2  0  0  0  0  0  0
  183.5020  179.0630  145.6530 O   0  0  0  0  0  1  0  0  0  0  0  0
  184.7830  179.0890  145.1170 C   0  0  0  0  0  0  0  0  0  0  0  0
  184.9700  179.5360  143.9550 O   0  0  0  0  0  0  0  0  0  0  0  0
  1  3  1  0  0  0  0
  2 15  2  0  0  0  0
  3  6  1  0  0  0  0
  5 12  1  6  0  0  0
  5  7  1  0  0  0  0
  6 20  1  0  0  0  0
  6 21  1  1  0  0  0
  7 17  1  0  0  0  0
  8  9  1  0  0  0  0
  8 10  1  0  0  0  0
  9 12  2  0  0  0  0
 10 11  2  0  0  0  0
 11  5  1  0  0  0  0
 11 19  1  0  0  0  0
 12 14  1  0  0  0  0
 13  7  2  0  0  0  0
 13  2  1  0  0  0  0
 14 13  1  0  0  0  0
 15  1  1  0  0  0  0
 15 18  1  0  0  0  0
 17  1  2  0  0  0  0
 18 16  1  1  0  0  0
 18  4  1  0  0  0  0
 20  4  1  0  0  0  0
 21 22  1  0  0  0  0
 22 23  1  0  0  0  0
 25 24  1  0  0  0  0
 25 23  1  0  0  0  0
 26 25  2  0  0  0  0
M  END
>  <MODEL>
8

>  <REMARK>
 VINA RESULT:      -7.7      2.645      6.938
  Name = 
  4 active torsions:
  status: ('A' for Active; 'I' for Inactive)
    1  A    between atoms: C_1  and  N_7
    2  A    between atoms: C_1  and  C_10
    3  A    between atoms: N_7  and  C_8
    4  A    between atoms: C_8  and  C_16
                            x       y       z     vdW  Elec       q    Type
                         _______ _______ _______ _____ _____    ______ ____

>  <TORSDO>
F 4

$$$$
=
 OpenBabel10232410013D

 26 29  0  0  1  0  0  0  0  0999 V2000
  187.6930  177.5440  142.9140 C   0  0  0  0  0  0  0  0  0  0  0  0
  190.1110  177.6270  142.5360 C   0  0  0  0  0  3  0  0  0  0  0  0
  186.2780  177.6640  142.4460 C   0  0  0  0  0  2  0  0  0  0  0  0
  187.3290  178.6290  140.2130 N   0  0  0  0  0  2  0  0  0  0  0  0
  189.7130  176.6610  146.0580 C   0  0  2  0  0  3  0  0  0  0  0  0
  185.9810  179.0810  141.9350 C   0  0  1  0  0  3  0  0  0  0  0  0
  189.2180  177.1230  144.7270 C   0  0  0  0  0  0  0  0  0  0  0  0
  191.4390  177.2920  148.1290 N   0  0  0  0  0  2  0  0  0  0  0  0
  191.9840  177.1220  146.8440 N   0  0  0  0  0  0  0  0  0  0  0  0
  190.0610  177.5540  148.2820 N   0  0  0  0  0  0  0  0  0  0  0  0
  189.2350  177.3880  147.2880 C   0  0  0  0  0  0  0  0  0  0  0  0
  191.1730  176.9140  145.8570 C   0  0  0  0  0  0  0  0  0  0  0  0
  190.2920  177.3050  143.8770 C   0  0  0  0  0  0  0  0  0  0  0  0
  191.5040  177.1440  144.5280 O   0  0  0  0  0  0  0  0  0  0  0  0
  188.8010  177.7540  142.0370 C   0  0  0  0  0  0  0  0  0  0  0  0
  188.9700  176.9130  139.7010 C   0  0  0  0  0  1  0  0  0  0  0  0
  187.9090  177.2090  144.2610 C   0  0  0  0  0  3  0  0  0  0  0  0
  188.6530  178.1160  140.5710 C   0  0  1  0  0  3  0  0  0  0  0  0
  187.7840  177.6440  147.5000 C   0  0  0  0  0  1  0  0  0  0  0  0
  186.9920  179.6080  141.0970 O   0  0  0  0  0  0  0  0  0  0  0  0
  184.6210  179.1260  141.2560 C   0  0  0  0  0  2  0  0  0  0  0  0
  183.5830  178.7540  142.2010 N   0  0  0  0  0  2  0  0  0  0  0  0
  183.7850  179.5690  143.3850 C   0  0  0  0  0  2  0  0  0  0  0  0
  183.8730  178.7900  145.7490 O   0  0  0  0  0  1  0  0  0  0  0  0
  183.1630  178.9060  144.5610 C   0  0  0  0  0  0  0  0  0  0  0  0
  182.0080  178.4160  144.4690 O   0  0  0  0  0  0  0  0  0  0  0  0
  1 17  1  0  0  0  0
  2 13  2  0  0  0  0
  3  1  1  0  0  0  0
  4 18  1  0  0  0  0
  4 20  1  0  0  0  0
  5  7  1  6  0  0  0
  5 11  1  0  0  0  0
  6 21  1  6  0  0  0
  6  3  1  0  0  0  0
  8 10  1  0  0  0  0
  9  8  1  0  0  0  0
 11 19  1  0  0  0  0
 11 10  2  0  0  0  0
 12  5  1  0  0  0  0
 12  9  2  0  0  0  0
 13 14  1  0  0  0  0
 13  7  1  0  0  0  0
 14 12  1  0  0  0  0
 15  2  1  0  0  0  0
 15  1  2  0  0  0  0
 17  7  2  0  0  0  0
 18 16  1  6  0  0  0
 18 15  1  0  0  0  0
 20  6  1  0  0  0  0
 21 22  1  0  0  0  0
 22 23  1  0  0  0  0
 23 25  1  0  0  0  0
 25 24  1  0  0  0  0
 26 25  2  0  0  0  0
M  END
>  <MODEL>
9

>  <REMARK>
 VINA RESULT:      -7.6      2.659      6.049
  Name = 
  4 active torsions:
  status: ('A' for Active; 'I' for Inactive)
    1  A    between atoms: C_1  and  N_7
    2  A    between atoms: C_1  and  C_10
    3  A    between atoms: N_7  and  C_8
    4  A    between atoms: C_8  and  C_16
                            x       y       z     vdW  Elec       q    Type
                         _______ _______ _______ _____ _____    ______ ____

>  <TORSDO>
F 4

$$$$
