=
 OpenBabel10232412473D

 40 48  0  0  1  0  0  0  0  0999 V2000
  188.4750  176.6020  142.3510 C   0  0  2  0  0  3  0  0  0  0  0  0
  189.3830  175.5480  142.2030 O   0  0  0  0  0  1  0  0  0  0  0  0
  188.4820  178.1470  140.3820 C   0  0  0  0  0  0  0  0  0  0  0  0
  189.1720  177.8460  139.2440 C   0  0  0  0  0  0  0  0  0  0  0  0
  192.6660  176.6420  138.3200 C   0  0  0  0  0  0  0  0  0  0  0  0
  193.3090  176.7240  139.5630 C   0  0  0  0  0  3  0  0  0  0  0  0
  191.2430  177.4500  140.5930 C   0  0  0  0  0  0  0  0  0  0  0  0
  190.5190  177.8550  141.7490 N   0  0  0  0  0  2  0  0  0  0  0  0
  190.5920  177.4060  139.3510 C   0  0  0  0  0  0  0  0  0  0  0  0
  191.3170  177.0070  138.2170 C   0  0  0  0  0  3  0  0  0  0  0  0
  189.0590  177.8910  141.7540 C   0  0  2  0  0  3  0  0  0  0  0  0
  192.5980  177.1240  140.6960 C   0  0  0  0  0  3  0  0  0  0  0  0
  187.1450  178.6440  140.3350 N   0  0  0  0  0  1  0  0  0  0  0  0
  188.1050  179.2400  137.7080 O   0  0  0  0  0  0  0  0  0  0  0  0
  187.8210  176.5620  137.6210 C   0  0  2  0  0  0  0  0  0  0  0  0
  188.2020  175.9290  136.4220 O   0  0  0  0  0  1  0  0  0  0  0  0
  188.6070  177.9600  137.8300 C   0  0  1  0  0  0  0  0  0  0  0  0
  186.4470  177.1080  137.5200 N   0  0  0  0  0  2  0  0  0  0  0  0
  187.2520  178.0580  137.6140 C   0  0  1  0  0  0  0  0  0  0  0  0
  193.4410  176.2590  137.0960 C   0  0  0  0  0  3  0  0  0  0  0  0
  193.0960  174.8420  136.6650 C   0  0  0  0  0  2  0  0  0  0  0  0
  194.3850  175.1090  137.4060 C   0  0  0  0  0  2  0  0  0  0  0  0
  186.7060  177.2910  144.0960 N   0  0  0  0  0  0  0  0  0  0  0  0
  189.0840  177.4420  144.7070 C   0  0  2  0  0  3  0  0  0  0  0  0
  187.8910  178.1640  144.1230 C   0  0  1  0  0  3  0  0  0  0  0  0
  188.0610  176.7340  143.8340 C   0  0  1  0  0  0  0  0  0  0  0  0
  190.0540  176.8300  147.0410 C   0  0  1  0  0  3  0  0  0  0  0  0
  189.5130  178.2440  147.0100 C   0  0  0  0  0  2  0  0  0  0  0  0
  188.8230  177.1730  146.1890 C   0  0  1  0  0  3  0  0  0  0  0  0
  191.3650  176.7610  146.2690 C   0  0  0  0  0  2  0  0  0  0  0  0
  192.2680  175.7580  146.8970 C   0  0  0  0  0  0  0  0  0  0  0  0
  192.5970  174.7210  146.2660 O   0  0  0  0  0  0  0  0  0  0  0  0
  192.7380  175.9610  148.2240 N   0  0  0  0  0  1  0  0  0  0  0  0
  185.9650  177.6560  142.8920 C   0  0  0  0  0  2  0  0  0  0  0  0
  185.0740  178.8570  143.1650 C   0  0  0  0  0  2  0  0  0  0  0  0
  183.9090  178.4850  144.0680 C   0  0  0  0  0  2  0  0  0  0  0  0
  184.0180  179.2040  145.4030 C   0  0  0  0  0  2  0  0  0  0  0  0
  184.5670  178.2720  146.4710 C   0  0  0  0  0  2  0  0  0  0  0  0
  185.8190  179.9450  147.5740 O   0  0  0  0  0  0  0  0  0  0  0  0
  185.8130  178.8270  147.0850 C   0  0  0  0  0  3  0  0  0  0  0  0
  1  2  1  1  0  0  0
  3 11  1  0  0  0  0
  4  9  1  0  0  0  0
  4  3  2  0  0  0  0
  5  6  1  0  0  0  0
  6 12  2  0  0  0  0
  7 12  1  0  0  0  0
  7  8  1  0  0  0  0
  8 11  1  0  0  0  0
  9  7  2  0  0  0  0
 10  5  2  0  0  0  0
 10  9  1  0  0  0  0
 11  1  1  6  0  0  0
 13  3  1  0  0  0  0
 14 17  1  0  0  0  0
 15 16  1  6  0  0  0
 15 17  1  0  0  0  0
 17  4  1  1  0  0  0
 18 15  1  0  0  0  0
 19 18  1  1  0  0  0
 19 15  1  0  0  0  0
 19 14  1  0  0  0  0
 19 17  1  0  0  0  0
 20 22  1  0  0  0  0
 20  5  1  0  0  0  0
 21 20  1  0  0  0  0
 21 22  1  0  0  0  0
 24 29  1  1  0  0  0
 25 23  1  1  0  0  0
 25 24  1  0  0  0  0
 26  1  1  6  0  0  0
 26 23  1  0  0  0  0
 26 25  1  0  0  0  0
 26 24  1  0  0  0  0
 27 30  1  6  0  0  0
 28 27  1  0  0  0  0
 29 28  1  1  0  0  0
 29 27  1  0  0  0  0
 30 31  1  0  0  0  0
 31 33  1  0  0  0  0
 32 31  2  0  0  0  0
 34 35  1  0  0  0  0
 34 23  1  0  0  0  0
 35 36  1  0  0  0  0
 36 37  1  0  0  0  0
 37 38  1  0  0  0  0
 38 40  1  0  0  0  0
 40 39  2  0  0  0  0
M  END
>  <MODEL>
1

>  <REMARK>
 VINA RESULT:      -8.2      0.000      0.000
  Name = 
  13 active torsions:
  status: ('A' for Active; 'I' for Inactive)
    1  A    between atoms: C_2  and  C_37
    2  A    between atoms: C_2  and  C_40
    3  A    between atoms: C_5  and  C_11
    4  A    between atoms: C_7  and  C_14
    5  A    between atoms: C_9  and  C_30
    6  A    between atoms: C_9  and  C_37
    7  A    between atoms: C_10  and  C_27
    8  A    between atoms: C_12  and  C_26
    9  A    between atoms: C_12  and  C_36
   10  A    between atoms: N_15  and  C_30
   11  A    between atoms: C_17  and  C_35
   12  A    between atoms: C_18  and  C_27
   13  A    between atoms: C_19  and  C_40
                            x       y       z     vdW  Elec       q    Type
                         _______ _______ _______ _____ _____    ______ ____

>  <TORSDO>
F 13

$$$$
=
 OpenBabel10232412473D

 40 48  0  0  1  0  0  0  0  0999 V2000
  188.1000  176.7160  142.5520 C   0  0  2  0  0  3  0  0  0  0  0  0
  188.9840  175.6480  142.3630 O   0  0  0  0  0  1  0  0  0  0  0  0
  188.1650  178.1750  140.5200 C   0  0  0  0  0  0  0  0  0  0  0  0
  188.9220  177.8470  139.4340 C   0  0  0  0  0  0  0  0  0  0  0  0
  192.4950  176.7170  138.7450 C   0  0  0  0  0  0  0  0  0  0  0  0
  193.0690  176.8740  140.0140 C   0  0  0  0  0  3  0  0  0  0  0  0
  190.9310  177.5760  140.9030 C   0  0  0  0  0  0  0  0  0  0  0  0
  190.1350  178.0070  142.0020 N   0  0  0  0  0  2  0  0  0  0  0  0
  190.3470  177.4590  139.6330 C   0  0  0  0  0  0  0  0  0  0  0  0
  191.1430  177.0350  138.5560 C   0  0  0  0  0  3  0  0  0  0  0  0
  188.6760  177.9960  141.9300 C   0  0  2  0  0  3  0  0  0  0  0  0
  192.2870  177.2980  141.0900 C   0  0  0  0  0  3  0  0  0  0  0  0
  186.8180  178.6270  140.3820 N   0  0  0  0  0  1  0  0  0  0  0  0
  187.8640  179.1280  137.7960 O   0  0  0  0  0  0  0  0  0  0  0  0
  187.7360  176.4360  137.7890 C   0  0  2  0  0  0  0  0  0  0  0  0
  188.2160  175.7880  136.6340 O   0  0  0  0  0  1  0  0  0  0  0  0
  188.4290  177.8830  137.9890 C   0  0  1  0  0  0  0  0  0  0  0  0
  186.3400  176.9000  137.5960 N   0  0  0  0  0  2  0  0  0  0  0  0
  187.0850  177.8960  137.6990 C   0  0  1  0  0  0  0  0  0  0  0  0
  193.3450  176.3080  137.5800 C   0  0  0  0  0  3  0  0  0  0  0  0
  192.9930  174.8980  137.1310 C   0  0  0  0  0  2  0  0  0  0  0  0
  194.2330  175.1360  137.9610 C   0  0  0  0  0  2  0  0  0  0  0  0
  186.4430  177.4740  144.3780 N   0  0  0  0  0  0  0  0  0  0  0  0
  188.8500  177.4990  144.8880 C   0  0  2  0  0  3  0  0  0  0  0  0
  187.6710  178.2860  144.3610 C   0  0  1  0  0  3  0  0  0  0  0  0
  187.7570  176.8520  144.0540 C   0  0  1  0  0  0  0  0  0  0  0  0
  189.9030  176.9370  147.1980 C   0  0  1  0  0  3  0  0  0  0  0  0
  189.3070  178.3280  147.1760 C   0  0  0  0  0  2  0  0  0  0  0  0
  188.6380  177.2280  146.3780 C   0  0  1  0  0  3  0  0  0  0  0  0
  191.1950  176.9140  146.3920 C   0  0  0  0  0  2  0  0  0  0  0  0
  192.1280  175.9050  146.9620 C   0  0  0  0  0  0  0  0  0  0  0  0
  192.4300  174.8780  146.3000 O   0  0  0  0  0  0  0  0  0  0  0  0
  192.6580  176.0880  148.2690 N   0  0  0  0  0  1  0  0  0  0  0  0
  185.6720  177.8880  143.2090 C   0  0  0  0  0  2  0  0  0  0  0  0
  184.7960  179.0830  143.5530 C   0  0  0  0  0  2  0  0  0  0  0  0
  184.0230  178.8470  144.8400 C   0  0  0  0  0  2  0  0  0  0  0  0
  182.5280  178.8490  144.5710 C   0  0  0  0  0  2  0  0  0  0  0  0
  182.2490  179.0420  143.0890 C   0  0  0  0  0  2  0  0  0  0  0  0
  180.3500  180.4390  142.9230 O   0  0  0  0  0  0  0  0  0  0  0  0
  180.7970  179.3070  142.8420 C   0  0  0  0  0  3  0  0  0  0  0  0
  1  2  1  1  0  0  0
  3 11  1  0  0  0  0
  4  9  1  0  0  0  0
  4  3  2  0  0  0  0
  5  6  1  0  0  0  0
  6 12  2  0  0  0  0
  7 12  1  0  0  0  0
  7  8  1  0  0  0  0
  9  7  2  0  0  0  0
 10  5  2  0  0  0  0
 10  9  1  0  0  0  0
 11  8  1  0  0  0  0
 11  1  1  6  0  0  0
 13  3  1  0  0  0  0
 14 17  1  0  0  0  0
 15 16  1  6  0  0  0
 15 17  1  0  0  0  0
 17  4  1  1  0  0  0
 18 15  1  0  0  0  0
 19 18  1  1  0  0  0
 19 15  1  0  0  0  0
 19 14  1  0  0  0  0
 19 17  1  0  0  0  0
 20 22  1  0  0  0  0
 20  5  1  0  0  0  0
 21 20  1  0  0  0  0
 21 22  1  0  0  0  0
 24 29  1  1  0  0  0
 25 23  1  1  0  0  0
 25 24  1  0  0  0  0
 26  1  1  6  0  0  0
 26 25  1  0  0  0  0
 26 23  1  0  0  0  0
 26 24  1  0  0  0  0
 27 30  1  6  0  0  0
 28 27  1  0  0  0  0
 29 28  1  1  0  0  0
 29 27  1  0  0  0  0
 30 31  1  0  0  0  0
 31 33  1  0  0  0  0
 32 31  2  0  0  0  0
 34 35  1  0  0  0  0
 34 23  1  0  0  0  0
 35 36  1  0  0  0  0
 37 36  1  0  0  0  0
 38 37  1  0  0  0  0
 40 39  2  0  0  0  0
 40 38  1  0  0  0  0
M  END
>  <MODEL>
2

>  <REMARK>
 VINA RESULT:      -8.2      1.374      1.742
  Name = 
  13 active torsions:
  status: ('A' for Active; 'I' for Inactive)
    1  A    between atoms: C_2  and  C_37
    2  A    between atoms: C_2  and  C_40
    3  A    between atoms: C_5  and  C_11
    4  A    between atoms: C_7  and  C_14
    5  A    between atoms: C_9  and  C_30
    6  A    between atoms: C_9  and  C_37
    7  A    between atoms: C_10  and  C_27
    8  A    between atoms: C_12  and  C_26
    9  A    between atoms: C_12  and  C_36
   10  A    between atoms: N_15  and  C_30
   11  A    between atoms: C_17  and  C_35
   12  A    between atoms: C_18  and  C_27
   13  A    between atoms: C_19  and  C_40
                            x       y       z     vdW  Elec       q    Type
                         _______ _______ _______ _____ _____    ______ ____

>  <TORSDO>
F 13

$$$$
=
 OpenBabel10232412473D

 40 48  0  0  1  0  0  0  0  0999 V2000
  189.1190  176.9040  141.4690 C   0  0  2  0  0  3  0  0  0  0  0  0
  190.0790  175.9090  141.6760 O   0  0  0  0  0  1  0  0  0  0  0  0
  188.6810  177.8500  139.1940 C   0  0  0  0  0  0  0  0  0  0  0  0
  189.0060  177.1590  138.0630 C   0  0  0  0  0  0  0  0  0  0  0  0
  192.0170  175.2610  136.7030 C   0  0  0  0  0  0  0  0  0  0  0  0
  192.9840  175.5790  137.6670 C   0  0  0  0  0  3  0  0  0  0  0  0
  191.3390  176.8430  138.9130 C   0  0  0  0  0  0  0  0  0  0  0  0
  190.9940  177.6420  140.0390 N   0  0  0  0  0  2  0  0  0  0  0  0
  190.3670  176.5640  137.9410 C   0  0  0  0  0  0  0  0  0  0  0  0
  190.7200  175.7760  136.8330 C   0  0  0  0  0  3  0  0  0  0  0  0
  189.5990  177.8890  140.3930 C   0  0  2  0  0  3  0  0  0  0  0  0
  192.6440  176.3650  138.7690 C   0  0  0  0  0  3  0  0  0  0  0  0
  187.4210  178.5030  139.3330 N   0  0  0  0  0  1  0  0  0  0  0  0
  187.6120  178.2260  136.5270 O   0  0  0  0  0  0  0  0  0  0  0  0
  187.2140  175.6620  137.2530 C   0  0  2  0  0  0  0  0  0  0  0  0
  187.2270  174.7070  136.2170 O   0  0  0  0  0  1  0  0  0  0  0  0
  188.0790  176.9710  136.8630 C   0  0  1  0  0  0  0  0  0  0  0  0
  185.8870  176.3130  137.3590 N   0  0  0  0  0  2  0  0  0  0  0  0
  186.7220  177.1610  136.9800 C   0  0  1  0  0  0  0  0  0  0  0  0
  192.3940  174.4580  135.4960 C   0  0  0  0  0  3  0  0  0  0  0  0
  192.5790  172.9940  135.8640 C   0  0  0  0  0  2  0  0  0  0  0  0
  193.7890  173.8770  135.6610 C   0  0  0  0  0  2  0  0  0  0  0  0
  189.7610  177.4350  143.9100 N   0  0  0  0  0  0  0  0  0  0  0  0
  187.3770  177.2340  143.3370 C   0  0  2  0  0  3  0  0  0  0  0  0
  188.6160  176.5130  143.8180 C   0  0  1  0  0  3  0  0  0  0  0  0
  188.7620  177.5760  142.8150 C   0  0  1  0  0  0  0  0  0  0  0  0
  185.4820  178.7210  144.3150 C   0  0  1  0  0  3  0  0  0  0  0  0
  185.8440  177.5860  145.2490 C   0  0  0  0  0  2  0  0  0  0  0  0
  186.9320  178.2260  144.4110 C   0  0  1  0  0  3  0  0  0  0  0  0
  184.7010  178.1810  143.1240 C   0  0  0  0  0  2  0  0  0  0  0  0
  183.2930  178.6600  143.1850 C   0  0  0  0  0  0  0  0  0  0  0  0
  182.7650  178.9320  144.2950 O   0  0  0  0  0  0  0  0  0  0  0  0
  182.5350  178.7850  141.9890 N   0  0  0  0  0  1  0  0  0  0  0  0
  190.9380  176.6500  143.5500 C   0  0  0  0  0  2  0  0  0  0  0  0
  191.6630  176.1830  144.8020 C   0  0  0  0  0  2  0  0  0  0  0  0
  191.5250  177.1950  145.9280 C   0  0  0  0  0  2  0  0  0  0  0  0
  191.0270  176.5180  147.1940 C   0  0  0  0  0  2  0  0  0  0  0  0
  189.5180  176.6550  147.3190 C   0  0  0  0  0  2  0  0  0  0  0  0
  188.5070  178.1180  148.8740 O   0  0  0  0  0  0  0  0  0  0  0  0
  189.1380  178.0060  147.8350 C   0  0  0  0  0  3  0  0  0  0  0  0
  1  2  1  1  0  0  0
  3 13  1  0  0  0  0
  3 11  1  0  0  0  0
  4  3  2  0  0  0  0
  5 10  2  0  0  0  0
  5  6  1  0  0  0  0
  6 12  2  0  0  0  0
  7  8  1  0  0  0  0
  8 11  1  0  0  0  0
  9  4  1  0  0  0  0
  9  7  2  0  0  0  0
 10  9  1  0  0  0  0
 11  1  1  1  0  0  0
 12  7  1  0  0  0  0
 14 17  1  0  0  0  0
 15 16  1  6  0  0  0
 15 18  1  0  0  0  0
 17 19  1  0  0  0  0
 17 15  1  0  0  0  0
 17  4  1  1  0  0  0
 19 14  1  6  0  0  0
 19 15  1  0  0  0  0
 19 18  1  0  0  0  0
 20 22  1  0  0  0  0
 20 21  1  0  0  0  0
 20  5  1  0  0  0  0
 22 21  1  0  0  0  0
 24 25  1  0  0  0  0
 24 29  1  1  0  0  0
 25 23  1  1  0  0  0
 26  1  1  6  0  0  0
 26 24  1  0  0  0  0
 26 25  1  0  0  0  0
 26 23  1  0  0  0  0
 27 30  1  6  0  0  0
 27 29  1  0  0  0  0
 27 28  1  0  0  0  0
 29 28  1  1  0  0  0
 30 31  1  0  0  0  0
 31 32  2  0  0  0  0
 33 31  1  0  0  0  0
 34 23  1  0  0  0  0
 34 35  1  0  0  0  0
 35 36  1  0  0  0  0
 36 37  1  0  0  0  0
 37 38  1  0  0  0  0
 38 40  1  0  0  0  0
 40 39  2  0  0  0  0
M  END
>  <MODEL>
3

>  <REMARK>
 VINA RESULT:      -7.6      1.859      4.535
  Name = 
  13 active torsions:
  status: ('A' for Active; 'I' for Inactive)
    1  A    between atoms: C_2  and  C_37
    2  A    between atoms: C_2  and  C_40
    3  A    between atoms: C_5  and  C_11
    4  A    between atoms: C_7  and  C_14
    5  A    between atoms: C_9  and  C_30
    6  A    between atoms: C_9  and  C_37
    7  A    between atoms: C_10  and  C_27
    8  A    between atoms: C_12  and  C_26
    9  A    between atoms: C_12  and  C_36
   10  A    between atoms: N_15  and  C_30
   11  A    between atoms: C_17  and  C_35
   12  A    between atoms: C_18  and  C_27
   13  A    between atoms: C_19  and  C_40
                            x       y       z     vdW  Elec       q    Type
                         _______ _______ _______ _____ _____    ______ ____

>  <TORSDO>
F 13

$$$$
=
 OpenBabel10232412473D

 40 48  0  0  1  0  0  0  0  0999 V2000
  188.0580  177.5030  141.7340 C   0  0  2  0  0  3  0  0  0  0  0  0
  188.7430  176.5290  141.0010 O   0  0  0  0  0  1  0  0  0  0  0  0
  186.2940  178.9520  140.7090 C   0  0  0  0  0  0  0  0  0  0  0  0
  185.6160  178.5620  139.5910 C   0  0  0  0  0  0  0  0  0  0  0  0
  186.4520  177.1380  136.1580 C   0  0  0  0  0  0  0  0  0  0  0  0
  187.8500  177.2470  136.1630 C   0  0  0  0  0  3  0  0  0  0  0  0
  187.7820  178.1250  138.4170 C   0  0  0  0  0  0  0  0  0  0  0  0
  188.4590  178.6200  139.5660 N   0  0  0  0  0  2  0  0  0  0  0  0
  186.3810  178.0560  138.4170 C   0  0  0  0  0  0  0  0  0  0  0  0
  185.7250  177.5670  137.2760 C   0  0  0  0  0  3  0  0  0  0  0  0
  187.7810  178.7310  140.8550 C   0  0  2  0  0  3  0  0  0  0  0  0
  188.5120  177.7350  137.2910 C   0  0  0  0  0  3  0  0  0  0  0  0
  185.6180  179.5140  141.8330 N   0  0  0  0  0  1  0  0  0  0  0  0
  183.7600  179.9740  139.5080 O   0  0  0  0  0  0  0  0  0  0  0  0
  183.5550  177.4170  140.3340 C   0  0  2  0  0  0  0  0  0  0  0  0
  182.6640  176.5950  139.6170 O   0  0  0  0  0  1  0  0  0  0  0  0
  184.0990  178.6380  139.4240 C   0  0  1  0  0  0  0  0  0  0  0  0
  182.8360  178.2200  141.3520 N   0  0  0  0  0  2  0  0  0  0  0  0
  183.2870  178.9890  140.4780 C   0  0  1  0  0  0  0  0  0  0  0  0
  185.7390  176.6600  134.9300 C   0  0  0  0  0  3  0  0  0  0  0  0
  185.1790  175.2630  135.1470 C   0  0  0  0  0  2  0  0  0  0  0  0
  186.4470  175.4480  134.3460 C   0  0  0  0  0  2  0  0  0  0  0  0
  190.3130  177.6420  142.9790 N   0  0  0  0  0  0  0  0  0  0  0  0
  188.2790  177.1620  144.2770 C   0  0  2  0  0  3  0  0  0  0  0  0
  189.4430  176.5780  143.5090 C   0  0  1  0  0  3  0  0  0  0  0  0
  188.8370  177.8280  143.0300 C   0  0  1  0  0  0  0  0  0  0  0  0
  187.7790  178.0920  146.6530 C   0  0  1  0  0  3  0  0  0  0  0  0
  188.6710  176.8700  146.7040 C   0  0  0  0  0  2  0  0  0  0  0  0
  188.8080  177.8350  145.5440 C   0  0  1  0  0  3  0  0  0  0  0  0
  186.3540  177.6770  146.3100 C   0  0  0  0  0  2  0  0  0  0  0  0
  185.4160  178.7890  146.6250 C   0  0  0  0  0  0  0  0  0  0  0  0
  185.7430  179.6770  147.4540 O   0  0  0  0  0  0  0  0  0  0  0  0
  184.1350  178.8320  146.0080 N   0  0  0  0  0  1  0  0  0  0  0  0
  190.8110  177.1510  141.6970 C   0  0  0  0  0  2  0  0  0  0  0  0
  192.2350  177.6320  141.4660 C   0  0  0  0  0  2  0  0  0  0  0  0
  192.7070  177.2970  140.0600 C   0  0  0  0  0  2  0  0  0  0  0  0
  191.5370  176.8570  139.1960 C   0  0  0  0  0  2  0  0  0  0  0  0
  191.9980  175.8820  138.1250 C   0  0  0  0  0  2  0  0  0  0  0  0
  193.9200  175.6650  136.7680 O   0  0  0  0  0  0  0  0  0  0  0  0
  193.1750  176.4180  137.3750 C   0  0  0  0  0  3  0  0  0  0  0  0
  1  2  1  6  0  0  0
  3 11  1  0  0  0  0
  3 13  1  0  0  0  0
  4  3  2  0  0  0  0
  5  6  2  0  0  0  0
  5 10  1  0  0  0  0
  6 12  1  0  0  0  0
  7  8  1  0  0  0  0
  8 11  1  0  0  0  0
  9  7  1  0  0  0  0
  9  4  1  0  0  0  0
 10  9  2  0  0  0  0
 11  1  1  1  0  0  0
 12  7  2  0  0  0  0
 15 16  1  6  0  0  0
 15 19  1  0  0  0  0
 15 18  1  0  0  0  0
 17 14  1  0  0  0  0
 17  4  1  1  0  0  0
 17 15  1  0  0  0  0
 17 19  1  0  0  0  0
 19 14  1  6  0  0  0
 19 18  1  0  0  0  0
 20 21  1  0  0  0  0
 20  5  1  0  0  0  0
 22 20  1  0  0  0  0
 22 21  1  0  0  0  0
 23 26  1  0  0  0  0
 24 29  1  1  0  0  0
 25 23  1  1  0  0  0
 25 24  1  0  0  0  0
 26  1  1  6  0  0  0
 26 25  1  0  0  0  0
 26 24  1  0  0  0  0
 27 30  1  6  0  0  0
 27 28  1  0  0  0  0
 29 27  1  0  0  0  0
 29 28  1  1  0  0  0
 30 31  1  0  0  0  0
 31 32  2  0  0  0  0
 33 31  1  0  0  0  0
 34 23  1  0  0  0  0
 35 34  1  0  0  0  0
 36 35  1  0  0  0  0
 37 36  1  0  0  0  0
 38 37  1  0  0  0  0
 39 40  2  0  0  0  0
 40 38  1  0  0  0  0
M  END
>  <MODEL>
4

>  <REMARK>
 VINA RESULT:      -7.2      2.541      6.384
  Name = 
  13 active torsions:
  status: ('A' for Active; 'I' for Inactive)
    1  A    between atoms: C_2  and  C_37
    2  A    between atoms: C_2  and  C_40
    3  A    between atoms: C_5  and  C_11
    4  A    between atoms: C_7  and  C_14
    5  A    between atoms: C_9  and  C_30
    6  A    between atoms: C_9  and  C_37
    7  A    between atoms: C_10  and  C_27
    8  A    between atoms: C_12  and  C_26
    9  A    between atoms: C_12  and  C_36
   10  A    between atoms: N_15  and  C_30
   11  A    between atoms: C_17  and  C_35
   12  A    between atoms: C_18  and  C_27
   13  A    between atoms: C_19  and  C_40
                            x       y       z     vdW  Elec       q    Type
                         _______ _______ _______ _____ _____    ______ ____

>  <TORSDO>
F 13

$$$$
=
 OpenBabel10232412473D

 40 48  0  0  1  0  0  0  0  0999 V2000
  189.5150  177.0190  140.9110 C   0  0  2  0  0  3  0  0  0  0  0  0
  190.4490  176.1960  141.5500 O   0  0  0  0  0  1  0  0  0  0  0  0
  189.3620  177.8410  138.5530 C   0  0  0  0  0  0  0  0  0  0  0  0
  189.6500  177.0270  137.4960 C   0  0  0  0  0  0  0  0  0  0  0  0
  192.4280  174.6230  136.4850 C   0  0  0  0  0  0  0  0  0  0  0  0
  193.3700  174.8730  137.4930 C   0  0  0  0  0  3  0  0  0  0  0  0
  191.8550  176.4490  138.5300 C   0  0  0  0  0  0  0  0  0  0  0  0
  191.5630  177.3720  139.5730 N   0  0  0  0  0  2  0  0  0  0  0  0
  190.9140  176.2370  137.5120 C   0  0  0  0  0  0  0  0  0  0  0  0
  191.2150  175.3250  136.4880 C   0  0  0  0  0  3  0  0  0  0  0  0
  190.1990  177.8410  139.8090 C   0  0  2  0  0  3  0  0  0  0  0  0
  193.0820  175.7810  138.5130 C   0  0  0  0  0  3  0  0  0  0  0  0
  188.2040  178.6750  138.5570 N   0  0  0  0  0  1  0  0  0  0  0  0
  188.5050  178.1610  135.8100 O   0  0  0  0  0  0  0  0  0  0  0  0
  187.7290  175.7220  136.6520 C   0  0  2  0  0  0  0  0  0  0  0  0
  187.6780  174.7080  135.6750 O   0  0  0  0  0  1  0  0  0  0  0  0
  188.7810  176.8820  136.2490 C   0  0  1  0  0  0  0  0  0  0  0  0
  186.4950  176.5440  136.6290 N   0  0  0  0  0  2  0  0  0  0  0  0
  187.4560  177.2510  136.2610 C   0  0  1  0  0  0  0  0  0  0  0  0
  192.7560  173.6850  135.3640 C   0  0  0  0  0  3  0  0  0  0  0  0
  192.6280  172.2400  135.8210 C   0  0  0  0  0  2  0  0  0  0  0  0
  193.9950  172.8710  135.7010 C   0  0  0  0  0  2  0  0  0  0  0  0
  189.5070  178.1720  143.2180 N   0  0  0  0  0  0  0  0  0  0  0  0
  187.3690  177.3890  142.2860 C   0  0  2  0  0  3  0  0  0  0  0  0
  188.5610  177.0450  143.1500 C   0  0  1  0  0  3  0  0  0  0  0  0
  188.7700  177.8780  141.9580 C   0  0  1  0  0  0  0  0  0  0  0  0
  185.4710  179.1580  142.1260 C   0  0  1  0  0  3  0  0  0  0  0  0
  185.1090  178.0290  143.0670 C   0  0  0  0  0  2  0  0  0  0  0  0
  186.5530  178.4800  142.9780 C   0  0  1  0  0  3  0  0  0  0  0  0
  185.3980  178.6740  140.6840 C   0  0  0  0  0  2  0  0  0  0  0  0
  184.2250  179.2880  140.0040 C   0  0  0  0  0  0  0  0  0  0  0  0
  184.3930  180.2040  139.1580 O   0  0  0  0  0  0  0  0  0  0  0  0
  182.9100  178.8580  140.3320 N   0  0  0  0  0  1  0  0  0  0  0  0
  190.8380  177.5760  143.2870 C   0  0  0  0  0  2  0  0  0  0  0  0
  191.4680  177.8480  144.6440 C   0  0  0  0  0  2  0  0  0  0  0  0
  191.4380  176.6070  145.5220 C   0  0  0  0  0  2  0  0  0  0  0  0
  190.8080  176.9220  146.8690 C   0  0  0  0  0  2  0  0  0  0  0  0
  189.2930  176.9810  146.7520 C   0  0  0  0  0  2  0  0  0  0  0  0
  189.3870  178.3050  148.7070 O   0  0  0  0  0  0  0  0  0  0  0  0
  188.7060  177.8920  147.7820 C   0  0  0  0  0  3  0  0  0  0  0  0
  1  2  1  1  0  0  0
  3 13  1  0  0  0  0
  3 11  1  0  0  0  0
  4  9  1  0  0  0  0
  4  3  2  0  0  0  0
  5 10  2  0  0  0  0
  5  6  1  0  0  0  0
  6 12  2  0  0  0  0
  7  8  1  0  0  0  0
  8 11  1  0  0  0  0
  9  7  2  0  0  0  0
 10  9  1  0  0  0  0
 11  1  1  1  0  0  0
 12  7  1  0  0  0  0
 14 17  1  0  0  0  0
 15 16  1  6  0  0  0
 17 19  1  0  0  0  0
 17 15  1  0  0  0  0
 17  4  1  1  0  0  0
 18 15  1  0  0  0  0
 19 14  1  6  0  0  0
 19 18  1  0  0  0  0
 19 15  1  0  0  0  0
 20 22  1  0  0  0  0
 20 21  1  0  0  0  0
 20  5  1  0  0  0  0
 22 21  1  0  0  0  0
 23 34  1  0  0  0  0
 24 29  1  1  0  0  0
 24 25  1  0  0  0  0
 25 23  1  1  0  0  0
 26  1  1  6  0  0  0
 26 24  1  0  0  0  0
 26 25  1  0  0  0  0
 26 23  1  0  0  0  0
 27 30  1  6  0  0  0
 27 29  1  0  0  0  0
 27 28  1  0  0  0  0
 29 28  1  1  0  0  0
 31 33  1  0  0  0  0
 31 30  1  0  0  0  0
 32 31  2  0  0  0  0
 34 35  1  0  0  0  0
 35 36  1  0  0  0  0
 36 37  1  0  0  0  0
 38 37  1  0  0  0  0
 38 40  1  0  0  0  0
 40 39  2  0  0  0  0
M  END
>  <MODEL>
5

>  <REMARK>
 VINA RESULT:      -7.1      2.149      4.957
  Name = 
  13 active torsions:
  status: ('A' for Active; 'I' for Inactive)
    1  A    between atoms: C_2  and  C_37
    2  A    between atoms: C_2  and  C_40
    3  A    between atoms: C_5  and  C_11
    4  A    between atoms: C_7  and  C_14
    5  A    between atoms: C_9  and  C_30
    6  A    between atoms: C_9  and  C_37
    7  A    between atoms: C_10  and  C_27
    8  A    between atoms: C_12  and  C_26
    9  A    between atoms: C_12  and  C_36
   10  A    between atoms: N_15  and  C_30
   11  A    between atoms: C_17  and  C_35
   12  A    between atoms: C_18  and  C_27
   13  A    between atoms: C_19  and  C_40
                            x       y       z     vdW  Elec       q    Type
                         _______ _______ _______ _____ _____    ______ ____

>  <TORSDO>
F 13

$$$$
=
 OpenBabel10232412473D

 40 48  0  0  1  0  0  0  0  0999 V2000
  187.8910  177.4190  141.8540 C   0  0  2  0  0  3  0  0  0  0  0  0
  188.9750  176.5660  141.6250 O   0  0  0  0  0  1  0  0  0  0  0  0
  186.4090  178.8970  140.4820 C   0  0  0  0  0  0  0  0  0  0  0  0
  185.7450  178.4200  139.3900 C   0  0  0  0  0  0  0  0  0  0  0  0
  186.5600  176.3510  136.2960 C   0  0  0  0  0  0  0  0  0  0  0  0
  187.9570  176.2750  136.3920 C   0  0  0  0  0  3  0  0  0  0  0  0
  187.8890  177.5150  138.4690 C   0  0  0  0  0  0  0  0  0  0  0  0
  188.5650  178.1010  139.5760 N   0  0  0  0  0  2  0  0  0  0  0  0
  186.4950  177.6310  138.3710 C   0  0  0  0  0  0  0  0  0  0  0  0
  185.8400  177.0510  137.2740 C   0  0  0  0  0  3  0  0  0  0  0  0
  187.8390  178.5110  140.7760 C   0  0  2  0  0  3  0  0  0  0  0  0
  188.6180  176.8530  137.4770 C   0  0  0  0  0  3  0  0  0  0  0  0
  185.7590  179.7200  141.4490 N   0  0  0  0  0  1  0  0  0  0  0  0
  184.0760  180.0320  139.1480 O   0  0  0  0  0  0  0  0  0  0  0  0
  183.5130  177.5250  139.9600 C   0  0  2  0  0  0  0  0  0  0  0  0
  182.5970  176.8010  139.1730 O   0  0  0  0  0  1  0  0  0  0  0  0
  184.2660  178.6650  139.0960 C   0  0  1  0  0  0  0  0  0  0  0  0
  182.8090  178.4160  140.9120 N   0  0  0  0  0  2  0  0  0  0  0  0
  183.4150  179.1180  140.0770 C   0  0  1  0  0  0  0  0  0  0  0  0
  185.8550  175.7740  135.1060 C   0  0  0  0  0  3  0  0  0  0  0  0
  185.1340  174.4890  135.4840 C   0  0  0  0  0  2  0  0  0  0  0  0
  186.4500  174.4230  134.7440 C   0  0  0  0  0  2  0  0  0  0  0  0
  189.2470  177.8010  144.0150 N   0  0  0  0  0  0  0  0  0  0  0  0
  186.8090  177.5220  144.1890 C   0  0  2  0  0  3  0  0  0  0  0  0
  188.1540  176.8320  144.2020 C   0  0  1  0  0  3  0  0  0  0  0  0
  187.9540  177.9720  143.2970 C   0  0  1  0  0  0  0  0  0  0  0  0
  185.2730  178.6690  145.9450 C   0  0  1  0  0  3  0  0  0  0  0  0
  186.1290  177.5870  146.5690 C   0  0  0  0  0  2  0  0  0  0  0  0
  186.6950  178.4090  145.4290 C   0  0  1  0  0  3  0  0  0  0  0  0
  184.1660  178.0370  145.1120 C   0  0  0  0  0  2  0  0  0  0  0  0
  183.3350  179.1020  144.4880 C   0  0  0  0  0  0  0  0  0  0  0  0
  182.1080  178.9110  144.2870 O   0  0  0  0  0  0  0  0  0  0  0  0
  183.9360  180.3290  144.0910 N   0  0  0  0  0  1  0  0  0  0  0  0
  190.2740  177.1060  143.2440 C   0  0  0  0  0  2  0  0  0  0  0  0
  191.6520  177.3970  143.8170 C   0  0  0  0  0  2  0  0  0  0  0  0
  191.6050  177.5050  145.3320 C   0  0  0  0  0  2  0  0  0  0  0  0
  191.7170  176.1290  145.9680 C   0  0  0  0  0  2  0  0  0  0  0  0
  191.5060  176.2140  147.4710 C   0  0  0  0  0  2  0  0  0  0  0  0
  193.2960  176.5540  148.9760 O   0  0  0  0  0  0  0  0  0  0  0  0
  192.7320  175.7850  148.2140 C   0  0  0  0  0  3  0  0  0  0  0  0
  1  2  1  6  0  0  0
  3 11  1  0  0  0  0
  3 13  1  0  0  0  0
  4  3  2  0  0  0  0
  5  6  2  0  0  0  0
  5 10  1  0  0  0  0
  6 12  1  0  0  0  0
  7  8  1  0  0  0  0
  8 11  1  0  0  0  0
  9  7  1  0  0  0  0
  9  4  1  0  0  0  0
 10  9  2  0  0  0  0
 11  1  1  1  0  0  0
 12  7  2  0  0  0  0
 15 16  1  6  0  0  0
 15 19  1  0  0  0  0
 15 18  1  0  0  0  0
 17 14  1  0  0  0  0
 17  4  1  1  0  0  0
 17 15  1  0  0  0  0
 17 19  1  0  0  0  0
 19 14  1  6  0  0  0
 19 18  1  0  0  0  0
 20 21  1  0  0  0  0
 20  5  1  0  0  0  0
 22 20  1  0  0  0  0
 22 21  1  0  0  0  0
 24 25  1  0  0  0  0
 24 29  1  1  0  0  0
 25 23  1  1  0  0  0
 26  1  1  6  0  0  0
 26 23  1  0  0  0  0
 26 24  1  0  0  0  0
 26 25  1  0  0  0  0
 27 30  1  6  0  0  0
 27 28  1  0  0  0  0
 29 27  1  0  0  0  0
 29 28  1  1  0  0  0
 31 30  1  0  0  0  0
 32 31  2  0  0  0  0
 33 31  1  0  0  0  0
 34 35  1  0  0  0  0
 34 23  1  0  0  0  0
 35 36  1  0  0  0  0
 36 37  1  0  0  0  0
 37 38  1  0  0  0  0
 38 40  1  0  0  0  0
 40 39  2  0  0  0  0
M  END
>  <MODEL>
6

>  <REMARK>
 VINA RESULT:      -6.9      2.926      5.900
  Name = 
  13 active torsions:
  status: ('A' for Active; 'I' for Inactive)
    1  A    between atoms: C_2  and  C_37
    2  A    between atoms: C_2  and  C_40
    3  A    between atoms: C_5  and  C_11
    4  A    between atoms: C_7  and  C_14
    5  A    between atoms: C_9  and  C_30
    6  A    between atoms: C_9  and  C_37
    7  A    between atoms: C_10  and  C_27
    8  A    between atoms: C_12  and  C_26
    9  A    between atoms: C_12  and  C_36
   10  A    between atoms: N_15  and  C_30
   11  A    between atoms: C_17  and  C_35
   12  A    between atoms: C_18  and  C_27
   13  A    between atoms: C_19  and  C_40
                            x       y       z     vdW  Elec       q    Type
                         _______ _______ _______ _____ _____    ______ ____

>  <TORSDO>
F 13

$$$$
=
 OpenBabel10232412473D

 40 48  0  0  1  0  0  0  0  0999 V2000
  188.8930  176.6060  138.4880 C   0  0  2  0  0  3  0  0  0  0  0  0
  187.5550  176.6160  138.0790 O   0  0  0  0  0  1  0  0  0  0  0  0
  189.9460  177.4990  140.5750 C   0  0  0  0  0  0  0  0  0  0  0  0
  189.3130  177.4170  141.7810 C   0  0  0  0  0  0  0  0  0  0  0  0
  185.8560  178.1760  143.1920 C   0  0  0  0  0  0  0  0  0  0  0  0
  185.2660  178.8290  142.1010 C   0  0  0  0  0  3  0  0  0  0  0  0
  187.2740  178.4820  140.7960 C   0  0  0  0  0  0  0  0  0  0  0  0
  187.9910  178.6340  139.5760 N   0  0  0  0  0  2  0  0  0  0  0  0
  187.8930  177.8570  141.8880 C   0  0  0  0  0  0  0  0  0  0  0  0
  187.1760  177.7150  143.0870 C   0  0  0  0  0  3  0  0  0  0  0  0
  189.2040  177.8640  139.3110 C   0  0  2  0  0  3  0  0  0  0  0  0
  185.9720  178.9790  140.9070 C   0  0  0  0  0  3  0  0  0  0  0  0
  191.3250  177.1630  140.4320 N   0  0  0  0  0  1  0  0  0  0  0  0
  189.0510  176.1110  143.6970 O   0  0  0  0  0  0  0  0  0  0  0  0
  190.6680  178.2660  143.6660 C   0  0  2  0  0  0  0  0  0  0  0  0
  192.0200  178.0410  143.9860 O   0  0  0  0  0  1  0  0  0  0  0  0
  189.9680  176.9340  143.0740 C   0  0  1  0  0  0  0  0  0  0  0  0
  189.8470  178.4050  144.8930 N   0  0  0  0  0  2  0  0  0  0  0  0
  189.5120  177.3590  144.3010 C   0  0  1  0  0  0  0  0  0  0  0  0
  185.1160  178.0590  144.4890 C   0  0  0  0  0  3  0  0  0  0  0  0
  185.4760  179.2100  145.4160 C   0  0  0  0  0  2  0  0  0  0  0  0
  186.0900  177.8470  145.6370 C   0  0  0  0  0  2  0  0  0  0  0  0
  189.2370  175.6820  136.1050 N   0  0  0  0  0  0  0  0  0  0  0  0
  191.1880  175.8570  137.5930 C   0  0  2  0  0  3  0  0  0  0  0  0
  190.0590  174.9790  137.1040 C   0  0  1  0  0  3  0  0  0  0  0  0
  189.8150  176.4190  137.2620 C   0  0  1  0  0  0  0  0  0  0  0  0
  193.6270  175.6850  136.7080 C   0  0  1  0  0  3  0  0  0  0  0  0
  192.6940  174.7480  135.9700 C   0  0  0  0  0  2  0  0  0  0  0  0
  192.1690  176.0890  136.4440 C   0  0  1  0  0  3  0  0  0  0  0  0
  193.8970  175.1500  138.1070 C   0  0  0  0  0  2  0  0  0  0  0  0
  195.2450  174.5210  138.1550 C   0  0  0  0  0  0  0  0  0  0  0  0
  196.1860  174.9890  137.4630 O   0  0  0  0  0  0  0  0  0  0  0  0
  195.4630  173.3730  138.9660 N   0  0  0  0  0  1  0  0  0  0  0  0
  187.8680  175.2190  136.3130 C   0  0  0  0  0  2  0  0  0  0  0  0
  187.5150  174.1440  135.2970 C   0  0  0  0  0  2  0  0  0  0  0  0
  186.8200  172.9660  135.9610 C   0  0  0  0  0  2  0  0  0  0  0  0
  186.4450  173.3080  137.3940 C   0  0  0  0  0  2  0  0  0  0  0  0
  185.0050  172.9150  137.6800 C   0  0  0  0  0  2  0  0  0  0  0  0
  184.5230  175.2080  137.3690 O   0  0  0  0  0  0  0  0  0  0  0  0
  184.1180  174.1180  137.7400 C   0  0  0  0  0  3  0  0  0  0  0  0
  1  2  1  6  0  0  0
  3  4  2  0  0  0  0
  4  9  1  0  0  0  0
  5 20  1  0  0  0  0
  6  5  2  0  0  0  0
  7 12  2  0  0  0  0
  7  9  1  0  0  0  0
  8  7  1  0  0  0  0
  9 10  2  0  0  0  0
 10  5  1  0  0  0  0
 11  1  1  1  0  0  0
 11  8  1  0  0  0  0
 11  3  1  0  0  0  0
 12  6  1  0  0  0  0
 13  3  1  0  0  0  0
 15 16  1  1  0  0  0
 15 19  1  0  0  0  0
 15 18  1  0  0  0  0
 17  4  1  6  0  0  0
 17 15  1  0  0  0  0
 17 14  1  0  0  0  0
 17 19  1  0  0  0  0
 19 14  1  1  0  0  0
 19 18  1  0  0  0  0
 20 21  1  0  0  0  0
 20 22  1  0  0  0  0
 21 22  1  0  0  0  0
 23 34  1  0  0  0  0
 23 26  1  0  0  0  0
 24 29  1  6  0  0  0
 25 23  1  6  0  0  0
 25 26  1  0  0  0  0
 25 24  1  0  0  0  0
 26 24  1  0  0  0  0
 26  1  1  1  0  0  0
 27 30  1  1  0  0  0
 28 27  1  0  0  0  0
 29 28  1  6  0  0  0
 29 27  1  0  0  0  0
 30 31  1  0  0  0  0
 31 33  1  0  0  0  0
 32 31  2  0  0  0  0
 35 36  1  0  0  0  0
 35 34  1  0  0  0  0
 36 37  1  0  0  0  0
 37 38  1  0  0  0  0
 38 40  1  0  0  0  0
 39 40  2  0  0  0  0
M  END
>  <MODEL>
7

>  <REMARK>
 VINA RESULT:      -6.9      2.808      8.306
  Name = 
  13 active torsions:
  status: ('A' for Active; 'I' for Inactive)
    1  A    between atoms: C_2  and  C_37
    2  A    between atoms: C_2  and  C_40
    3  A    between atoms: C_5  and  C_11
    4  A    between atoms: C_7  and  C_14
    5  A    between atoms: C_9  and  C_30
    6  A    between atoms: C_9  and  C_37
    7  A    between atoms: C_10  and  C_27
    8  A    between atoms: C_12  and  C_26
    9  A    between atoms: C_12  and  C_36
   10  A    between atoms: N_15  and  C_30
   11  A    between atoms: C_17  and  C_35
   12  A    between atoms: C_18  and  C_27
   13  A    between atoms: C_19  and  C_40
                            x       y       z     vdW  Elec       q    Type
                         _______ _______ _______ _____ _____    ______ ____

>  <TORSDO>
F 13

$$$$
=
 OpenBabel10232412473D

 40 48  0  0  1  0  0  0  0  0999 V2000
  188.6800  176.8660  138.7300 C   0  0  2  0  0  3  0  0  0  0  0  0
  187.3060  176.6090  138.7040 O   0  0  0  0  0  1  0  0  0  0  0  0
  189.8750  177.7890  140.7260 C   0  0  0  0  0  0  0  0  0  0  0  0
  189.3910  177.6110  141.9890 C   0  0  0  0  0  0  0  0  0  0  0  0
  186.0580  178.0010  143.7950 C   0  0  0  0  0  0  0  0  0  0  0  0
  185.2950  178.6300  142.8020 C   0  0  0  0  0  3  0  0  0  0  0  0
  187.1680  178.5120  141.2750 C   0  0  0  0  0  0  0  0  0  0  0  0
  187.7280  178.7670  139.9920 N   0  0  0  0  0  2  0  0  0  0  0  0
  187.9580  177.9130  142.2670 C   0  0  0  0  0  0  0  0  0  0  0  0
  187.3940  177.6680  143.5290 C   0  0  0  0  0  3  0  0  0  0  0  0
  188.9680  178.1220  139.5660 C   0  0  2  0  0  3  0  0  0  0  0  0
  185.8480  178.8810  141.5460 C   0  0  0  0  0  3  0  0  0  0  0  0
  191.2540  177.5870  140.4210 N   0  0  0  0  0  1  0  0  0  0  0  0
  189.5300  176.1160  143.7750 O   0  0  0  0  0  0  0  0  0  0  0  0
  190.7120  178.5360  143.8620 C   0  0  2  0  0  0  0  0  0  0  0  0
  192.1050  178.5470  144.0720 O   0  0  0  0  0  1  0  0  0  0  0  0
  190.2250  177.1510  143.1830 C   0  0  1  0  0  0  0  0  0  0  0  0
  189.9820  178.4070  145.1450 N   0  0  0  0  0  2  0  0  0  0  0  0
  189.8000  177.3710  144.4720 C   0  0  1  0  0  0  0  0  0  0  0  0
  185.4810  177.7750  145.1590 C   0  0  0  0  0  3  0  0  0  0  0  0
  185.6100  179.0290  146.0090 C   0  0  0  0  0  2  0  0  0  0  0  0
  186.5670  177.8780  146.2170 C   0  0  0  0  0  2  0  0  0  0  0  0
  188.2840  177.4290  136.2450 N   0  0  0  0  0  0  0  0  0  0  0  0
  189.9030  175.6640  136.8090 C   0  0  2  0  0  3  0  0  0  0  0  0
  188.4640  175.9850  136.4720 C   0  0  1  0  0  3  0  0  0  0  0  0
  189.2280  176.9400  137.2860 C   0  0  1  0  0  0  0  0  0  0  0  0
  192.2280  175.4540  135.6650 C   0  0  1  0  0  3  0  0  0  0  0  0
  191.1840  174.6000  134.9770 C   0  0  0  0  0  2  0  0  0  0  0  0
  190.7700  175.9280  135.5780 C   0  0  1  0  0  3  0  0  0  0  0  0
  192.6160  174.8240  136.9960 C   0  0  0  0  0  2  0  0  0  0  0  0
  193.6420  175.6640  137.6710 C   0  0  0  0  0  0  0  0  0  0  0  0
  193.5040  176.9130  137.7210 O   0  0  0  0  0  0  0  0  0  0  0  0
  194.7950  175.0540  138.2380 N   0  0  0  0  0  1  0  0  0  0  0  0
  186.9510  177.7510  136.7470 C   0  0  0  0  0  2  0  0  0  0  0  0
  185.8910  177.3230  135.7440 C   0  0  0  0  0  2  0  0  0  0  0  0
  184.5650  177.0440  136.4320 C   0  0  0  0  0  2  0  0  0  0  0  0
  184.5390  177.6730  137.8150 C   0  0  0  0  0  2  0  0  0  0  0  0
  183.2370  178.4240  138.0390 C   0  0  0  0  0  2  0  0  0  0  0  0
  184.4470  180.2840  138.8520 O   0  0  0  0  0  0  0  0  0  0  0  0
  183.4390  179.6020  138.9390 C   0  0  0  0  0  3  0  0  0  0  0  0
  1  2  1  6  0  0  0
  3  4  2  0  0  0  0
  4  9  1  0  0  0  0
  5 20  1  0  0  0  0
  6  5  2  0  0  0  0
  7 12  2  0  0  0  0
  7  9  1  0  0  0  0
  8  7  1  0  0  0  0
  9 10  2  0  0  0  0
 10  5  1  0  0  0  0
 11  1  1  1  0  0  0
 11  8  1  0  0  0  0
 11  3  1  0  0  0  0
 12  6  1  0  0  0  0
 13  3  1  0  0  0  0
 15 16  1  1  0  0  0
 15 19  1  0  0  0  0
 15 18  1  0  0  0  0
 17  4  1  6  0  0  0
 17 14  1  0  0  0  0
 17 15  1  0  0  0  0
 17 19  1  0  0  0  0
 19 14  1  1  0  0  0
 19 18  1  0  0  0  0
 20 21  1  0  0  0  0
 20 22  1  0  0  0  0
 21 22  1  0  0  0  0
 23 34  1  0  0  0  0
 23 26  1  0  0  0  0
 24 29  1  6  0  0  0
 24 26  1  0  0  0  0
 25 23  1  6  0  0  0
 25 24  1  0  0  0  0
 25 26  1  0  0  0  0
 26  1  1  1  0  0  0
 27 30  1  1  0  0  0
 28 27  1  0  0  0  0
 29 28  1  6  0  0  0
 29 27  1  0  0  0  0
 30 31  1  0  0  0  0
 31 32  2  0  0  0  0
 31 33  1  0  0  0  0
 35 36  1  0  0  0  0
 35 34  1  0  0  0  0
 36 37  1  0  0  0  0
 37 38  1  0  0  0  0
 38 40  1  0  0  0  0
 39 40  2  0  0  0  0
M  END
>  <MODEL>
8

>  <REMARK>
 VINA RESULT:      -6.7      2.492      8.046
  Name = 
  13 active torsions:
  status: ('A' for Active; 'I' for Inactive)
    1  A    between atoms: C_2  and  C_37
    2  A    between atoms: C_2  and  C_40
    3  A    between atoms: C_5  and  C_11
    4  A    between atoms: C_7  and  C_14
    5  A    between atoms: C_9  and  C_30
    6  A    between atoms: C_9  and  C_37
    7  A    between atoms: C_10  and  C_27
    8  A    between atoms: C_12  and  C_26
    9  A    between atoms: C_12  and  C_36
   10  A    between atoms: N_15  and  C_30
   11  A    between atoms: C_17  and  C_35
   12  A    between atoms: C_18  and  C_27
   13  A    between atoms: C_19  and  C_40
                            x       y       z     vdW  Elec       q    Type
                         _______ _______ _______ _____ _____    ______ ____

>  <TORSDO>
F 13

$$$$
=
 OpenBabel10232412473D

 40 48  0  0  1  0  0  0  0  0999 V2000
  187.1350  177.7010  142.0570 C   0  0  2  0  0  3  0  0  0  0  0  0
  188.1290  176.8610  142.5690 O   0  0  0  0  0  1  0  0  0  0  0  0
  187.0670  178.5390  139.7000 C   0  0  0  0  0  0  0  0  0  0  0  0
  187.6410  177.8380  138.6800 C   0  0  0  0  0  0  0  0  0  0  0  0
  190.9690  176.1200  137.9810 C   0  0  0  0  0  0  0  0  0  0  0  0
  191.7170  176.5380  139.0900 C   0  0  0  0  0  3  0  0  0  0  0  0
  189.7910  177.7190  139.9550 C   0  0  0  0  0  0  0  0  0  0  0  0
  189.1920  178.5270  140.9630 N   0  0  0  0  0  2  0  0  0  0  0  0
  189.0370  177.3390  138.8360 C   0  0  0  0  0  0  0  0  0  0  0  0
  189.6390  176.5440  137.8480 C   0  0  0  0  0  3  0  0  0  0  0  0
  187.7410  178.6830  141.0440 C   0  0  2  0  0  3  0  0  0  0  0  0
  191.1280  177.3320  140.0750 C   0  0  0  0  0  3  0  0  0  0  0  0
  185.7630  179.1040  139.5770 N   0  0  0  0  0  1  0  0  0  0  0  0
  186.5170  178.7560  136.8540 O   0  0  0  0  0  0  0  0  0  0  0  0
  186.1020  176.2110  137.6340 C   0  0  2  0  0  0  0  0  0  0  0  0
  186.3540  175.2110  136.6740 O   0  0  0  0  0  1  0  0  0  0  0  0
  186.9670  177.5450  137.3410 C   0  0  1  0  0  0  0  0  0  0  0  0
  184.7510  176.7940  137.4530 N   0  0  0  0  0  2  0  0  0  0  0  0
  185.6050  177.6660  137.1910 C   0  0  1  0  0  0  0  0  0  0  0  0
  191.6150  175.3080  136.9000 C   0  0  0  0  0  3  0  0  0  0  0  0
  191.7620  173.8580  137.3350 C   0  0  0  0  0  2  0  0  0  0  0  0
  192.9600  174.7790  137.3690 C   0  0  0  0  0  2  0  0  0  0  0  0
  186.8630  178.0840  144.5930 N   0  0  0  0  0  0  0  0  0  0  0  0
  184.8700  178.2370  143.1580 C   0  0  2  0  0  3  0  0  0  0  0  0
  185.7340  177.3370  144.0140 C   0  0  1  0  0  3  0  0  0  0  0  0
  186.3810  178.3890  143.2180 C   0  0  1  0  0  0  0  0  0  0  0  0
  182.7010  179.5430  143.7500 C   0  0  1  0  0  3  0  0  0  0  0  0
  183.0830  178.5640  144.8400 C   0  0  0  0  0  2  0  0  0  0  0  0
  184.1780  179.2610  144.0580 C   0  0  1  0  0  3  0  0  0  0  0  0
  182.1450  178.7880  142.5500 C   0  0  0  0  0  2  0  0  0  0  0  0
  180.7700  179.2690  142.2450 C   0  0  0  0  0  0  0  0  0  0  0  0
  180.0850  178.7040  141.3520 O   0  0  0  0  0  0  0  0  0  0  0  0
  180.2370  180.3860  142.9470 N   0  0  0  0  0  1  0  0  0  0  0  0
  187.9810  177.1470  144.6420 C   0  0  0  0  0  2  0  0  0  0  0  0
  188.7330  177.2920  145.9560 C   0  0  0  0  0  2  0  0  0  0  0  0
  190.2310  177.4130  145.7220 C   0  0  0  0  0  2  0  0  0  0  0  0
  190.5110  178.2880  144.5120 C   0  0  0  0  0  2  0  0  0  0  0  0
  191.6210  177.6900  143.6620 C   0  0  0  0  0  2  0  0  0  0  0  0
  190.7960  175.5550  143.0720 O   0  0  0  0  0  0  0  0  0  0  0  0
  191.6050  176.1950  143.7250 C   0  0  0  0  0  3  0  0  0  0  0  0
  1  2  1  1  0  0  0
  3 11  1  0  0  0  0
  4  9  1  0  0  0  0
  4  3  2  0  0  0  0
  5  6  1  0  0  0  0
  6 12  2  0  0  0  0
  7 12  1  0  0  0  0
  7  8  1  0  0  0  0
  8 11  1  0  0  0  0
  9  7  2  0  0  0  0
 10  5  2  0  0  0  0
 10  9  1  0  0  0  0
 11  1  1  1  0  0  0
 13  3  1  0  0  0  0
 14 17  1  0  0  0  0
 15 16  1  6  0  0  0
 17 15  1  0  0  0  0
 17  4  1  1  0  0  0
 18 15  1  0  0  0  0
 19 14  1  6  0  0  0
 19 17  1  0  0  0  0
 19 18  1  0  0  0  0
 19 15  1  0  0  0  0
 20 21  1  0  0  0  0
 20 22  1  0  0  0  0
 20  5  1  0  0  0  0
 21 22  1  0  0  0  0
 23 34  1  0  0  0  0
 24 26  1  0  0  0  0
 24 25  1  0  0  0  0
 24 29  1  1  0  0  0
 25 23  1  1  0  0  0
 26  1  1  6  0  0  0
 26 25  1  0  0  0  0
 26 23  1  0  0  0  0
 27 30  1  6  0  0  0
 27 29  1  0  0  0  0
 27 28  1  0  0  0  0
 29 28  1  1  0  0  0
 31 30  1  0  0  0  0
 31 33  1  0  0  0  0
 32 31  2  0  0  0  0
 34 35  1  0  0  0  0
 36 35  1  0  0  0  0
 37 36  1  0  0  0  0
 38 40  1  0  0  0  0
 38 37  1  0  0  0  0
 39 40  2  0  0  0  0
M  END
>  <MODEL>
9

>  <REMARK>
 VINA RESULT:      -6.6      2.359      5.501
  Name = 
  13 active torsions:
  status: ('A' for Active; 'I' for Inactive)
    1  A    between atoms: C_2  and  C_37
    2  A    between atoms: C_2  and  C_40
    3  A    between atoms: C_5  and  C_11
    4  A    between atoms: C_7  and  C_14
    5  A    between atoms: C_9  and  C_30
    6  A    between atoms: C_9  and  C_37
    7  A    between atoms: C_10  and  C_27
    8  A    between atoms: C_12  and  C_26
    9  A    between atoms: C_12  and  C_36
   10  A    between atoms: N_15  and  C_30
   11  A    between atoms: C_17  and  C_35
   12  A    between atoms: C_18  and  C_27
   13  A    between atoms: C_19  and  C_40
                            x       y       z     vdW  Elec       q    Type
                         _______ _______ _______ _____ _____    ______ ____

>  <TORSDO>
F 13

$$$$
