=
 OpenBabel10232412383D

 37 43  0  0  1  0  0  0  0  0999 V2000
  184.6420  178.9860  146.3410 O   0  0  0  0  0  0  0  0  0  0  0  0
  186.5680  177.8140  141.5000 O   0  0  0  0  0  0  0  0  0  0  0  0
  187.7410  178.5360  141.7610 C   0  0  1  0  0  3  0  0  0  0  0  0
  189.0290  178.3950  139.5960 C   0  0  0  0  0  3  0  0  0  0  0  0
  190.9190  176.5170  142.1040 N   0  0  0  0  0  0  0  0  0  0  0  0
  189.8700  177.1820  141.5310 C   0  0  0  0  0  0  0  0  0  0  0  0
  191.9980  175.8620  146.3190 N   0  0  0  0  0  0  0  0  0  0  0  0
  188.8010  177.6340  142.3380 C   0  0  0  0  0  0  0  0  0  0  0  0
  188.2370  179.2820  140.5120 C   0  0  0  0  0  2  0  0  0  0  0  0
  189.9360  176.7000  144.2580 C   0  0  0  0  0  0  0  0  0  0  0  0
  187.9610  177.6900  144.8010 C   0  0  0  0  0  0  0  0  0  0  0  0
  189.8490  177.4460  140.0670 C   0  0  0  0  0  0  0  0  0  0  0  0
  192.0010  175.5040  143.8830 C   0  0  0  0  0  3  0  0  0  0  0  0
  185.3450  178.0420  144.0610 C   0  0  1  0  0  3  0  0  0  0  0  0
  185.2760  178.5090  145.3650 C   0  0  0  0  0  0  0  0  0  0  0  0
  185.3130  179.2010  143.0880 C   0  0  0  0  0  2  0  0  0  0  0  0
  186.5730  178.0110  144.7210 N   0  0  0  0  0  0  0  0  0  0  0  0
  189.8700  176.8090  145.5900 C   0  0  0  0  0  0  0  0  0  0  0  0
  190.9890  176.2540  143.4400 C   0  0  0  0  0  0  0  0  0  0  0  0
  188.8260  177.2900  143.6960 C   0  0  0  0  0  0  0  0  0  0  0  0
  191.0370  177.5230  147.7510 C   0  0  0  0  0  1  0  0  0  0  0  0
  188.5760  177.4190  145.9430 C   0  0  0  0  0  3  0  0  0  0  0  0
  191.0010  176.6660  146.5330 C   0  0  0  0  0  0  0  0  0  0  0  0
  192.0640  174.8830  145.2430 C   0  0  0  0  0  2  0  0  0  0  0  0
  185.4910  178.7110  141.6470 C   0  0  0  0  0  2  0  0  0  0  0  0
  191.8570  176.9830  138.6820 C   0  0  0  0  0  3  0  0  0  0  0  0
  190.2570  175.5030  138.5600 C   0  0  0  0  0  3  0  0  0  0  0  0
  191.2550  175.0590  137.7110 C   0  0  0  0  0  3  0  0  0  0  0  0
  192.2690  175.9940  137.8190 C   0  0  0  0  0  0  0  0  0  0  0  0
  190.6320  176.6600  139.1440 N   0  0  0  0  0  0  0  0  0  0  0  0
  193.5200  176.0480  137.0430 C   0  0  0  0  0  3  0  0  0  0  0  0
  194.6640  175.3810  137.2760 C   0  0  0  0  0  0  0  0  0  0  0  0
  194.8120  173.3430  138.4680 O   0  0  0  0  0  0  0  0  0  0  0  0
  195.3500  175.2110  139.6680 O   0  0  0  0  0  1  0  0  0  0  0  0
  194.9140  174.5970  138.4990 C   0  0  0  0  0  0  0  0  0  0  0  0
  196.9100  175.6510  136.6530 O   0  0  0  0  0  1  0  0  0  0  0  0
  195.7220  175.4600  136.3140 N   0  0  0  0  0  2  0  0  0  0  0  0
  2 25  1  0  0  0  0
  2  3  1  0  0  0  0
  3  9  1  6  0  0  0
  3  8  1  0  0  0  0
  4 12  2  0  0  0  0
  4  9  1  0  0  0  0
  5 19  1  0  0  0  0
  6  5  2  0  0  0  0
  6  8  1  0  0  0  0
  7 23  2  0  0  0  0
  8 20  2  0  0  0  0
 10 18  2  0  0  0  0
 11 22  2  0  0  0  0
 12  6  1  0  0  0  0
 13 24  1  0  0  0  0
 14 16  1  6  0  0  0
 14 17  1  0  0  0  0
 14 15  1  0  0  0  0
 15  1  2  0  0  0  0
 17 11  1  0  0  0  0
 17 15  1  0  0  0  0
 18 22  1  0  0  0  0
 18 23  1  0  0  0  0
 19 13  2  0  0  0  0
 19 10  1  0  0  0  0
 20 10  1  0  0  0  0
 20 11  1  0  0  0  0
 23 21  1  0  0  0  0
 24  7  1  0  0  0  0
 25 16  1  0  0  0  0
 26 30  1  0  0  0  0
 27 30  1  0  0  0  0
 28 29  1  0  0  0  0
 28 27  2  0  0  0  0
 29 26  2  0  0  0  0
 30 12  1  0  0  0  0
 31 32  2  0  0  0  0
 31 29  1  0  0  0  0
 32 35  1  0  0  0  0
 33 35  2  0  0  0  0
 35 34  1  0  0  0  0
 37 36  1  0  0  0  0
 37 32  1  0  0  0  0
M  END
>  <MODEL>
1

>  <REMARK>
 VINA RESULT:      -9.0      0.000      0.000
  Name = 
  4 active torsions:
  status: ('A' for Active; 'I' for Inactive)
    1  A    between atoms: C_5  and  C_33
    2  A    between atoms: C_17  and  N_35
    3  A    between atoms: C_19  and  N_22
    4  A    between atoms: C_19  and  C_31
                            x       y       z     vdW  Elec       q    Type
                         _______ _______ _______ _____ _____    ______ ____

>  <TORSDO>
F 4

$$$$
=
 OpenBabel10232412383D

 37 43  0  0  1  0  0  0  0  0999 V2000
  192.1220  176.5270  147.9860 O   0  0  0  0  0  0  0  0  0  0  0  0
  186.9790  177.2300  146.7280 O   0  0  0  0  0  0  0  0  0  0  0  0
  187.2900  178.3700  145.9740 C   0  0  1  0  0  3  0  0  0  0  0  0
  185.0410  179.2190  145.2090 C   0  0  0  0  0  3  0  0  0  0  0  0
  186.8410  178.0870  142.2300 N   0  0  0  0  0  0  0  0  0  0  0  0
  186.5440  178.2550  143.5550 C   0  0  0  0  0  0  0  0  0  0  0  0
  190.6580  177.3430  140.1720 N   0  0  0  0  0  0  0  0  0  0  0  0
  187.5340  178.0020  144.5330 C   0  0  0  0  0  0  0  0  0  0  0  0
  186.2130  179.4560  146.1170 C   0  0  0  0  0  2  0  0  0  0  0  0
  189.0600  177.4210  142.7500 C   0  0  0  0  0  0  0  0  0  0  0  0
  190.0080  177.2450  144.8110 C   0  0  0  0  0  0  0  0  0  0  0  0
  185.1940  178.7130  143.9780 C   0  0  0  0  0  0  0  0  0  0  0  0
  188.2170  177.4360  140.4860 C   0  0  0  0  0  2  0  0  0  0  0  0
  189.6260  176.4220  147.3970 C   0  0  1  0  0  3  0  0  0  0  0  0
  191.0040  176.5780  147.4110 C   0  0  0  0  0  0  0  0  0  0  0  0
  188.9630  177.5670  148.1320 C   0  0  0  0  0  2  0  0  0  0  0  0
  190.1390  176.8730  146.1810 N   0  0  0  0  0  0  0  0  0  0  0  0
  190.3800  177.2660  142.5960 C   0  0  0  0  0  0  0  0  0  0  0  0
  188.0630  177.6740  141.7910 C   0  0  0  0  0  0  0  0  0  0  0  0
  188.7630  177.4940  144.0930 C   0  0  1  0  0  3  0  0  0  0  0  0
  192.5270  178.0830  141.4720 C   0  0  0  0  0  1  0  0  0  0  0  0
  190.9900  177.1170  143.9290 C   0  0  0  0  0  3  0  0  0  0  0  0
  191.1500  177.5260  141.3600 C   0  0  0  0  0  0  0  0  0  0  0  0
  189.3790  176.7070  139.8880 C   0  0  0  0  0  2  0  0  0  0  0  0
  187.4370  177.4660  148.0400 C   0  0  0  0  0  2  0  0  0  0  0  0
  184.0570  178.0900  141.8600 C   0  0  0  0  0  3  0  0  0  0  0  0
  182.7700  178.8990  143.4260 C   0  0  0  0  0  3  0  0  0  0  0  0
  181.9430  178.6370  142.3490 C   0  0  0  0  0  3  0  0  0  0  0  0
  182.7690  178.1040  141.3750 C   0  0  0  0  0  0  0  0  0  0  0  0
  184.0400  178.5600  143.1240 N   0  0  0  0  0  0  0  0  0  0  0  0
  182.4070  177.7510  139.9920 C   0  0  0  0  0  3  0  0  0  0  0  0
  182.5860  178.4850  138.8800 C   0  0  0  0  0  0  0  0  0  0  0  0
  182.1730  180.8130  138.8020 O   0  0  0  0  0  0  0  0  0  0  0  0
  184.3600  180.2240  139.1040 O   0  0  0  0  0  1  0  0  0  0  0  0
  183.0260  179.8920  138.8960 C   0  0  0  0  0  0  0  0  0  0  0  0
  183.1770  177.7530  136.7300 O   0  0  0  0  0  1  0  0  0  0  0  0
  182.2970  177.8980  137.6060 N   0  0  0  0  0  2  0  0  0  0  0  0
  2 25  1  0  0  0  0
  3  9  1  6  0  0  0
  3  2  1  0  0  0  0
  4  9  1  0  0  0  0
  5  6  1  0  0  0  0
  6 12  1  0  0  0  0
  6  8  2  0  0  0  0
  7 23  2  0  0  0  0
  8  3  1  0  0  0  0
 11 17  1  0  0  0  0
 12  4  2  0  0  0  0
 13 19  1  0  0  0  0
 14 15  1  0  0  0  0
 14 16  1  1  0  0  0
 15  1  2  0  0  0  0
 17 14  1  0  0  0  0
 17 15  1  0  0  0  0
 18 10  2  0  0  0  0
 18 22  1  0  0  0  0
 19  5  2  0  0  0  0
 19 10  1  0  0  0  0
 20 10  1  6  0  0  0
 20  8  1  0  0  0  0
 20 11  1  0  0  0  0
 22 11  2  0  0  0  0
 23 21  1  0  0  0  0
 23 18  1  0  0  0  0
 24  7  1  0  0  0  0
 24 13  1  0  0  0  0
 25 16  1  0  0  0  0
 26 30  1  0  0  0  0
 28 27  2  0  0  0  0
 29 26  2  0  0  0  0
 29 28  1  0  0  0  0
 30 27  1  0  0  0  0
 30 12  1  0  0  0  0
 31 29  1  0  0  0  0
 32 35  1  0  0  0  0
 32 31  2  0  0  0  0
 33 35  2  0  0  0  0
 35 34  1  0  0  0  0
 36 37  1  0  0  0  0
 37 32  1  0  0  0  0
M  END
>  <MODEL>
2

>  <REMARK>
 VINA RESULT:      -8.9      3.948      7.940
  Name = 
  4 active torsions:
  status: ('A' for Active; 'I' for Inactive)
    1  A    between atoms: C_5  and  C_33
    2  A    between atoms: C_17  and  N_35
    3  A    between atoms: C_19  and  N_22
    4  A    between atoms: C_19  and  C_31
                            x       y       z     vdW  Elec       q    Type
                         _______ _______ _______ _____ _____    ______ ____

>  <TORSDO>
F 4

$$$$
=
 OpenBabel10232412383D

 37 43  0  0  1  0  0  0  0  0999 V2000
  184.7550  178.7720  147.0170 O   0  0  0  0  0  0  0  0  0  0  0  0
  186.3290  177.7490  142.0170 O   0  0  0  0  0  0  0  0  0  0  0  0
  187.5040  178.4890  142.2050 C   0  0  1  0  0  3  0  0  0  0  0  0
  188.6260  178.4240  139.9460 C   0  0  0  0  0  3  0  0  0  0  0  0
  190.7370  176.5290  142.2590 N   0  0  0  0  0  0  0  0  0  0  0  0
  189.6350  177.1850  141.7830 C   0  0  0  0  0  0  0  0  0  0  0  0
  192.1460  175.8030  146.3630 N   0  0  0  0  0  0  0  0  0  0  0  0
  188.6220  177.5970  142.6790 C   0  0  0  0  0  0  0  0  0  0  0  0
  187.8890  179.2730  140.9410 C   0  0  0  0  0  2  0  0  0  0  0  0
  189.9170  176.6440  144.4840 C   0  0  0  0  0  0  0  0  0  0  0  0
  187.9710  177.5800  145.1990 C   0  0  0  0  0  0  0  0  0  0  0  0
  189.4980  177.4810  140.3310 C   0  0  0  0  0  0  0  0  0  0  0  0
  191.9700  175.5000  143.9260 C   0  0  0  0  0  3  0  0  0  0  0  0
  185.3000  177.8950  144.6670 C   0  0  1  0  0  3  0  0  0  0  0  0
  185.3220  178.3310  145.9840 C   0  0  0  0  0  0  0  0  0  0  0  0
  185.1720  179.0740  143.7280 C   0  0  0  0  0  2  0  0  0  0  0  0
  186.5750  177.8740  145.2320 N   0  0  0  0  0  0  0  0  0  0  0  0
  189.9510  176.7220  145.8200 C   0  0  0  0  0  0  0  0  0  0  0  0
  190.9130  176.2380  143.5790 C   0  0  0  0  0  0  0  0  0  0  0  0
  188.7570  177.2240  144.0230 C   0  0  0  0  0  0  0  0  0  0  0  0
  191.2650  177.4110  147.9030 C   0  0  0  0  0  1  0  0  0  0  0  0
  188.6760  177.2970  146.2850 C   0  0  0  0  0  3  0  0  0  0  0  0
  191.1530  176.5810  146.6710 C   0  0  0  0  0  0  0  0  0  0  0  0
  192.1490  174.8500  145.2620 C   0  0  0  0  0  2  0  0  0  0  0  0
  185.2490  178.6200  142.2660 C   0  0  0  0  0  2  0  0  0  0  0  0
  189.6900  175.8180  138.4990 C   0  0  0  0  0  3  0  0  0  0  0  0
  191.5510  176.7880  139.1000 C   0  0  0  0  0  3  0  0  0  0  0  0
  191.8890  175.9050  138.0910 C   0  0  0  0  0  3  0  0  0  0  0  0
  190.6970  175.3170  137.7060 C   0  0  0  0  0  0  0  0  0  0  0  0
  190.2230  176.7330  139.3340 N   0  0  0  0  0  0  0  0  0  0  0  0
  190.5130  174.2250  136.7340 C   0  0  0  0  0  3  0  0  0  0  0  0
  190.1690  174.3230  135.4390 C   0  0  0  0  0  0  0  0  0  0  0  0
  190.5740  176.4760  134.5440 O   0  0  0  0  0  1  0  0  0  0  0  0
  188.4080  175.7610  134.4120 O   0  0  0  0  0  0  0  0  0  0  0  0
  189.7290  175.5810  134.8070 C   0  0  0  0  0  0  0  0  0  0  0  0
  189.1440  172.5090  134.3610 O   0  0  0  0  0  1  0  0  0  0  0  0
  190.1860  173.1450  134.6240 N   0  0  0  0  0  2  0  0  0  0  0  0
  2  3  1  0  0  0  0
  2 25  1  0  0  0  0
  3  9  1  6  0  0  0
  3  8  1  0  0  0  0
  4 12  2  0  0  0  0
  4  9  1  0  0  0  0
  5 19  1  0  0  0  0
  6  5  2  0  0  0  0
  6  8  1  0  0  0  0
  7 23  2  0  0  0  0
  8 20  2  0  0  0  0
 10 18  2  0  0  0  0
 11 17  1  0  0  0  0
 11 22  2  0  0  0  0
 12  6  1  0  0  0  0
 13 24  1  0  0  0  0
 14 16  1  6  0  0  0
 14 17  1  0  0  0  0
 14 15  1  0  0  0  0
 15  1  2  0  0  0  0
 17 15  1  0  0  0  0
 18 22  1  0  0  0  0
 18 23  1  0  0  0  0
 19 13  2  0  0  0  0
 19 10  1  0  0  0  0
 20 10  1  0  0  0  0
 20 11  1  0  0  0  0
 23 21  1  0  0  0  0
 24  7  1  0  0  0  0
 25 16  1  0  0  0  0
 26 30  1  0  0  0  0
 27 30  1  0  0  0  0
 28 27  2  0  0  0  0
 29 28  1  0  0  0  0
 29 26  2  0  0  0  0
 30 12  1  0  0  0  0
 31 29  1  0  0  0  0
 32 31  2  0  0  0  0
 33 35  1  0  0  0  0
 34 35  2  0  0  0  0
 35 32  1  0  0  0  0
 36 37  1  0  0  0  0
 37 32  1  0  0  0  0
M  END
>  <MODEL>
3

>  <REMARK>
 VINA RESULT:      -8.3      2.384      2.992
  Name = 
  4 active torsions:
  status: ('A' for Active; 'I' for Inactive)
    1  A    between atoms: C_5  and  C_33
    2  A    between atoms: C_17  and  N_35
    3  A    between atoms: C_19  and  N_22
    4  A    between atoms: C_19  and  C_31
                            x       y       z     vdW  Elec       q    Type
                         _______ _______ _______ _____ _____    ______ ____

>  <TORSDO>
F 4

$$$$
=
 OpenBabel10232412383D

 37 43  0  0  1  0  0  0  0  0999 V2000
  188.6970  177.9780  149.0750 O   0  0  0  0  0  0  0  0  0  0  0  0
  184.8480  177.9290  145.3730 O   0  0  0  0  0  0  0  0  0  0  0  0
  185.4750  178.9640  144.6660 C   0  0  1  0  0  3  0  0  0  0  0  0
  183.8900  179.4420  142.7620 C   0  0  0  0  0  3  0  0  0  0  0  0
  186.9470  178.0550  141.3040 N   0  0  0  0  0  0  0  0  0  0  0  0
  186.0300  178.3950  142.2600 C   0  0  0  0  0  0  0  0  0  0  0  0
  191.2920  177.4060  141.5380 N   0  0  0  0  0  0  0  0  0  0  0  0
  186.4070  178.4040  143.6230 C   0  0  0  0  0  0  0  0  0  0  0  0
  184.4530  179.9390  144.0620 C   0  0  0  0  0  2  0  0  0  0  0  0
  188.6250  177.7160  142.9500 C   0  0  0  0  0  0  0  0  0  0  0  0
  188.4280  177.9640  145.2030 C   0  0  0  0  0  0  0  0  0  0  0  0
  184.6410  178.7680  141.8800 C   0  0  0  0  0  0  0  0  0  0  0  0
  189.0160  177.2890  140.6040 C   0  0  0  0  0  2  0  0  0  0  0  0
  186.8240  177.5200  147.3810 C   0  0  1  0  0  3  0  0  0  0  0  0
  188.0120  177.8210  148.0310 C   0  0  0  0  0  0  0  0  0  0  0  0
  185.8680  178.6890  147.4710 C   0  0  0  0  0  2  0  0  0  0  0  0
  187.8670  177.8270  146.5070 N   0  0  0  0  0  0  0  0  0  0  0  0
  189.8500  177.6780  143.4880 C   0  0  0  0  0  0  0  0  0  0  0  0
  188.2320  177.7090  141.6000 C   0  0  0  0  0  0  0  0  0  0  0  0
  187.7000  177.9660  143.9390 C   0  0  1  0  0  3  0  0  0  0  0  0
  192.2590  178.5330  143.4160 C   0  0  0  0  0  1  0  0  0  0  0  0
  189.7200  177.8050  144.9500 C   0  0  0  0  0  3  0  0  0  0  0  0
  191.1280  177.8230  142.7570 C   0  0  0  0  0  0  0  0  0  0  0  0
  190.3330  176.6010  140.7950 C   0  0  0  0  0  2  0  0  0  0  0  0
  184.5900  178.4140  146.6720 C   0  0  0  0  0  2  0  0  0  0  0  0
  183.3180  177.2590  140.4170 C   0  0  0  0  0  3  0  0  0  0  0  0
  184.2150  178.9890  139.4340 C   0  0  0  0  0  3  0  0  0  0  0  0
  183.5460  178.2910  138.4450 C   0  0  0  0  0  3  0  0  0  0  0  0
  182.9650  177.2130  139.0880 C   0  0  0  0  0  0  0  0  0  0  0  0
  184.0660  178.3630  140.6190 N   0  0  0  0  0  0  0  0  0  0  0  0
  182.2250  176.0970  138.4720 C   0  0  0  0  0  3  0  0  0  0  0  0
  182.7190  175.0910  137.7310 C   0  0  0  0  0  0  0  0  0  0  0  0
  184.9060  174.1900  137.7190 O   0  0  0  0  0  1  0  0  0  0  0  0
  184.5390  175.8670  136.2110 O   0  0  0  0  0  0  0  0  0  0  0  0
  184.1110  175.0440  137.2470 C   0  0  0  0  0  0  0  0  0  0  0  0
  180.7000  173.8990  137.8210 O   0  0  0  0  0  1  0  0  0  0  0  0
  181.8490  174.0200  137.3450 N   0  0  0  0  0  2  0  0  0  0  0  0
  2 25  1  0  0  0  0
  3  9  1  6  0  0  0
  3  2  1  0  0  0  0
  4  9  1  0  0  0  0
  5 19  2  0  0  0  0
  5  6  1  0  0  0  0
  6  8  2  0  0  0  0
  7 23  2  0  0  0  0
  8 20  1  0  0  0  0
  8  3  1  0  0  0  0
 10 18  2  0  0  0  0
 11 17  1  0  0  0  0
 12  6  1  0  0  0  0
 12  4  2  0  0  0  0
 13 24  1  0  0  0  0
 13 19  1  0  0  0  0
 14 16  1  1  0  0  0
 14 15  1  0  0  0  0
 15  1  2  0  0  0  0
 17 14  1  0  0  0  0
 17 15  1  0  0  0  0
 18 22  1  0  0  0  0
 19 10  1  0  0  0  0
 20 10  1  6  0  0  0
 20 11  1  0  0  0  0
 22 11  2  0  0  0  0
 23 21  1  0  0  0  0
 23 18  1  0  0  0  0
 24  7  1  0  0  0  0
 25 16  1  0  0  0  0
 26 30  1  0  0  0  0
 27 30  1  0  0  0  0
 28 29  1  0  0  0  0
 28 27  2  0  0  0  0
 29 26  2  0  0  0  0
 30 12  1  0  0  0  0
 31 29  1  0  0  0  0
 32 31  2  0  0  0  0
 34 35  2  0  0  0  0
 35 33  1  0  0  0  0
 35 32  1  0  0  0  0
 37 32  1  0  0  0  0
 37 36  1  0  0  0  0
M  END
>  <MODEL>
4

>  <REMARK>
 VINA RESULT:      -8.2      4.191      7.036
  Name = 
  4 active torsions:
  status: ('A' for Active; 'I' for Inactive)
    1  A    between atoms: C_5  and  C_33
    2  A    between atoms: C_17  and  N_35
    3  A    between atoms: C_19  and  N_22
    4  A    between atoms: C_19  and  C_31
                            x       y       z     vdW  Elec       q    Type
                         _______ _______ _______ _____ _____    ______ ____

>  <TORSDO>
F 4

$$$$
=
 OpenBabel10232412383D

 37 43  0  0  1  0  0  0  0  0999 V2000
  187.8490  178.0600  149.6350 O   0  0  0  0  0  0  0  0  0  0  0  0
  190.8400  177.4180  145.2570 O   0  0  0  0  0  0  0  0  0  0  0  0
  189.9250  176.4940  144.7330 C   0  0  1  0  0  3  0  0  0  0  0  0
  191.0010  175.7350  142.5810 C   0  0  0  0  0  3  0  0  0  0  0  0
  187.9800  177.5950  141.6840 N   0  0  0  0  0  0  0  0  0  0  0  0
  189.0020  177.1180  142.4580 C   0  0  0  0  0  0  0  0  0  0  0  0
  183.9310  178.9640  142.7290 N   0  0  0  0  0  0  0  0  0  0  0  0
  188.9070  177.1900  143.8670 C   0  0  0  0  0  0  0  0  0  0  0  0
  190.6360  175.3550  143.9860 C   0  0  0  0  0  2  0  0  0  0  0  0
  186.7400  178.2300  143.6070 C   0  0  0  0  0  0  0  0  0  0  0  0
  187.3400  177.9800  145.7880 C   0  0  0  0  0  0  0  0  0  0  0  0
  190.2080  176.5130  141.8320 C   0  0  0  0  0  0  0  0  0  0  0  0
  185.9630  178.6870  141.3660 C   0  0  0  0  0  2  0  0  0  0  0  0
  189.3960  178.1780  147.5900 C   0  0  1  0  0  3  0  0  0  0  0  0
  188.3290  178.0880  148.4720 C   0  0  0  0  0  0  0  0  0  0  0  0
  190.1490  176.8660  147.5460 C   0  0  0  0  0  2  0  0  0  0  0  0
  188.1640  178.0380  146.9500 N   0  0  0  0  0  0  0  0  0  0  0  0
  185.6700  178.4780  144.3710 C   0  0  0  0  0  0  0  0  0  0  0  0
  186.8520  178.1540  142.2080 C   0  0  0  0  0  0  0  0  0  0  0  0
  187.7910  177.8410  144.4080 C   0  0  1  0  0  3  0  0  0  0  0  0
  183.1890  178.0380  144.8080 C   0  0  0  0  0  1  0  0  0  0  0  0
  186.0670  178.3500  145.7840 C   0  0  0  0  0  3  0  0  0  0  0  0
  184.2650  178.5400  143.9100 C   0  0  0  0  0  0  0  0  0  0  0  0
  184.8400  179.5870  141.7770 C   0  0  0  0  0  2  0  0  0  0  0  0
  191.2700  176.9130  146.5010 C   0  0  0  0  0  2  0  0  0  0  0  0
  189.7660  176.6960  139.3960 C   0  0  0  0  0  3  0  0  0  0  0  0
  191.7980  177.1750  140.0300 C   0  0  0  0  0  3  0  0  0  0  0  0
  191.7810  177.3280  138.6560 C   0  0  0  0  0  3  0  0  0  0  0  0
  190.4820  177.0450  138.2730 C   0  0  0  0  0  0  0  0  0  0  0  0
  190.5780  176.8000  140.4670 N   0  0  0  0  0  0  0  0  0  0  0  0
  189.9530  176.9600  136.9010 C   0  0  0  0  0  3  0  0  0  0  0  0
  189.0890  177.7950  136.2970 C   0  0  0  0  0  0  0  0  0  0  0  0
  188.9810  179.9130  137.3460 O   0  0  0  0  0  1  0  0  0  0  0  0
  186.9960  178.7890  137.2220 O   0  0  0  0  0  0  0  0  0  0  0  0
  188.3670  178.8690  137.0040 C   0  0  0  0  0  0  0  0  0  0  0  0
  187.7980  177.0100  134.5020 O   0  0  0  0  0  1  0  0  0  0  0  0
  188.8120  177.6200  134.9030 N   0  0  0  0  0  2  0  0  0  0  0  0
  2 25  1  0  0  0  0
  3  9  1  6  0  0  0
  3  2  1  0  0  0  0
  4  9  1  0  0  0  0
  5 19  2  0  0  0  0
  5  6  1  0  0  0  0
  6  8  2  0  0  0  0
  7 23  2  0  0  0  0
  8 20  1  0  0  0  0
  8  3  1  0  0  0  0
 10 18  2  0  0  0  0
 11 17  1  0  0  0  0
 12  6  1  0  0  0  0
 12  4  2  0  0  0  0
 13 24  1  0  0  0  0
 13 19  1  0  0  0  0
 14 16  1  1  0  0  0
 14 15  1  0  0  0  0
 15  1  2  0  0  0  0
 17 14  1  0  0  0  0
 17 15  1  0  0  0  0
 18 22  1  0  0  0  0
 19 10  1  0  0  0  0
 20 10  1  6  0  0  0
 20 11  1  0  0  0  0
 22 11  2  0  0  0  0
 23 18  1  0  0  0  0
 23 21  1  0  0  0  0
 24  7  1  0  0  0  0
 25 16  1  0  0  0  0
 26 30  1  0  0  0  0
 27 30  1  0  0  0  0
 28 27  2  0  0  0  0
 29 28  1  0  0  0  0
 29 26  2  0  0  0  0
 30 12  1  0  0  0  0
 31 29  1  0  0  0  0
 32 31  2  0  0  0  0
 32 35  1  0  0  0  0
 35 34  2  0  0  0  0
 35 33  1  0  0  0  0
 36 37  1  0  0  0  0
 37 32  1  0  0  0  0
M  END
>  <MODEL>
5

>  <REMARK>
 VINA RESULT:      -8.0      3.335      5.646
  Name = 
  4 active torsions:
  status: ('A' for Active; 'I' for Inactive)
    1  A    between atoms: C_5  and  C_33
    2  A    between atoms: C_17  and  N_35
    3  A    between atoms: C_19  and  N_22
    4  A    between atoms: C_19  and  C_31
                            x       y       z     vdW  Elec       q    Type
                         _______ _______ _______ _____ _____    ______ ____

>  <TORSDO>
F 4

$$$$
=
 OpenBabel10232412383D

 37 43  0  0  1  0  0  0  0  0999 V2000
  188.5030  178.2050  149.2090 O   0  0  0  0  0  0  0  0  0  0  0  0
  184.8200  177.8410  145.3590 O   0  0  0  0  0  0  0  0  0  0  0  0
  185.4220  178.8860  144.6450 C   0  0  1  0  0  3  0  0  0  0  0  0
  183.8950  179.2210  142.6650 C   0  0  0  0  0  3  0  0  0  0  0  0
  187.0790  177.9570  141.3760 N   0  0  0  0  0  0  0  0  0  0  0  0
  186.1060  178.2760  142.2830 C   0  0  0  0  0  0  0  0  0  0  0  0
  191.4380  177.5490  141.8060 N   0  0  0  0  0  0  0  0  0  0  0  0
  186.4250  178.3450  143.6590 C   0  0  0  0  0  0  0  0  0  0  0  0
  184.3760  179.7860  143.9690 C   0  0  0  0  0  2  0  0  0  0  0  0
  188.7020  177.7580  143.0980 C   0  0  0  0  0  0  0  0  0  0  0  0
  188.3970  178.0620  145.3320 C   0  0  0  0  0  0  0  0  0  0  0  0
  184.7170  178.5630  141.8350 C   0  0  0  0  0  0  0  0  0  0  0  0
  189.2130  177.2830  140.7850 C   0  0  0  0  0  2  0  0  0  0  0  0
  186.7290  177.5970  147.4570 C   0  0  1  0  0  3  0  0  0  0  0  0
  187.8710  177.9800  148.1450 C   0  0  0  0  0  0  0  0  0  0  0  0
  185.7100  178.7160  147.4720 C   0  0  0  0  0  2  0  0  0  0  0  0
  187.7900  177.9330  146.6160 N   0  0  0  0  0  0  0  0  0  0  0  0
  189.9030  177.8020  143.6860 C   0  0  0  0  0  0  0  0  0  0  0  0
  188.3670  177.6900  141.7340 C   0  0  0  0  0  0  0  0  0  0  0  0
  187.7240  177.9870  144.0410 C   0  0  1  0  0  3  0  0  0  0  0  0
  192.2650  178.7810  143.6840 C   0  0  0  0  0  1  0  0  0  0  0  0
  189.7050  177.9640  145.1370 C   0  0  0  0  0  3  0  0  0  0  0  0
  191.2010  177.9930  143.0030 C   0  0  0  0  0  0  0  0  0  0  0  0
  190.5540  176.6720  141.0500 C   0  0  0  0  0  2  0  0  0  0  0  0
  184.4830  178.3490  146.6300 C   0  0  0  0  0  2  0  0  0  0  0  0
  184.8590  178.1890  139.3850 C   0  0  0  0  0  3  0  0  0  0  0  0
  183.0170  177.5160  140.3420 C   0  0  0  0  0  3  0  0  0  0  0  0
  182.8770  177.2260  138.9980 C   0  0  0  0  0  3  0  0  0  0  0  0
  184.0600  177.6360  138.4100 C   0  0  0  0  0  0  0  0  0  0  0  0
  184.2170  178.0910  140.5660 N   0  0  0  0  0  0  0  0  0  0  0  0
  184.3880  177.6470  136.9740 C   0  0  0  0  0  3  0  0  0  0  0  0
  185.5970  177.5130  136.4030 C   0  0  0  0  0  0  0  0  0  0  0  0
  187.4380  176.4230  137.4140 O   0  0  0  0  0  0  0  0  0  0  0  0
  187.4750  178.7040  137.5330 O   0  0  0  0  0  1  0  0  0  0  0  0
  186.8600  177.5130  137.1640 C   0  0  0  0  0  0  0  0  0  0  0  0
  186.7050  177.7570  134.3490 O   0  0  0  0  0  1  0  0  0  0  0  0
  185.6850  177.4040  134.9780 N   0  0  0  0  0  2  0  0  0  0  0  0
  2 25  1  0  0  0  0
  3  9  1  6  0  0  0
  3  2  1  0  0  0  0
  4  9  1  0  0  0  0
  5 19  2  0  0  0  0
  5  6  1  0  0  0  0
  6  8  2  0  0  0  0
  7 23  2  0  0  0  0
  8 20  1  0  0  0  0
  8  3  1  0  0  0  0
 10 18  2  0  0  0  0
 11 17  1  0  0  0  0
 12  6  1  0  0  0  0
 12  4  2  0  0  0  0
 13 24  1  0  0  0  0
 13 19  1  0  0  0  0
 14 16  1  6  0  0  0
 14 15  1  0  0  0  0
 15  1  2  0  0  0  0
 17 14  1  0  0  0  0
 17 15  1  0  0  0  0
 18 22  1  0  0  0  0
 19 10  1  0  0  0  0
 20 10  1  6  0  0  0
 20 11  1  0  0  0  0
 22 11  2  0  0  0  0
 23 21  1  0  0  0  0
 23 18  1  0  0  0  0
 24  7  1  0  0  0  0
 25 16  1  0  0  0  0
 26 30  1  0  0  0  0
 27 30  1  0  0  0  0
 28 27  2  0  0  0  0
 29 28  1  0  0  0  0
 29 26  2  0  0  0  0
 30 12  1  0  0  0  0
 31 29  1  0  0  0  0
 32 31  2  0  0  0  0
 32 35  1  0  0  0  0
 35 33  2  0  0  0  0
 35 34  1  0  0  0  0
 36 37  1  0  0  0  0
 37 32  1  0  0  0  0
M  END
>  <MODEL>
6

>  <REMARK>
 VINA RESULT:      -7.9      3.769      5.954
  Name = 
  4 active torsions:
  status: ('A' for Active; 'I' for Inactive)
    1  A    between atoms: C_5  and  C_33
    2  A    between atoms: C_17  and  N_35
    3  A    between atoms: C_19  and  N_22
    4  A    between atoms: C_19  and  C_31
                            x       y       z     vdW  Elec       q    Type
                         _______ _______ _______ _____ _____    ______ ____

>  <TORSDO>
F 4

$$$$
=
 OpenBabel10232412383D

 37 43  0  0  1  0  0  0  0  0999 V2000
  183.9540  179.4960  143.5380 O   0  0  0  0  0  0  0  0  0  0  0  0
  186.8020  177.5310  139.4700 O   0  0  0  0  0  0  0  0  0  0  0  0
  187.9200  178.2840  139.8520 C   0  0  1  0  0  3  0  0  0  0  0  0
  189.6250  177.7820  138.0610 C   0  0  0  0  0  3  0  0  0  0  0  0
  190.8800  176.3450  141.1830 N   0  0  0  0  0  0  0  0  0  0  0  0
  189.9990  176.9070  140.3010 C   0  0  0  0  0  0  0  0  0  0  0  0
  191.0320  176.3990  145.5800 N   0  0  0  0  0  0  0  0  0  0  0  0
  188.8020  177.4890  140.7790 C   0  0  0  0  0  0  0  0  0  0  0  0
  188.6920  178.8100  138.6320 C   0  0  0  0  0  2  0  0  0  0  0  0
  189.4770  176.8850  143.0210 C   0  0  0  0  0  0  0  0  0  0  0  0
  187.4700  177.9550  142.9660 C   0  0  0  0  0  0  0  0  0  0  0  0
  190.2930  176.9230  138.8430 C   0  0  0  0  0  0  0  0  0  0  0  0
  191.5300  175.6400  143.2910 C   0  0  0  0  0  3  0  0  0  0  0  0
  185.0810  178.1840  141.6420 C   0  0  1  0  0  3  0  0  0  0  0  0
  184.7590  178.8620  142.8090 C   0  0  0  0  0  0  0  0  0  0  0  0
  185.2950  179.1650  140.5100 C   0  0  0  0  0  2  0  0  0  0  0  0
  186.1430  178.2610  142.5430 N   0  0  0  0  0  0  0  0  0  0  0  0
  189.1400  177.2150  144.2730 C   0  0  0  0  0  0  0  0  0  0  0  0
  190.6610  176.3080  142.5280 C   0  0  0  0  0  0  0  0  0  0  0  0
  188.5310  177.3760  142.1490 C   0  0  0  0  0  0  0  0  0  0  0  0
  189.8560  178.2770  146.4870 C   0  0  0  0  0  1  0  0  0  0  0  0
  187.8240  177.8780  144.2410 C   0  0  0  0  0  3  0  0  0  0  0  0
  190.0430  177.2290  145.4450 C   0  0  0  0  0  0  0  0  0  0  0  0
  191.2850  175.2540  144.7160 C   0  0  0  0  0  2  0  0  0  0  0  0
  185.7510  178.4410  139.2380 C   0  0  0  0  0  2  0  0  0  0  0  0
  192.5660  176.0800  138.3070 C   0  0  0  0  0  3  0  0  0  0  0  0
  190.9060  174.9160  137.4980 C   0  0  0  0  0  3  0  0  0  0  0  0
  192.0600  174.2840  137.0720 C   0  0  0  0  0  3  0  0  0  0  0  0
  193.1000  175.0190  137.6130 C   0  0  0  0  0  0  0  0  0  0  0  0
  191.2220  175.9930  138.2470 N   0  0  0  0  0  0  0  0  0  0  0  0
  194.5420  174.8310  137.3790 C   0  0  0  0  0  3  0  0  0  0  0  0
  195.3250  175.4770  136.4980 C   0  0  0  0  0  0  0  0  0  0  0  0
  194.0960  175.9240  134.5270 O   0  0  0  0  0  0  0  0  0  0  0  0
  195.0060  177.7580  135.5400 O   0  0  0  0  0  1  0  0  0  0  0  0
  194.8050  176.3850  135.4600 C   0  0  0  0  0  0  0  0  0  0  0  0
  197.5610  176.1910  136.4710 O   0  0  0  0  0  1  0  0  0  0  0  0
  196.7390  175.2510  136.5280 N   0  0  0  0  0  2  0  0  0  0  0  0
  2  3  1  0  0  0  0
  3  9  1  6  0  0  0
  3  8  1  0  0  0  0
  4  9  1  0  0  0  0
  4 12  2  0  0  0  0
  5 19  1  0  0  0  0
  6  8  1  0  0  0  0
  6  5  2  0  0  0  0
  8 20  2  0  0  0  0
 10 18  2  0  0  0  0
 11 22  2  0  0  0  0
 12  6  1  0  0  0  0
 13 24  1  0  0  0  0
 14 16  1  6  0  0  0
 14 17  1  0  0  0  0
 14 15  1  0  0  0  0
 15  1  2  0  0  0  0
 17 15  1  0  0  0  0
 17 11  1  0  0  0  0
 18 23  1  0  0  0  0
 19 10  1  0  0  0  0
 19 13  2  0  0  0  0
 20 11  1  0  0  0  0
 20 10  1  0  0  0  0
 22 18  1  0  0  0  0
 23  7  2  0  0  0  0
 23 21  1  0  0  0  0
 24  7  1  0  0  0  0
 25  2  1  0  0  0  0
 25 16  1  0  0  0  0
 27 30  1  0  0  0  0
 28 27  2  0  0  0  0
 28 29  1  0  0  0  0
 29 26  2  0  0  0  0
 30 26  1  0  0  0  0
 30 12  1  0  0  0  0
 31 29  1  0  0  0  0
 32 37  1  0  0  0  0
 32 31  2  0  0  0  0
 33 35  2  0  0  0  0
 35 34  1  0  0  0  0
 35 32  1  0  0  0  0
 36 37  1  0  0  0  0
M  END
>  <MODEL>
7

>  <REMARK>
 VINA RESULT:      -7.7      1.617      2.066
  Name = 
  4 active torsions:
  status: ('A' for Active; 'I' for Inactive)
    1  A    between atoms: C_5  and  C_33
    2  A    between atoms: C_17  and  N_35
    3  A    between atoms: C_19  and  N_22
    4  A    between atoms: C_19  and  C_31
                            x       y       z     vdW  Elec       q    Type
                         _______ _______ _______ _____ _____    ______ ____

>  <TORSDO>
F 4

$$$$
=
 OpenBabel10232412383D

 37 43  0  0  1  0  0  0  0  0999 V2000
  185.4380  177.5720  134.3500 O   0  0  0  0  0  0  0  0  0  0  0  0
  187.9920  176.8490  138.9840 O   0  0  0  0  0  0  0  0  0  0  0  0
  187.7070  178.1630  139.3790 C   0  0  1  0  0  3  0  0  0  0  0  0
  188.8790  178.3930  141.6010 C   0  0  0  0  0  3  0  0  0  0  0  0
  185.2820  178.5700  142.2510 N   0  0  0  0  0  0  0  0  0  0  0  0
  186.4460  178.3430  141.5690 C   0  0  0  0  0  0  0  0  0  0  0  0
  181.2290  179.5510  140.8480 N   0  0  0  0  0  0  0  0  0  0  0  0
  186.4200  178.2140  140.1610 C   0  0  0  0  0  0  0  0  0  0  0  0
  188.8770  178.7890  140.1530 C   0  0  0  0  0  2  0  0  0  0  0  0
  184.0280  178.5530  140.2350 C   0  0  0  0  0  0  0  0  0  0  0  0
  184.8060  178.2460  138.1190 C   0  0  0  0  0  0  0  0  0  0  0  0
  187.7410  178.2420  142.2930 C   0  0  0  0  0  0  0  0  0  0  0  0
  182.9820  178.7890  142.4000 C   0  0  0  0  0  3  0  0  0  0  0  0
  186.5250  176.8050  136.5440 C   0  0  1  0  0  3  0  0  0  0  0  0
  185.7460  177.3870  135.5550 C   0  0  0  0  0  0  0  0  0  0  0  0
  187.8720  177.4900  136.6180 C   0  0  0  0  0  2  0  0  0  0  0  0
  185.5360  177.6480  137.0500 N   0  0  0  0  0  0  0  0  0  0  0  0
  183.0500  178.8650  139.3750 C   0  0  0  0  0  0  0  0  0  0  0  0
  184.0700  178.6750  141.6350 C   0  0  0  0  0  0  0  0  0  0  0  0
  185.1680  178.2340  139.5320 C   0  0  0  0  0  0  0  0  0  0  0  0
  181.2590  180.5490  138.6730 C   0  0  0  0  0  1  0  0  0  0  0  0
  183.5430  178.6340  138.0070 C   0  0  0  0  0  3  0  0  0  0  0  0
  181.8180  179.6200  139.6930 C   0  0  0  0  0  0  0  0  0  0  0  0
  181.5790  178.6170  141.9090 C   0  0  0  0  0  2  0  0  0  0  0  0
  188.7090  176.9280  137.7730 C   0  0  0  0  0  2  0  0  0  0  0  0
  188.9280  177.7910  144.4260 C   0  0  0  0  0  3  0  0  0  0  0  0
  186.7520  177.6440  144.5010 C   0  0  0  0  0  3  0  0  0  0  0  0
  187.1990  177.3450  145.7750 C   0  0  0  0  0  3  0  0  0  0  0  0
  188.5760  177.4660  145.7160 C   0  0  0  0  0  0  0  0  0  0  0  0
  187.8010  177.9170  143.6980 N   0  0  0  0  0  0  0  0  0  0  0  0
  189.5460  177.1540  146.7800 C   0  0  0  0  0  3  0  0  0  0  0  0
  190.8750  176.9880  146.6610 C   0  0  0  0  0  0  0  0  0  0  0  0
  191.7280  175.7920  144.8060 O   0  0  0  0  0  1  0  0  0  0  0  0
  191.9830  178.0600  144.7000 O   0  0  0  0  0  0  0  0  0  0  0  0
  191.5720  176.9100  145.3640 C   0  0  0  0  0  0  0  0  0  0  0  0
  192.7190  176.1640  147.8550 O   0  0  0  0  0  1  0  0  0  0  0  0
  191.6650  176.8340  147.8460 N   0  0  0  0  0  2  0  0  0  0  0  0
  1 15  2  0  0  0  0
  2  3  1  0  0  0  0
  3  9  1  1  0  0  0
  3  8  1  0  0  0  0
  4 12  2  0  0  0  0
  6  5  2  0  0  0  0
  6 12  1  0  0  0  0
  7 24  1  0  0  0  0
  8  6  1  0  0  0  0
  9  4  1  0  0  0  0
 10 19  1  0  0  0  0
 11 20  1  0  0  0  0
 12 30  1  0  0  0  0
 14 16  1  6  0  0  0
 14 17  1  0  0  0  0
 15 14  1  0  0  0  0
 15 17  1  0  0  0  0
 16 25  1  0  0  0  0
 17 11  1  0  0  0  0
 18 23  1  0  0  0  0
 18 10  2  0  0  0  0
 19  5  1  0  0  0  0
 19 13  2  0  0  0  0
 20  8  2  0  0  0  0
 20 10  1  0  0  0  0
 21 23  1  0  0  0  0
 22 11  2  0  0  0  0
 22 18  1  0  0  0  0
 23  7  2  0  0  0  0
 24 13  1  0  0  0  0
 25  2  1  0  0  0  0
 26 29  2  0  0  0  0
 27 28  2  0  0  0  0
 29 28  1  0  0  0  0
 29 31  1  0  0  0  0
 30 26  1  0  0  0  0
 30 27  1  0  0  0  0
 32 31  2  0  0  0  0
 32 37  1  0  0  0  0
 33 35  1  0  0  0  0
 34 35  2  0  0  0  0
 35 32  1  0  0  0  0
 37 36  1  0  0  0  0
M  END
>  <MODEL>
8

>  <REMARK>
 VINA RESULT:      -7.7      4.007      8.369
  Name = 
  4 active torsions:
  status: ('A' for Active; 'I' for Inactive)
    1  A    between atoms: C_5  and  C_33
    2  A    between atoms: C_17  and  N_35
    3  A    between atoms: C_19  and  N_22
    4  A    between atoms: C_19  and  C_31
                            x       y       z     vdW  Elec       q    Type
                         _______ _______ _______ _____ _____    ______ ____

>  <TORSDO>
F 4

$$$$
=
 OpenBabel10232412383D

 37 43  0  0  1  0  0  0  0  0999 V2000
  190.6630  176.9110  147.4400 O   0  0  0  0  0  0  0  0  0  0  0  0
  185.9740  177.6310  144.9880 O   0  0  0  0  0  0  0  0  0  0  0  0
  186.4940  178.7010  144.2460 C   0  0  1  0  0  3  0  0  0  0  0  0
  184.5140  179.5390  142.9270 C   0  0  0  0  0  3  0  0  0  0  0  0
  186.8960  178.1360  140.5290 N   0  0  0  0  0  0  0  0  0  0  0  0
  186.3140  178.4140  141.7360 C   0  0  0  0  0  0  0  0  0  0  0  0
  191.0480  177.1460  139.4610 N   0  0  0  0  0  0  0  0  0  0  0  0
  187.0440  178.2150  142.9300 C   0  0  0  0  0  0  0  0  0  0  0  0
  185.4560  179.8190  144.0610 C   0  0  0  0  0  2  0  0  0  0  0  0
  188.9100  177.4620  141.5910 C   0  0  0  0  0  0  0  0  0  0  0  0
  189.3570  177.4260  143.8220 C   0  0  0  0  0  0  0  0  0  0  0  0
  184.9210  178.9340  141.8030 C   0  0  0  0  0  0  0  0  0  0  0  0
  188.6050  177.3190  139.1990 C   0  0  0  0  0  2  0  0  0  0  0  0
  188.3650  176.8170  146.3030 C   0  0  1  0  0  3  0  0  0  0  0  0
  189.7090  176.9430  146.6210 C   0  0  0  0  0  0  0  0  0  0  0  0
  187.5990  178.0320  146.7820 C   0  0  0  0  0  2  0  0  0  0  0  0
  189.1590  177.1590  145.2080 N   0  0  0  0  0  0  0  0  0  0  0  0
  190.2240  177.2650  141.7560 C   0  0  0  0  0  0  0  0  0  0  0  0
  188.1690  177.6610  140.4130 C   0  0  0  0  0  0  0  0  0  0  0  0
  188.3190  177.6470  142.8210 C   0  0  1  0  0  3  0  0  0  0  0  0
  192.6010  177.9420  141.1000 C   0  0  0  0  0  1  0  0  0  0  0  0
  190.5080  177.2070  143.2000 C   0  0  0  0  0  3  0  0  0  0  0  0
  191.2650  177.4100  140.7140 C   0  0  0  0  0  0  0  0  0  0  0  0
  189.8430  176.5180  138.9370 C   0  0  0  0  0  2  0  0  0  0  0  0
  186.1300  177.9580  146.3500 C   0  0  0  0  0  2  0  0  0  0  0  0
  183.0760  177.7520  140.6370 C   0  0  0  0  0  3  0  0  0  0  0  0
  183.8990  179.4840  139.5970 C   0  0  0  0  0  3  0  0  0  0  0  0
  182.9090  178.9790  138.7740 C   0  0  0  0  0  3  0  0  0  0  0  0
  182.3820  177.8980  139.4580 C   0  0  0  0  0  0  0  0  0  0  0  0
  183.9870  178.7410  140.7190 N   0  0  0  0  0  0  0  0  0  0  0  0
  181.3680  176.9450  138.9760 C   0  0  0  0  0  3  0  0  0  0  0  0
  181.5550  175.8630  138.2010 C   0  0  0  0  0  0  0  0  0  0  0  0
  183.1560  176.1660  136.4850 O   0  0  0  0  0  0  0  0  0  0  0  0
  183.7340  174.6520  138.0960 O   0  0  0  0  0  1  0  0  0  0  0  0
  182.8340  175.5510  137.5350 C   0  0  0  0  0  0  0  0  0  0  0  0
  180.3910  173.8470  138.4910 O   0  0  0  0  0  1  0  0  0  0  0  0
  180.4550  174.9780  137.9640 N   0  0  0  0  0  2  0  0  0  0  0  0
  2 25  1  0  0  0  0
  3  9  1  6  0  0  0
  3  2  1  0  0  0  0
  4  9  1  0  0  0  0
  5  6  1  0  0  0  0
  6 12  1  0  0  0  0
  6  8  2  0  0  0  0
  7 23  2  0  0  0  0
  8  3  1  0  0  0  0
 10 18  2  0  0  0  0
 11 17  1  0  0  0  0
 12  4  2  0  0  0  0
 13 19  1  0  0  0  0
 14 15  1  0  0  0  0
 14 16  1  1  0  0  0
 15  1  2  0  0  0  0
 17 14  1  0  0  0  0
 17 15  1  0  0  0  0
 18 22  1  0  0  0  0
 19  5  2  0  0  0  0
 19 10  1  0  0  0  0
 20 10  1  6  0  0  0
 20  8  1  0  0  0  0
 20 11  1  0  0  0  0
 22 11  2  0  0  0  0
 23 21  1  0  0  0  0
 23 18  1  0  0  0  0
 24 13  1  0  0  0  0
 24  7  1  0  0  0  0
 25 16  1  0  0  0  0
 26 30  1  0  0  0  0
 27 30  1  0  0  0  0
 28 29  1  0  0  0  0
 28 27  2  0  0  0  0
 29 26  2  0  0  0  0
 30 12  1  0  0  0  0
 31 29  1  0  0  0  0
 32 31  2  0  0  0  0
 33 35  2  0  0  0  0
 35 34  1  0  0  0  0
 35 32  1  0  0  0  0
 37 32  1  0  0  0  0
 37 36  1  0  0  0  0
M  END
>  <MODEL>
9

>  <REMARK>
 VINA RESULT:      -7.6      3.891      7.714
  Name = 
  4 active torsions:
  status: ('A' for Active; 'I' for Inactive)
    1  A    between atoms: C_5  and  C_33
    2  A    between atoms: C_17  and  N_35
    3  A    between atoms: C_19  and  N_22
    4  A    between atoms: C_19  and  C_31
                            x       y       z     vdW  Elec       q    Type
                         _______ _______ _______ _____ _____    ______ ____

>  <TORSDO>
F 4

$$$$
