=
 OpenBabel10232411103D

 36 40  0  0  1  0  0  0  0  0999 V2000
  187.6120  178.0930  138.0360 C   0  0  0  0  0  1  0  0  0  0  0  0
  188.7370  177.1870  139.9810 C   0  0  2  0  0  3  0  0  0  0  0  0
  189.6060  176.9140  138.7940 N   0  0  1  0  0  0  0  0  0  0  0  0
  189.0870  177.6110  142.4390 C   0  0  0  0  0  3  0  0  0  0  0  0
  188.8440  178.1720  138.9150 C   0  0  1  0  0  3  0  0  0  0  0  0
  190.3150  177.5730  143.3040 C   0  0  2  0  0  0  0  0  0  0  0  0
  189.5410  177.5110  141.1960 C   0  0  0  0  0  0  0  0  0  0  0  0
  191.6490  176.7510  145.3520 C   0  0  0  0  0  1  0  0  0  0  0  0
  191.0210  177.3530  138.8290 C   0  0  1  0  0  3  0  0  0  0  0  0
  190.9670  177.3470  141.2130 C   0  0  0  0  0  0  0  0  0  0  0  0
  190.3450  177.2970  144.7920 C   0  0  1  0  0  0  0  0  0  0  0  0
  190.4530  178.7290  144.2770 C   0  0  0  0  0  2  0  0  0  0  0  0
  191.6600  177.1860  140.1400 N   0  0  0  0  0  0  0  0  0  0  0  0
  191.4650  177.3640  142.4990 O   0  0  0  0  0  0  0  0  0  0  0  0
  191.8090  176.6060  137.7680 C   0  0  0  0  0  2  0  0  0  0  0  0
  191.6100  175.1110  137.9160 C   0  0  0  0  0  2  0  0  0  0  0  0
  192.4320  174.4420  137.0100 O   0  0  0  0  0  0  0  0  0  0  0  0
  194.4240  175.0530  135.8570 C   0  0  0  0  0  2  0  0  0  0  0  0
  195.8780  174.8360  136.2010 C   0  0  0  0  0  2  0  0  0  0  0  0
  194.5360  174.1430  138.1050 C   0  0  0  0  0  2  0  0  0  0  0  0
  195.8720  173.9300  137.4140 C   0  0  0  0  0  2  0  0  0  0  0  0
  193.6950  175.0100  137.1830 C   0  0  0  0  0  3  0  0  0  0  0  0
  189.0030  176.9760  145.4620 C   0  0  2  0  0  3  0  0  0  0  0  0
  187.9230  178.0070  145.1430 C   0  0  0  0  0  2  0  0  0  0  0  0
  186.5490  177.4160  145.3880 C   0  0  0  0  0  2  0  0  0  0  0  0
  185.5600  178.5330  145.6450 C   0  0  0  0  0  2  0  0  0  0  0  0
  185.2580  179.2480  144.3450 C   0  0  0  0  0  2  0  0  0  0  0  0
  183.2980  179.1650  145.4520 O   0  0  0  0  0  1  0  0  0  0  0  0
  183.8360  179.5310  144.2640 N   0  0  0  0  0  0  0  0  0  0  0  0
  183.2890  178.6340  143.2570 C   0  0  0  0  0  2  0  0  0  0  0  0
  184.3260  178.3500  142.1800 C   0  0  0  0  0  2  0  0  0  0  0  0
  185.0600  179.4430  140.1250 N   0  0  0  0  0  1  0  0  0  0  0  0
  183.9010  178.9310  140.8400 C   0  0  0  0  0  2  0  0  0  0  0  0
  189.1400  176.7220  146.9010 N   0  0  0  0  0  2  0  0  0  0  0  0
  189.1910  177.9730  147.6520 C   0  0  0  0  0  2  0  0  0  0  0  0
  188.1530  177.9400  148.7540 C   0  0  0  0  0  1  0  0  0  0  0  0
  1  5  1  0  0  0  0
  2  7  1  1  0  0  0
  3  9  1  0  0  0  0
  3  5  1  0  0  0  0
  3  2  1  0  0  0  0
  4  6  1  0  0  0  0
  5  2  1  0  0  0  0
  6 12  1  0  0  0  0
  6 11  1  0  0  0  0
  7 10  1  0  0  0  0
  7  4  2  0  0  0  0
  9 13  1  0  0  0  0
 10 14  1  0  0  0  0
 11  8  1  0  0  0  0
 11 23  1  0  0  0  0
 12 11  1  0  0  0  0
 13 10  2  0  0  0  0
 14  6  1  0  0  0  0
 15 16  1  0  0  0  0
 15  9  1  0  0  0  0
 17 22  1  0  0  0  0
 17 16  1  0  0  0  0
 18 19  1  0  0  0  0
 18 22  1  0  0  0  0
 19 21  1  0  0  0  0
 21 20  1  0  0  0  0
 22 20  1  0  0  0  0
 23 34  1  0  0  0  0
 24 25  1  0  0  0  0
 24 23  1  0  0  0  0
 25 26  1  0  0  0  0
 27 26  1  0  0  0  0
 29 27  1  0  0  0  0
 29 28  1  0  0  0  0
 30 29  1  0  0  0  0
 31 30  1  0  0  0  0
 32 33  1  0  0  0  0
 33 31  1  0  0  0  0
 34 35  1  0  0  0  0
 35 36  1  0  0  0  0
M  END
>  <MODEL>
1

>  <REMARK>
 VINA RESULT:      -7.6      0.000      0.000
  Name = 
  15 active torsions:
  status: ('A' for Active; 'I' for Inactive)
    1  A    between atoms: C_1  and  C_16
    2  A    between atoms: C_1  and  C_29
    3  A    between atoms: C_2  and  C_12
    4  A    between atoms: C_2  and  N_17
    5  A    between atoms: C_4  and  C_24
    6  A    between atoms: C_4  and  C_28
    7  A    between atoms: C_8  and  C_14
    8  A    between atoms: C_8  and  N_17
    9  A    between atoms: C_10  and  N_33
   10  A    between atoms: C_12  and  C_29
   11  A    between atoms: C_14  and  C_35
   12  A    between atoms: C_16  and  C_27
   13  A    between atoms: C_16  and  N_33
   14  A    between atoms: O_26  and  C_28
   15  A    between atoms: O_26  and  C_31
                            x       y       z     vdW  Elec       q    Type
                         _______ _______ _______ _____ _____    ______ ____

>  <TORSDO>
F 15

$$$$
=
 OpenBabel10232411103D

 36 40  0  0  1  0  0  0  0  0999 V2000
  191.0110  176.5410  143.1090 C   0  0  0  0  0  1  0  0  0  0  0  0
  189.5010  176.5860  141.2140 C   0  0  2  0  0  3  0  0  0  0  0  0
  188.7080  176.9570  142.4280 N   0  0  1  0  0  0  0  0  0  0  0  0
  189.4310  177.1210  138.7540 C   0  0  0  0  0  3  0  0  0  0  0  0
  190.1030  177.4050  142.2560 C   0  0  1  0  0  3  0  0  0  0  0  0
  188.4510  177.8940  137.9180 C   0  0  2  0  0  0  0  0  0  0  0  0
  189.0660  177.3520  140.0090 C   0  0  0  0  0  0  0  0  0  0  0  0
  186.8360  178.1390  135.9220 C   0  0  0  0  0  1  0  0  0  0  0  0
  187.9280  178.2170  142.4120 C   0  0  1  0  0  3  0  0  0  0  0  0
  187.8830  178.1640  140.0290 C   0  0  0  0  0  0  0  0  0  0  0  0
  188.1970  177.6970  136.4390 C   0  0  1  0  0  0  0  0  0  0  0  0
  189.0720  178.8520  136.9180 C   0  0  0  0  0  2  0  0  0  0  0  0
  187.2910  178.5030  141.1200 N   0  0  0  0  0  0  0  0  0  0  0  0
  187.4740  178.4960  138.7530 O   0  0  0  0  0  0  0  0  0  0  0  0
  186.8800  178.1780  143.5100 C   0  0  0  0  0  2  0  0  0  0  0  0
  187.0710  176.9500  144.3780 C   0  0  0  0  0  2  0  0  0  0  0  0
  186.5940  177.2120  145.6620 O   0  0  0  0  0  0  0  0  0  0  0  0
  188.8710  177.1180  146.3530 C   0  0  0  0  0  2  0  0  0  0  0  0
  189.5360  177.5320  147.6440 C   0  0  0  0  0  2  0  0  0  0  0  0
  187.2210  178.2700  147.7120 C   0  0  0  0  0  2  0  0  0  0  0  0
  188.4020  177.8820  148.5850 C   0  0  0  0  0  2  0  0  0  0  0  0
  187.6070  177.9490  146.2780 C   0  0  0  0  0  3  0  0  0  0  0  0
  188.9740  176.5700  135.7480 C   0  0  2  0  0  3  0  0  0  0  0  0
  189.8180  177.0680  134.5770 C   0  0  0  0  0  2  0  0  0  0  0  0
  191.0740  176.2280  134.4450 C   0  0  0  0  0  2  0  0  0  0  0  0
  191.5310  175.7880  135.8190 C   0  0  0  0  0  2  0  0  0  0  0  0
  193.0040  176.1010  135.9840 C   0  0  0  0  0  2  0  0  0  0  0  0
  193.7050  176.8700  137.9820 O   0  0  0  0  0  1  0  0  0  0  0  0
  193.4350  175.7210  137.3180 N   0  0  0  0  0  0  0  0  0  0  0  0
  194.6980  175.0140  137.1640 C   0  0  0  0  0  2  0  0  0  0  0  0
  194.7030  173.7470  138.0060 C   0  0  0  0  0  2  0  0  0  0  0  0
  195.9880  174.9810  139.6750 N   0  0  0  0  0  1  0  0  0  0  0  0
  195.8930  173.7200  138.9540 C   0  0  0  0  0  2  0  0  0  0  0  0
  188.1170  175.4340  135.3890 N   0  0  0  0  0  2  0  0  0  0  0  0
  188.1500  174.4040  136.4240 C   0  0  0  0  0  2  0  0  0  0  0  0
  186.8180  174.3730  137.1440 C   0  0  0  0  0  1  0  0  0  0  0  0
  2  7  1  6  0  0  0
  2  5  1  0  0  0  0
  2  3  1  0  0  0  0
  4  7  2  0  0  0  0
  5  3  1  0  0  0  0
  5  1  1  0  0  0  0
  6 14  1  0  0  0  0
  6  4  1  0  0  0  0
  7 10  1  0  0  0  0
  8 11  1  0  0  0  0
  9  3  1  0  0  0  0
  9 15  1  0  0  0  0
 10 13  2  0  0  0  0
 11 12  1  0  0  0  0
 11  6  1  0  0  0  0
 12  6  1  0  0  0  0
 13  9  1  0  0  0  0
 14 10  1  0  0  0  0
 15 16  1  0  0  0  0
 16 17  1  0  0  0  0
 17 22  1  0  0  0  0
 18 19  1  0  0  0  0
 19 21  1  0  0  0  0
 20 21  1  0  0  0  0
 22 18  1  0  0  0  0
 22 20  1  0  0  0  0
 23 11  1  0  0  0  0
 24 23  1  0  0  0  0
 25 24  1  0  0  0  0
 25 26  1  0  0  0  0
 26 27  1  0  0  0  0
 27 29  1  0  0  0  0
 29 28  1  0  0  0  0
 30 29  1  0  0  0  0
 30 31  1  0  0  0  0
 31 33  1  0  0  0  0
 33 32  1  0  0  0  0
 34 23  1  0  0  0  0
 34 35  1  0  0  0  0
 35 36  1  0  0  0  0
M  END
>  <MODEL>
2

>  <REMARK>
 VINA RESULT:      -7.4      2.563      9.895
  Name = 
  15 active torsions:
  status: ('A' for Active; 'I' for Inactive)
    1  A    between atoms: C_1  and  C_16
    2  A    between atoms: C_1  and  C_29
    3  A    between atoms: C_2  and  C_12
    4  A    between atoms: C_2  and  N_17
    5  A    between atoms: C_4  and  C_24
    6  A    between atoms: C_4  and  C_28
    7  A    between atoms: C_8  and  C_14
    8  A    between atoms: C_8  and  N_17
    9  A    between atoms: C_10  and  N_33
   10  A    between atoms: C_12  and  C_29
   11  A    between atoms: C_14  and  C_35
   12  A    between atoms: C_16  and  C_27
   13  A    between atoms: C_16  and  N_33
   14  A    between atoms: O_26  and  C_28
   15  A    between atoms: O_26  and  C_31
                            x       y       z     vdW  Elec       q    Type
                         _______ _______ _______ _____ _____    ______ ____

>  <TORSDO>
F 15

$$$$
=
 OpenBabel10232411103D

 36 40  0  0  1  0  0  0  0  0999 V2000
  185.4590  178.3560  146.4190 C   0  0  0  0  0  1  0  0  0  0  0  0
  185.9870  177.7380  144.1360 C   0  0  2  0  0  3  0  0  0  0  0  0
  184.5330  178.0900  144.1800 N   0  0  1  0  0  0  0  0  0  0  0  0
  187.8410  177.8510  142.4350 C   0  0  0  0  0  3  0  0  0  0  0  0
  185.5270  178.8300  144.9810 C   0  0  1  0  0  3  0  0  0  0  0  0
  187.8530  178.2240  140.9800 C   0  0  2  0  0  0  0  0  0  0  0  0
  186.6270  178.1790  142.8620 C   0  0  0  0  0  0  0  0  0  0  0  0
  188.3860  177.7570  138.5000 C   0  0  0  0  0  1  0  0  0  0  0  0
  184.0160  179.1060  143.2320 C   0  0  1  0  0  3  0  0  0  0  0  0
  185.8450  178.6730  141.7650 C   0  0  0  0  0  0  0  0  0  0  0  0
  188.8510  177.7430  139.9490 C   0  0  1  0  0  0  0  0  0  0  0  0
  188.9910  179.1360  140.5580 C   0  0  0  0  0  2  0  0  0  0  0  0
  184.6130  179.0250  141.8940 N   0  0  0  0  0  0  0  0  0  0  0  0
  186.5710  178.6940  140.5920 O   0  0  0  0  0  0  0  0  0  0  0  0
  182.5060  178.9850  143.1350 C   0  0  0  0  0  2  0  0  0  0  0  0
  182.0850  178.7720  141.6940 C   0  0  0  0  0  2  0  0  0  0  0  0
  180.7800  179.2350  141.5200 O   0  0  0  0  0  0  0  0  0  0  0  0
  182.0160  179.3860  139.4910 C   0  0  0  0  0  2  0  0  0  0  0  0
  181.9450  180.3790  138.3540 C   0  0  0  0  0  2  0  0  0  0  0  0
  180.1000  180.8270  139.8720 C   0  0  0  0  0  2  0  0  0  0  0  0
  181.0020  181.4640  138.8290 C   0  0  0  0  0  2  0  0  0  0  0  0
  180.6520  179.4390  140.1450 C   0  0  0  0  0  3  0  0  0  0  0  0
  189.9120  176.7450  140.4270 C   0  0  2  0  0  3  0  0  0  0  0  0
  190.9550  177.3850  141.3400 C   0  0  0  0  0  2  0  0  0  0  0  0
  191.1290  176.5550  142.5970 C   0  0  0  0  0  2  0  0  0  0  0  0
  191.6390  177.4370  143.7160 C   0  0  0  0  0  2  0  0  0  0  0  0
  190.7720  177.2460  144.9430 C   0  0  0  0  0  2  0  0  0  0  0  0
  192.1500  175.7540  145.9190 O   0  0  0  0  0  1  0  0  0  0  0  0
  191.6150  176.9850  146.0970 N   0  0  0  0  0  0  0  0  0  0  0  0
  190.7290  176.8990  147.2490 C   0  0  0  0  0  2  0  0  0  0  0  0
  189.3230  177.3440  146.8710 C   0  0  0  0  0  2  0  0  0  0  0  0
  188.1520  178.1800  148.8420 N   0  0  0  0  0  1  0  0  0  0  0  0
  188.3280  177.0230  147.9770 C   0  0  0  0  0  2  0  0  0  0  0  0
  190.5120  175.9890  139.3210 N   0  0  0  0  0  2  0  0  0  0  0  0
  191.7470  176.6190  138.8640 C   0  0  0  0  0  2  0  0  0  0  0  0
  192.0750  176.1280  137.4690 C   0  0  0  0  0  1  0  0  0  0  0  0
  2  7  1  6  0  0  0
  2  3  1  0  0  0  0
  2  5  1  0  0  0  0
  3  5  1  0  0  0  0
  4  7  2  0  0  0  0
  5  1  1  0  0  0  0
  6  4  1  0  0  0  0
  8 11  1  0  0  0  0
  9  3  1  0  0  0  0
 10 13  2  0  0  0  0
 10  7  1  0  0  0  0
 11 23  1  0  0  0  0
 11 12  1  0  0  0  0
 11  6  1  0  0  0  0
 12  6  1  0  0  0  0
 13  9  1  0  0  0  0
 14  6  1  0  0  0  0
 14 10  1  0  0  0  0
 15  9  1  0  0  0  0
 16 15  1  0  0  0  0
 17 16  1  0  0  0  0
 18 22  1  0  0  0  0
 19 21  1  0  0  0  0
 19 18  1  0  0  0  0
 20 22  1  0  0  0  0
 21 20  1  0  0  0  0
 22 17  1  0  0  0  0
 23 24  1  0  0  0  0
 24 25  1  0  0  0  0
 25 26  1  0  0  0  0
 26 27  1  0  0  0  0
 27 29  1  0  0  0  0
 28 29  1  0  0  0  0
 29 30  1  0  0  0  0
 31 30  1  0  0  0  0
 31 33  1  0  0  0  0
 33 32  1  0  0  0  0
 34 23  1  0  0  0  0
 35 34  1  0  0  0  0
 36 35  1  0  0  0  0
M  END
>  <MODEL>
3

>  <REMARK>
 VINA RESULT:      -7.4      2.437      9.092
  Name = 
  15 active torsions:
  status: ('A' for Active; 'I' for Inactive)
    1  A    between atoms: C_1  and  C_16
    2  A    between atoms: C_1  and  C_29
    3  A    between atoms: C_2  and  C_12
    4  A    between atoms: C_2  and  N_17
    5  A    between atoms: C_4  and  C_24
    6  A    between atoms: C_4  and  C_28
    7  A    between atoms: C_8  and  C_14
    8  A    between atoms: C_8  and  N_17
    9  A    between atoms: C_10  and  N_33
   10  A    between atoms: C_12  and  C_29
   11  A    between atoms: C_14  and  C_35
   12  A    between atoms: C_16  and  C_27
   13  A    between atoms: C_16  and  N_33
   14  A    between atoms: O_26  and  C_28
   15  A    between atoms: O_26  and  C_31
                            x       y       z     vdW  Elec       q    Type
                         _______ _______ _______ _____ _____    ______ ____

>  <TORSDO>
F 15

$$$$
=
 OpenBabel10232411103D

 36 40  0  0  1  0  0  0  0  0999 V2000
  191.8120  175.6750  143.9430 C   0  0  0  0  0  1  0  0  0  0  0  0
  190.0440  176.0170  142.3220 C   0  0  2  0  0  3  0  0  0  0  0  0
  189.4910  176.3650  143.6690 N   0  0  1  0  0  0  0  0  0  0  0  0
  189.6560  176.7510  139.9440 C   0  0  0  0  0  3  0  0  0  0  0  0
  190.8840  176.6880  143.3030 C   0  0  1  0  0  3  0  0  0  0  0  0
  188.6500  177.6800  139.3280 C   0  0  2  0  0  0  0  0  0  0  0  0
  189.5150  176.9150  141.2540 C   0  0  0  0  0  0  0  0  0  0  0  0
  186.7840  178.2390  137.6370 C   0  0  0  0  0  1  0  0  0  0  0  0
  188.8600  177.6930  143.8580 C   0  0  1  0  0  3  0  0  0  0  0  0
  188.4440  177.8340  141.5150 C   0  0  0  0  0  0  0  0  0  0  0  0
  188.1510  177.6260  137.8990 C   0  0  1  0  0  0  0  0  0  0  0  0
  189.2110  178.6490  138.3030 C   0  0  0  0  0  2  0  0  0  0  0  0
  188.0680  178.1420  142.7070 N   0  0  0  0  0  0  0  0  0  0  0  0
  187.8840  178.3060  140.3450 O   0  0  0  0  0  0  0  0  0  0  0  0
  187.9950  177.6690  145.1060 C   0  0  0  0  0  2  0  0  0  0  0  0
  186.5260  177.6890  144.7310 C   0  0  0  0  0  2  0  0  0  0  0  0
  185.8270  178.4840  145.6390 O   0  0  0  0  0  0  0  0  0  0  0  0
  183.5190  178.9130  145.2440 C   0  0  0  0  0  2  0  0  0  0  0  0
  182.7320  179.0160  143.9590 C   0  0  0  0  0  2  0  0  0  0  0  0
  185.0910  178.8510  143.3950 C   0  0  0  0  0  2  0  0  0  0  0  0
  183.6910  178.5890  142.8670 C   0  0  0  0  0  2  0  0  0  0  0  0
  184.9470  179.2340  144.8580 C   0  0  0  0  0  3  0  0  0  0  0  0
  188.6860  176.4880  137.0230 C   0  0  2  0  0  3  0  0  0  0  0  0
  188.7910  176.8770  135.5500 C   0  0  0  0  0  2  0  0  0  0  0  0
  190.1890  176.5980  135.0340 C   0  0  0  0  0  2  0  0  0  0  0  0
  191.0700  176.1560  136.1830 C   0  0  0  0  0  2  0  0  0  0  0  0
  192.5110  176.0950  135.7200 C   0  0  0  0  0  2  0  0  0  0  0  0
  194.6530  176.4010  136.3470 O   0  0  0  0  0  1  0  0  0  0  0  0
  193.3940  176.3520  136.8440 N   0  0  0  0  0  0  0  0  0  0  0  0
  193.3250  175.1810  137.7050 C   0  0  0  0  0  2  0  0  0  0  0  0
  194.7210  174.6420  137.9820 C   0  0  0  0  0  2  0  0  0  0  0  0
  195.3660  172.4280  138.7790 N   0  0  0  0  0  1  0  0  0  0  0  0
  194.8160  173.1610  137.6500 C   0  0  0  0  0  2  0  0  0  0  0  0
  187.9580  175.2300  137.2290 N   0  0  0  0  0  2  0  0  0  0  0  0
  187.1190  174.9150  136.0770 C   0  0  0  0  0  2  0  0  0  0  0  0
  185.6760  174.8010  136.5230 C   0  0  0  0  0  1  0  0  0  0  0  0
  2  7  1  6  0  0  0
  2  5  1  0  0  0  0
  2  3  1  0  0  0  0
  3  9  1  0  0  0  0
  4  7  2  0  0  0  0
  5  3  1  0  0  0  0
  5  1  1  0  0  0  0
  6  4  1  0  0  0  0
  6 14  1  0  0  0  0
  7 10  1  0  0  0  0
  8 11  1  0  0  0  0
  9 15  1  0  0  0  0
 10 13  2  0  0  0  0
 11 12  1  0  0  0  0
 11  6  1  0  0  0  0
 12  6  1  0  0  0  0
 13  9  1  0  0  0  0
 14 10  1  0  0  0  0
 16 15  1  0  0  0  0
 16 17  1  0  0  0  0
 19 18  1  0  0  0  0
 20 22  1  0  0  0  0
 21 20  1  0  0  0  0
 21 19  1  0  0  0  0
 22 18  1  0  0  0  0
 22 17  1  0  0  0  0
 23 34  1  0  0  0  0
 23 11  1  0  0  0  0
 24 23  1  0  0  0  0
 25 24  1  0  0  0  0
 25 26  1  0  0  0  0
 27 26  1  0  0  0  0
 27 29  1  0  0  0  0
 28 29  1  0  0  0  0
 29 30  1  0  0  0  0
 30 31  1  0  0  0  0
 33 31  1  0  0  0  0
 33 32  1  0  0  0  0
 35 36  1  0  0  0  0
 35 34  1  0  0  0  0
M  END
>  <MODEL>
4

>  <REMARK>
 VINA RESULT:      -7.3      2.419      9.972
  Name = 
  15 active torsions:
  status: ('A' for Active; 'I' for Inactive)
    1  A    between atoms: C_1  and  C_16
    2  A    between atoms: C_1  and  C_29
    3  A    between atoms: C_2  and  C_12
    4  A    between atoms: C_2  and  N_17
    5  A    between atoms: C_4  and  C_24
    6  A    between atoms: C_4  and  C_28
    7  A    between atoms: C_8  and  C_14
    8  A    between atoms: C_8  and  N_17
    9  A    between atoms: C_10  and  N_33
   10  A    between atoms: C_12  and  C_29
   11  A    between atoms: C_14  and  C_35
   12  A    between atoms: C_16  and  C_27
   13  A    between atoms: C_16  and  N_33
   14  A    between atoms: O_26  and  C_28
   15  A    between atoms: O_26  and  C_31
                            x       y       z     vdW  Elec       q    Type
                         _______ _______ _______ _____ _____    ______ ____

>  <TORSDO>
F 15

$$$$
=
 OpenBabel10232411103D

 36 40  0  0  1  0  0  0  0  0999 V2000
  187.5220  178.3140  137.7840 C   0  0  0  0  0  1  0  0  0  0  0  0
  188.5730  177.3070  139.7210 C   0  0  2  0  0  3  0  0  0  0  0  0
  189.3950  176.9410  138.5250 N   0  0  1  0  0  0  0  0  0  0  0  0
  188.9930  177.7040  142.1720 C   0  0  0  0  0  3  0  0  0  0  0  0
  188.7660  178.2710  138.6480 C   0  0  1  0  0  3  0  0  0  0  0  0
  190.2220  177.5460  143.0230 C   0  0  2  0  0  0  0  0  0  0  0  0
  189.4200  177.5530  140.9240 C   0  0  0  0  0  0  0  0  0  0  0  0
  191.4910  176.6010  145.0600 C   0  0  0  0  0  1  0  0  0  0  0  0
  190.8470  177.2350  138.5410 C   0  0  1  0  0  3  0  0  0  0  0  0
  190.8220  177.2450  140.9250 C   0  0  0  0  0  0  0  0  0  0  0  0
  190.2410  177.2740  144.5120 C   0  0  1  0  0  0  0  0  0  0  0  0
  190.4890  178.6860  143.9870 C   0  0  0  0  0  2  0  0  0  0  0  0
  191.4820  177.0090  139.8450 N   0  0  0  0  0  0  0  0  0  0  0  0
  191.3350  177.2170  142.2060 O   0  0  0  0  0  0  0  0  0  0  0  0
  191.5430  176.4070  137.4750 C   0  0  0  0  0  2  0  0  0  0  0  0
  190.7690  175.1320  137.2080 C   0  0  0  0  0  2  0  0  0  0  0  0
  190.8010  174.8470  135.8430 O   0  0  0  0  0  0  0  0  0  0  0  0
  188.6440  175.5540  135.1250 C   0  0  0  0  0  2  0  0  0  0  0  0
  187.2640  175.2100  135.6350 C   0  0  0  0  0  2  0  0  0  0  0  0
  188.8720  173.7900  136.7780 C   0  0  0  0  0  2  0  0  0  0  0  0
  187.4920  174.4140  136.9020 C   0  0  0  0  0  2  0  0  0  0  0  0
  189.5170  174.3890  135.5410 C   0  0  0  0  0  3  0  0  0  0  0  0
  188.8830  177.0940  145.1990 C   0  0  2  0  0  3  0  0  0  0  0  0
  187.7110  177.1980  144.2250 C   0  0  0  0  0  2  0  0  0  0  0  0
  186.4230  177.4500  144.9830 C   0  0  0  0  0  2  0  0  0  0  0  0
  185.7300  178.6660  144.4070 C   0  0  0  0  0  2  0  0  0  0  0  0
  184.7730  178.2310  143.3160 C   0  0  0  0  0  2  0  0  0  0  0  0
  182.7790  178.5120  144.3280 O   0  0  0  0  0  1  0  0  0  0  0  0
  183.5720  179.0470  143.3690 N   0  0  0  0  0  0  0  0  0  0  0  0
  182.8850  178.8610  142.0990 C   0  0  0  0  0  2  0  0  0  0  0  0
  183.8880  178.5740  140.9910 C   0  0  0  0  0  2  0  0  0  0  0  0
  184.4220  180.0610  139.1310 N   0  0  0  0  0  1  0  0  0  0  0  0
  183.4200  179.1490  139.6620 C   0  0  0  0  0  2  0  0  0  0  0  0
  188.7260  177.9620  146.3710 N   0  0  0  0  0  2  0  0  0  0  0  0
  188.9110  177.2110  147.6090 C   0  0  0  0  0  2  0  0  0  0  0  0
  188.3160  177.9900  148.7640 C   0  0  0  0  0  1  0  0  0  0  0  0
  1  5  1  0  0  0  0
  2  7  1  1  0  0  0
  3  9  1  0  0  0  0
  3  5  1  0  0  0  0
  3  2  1  0  0  0  0
  4  6  1  0  0  0  0
  5  2  1  0  0  0  0
  6 12  1  0  0  0  0
  6 11  1  0  0  0  0
  7 10  1  0  0  0  0
  7  4  2  0  0  0  0
  9 13  1  0  0  0  0
 10 14  1  0  0  0  0
 11  8  1  0  0  0  0
 11 23  1  0  0  0  0
 12 11  1  0  0  0  0
 13 10  2  0  0  0  0
 14  6  1  0  0  0  0
 15  9  1  0  0  0  0
 16 15  1  0  0  0  0
 17 16  1  0  0  0  0
 18 22  1  0  0  0  0
 18 19  1  0  0  0  0
 19 21  1  0  0  0  0
 20 21  1  0  0  0  0
 22 17  1  0  0  0  0
 22 20  1  0  0  0  0
 23 34  1  0  0  0  0
 24 25  1  0  0  0  0
 24 23  1  0  0  0  0
 26 25  1  0  0  0  0
 27 29  1  0  0  0  0
 27 26  1  0  0  0  0
 29 28  1  0  0  0  0
 30 29  1  0  0  0  0
 31 30  1  0  0  0  0
 32 33  1  0  0  0  0
 33 31  1  0  0  0  0
 34 35  1  0  0  0  0
 35 36  1  0  0  0  0
M  END
>  <MODEL>
5

>  <REMARK>
 VINA RESULT:      -7.1      1.696      2.684
  Name = 
  15 active torsions:
  status: ('A' for Active; 'I' for Inactive)
    1  A    between atoms: C_1  and  C_16
    2  A    between atoms: C_1  and  C_29
    3  A    between atoms: C_2  and  C_12
    4  A    between atoms: C_2  and  N_17
    5  A    between atoms: C_4  and  C_24
    6  A    between atoms: C_4  and  C_28
    7  A    between atoms: C_8  and  C_14
    8  A    between atoms: C_8  and  N_17
    9  A    between atoms: C_10  and  N_33
   10  A    between atoms: C_12  and  C_29
   11  A    between atoms: C_14  and  C_35
   12  A    between atoms: C_16  and  C_27
   13  A    between atoms: C_16  and  N_33
   14  A    between atoms: O_26  and  C_28
   15  A    between atoms: O_26  and  C_31
                            x       y       z     vdW  Elec       q    Type
                         _______ _______ _______ _____ _____    ______ ____

>  <TORSDO>
F 15

$$$$
=
 OpenBabel10232411103D

 36 40  0  0  1  0  0  0  0  0999 V2000
  184.9500  179.0480  144.7690 C   0  0  0  0  0  1  0  0  0  0  0  0
  185.7760  178.0700  142.7100 C   0  0  2  0  0  3  0  0  0  0  0  0
  184.3050  178.2920  142.5430 N   0  0  1  0  0  0  0  0  0  0  0  0
  187.7990  178.0350  141.2110 C   0  0  0  0  0  3  0  0  0  0  0  0
  185.1480  179.2540  143.2800 C   0  0  1  0  0  3  0  0  0  0  0  0
  187.9500  178.1330  139.7190 C   0  0  2  0  0  0  0  0  0  0  0  0
  186.5250  178.3250  141.4450 C   0  0  0  0  0  0  0  0  0  0  0  0
  188.7930  177.2680  137.4410 C   0  0  0  0  0  1  0  0  0  0  0  0
  183.8300  179.0660  141.3710 C   0  0  1  0  0  3  0  0  0  0  0  0
  185.8390  178.5360  140.2020 C   0  0  0  0  0  0  0  0  0  0  0  0
  189.0900  177.5630  138.9030 C   0  0  1  0  0  0  0  0  0  0  0  0
  189.0620  179.0500  139.2430 C   0  0  0  0  0  2  0  0  0  0  0  0
  184.5790  178.7940  140.1390 N   0  0  0  0  0  0  0  0  0  0  0  0
  186.6910  178.4070  139.1240 O   0  0  0  0  0  0  0  0  0  0  0  0
  182.3520  178.7940  141.1510 C   0  0  0  0  0  2  0  0  0  0  0  0
  182.0720  178.5580  139.6800 C   0  0  0  0  0  2  0  0  0  0  0  0
  181.3730  177.3610  139.5270 O   0  0  0  0  0  0  0  0  0  0  0  0
  182.8160  175.7770  138.4900 C   0  0  0  0  0  2  0  0  0  0  0  0
  183.7540  175.9070  137.3130 C   0  0  0  0  0  2  0  0  0  0  0  0
  182.4580  177.9560  137.4820 C   0  0  0  0  0  2  0  0  0  0  0  0
  183.7710  177.3830  136.9760 C   0  0  0  0  0  2  0  0  0  0  0  0
  181.7800  176.8620  138.2890 C   0  0  0  0  0  3  0  0  0  0  0  0
  190.1570  176.7690  139.6670 C   0  0  2  0  0  3  0  0  0  0  0  0
  191.2040  177.6670  140.3210 C   0  0  0  0  0  2  0  0  0  0  0  0
  191.3510  177.3150  141.7880 C   0  0  0  0  0  2  0  0  0  0  0  0
  190.4380  176.1550  142.1200 C   0  0  0  0  0  2  0  0  0  0  0  0
  190.0540  176.2190  143.5840 C   0  0  0  0  0  2  0  0  0  0  0  0
  191.4900  176.8130  145.2150 O   0  0  0  0  0  1  0  0  0  0  0  0
  190.7370  177.3340  144.2170 N   0  0  0  0  0  0  0  0  0  0  0  0
  189.7090  178.1510  144.8450 C   0  0  0  0  0  2  0  0  0  0  0  0
  188.4900  177.3020  145.1820 C   0  0  0  0  0  2  0  0  0  0  0  0
  188.9250  177.4480  147.5790 N   0  0  0  0  0  1  0  0  0  0  0  0
  187.9250  177.6690  146.5460 C   0  0  0  0  0  2  0  0  0  0  0  0
  190.7510  175.7010  138.8550 N   0  0  0  0  0  2  0  0  0  0  0  0
  192.0520  176.1020  138.3290 C   0  0  0  0  0  2  0  0  0  0  0  0
  192.0710  175.9030  136.8280 C   0  0  0  0  0  1  0  0  0  0  0  0
  2  7  1  6  0  0  0
  2  5  1  0  0  0  0
  3  2  1  0  0  0  0
  3  5  1  0  0  0  0
  4  7  2  0  0  0  0
  5  1  1  0  0  0  0
  6  4  1  0  0  0  0
  8 11  1  0  0  0  0
  9  3  1  0  0  0  0
 10  7  1  0  0  0  0
 11 12  1  0  0  0  0
 11 23  1  0  0  0  0
 11  6  1  0  0  0  0
 12  6  1  0  0  0  0
 13 10  2  0  0  0  0
 13  9  1  0  0  0  0
 14  6  1  0  0  0  0
 14 10  1  0  0  0  0
 15  9  1  0  0  0  0
 16 15  1  0  0  0  0
 17 16  1  0  0  0  0
 19 18  1  0  0  0  0
 20 22  1  0  0  0  0
 21 19  1  0  0  0  0
 21 20  1  0  0  0  0
 22 18  1  0  0  0  0
 22 17  1  0  0  0  0
 23 24  1  0  0  0  0
 24 25  1  0  0  0  0
 25 26  1  0  0  0  0
 26 27  1  0  0  0  0
 27 29  1  0  0  0  0
 29 30  1  0  0  0  0
 29 28  1  0  0  0  0
 30 31  1  0  0  0  0
 31 33  1  0  0  0  0
 33 32  1  0  0  0  0
 34 23  1  0  0  0  0
 35 34  1  0  0  0  0
 36 35  1  0  0  0  0
M  END
>  <MODEL>
6

>  <REMARK>
 VINA RESULT:      -6.7      2.529      8.214
  Name = 
  15 active torsions:
  status: ('A' for Active; 'I' for Inactive)
    1  A    between atoms: C_1  and  C_16
    2  A    between atoms: C_1  and  C_29
    3  A    between atoms: C_2  and  C_12
    4  A    between atoms: C_2  and  N_17
    5  A    between atoms: C_4  and  C_24
    6  A    between atoms: C_4  and  C_28
    7  A    between atoms: C_8  and  C_14
    8  A    between atoms: C_8  and  N_17
    9  A    between atoms: C_10  and  N_33
   10  A    between atoms: C_12  and  C_29
   11  A    between atoms: C_14  and  C_35
   12  A    between atoms: C_16  and  C_27
   13  A    between atoms: C_16  and  N_33
   14  A    between atoms: O_26  and  C_28
   15  A    between atoms: O_26  and  C_31
                            x       y       z     vdW  Elec       q    Type
                         _______ _______ _______ _____ _____    ______ ____

>  <TORSDO>
F 15

$$$$
=
 OpenBabel10232411103D

 36 40  0  0  1  0  0  0  0  0999 V2000
  186.6000  177.8600  142.9730 C   0  0  0  0  0  1  0  0  0  0  0  0
  188.3070  178.0230  141.2610 C   0  0  2  0  0  3  0  0  0  0  0  0
  188.9210  178.4730  142.5490 N   0  0  1  0  0  0  0  0  0  0  0  0
  189.1070  176.9000  139.1530 C   0  0  0  0  0  3  0  0  0  0  0  0
  187.9530  177.3600  142.5070 C   0  0  1  0  0  3  0  0  0  0  0  0
  190.4770  176.5150  138.6730 C   0  0  2  0  0  0  0  0  0  0  0  0
  189.2770  177.2630  140.4190 C   0  0  0  0  0  0  0  0  0  0  0  0
  192.3880  176.5380  136.9410 C   0  0  0  0  0  1  0  0  0  0  0  0
  190.1770  177.8320  143.0030 C   0  0  1  0  0  3  0  0  0  0  0  0
  190.6700  177.1990  140.7580 C   0  0  0  0  0  0  0  0  0  0  0  0
  190.9040  176.3700  137.2280 C   0  0  1  0  0  0  0  0  0  0  0  0
  190.5800  175.1310  138.0590 C   0  0  0  0  0  2  0  0  0  0  0  0
  191.1180  177.5380  141.9160 N   0  0  0  0  0  0  0  0  0  0  0  0
  191.4320  176.7580  139.6950 O   0  0  0  0  0  0  0  0  0  0  0  0
  190.8460  178.7100  144.0460 C   0  0  0  0  0  2  0  0  0  0  0  0
  190.4590  178.2610  145.4410 C   0  0  0  0  0  2  0  0  0  0  0  0
  189.9490  176.9640  145.3860 O   0  0  0  0  0  0  0  0  0  0  0  0
  187.8910  177.6640  146.3570 C   0  0  0  0  0  2  0  0  0  0  0  0
  187.5660  178.1730  147.7420 C   0  0  0  0  0  2  0  0  0  0  0  0
  189.8750  177.4130  147.7330 C   0  0  0  0  0  2  0  0  0  0  0  0
  188.9050  178.3550  148.4250 C   0  0  0  0  0  2  0  0  0  0  0  0
  189.1510  176.8430  146.5250 C   0  0  0  0  0  3  0  0  0  0  0  0
  189.8520  176.6960  136.1620 C   0  0  2  0  0  3  0  0  0  0  0  0
  190.3110  176.3360  134.7500 C   0  0  0  0  0  2  0  0  0  0  0  0
  189.9180  174.9090  134.4220 C   0  0  0  0  0  2  0  0  0  0  0  0
  188.4930  174.6650  134.8700 C   0  0  0  0  0  2  0  0  0  0  0  0
  188.3810  173.2720  135.4560 C   0  0  0  0  0  2  0  0  0  0  0  0
  187.8580  172.1630  137.3460 O   0  0  0  0  0  1  0  0  0  0  0  0
  187.6200  173.3250  136.6920 N   0  0  0  0  0  0  0  0  0  0  0  0
  186.2140  173.3200  136.3170 C   0  0  0  0  0  2  0  0  0  0  0  0
  185.4820  174.4740  136.9880 C   0  0  0  0  0  2  0  0  0  0  0  0
  183.6240  175.0670  135.5220 N   0  0  0  0  0  1  0  0  0  0  0  0
  184.9530  175.4630  135.9600 C   0  0  0  0  0  2  0  0  0  0  0  0
  189.3570  178.0740  136.2640 N   0  0  0  0  0  2  0  0  0  0  0  0
  187.9980  178.1840  135.7420 C   0  0  0  0  0  2  0  0  0  0  0  0
  187.0360  178.4140  136.8890 C   0  0  0  0  0  1  0  0  0  0  0  0
  2  7  1  6  0  0  0
  2  5  1  0  0  0  0
  2  3  1  0  0  0  0
  3  9  1  0  0  0  0
  4  7  2  0  0  0  0
  5  3  1  0  0  0  0
  5  1  1  0  0  0  0
  6  4  1  0  0  0  0
  6 14  1  0  0  0  0
  7 10  1  0  0  0  0
  8 11  1  0  0  0  0
  9 15  1  0  0  0  0
 10 13  2  0  0  0  0
 11 12  1  0  0  0  0
 11  6  1  0  0  0  0
 12  6  1  0  0  0  0
 13  9  1  0  0  0  0
 14 10  1  0  0  0  0
 15 16  1  0  0  0  0
 17 16  1  0  0  0  0
 17 22  1  0  0  0  0
 18 22  1  0  0  0  0
 18 19  1  0  0  0  0
 19 21  1  0  0  0  0
 20 21  1  0  0  0  0
 22 20  1  0  0  0  0
 23 34  1  0  0  0  0
 23 11  1  0  0  0  0
 24 23  1  0  0  0  0
 25 24  1  0  0  0  0
 25 26  1  0  0  0  0
 26 27  1  0  0  0  0
 27 29  1  0  0  0  0
 29 28  1  0  0  0  0
 30 29  1  0  0  0  0
 30 31  1  0  0  0  0
 32 33  1  0  0  0  0
 33 31  1  0  0  0  0
 35 34  1  0  0  0  0
 35 36  1  0  0  0  0
M  END
>  <MODEL>
7

>  <REMARK>
 VINA RESULT:      -6.7      2.894      8.756
  Name = 
  15 active torsions:
  status: ('A' for Active; 'I' for Inactive)
    1  A    between atoms: C_1  and  C_16
    2  A    between atoms: C_1  and  C_29
    3  A    between atoms: C_2  and  C_12
    4  A    between atoms: C_2  and  N_17
    5  A    between atoms: C_4  and  C_24
    6  A    between atoms: C_4  and  C_28
    7  A    between atoms: C_8  and  C_14
    8  A    between atoms: C_8  and  N_17
    9  A    between atoms: C_10  and  N_33
   10  A    between atoms: C_12  and  C_29
   11  A    between atoms: C_14  and  C_35
   12  A    between atoms: C_16  and  C_27
   13  A    between atoms: C_16  and  N_33
   14  A    between atoms: O_26  and  C_28
   15  A    between atoms: O_26  and  C_31
                            x       y       z     vdW  Elec       q    Type
                         _______ _______ _______ _____ _____    ______ ____

>  <TORSDO>
F 15

$$$$
=
 OpenBabel10232411103D

 36 40  0  0  1  0  0  0  0  0999 V2000
  184.3440  179.0250  138.8960 C   0  0  0  0  0  1  0  0  0  0  0  0
  185.4180  179.1500  141.0650 C   0  0  2  0  0  3  0  0  0  0  0  0
  183.9700  179.4760  141.2620 N   0  0  1  0  0  0  0  0  0  0  0  0
  187.2510  178.0890  142.4270 C   0  0  0  0  0  3  0  0  0  0  0  0
  184.4010  178.4470  140.2960 C   0  0  1  0  0  3  0  0  0  0  0  0
  187.3060  177.6250  143.8550 C   0  0  2  0  0  0  0  0  0  0  0  0
  185.9710  178.3650  142.2070 C   0  0  0  0  0  0  0  0  0  0  0  0
  188.3460  177.5950  146.2150 C   0  0  0  0  0  1  0  0  0  0  0  0
  183.1980  178.7110  142.2700 C   0  0  1  0  0  3  0  0  0  0  0  0
  185.2190  178.1710  143.4130 C   0  0  0  0  0  0  0  0  0  0  0  0
  188.5520  177.5280  144.7090 C   0  0  1  0  0  0  0  0  0  0  0  0
  187.9650  176.2740  144.0680 C   0  0  0  0  0  2  0  0  0  0  0  0
  183.9560  178.4070  143.4890 N   0  0  0  0  0  0  0  0  0  0  0  0
  186.0210  177.7320  144.4470 O   0  0  0  0  0  0  0  0  0  0  0  0
  181.9330  179.4730  142.6210 C   0  0  0  0  0  2  0  0  0  0  0  0
  180.8480  179.1940  141.6000 C   0  0  0  0  0  2  0  0  0  0  0  0
  180.9690  177.8830  141.1410 O   0  0  0  0  0  0  0  0  0  0  0  0
  181.0660  176.9610  138.9470 C   0  0  0  0  0  2  0  0  0  0  0  0
  180.9140  177.6060  137.5900 C   0  0  0  0  0  2  0  0  0  0  0  0
  180.3660  179.2620  139.2830 C   0  0  0  0  0  2  0  0  0  0  0  0
  180.8640  179.0960  137.8580 C   0  0  0  0  0  2  0  0  0  0  0  0
  180.3260  177.8750  139.9010 C   0  0  0  0  0  3  0  0  0  0  0  0
  189.8650  177.9980  144.0720 C   0  0  2  0  0  3  0  0  0  0  0  0
  190.2130  177.2250  142.8010 C   0  0  0  0  0  2  0  0  0  0  0  0
  191.2390  177.9910  141.9890 C   0  0  0  0  0  2  0  0  0  0  0  0
  191.4500  177.2950  140.6610 C   0  0  0  0  0  2  0  0  0  0  0  0
  190.1830  176.5640  140.2680 C   0  0  0  0  0  2  0  0  0  0  0  0
  191.5620  176.3320  138.5020 O   0  0  0  0  0  1  0  0  0  0  0  0
  190.3910  175.8760  139.0060 N   0  0  0  0  0  0  0  0  0  0  0  0
  189.3390  176.3260  138.1070 C   0  0  0  0  0  2  0  0  0  0  0  0
  189.8080  177.5300  137.3020 C   0  0  0  0  0  2  0  0  0  0  0  0
  187.9420  178.4380  138.5860 N   0  0  0  0  0  1  0  0  0  0  0  0
  189.0110  178.7760  137.6600 C   0  0  0  0  0  2  0  0  0  0  0  0
  190.9730  178.0400  145.0330 N   0  0  0  0  0  2  0  0  0  0  0  0
  191.5950  176.7270  145.1760 C   0  0  0  0  0  2  0  0  0  0  0  0
  191.7050  176.3800  146.6460 C   0  0  0  0  0  1  0  0  0  0  0  0
  1  5  1  0  0  0  0
  2  3  1  0  0  0  0
  2  7  1  1  0  0  0
  3  9  1  0  0  0  0
  4  6  1  0  0  0  0
  5  2  1  0  0  0  0
  5  3  1  0  0  0  0
  6 12  1  0  0  0  0
  6 14  1  0  0  0  0
  6 11  1  0  0  0  0
  7  4  2  0  0  0  0
  7 10  1  0  0  0  0
  9 15  1  0  0  0  0
  9 13  1  0  0  0  0
 10 13  2  0  0  0  0
 10 14  1  0  0  0  0
 11  8  1  0  0  0  0
 12 11  1  0  0  0  0
 16 15  1  0  0  0  0
 17 16  1  0  0  0  0
 18 22  1  0  0  0  0
 19 21  1  0  0  0  0
 19 18  1  0  0  0  0
 20 22  1  0  0  0  0
 21 20  1  0  0  0  0
 22 17  1  0  0  0  0
 23 11  1  0  0  0  0
 23 34  1  0  0  0  0
 24 23  1  0  0  0  0
 25 24  1  0  0  0  0
 26 25  1  0  0  0  0
 27 26  1  0  0  0  0
 28 29  1  0  0  0  0
 29 27  1  0  0  0  0
 30 29  1  0  0  0  0
 31 33  1  0  0  0  0
 31 30  1  0  0  0  0
 33 32  1  0  0  0  0
 34 35  1  0  0  0  0
 35 36  1  0  0  0  0
M  END
>  <MODEL>
8

>  <REMARK>
 VINA RESULT:      -6.6      2.744      8.306
  Name = 
  15 active torsions:
  status: ('A' for Active; 'I' for Inactive)
    1  A    between atoms: C_1  and  C_16
    2  A    between atoms: C_1  and  C_29
    3  A    between atoms: C_2  and  C_12
    4  A    between atoms: C_2  and  N_17
    5  A    between atoms: C_4  and  C_24
    6  A    between atoms: C_4  and  C_28
    7  A    between atoms: C_8  and  C_14
    8  A    between atoms: C_8  and  N_17
    9  A    between atoms: C_10  and  N_33
   10  A    between atoms: C_12  and  C_29
   11  A    between atoms: C_14  and  C_35
   12  A    between atoms: C_16  and  C_27
   13  A    between atoms: C_16  and  N_33
   14  A    between atoms: O_26  and  C_28
   15  A    between atoms: O_26  and  C_31
                            x       y       z     vdW  Elec       q    Type
                         _______ _______ _______ _____ _____    ______ ____

>  <TORSDO>
F 15

$$$$
=
 OpenBabel10232411103D

 36 40  0  0  1  0  0  0  0  0999 V2000
  184.9950  179.1300  144.7730 C   0  0  0  0  0  1  0  0  0  0  0  0
  185.7980  178.1160  142.7240 C   0  0  2  0  0  3  0  0  0  0  0  0
  184.3250  178.3350  142.5680 N   0  0  1  0  0  0  0  0  0  0  0  0
  187.8040  178.0540  141.2030 C   0  0  0  0  0  3  0  0  0  0  0  0
  185.1760  179.3090  143.2790 C   0  0  1  0  0  3  0  0  0  0  0  0
  187.9390  178.1260  139.7080 C   0  0  2  0  0  0  0  0  0  0  0  0
  186.5320  178.3480  141.4460 C   0  0  0  0  0  0  0  0  0  0  0  0
  188.7570  177.2200  137.4360 C   0  0  0  0  0  1  0  0  0  0  0  0
  183.8370  179.0870  141.3890 C   0  0  1  0  0  3  0  0  0  0  0  0
  185.8330  178.5380  140.2070 C   0  0  0  0  0  0  0  0  0  0  0  0
  189.0700  177.5410  138.8900 C   0  0  1  0  0  0  0  0  0  0  0  0
  189.0450  179.0350  139.2040 C   0  0  0  0  0  2  0  0  0  0  0  0
  184.5730  178.7940  140.1530 N   0  0  0  0  0  0  0  0  0  0  0  0
  186.6730  178.3890  139.1220 O   0  0  0  0  0  0  0  0  0  0  0  0
  182.3570  178.8120  141.1900 C   0  0  0  0  0  2  0  0  0  0  0  0
  181.9720  179.0180  139.7380 C   0  0  0  0  0  2  0  0  0  0  0  0
  181.2610  180.2120  139.6130 O   0  0  0  0  0  0  0  0  0  0  0  0
  180.9910  182.0780  138.1590 C   0  0  0  0  0  2  0  0  0  0  0  0
  180.7220  182.1520  136.6740 C   0  0  0  0  0  2  0  0  0  0  0  0
  181.1460  179.8300  137.2560 C   0  0  0  0  0  2  0  0  0  0  0  0
  180.4490  180.7250  136.2460 C   0  0  0  0  0  2  0  0  0  0  0  0
  181.6440  180.7290  138.3730 C   0  0  0  0  0  3  0  0  0  0  0  0
  190.1450  176.7610  139.6560 C   0  0  2  0  0  3  0  0  0  0  0  0
  191.1960  177.6710  140.2880 C   0  0  0  0  0  2  0  0  0  0  0  0
  191.7600  177.0270  141.5390 C   0  0  0  0  0  2  0  0  0  0  0  0
  190.6210  176.5710  142.4260 C   0  0  0  0  0  2  0  0  0  0  0  0
  190.6270  177.3770  143.7080 C   0  0  0  0  0  2  0  0  0  0  0  0
  188.5680  176.5380  144.0740 O   0  0  0  0  0  1  0  0  0  0  0  0
  189.7590  176.7420  144.6850 N   0  0  0  0  0  0  0  0  0  0  0  0
  189.5330  177.7200  145.7390 C   0  0  0  0  0  2  0  0  0  0  0  0
  189.7020  177.0740  147.1070 C   0  0  0  0  0  2  0  0  0  0  0  0
  187.3440  177.7030  147.1500 N   0  0  0  0  0  1  0  0  0  0  0  0
  188.4690  177.2880  147.9730 C   0  0  0  0  0  2  0  0  0  0  0  0
  190.7350  175.6820  138.8540 N   0  0  0  0  0  2  0  0  0  0  0  0
  191.9460  176.1340  138.1770 C   0  0  0  0  0  2  0  0  0  0  0  0
  192.5830  174.9660  137.4530 C   0  0  0  0  0  1  0  0  0  0  0  0
  2  7  1  6  0  0  0
  2  5  1  0  0  0  0
  3  2  1  0  0  0  0
  3  5  1  0  0  0  0
  4  7  2  0  0  0  0
  5  1  1  0  0  0  0
  6  4  1  0  0  0  0
  8 11  1  0  0  0  0
  9  3  1  0  0  0  0
 10  7  1  0  0  0  0
 11 12  1  0  0  0  0
 11 23  1  0  0  0  0
 11  6  1  0  0  0  0
 12  6  1  0  0  0  0
 13 10  2  0  0  0  0
 13  9  1  0  0  0  0
 14  6  1  0  0  0  0
 14 10  1  0  0  0  0
 15  9  1  0  0  0  0
 16 15  1  0  0  0  0
 17 16  1  0  0  0  0
 18 22  1  0  0  0  0
 19 18  1  0  0  0  0
 20 22  1  0  0  0  0
 21 19  1  0  0  0  0
 21 20  1  0  0  0  0
 22 17  1  0  0  0  0
 23 24  1  0  0  0  0
 24 25  1  0  0  0  0
 25 26  1  0  0  0  0
 26 27  1  0  0  0  0
 27 29  1  0  0  0  0
 28 29  1  0  0  0  0
 29 30  1  0  0  0  0
 30 31  1  0  0  0  0
 31 33  1  0  0  0  0
 32 33  1  0  0  0  0
 34 23  1  0  0  0  0
 35 34  1  0  0  0  0
 36 35  1  0  0  0  0
M  END
>  <MODEL>
9

>  <REMARK>
 VINA RESULT:      -6.5      2.787      8.966
  Name = 
  15 active torsions:
  status: ('A' for Active; 'I' for Inactive)
    1  A    between atoms: C_1  and  C_16
    2  A    between atoms: C_1  and  C_29
    3  A    between atoms: C_2  and  C_12
    4  A    between atoms: C_2  and  N_17
    5  A    between atoms: C_4  and  C_24
    6  A    between atoms: C_4  and  C_28
    7  A    between atoms: C_8  and  C_14
    8  A    between atoms: C_8  and  N_17
    9  A    between atoms: C_10  and  N_33
   10  A    between atoms: C_12  and  C_29
   11  A    between atoms: C_14  and  C_35
   12  A    between atoms: C_16  and  C_27
   13  A    between atoms: C_16  and  N_33
   14  A    between atoms: O_26  and  C_28
   15  A    between atoms: O_26  and  C_31
                            x       y       z     vdW  Elec       q    Type
                         _______ _______ _______ _____ _____    ______ ____

>  <TORSDO>
F 15

$$$$
