=
 OpenBabel10232409303D

 53 56  0  0  1  0  0  0  0  0999 V2000
  184.6840  176.8800  134.8900 C   0  0  0  0  0  2  0  0  0  0  0  0
  187.0360  178.0970  136.3430 C   0  0  0  0  0  2  0  0  0  0  0  0
  182.5440  178.6520  134.3880 O   0  0  0  0  0  0  0  0  0  0  0  0
  185.5870  175.8920  135.0100 C   0  0  1  0  0  3  0  0  0  0  0  0
  183.4630  176.9540  135.7380 C   0  0  2  0  0  3  0  0  0  0  0  0
  186.1690  177.3930  138.4960 O   0  0  0  0  0  0  0  0  0  0  0  0
  186.9910  176.2200  134.6300 C   0  0  0  0  0  2  0  0  0  0  0  0
  181.8090  177.1320  138.3000 C   0  0  0  0  0  2  0  0  0  0  0  0
  180.4990  178.2530  136.5600 N   0  0  0  0  0  0  0  0  0  0  0  0
  180.8680  178.2060  137.8080 C   0  0  0  0  0  0  0  0  0  0  0  0
  183.2350  177.5810  138.1940 C   0  0  0  0  0  0  0  0  0  0  0  0
  185.3890  178.2570  139.2880 C   0  0  1  0  0  3  0  0  0  0  0  0
  182.3330  177.6760  135.0860 C   0  0  0  0  0  0  0  0  0  0  0  0
  180.9390  177.3300  135.5200 C   0  0  2  0  0  3  0  0  0  0  0  0
  187.7650  176.8690  135.7780 C   0  0  1  0  0  3  0  0  0  0  0  0
  183.8670  177.6850  136.9260 N   0  0  0  0  0  2  0  0  0  0  0  0
  187.1320  178.1940  137.8630 C   0  0  0  0  0  2  0  0  0  0  0  0
  179.9820  177.3910  134.3460 C   0  0  0  0  0  1  0  0  0  0  0  0
  183.9420  177.8260  139.2970 C   0  0  0  0  0  3  0  0  0  0  0  0
  180.4130  179.2550  138.6800 N   0  0  0  0  0  0  0  0  0  0  0  0
  182.2400  180.7360  138.3590 N   0  0  0  0  0  1  0  0  0  0  0  0
  180.3530  181.3120  139.8120 N   0  0  0  0  0  1  0  0  0  0  0  0
  180.9740  180.4060  138.9050 C   0  0  0  0  0  0  0  0  0  0  0  0
  189.7490  176.2350  134.6120 F   0  0  0  0  0  0  0  0  0  0  0  0
  189.9640  177.6440  136.3520 F   0  0  0  0  0  0  0  0  0  0  0  0
  189.1550  177.2850  135.2820 C   0  0  0  0  0  0  0  0  0  0  0  0
  189.0430  178.3770  134.4160 F   0  0  0  0  0  0  0  0  0  0  0  0
  185.8870  178.2350  140.7280 C   0  0  0  0  0  2  0  0  0  0  0  0
  185.0340  179.0880  141.6470 C   0  0  0  0  0  2  0  0  0  0  0  0
  185.9580  178.7040  143.8530 C   0  0  1  0  0  3  0  0  0  0  0  0
  184.8300  178.3940  142.9820 C   0  0  1  0  0  3  0  0  0  0  0  0
  184.6780  179.4060  144.0400 N   0  0  0  0  0  2  0  0  0  0  0  0
  186.0940  177.6230  144.9130 C   0  0  0  0  0  2  0  0  0  0  0  0
  187.5260  177.1030  144.9670 C   0  0  0  0  0  2  0  0  0  0  0  0
  188.3710  177.8900  145.9640 C   0  0  0  0  0  2  0  0  0  0  0  0
  191.8420  176.8040  145.5680 O   0  0  0  0  0  0  0  0  0  0  0  0
  190.7720  177.4160  145.3280 C   0  0  0  0  0  0  0  0  0  0  0  0
  189.6470  177.2190  146.1820 N   0  0  0  0  0  2  0  0  0  0  0  0
  190.6910  178.3030  144.1340 C   0  0  0  0  0  2  0  0  0  0  0  0
  190.7260  177.4620  142.8660 C   0  0  0  0  0  1  0  0  0  0  0  0
  185.3160  174.5730  135.6920 C   0  0  1  0  0  3  0  0  0  0  0  0
  186.4310  174.1240  136.5850 C   0  0  0  0  0  0  0  0  0  0  0  0
  186.4190  174.4390  137.8100 O   0  0  0  0  0  1  0  0  0  0  0  0
  187.5070  173.4170  136.0600 O   0  0  0  0  0  0  0  0  0  0  0  0
  184.0960  174.6060  136.3840 O   0  0  0  0  0  0  0  0  0  0  0  0
  182.6650  171.3720  135.8230 C   0  0  1  0  0  3  0  0  0  0  0  0
  183.7150  170.4490  136.4090 C   0  0  0  0  0  1  0  0  0  0  0  0
  182.6100  172.6590  136.6330 C   0  0  1  0  0  3  0  0  0  0  0  0
  183.6680  173.1370  134.4560 C   0  0  0  0  0  2  0  0  0  0  0  0
  183.1570  173.7690  135.7390 C   0  0  2  0  0  3  0  0  0  0  0  0
  183.0410  171.7540  134.4040 C   0  0  0  0  0  2  0  0  0  0  0  0
  180.7020  172.0100  137.9660 O   0  0  0  0  0  1  0  0  0  0  0  0
  181.1830  172.9780  137.0770 C   0  0  0  0  0  2  0  0  0  0  0  0
  1  4  1  0  0  0  0
  2 17  1  0  0  0  0
  3 13  2  0  0  0  0
  4 41  1  1  0  0  0
  5  1  1  6  0  0  0
  5 16  1  0  0  0  0
  6 12  1  0  0  0  0
  7  4  1  0  0  0  0
  7 15  1  0  0  0  0
  9 10  2  0  0  0  0
 10  8  1  0  0  0  0
 10 20  1  0  0  0  0
 11  8  1  0  0  0  0
 11 19  2  0  0  0  0
 12 19  1  0  0  0  0
 12 28  1  1  0  0  0
 13 14  1  0  0  0  0
 13  5  1  0  0  0  0
 14 18  1  6  0  0  0
 14  9  1  0  0  0  0
 15 26  1  6  0  0  0
 15  2  1  0  0  0  0
 16 11  1  0  0  0  0
 17  6  1  0  0  0  0
 20 23  2  0  0  0  0
 21 23  1  0  0  0  0
 23 22  1  0  0  0  0
 24 26  1  0  0  0  0
 26 25  1  0  0  0  0
 27 26  1  0  0  0  0
 28 29  1  0  0  0  0
 30 32  1  0  0  0  0
 30 33  1  1  0  0  0
 31 29  1  6  0  0  0
 31 30  1  0  0  0  0
 31 32  1  0  0  0  0
 33 34  1  0  0  0  0
 34 35  1  0  0  0  0
 35 38  1  0  0  0  0
 37 36  2  0  0  0  0
 37 38  1  0  0  0  0
 39 37  1  0  0  0  0
 40 39  1  0  0  0  0
 41 45  1  1  0  0  0
 41 42  1  0  0  0  0
 42 43  1  0  0  0  0
 44 42  2  0  0  0  0
 46 47  1  1  0  0  0
 46 48  1  0  0  0  0
 48 53  1  6  0  0  0
 49 50  1  0  0  0  0
 50 45  1  1  0  0  0
 50 48  1  0  0  0  0
 51 49  1  0  0  0  0
 51 46  1  0  0  0  0
 53 52  1  0  0  0  0
M  END
>  <MODEL>
1

>  <REMARK>
 VINA RESULT:      -5.5      0.000      0.000
  Name = 
  15 active torsions:
  status: ('A' for Active; 'I' for Inactive)
    1  A    between atoms: C_1  and  C_15
    2  A    between atoms: C_1  and  C_37
    3  A    between atoms: N_2  and  C_35
    4  A    between atoms: C_5  and  C_12
    5  A    between atoms: C_5  and  C_32
    6  A    between atoms: C_10  and  C_13
    7  A    between atoms: C_10  and  C_17
    8  A    between atoms: C_10  and  O_52
    9  A    between atoms: C_15  and  C_23
   10  A    between atoms: C_18  and  C_33
   11  A    between atoms: C_26  and  C_28
   12  A    between atoms: C_31  and  C_40
   13  A    between atoms: C_32  and  C_43
   14  A    between atoms: C_42  and  O_52
   15  A    between atoms: C_43  and  N_48
                            x       y       z     vdW  Elec       q    Type
                         _______ _______ _______ _____ _____    ______ ____

>  <TORSDO>
F 15

$$$$
=
 OpenBabel10232409303D

 53 56  0  0  1  0  0  0  0  0999 V2000
  184.8090  176.9780  135.1660 C   0  0  0  0  0  2  0  0  0  0  0  0
  187.0110  178.4790  136.5900 C   0  0  0  0  0  2  0  0  0  0  0  0
  182.6070  178.5570  134.3740 O   0  0  0  0  0  0  0  0  0  0  0  0
  185.7570  176.0640  135.4350 C   0  0  1  0  0  3  0  0  0  0  0  0
  183.5430  177.0670  135.9420 C   0  0  2  0  0  3  0  0  0  0  0  0
  186.0680  177.9550  138.7620 O   0  0  0  0  0  0  0  0  0  0  0  0
  187.1590  176.4330  135.0890 C   0  0  0  0  0  2  0  0  0  0  0  0
  181.7460  177.4150  138.3870 C   0  0  0  0  0  2  0  0  0  0  0  0
  180.4730  178.2670  136.4760 N   0  0  0  0  0  0  0  0  0  0  0  0
  180.7760  178.3720  137.7380 C   0  0  0  0  0  0  0  0  0  0  0  0
  183.1490  177.9340  138.3020 C   0  0  0  0  0  0  0  0  0  0  0  0
  185.2010  178.8490  139.4180 C   0  0  1  0  0  3  0  0  0  0  0  0
  182.4120  177.6480  135.1620 C   0  0  0  0  0  0  0  0  0  0  0  0
  181.0180  177.2680  135.5640 C   0  0  2  0  0  3  0  0  0  0  0  0
  187.8340  177.2440  136.1960 C   0  0  1  0  0  3  0  0  0  0  0  0
  183.8420  177.9420  137.0620 N   0  0  0  0  0  2  0  0  0  0  0  0
  187.0200  178.7400  138.0930 C   0  0  0  0  0  2  0  0  0  0  0  0
  180.1230  177.1470  134.3460 C   0  0  0  0  0  1  0  0  0  0  0  0
  183.7810  178.3360  139.4040 C   0  0  0  0  0  3  0  0  0  0  0  0
  180.2190  179.4780  138.4690 N   0  0  0  0  0  0  0  0  0  0  0  0
  181.9680  181.0310  138.0620 N   0  0  0  0  0  1  0  0  0  0  0  0
  179.9820  181.6370  139.3630 N   0  0  0  0  0  1  0  0  0  0  0  0
  180.6990  180.6800  138.5890 C   0  0  0  0  0  0  0  0  0  0  0  0
  189.7310  178.6400  136.5860 F   0  0  0  0  0  0  0  0  0  0  0  0
  189.1510  178.2380  134.4500 F   0  0  0  0  0  0  0  0  0  0  0  0
  189.2240  177.6880  135.7240 C   0  0  0  0  0  0  0  0  0  0  0  0
  190.0890  176.5910  135.6920 F   0  0  0  0  0  0  0  0  0  0  0  0
  185.6220  179.0070  140.8740 C   0  0  0  0  0  2  0  0  0  0  0  0
  186.3890  177.8040  141.3870 C   0  0  0  0  0  2  0  0  0  0  0  0
  188.5350  177.0480  142.2180 C   0  0  1  0  0  3  0  0  0  0  0  0
  187.7180  178.2330  141.9820 C   0  0  1  0  0  3  0  0  0  0  0  0
  188.8030  177.8970  141.0470 N   0  0  0  0  0  2  0  0  0  0  0  0
  189.5630  177.3440  143.2970 C   0  0  0  0  0  2  0  0  0  0  0  0
  188.9210  178.0980  144.4560 C   0  0  0  0  0  2  0  0  0  0  0  0
  188.1290  177.1610  145.3640 C   0  0  0  0  0  2  0  0  0  0  0  0
  185.7430  179.1950  147.2480 O   0  0  0  0  0  0  0  0  0  0  0  0
  186.2320  178.5550  146.2850 C   0  0  0  0  0  0  0  0  0  0  0  0
  187.4970  177.9160  146.4380 N   0  0  0  0  0  2  0  0  0  0  0  0
  185.4950  178.5100  144.9910 C   0  0  0  0  0  2  0  0  0  0  0  0
  184.0450  178.9220  145.2110 C   0  0  0  0  0  1  0  0  0  0  0  0
  185.5220  174.8100  136.2410 C   0  0  1  0  0  3  0  0  0  0  0  0
  186.7750  174.0420  136.5260 C   0  0  0  0  0  0  0  0  0  0  0  0
  186.9190  173.4680  137.6440 O   0  0  0  0  0  1  0  0  0  0  0  0
  187.8050  174.0090  135.5910 O   0  0  0  0  0  0  0  0  0  0  0  0
  184.8250  175.0970  137.4240 O   0  0  0  0  0  0  0  0  0  0  0  0
  182.1370  173.0920  136.1670 C   0  0  1  0  0  3  0  0  0  0  0  0
  181.8360  173.7550  134.8380 C   0  0  0  0  0  1  0  0  0  0  0  0
  183.6300  173.1770  136.4510 C   0  0  1  0  0  3  0  0  0  0  0  0
  182.4480  174.7370  137.9530 C   0  0  0  0  0  2  0  0  0  0  0  0
  183.8040  174.1390  137.6230 C   0  0  2  0  0  3  0  0  0  0  0  0
  181.4290  173.8260  137.2880 C   0  0  0  0  0  2  0  0  0  0  0  0
  183.2030  170.8470  136.9290 O   0  0  0  0  0  1  0  0  0  0  0  0
  184.2140  171.8040  136.7860 C   0  0  0  0  0  2  0  0  0  0  0  0
  1  4  1  0  0  0  0
  2 17  1  0  0  0  0
  3 13  2  0  0  0  0
  4 41  1  1  0  0  0
  5  1  1  6  0  0  0
  5 16  1  0  0  0  0
  6 12  1  0  0  0  0
  7  4  1  0  0  0  0
  7 15  1  0  0  0  0
  9 10  2  0  0  0  0
 10  8  1  0  0  0  0
 10 20  1  0  0  0  0
 11  8  1  0  0  0  0
 11 19  2  0  0  0  0
 12 28  1  1  0  0  0
 13 14  1  0  0  0  0
 13  5  1  0  0  0  0
 14 18  1  6  0  0  0
 14  9  1  0  0  0  0
 15 26  1  6  0  0  0
 15  2  1  0  0  0  0
 16 11  1  0  0  0  0
 17  6  1  0  0  0  0
 19 12  1  0  0  0  0
 20 23  2  0  0  0  0
 21 23  1  0  0  0  0
 23 22  1  0  0  0  0
 25 26  1  0  0  0  0
 26 24  1  0  0  0  0
 27 26  1  0  0  0  0
 28 29  1  0  0  0  0
 30 33  1  1  0  0  0
 31 29  1  6  0  0  0
 31 30  1  0  0  0  0
 32 31  1  0  0  0  0
 32 30  1  0  0  0  0
 33 34  1  0  0  0  0
 34 35  1  0  0  0  0
 35 38  1  0  0  0  0
 37 38  1  0  0  0  0
 37 36  2  0  0  0  0
 39 40  1  0  0  0  0
 39 37  1  0  0  0  0
 41 42  1  1  0  0  0
 41 45  1  0  0  0  0
 42 43  1  0  0  0  0
 44 42  2  0  0  0  0
 46 47  1  6  0  0  0
 46 48  1  0  0  0  0
 46 51  1  0  0  0  0
 48 53  1  1  0  0  0
 48 50  1  0  0  0  0
 50 45  1  6  0  0  0
 50 49  1  0  0  0  0
 51 49  1  0  0  0  0
 53 52  1  0  0  0  0
M  END
>  <MODEL>
2

>  <REMARK>
 VINA RESULT:      -5.2      1.634      2.504
  Name = 
  15 active torsions:
  status: ('A' for Active; 'I' for Inactive)
    1  A    between atoms: C_1  and  C_15
    2  A    between atoms: C_1  and  C_37
    3  A    between atoms: N_2  and  C_35
    4  A    between atoms: C_5  and  C_12
    5  A    between atoms: C_5  and  C_32
    6  A    between atoms: C_10  and  C_13
    7  A    between atoms: C_10  and  C_17
    8  A    between atoms: C_10  and  O_52
    9  A    between atoms: C_15  and  C_23
   10  A    between atoms: C_18  and  C_33
   11  A    between atoms: C_26  and  C_28
   12  A    between atoms: C_31  and  C_40
   13  A    between atoms: C_32  and  C_43
   14  A    between atoms: C_42  and  O_52
   15  A    between atoms: C_43  and  N_48
                            x       y       z     vdW  Elec       q    Type
                         _______ _______ _______ _____ _____    ______ ____

>  <TORSDO>
F 15

$$$$
=
 OpenBabel10232409303D

 53 56  0  0  1  0  0  0  0  0999 V2000
  183.0800  175.4310  137.9720 C   0  0  0  0  0  2  0  0  0  0  0  0
  184.7180  177.2730  139.7190 C   0  0  0  0  0  2  0  0  0  0  0  0
  184.2400  172.9030  137.4850 O   0  0  0  0  0  0  0  0  0  0  0  0
  182.3540  176.5550  138.0960 C   0  0  1  0  0  3  0  0  0  0  0  0
  183.8310  175.0980  136.7310 C   0  0  2  0  0  3  0  0  0  0  0  0
  185.7550  178.3080  137.7860 O   0  0  0  0  0  0  0  0  0  0  0  0
  182.1940  177.0990  139.4750 C   0  0  0  0  0  2  0  0  0  0  0  0
  185.8660  175.4490  134.4810 C   0  0  0  0  0  2  0  0  0  0  0  0
  185.6300  173.0350  134.8190 N   0  0  0  0  0  0  0  0  0  0  0  0
  186.4060  174.0400  134.5320 C   0  0  0  0  0  0  0  0  0  0  0  0
  185.9790  176.1140  135.8190 C   0  0  0  0  0  0  0  0  0  0  0  0
  187.0000  177.8640  137.2980 C   0  0  1  0  0  3  0  0  0  0  0  0
  184.0260  173.6330  136.5340 C   0  0  0  0  0  0  0  0  0  0  0  0
  184.2080  173.1360  135.1300 C   0  0  2  0  0  3  0  0  0  0  0  0
  183.3690  177.9870  139.8860 C   0  0  1  0  0  3  0  0  0  0  0  0
  185.1300  175.7290  136.8900 N   0  0  0  0  0  2  0  0  0  0  0  0
  185.8110  178.1930  139.1840 C   0  0  0  0  0  2  0  0  0  0  0  0
  183.5500  171.7820  134.9510 C   0  0  0  0  0  1  0  0  0  0  0  0
  186.8360  177.1190  135.9950 C   0  0  0  0  0  3  0  0  0  0  0  0
  187.8060  173.7710  134.3460 N   0  0  0  0  0  0  0  0  0  0  0  0
  188.4570  173.9370  136.6230 N   0  0  0  0  0  1  0  0  0  0  0  0
  190.0680  173.3940  134.8580 N   0  0  0  0  0  1  0  0  0  0  0  0
  188.7280  173.6700  135.2580 C   0  0  0  0  0  0  0  0  0  0  0  0
  184.1800  177.8340  142.1260 F   0  0  0  0  0  0  0  0  0  0  0  0
  181.9560  178.0070  141.8290 F   0  0  0  0  0  0  0  0  0  0  0  0
  183.1960  178.4120  141.3490 C   0  0  0  0  0  0  0  0  0  0  0  0
  183.2860  179.8030  141.4540 F   0  0  0  0  0  0  0  0  0  0  0  0
  187.9120  179.0570  137.0380 C   0  0  0  0  0  2  0  0  0  0  0  0
  188.9620  179.2260  138.1190 C   0  0  0  0  0  2  0  0  0  0  0  0
  190.1790  177.9270  139.7630 C   0  0  1  0  0  3  0  0  0  0  0  0
  188.8770  178.0930  139.1270 C   0  0  1  0  0  3  0  0  0  0  0  0
  189.1010  178.6250  140.4810 N   0  0  0  0  0  2  0  0  0  0  0  0
  190.3060  176.5120  140.3030 C   0  0  0  0  0  2  0  0  0  0  0  0
  191.1780  176.4910  141.5530 C   0  0  0  0  0  2  0  0  0  0  0  0
  190.3970  176.0070  142.7720 C   0  0  0  0  0  2  0  0  0  0  0  0
  191.8760  177.0110  145.9640 O   0  0  0  0  0  0  0  0  0  0  0  0
  191.1110  177.0350  144.9680 C   0  0  0  0  0  0  0  0  0  0  0  0
  191.2450  176.0390  143.9570 N   0  0  0  0  0  2  0  0  0  0  0  0
  190.1060  178.1280  144.8490 C   0  0  0  0  0  2  0  0  0  0  0  0
  188.7600  177.6490  145.3770 C   0  0  0  0  0  1  0  0  0  0  0  0
  181.8850  177.3950  136.9330 C   0  0  1  0  0  3  0  0  0  0  0  0
  181.4440  176.5860  135.7530 C   0  0  0  0  0  0  0  0  0  0  0  0
  181.8780  176.8690  134.6000 O   0  0  0  0  0  0  0  0  0  0  0  0
  180.5120  175.5660  135.9130 O   0  0  0  0  0  1  0  0  0  0  0  0
  180.8850  178.2930  137.3330 O   0  0  0  0  0  0  0  0  0  0  0  0
  181.0470  181.7520  138.2470 C   0  0  1  0  0  3  0  0  0  0  0  0
  179.9830  181.8500  139.3220 C   0  0  0  0  0  1  0  0  0  0  0  0
  181.7190  180.3890  138.3200 C   0  0  1  0  0  3  0  0  0  0  0  0
  180.2740  180.4520  136.3220 C   0  0  0  0  0  2  0  0  0  0  0  0
  181.2990  179.6190  137.0710 C   0  0  2  0  0  3  0  0  0  0  0  0
  180.4110  181.8610  136.8740 C   0  0  0  0  0  2  0  0  0  0  0  0
  183.6260  181.8580  138.5260 O   0  0  0  0  0  1  0  0  0  0  0  0
  183.2400  180.5200  138.3880 C   0  0  0  0  0  2  0  0  0  0  0  0
  1  4  1  0  0  0  0
  2 15  1  0  0  0  0
  4 41  1  6  0  0  0
  4  7  1  0  0  0  0
  5 16  1  0  0  0  0
  5  1  1  1  0  0  0
  6 17  1  0  0  0  0
  7 15  1  0  0  0  0
  8 10  1  0  0  0  0
  8 11  1  0  0  0  0
  9 14  1  0  0  0  0
 10  9  2  0  0  0  0
 11 19  2  0  0  0  0
 11 16  1  0  0  0  0
 12 28  1  6  0  0  0
 12  6  1  0  0  0  0
 13  5  1  0  0  0  0
 13  3  2  0  0  0  0
 14 18  1  1  0  0  0
 14 13  1  0  0  0  0
 15 26  1  1  0  0  0
 17  2  1  0  0  0  0
 19 12  1  0  0  0  0
 20 10  1  0  0  0  0
 20 23  2  0  0  0  0
 22 23  1  0  0  0  0
 23 21  1  0  0  0  0
 26 27  1  0  0  0  0
 26 25  1  0  0  0  0
 26 24  1  0  0  0  0
 28 29  1  0  0  0  0
 30 33  1  1  0  0  0
 30 32  1  0  0  0  0
 31 29  1  6  0  0  0
 31 30  1  0  0  0  0
 31 32  1  0  0  0  0
 33 34  1  0  0  0  0
 34 35  1  0  0  0  0
 35 38  1  0  0  0  0
 37 36  2  0  0  0  0
 38 37  1  0  0  0  0
 39 37  1  0  0  0  0
 39 40  1  0  0  0  0
 41 42  1  6  0  0  0
 41 45  1  0  0  0  0
 42 44  1  0  0  0  0
 43 42  2  0  0  0  0
 46 48  1  0  0  0  0
 46 47  1  1  0  0  0
 48 53  1  6  0  0  0
 49 51  1  0  0  0  0
 49 50  1  0  0  0  0
 50 45  1  1  0  0  0
 50 48  1  0  0  0  0
 51 46  1  0  0  0  0
 53 52  1  0  0  0  0
M  END
>  <MODEL>
3

>  <REMARK>
 VINA RESULT:      -4.9      3.383      6.811
  Name = 
  15 active torsions:
  status: ('A' for Active; 'I' for Inactive)
    1  A    between atoms: C_1  and  C_15
    2  A    between atoms: C_1  and  C_37
    3  A    between atoms: N_2  and  C_35
    4  A    between atoms: C_5  and  C_12
    5  A    between atoms: C_5  and  C_32
    6  A    between atoms: C_10  and  C_13
    7  A    between atoms: C_10  and  C_17
    8  A    between atoms: C_10  and  O_52
    9  A    between atoms: C_15  and  C_23
   10  A    between atoms: C_18  and  C_33
   11  A    between atoms: C_26  and  C_28
   12  A    between atoms: C_31  and  C_40
   13  A    between atoms: C_32  and  C_43
   14  A    between atoms: C_42  and  O_52
   15  A    between atoms: C_43  and  N_48
                            x       y       z     vdW  Elec       q    Type
                         _______ _______ _______ _____ _____    ______ ____

>  <TORSDO>
F 15

$$$$
=
 OpenBabel10232409303D

 53 56  0  0  1  0  0  0  0  0999 V2000
  184.6910  177.1060  135.0000 C   0  0  0  0  0  2  0  0  0  0  0  0
  187.0530  178.3400  136.4240 C   0  0  0  0  0  2  0  0  0  0  0  0
  182.5390  178.8670  134.5130 O   0  0  0  0  0  0  0  0  0  0  0  0
  185.6000  176.1230  135.1150 C   0  0  1  0  0  3  0  0  0  0  0  0
  183.4790  177.1780  135.8600 C   0  0  2  0  0  3  0  0  0  0  0  0
  186.2110  177.6410  138.5880 O   0  0  0  0  0  0  0  0  0  0  0  0
  186.9980  176.4550  134.7190 C   0  0  0  0  0  2  0  0  0  0  0  0
  181.8510  177.3600  138.4380 C   0  0  0  0  0  2  0  0  0  0  0  0
  180.5180  178.4680  136.7080 N   0  0  0  0  0  0  0  0  0  0  0  0
  180.9000  178.4270  137.9520 C   0  0  0  0  0  0  0  0  0  0  0  0
  183.2740  177.8140  138.3160 C   0  0  0  0  0  0  0  0  0  0  0  0
  185.4350  178.5040  139.3850 C   0  0  1  0  0  3  0  0  0  0  0  0
  182.3400  177.8930  135.2170 C   0  0  0  0  0  0  0  0  0  0  0  0
  180.9520  177.5430  135.6670 C   0  0  2  0  0  3  0  0  0  0  0  0
  187.7810  177.1120  135.8560 C   0  0  1  0  0  3  0  0  0  0  0  0
  183.8920  177.9160  137.0410 N   0  0  0  0  0  2  0  0  0  0  0  0
  187.1650  178.4430  137.9420 C   0  0  0  0  0  2  0  0  0  0  0  0
  179.9820  177.5940  134.5030 C   0  0  0  0  0  1  0  0  0  0  0  0
  183.9900  178.0670  139.4100 C   0  0  0  0  0  3  0  0  0  0  0  0
  180.4500  179.4770  138.8240 N   0  0  0  0  0  0  0  0  0  0  0  0
  180.8920  178.3810  140.8830 N   0  0  0  0  0  1  0  0  0  0  0  0
  179.9820  180.6540  140.8020 N   0  0  0  0  0  1  0  0  0  0  0  0
  180.4800  179.5050  140.1240 C   0  0  0  0  0  0  0  0  0  0  0  0
  189.7380  176.4960  134.6360 F   0  0  0  0  0  0  0  0  0  0  0  0
  189.9970  177.8590  136.4070 F   0  0  0  0  0  0  0  0  0  0  0  0
  189.1640  177.5330  135.3440 C   0  0  0  0  0  0  0  0  0  0  0  0
  189.0430  178.6470  134.5090 F   0  0  0  0  0  0  0  0  0  0  0  0
  185.9490  178.4900  140.8200 C   0  0  0  0  0  2  0  0  0  0  0  0
  185.0320  179.2390  141.7670 C   0  0  0  0  0  2  0  0  0  0  0  0
  185.1620  179.0890  144.1820 C   0  0  1  0  0  3  0  0  0  0  0  0
  184.7120  178.3890  142.9840 C   0  0  1  0  0  3  0  0  0  0  0  0
  183.7340  179.0930  143.8280 N   0  0  0  0  0  2  0  0  0  0  0  0
  185.3970  178.0850  145.2990 C   0  0  0  0  0  2  0  0  0  0  0  0
  186.4540  178.6010  146.2690 C   0  0  0  0  0  2  0  0  0  0  0  0
  187.6700  177.6790  146.3140 C   0  0  0  0  0  2  0  0  0  0  0  0
  189.4030  177.0430  143.1560 O   0  0  0  0  0  0  0  0  0  0  0  0
  189.2000  177.4950  144.3100 C   0  0  0  0  0  0  0  0  0  0  0  0
  187.9780  177.1860  144.9770 N   0  0  0  0  0  2  0  0  0  0  0  0
  190.2250  178.3730  144.9400 C   0  0  0  0  0  2  0  0  0  0  0  0
  191.2440  178.8050  143.8940 C   0  0  0  0  0  1  0  0  0  0  0  0
  185.3420  174.8050  135.8050 C   0  0  1  0  0  3  0  0  0  0  0  0
  183.8880  174.4830  135.9480 C   0  0  0  0  0  0  0  0  0  0  0  0
  183.3780  174.3790  137.1000 O   0  0  0  0  0  1  0  0  0  0  0  0
  183.1110  174.2360  134.8200 O   0  0  0  0  0  0  0  0  0  0  0  0
  186.0320  173.7620  135.1690 O   0  0  0  0  0  0  0  0  0  0  0  0
  188.6300  171.4160  135.9250 C   0  0  1  0  0  3  0  0  0  0  0  0
  188.7460  170.6370  134.6300 C   0  0  0  0  0  1  0  0  0  0  0  0
  188.2800  172.8650  135.6170 C   0  0  1  0  0  3  0  0  0  0  0  0
  186.2940  171.7580  136.5730 C   0  0  0  0  0  2  0  0  0  0  0  0
  186.8520  173.0900  136.1050 C   0  0  2  0  0  3  0  0  0  0  0  0
  187.5020  170.8570  136.7710 C   0  0  0  0  0  2  0  0  0  0  0  0
  190.4530  173.1990  136.6210 O   0  0  0  0  0  1  0  0  0  0  0  0
  189.2450  173.8310  136.3050 C   0  0  0  0  0  2  0  0  0  0  0  0
  1  4  1  0  0  0  0
  2 17  1  0  0  0  0
  3 13  2  0  0  0  0
  4 41  1  1  0  0  0
  5  1  1  6  0  0  0
  5 16  1  0  0  0  0
  6 12  1  0  0  0  0
  7  4  1  0  0  0  0
  7 15  1  0  0  0  0
  9 10  2  0  0  0  0
 10  8  1  0  0  0  0
 10 20  1  0  0  0  0
 11  8  1  0  0  0  0
 11 19  2  0  0  0  0
 12 19  1  0  0  0  0
 12 28  1  1  0  0  0
 13 14  1  0  0  0  0
 13  5  1  0  0  0  0
 14 18  1  6  0  0  0
 14  9  1  0  0  0  0
 15 26  1  6  0  0  0
 15  2  1  0  0  0  0
 16 11  1  0  0  0  0
 17  6  1  0  0  0  0
 20 23  2  0  0  0  0
 23 22  1  0  0  0  0
 23 21  1  0  0  0  0
 24 26  1  0  0  0  0
 26 25  1  0  0  0  0
 27 26  1  0  0  0  0
 28 29  1  0  0  0  0
 30 33  1  1  0  0  0
 31 29  1  6  0  0  0
 31 32  1  0  0  0  0
 31 30  1  0  0  0  0
 32 30  1  0  0  0  0
 33 34  1  0  0  0  0
 34 35  1  0  0  0  0
 36 37  2  0  0  0  0
 37 39  1  0  0  0  0
 37 38  1  0  0  0  0
 38 35  1  0  0  0  0
 40 39  1  0  0  0  0
 41 45  1  6  0  0  0
 41 42  1  0  0  0  0
 42 43  1  0  0  0  0
 44 42  2  0  0  0  0
 46 47  1  6  0  0  0
 46 51  1  0  0  0  0
 48 46  1  0  0  0  0
 48 50  1  0  0  0  0
 48 53  1  1  0  0  0
 49 51  1  0  0  0  0
 50 45  1  6  0  0  0
 50 49  1  0  0  0  0
 53 52  1  0  0  0  0
M  END
>  <MODEL>
4

>  <REMARK>
 VINA RESULT:      -4.8      1.526      2.787
  Name = 
  15 active torsions:
  status: ('A' for Active; 'I' for Inactive)
    1  A    between atoms: C_1  and  C_15
    2  A    between atoms: C_1  and  C_37
    3  A    between atoms: N_2  and  C_35
    4  A    between atoms: C_5  and  C_12
    5  A    between atoms: C_5  and  C_32
    6  A    between atoms: C_10  and  C_13
    7  A    between atoms: C_10  and  C_17
    8  A    between atoms: C_10  and  O_52
    9  A    between atoms: C_15  and  C_23
   10  A    between atoms: C_18  and  C_33
   11  A    between atoms: C_26  and  C_28
   12  A    between atoms: C_31  and  C_40
   13  A    between atoms: C_32  and  C_43
   14  A    between atoms: C_42  and  O_52
   15  A    between atoms: C_43  and  N_48
                            x       y       z     vdW  Elec       q    Type
                         _______ _______ _______ _____ _____    ______ ____

>  <TORSDO>
F 15

$$$$
=
 OpenBabel10232409303D

 53 56  0  0  1  0  0  0  0  0999 V2000
  189.9080  176.3950  135.0890 C   0  0  0  0  0  2  0  0  0  0  0  0
  192.2930  176.9460  136.8590 C   0  0  0  0  0  2  0  0  0  0  0  0
  188.1470  178.5760  134.7460 O   0  0  0  0  0  0  0  0  0  0  0  0
  190.6190  175.2550  135.1050 C   0  0  1  0  0  3  0  0  0  0  0  0
  188.6460  176.5610  135.8610 C   0  0  2  0  0  3  0  0  0  0  0  0
  191.1330  176.1010  138.8140 O   0  0  0  0  0  0  0  0  0  0  0  0
  192.0850  175.3780  134.8690 C   0  0  0  0  0  2  0  0  0  0  0  0
  186.8260  176.6550  138.3120 C   0  0  0  0  0  2  0  0  0  0  0  0
  185.8810  178.2350  136.6970 N   0  0  0  0  0  0  0  0  0  0  0  0
  186.1250  177.9400  137.9410 C   0  0  0  0  0  0  0  0  0  0  0  0
  188.3110  176.8520  138.3670 C   0  0  0  0  0  0  0  0  0  0  0  0
  190.4420  176.9650  139.6850 C   0  0  1  0  0  3  0  0  0  0  0  0
  187.7160  177.5610  135.2640 C   0  0  0  0  0  0  0  0  0  0  0  0
  186.2510  177.4110  135.5520 C   0  0  2  0  0  3  0  0  0  0  0  0
  192.8530  175.7030  136.1510 C   0  0  1  0  0  3  0  0  0  0  0  0
  189.0610  177.0260  137.1740 N   0  0  0  0  0  2  0  0  0  0  0  0
  192.2690  176.8000  138.3780 C   0  0  0  0  0  2  0  0  0  0  0  0
  185.4240  177.8130  134.3460 C   0  0  0  0  0  1  0  0  0  0  0  0
  188.9480  176.8030  139.5360 C   0  0  0  0  0  3  0  0  0  0  0  0
  185.7770  178.9140  138.9400 N   0  0  0  0  0  0  0  0  0  0  0  0
  184.0670  177.6620  140.0110 N   0  0  0  0  0  1  0  0  0  0  0  0
  184.7140  179.8930  140.7910 N   0  0  0  0  0  1  0  0  0  0  0  0
  184.9060  178.8000  139.8990 C   0  0  0  0  0  0  0  0  0  0  0  0
  194.6020  177.2850  135.7860 F   0  0  0  0  0  0  0  0  0  0  0  0
  194.6340  175.3930  134.5690 F   0  0  0  0  0  0  0  0  0  0  0  0
  194.3310  175.9320  135.8140 C   0  0  0  0  0  0  0  0  0  0  0  0
  195.1390  175.3220  136.7770 F   0  0  0  0  0  0  0  0  0  0  0  0
  190.8000  176.6430  141.1310 C   0  0  0  0  0  2  0  0  0  0  0  0
  191.9940  177.4400  141.6200 C   0  0  0  0  0  2  0  0  0  0  0  0
  190.5100  177.3610  143.5340 C   0  0  1  0  0  3  0  0  0  0  0  0
  191.8060  177.8450  143.0710 C   0  0  1  0  0  3  0  0  0  0  0  0
  191.7340  176.6370  143.9100 N   0  0  0  0  0  2  0  0  0  0  0  0
  190.0440  178.2010  144.7110 C   0  0  0  0  0  2  0  0  0  0  0  0
  189.7870  177.3220  145.9290 C   0  0  0  0  0  2  0  0  0  0  0  0
  188.3120  177.3310  146.3250 C   0  0  0  0  0  2  0  0  0  0  0  0
  185.4320  178.0830  144.2000 O   0  0  0  0  0  0  0  0  0  0  0  0
  186.0980  177.9050  145.2490 C   0  0  0  0  0  0  0  0  0  0  0  0
  187.4780  177.5580  145.1530 N   0  0  0  0  0  2  0  0  0  0  0  0
  185.4220  178.0240  146.5720 C   0  0  0  0  0  2  0  0  0  0  0  0
  186.0850  179.1210  147.3920 C   0  0  0  0  0  1  0  0  0  0  0  0
  190.0720  173.9200  135.5500 C   0  0  1  0  0  3  0  0  0  0  0  0
  191.1150  173.0090  136.1180 C   0  0  0  0  0  0  0  0  0  0  0  0
  191.5840  173.2330  137.2700 O   0  0  0  0  0  1  0  0  0  0  0  0
  191.6120  171.9550  135.3590 O   0  0  0  0  0  0  0  0  0  0  0  0
  189.0050  174.0870  136.4450 O   0  0  0  0  0  0  0  0  0  0  0  0
  186.5650  171.5270  135.8840 C   0  0  1  0  0  3  0  0  0  0  0  0
  187.2930  170.2810  136.3480 C   0  0  0  0  0  1  0  0  0  0  0  0
  186.9850  172.7120  136.7420 C   0  0  1  0  0  3  0  0  0  0  0  0
  187.9970  172.9560  134.5050 C   0  0  0  0  0  2  0  0  0  0  0  0
  187.8050  173.6380  135.8480 C   0  0  2  0  0  3  0  0  0  0  0  0
  186.9510  171.8540  134.4540 C   0  0  0  0  0  2  0  0  0  0  0  0
  184.7770  172.5440  137.7100 O   0  0  0  0  0  1  0  0  0  0  0  0
  185.7720  173.4450  137.3130 C   0  0  0  0  0  2  0  0  0  0  0  0
  1  4  1  0  0  0  0
  2 17  1  0  0  0  0
  3 13  2  0  0  0  0
  4 41  1  1  0  0  0
  5  1  1  6  0  0  0
  5 16  1  0  0  0  0
  6 12  1  0  0  0  0
  7  4  1  0  0  0  0
  7 15  1  0  0  0  0
  8 11  1  0  0  0  0
  9 10  2  0  0  0  0
 10  8  1  0  0  0  0
 10 20  1  0  0  0  0
 11 19  2  0  0  0  0
 12 28  1  1  0  0  0
 13 14  1  0  0  0  0
 13  5  1  0  0  0  0
 14 18  1  6  0  0  0
 14  9  1  0  0  0  0
 15 26  1  6  0  0  0
 15  2  1  0  0  0  0
 16 11  1  0  0  0  0
 17  6  1  0  0  0  0
 19 12  1  0  0  0  0
 20 23  2  0  0  0  0
 23 21  1  0  0  0  0
 23 22  1  0  0  0  0
 24 26  1  0  0  0  0
 25 26  1  0  0  0  0
 26 27  1  0  0  0  0
 28 29  1  0  0  0  0
 30 32  1  0  0  0  0
 30 33  1  1  0  0  0
 31 29  1  6  0  0  0
 31 30  1  0  0  0  0
 31 32  1  0  0  0  0
 33 34  1  0  0  0  0
 34 35  1  0  0  0  0
 36 37  2  0  0  0  0
 37 39  1  0  0  0  0
 38 37  1  0  0  0  0
 38 35  1  0  0  0  0
 39 40  1  0  0  0  0
 41 42  1  1  0  0  0
 41 45  1  0  0  0  0
 42 43  1  0  0  0  0
 44 42  2  0  0  0  0
 46 47  1  1  0  0  0
 46 48  1  0  0  0  0
 48 53  1  6  0  0  0
 49 50  1  0  0  0  0
 50 45  1  1  0  0  0
 50 48  1  0  0  0  0
 51 49  1  0  0  0  0
 51 46  1  0  0  0  0
 53 52  1  0  0  0  0
M  END
>  <MODEL>
5

>  <REMARK>
 VINA RESULT:      -4.5      3.286      5.121
  Name = 
  15 active torsions:
  status: ('A' for Active; 'I' for Inactive)
    1  A    between atoms: C_1  and  C_15
    2  A    between atoms: C_1  and  C_37
    3  A    between atoms: N_2  and  C_35
    4  A    between atoms: C_5  and  C_12
    5  A    between atoms: C_5  and  C_32
    6  A    between atoms: C_10  and  C_13
    7  A    between atoms: C_10  and  C_17
    8  A    between atoms: C_10  and  O_52
    9  A    between atoms: C_15  and  C_23
   10  A    between atoms: C_18  and  C_33
   11  A    between atoms: C_26  and  C_28
   12  A    between atoms: C_31  and  C_40
   13  A    between atoms: C_32  and  C_43
   14  A    between atoms: C_42  and  O_52
   15  A    between atoms: C_43  and  N_48
                            x       y       z     vdW  Elec       q    Type
                         _______ _______ _______ _____ _____    ______ ____

>  <TORSDO>
F 15

$$$$
=
 OpenBabel10232409303D

 53 56  0  0  1  0  0  0  0  0999 V2000
  184.7100  177.9440  136.7950 C   0  0  0  0  0  2  0  0  0  0  0  0
  187.1600  178.9380  138.2570 C   0  0  0  0  0  2  0  0  0  0  0  0
  182.5460  179.7560  136.7220 O   0  0  0  0  0  0  0  0  0  0  0  0
  185.6160  176.9560  136.6990 C   0  0  1  0  0  3  0  0  0  0  0  0
  183.5500  177.8760  137.7260 C   0  0  2  0  0  3  0  0  0  0  0  0
  186.4390  177.9020  140.3280 O   0  0  0  0  0  0  0  0  0  0  0  0
  186.9910  177.3490  136.2800 C   0  0  0  0  0  2  0  0  0  0  0  0
  182.0760  177.6420  140.3900 C   0  0  0  0  0  2  0  0  0  0  0  0
  180.6540  179.0090  138.9390 N   0  0  0  0  0  0  0  0  0  0  0  0
  181.1060  178.7710  140.1370 C   0  0  0  0  0  0  0  0  0  0  0  0
  183.4920  178.1120  140.2590 C   0  0  0  0  0  0  0  0  0  0  0  0
  185.7180  178.6260  141.2960 C   0  0  1  0  0  3  0  0  0  0  0  0
  182.3810  178.6820  137.2720 C   0  0  0  0  0  0  0  0  0  0  0  0
  181.0190  178.2630  137.7410 C   0  0  2  0  0  3  0  0  0  0  0  0
  187.8440  177.8180  137.4590 C   0  0  1  0  0  3  0  0  0  0  0  0
  184.0370  178.4160  138.9830 N   0  0  0  0  0  2  0  0  0  0  0  0
  187.3600  178.7980  139.7630 C   0  0  0  0  0  2  0  0  0  0  0  0
  179.9830  178.4980  136.6590 C   0  0  0  0  0  1  0  0  0  0  0  0
  184.2730  178.1880  141.3360 C   0  0  0  0  0  3  0  0  0  0  0  0
  180.7160  179.6680  141.1900 N   0  0  0  0  0  0  0  0  0  0  0  0
  180.5450  178.0550  142.9230 N   0  0  0  0  0  1  0  0  0  0  0  0
  180.1270  180.4350  143.3310 N   0  0  0  0  0  1  0  0  0  0  0  0
  180.5090  179.3880  142.4430 C   0  0  0  0  0  0  0  0  0  0  0  0
  189.2420  179.6950  136.9910 F   0  0  0  0  0  0  0  0  0  0  0  0
  189.3920  177.9140  135.6250 F   0  0  0  0  0  0  0  0  0  0  0  0
  189.1980  178.3170  136.9410 C   0  0  0  0  0  0  0  0  0  0  0  0
  190.2300  177.7960  137.7270 F   0  0  0  0  0  0  0  0  0  0  0  0
  186.3130  178.3840  142.6780 C   0  0  0  0  0  2  0  0  0  0  0  0
  185.5470  177.3350  143.4600 C   0  0  0  0  0  2  0  0  0  0  0  0
  186.3510  178.6580  145.3240 C   0  0  1  0  0  3  0  0  0  0  0  0
  185.2410  177.8330  144.8610 C   0  0  1  0  0  3  0  0  0  0  0  0
  185.1180  179.2990  144.8430 N   0  0  0  0  0  2  0  0  0  0  0  0
  186.3690  178.6820  146.8430 C   0  0  0  0  0  2  0  0  0  0  0  0
  187.7730  178.4010  147.3680 C   0  0  0  0  0  2  0  0  0  0  0  0
  188.3320  177.0990  146.8000 C   0  0  0  0  0  2  0  0  0  0  0  0
  191.6500  177.3880  145.2860 O   0  0  0  0  0  0  0  0  0  0  0  0
  190.7740  177.1160  146.1430 C   0  0  0  0  0  0  0  0  0  0  0  0
  189.4030  177.3830  145.8530 N   0  0  0  0  0  2  0  0  0  0  0  0
  191.1900  176.5550  147.4590 C   0  0  0  0  0  2  0  0  0  0  0  0
  192.1940  175.4310  147.2440 C   0  0  0  0  0  1  0  0  0  0  0  0
  185.3880  175.5450  137.1840 C   0  0  1  0  0  3  0  0  0  0  0  0
  183.9420  175.2010  137.3570 C   0  0  0  0  0  0  0  0  0  0  0  0
  183.1940  175.1040  136.3430 O   0  0  0  0  0  0  0  0  0  0  0  0
  183.4060  175.0480  138.6320 O   0  0  0  0  0  1  0  0  0  0  0  0
  186.0330  174.6170  136.3530 O   0  0  0  0  0  0  0  0  0  0  0  0
  188.8580  172.4240  136.5240 C   0  0  1  0  0  3  0  0  0  0  0  0
  188.9420  171.8960  135.1060 C   0  0  0  0  0  1  0  0  0  0  0  0
  188.3730  173.8660  136.5020 C   0  0  1  0  0  3  0  0  0  0  0  0
  186.5560  172.4320  137.3560 C   0  0  0  0  0  2  0  0  0  0  0  0
  186.9700  173.8710  137.1030 C   0  0  2  0  0  3  0  0  0  0  0  0
  187.8430  171.6250  137.3190 C   0  0  0  0  0  2  0  0  0  0  0  0
  190.6190  174.6960  136.8250 O   0  0  0  0  0  1  0  0  0  0  0  0
  189.3040  174.7810  137.2960 C   0  0  0  0  0  2  0  0  0  0  0  0
  2 17  1  0  0  0  0
  3 13  2  0  0  0  0
  4  1  1  0  0  0  0
  4 41  1  1  0  0  0
  5  1  1  6  0  0  0
  5 16  1  0  0  0  0
  6 12  1  0  0  0  0
  7  4  1  0  0  0  0
  7 15  1  0  0  0  0
  9 10  2  0  0  0  0
 10  8  1  0  0  0  0
 10 20  1  0  0  0  0
 11  8  1  0  0  0  0
 11 19  2  0  0  0  0
 12 19  1  0  0  0  0
 12 28  1  1  0  0  0
 13  5  1  0  0  0  0
 13 14  1  0  0  0  0
 14 18  1  6  0  0  0
 14  9  1  0  0  0  0
 15 26  1  6  0  0  0
 15  2  1  0  0  0  0
 16 11  1  0  0  0  0
 17  6  1  0  0  0  0
 20 23  2  0  0  0  0
 23 21  1  0  0  0  0
 23 22  1  0  0  0  0
 25 26  1  0  0  0  0
 26 24  1  0  0  0  0
 26 27  1  0  0  0  0
 28 29  1  0  0  0  0
 30 33  1  1  0  0  0
 31 29  1  6  0  0  0
 31 30  1  0  0  0  0
 32 31  1  0  0  0  0
 32 30  1  0  0  0  0
 33 34  1  0  0  0  0
 35 34  1  0  0  0  0
 36 37  2  0  0  0  0
 37 39  1  0  0  0  0
 38 37  1  0  0  0  0
 38 35  1  0  0  0  0
 40 39  1  0  0  0  0
 41 45  1  6  0  0  0
 41 42  1  0  0  0  0
 42 44  1  0  0  0  0
 43 42  2  0  0  0  0
 46 47  1  6  0  0  0
 46 51  1  0  0  0  0
 48 46  1  0  0  0  0
 48 50  1  0  0  0  0
 48 53  1  1  0  0  0
 50 45  1  6  0  0  0
 50 49  1  0  0  0  0
 51 49  1  0  0  0  0
 52 53  1  0  0  0  0
M  END
>  <MODEL>
6

>  <REMARK>
 VINA RESULT:      -4.3      2.122      3.547
  Name = 
  15 active torsions:
  status: ('A' for Active; 'I' for Inactive)
    1  A    between atoms: C_1  and  C_15
    2  A    between atoms: C_1  and  C_37
    3  A    between atoms: N_2  and  C_35
    4  A    between atoms: C_5  and  C_12
    5  A    between atoms: C_5  and  C_32
    6  A    between atoms: C_10  and  C_13
    7  A    between atoms: C_10  and  C_17
    8  A    between atoms: C_10  and  O_52
    9  A    between atoms: C_15  and  C_23
   10  A    between atoms: C_18  and  C_33
   11  A    between atoms: C_26  and  C_28
   12  A    between atoms: C_31  and  C_40
   13  A    between atoms: C_32  and  C_43
   14  A    between atoms: C_42  and  O_52
   15  A    between atoms: C_43  and  N_48
                            x       y       z     vdW  Elec       q    Type
                         _______ _______ _______ _____ _____    ______ ____

>  <TORSDO>
F 15

$$$$
=
 OpenBabel10232409303D

 53 56  0  0  1  0  0  0  0  0999 V2000
  190.2020  174.6480  137.4320 C   0  0  0  0  0  2  0  0  0  0  0  0
  187.6410  173.2390  136.6670 C   0  0  0  0  0  2  0  0  0  0  0  0
  190.4250  175.3180  140.1650 O   0  0  0  0  0  0  0  0  0  0  0  0
  190.3020  174.4020  136.1150 C   0  0  1  0  0  3  0  0  0  0  0  0
  189.9010  176.0010  137.9720 C   0  0  2  0  0  3  0  0  0  0  0  0
  186.5770  175.3340  136.0680 O   0  0  0  0  0  0  0  0  0  0  0  0
  189.9670  173.0210  135.6640 C   0  0  0  0  0  2  0  0  0  0  0  0
  188.3310  178.5850  138.4070 C   0  0  0  0  0  2  0  0  0  0  0  0
  189.5870  178.1930  140.4720 N   0  0  0  0  0  0  0  0  0  0  0  0
  188.4960  178.6220  139.9070 C   0  0  0  0  0  0  0  0  0  0  0  0
  187.7090  177.2940  137.9680 C   0  0  0  0  0  0  0  0  0  0  0  0
  185.7730  176.0360  136.9860 C   0  0  1  0  0  3  0  0  0  0  0  0
  190.4340  176.2210  139.3470 C   0  0  0  0  0  0  0  0  0  0  0  0
  190.7320  177.6310  139.7640 C   0  0  2  0  0  3  0  0  0  0  0  0
  188.4660  172.8350  135.4360 C   0  0  1  0  0  3  0  0  0  0  0  0
  188.4510  176.0840  138.0100 N   0  0  0  0  0  2  0  0  0  0  0  0
  186.3520  173.9690  136.3020 C   0  0  0  0  0  2  0  0  0  0  0  0
  191.9570  177.6780  140.6570 C   0  0  0  0  0  1  0  0  0  0  0  0
  186.4710  177.2820  137.4750 C   0  0  0  0  0  3  0  0  0  0  0  0
  187.4260  179.0560  140.7640 N   0  0  0  0  0  0  0  0  0  0  0  0
  187.5640  177.2930  142.3480 N   0  0  0  0  0  1  0  0  0  0  0  0
  185.9370  179.1100  142.5790 N   0  0  0  0  0  1  0  0  0  0  0  0
  187.0240  178.5160  141.8760 C   0  0  0  0  0  0  0  0  0  0  0  0
  188.0460  170.6320  136.2520 F   0  0  0  0  0  0  0  0  0  0  0  0
  189.2270  170.8340  134.3480 F   0  0  0  0  0  0  0  0  0  0  0  0
  188.1830  171.3680  135.0920 C   0  0  0  0  0  0  0  0  0  0  0  0
  187.0050  171.2730  134.3460 F   0  0  0  0  0  0  0  0  0  0  0  0
  184.4730  176.4650  136.3180 C   0  0  0  0  0  2  0  0  0  0  0  0
  183.4950  175.3150  136.1690 C   0  0  0  0  0  2  0  0  0  0  0  0
  181.6120  175.0410  137.6680 C   0  0  1  0  0  3  0  0  0  0  0  0
  183.0470  174.8160  137.5310 C   0  0  1  0  0  3  0  0  0  0  0  0
  182.1120  173.6930  137.3570 N   0  0  0  0  0  2  0  0  0  0  0  0
  181.2460  175.1100  139.1420 C   0  0  0  0  0  2  0  0  0  0  0  0
  180.4090  176.3510  139.4290 C   0  0  0  0  0  2  0  0  0  0  0  0
  181.1440  177.3230  140.3480 C   0  0  0  0  0  2  0  0  0  0  0  0
  182.9760  179.4760  138.0260 O   0  0  0  0  0  0  0  0  0  0  0  0
  181.9980  178.9540  138.6150 C   0  0  0  0  0  0  0  0  0  0  0  0
  182.2290  177.9750  139.6260 N   0  0  0  0  0  2  0  0  0  0  0  0
  180.6150  179.3420  138.2170 C   0  0  0  0  0  2  0  0  0  0  0  0
  180.6740  180.4050  137.1290 C   0  0  0  0  0  1  0  0  0  0  0  0
  190.5170  175.4680  135.0670 C   0  0  1  0  0  3  0  0  0  0  0  0
  189.3070  176.3140  134.8210 C   0  0  0  0  0  0  0  0  0  0  0  0
  188.2600  175.7890  134.3470 O   0  0  0  0  0  0  0  0  0  0  0  0
  189.3530  177.6850  135.0530 O   0  0  0  0  0  1  0  0  0  0  0  0
  191.6330  176.2590  135.3770 O   0  0  0  0  0  0  0  0  0  0  0  0
  195.1680  175.8210  135.7460 C   0  0  1  0  0  3  0  0  0  0  0  0
  195.7140  177.1050  135.1540 C   0  0  0  0  0  1  0  0  0  0  0  0
  193.8460  176.1050  136.4440 C   0  0  1  0  0  3  0  0  0  0  0  0
  193.3900  174.8670  134.3600 C   0  0  0  0  0  2  0  0  0  0  0  0
  192.7540  175.4320  135.6180 C   0  0  2  0  0  3  0  0  0  0  0  0
  194.8820  174.8200  134.6430 C   0  0  0  0  0  2  0  0  0  0  0  0
  195.0770  174.9900  138.1990 O   0  0  0  0  0  1  0  0  0  0  0  0
  193.8470  175.5730  137.8770 C   0  0  0  0  0  2  0  0  0  0  0  0
  4 41  1  6  0  0  0
  4  1  1  0  0  0  0
  5  1  1  1  0  0  0
  5 16  1  0  0  0  0
  5 13  1  0  0  0  0
  6 17  1  0  0  0  0
  6 12  1  0  0  0  0
  7  4  1  0  0  0  0
  8 10  1  0  0  0  0
 10  9  2  0  0  0  0
 10 20  1  0  0  0  0
 11 16  1  0  0  0  0
 11  8  1  0  0  0  0
 12 28  1  6  0  0  0
 12 19  1  0  0  0  0
 13 14  1  0  0  0  0
 13  3  2  0  0  0  0
 14  9  1  0  0  0  0
 14 18  1  1  0  0  0
 15 26  1  1  0  0  0
 15  7  1  0  0  0  0
 15  2  1  0  0  0  0
 17  2  1  0  0  0  0
 19 11  2  0  0  0  0
 20 23  2  0  0  0  0
 23 21  1  0  0  0  0
 23 22  1  0  0  0  0
 25 26  1  0  0  0  0
 26 24  1  0  0  0  0
 27 26  1  0  0  0  0
 29 28  1  0  0  0  0
 30 33  1  1  0  0  0
 31 29  1  6  0  0  0
 31 30  1  0  0  0  0
 32 31  1  0  0  0  0
 32 30  1  0  0  0  0
 33 34  1  0  0  0  0
 34 35  1  0  0  0  0
 36 37  2  0  0  0  0
 37 38  1  0  0  0  0
 38 35  1  0  0  0  0
 39 37  1  0  0  0  0
 40 39  1  0  0  0  0
 41 42  1  1  0  0  0
 41 45  1  0  0  0  0
 42 44  1  0  0  0  0
 43 42  2  0  0  0  0
 46 47  1  6  0  0  0
 46 48  1  0  0  0  0
 48 53  1  1  0  0  0
 49 51  1  0  0  0  0
 49 50  1  0  0  0  0
 50 45  1  6  0  0  0
 50 48  1  0  0  0  0
 51 46  1  0  0  0  0
 53 52  1  0  0  0  0
M  END
>  <MODEL>
7

>  <REMARK>
 VINA RESULT:      -4.3      3.780      8.544
  Name = 
  15 active torsions:
  status: ('A' for Active; 'I' for Inactive)
    1  A    between atoms: C_1  and  C_15
    2  A    between atoms: C_1  and  C_37
    3  A    between atoms: N_2  and  C_35
    4  A    between atoms: C_5  and  C_12
    5  A    between atoms: C_5  and  C_32
    6  A    between atoms: C_10  and  C_13
    7  A    between atoms: C_10  and  C_17
    8  A    between atoms: C_10  and  O_52
    9  A    between atoms: C_15  and  C_23
   10  A    between atoms: C_18  and  C_33
   11  A    between atoms: C_26  and  C_28
   12  A    between atoms: C_31  and  C_40
   13  A    between atoms: C_32  and  C_43
   14  A    between atoms: C_42  and  O_52
   15  A    between atoms: C_43  and  N_48
                            x       y       z     vdW  Elec       q    Type
                         _______ _______ _______ _____ _____    ______ ____

>  <TORSDO>
F 15

$$$$
=
 OpenBabel10232409303D

 53 56  0  0  1  0  0  0  0  0999 V2000
  190.4100  174.5610  137.7810 C   0  0  0  0  0  2  0  0  0  0  0  0
  187.9120  173.1060  136.9030 C   0  0  0  0  0  2  0  0  0  0  0  0
  190.4590  175.3150  140.5010 O   0  0  0  0  0  0  0  0  0  0  0  0
  190.5930  174.2780  136.4800 C   0  0  1  0  0  3  0  0  0  0  0  0
  190.0660  175.9270  138.2600 C   0  0  2  0  0  3  0  0  0  0  0  0
  186.8720  175.1730  136.1750 O   0  0  0  0  0  0  0  0  0  0  0  0
  190.2970  172.8810  136.0520 C   0  0  0  0  0  2  0  0  0  0  0  0
  188.4530  178.5080  138.5180 C   0  0  0  0  0  2  0  0  0  0  0  0
  189.5820  178.1890  140.6680 N   0  0  0  0  0  0  0  0  0  0  0  0
  188.5250  178.5920  140.0240 C   0  0  0  0  0  0  0  0  0  0  0  0
  187.8690  177.1990  138.0820 C   0  0  0  0  0  0  0  0  0  0  0  0
  186.0070  175.8940  137.0210 C   0  0  1  0  0  3  0  0  0  0  0  0
  190.5120  176.1930  139.6580 C   0  0  0  0  0  0  0  0  0  0  0  0
  190.7730  177.6170  140.0500 C   0  0  2  0  0  3  0  0  0  0  0  0
  188.8150  172.6740  135.7380 C   0  0  1  0  0  3  0  0  0  0  0  0
  188.6160  175.9980  138.2050 N   0  0  0  0  0  2  0  0  0  0  0  0
  186.6430  173.8130  136.4370 C   0  0  0  0  0  2  0  0  0  0  0  0
  191.9390  177.7030  141.0140 C   0  0  0  0  0  1  0  0  0  0  0  0
  186.6640  177.1610  137.5140 C   0  0  0  0  0  3  0  0  0  0  0  0
  187.4000  179.0400  140.8000 N   0  0  0  0  0  0  0  0  0  0  0  0
  187.4740  177.3460  142.4600 N   0  0  0  0  0  1  0  0  0  0  0  0
  185.8080  179.1420  142.5240 N   0  0  0  0  0  1  0  0  0  0  0  0
  186.9430  178.5390  141.9090 C   0  0  0  0  0  0  0  0  0  0  0  0
  189.7390  170.5960  135.0130 F   0  0  0  0  0  0  0  0  0  0  0  0
  187.6250  171.0680  134.4060 F   0  0  0  0  0  0  0  0  0  0  0  0
  188.5640  171.1940  135.4220 C   0  0  0  0  0  0  0  0  0  0  0  0
  188.0870  170.5390  136.5600 F   0  0  0  0  0  0  0  0  0  0  0  0
  184.7470  176.2900  136.2610 C   0  0  0  0  0  2  0  0  0  0  0  0
  184.2340  177.6570  136.6700 C   0  0  0  0  0  2  0  0  0  0  0  0
  182.6950  177.1440  138.4710 C   0  0  1  0  0  3  0  0  0  0  0  0
  182.7740  177.5770  137.0800 C   0  0  1  0  0  3  0  0  0  0  0  0
  182.5080  178.5650  138.1380 N   0  0  0  0  0  2  0  0  0  0  0  0
  181.3390  176.5090  138.7300 C   0  0  0  0  0  2  0  0  0  0  0  0
  180.5320  177.3490  139.7130 C   0  0  0  0  0  2  0  0  0  0  0  0
  181.4390  178.1110  140.6760 C   0  0  0  0  0  2  0  0  0  0  0  0
  180.0260  180.7040  142.8330 O   0  0  0  0  0  0  0  0  0  0  0  0
  180.6050  179.6390  142.5090 C   0  0  0  0  0  0  0  0  0  0  0  0
  180.7820  179.3300  141.1280 N   0  0  0  0  0  2  0  0  0  0  0  0
  181.0610  178.7030  143.5750 C   0  0  0  0  0  2  0  0  0  0  0  0
  182.4140  179.1520  144.1080 C   0  0  0  0  0  1  0  0  0  0  0  0
  190.8650  175.3130  135.4160 C   0  0  1  0  0  3  0  0  0  0  0  0
  189.6430  176.0660  134.9910 C   0  0  0  0  0  0  0  0  0  0  0  0
  189.5350  177.2950  135.2680 O   0  0  0  0  0  1  0  0  0  0  0  0
  188.6010  175.4040  134.3490 O   0  0  0  0  0  0  0  0  0  0  0  0
  191.8840  176.1890  135.8160 O   0  0  0  0  0  0  0  0  0  0  0  0
  194.9570  174.3660  136.0620 C   0  0  1  0  0  3  0  0  0  0  0  0
  195.0480  174.0890  137.5490 C   0  0  0  0  0  1  0  0  0  0  0  0
  193.4990  174.3400  135.6280 C   0  0  1  0  0  3  0  0  0  0  0  0
  194.2880  176.6770  135.6090 C   0  0  0  0  0  2  0  0  0  0  0  0
  193.1180  175.7730  135.2650 C   0  0  2  0  0  3  0  0  0  0  0  0
  195.4860  175.7550  135.7580 C   0  0  0  0  0  2  0  0  0  0  0  0
  194.3170  172.4620  134.3460 O   0  0  0  0  0  1  0  0  0  0  0  0
  193.2880  173.4060  134.4360 C   0  0  0  0  0  2  0  0  0  0  0  0
  4 41  1  6  0  0  0
  4  1  1  0  0  0  0
  5  1  1  1  0  0  0
  5 13  1  0  0  0  0
  6 17  1  0  0  0  0
  6 12  1  0  0  0  0
  7  4  1  0  0  0  0
  8 10  1  0  0  0  0
 10  9  2  0  0  0  0
 10 20  1  0  0  0  0
 11 16  1  0  0  0  0
 11  8  1  0  0  0  0
 12 28  1  6  0  0  0
 12 19  1  0  0  0  0
 13 14  1  0  0  0  0
 13  3  2  0  0  0  0
 14  9  1  0  0  0  0
 14 18  1  1  0  0  0
 15 26  1  1  0  0  0
 15  7  1  0  0  0  0
 15  2  1  0  0  0  0
 16  5  1  0  0  0  0
 17  2  1  0  0  0  0
 19 11  2  0  0  0  0
 20 23  2  0  0  0  0
 23 21  1  0  0  0  0
 23 22  1  0  0  0  0
 24 26  1  0  0  0  0
 25 26  1  0  0  0  0
 26 27  1  0  0  0  0
 28 29  1  0  0  0  0
 30 33  1  6  0  0  0
 31 29  1  1  0  0  0
 31 32  1  0  0  0  0
 31 30  1  0  0  0  0
 32 30  1  0  0  0  0
 33 34  1  0  0  0  0
 34 35  1  0  0  0  0
 35 38  1  0  0  0  0
 37 36  2  0  0  0  0
 37 39  1  0  0  0  0
 38 37  1  0  0  0  0
 39 40  1  0  0  0  0
 41 42  1  1  0  0  0
 41 45  1  0  0  0  0
 42 43  1  0  0  0  0
 44 42  2  0  0  0  0
 46 47  1  1  0  0  0
 48 53  1  6  0  0  0
 48 46  1  0  0  0  0
 49 51  1  0  0  0  0
 50 49  1  0  0  0  0
 50 48  1  0  0  0  0
 50 45  1  1  0  0  0
 51 46  1  0  0  0  0
 52 53  1  0  0  0  0
M  END
>  <MODEL>
8

>  <REMARK>
 VINA RESULT:      -3.6      3.971      8.321
  Name = 
  15 active torsions:
  status: ('A' for Active; 'I' for Inactive)
    1  A    between atoms: C_1  and  C_15
    2  A    between atoms: C_1  and  C_37
    3  A    between atoms: N_2  and  C_35
    4  A    between atoms: C_5  and  C_12
    5  A    between atoms: C_5  and  C_32
    6  A    between atoms: C_10  and  C_13
    7  A    between atoms: C_10  and  C_17
    8  A    between atoms: C_10  and  O_52
    9  A    between atoms: C_15  and  C_23
   10  A    between atoms: C_18  and  C_33
   11  A    between atoms: C_26  and  C_28
   12  A    between atoms: C_31  and  C_40
   13  A    between atoms: C_32  and  C_43
   14  A    between atoms: C_42  and  O_52
   15  A    between atoms: C_43  and  N_48
                            x       y       z     vdW  Elec       q    Type
                         _______ _______ _______ _____ _____    ______ ____

>  <TORSDO>
F 15

$$$$
=
 OpenBabel10232409303D

 53 56  0  0  1  0  0  0  0  0999 V2000
  190.1520  174.7160  137.5340 C   0  0  0  0  0  2  0  0  0  0  0  0
  187.7180  173.1440  136.6760 C   0  0  0  0  0  2  0  0  0  0  0  0
  190.2130  175.4230  140.2670 O   0  0  0  0  0  0  0  0  0  0  0  0
  190.3240  174.4650  136.2250 C   0  0  1  0  0  3  0  0  0  0  0  0
  189.7440  176.0530  138.0450 C   0  0  2  0  0  3  0  0  0  0  0  0
  186.5550  175.1640  136.0060 O   0  0  0  0  0  0  0  0  0  0  0  0
  190.0950  173.0620  135.7770 C   0  0  0  0  0  2  0  0  0  0  0  0
  188.0000  178.5380  138.3810 C   0  0  0  0  0  2  0  0  0  0  0  0
  189.1870  178.2430  140.5030 N   0  0  0  0  0  0  0  0  0  0  0  0
  188.0970  178.5990  139.8870 C   0  0  0  0  0  0  0  0  0  0  0  0
  187.4790  177.2070  137.9310 C   0  0  0  0  0  0  0  0  0  0  0  0
  185.6700  175.8230  136.8810 C   0  0  1  0  0  3  0  0  0  0  0  0
  190.2020  176.3170  139.4390 C   0  0  0  0  0  0  0  0  0  0  0  0
  190.3940  177.7470  139.8530 C   0  0  2  0  0  3  0  0  0  0  0  0
  188.6200  172.7810  135.4860 C   0  0  1  0  0  3  0  0  0  0  0  0
  188.2920  176.0460  138.0190 N   0  0  0  0  0  2  0  0  0  0  0  0
  186.4040  173.7890  136.2460 C   0  0  0  0  0  2  0  0  0  0  0  0
  191.5730  177.8780  140.7970 C   0  0  0  0  0  1  0  0  0  0  0  0
  186.2670  177.1140  137.3850 C   0  0  0  0  0  3  0  0  0  0  0  0
  186.9650  178.9730  140.6910 N   0  0  0  0  0  0  0  0  0  0  0  0
  187.4540  177.6040  142.5680 N   0  0  0  0  0  1  0  0  0  0  0  0
  185.5010  179.0830  142.5250 N   0  0  0  0  0  1  0  0  0  0  0  0
  186.6820  178.5870  141.9000 C   0  0  0  0  0  0  0  0  0  0  0  0
  188.2950  170.5640  136.3080 F   0  0  0  0  0  0  0  0  0  0  0  0
  189.5530  170.8200  134.4600 F   0  0  0  0  0  0  0  0  0  0  0  0
  188.4430  171.2960  135.1480 C   0  0  0  0  0  0  0  0  0  0  0  0
  187.3100  171.1230  134.3480 F   0  0  0  0  0  0  0  0  0  0  0  0
  184.3760  176.1640  136.1520 C   0  0  0  0  0  2  0  0  0  0  0  0
  183.4020  176.9250  137.0310 C   0  0  0  0  0  2  0  0  0  0  0  0
  181.9600  175.0990  136.3550 C   0  0  1  0  0  3  0  0  0  0  0  0
  181.9740  176.5090  136.7290 C   0  0  1  0  0  3  0  0  0  0  0  0
  181.5420  175.4980  137.7080 N   0  0  0  0  0  2  0  0  0  0  0  0
  180.7280  174.8060  135.5160 C   0  0  0  0  0  2  0  0  0  0  0  0
  180.2980  173.3530  135.6810 C   0  0  0  0  0  2  0  0  0  0  0  0
  180.7950  172.4870  134.5270 C   0  0  0  0  0  2  0  0  0  0  0  0
  183.1420  169.7970  135.3220 O   0  0  0  0  0  0  0  0  0  0  0  0
  182.0710  170.3510  134.9730 C   0  0  0  0  0  0  0  0  0  0  0  0
  182.0050  171.7740  134.9180 N   0  0  0  0  0  2  0  0  0  0  0  0
  180.8820  169.5090  134.6620 C   0  0  0  0  0  2  0  0  0  0  0  0
  181.1870  168.0520  134.9830 C   0  0  0  0  0  1  0  0  0  0  0  0
  190.5190  175.5330  135.1760 C   0  0  1  0  0  3  0  0  0  0  0  0
  189.2740  176.3070  134.8750 C   0  0  0  0  0  0  0  0  0  0  0  0
  189.2430  177.5530  135.0880 O   0  0  0  0  0  1  0  0  0  0  0  0
  188.1340  175.6520  134.4220 O   0  0  0  0  0  0  0  0  0  0  0  0
  191.5760  176.3880  135.5200 O   0  0  0  0  0  0  0  0  0  0  0  0
  195.1200  176.1130  135.9550 C   0  0  1  0  0  3  0  0  0  0  0  0
  195.6280  177.3580  135.2560 C   0  0  0  0  0  1  0  0  0  0  0  0
  193.7810  176.4100  136.6150 C   0  0  1  0  0  3  0  0  0  0  0  0
  193.3920  174.9750  134.6460 C   0  0  0  0  0  2  0  0  0  0  0  0
  192.7230  175.6270  135.8430 C   0  0  2  0  0  3  0  0  0  0  0  0
  194.8820  175.0070  134.9450 C   0  0  0  0  0  2  0  0  0  0  0  0
  195.0210  175.4730  138.4650 O   0  0  0  0  0  1  0  0  0  0  0  0
  193.7830  176.0070  138.0890 C   0  0  0  0  0  2  0  0  0  0  0  0
  4 41  1  6  0  0  0
  4  1  1  0  0  0  0
  5  1  1  1  0  0  0
  5 13  1  0  0  0  0
  6 17  1  0  0  0  0
  6 12  1  0  0  0  0
  7  4  1  0  0  0  0
  8 10  1  0  0  0  0
 10  9  2  0  0  0  0
 10 20  1  0  0  0  0
 11 16  1  0  0  0  0
 11  8  1  0  0  0  0
 12 28  1  6  0  0  0
 12 19  1  0  0  0  0
 13 14  1  0  0  0  0
 13  3  2  0  0  0  0
 14  9  1  0  0  0  0
 14 18  1  1  0  0  0
 15 26  1  1  0  0  0
 15  7  1  0  0  0  0
 15  2  1  0  0  0  0
 16  5  1  0  0  0  0
 17  2  1  0  0  0  0
 19 11  2  0  0  0  0
 20 23  2  0  0  0  0
 23 22  1  0  0  0  0
 23 21  1  0  0  0  0
 25 26  1  0  0  0  0
 26 24  1  0  0  0  0
 27 26  1  0  0  0  0
 28 29  1  0  0  0  0
 30 33  1  6  0  0  0
 30 31  1  0  0  0  0
 30 32  1  0  0  0  0
 31 29  1  1  0  0  0
 31 32  1  0  0  0  0
 33 34  1  0  0  0  0
 35 38  1  0  0  0  0
 35 34  1  0  0  0  0
 37 36  2  0  0  0  0
 38 37  1  0  0  0  0
 39 37  1  0  0  0  0
 39 40  1  0  0  0  0
 41 42  1  1  0  0  0
 41 45  1  0  0  0  0
 42 43  1  0  0  0  0
 44 42  2  0  0  0  0
 46 47  1  6  0  0  0
 46 48  1  0  0  0  0
 48 53  1  1  0  0  0
 49 51  1  0  0  0  0
 49 50  1  0  0  0  0
 50 45  1  6  0  0  0
 50 48  1  0  0  0  0
 51 46  1  0  0  0  0
 53 52  1  0  0  0  0
M  END
>  <MODEL>
9

>  <REMARK>
 VINA RESULT:      -3.6      3.842      9.324
  Name = 
  15 active torsions:
  status: ('A' for Active; 'I' for Inactive)
    1  A    between atoms: C_1  and  C_15
    2  A    between atoms: C_1  and  C_37
    3  A    between atoms: N_2  and  C_35
    4  A    between atoms: C_5  and  C_12
    5  A    between atoms: C_5  and  C_32
    6  A    between atoms: C_10  and  C_13
    7  A    between atoms: C_10  and  C_17
    8  A    between atoms: C_10  and  O_52
    9  A    between atoms: C_15  and  C_23
   10  A    between atoms: C_18  and  C_33
   11  A    between atoms: C_26  and  C_28
   12  A    between atoms: C_31  and  C_40
   13  A    between atoms: C_32  and  C_43
   14  A    between atoms: C_42  and  O_52
   15  A    between atoms: C_43  and  N_48
                            x       y       z     vdW  Elec       q    Type
                         _______ _______ _______ _____ _____    ______ ____

>  <TORSDO>
F 15

$$$$
