=
 OpenBabel10232409293D

 53 56  0  0  1  0  0  0  0  0999 V2000
  187.2140  178.4150  141.7670 C   0  0  1  0  0  3  0  0  0  0  0  0
  185.4370  178.4790  141.6290 Cl  0  0  0  0  0  0  0  0  0  0  0  0
  189.1970  175.7900  143.5260 F   0  0  0  0  0  0  0  0  0  0  0  0
  188.7820  176.6950  142.6020 C   0  0  0  0  0  0  0  0  0  0  0  0
  189.1220  178.1110  140.5740 C   0  0  2  0  0  3  0  0  0  0  0  0
  187.6610  177.4010  142.8150 C   0  0  0  0  0  0  0  0  0  0  0  0
  189.5940  176.8730  141.3470 C   0  0  1  0  0  3  0  0  0  0  0  0
  187.7190  178.0890  140.4930 O   0  0  0  0  0  0  0  0  0  0  0  0
  190.9410  177.0100  141.6870 O   0  0  0  0  0  1  0  0  0  0  0  0
  187.0280  177.3010  144.0980 N   0  0  0  0  0  0  0  0  0  0  0  0
  187.5310  177.8100  145.1470 N   0  0  0  0  0  0  0  0  0  0  0  0
  186.8550  177.6780  146.4300 C   0  0  1  0  0  3  0  0  0  0  0  0
  187.9900  178.6890  148.4090 O   0  0  0  0  0  1  0  0  0  0  0  0
  187.8400  177.6020  147.5570 C   0  0  0  0  0  0  0  0  0  0  0  0
  188.5570  176.5780  147.7180 O   0  0  0  0  0  0  0  0  0  0  0  0
  185.8610  178.8160  146.6360 C   0  0  0  0  0  2  0  0  0  0  0  0
  184.5180  178.4190  146.2430 N   0  0  0  0  0  2  0  0  0  0  0  0
  184.0600  179.3840  145.2560 C   0  0  1  0  0  3  0  0  0  0  0  0
  185.1260  179.8270  144.4940 F   0  0  0  0  0  0  0  0  0  0  0  0
  183.0050  178.7540  144.3620 C   0  0  0  0  0  2  0  0  0  0  0  0
  182.4770  179.7100  143.4780 O   0  0  0  0  0  0  0  0  0  0  0  0
  181.1640  179.3310  143.1170 C   0  0  2  0  0  3  0  0  0  0  0  0
  180.6190  178.3880  143.9990 O   0  0  0  0  0  1  0  0  0  0  0  0
  180.2700  179.8010  140.9380 F   0  0  0  0  0  0  0  0  0  0  0  0
  180.4330  177.6470  141.5920 F   0  0  0  0  0  0  0  0  0  0  0  0
  181.0300  178.8930  141.6540 C   0  0  0  0  0  0  0  0  0  0  0  0
  182.2890  178.8170  141.0870 F   0  0  0  0  0  0  0  0  0  0  0  0
  189.7150  178.1310  139.1560 C   0  0  1  0  0  3  0  0  0  0  0  0
  189.7430  176.8470  138.5900 O   0  0  0  0  0  0  0  0  0  0  0  0
  191.0490  176.6230  138.3150 N   0  0  0  0  0  2  0  0  0  0  0  0
  191.2490  175.2420  138.4250 N   0  0  0  0  0  2  0  0  0  0  0  0
  189.3090  173.7250  136.9860 C   0  0  0  0  0  1  0  0  0  0  0  0
  190.7590  173.6380  136.6500 C   0  0  0  0  0  0  0  0  0  0  0  0
  191.1490  172.7920  135.6610 N   0  0  0  0  0  0  0  0  0  0  0  0
  191.7120  174.3990  137.3540 C   0  0  0  0  0  0  0  0  0  0  0  0
  193.4330  173.3870  135.9660 C   0  0  0  0  0  3  0  0  0  0  0  0
  192.4520  172.6500  135.3110 C   0  0  0  0  0  3  0  0  0  0  0  0
  193.0790  174.2870  136.9840 C   0  0  0  0  0  0  0  0  0  0  0  0
  195.5270  174.5770  137.1910 C   0  0  0  0  0  2  0  0  0  0  0  0
  194.1700  175.0600  137.6780 C   0  0  0  0  0  3  0  0  0  0  0  0
  195.0390  174.1740  138.5610 C   0  0  0  0  0  2  0  0  0  0  0  0
  189.0780  179.0550  138.2990 O   0  0  0  0  0  0  0  0  0  0  0  0
  188.6000  178.3660  137.1690 C   0  0  0  0  0  2  0  0  0  0  0  0
  187.1400  178.7130  136.9220 C   0  0  0  0  0  2  0  0  0  0  0  0
  184.0750  176.6990  137.8630 C   0  0  0  0  0  0  0  0  0  0  0  0
  186.2600  177.5280  137.1500 C   0  0  0  0  0  0  0  0  0  0  0  0
  186.6140  176.3370  136.6560 C   0  0  0  0  0  3  0  0  0  0  0  0
  184.9830  177.6800  137.8770 C   0  0  0  0  0  3  0  0  0  0  0  0
  184.2870  175.4740  137.0130 C   0  0  0  0  0  2  0  0  0  0  0  0
  182.8010  176.8630  138.6090 C   0  0  0  0  0  1  0  0  0  0  0  0
  185.7770  175.1150  136.9320 C   0  0  1  0  0  3  0  0  0  0  0  0
  185.5550  172.9550  136.5000 C   0  0  0  0  0  1  0  0  0  0  0  0
  185.9820  174.1590  135.9370 O   0  0  0  0  0  0  0  0  0  0  0  0
  1  2  1  6  0  0  0
  1  6  1  0  0  0  0
  4  6  2  0  0  0  0
  4  3  1  0  0  0  0
  5 28  1  6  0  0  0
  5  7  1  0  0  0  0
  6 10  1  0  0  0  0
  7  9  1  1  0  0  0
  7  4  1  0  0  0  0
  8  5  1  0  0  0  0
  8  1  1  0  0  0  0
 10 11  2  0  0  0  0
 11 12  1  0  0  0  0
 12 16  1  1  0  0  0
 12 14  1  0  0  0  0
 14 15  2  0  0  0  0
 14 13  1  0  0  0  0
 17 16  1  0  0  0  0
 18 19  1  6  0  0  0
 18 17  1  0  0  0  0
 20 18  1  0  0  0  0
 21 20  1  0  0  0  0
 22 21  1  0  0  0  0
 22 23  1  1  0  0  0
 24 26  1  0  0  0  0
 25 26  1  0  0  0  0
 26 22  1  0  0  0  0
 27 26  1  0  0  0  0
 28 42  1  6  0  0  0
 29 28  1  0  0  0  0
 30 31  1  0  0  0  0
 30 29  1  0  0  0  0
 33 32  1  0  0  0  0
 33 35  1  0  0  0  0
 34 33  2  0  0  0  0
 35 31  1  0  0  0  0
 36 38  1  0  0  0  0
 37 34  1  0  0  0  0
 37 36  2  0  0  0  0
 38 35  2  0  0  0  0
 38 40  1  0  0  0  0
 39 40  1  0  0  0  0
 39 41  1  0  0  0  0
 40 41  1  0  0  0  0
 43 42  1  0  0  0  0
 44 46  1  0  0  0  0
 44 43  1  0  0  0  0
 45 48  2  0  0  0  0
 45 50  1  0  0  0  0
 46 48  1  0  0  0  0
 47 51  1  0  0  0  0
 47 46  2  0  0  0  0
 49 45  1  0  0  0  0
 51 53  1  6  0  0  0
 51 49  1  0  0  0  0
 53 52  1  0  0  0  0
M  END
>  <MODEL>
1

>  <REMARK>
 VINA RESULT:      -7.4      0.000      0.000
  Name = 
  21 active torsions:
  status: ('A' for Active; 'I' for Inactive)
    1  A    between atoms: N_6  and  C_13
    2  A    between atoms: N_6  and  C_44
    3  A    between atoms: C_11  and  C_13
    4  A    between atoms: C_11  and  N_27
    5  A    between atoms: C_11  and  C_42
    6  A    between atoms: C_12  and  C_41
    7  A    between atoms: C_14  and  C_26
    8  A    between atoms: C_14  and  O_40
    9  A    between atoms: O_20  and  C_32
   10  A    between atoms: O_20  and  N_34
   11  A    between atoms: C_21  and  C_32
   12  A    between atoms: N_22  and  C_25
   13  A    between atoms: N_28  and  N_34
   14  A    between atoms: N_28  and  C_38
   15  A    between atoms: C_32  and  O_45
   16  A    between atoms: C_36  and  C_41
   17  A    between atoms: C_36  and  O_45
   18  A    between atoms: C_37  and  O_43
   19  A    between atoms: O_40  and  C_48
   20  A    between atoms: C_44  and  C_48
   21  A    between atoms: C_49  and  C_52
                            x       y       z     vdW  Elec       q    Type
                         _______ _______ _______ _____ _____    ______ ____

>  <TORSDO>
F 21

$$$$
=
 OpenBabel10232409293D

 53 56  0  0  1  0  0  0  0  0999 V2000
  192.1950  177.3060  139.2770 C   0  0  1  0  0  3  0  0  0  0  0  0
  193.7350  177.0530  140.1410 Cl  0  0  0  0  0  0  0  0  0  0  0  0
  190.4260  174.8080  137.1450 F   0  0  0  0  0  0  0  0  0  0  0  0
  190.6760  175.7870  138.0530 C   0  0  0  0  0  0  0  0  0  0  0  0
  189.9680  177.6270  139.5850 C   0  0  2  0  0  3  0  0  0  0  0  0
  191.9350  176.2040  138.2550 C   0  0  0  0  0  0  0  0  0  0  0  0
  189.5220  176.3710  138.8230 C   0  0  1  0  0  3  0  0  0  0  0  0
  191.1750  177.3520  140.2490 O   0  0  0  0  0  0  0  0  0  0  0  0
  188.4940  176.6930  137.9370 O   0  0  0  0  0  1  0  0  0  0  0  0
  192.9610  175.7230  137.3760 N   0  0  0  0  0  0  0  0  0  0  0  0
  193.7700  176.5020  136.7830 N   0  0  0  0  0  0  0  0  0  0  0  0
  194.7920  175.9680  135.8930 C   0  0  1  0  0  3  0  0  0  0  0  0
  195.0850  177.9040  134.3460 O   0  0  0  0  0  0  0  0  0  0  0  0
  195.6300  177.0650  135.3100 C   0  0  0  0  0  0  0  0  0  0  0  0
  196.8320  177.2120  135.6580 O   0  0  0  0  0  1  0  0  0  0  0  0
  195.6510  174.9370  136.6160 C   0  0  0  0  0  2  0  0  0  0  0  0
  196.2690  174.0150  135.6760 N   0  0  0  0  0  2  0  0  0  0  0  0
  197.2980  173.2880  136.4040 C   0  0  1  0  0  3  0  0  0  0  0  0
  197.9850  172.4500  135.5440 F   0  0  0  0  0  0  0  0  0  0  0  0
  198.2590  174.2630  137.0620 C   0  0  0  0  0  2  0  0  0  0  0  0
  198.4020  173.9640  138.4280 O   0  0  0  0  0  0  0  0  0  0  0  0
  198.5480  175.1690  139.1530 C   0  0  2  0  0  3  0  0  0  0  0  0
  199.8880  175.4510  139.4530 O   0  0  0  0  0  1  0  0  0  0  0  0
  198.2980  174.7320  141.5010 F   0  0  0  0  0  0  0  0  0  0  0  0
  196.4820  174.5480  140.1730 F   0  0  0  0  0  0  0  0  0  0  0  0
  197.6520  175.2530  140.3930 C   0  0  0  0  0  0  0  0  0  0  0  0
  197.3400  176.5770  140.6380 F   0  0  0  0  0  0  0  0  0  0  0  0
  188.9050  178.0520  140.6110 C   0  0  1  0  0  3  0  0  0  0  0  0
  187.9100  178.8480  140.0230 O   0  0  0  0  0  0  0  0  0  0  0  0
  186.7490  178.2200  140.3200 N   0  0  0  0  0  2  0  0  0  0  0  0
  185.7850  179.2200  140.4880 N   0  0  0  0  0  2  0  0  0  0  0  0
  183.6520  179.1520  138.5950 C   0  0  0  0  0  1  0  0  0  0  0  0
  183.3950  178.9710  140.0530 C   0  0  0  0  0  0  0  0  0  0  0  0
  182.1140  178.8040  140.4730 N   0  0  0  0  0  0  0  0  0  0  0  0
  184.4530  178.9920  140.9830 C   0  0  0  0  0  0  0  0  0  0  0  0
  182.8110  178.6500  142.7430 C   0  0  0  0  0  3  0  0  0  0  0  0
  181.8040  178.6490  141.7850 C   0  0  0  0  0  3  0  0  0  0  0  0
  184.1530  178.8010  142.3580 C   0  0  0  0  0  0  0  0  0  0  0  0
  184.5890  178.4860  144.7730 C   0  0  0  0  0  2  0  0  0  0  0  0
  185.2160  178.8080  143.4260 C   0  0  0  0  0  3  0  0  0  0  0  0
  184.9960  179.9050  144.4590 C   0  0  0  0  0  2  0  0  0  0  0  0
  188.3420  176.9640  141.3130 O   0  0  0  0  0  0  0  0  0  0  0  0
  189.0510  176.7880  142.5150 C   0  0  0  0  0  2  0  0  0  0  0  0
  188.0850  176.7160  143.6880 C   0  0  0  0  0  2  0  0  0  0  0  0
  188.5250  177.5860  147.3460 C   0  0  0  0  0  0  0  0  0  0  0  0
  188.7620  177.0840  144.9670 C   0  0  0  0  0  0  0  0  0  0  0  0
  190.0920  176.9890  145.0610 C   0  0  0  0  0  3  0  0  0  0  0  0
  187.9640  177.5050  146.1360 C   0  0  0  0  0  3  0  0  0  0  0  0
  189.9470  177.1390  147.5600 C   0  0  0  0  0  2  0  0  0  0  0  0
  187.7110  178.0240  148.5090 C   0  0  0  0  0  1  0  0  0  0  0  0
  190.8030  177.4210  146.3180 C   0  0  1  0  0  3  0  0  0  0  0  0
  191.9740  175.7430  145.4740 C   0  0  0  0  0  1  0  0  0  0  0  0
  192.0290  176.7640  146.4250 O   0  0  0  0  0  0  0  0  0  0  0  0
  1  2  1  1  0  0  0
  1  8  1  0  0  0  0
  3  4  1  0  0  0  0
  4  6  2  0  0  0  0
  4  7  1  0  0  0  0
  5  8  1  0  0  0  0
  5 28  1  1  0  0  0
  6  1  1  0  0  0  0
  7  9  1  6  0  0  0
  7  5  1  0  0  0  0
 10  6  1  0  0  0  0
 11 10  2  0  0  0  0
 12 16  1  1  0  0  0
 12 11  1  0  0  0  0
 13 14  2  0  0  0  0
 14 15  1  0  0  0  0
 14 12  1  0  0  0  0
 17 18  1  0  0  0  0
 17 16  1  0  0  0  0
 18 19  1  6  0  0  0
 18 20  1  0  0  0  0
 20 21  1  0  0  0  0
 21 22  1  0  0  0  0
 22 23  1  1  0  0  0
 22 26  1  0  0  0  0
 25 26  1  0  0  0  0
 26 27  1  0  0  0  0
 26 24  1  0  0  0  0
 28 29  1  6  0  0  0
 28 42  1  0  0  0  0
 29 30  1  0  0  0  0
 30 31  1  0  0  0  0
 31 35  1  0  0  0  0
 32 33  1  0  0  0  0
 33 34  2  0  0  0  0
 33 35  1  0  0  0  0
 34 37  1  0  0  0  0
 35 38  2  0  0  0  0
 37 36  2  0  0  0  0
 38 36  1  0  0  0  0
 38 40  1  0  0  0  0
 40 41  1  0  0  0  0
 40 39  1  0  0  0  0
 41 39  1  0  0  0  0
 42 43  1  0  0  0  0
 43 44  1  0  0  0  0
 44 46  1  0  0  0  0
 45 49  1  0  0  0  0
 45 50  1  0  0  0  0
 46 47  2  0  0  0  0
 46 48  1  0  0  0  0
 47 51  1  0  0  0  0
 48 45  2  0  0  0  0
 51 53  1  1  0  0  0
 51 49  1  0  0  0  0
 52 53  1  0  0  0  0
M  END
>  <MODEL>
2

>  <REMARK>
 VINA RESULT:      -7.4      4.509     11.849
  Name = 
  21 active torsions:
  status: ('A' for Active; 'I' for Inactive)
    1  A    between atoms: N_6  and  C_13
    2  A    between atoms: N_6  and  C_44
    3  A    between atoms: C_11  and  C_13
    4  A    between atoms: C_11  and  N_27
    5  A    between atoms: C_11  and  C_42
    6  A    between atoms: C_12  and  C_41
    7  A    between atoms: C_14  and  C_26
    8  A    between atoms: C_14  and  O_40
    9  A    between atoms: O_20  and  C_32
   10  A    between atoms: O_20  and  N_34
   11  A    between atoms: C_21  and  C_32
   12  A    between atoms: N_22  and  C_25
   13  A    between atoms: N_28  and  N_34
   14  A    between atoms: N_28  and  C_38
   15  A    between atoms: C_32  and  O_45
   16  A    between atoms: C_36  and  C_41
   17  A    between atoms: C_36  and  O_45
   18  A    between atoms: C_37  and  O_43
   19  A    between atoms: O_40  and  C_48
   20  A    between atoms: C_44  and  C_48
   21  A    between atoms: C_49  and  C_52
                            x       y       z     vdW  Elec       q    Type
                         _______ _______ _______ _____ _____    ______ ____

>  <TORSDO>
F 21

$$$$
=
 OpenBabel10232409293D

 53 56  0  0  1  0  0  0  0  0999 V2000
  190.5730  175.8500  138.0030 C   0  0  1  0  0  3  0  0  0  0  0  0
  190.3120  175.6960  136.2460 Cl  0  0  0  0  0  0  0  0  0  0  0  0
  193.7200  176.9540  139.6770 F   0  0  0  0  0  0  0  0  0  0  0  0
  192.4070  176.8040  139.3600 C   0  0  0  0  0  0  0  0  0  0  0  0
  189.9680  177.0480  139.8350 C   0  0  2  0  0  3  0  0  0  0  0  0
  192.0530  176.0070  138.3400 C   0  0  0  0  0  0  0  0  0  0  0  0
  191.3790  177.5540  140.1640 C   0  0  1  0  0  3  0  0  0  0  0  0
  189.8290  176.9640  138.4390 O   0  0  0  0  0  0  0  0  0  0  0  0
  191.6410  177.3790  141.5240 O   0  0  0  0  0  1  0  0  0  0  0  0
  193.0650  175.2000  137.7250 N   0  0  0  0  0  0  0  0  0  0  0  0
  193.7820  175.6200  136.7640 N   0  0  0  0  0  0  0  0  0  0  0  0
  194.7940  174.7620  136.1650 C   0  0  1  0  0  3  0  0  0  0  0  0
  192.9710  174.1390  134.5790 O   0  0  0  0  0  0  0  0  0  0  0  0
  194.1860  173.8200  135.1710 C   0  0  0  0  0  0  0  0  0  0  0  0
  194.7490  172.7260  134.8920 O   0  0  0  0  0  1  0  0  0  0  0  0
  195.9040  175.5960  135.5340 C   0  0  0  0  0  2  0  0  0  0  0  0
  197.0280  175.7490  136.4440 N   0  0  0  0  0  2  0  0  0  0  0  0
  197.4100  174.4150  136.8800 C   0  0  1  0  0  3  0  0  0  0  0  0
  197.9250  173.6970  135.8150 F   0  0  0  0  0  0  0  0  0  0  0  0
  198.4380  174.5050  137.9950 C   0  0  0  0  0  2  0  0  0  0  0  0
  198.3490  175.7490  138.6450 O   0  0  0  0  0  0  0  0  0  0  0  0
  198.7790  175.6030  139.9830 C   0  0  2  0  0  3  0  0  0  0  0  0
  199.6470  174.5150  140.1490 O   0  0  0  0  0  1  0  0  0  0  0  0
  196.6020  174.7680  140.5580 F   0  0  0  0  0  0  0  0  0  0  0  0
  197.1500  176.8640  141.1890 F   0  0  0  0  0  0  0  0  0  0  0  0
  197.6310  175.5810  140.9990 C   0  0  0  0  0  0  0  0  0  0  0  0
  198.1010  175.0940  142.2040 F   0  0  0  0  0  0  0  0  0  0  0  0
  188.8990  177.9980  140.3990 C   0  0  1  0  0  3  0  0  0  0  0  0
  188.0490  178.4740  139.3890 O   0  0  0  0  0  0  0  0  0  0  0  0
  186.8260  178.5240  139.9660 N   0  0  0  0  0  2  0  0  0  0  0  0
  185.9210  178.8700  138.9560 N   0  0  0  0  0  2  0  0  0  0  0  0
  187.0500  178.1020  136.4520 C   0  0  0  0  0  1  0  0  0  0  0  0
  185.7420  177.5500  136.9110 C   0  0  0  0  0  0  0  0  0  0  0  0
  185.0750  176.6930  136.0940 N   0  0  0  0  0  0  0  0  0  0  0  0
  185.1950  177.9220  138.1530 C   0  0  0  0  0  0  0  0  0  0  0  0
  183.2940  176.4880  137.6590 C   0  0  0  0  0  3  0  0  0  0  0  0
  183.8740  176.1630  136.4380 C   0  0  0  0  0  3  0  0  0  0  0  0
  183.9520  177.3560  138.5460 C   0  0  0  0  0  0  0  0  0  0  0  0
  181.7800  177.5630  139.7110 C   0  0  0  0  0  2  0  0  0  0  0  0
  183.2880  177.6930  139.8550 C   0  0  0  0  0  3  0  0  0  0  0  0
  182.4110  178.9340  139.7600 C   0  0  0  0  0  2  0  0  0  0  0  0
  188.1630  177.4370  141.4650 O   0  0  0  0  0  0  0  0  0  0  0  0
  188.6230  177.9940  142.6720 C   0  0  0  0  0  2  0  0  0  0  0  0
  188.6660  176.9300  143.7580 C   0  0  0  0  0  2  0  0  0  0  0  0
  187.7820  177.9560  147.2940 C   0  0  0  0  0  0  0  0  0  0  0  0
  187.8350  177.3270  144.9330 C   0  0  0  0  0  0  0  0  0  0  0  0
  186.5620  177.6910  144.7490 C   0  0  0  0  0  3  0  0  0  0  0  0
  188.4280  177.3630  146.2860 C   0  0  0  0  0  3  0  0  0  0  0  0
  186.4950  178.6980  147.0440 C   0  0  0  0  0  2  0  0  0  0  0  0
  188.3870  177.9730  148.6500 C   0  0  0  0  0  1  0  0  0  0  0  0
  185.6850  178.0280  145.9270 C   0  0  1  0  0  3  0  0  0  0  0  0
  184.9030  179.1410  144.1810 C   0  0  0  0  0  1  0  0  0  0  0  0
  184.6450  178.8680  145.5250 O   0  0  0  0  0  0  0  0  0  0  0  0
  1  2  1  6  0  0  0
  1  6  1  0  0  0  0
  1  8  1  0  0  0  0
  4  3  1  0  0  0  0
  4  7  1  0  0  0  0
  5  7  1  0  0  0  0
  5 28  1  6  0  0  0
  6  4  2  0  0  0  0
  7  9  1  1  0  0  0
  8  5  1  0  0  0  0
 10  6  1  0  0  0  0
 11 10  2  0  0  0  0
 12 16  1  6  0  0  0
 12 11  1  0  0  0  0
 13 14  2  0  0  0  0
 14 12  1  0  0  0  0
 15 14  1  0  0  0  0
 16 17  1  0  0  0  0
 17 18  1  0  0  0  0
 18 19  1  6  0  0  0
 18 20  1  0  0  0  0
 20 21  1  0  0  0  0
 21 22  1  0  0  0  0
 22 23  1  6  0  0  0
 22 26  1  0  0  0  0
 24 26  1  0  0  0  0
 26 25  1  0  0  0  0
 26 27  1  0  0  0  0
 28 29  1  6  0  0  0
 28 42  1  0  0  0  0
 29 30  1  0  0  0  0
 31 30  1  0  0  0  0
 32 33  1  0  0  0  0
 33 35  1  0  0  0  0
 34 37  1  0  0  0  0
 34 33  2  0  0  0  0
 35 38  2  0  0  0  0
 35 31  1  0  0  0  0
 36 38  1  0  0  0  0
 37 36  2  0  0  0  0
 38 40  1  0  0  0  0
 39 41  1  0  0  0  0
 39 40  1  0  0  0  0
 41 40  1  0  0  0  0
 42 43  1  0  0  0  0
 43 44  1  0  0  0  0
 44 46  1  0  0  0  0
 45 50  1  0  0  0  0
 46 48  1  0  0  0  0
 47 46  2  0  0  0  0
 47 51  1  0  0  0  0
 48 45  2  0  0  0  0
 49 45  1  0  0  0  0
 51 53  1  6  0  0  0
 51 49  1  0  0  0  0
 52 53  1  0  0  0  0
M  END
>  <MODEL>
3

>  <REMARK>
 VINA RESULT:      -7.4      4.416     11.292
  Name = 
  21 active torsions:
  status: ('A' for Active; 'I' for Inactive)
    1  A    between atoms: N_6  and  C_13
    2  A    between atoms: N_6  and  C_44
    3  A    between atoms: C_11  and  C_13
    4  A    between atoms: C_11  and  N_27
    5  A    between atoms: C_11  and  C_42
    6  A    between atoms: C_12  and  C_41
    7  A    between atoms: C_14  and  C_26
    8  A    between atoms: C_14  and  O_40
    9  A    between atoms: O_20  and  C_32
   10  A    between atoms: O_20  and  N_34
   11  A    between atoms: C_21  and  C_32
   12  A    between atoms: N_22  and  C_25
   13  A    between atoms: N_28  and  N_34
   14  A    between atoms: N_28  and  C_38
   15  A    between atoms: C_32  and  O_45
   16  A    between atoms: C_36  and  C_41
   17  A    between atoms: C_36  and  O_45
   18  A    between atoms: C_37  and  O_43
   19  A    between atoms: O_40  and  C_48
   20  A    between atoms: C_44  and  C_48
   21  A    between atoms: C_49  and  C_52
                            x       y       z     vdW  Elec       q    Type
                         _______ _______ _______ _____ _____    ______ ____

>  <TORSDO>
F 21

$$$$
=
 OpenBabel10232409293D

 53 56  0  0  1  0  0  0  0  0999 V2000
  190.5400  176.8390  141.7690 C   0  0  1  0  0  3  0  0  0  0  0  0
  191.9430  177.0470  142.8500 Cl  0  0  0  0  0  0  0  0  0  0  0  0
  187.5330  179.0420  141.6080 F   0  0  0  0  0  0  0  0  0  0  0  0
  188.5840  178.2590  141.2480 C   0  0  0  0  0  0  0  0  0  0  0  0
  189.8900  176.9200  139.5950 C   0  0  2  0  0  3  0  0  0  0  0  0
  189.3670  177.7180  142.1930 C   0  0  0  0  0  0  0  0  0  0  0  0
  188.8480  178.0300  139.7840 C   0  0  1  0  0  3  0  0  0  0  0  0
  190.9680  177.1540  140.4640 O   0  0  0  0  0  0  0  0  0  0  0  0
  187.6550  177.6760  139.1520 O   0  0  0  0  0  1  0  0  0  0  0  0
  188.9640  177.8420  143.5640 N   0  0  0  0  0  0  0  0  0  0  0  0
  188.9980  176.8650  144.3750 N   0  0  0  0  0  0  0  0  0  0  0  0
  188.5730  177.0360  145.7570 C   0  0  1  0  0  3  0  0  0  0  0  0
  189.5160  177.7920  147.9400 O   0  0  0  0  0  1  0  0  0  0  0  0
  189.7400  177.3190  146.6530 C   0  0  0  0  0  0  0  0  0  0  0  0
  190.9210  177.1660  146.2410 O   0  0  0  0  0  0  0  0  0  0  0  0
  187.5120  178.1270  145.8640 C   0  0  0  0  0  2  0  0  0  0  0  0
  186.1740  177.5780  145.7090 N   0  0  0  0  0  2  0  0  0  0  0  0
  185.2820  178.3920  146.5190 C   0  0  1  0  0  3  0  0  0  0  0  0
  185.9720  179.4670  147.0510 F   0  0  0  0  0  0  0  0  0  0  0  0
  184.1170  178.8840  145.6770 C   0  0  0  0  0  2  0  0  0  0  0  0
  184.5860  179.4820  144.4940 O   0  0  0  0  0  0  0  0  0  0  0  0
  183.6420  179.2710  143.4630 C   0  0  2  0  0  3  0  0  0  0  0  0
  182.4690  178.6620  143.9310 O   0  0  0  0  0  1  0  0  0  0  0  0
  183.2220  177.8640  141.5640 F   0  0  0  0  0  0  0  0  0  0  0  0
  185.1930  177.6540  142.6420 F   0  0  0  0  0  0  0  0  0  0  0  0
  184.2160  178.5480  142.2410 C   0  0  0  0  0  0  0  0  0  0  0  0
  184.7810  179.4770  141.3870 F   0  0  0  0  0  0  0  0  0  0  0  0
  190.4000  176.8870  138.1450 C   0  0  1  0  0  3  0  0  0  0  0  0
  190.3140  175.5980  137.5980 O   0  0  0  0  0  0  0  0  0  0  0  0
  191.3930  174.9450  138.0890 N   0  0  0  0  0  2  0  0  0  0  0  0
  192.0110  174.3180  137.0000 N   0  0  0  0  0  2  0  0  0  0  0  0
  191.7760  175.4890  134.4100 C   0  0  0  0  0  1  0  0  0  0  0  0
  193.1020  175.3560  135.0790 C   0  0  0  0  0  0  0  0  0  0  0  0
  194.2110  175.7750  134.4150 N   0  0  0  0  0  0  0  0  0  0  0  0
  193.2120  174.7890  136.3630 C   0  0  0  0  0  0  0  0  0  0  0  0
  195.6150  175.1300  136.2250 C   0  0  0  0  0  3  0  0  0  0  0  0
  195.4520  175.6710  134.9550 C   0  0  0  0  0  3  0  0  0  0  0  0
  194.4990  174.6990  136.9590 C   0  0  0  0  0  0  0  0  0  0  0  0
  196.2030  173.8980  138.5630 C   0  0  0  0  0  2  0  0  0  0  0  0
  194.7160  174.1080  138.3270 C   0  0  0  0  0  3  0  0  0  0  0  0
  195.3180  172.7100  138.2690 C   0  0  0  0  0  2  0  0  0  0  0  0
  189.7730  177.8390  137.3130 O   0  0  0  0  0  0  0  0  0  0  0  0
  189.3180  177.1920  136.1500 C   0  0  0  0  0  2  0  0  0  0  0  0
  188.0270  177.8330  135.6630 C   0  0  0  0  0  2  0  0  0  0  0  0
  186.0390  174.8420  136.8580 C   0  0  0  0  0  0  0  0  0  0  0  0
  186.8540  176.9500  135.9290 C   0  0  0  0  0  0  0  0  0  0  0  0
  185.6160  177.4400  135.8070 C   0  0  0  0  0  3  0  0  0  0  0  0
  187.0580  175.5550  136.3720 C   0  0  0  0  0  3  0  0  0  0  0  0
  184.6920  175.4820  137.0720 C   0  0  0  0  0  2  0  0  0  0  0  0
  186.2590  173.4370  137.2860 C   0  0  0  0  0  1  0  0  0  0  0  0
  184.4170  176.5480  136.0040 C   0  0  1  0  0  3  0  0  0  0  0  0
  183.4520  177.5240  137.7400 C   0  0  0  0  0  1  0  0  0  0  0  0
  183.3070  177.3120  136.3680 O   0  0  0  0  0  0  0  0  0  0  0  0
  1  6  1  0  0  0  0
  1  2  1  1  0  0  0
  4  3  1  0  0  0  0
  4  6  2  0  0  0  0
  5 28  1  6  0  0  0
  5  7  1  0  0  0  0
  5  8  1  0  0  0  0
  6 10  1  0  0  0  0
  7  9  1  6  0  0  0
  7  4  1  0  0  0  0
  8  1  1  0  0  0  0
 10 11  2  0  0  0  0
 11 12  1  0  0  0  0
 12 16  1  6  0  0  0
 12 14  1  0  0  0  0
 14 13  1  0  0  0  0
 15 14  2  0  0  0  0
 17 16  1  0  0  0  0
 17 18  1  0  0  0  0
 18 19  1  6  0  0  0
 20 18  1  0  0  0  0
 21 20  1  0  0  0  0
 22 23  1  1  0  0  0
 22 21  1  0  0  0  0
 24 26  1  0  0  0  0
 26 25  1  0  0  0  0
 26 22  1  0  0  0  0
 27 26  1  0  0  0  0
 28 42  1  6  0  0  0
 29 30  1  0  0  0  0
 29 28  1  0  0  0  0
 31 30  1  0  0  0  0
 32 33  1  0  0  0  0
 33 35  1  0  0  0  0
 34 37  1  0  0  0  0
 34 33  2  0  0  0  0
 35 38  2  0  0  0  0
 35 31  1  0  0  0  0
 36 38  1  0  0  0  0
 37 36  2  0  0  0  0
 38 40  1  0  0  0  0
 40 39  1  0  0  0  0
 41 40  1  0  0  0  0
 41 39  1  0  0  0  0
 43 42  1  0  0  0  0
 44 46  1  0  0  0  0
 44 43  1  0  0  0  0
 45 49  1  0  0  0  0
 45 50  1  0  0  0  0
 46 48  1  0  0  0  0
 47 46  2  0  0  0  0
 47 51  1  0  0  0  0
 48 45  2  0  0  0  0
 51 53  1  1  0  0  0
 51 49  1  0  0  0  0
 53 52  1  0  0  0  0
M  END
>  <MODEL>
4

>  <REMARK>
 VINA RESULT:      -7.1      2.085      2.897
  Name = 
  21 active torsions:
  status: ('A' for Active; 'I' for Inactive)
    1  A    between atoms: N_6  and  C_13
    2  A    between atoms: N_6  and  C_44
    3  A    between atoms: C_11  and  C_13
    4  A    between atoms: C_11  and  N_27
    5  A    between atoms: C_11  and  C_42
    6  A    between atoms: C_12  and  C_41
    7  A    between atoms: C_14  and  C_26
    8  A    between atoms: C_14  and  O_40
    9  A    between atoms: O_20  and  C_32
   10  A    between atoms: O_20  and  N_34
   11  A    between atoms: C_21  and  C_32
   12  A    between atoms: N_22  and  C_25
   13  A    between atoms: N_28  and  N_34
   14  A    between atoms: N_28  and  C_38
   15  A    between atoms: C_32  and  O_45
   16  A    between atoms: C_36  and  C_41
   17  A    between atoms: C_36  and  O_45
   18  A    between atoms: C_37  and  O_43
   19  A    between atoms: O_40  and  C_48
   20  A    between atoms: C_44  and  C_48
   21  A    between atoms: C_49  and  C_52
                            x       y       z     vdW  Elec       q    Type
                         _______ _______ _______ _____ _____    ______ ____

>  <TORSDO>
F 21

$$$$
=
 OpenBabel10232409293D

 53 56  0  0  1  0  0  0  0  0999 V2000
  186.7110  178.9250  141.0870 C   0  0  1  0  0  3  0  0  0  0  0  0
  184.9520  179.0520  140.8210 Cl  0  0  0  0  0  0  0  0  0  0  0  0
  188.4420  176.3970  143.2160 F   0  0  0  0  0  0  0  0  0  0  0  0
  188.1340  177.2270  142.1850 C   0  0  0  0  0  0  0  0  0  0  0  0
  188.6750  178.4240  140.0620 C   0  0  2  0  0  3  0  0  0  0  0  0
  187.0380  177.9980  142.2540 C   0  0  0  0  0  0  0  0  0  0  0  0
  189.0340  177.2470  140.9790 C   0  0  1  0  0  3  0  0  0  0  0  0
  187.2810  178.4550  139.8870 O   0  0  0  0  0  0  0  0  0  0  0  0
  190.3610  177.3570  141.3970 O   0  0  0  0  0  1  0  0  0  0  0  0
  186.3190  178.0490  143.4930 N   0  0  0  0  0  0  0  0  0  0  0  0
  186.5870  178.8950  144.4020 N   0  0  0  0  0  0  0  0  0  0  0  0
  185.8340  178.9060  145.6480 C   0  0  1  0  0  3  0  0  0  0  0  0
  183.9380  179.7620  144.2700 O   0  0  0  0  0  0  0  0  0  0  0  0
  184.3660  179.0670  145.3930 C   0  0  0  0  0  0  0  0  0  0  0  0
  183.5180  178.6070  146.2050 O   0  0  0  0  0  1  0  0  0  0  0  0
  186.1230  177.6500  146.4630 C   0  0  0  0  0  2  0  0  0  0  0  0
  187.5450  177.3420  146.4690 N   0  0  0  0  0  2  0  0  0  0  0  0
  188.1100  177.9580  147.6590 C   0  0  1  0  0  3  0  0  0  0  0  0
  187.3710  177.6040  148.7740 F   0  0  0  0  0  0  0  0  0  0  0  0
  189.5560  177.5250  147.8330 C   0  0  0  0  0  2  0  0  0  0  0  0
  189.8410  176.4230  147.0080 O   0  0  0  0  0  0  0  0  0  0  0  0
  191.1420  176.5670  146.4760 C   0  0  2  0  0  3  0  0  0  0  0  0
  192.0200  177.1870  147.3750 O   0  0  0  0  0  1  0  0  0  0  0  0
  190.0230  177.9730  144.8830 F   0  0  0  0  0  0  0  0  0  0  0  0
  191.2780  176.2630  144.1130 F   0  0  0  0  0  0  0  0  0  0  0  0
  191.1720  177.2310  145.0950 C   0  0  0  0  0  0  0  0  0  0  0  0
  192.2680  178.0710  145.0190 F   0  0  0  0  0  0  0  0  0  0  0  0
  189.3600  178.2820  138.6930 C   0  0  1  0  0  3  0  0  0  0  0  0
  189.4450  176.9390  138.2960 O   0  0  0  0  0  0  0  0  0  0  0  0
  190.7590  176.7400  138.0430 N   0  0  0  0  0  2  0  0  0  0  0  0
  191.0260  175.3990  138.3450 N   0  0  0  0  0  2  0  0  0  0  0  0
  193.8730  175.5280  138.4790 C   0  0  0  0  0  1  0  0  0  0  0  0
  193.1860  174.5780  137.5560 C   0  0  0  0  0  0  0  0  0  0  0  0
  193.9440  173.7920  136.7490 N   0  0  0  0  0  0  0  0  0  0  0  0
  191.7810  174.5090  137.5020 C   0  0  0  0  0  0  0  0  0  0  0  0
  192.0060  172.7990  135.7890 C   0  0  0  0  0  3  0  0  0  0  0  0
  193.3890  172.9170  135.8730 C   0  0  0  0  0  3  0  0  0  0  0  0
  191.1790  173.5780  136.6140 C   0  0  0  0  0  0  0  0  0  0  0  0
  189.3510  172.7230  135.1840 C   0  0  0  0  0  2  0  0  0  0  0  0
  189.6850  173.4310  136.4870 C   0  0  0  0  0  3  0  0  0  0  0  0
  189.1230  174.2100  135.3050 C   0  0  0  0  0  2  0  0  0  0  0  0
  188.7650  179.0760  137.6890 O   0  0  0  0  0  0  0  0  0  0  0  0
  188.4430  178.2530  136.5950 C   0  0  0  0  0  2  0  0  0  0  0  0
  186.9850  178.4420  136.2070 C   0  0  0  0  0  2  0  0  0  0  0  0
  184.0180  176.6830  137.7690 C   0  0  0  0  0  0  0  0  0  0  0  0
  186.1380  177.3350  136.7440 C   0  0  0  0  0  0  0  0  0  0  0  0
  186.4720  176.0650  136.4910 C   0  0  0  0  0  3  0  0  0  0  0  0
  184.9120  177.6410  137.5090 C   0  0  0  0  0  3  0  0  0  0  0  0
  184.1870  175.3030  137.1870 C   0  0  0  0  0  2  0  0  0  0  0  0
  182.7970  177.0050  138.5510 C   0  0  0  0  0  1  0  0  0  0  0  0
  185.6710  174.9320  137.0800 C   0  0  1  0  0  3  0  0  0  0  0  0
  184.9640  173.9770  135.2120 C   0  0  0  0  0  1  0  0  0  0  0  0
  185.8190  173.7850  136.2990 O   0  0  0  0  0  0  0  0  0  0  0  0
  1  2  1  6  0  0  0
  1  6  1  0  0  0  0
  4  6  2  0  0  0  0
  4  3  1  0  0  0  0
  5 28  1  6  0  0  0
  5  7  1  0  0  0  0
  6 10  1  0  0  0  0
  7  9  1  1  0  0  0
  7  4  1  0  0  0  0
  8  5  1  0  0  0  0
  8  1  1  0  0  0  0
 10 11  2  0  0  0  0
 11 12  1  0  0  0  0
 12 16  1  6  0  0  0
 13 14  2  0  0  0  0
 14 12  1  0  0  0  0
 14 15  1  0  0  0  0
 16 17  1  0  0  0  0
 17 18  1  0  0  0  0
 18 20  1  0  0  0  0
 18 19  1  1  0  0  0
 21 20  1  0  0  0  0
 22 21  1  0  0  0  0
 22 23  1  1  0  0  0
 24 26  1  0  0  0  0
 25 26  1  0  0  0  0
 26 22  1  0  0  0  0
 27 26  1  0  0  0  0
 28 42  1  6  0  0  0
 29 28  1  0  0  0  0
 30 29  1  0  0  0  0
 30 31  1  0  0  0  0
 33 32  1  0  0  0  0
 34 33  2  0  0  0  0
 35 33  1  0  0  0  0
 35 31  1  0  0  0  0
 36 37  2  0  0  0  0
 36 38  1  0  0  0  0
 37 34  1  0  0  0  0
 38 35  2  0  0  0  0
 39 41  1  0  0  0  0
 39 40  1  0  0  0  0
 40 38  1  0  0  0  0
 41 40  1  0  0  0  0
 43 42  1  0  0  0  0
 44 43  1  0  0  0  0
 44 46  1  0  0  0  0
 45 50  1  0  0  0  0
 46 48  1  0  0  0  0
 47 46  2  0  0  0  0
 47 51  1  0  0  0  0
 48 45  2  0  0  0  0
 49 45  1  0  0  0  0
 51 53  1  6  0  0  0
 51 49  1  0  0  0  0
 52 53  1  0  0  0  0
M  END
>  <MODEL>
5

>  <REMARK>
 VINA RESULT:      -7.1      2.515      4.771
  Name = 
  21 active torsions:
  status: ('A' for Active; 'I' for Inactive)
    1  A    between atoms: N_6  and  C_13
    2  A    between atoms: N_6  and  C_44
    3  A    between atoms: C_11  and  C_13
    4  A    between atoms: C_11  and  N_27
    5  A    between atoms: C_11  and  C_42
    6  A    between atoms: C_12  and  C_41
    7  A    between atoms: C_14  and  C_26
    8  A    between atoms: C_14  and  O_40
    9  A    between atoms: O_20  and  C_32
   10  A    between atoms: O_20  and  N_34
   11  A    between atoms: C_21  and  C_32
   12  A    between atoms: N_22  and  C_25
   13  A    between atoms: N_28  and  N_34
   14  A    between atoms: N_28  and  C_38
   15  A    between atoms: C_32  and  O_45
   16  A    between atoms: C_36  and  C_41
   17  A    between atoms: C_36  and  O_45
   18  A    between atoms: C_37  and  O_43
   19  A    between atoms: O_40  and  C_48
   20  A    between atoms: C_44  and  C_48
   21  A    between atoms: C_49  and  C_52
                            x       y       z     vdW  Elec       q    Type
                         _______ _______ _______ _____ _____    ______ ____

>  <TORSDO>
F 21

$$$$
=
 OpenBabel10232409293D

 53 56  0  0  1  0  0  0  0  0999 V2000
  188.5180  177.3790  142.8500 C   0  0  1  0  0  3  0  0  0  0  0  0
  186.9770  176.7040  143.4410 Cl  0  0  0  0  0  0  0  0  0  0  0  0
  191.8910  175.8280  143.2170 F   0  0  0  0  0  0  0  0  0  0  0  0
  190.8120  176.4690  142.6980 C   0  0  0  0  0  0  0  0  0  0  0  0
  189.6850  177.8710  140.9660 C   0  0  2  0  0  3  0  0  0  0  0  0
  189.7180  176.6540  143.4520 C   0  0  0  0  0  0  0  0  0  0  0  0
  190.8730  176.9490  141.2720 C   0  0  1  0  0  3  0  0  0  0  0  0
  188.5090  177.2720  141.4460 O   0  0  0  0  0  0  0  0  0  0  0  0
  192.0720  177.6330  141.0680 O   0  0  0  0  0  1  0  0  0  0  0  0
  189.7870  176.3190  144.8440 N   0  0  0  0  0  0  0  0  0  0  0  0
  190.5620  176.9200  145.6510 N   0  0  0  0  0  0  0  0  0  0  0  0
  190.6040  176.5410  147.0570 C   0  0  1  0  0  3  0  0  0  0  0  0
  192.7080  175.2200  146.8260 O   0  0  0  0  0  0  0  0  0  0  0  0
  192.0000  176.2140  147.4900 C   0  0  0  0  0  0  0  0  0  0  0  0
  192.5270  176.8070  148.4700 O   0  0  0  0  0  1  0  0  0  0  0  0
  189.9930  177.6350  147.9280 C   0  0  0  0  0  2  0  0  0  0  0  0
  188.9440  178.3490  147.2170 N   0  0  0  0  0  2  0  0  0  0  0  0
  187.6800  177.7370  147.5940 C   0  0  1  0  0  3  0  0  0  0  0  0
  187.7160  177.3530  148.9230 F   0  0  0  0  0  0  0  0  0  0  0  0
  186.5390  178.7140  147.3630 C   0  0  0  0  0  2  0  0  0  0  0  0
  186.2920  178.8630  145.9880 O   0  0  0  0  0  0  0  0  0  0  0  0
  184.9330  179.2030  145.7960 C   0  0  2  0  0  3  0  0  0  0  0  0
  184.0710  178.4090  146.5640 O   0  0  0  0  0  1  0  0  0  0  0  0
  183.5800  180.2460  144.1090 F   0  0  0  0  0  0  0  0  0  0  0  0
  183.9690  178.0290  143.9550 F   0  0  0  0  0  0  0  0  0  0  0  0
  184.5130  179.2460  144.3230 C   0  0  0  0  0  0  0  0  0  0  0  0
  185.6250  179.4970  143.5400 F   0  0  0  0  0  0  0  0  0  0  0  0
  189.5550  178.1150  139.4540 C   0  0  1  0  0  3  0  0  0  0  0  0
  189.7020  176.9250  138.7250 O   0  0  0  0  0  0  0  0  0  0  0  0
  190.6380  177.2090  137.7910 N   0  0  0  0  0  2  0  0  0  0  0  0
  190.1260  176.7690  136.5640 N   0  0  0  0  0  2  0  0  0  0  0  0
  192.5850  175.6860  135.6070 C   0  0  0  0  0  1  0  0  0  0  0  0
  191.3400  174.8650  135.6380 C   0  0  0  0  0  0  0  0  0  0  0  0
  191.3890  173.5910  135.1680 N   0  0  0  0  0  0  0  0  0  0  0  0
  190.1310  175.3990  136.1230 C   0  0  0  0  0  0  0  0  0  0  0  0
  189.0770  173.2650  135.6300 C   0  0  0  0  0  3  0  0  0  0  0  0
  190.2930  172.7910  135.1500 C   0  0  0  0  0  3  0  0  0  0  0  0
  188.9790  174.5680  136.1420 C   0  0  0  0  0  0  0  0  0  0  0  0
  186.5340  174.2120  136.0280 C   0  0  0  0  0  2  0  0  0  0  0  0
  187.6430  175.0510  136.6430 C   0  0  0  0  0  3  0  0  0  0  0  0
  186.7730  175.6160  135.5280 C   0  0  0  0  0  2  0  0  0  0  0  0
  188.3670  178.7900  139.0990 O   0  0  0  0  0  0  0  0  0  0  0  0
  187.3720  177.8360  138.8210 C   0  0  0  0  0  2  0  0  0  0  0  0
  186.2790  178.4530  137.9610 C   0  0  0  0  0  2  0  0  0  0  0  0
  183.1240  176.4010  138.3730 C   0  0  0  0  0  0  0  0  0  0  0  0
  184.9250  178.0510  138.4440 C   0  0  0  0  0  0  0  0  0  0  0  0
  184.3840  178.6800  139.4930 C   0  0  0  0  0  3  0  0  0  0  0  0
  184.2050  176.9350  137.7970 C   0  0  0  0  0  3  0  0  0  0  0  0
  182.6890  176.8490  139.7440 C   0  0  0  0  0  2  0  0  0  0  0  0
  182.4050  175.2870  137.7030 C   0  0  0  0  0  1  0  0  0  0  0  0
  182.9910  178.3380  139.9550 C   0  0  1  0  0  3  0  0  0  0  0  0
  181.4590  178.7680  141.4940 C   0  0  0  0  0  1  0  0  0  0  0  0
  182.8380  178.6690  141.3020 O   0  0  0  0  0  0  0  0  0  0  0  0
  1  2  1  1  0  0  0
  1  6  1  0  0  0  0
  4  3  1  0  0  0  0
  4  6  2  0  0  0  0
  5 28  1  6  0  0  0
  5  7  1  0  0  0  0
  5  8  1  0  0  0  0
  6 10  1  0  0  0  0
  7  9  1  1  0  0  0
  7  4  1  0  0  0  0
  8  1  1  0  0  0  0
 10 11  2  0  0  0  0
 11 12  1  0  0  0  0
 12 14  1  0  0  0  0
 12 16  1  1  0  0  0
 13 14  2  0  0  0  0
 14 15  1  0  0  0  0
 17 18  1  0  0  0  0
 17 16  1  0  0  0  0
 18 19  1  1  0  0  0
 20 18  1  0  0  0  0
 21 20  1  0  0  0  0
 22 21  1  0  0  0  0
 22 23  1  1  0  0  0
 24 26  1  0  0  0  0
 25 26  1  0  0  0  0
 26 22  1  0  0  0  0
 27 26  1  0  0  0  0
 28 29  1  6  0  0  0
 30 29  1  0  0  0  0
 31 30  1  0  0  0  0
 32 33  1  0  0  0  0
 33 35  1  0  0  0  0
 34 33  2  0  0  0  0
 35 38  2  0  0  0  0
 35 31  1  0  0  0  0
 36 38  1  0  0  0  0
 37 34  1  0  0  0  0
 37 36  2  0  0  0  0
 38 40  1  0  0  0  0
 39 40  1  0  0  0  0
 41 39  1  0  0  0  0
 41 40  1  0  0  0  0
 42 28  1  0  0  0  0
 43 42  1  0  0  0  0
 44 46  1  0  0  0  0
 44 43  1  0  0  0  0
 45 49  1  0  0  0  0
 46 47  2  0  0  0  0
 47 51  1  0  0  0  0
 48 45  2  0  0  0  0
 48 46  1  0  0  0  0
 49 51  1  0  0  0  0
 50 45  1  0  0  0  0
 51 53  1  1  0  0  0
 53 52  1  0  0  0  0
M  END
>  <MODEL>
6

>  <REMARK>
 VINA RESULT:      -6.9      2.302      4.091
  Name = 
  21 active torsions:
  status: ('A' for Active; 'I' for Inactive)
    1  A    between atoms: N_6  and  C_13
    2  A    between atoms: N_6  and  C_44
    3  A    between atoms: C_11  and  C_13
    4  A    between atoms: C_11  and  N_27
    5  A    between atoms: C_11  and  C_42
    6  A    between atoms: C_12  and  C_41
    7  A    between atoms: C_14  and  C_26
    8  A    between atoms: C_14  and  O_40
    9  A    between atoms: O_20  and  C_32
   10  A    between atoms: O_20  and  N_34
   11  A    between atoms: C_21  and  C_32
   12  A    between atoms: N_22  and  C_25
   13  A    between atoms: N_28  and  N_34
   14  A    between atoms: N_28  and  C_38
   15  A    between atoms: C_32  and  O_45
   16  A    between atoms: C_36  and  C_41
   17  A    between atoms: C_36  and  O_45
   18  A    between atoms: C_37  and  O_43
   19  A    between atoms: O_40  and  C_48
   20  A    between atoms: C_44  and  C_48
   21  A    between atoms: C_49  and  C_52
                            x       y       z     vdW  Elec       q    Type
                         _______ _______ _______ _____ _____    ______ ____

>  <TORSDO>
F 21

$$$$
=
 OpenBabel10232409293D

 53 56  0  0  1  0  0  0  0  0999 V2000
  190.4000  177.0050  142.0080 C   0  0  1  0  0  3  0  0  0  0  0  0
  191.7970  177.2150  143.0960 Cl  0  0  0  0  0  0  0  0  0  0  0  0
  187.3540  179.1550  141.8870 F   0  0  0  0  0  0  0  0  0  0  0  0
  188.4200  178.4000  141.5130 C   0  0  0  0  0  0  0  0  0  0  0  0
  189.7530  177.1200  139.8350 C   0  0  2  0  0  3  0  0  0  0  0  0
  189.2110  177.8520  142.4480 C   0  0  0  0  0  0  0  0  0  0  0  0
  188.6910  178.2070  140.0450 C   0  0  1  0  0  3  0  0  0  0  0  0
  190.8250  177.3560  140.7120 O   0  0  0  0  0  0  0  0  0  0  0  0
  187.5060  177.8450  139.4020 O   0  0  0  0  0  1  0  0  0  0  0  0
  188.8030  177.9390  143.8200 N   0  0  0  0  0  0  0  0  0  0  0  0
  188.7360  176.9220  144.5770 N   0  0  0  0  0  0  0  0  0  0  0  0
  188.3090  177.0570  145.9630 C   0  0  1  0  0  3  0  0  0  0  0  0
  189.2810  177.9950  148.0600 O   0  0  0  0  0  1  0  0  0  0  0  0
  189.4760  177.3130  146.8670 C   0  0  0  0  0  0  0  0  0  0  0  0
  190.6370  176.9460  146.5400 O   0  0  0  0  0  0  0  0  0  0  0  0
  187.2520  178.1480  146.0970 C   0  0  0  0  0  2  0  0  0  0  0  0
  185.9350  177.6520  145.7290 N   0  0  0  0  0  2  0  0  0  0  0  0
  184.9900  178.7310  145.9710 C   0  0  1  0  0  3  0  0  0  0  0  0
  185.6440  179.9500  145.9510 F   0  0  0  0  0  0  0  0  0  0  0  0
  183.8930  178.7090  144.9200 C   0  0  0  0  0  2  0  0  0  0  0  0
  184.4320  178.9560  143.6450 O   0  0  0  0  0  0  0  0  0  0  0  0
  183.3780  179.2220  142.7410 C   0  0  2  0  0  3  0  0  0  0  0  0
  182.1260  178.8710  143.2630 O   0  0  0  0  0  1  0  0  0  0  0  0
  184.6200  179.3040  140.6880 F   0  0  0  0  0  0  0  0  0  0  0  0
  182.4390  178.7300  140.6030 F   0  0  0  0  0  0  0  0  0  0  0  0
  183.6030  178.6330  141.3440 C   0  0  0  0  0  0  0  0  0  0  0  0
  183.9500  177.3000  141.4640 F   0  0  0  0  0  0  0  0  0  0  0  0
  190.2670  177.1280  138.3850 C   0  0  1  0  0  3  0  0  0  0  0  0
  190.1430  175.8640  137.7880 O   0  0  0  0  0  0  0  0  0  0  0  0
  191.0930  175.1090  138.3870 N   0  0  0  0  0  2  0  0  0  0  0  0
  192.2170  175.1450  137.5540 N   0  0  0  0  0  2  0  0  0  0  0  0
  194.9530  174.5740  138.1240 C   0  0  0  0  0  1  0  0  0  0  0  0
  194.1610  173.7110  137.2010 C   0  0  0  0  0  0  0  0  0  0  0  0
  194.7780  172.6580  136.6040 N   0  0  0  0  0  0  0  0  0  0  0  0
  192.8070  173.9880  136.9320 C   0  0  0  0  0  0  0  0  0  0  0  0
  192.7840  172.0610  135.4510 C   0  0  0  0  0  3  0  0  0  0  0  0
  194.1260  171.8390  135.7410 C   0  0  0  0  0  3  0  0  0  0  0  0
  192.0970  173.1260  136.0560 C   0  0  0  0  0  0  0  0  0  0  0  0
  190.3510  172.7290  134.3490 C   0  0  0  0  0  2  0  0  0  0  0  0
  190.6470  173.3410  135.7080 C   0  0  0  0  0  3  0  0  0  0  0  0
  190.4680  174.2280  134.4830 C   0  0  0  0  0  2  0  0  0  0  0  0
  189.6720  178.1310  137.5900 O   0  0  0  0  0  0  0  0  0  0  0  0
  189.3420  177.5780  136.3390 C   0  0  0  0  0  2  0  0  0  0  0  0
  187.9590  178.0430  135.9080 C   0  0  0  0  0  2  0  0  0  0  0  0
  186.5270  174.6140  136.6320 C   0  0  0  0  0  0  0  0  0  0  0  0
  186.9510  176.9540  136.0690 C   0  0  0  0  0  0  0  0  0  0  0  0
  185.6500  177.2580  136.1090 C   0  0  0  0  0  3  0  0  0  0  0  0
  187.3900  175.5520  136.2320 C   0  0  0  0  0  3  0  0  0  0  0  0
  185.1240  174.9880  137.0350 C   0  0  0  0  0  2  0  0  0  0  0  0
  186.9810  173.2070  136.7780 C   0  0  0  0  0  1  0  0  0  0  0  0
  184.6120  176.1690  136.2020 C   0  0  1  0  0  3  0  0  0  0  0  0
  183.6670  176.6710  138.1400 C   0  0  0  0  0  1  0  0  0  0  0  0
  183.4370  176.6740  136.7630 O   0  0  0  0  0  0  0  0  0  0  0  0
  1  6  1  0  0  0  0
  1  2  1  1  0  0  0
  4  3  1  0  0  0  0
  4  6  2  0  0  0  0
  5 28  1  6  0  0  0
  5  7  1  0  0  0  0
  5  8  1  0  0  0  0
  6 10  1  0  0  0  0
  7  9  1  6  0  0  0
  7  4  1  0  0  0  0
  8  1  1  0  0  0  0
 10 11  2  0  0  0  0
 11 12  1  0  0  0  0
 12 16  1  6  0  0  0
 12 14  1  0  0  0  0
 14 13  1  0  0  0  0
 15 14  2  0  0  0  0
 17 18  1  0  0  0  0
 17 16  1  0  0  0  0
 18 19  1  6  0  0  0
 20 18  1  0  0  0  0
 21 20  1  0  0  0  0
 22 23  1  1  0  0  0
 22 21  1  0  0  0  0
 24 26  1  0  0  0  0
 25 26  1  0  0  0  0
 26 27  1  0  0  0  0
 26 22  1  0  0  0  0
 28 42  1  6  0  0  0
 29 28  1  0  0  0  0
 29 30  1  0  0  0  0
 31 30  1  0  0  0  0
 33 32  1  0  0  0  0
 34 33  2  0  0  0  0
 35 33  1  0  0  0  0
 35 31  1  0  0  0  0
 36 37  2  0  0  0  0
 36 38  1  0  0  0  0
 37 34  1  0  0  0  0
 38 35  2  0  0  0  0
 39 41  1  0  0  0  0
 39 40  1  0  0  0  0
 40 38  1  0  0  0  0
 41 40  1  0  0  0  0
 43 42  1  0  0  0  0
 44 46  1  0  0  0  0
 44 43  1  0  0  0  0
 45 50  1  0  0  0  0
 45 49  1  0  0  0  0
 46 47  2  0  0  0  0
 46 48  1  0  0  0  0
 47 51  1  0  0  0  0
 48 45  2  0  0  0  0
 51 53  1  1  0  0  0
 51 49  1  0  0  0  0
 53 52  1  0  0  0  0
M  END
>  <MODEL>
7

>  <REMARK>
 VINA RESULT:      -6.8      1.864      2.996
  Name = 
  21 active torsions:
  status: ('A' for Active; 'I' for Inactive)
    1  A    between atoms: N_6  and  C_13
    2  A    between atoms: N_6  and  C_44
    3  A    between atoms: C_11  and  C_13
    4  A    between atoms: C_11  and  N_27
    5  A    between atoms: C_11  and  C_42
    6  A    between atoms: C_12  and  C_41
    7  A    between atoms: C_14  and  C_26
    8  A    between atoms: C_14  and  O_40
    9  A    between atoms: O_20  and  C_32
   10  A    between atoms: O_20  and  N_34
   11  A    between atoms: C_21  and  C_32
   12  A    between atoms: N_22  and  C_25
   13  A    between atoms: N_28  and  N_34
   14  A    between atoms: N_28  and  C_38
   15  A    between atoms: C_32  and  O_45
   16  A    between atoms: C_36  and  C_41
   17  A    between atoms: C_36  and  O_45
   18  A    between atoms: C_37  and  O_43
   19  A    between atoms: O_40  and  C_48
   20  A    between atoms: C_44  and  C_48
   21  A    between atoms: C_49  and  C_52
                            x       y       z     vdW  Elec       q    Type
                         _______ _______ _______ _____ _____    ______ ____

>  <TORSDO>
F 21

$$$$
=
 OpenBabel10232409293D

 53 56  0  0  1  0  0  0  0  0999 V2000
  192.3610  177.1720  139.1130 C   0  0  1  0  0  3  0  0  0  0  0  0
  193.9390  176.7000  139.7970 Cl  0  0  0  0  0  0  0  0  0  0  0  0
  190.2230  175.1010  136.8640 F   0  0  0  0  0  0  0  0  0  0  0  0
  190.6270  175.9360  137.8580 C   0  0  0  0  0  0  0  0  0  0  0  0
  190.2010  177.6130  139.6570 C   0  0  2  0  0  3  0  0  0  0  0  0
  191.9290  176.2310  137.9930 C   0  0  0  0  0  0  0  0  0  0  0  0
  189.5920  176.5000  138.7930 C   0  0  1  0  0  3  0  0  0  0  0  0
  191.4310  177.1690  140.1710 O   0  0  0  0  0  0  0  0  0  0  0  0
  188.5260  177.0060  138.0480 O   0  0  0  0  0  1  0  0  0  0  0  0
  192.8360  175.7910  136.9740 N   0  0  0  0  0  0  0  0  0  0  0  0
  193.7760  176.5250  136.5360 N   0  0  0  0  0  0  0  0  0  0  0  0
  194.6700  176.0390  135.4940 C   0  0  1  0  0  3  0  0  0  0  0  0
  196.8350  176.7290  134.4650 O   0  0  0  0  0  0  0  0  0  0  0  0
  195.6450  177.0970  135.0780 C   0  0  0  0  0  0  0  0  0  0  0  0
  195.4120  178.3140  135.3100 O   0  0  0  0  0  1  0  0  0  0  0  0
  195.3860  174.7700  135.9470 C   0  0  0  0  0  2  0  0  0  0  0  0
  195.8690  174.8980  137.3130 N   0  0  0  0  0  2  0  0  0  0  0  0
  195.9490  173.5540  137.8650 C   0  0  1  0  0  3  0  0  0  0  0  0
  195.4390  173.5380  139.1510 F   0  0  0  0  0  0  0  0  0  0  0  0
  195.1800  172.5830  136.9860 C   0  0  0  0  0  2  0  0  0  0  0  0
  196.0590  171.6640  136.3860 O   0  0  0  0  0  0  0  0  0  0  0  0
  196.6650  170.8780  137.3920 C   0  0  2  0  0  3  0  0  0  0  0  0
  198.0020  170.5740  137.1000 O   0  0  0  0  0  1  0  0  0  0  0  0
  195.4280  168.9680  136.6270 F   0  0  0  0  0  0  0  0  0  0  0  0
  194.7650  169.9860  138.5290 F   0  0  0  0  0  0  0  0  0  0  0  0
  195.8610  169.6270  137.7640 C   0  0  0  0  0  0  0  0  0  0  0  0
  196.6630  168.7740  138.4990 F   0  0  0  0  0  0  0  0  0  0  0  0
  189.2640  177.9820  140.8180 C   0  0  1  0  0  3  0  0  0  0  0  0
  188.2550  178.8650  140.4060 O   0  0  0  0  0  0  0  0  0  0  0  0
  187.1730  178.5160  141.1400 N   0  0  0  0  0  2  0  0  0  0  0  0
  186.0790  179.1930  140.5880 N   0  0  0  0  0  2  0  0  0  0  0  0
  184.5340  178.2890  138.3680 C   0  0  0  0  0  1  0  0  0  0  0  0
  183.9330  178.4110  139.7280 C   0  0  0  0  0  0  0  0  0  0  0  0
  182.6170  178.1130  139.8870 N   0  0  0  0  0  0  0  0  0  0  0  0
  184.7030  178.8450  140.8240 C   0  0  0  0  0  0  0  0  0  0  0  0
  182.7160  178.6270  142.2090 C   0  0  0  0  0  3  0  0  0  0  0  0
  181.9990  178.2150  141.0910 C   0  0  0  0  0  3  0  0  0  0  0  0
  184.0830  178.9290  142.0990 C   0  0  0  0  0  0  0  0  0  0  0  0
  184.5780  178.4020  144.4650 C   0  0  0  0  0  2  0  0  0  0  0  0
  184.8250  179.3830  143.3290 C   0  0  0  0  0  3  0  0  0  0  0  0
  183.8870  179.7440  144.4740 C   0  0  0  0  0  2  0  0  0  0  0  0
  188.7220  176.8560  141.4750 O   0  0  0  0  0  0  0  0  0  0  0  0
  189.3460  176.7210  142.7290 C   0  0  0  0  0  2  0  0  0  0  0  0
  188.3000  176.6250  143.8280 C   0  0  0  0  0  2  0  0  0  0  0  0
  188.3920  177.7230  147.4510 C   0  0  0  0  0  0  0  0  0  0  0  0
  188.8520  177.0820  145.1380 C   0  0  0  0  0  0  0  0  0  0  0  0
  190.1690  177.0140  145.3590 C   0  0  0  0  0  3  0  0  0  0  0  0
  187.9450  177.5600  146.2020 C   0  0  0  0  0  3  0  0  0  0  0  0
  189.7930  177.3120  147.8200 C   0  0  0  0  0  2  0  0  0  0  0  0
  187.4700  178.2170  148.5050 C   0  0  0  0  0  1  0  0  0  0  0  0
  190.7560  177.5330  146.6470 C   0  0  1  0  0  3  0  0  0  0  0  0
  191.9510  175.7430  146.1290 C   0  0  0  0  0  1  0  0  0  0  0  0
  191.9740  176.9030  146.9060 O   0  0  0  0  0  0  0  0  0  0  0  0
  1  2  1  1  0  0  0
  1  8  1  0  0  0  0
  3  4  1  0  0  0  0
  4  6  2  0  0  0  0
  4  7  1  0  0  0  0
  5  8  1  0  0  0  0
  5 28  1  1  0  0  0
  6  1  1  0  0  0  0
  7  9  1  6  0  0  0
  7  5  1  0  0  0  0
 10  6  1  0  0  0  0
 11 10  2  0  0  0  0
 12 16  1  1  0  0  0
 12 11  1  0  0  0  0
 13 14  2  0  0  0  0
 14 15  1  0  0  0  0
 14 12  1  0  0  0  0
 16 17  1  0  0  0  0
 17 18  1  0  0  0  0
 18 19  1  1  0  0  0
 20 18  1  0  0  0  0
 21 20  1  0  0  0  0
 21 22  1  0  0  0  0
 22 23  1  6  0  0  0
 22 26  1  0  0  0  0
 24 26  1  0  0  0  0
 26 27  1  0  0  0  0
 26 25  1  0  0  0  0
 28 29  1  6  0  0  0
 28 42  1  0  0  0  0
 29 30  1  0  0  0  0
 31 35  1  0  0  0  0
 31 30  1  0  0  0  0
 32 33  1  0  0  0  0
 33 34  2  0  0  0  0
 33 35  1  0  0  0  0
 34 37  1  0  0  0  0
 35 38  2  0  0  0  0
 37 36  2  0  0  0  0
 38 36  1  0  0  0  0
 38 40  1  0  0  0  0
 39 41  1  0  0  0  0
 40 39  1  0  0  0  0
 40 41  1  0  0  0  0
 42 43  1  0  0  0  0
 43 44  1  0  0  0  0
 44 46  1  0  0  0  0
 45 49  1  0  0  0  0
 45 50  1  0  0  0  0
 46 47  2  0  0  0  0
 46 48  1  0  0  0  0
 47 51  1  0  0  0  0
 48 45  2  0  0  0  0
 51 53  1  1  0  0  0
 51 49  1  0  0  0  0
 52 53  1  0  0  0  0
M  END
>  <MODEL>
8

>  <REMARK>
 VINA RESULT:      -6.7      4.611     11.764
  Name = 
  21 active torsions:
  status: ('A' for Active; 'I' for Inactive)
    1  A    between atoms: N_6  and  C_13
    2  A    between atoms: N_6  and  C_44
    3  A    between atoms: C_11  and  C_13
    4  A    between atoms: C_11  and  N_27
    5  A    between atoms: C_11  and  C_42
    6  A    between atoms: C_12  and  C_41
    7  A    between atoms: C_14  and  C_26
    8  A    between atoms: C_14  and  O_40
    9  A    between atoms: O_20  and  C_32
   10  A    between atoms: O_20  and  N_34
   11  A    between atoms: C_21  and  C_32
   12  A    between atoms: N_22  and  C_25
   13  A    between atoms: N_28  and  N_34
   14  A    between atoms: N_28  and  C_38
   15  A    between atoms: C_32  and  O_45
   16  A    between atoms: C_36  and  C_41
   17  A    between atoms: C_36  and  O_45
   18  A    between atoms: C_37  and  O_43
   19  A    between atoms: O_40  and  C_48
   20  A    between atoms: C_44  and  C_48
   21  A    between atoms: C_49  and  C_52
                            x       y       z     vdW  Elec       q    Type
                         _______ _______ _______ _____ _____    ______ ____

>  <TORSDO>
F 21

$$$$
=
 OpenBabel10232409293D

 53 56  0  0  1  0  0  0  0  0999 V2000
  190.2300  177.3020  138.5980 C   0  0  1  0  0  3  0  0  0  0  0  0
  191.5990  176.2030  138.9120 Cl  0  0  0  0  0  0  0  0  0  0  0  0
  187.2910  176.5950  136.4120 F   0  0  0  0  0  0  0  0  0  0  0  0
  188.0580  177.0090  137.4550 C   0  0  0  0  0  0  0  0  0  0  0  0
  188.4280  178.2850  139.5680 C   0  0  2  0  0  3  0  0  0  0  0  0
  189.3870  176.8270  137.4190 C   0  0  0  0  0  0  0  0  0  0  0  0
  187.3850  177.6530  138.6370 C   0  0  1  0  0  3  0  0  0  0  0  0
  189.4660  177.3630  139.7800 O   0  0  0  0  0  0  0  0  0  0  0  0
  186.4970  178.6310  138.1840 O   0  0  0  0  0  1  0  0  0  0  0  0
  189.9770  176.3580  136.1990 N   0  0  0  0  0  0  0  0  0  0  0  0
  190.4630  175.1910  136.0830 N   0  0  0  0  0  0  0  0  0  0  0  0
  191.0590  174.7600  134.8260 C   0  0  1  0  0  3  0  0  0  0  0  0
  193.1380  176.1380  134.8970 O   0  0  0  0  0  1  0  0  0  0  0  0
  192.5520  174.8790  134.8650 C   0  0  0  0  0  0  0  0  0  0  0  0
  193.2820  173.8510  134.8330 O   0  0  0  0  0  0  0  0  0  0  0  0
  190.6240  173.3390  134.4830 C   0  0  0  0  0  2  0  0  0  0  0  0
  189.4800  172.9310  135.2830 N   0  0  0  0  0  2  0  0  0  0  0  0
  188.7800  171.8990  134.5350 C   0  0  1  0  0  3  0  0  0  0  0  0
  188.8940  170.6820  135.1830 F   0  0  0  0  0  0  0  0  0  0  0  0
  187.3150  172.2720  134.3770 C   0  0  0  0  0  2  0  0  0  0  0  0
  186.6120  172.0070  135.5650 O   0  0  0  0  0  0  0  0  0  0  0  0
  185.7190  173.0720  135.8220 C   0  0  2  0  0  3  0  0  0  0  0  0
  185.8170  174.0920  134.8650 O   0  0  0  0  0  1  0  0  0  0  0  0
  185.0730  174.7840  137.3760 F   0  0  0  0  0  0  0  0  0  0  0  0
  187.1270  173.8710  137.5760 F   0  0  0  0  0  0  0  0  0  0  0  0
  185.8060  173.6180  137.2510 C   0  0  0  0  0  0  0  0  0  0  0  0
  185.3000  172.6750  138.1280 F   0  0  0  0  0  0  0  0  0  0  0  0
  187.7990  178.6670  140.9180 C   0  0  1  0  0  3  0  0  0  0  0  0
  186.6550  177.9010  141.1880 O   0  0  0  0  0  0  0  0  0  0  0  0
  185.6540  178.8060  141.2950 N   0  0  0  0  0  2  0  0  0  0  0  0
  184.4550  178.0880  141.2150 N   0  0  0  0  0  2  0  0  0  0  0  0
  182.6310  178.8410  139.1560 C   0  0  0  0  0  1  0  0  0  0  0  0
  182.2720  178.9870  140.5960 C   0  0  0  0  0  0  0  0  0  0  0  0
  181.0640  179.5210  140.9150 N   0  0  0  0  0  0  0  0  0  0  0  0
  183.1700  178.6020  141.6100 C   0  0  0  0  0  0  0  0  0  0  0  0
  181.5190  179.3230  143.2420 C   0  0  0  0  0  3  0  0  0  0  0  0
  180.6750  179.6980  142.2030 C   0  0  0  0  0  3  0  0  0  0  0  0
  182.7710  178.7510  142.9650 C   0  0  0  0  0  0  0  0  0  0  0  0
  183.3490  179.2440  145.3190 C   0  0  0  0  0  2  0  0  0  0  0  0
  183.6630  178.3680  144.1170 C   0  0  0  0  0  3  0  0  0  0  0  0
  184.6070  179.4930  144.5210 C   0  0  0  0  0  2  0  0  0  0  0  0
  188.7140  178.6180  141.9920 O   0  0  0  0  0  0  0  0  0  0  0  0
  188.6380  177.3480  142.5910 C   0  0  0  0  0  2  0  0  0  0  0  0
  187.8170  177.4190  143.8700 C   0  0  0  0  0  2  0  0  0  0  0  0
  188.8480  177.7100  147.5010 C   0  0  0  0  0  0  0  0  0  0  0  0
  188.6990  177.4760  145.0730 C   0  0  0  0  0  0  0  0  0  0  0  0
  189.9780  177.1010  144.9730 C   0  0  0  0  0  3  0  0  0  0  0  0
  188.1500  177.9000  146.3780 C   0  0  0  0  0  3  0  0  0  0  0  0
  190.1530  176.9580  147.4710 C   0  0  0  0  0  2  0  0  0  0  0  0
  188.2880  178.1530  148.8030 C   0  0  0  0  0  1  0  0  0  0  0  0
  190.9030  177.2150  146.1570 C   0  0  1  0  0  3  0  0  0  0  0  0
  192.1010  175.7410  147.2930 C   0  0  0  0  0  1  0  0  0  0  0  0
  191.9600  176.3130  146.0280 O   0  0  0  0  0  0  0  0  0  0  0  0
  1  2  1  1  0  0  0
  1  8  1  0  0  0  0
  3  4  1  0  0  0  0
  4  7  1  0  0  0  0
  5  8  1  0  0  0  0
  5 28  1  1  0  0  0
  6  4  2  0  0  0  0
  6  1  1  0  0  0  0
  7  9  1  6  0  0  0
  7  5  1  0  0  0  0
 10  6  1  0  0  0  0
 11 10  2  0  0  0  0
 12 16  1  1  0  0  0
 12 14  1  0  0  0  0
 12 11  1  0  0  0  0
 14 13  1  0  0  0  0
 15 14  2  0  0  0  0
 16 17  1  0  0  0  0
 18 19  1  1  0  0  0
 18 17  1  0  0  0  0
 20 18  1  0  0  0  0
 20 21  1  0  0  0  0
 21 22  1  0  0  0  0
 22 23  1  6  0  0  0
 22 26  1  0  0  0  0
 26 24  1  0  0  0  0
 26 25  1  0  0  0  0
 26 27  1  0  0  0  0
 28 29  1  1  0  0  0
 28 42  1  0  0  0  0
 29 30  1  0  0  0  0
 31 30  1  0  0  0  0
 31 35  1  0  0  0  0
 32 33  1  0  0  0  0
 33 34  2  0  0  0  0
 33 35  1  0  0  0  0
 34 37  1  0  0  0  0
 35 38  2  0  0  0  0
 37 36  2  0  0  0  0
 38 36  1  0  0  0  0
 38 40  1  0  0  0  0
 40 41  1  0  0  0  0
 40 39  1  0  0  0  0
 41 39  1  0  0  0  0
 42 43  1  0  0  0  0
 43 44  1  0  0  0  0
 44 46  1  0  0  0  0
 45 50  1  0  0  0  0
 46 48  1  0  0  0  0
 47 46  2  0  0  0  0
 47 51  1  0  0  0  0
 48 45  2  0  0  0  0
 49 45  1  0  0  0  0
 51 53  1  6  0  0  0
 51 49  1  0  0  0  0
 53 52  1  0  0  0  0
M  END
>  <MODEL>
9

>  <REMARK>
 VINA RESULT:      -6.7      3.513     10.353
  Name = 
  21 active torsions:
  status: ('A' for Active; 'I' for Inactive)
    1  A    between atoms: N_6  and  C_13
    2  A    between atoms: N_6  and  C_44
    3  A    between atoms: C_11  and  C_13
    4  A    between atoms: C_11  and  N_27
    5  A    between atoms: C_11  and  C_42
    6  A    between atoms: C_12  and  C_41
    7  A    between atoms: C_14  and  C_26
    8  A    between atoms: C_14  and  O_40
    9  A    between atoms: O_20  and  C_32
   10  A    between atoms: O_20  and  N_34
   11  A    between atoms: C_21  and  C_32
   12  A    between atoms: N_22  and  C_25
   13  A    between atoms: N_28  and  N_34
   14  A    between atoms: N_28  and  C_38
   15  A    between atoms: C_32  and  O_45
   16  A    between atoms: C_36  and  C_41
   17  A    between atoms: C_36  and  O_45
   18  A    between atoms: C_37  and  O_43
   19  A    between atoms: O_40  and  C_48
   20  A    between atoms: C_44  and  C_48
   21  A    between atoms: C_49  and  C_52
                            x       y       z     vdW  Elec       q    Type
                         _______ _______ _______ _____ _____    ______ ____

>  <TORSDO>
F 21

$$$$
