=
 OpenBabel10232412123D

 68 74  0  0  1  0  0  0  0  0999 V2000
  190.9060  175.2620  137.4620 C   0  0  1  0  0  3  0  0  0  0  0  0
  187.9900  178.1260  136.0610 C   0  0  0  0  0  2  0  0  0  0  0  0
  189.0630  177.7310  135.0560 C   0  0  0  0  0  2  0  0  0  0  0  0
  188.6010  178.3850  137.4520 C   0  0  2  0  0  3  0  0  0  0  0  0
  189.7090  176.3930  135.4450 C   0  0  0  0  0  2  0  0  0  0  0  0
  189.8720  177.5660  137.7000 C   0  0  0  0  0  2  0  0  0  0  0  0
  189.8080  176.2240  136.9740 C   0  0  2  0  0  3  0  0  0  0  0  0
  187.5740  178.0690  138.5300 C   0  0  0  0  0  2  0  0  0  0  0  0
  186.2470  178.7530  138.2720 C   0  0  0  0  0  2  0  0  0  0  0  0
  183.8640  178.5650  138.9840 C   0  0  1  0  0  0  0  0  0  0  0  0
  185.0810  177.8200  138.5750 C   0  0  1  0  0  3  0  0  0  0  0  0
  183.9100  179.9670  139.0710 O   0  0  0  0  0  1  0  0  0  0  0  0
  184.0170  178.0820  137.6770 O   0  0  0  0  0  0  0  0  0  0  0  0
  182.8990  177.8720  139.7460 O   0  0  0  0  0  0  0  0  0  0  0  0
  181.7210  177.7690  138.9720 C   0  0  2  0  0  3  0  0  0  0  0  0
  180.2140  179.6430  138.8280 O   0  0  0  0  0  0  0  0  0  0  0  0
  180.6440  178.6680  139.5110 C   0  0  0  0  0  0  0  0  0  0  0  0
  180.1300  178.4350  140.7790 O   0  0  0  0  0  1  0  0  0  0  0  0
  182.3370  175.3970  139.0030 O   0  0  0  0  0  1  0  0  0  0  0  0
  181.2790  176.2900  138.8030 C   0  0  2  0  0  3  0  0  0  0  0  0
  184.6790  174.8480  135.5750 N   0  0  0  0  0  0  0  0  0  0  0  0
  184.4360  173.4230  135.4230 C   0  0  0  0  0  2  0  0  0  0  0  0
  182.2840  175.2100  135.8000 C   0  0  1  0  0  0  0  0  0  0  0  0
  180.9620  172.3890  137.7680 O   0  0  0  0  0  0  0  0  0  0  0  0
  179.9820  174.5500  137.5100 C   0  0  0  0  0  2  0  0  0  0  0  0
  181.3570  176.2730  136.2470 C   0  0  2  0  0  0  0  0  0  0  0  0
  185.8480  175.1750  134.7750 C   0  0  0  0  0  1  0  0  0  0  0  0
  181.0740  173.5460  137.2770 C   0  0  0  0  0  0  0  0  0  0  0  0
  180.5110  175.9910  137.5030 C   0  0  2  0  0  3  0  0  0  0  0  0
  182.2020  173.8800  136.4360 N   0  0  0  0  0  0  0  0  0  0  0  0
  181.0960  175.4990  135.0950 O   0  0  0  0  0  0  0  0  0  0  0  0
  183.5360  175.5340  134.9870 C   0  0  0  0  0  2  0  0  0  0  0  0
  181.6920  177.5890  135.9220 O   0  0  0  0  0  1  0  0  0  0  0  0
  183.3480  172.9650  136.4050 C   0  0  0  0  0  2  0  0  0  0  0  0
  191.2220  174.3080  136.4730 O   0  0  0  0  0  0  0  0  0  0  0  0
  190.4740  173.1670  136.7980 C   0  0  0  0  0  1  0  0  0  0  0  0
  192.1760  175.9190  138.0410 C   0  0  1  0  0  3  0  0  0  0  0  0
  192.8510  176.7440  136.9570 C   0  0  0  0  0  2  0  0  0  0  0  0
  194.1740  176.1000  136.5750 C   0  0  0  0  0  2  0  0  0  0  0  0
  194.5430  175.1050  137.5750 N   0  0  0  0  0  2  0  0  0  0  0  0
  196.0160  174.3040  137.0500 P   0  0  1  0  0  0  0  0  0  0  0  0
  198.2640  173.7270  137.9640 C   0  0  0  0  0  2  0  0  0  0  0  0
  199.2870  174.3120  136.9830 C   0  0  0  0  0  2  0  0  0  0  0  0
  197.7860  174.4140  135.2830 C   0  0  0  0  0  2  0  0  0  0  0  0
  196.4960  174.9030  135.5170 O   0  0  0  0  0  0  0  0  0  0  0  0
  198.7130  175.1690  136.0190 O   0  0  0  0  0  0  0  0  0  0  0  0
  197.2260  174.6300  138.2100 O   0  0  0  0  0  0  0  0  0  0  0  0
  195.7550  172.8120  136.9700 O   0  0  0  0  0  0  0  0  0  0  0  0
  191.8660  176.8060  139.2430 C   0  0  0  0  0  2  0  0  0  0  0  0
  191.0210  176.0730  140.1740 N   0  0  0  0  0  2  0  0  0  0  0  0
  190.7760  176.5120  141.5030 C   0  0  0  0  0  0  0  0  0  0  0  0
  190.1100  175.7660  142.2710 O   0  0  0  0  0  0  0  0  0  0  0  0
  191.3120  177.8050  141.9810 C   0  0  0  0  0  3  0  0  0  0  0  0
  191.2550  178.2790  143.2320 C   0  0  0  0  0  3  0  0  0  0  0  0
  190.6360  177.5540  144.3800 C   0  0  0  0  0  2  0  0  0  0  0  0
  191.7220  176.9180  145.2350 C   0  0  0  0  0  2  0  0  0  0  0  0
  191.5290  177.3130  146.5650 O   0  0  0  0  0  0  0  0  0  0  0  0
  190.0180  175.6520  147.1670 O   0  0  0  0  0  1  0  0  0  0  0  0
  190.1950  177.0200  146.9340 C   0  0  1  0  0  3  0  0  0  0  0  0
  189.7830  177.7750  148.0430 O   0  0  0  0  0  0  0  0  0  0  0  0
  187.9060  178.1760  149.2860 O   0  0  0  0  0  1  0  0  0  0  0  0
  188.3940  177.6450  148.0890 C   0  0  1  0  0  3  0  0  0  0  0  0
  187.7830  178.4110  146.9220 C   0  0  1  0  0  3  0  0  0  0  0  0
  187.4870  177.5250  145.8660 O   0  0  0  0  0  0  0  0  0  0  0  0
  186.4070  177.9430  146.6720 C   0  0  2  0  0  3  0  0  0  0  0  0
  185.6300  179.0180  145.9440 C   0  0  0  0  0  2  0  0  0  0  0  0
  184.8680  178.3870  144.7980 C   0  0  0  0  0  2  0  0  0  0  0  0
  185.3420  178.9370  143.5370 N   0  0  0  0  0  1  0  0  0  0  0  0
  1 35  1  6  0  0  0
  1 37  1  0  0  0  0
  2  4  1  0  0  0  0
  3  5  1  0  0  0  0
  3  2  1  0  0  0  0
  4  6  1  0  0  0  0
  4  8  1  1  0  0  0
  5  7  1  0  0  0  0
  7  1  1  6  0  0  0
  7  6  1  0  0  0  0
  9  8  1  0  0  0  0
 10 12  1  1  0  0  0
 10 14  1  0  0  0  0
 11  9  1  6  0  0  0
 11 10  1  0  0  0  0
 13 11  1  0  0  0  0
 13 10  1  0  0  0  0
 15 17  1  1  0  0  0
 15 14  1  0  0  0  0
 16 17  2  0  0  0  0
 17 18  1  0  0  0  0
 20 15  1  0  0  0  0
 20 19  1  6  0  0  0
 22 21  1  0  0  0  0
 22 34  1  0  0  0  0
 23 32  1  6  0  0  0
 23 26  1  0  0  0  0
 23 30  1  0  0  0  0
 26 33  1  6  0  0  0
 26 29  1  0  0  0  0
 27 21  1  0  0  0  0
 28 25  1  0  0  0  0
 28 24  2  0  0  0  0
 29 25  1  0  0  0  0
 29 20  1  1  0  0  0
 30 28  1  0  0  0  0
 31 23  1  0  0  0  0
 31 26  1  0  0  0  0
 32 21  1  0  0  0  0
 34 30  1  0  0  0  0
 35 36  1  0  0  0  0
 37 38  1  6  0  0  0
 37 49  1  0  0  0  0
 39 38  1  0  0  0  0
 39 40  1  0  0  0  0
 41 48  2  6  0  0  0
 41 40  1  0  0  0  0
 41 47  1  0  0  0  0
 42 47  1  0  0  0  0
 43 42  1  0  0  0  0
 44 45  1  0  0  0  0
 44 46  1  0  0  0  0
 45 41  1  0  0  0  0
 46 43  1  0  0  0  0
 49 50  1  0  0  0  0
 50 51  1  0  0  0  0
 51 53  1  0  0  0  0
 51 52  2  0  0  0  0
 53 54  2  0  0  0  0
 54 55  1  0  0  0  0
 55 56  1  0  0  0  0
 56 57  1  0  0  0  0
 57 59  1  0  0  0  0
 59 58  1  1  0  0  0
 59 60  1  0  0  0  0
 60 62  1  0  0  0  0
 62 61  1  1  0  0  0
 63 62  1  1  0  0  0
 64 65  1  0  0  0  0
 64 63  1  0  0  0  0
 65 66  1  6  0  0  0
 65 63  1  0  0  0  0
 67 66  1  0  0  0  0
 68 67  1  0  0  0  0
M  END
>  <MODEL>
1

>  <REMARK>
 VINA RESULT:      -5.8      0.000      0.000
  Name = 
  27 active torsions:
  status: ('A' for Active; 'I' for Inactive)
    1  A    between atoms: C_1  and  C_48
    2  A    between atoms: P_2  and  N_22
    3  A    between atoms: O_3  and  C_5
    4  A    between atoms: O_3  and  C_62
    5  A    between atoms: C_4  and  C_9
    6  A    between atoms: C_4  and  N_31
    7  A    between atoms: O_8  and  C_66
    8  A    between atoms: C_9  and  C_33
    9  A    between atoms: C_9  and  C_66
   10  A    between atoms: C_10  and  C_49
   11  A    between atoms: C_12  and  C_42
   12  A    between atoms: C_13  and  C_34
   13  A    between atoms: C_17  and  C_34
   14  A    between atoms: N_22  and  C_51
   15  A    between atoms: C_24  and  C_39
   16  A    between atoms: C_28  and  C_44
   17  A    between atoms: C_28  and  C_62
   18  A    between atoms: C_29  and  O_52
   19  A    between atoms: C_29  and  O_56
   20  A    between atoms: C_32  and  C_67
   21  A    between atoms: C_33  and  C_51
   22  A    between atoms: C_37  and  C_62
   23  A    between atoms: C_39  and  C_53
   24  A    between atoms: C_47  and  C_66
   25  A    between atoms: C_48  and  O_52
   26  A    between atoms: C_49  and  C_67
   27  A    between atoms: C_53  and  O_56
                            x       y       z     vdW  Elec       q    Type
                         _______ _______ _______ _____ _____    ______ ____

>  <TORSDO>
F 27

$$$$
=
 OpenBabel10232412123D

 68 74  0  0  1  0  0  0  0  0999 V2000
  187.8350  177.3420  145.6800 C   0  0  1  0  0  3  0  0  0  0  0  0
  191.8500  176.3530  144.4280 C   0  0  0  0  0  2  0  0  0  0  0  0
  191.6250  176.4160  145.9320 C   0  0  0  0  0  2  0  0  0  0  0  0
  191.1770  177.5420  143.7150 C   0  0  2  0  0  3  0  0  0  0  0  0
  190.1330  176.2670  146.2670 C   0  0  0  0  0  2  0  0  0  0  0  0
  189.9430  178.0570  144.4650 C   0  0  0  0  0  2  0  0  0  0  0  0
  189.2350  176.9210  145.1980 C   0  0  2  0  0  3  0  0  0  0  0  0
  190.7810  177.1360  142.3030 C   0  0  0  0  0  2  0  0  0  0  0  0
  191.7450  177.6700  141.2640 C   0  0  0  0  0  2  0  0  0  0  0  0
  192.1280  176.5130  139.0870 C   0  0  1  0  0  0  0  0  0  0  0  0
  192.4520  176.5340  140.5360 C   0  0  1  0  0  3  0  0  0  0  0  0
  191.2380  177.4690  138.5660 O   0  0  0  0  0  1  0  0  0  0  0  0
  193.3280  177.0670  139.5580 O   0  0  0  0  0  0  0  0  0  0  0  0
  192.2870  175.2920  138.3990 O   0  0  0  0  0  0  0  0  0  0  0  0
  193.5390  175.3180  137.7440 C   0  0  2  0  0  3  0  0  0  0  0  0
  192.5710  175.8980  135.6170 O   0  0  0  0  0  0  0  0  0  0  0  0
  193.4680  176.1250  136.4790 C   0  0  0  0  0  0  0  0  0  0  0  0
  194.4090  177.1190  136.2490 O   0  0  0  0  0  1  0  0  0  0  0  0
  195.3250  173.7020  138.2060 O   0  0  0  0  0  1  0  0  0  0  0  0
  194.1060  173.8860  137.5440 C   0  0  2  0  0  3  0  0  0  0  0  0
  198.4210  171.5980  137.0910 N   0  0  0  0  0  0  0  0  0  0  0  0
  198.0630  170.1940  136.9720 C   0  0  0  0  0  2  0  0  0  0  0  0
  196.4270  172.1910  135.8310 C   0  0  1  0  0  0  0  0  0  0  0  0
  193.7560  169.8990  136.9240 O   0  0  0  0  0  0  0  0  0  0  0  0
  193.4890  172.0490  135.9220 C   0  0  0  0  0  2  0  0  0  0  0  0
  195.6130  173.3910  135.5380 C   0  0  2  0  0  0  0  0  0  0  0  0
  199.8730  171.6740  137.1010 C   0  0  0  0  0  1  0  0  0  0  0  0
  194.3260  170.9330  136.4770 C   0  0  0  0  0  0  0  0  0  0  0  0
  194.1710  173.4160  136.0790 C   0  0  2  0  0  3  0  0  0  0  0  0
  195.7690  171.0120  136.4290 N   0  0  0  0  0  0  0  0  0  0  0  0
  195.9190  172.4420  134.5380 O   0  0  0  0  0  0  0  0  0  0  0  0
  197.9520  172.2550  135.8780 C   0  0  0  0  0  2  0  0  0  0  0  0
  196.2960  174.5920  135.3400 O   0  0  0  0  0  1  0  0  0  0  0  0
  196.5500  170.0160  137.1700 C   0  0  0  0  0  2  0  0  0  0  0  0
  187.8900  178.5440  146.4140 O   0  0  0  0  0  0  0  0  0  0  0  0
  188.8280  178.3200  147.4330 C   0  0  0  0  0  1  0  0  0  0  0  0
  186.7320  177.3870  144.6030 C   0  0  1  0  0  3  0  0  0  0  0  0
  185.7570  178.5060  144.9310 C   0  0  0  0  0  2  0  0  0  0  0  0
  184.4130  178.2200  144.2820 C   0  0  0  0  0  2  0  0  0  0  0  0
  183.7760  179.4740  143.8980 N   0  0  0  0  0  2  0  0  0  0  0  0
  182.1640  179.1220  143.2940 P   0  0  1  0  0  0  0  0  0  0  0  0
  181.0970  178.1170  141.2760 C   0  0  0  0  0  2  0  0  0  0  0  0
  180.1000  179.1590  140.7560 C   0  0  0  0  0  2  0  0  0  0  0  0
  179.9860  180.2320  142.7530 C   0  0  0  0  0  2  0  0  0  0  0  0
  181.1560  180.4980  143.4730 O   0  0  0  0  0  0  0  0  0  0  0  0
  180.2270  180.4180  141.3830 O   0  0  0  0  0  0  0  0  0  0  0  0
  182.3070  178.7130  141.6430 O   0  0  0  0  0  0  0  0  0  0  0  0
  181.5970  177.9540  144.0770 O   0  0  0  0  0  0  0  0  0  0  0  0
  187.3040  177.5990  143.2040 C   0  0  0  0  0  2  0  0  0  0  0  0
  186.2770  178.1790  142.3510 N   0  0  0  0  0  2  0  0  0  0  0  0
  186.5700  178.8150  141.1140 C   0  0  0  0  0  0  0  0  0  0  0  0
  185.6310  179.3750  140.4860 O   0  0  0  0  0  0  0  0  0  0  0  0
  187.9520  178.8410  140.5890 C   0  0  0  0  0  3  0  0  0  0  0  0
  188.4010  178.2210  139.4900 C   0  0  0  0  0  3  0  0  0  0  0  0
  187.5520  177.3920  138.5850 C   0  0  0  0  0  2  0  0  0  0  0  0
  188.3950  176.8470  137.4420 C   0  0  0  0  0  2  0  0  0  0  0  0
  188.2510  175.4540  137.4080 O   0  0  0  0  0  0  0  0  0  0  0  0
  190.0230  174.0150  136.9660 O   0  0  0  0  0  1  0  0  0  0  0  0
  189.1200  174.9340  136.4200 C   0  0  1  0  0  3  0  0  0  0  0  0
  188.4130  174.3660  135.3500 O   0  0  0  0  0  0  0  0  0  0  0  0
  187.1610  176.0320  134.4070 O   0  0  0  0  0  1  0  0  0  0  0  0
  187.1670  174.9960  135.3460 C   0  0  1  0  0  3  0  0  0  0  0  0
  186.0960  173.9800  134.9720 C   0  0  1  0  0  3  0  0  0  0  0  0
  186.6970  172.7690  134.5750 O   0  0  0  0  0  0  0  0  0  0  0  0
  186.1580  172.8190  135.8780 C   0  0  2  0  0  3  0  0  0  0  0  0
  184.8200  172.1120  135.8900 C   0  0  0  0  0  2  0  0  0  0  0  0
  184.1590  172.3270  137.2350 C   0  0  0  0  0  2  0  0  0  0  0  0
  182.7400  172.5870  137.0440 N   0  0  0  0  0  1  0  0  0  0  0  0
  1 35  1  6  0  0  0
  2  3  1  0  0  0  0
  3  5  1  0  0  0  0
  4  8  1  6  0  0  0
  4  2  1  0  0  0  0
  4  6  1  0  0  0  0
  6  7  1  0  0  0  0
  7  1  1  1  0  0  0
  7  5  1  0  0  0  0
  9  8  1  0  0  0  0
 10 12  1  6  0  0  0
 10 13  1  0  0  0  0
 10 11  1  0  0  0  0
 11  9  1  1  0  0  0
 13 11  1  0  0  0  0
 14 10  1  0  0  0  0
 15 17  1  6  0  0  0
 15 14  1  0  0  0  0
 16 17  2  0  0  0  0
 18 17  1  0  0  0  0
 20 15  1  0  0  0  0
 20 19  1  6  0  0  0
 21 27  1  0  0  0  0
 22 21  1  0  0  0  0
 22 34  1  0  0  0  0
 23 32  1  1  0  0  0
 23 30  1  0  0  0  0
 25 29  1  0  0  0  0
 25 28  1  0  0  0  0
 26 33  1  6  0  0  0
 26 23  1  0  0  0  0
 26 29  1  0  0  0  0
 28 24  2  0  0  0  0
 29 20  1  1  0  0  0
 30 28  1  0  0  0  0
 30 34  1  0  0  0  0
 31 26  1  0  0  0  0
 31 23  1  0  0  0  0
 32 21  1  0  0  0  0
 35 36  1  0  0  0  0
 37 49  1  6  0  0  0
 37 38  1  0  0  0  0
 37  1  1  0  0  0  0
 39 38  1  0  0  0  0
 40 39  1  0  0  0  0
 41 45  1  0  0  0  0
 41 40  1  0  0  0  0
 41 48  2  1  0  0  0
 42 47  1  0  0  0  0
 43 42  1  0  0  0  0
 43 46  1  0  0  0  0
 44 45  1  0  0  0  0
 46 44  1  0  0  0  0
 47 41  1  0  0  0  0
 50 49  1  0  0  0  0
 51 50  1  0  0  0  0
 52 51  2  0  0  0  0
 53 51  1  0  0  0  0
 54 53  2  0  0  0  0
 55 54  1  0  0  0  0
 56 55  1  0  0  0  0
 57 56  1  0  0  0  0
 59 58  1  1  0  0  0
 59 57  1  0  0  0  0
 60 59  1  0  0  0  0
 62 61  1  6  0  0  0
 62 60  1  0  0  0  0
 63 62  1  1  0  0  0
 63 65  1  0  0  0  0
 64 63  1  0  0  0  0
 64 65  1  0  0  0  0
 65 66  1  6  0  0  0
 66 67  1  0  0  0  0
 68 67  1  0  0  0  0
M  END
>  <MODEL>
2

>  <REMARK>
 VINA RESULT:      -5.3      3.381     12.323
  Name = 
  27 active torsions:
  status: ('A' for Active; 'I' for Inactive)
    1  A    between atoms: C_1  and  C_48
    2  A    between atoms: P_2  and  N_22
    3  A    between atoms: O_3  and  C_5
    4  A    between atoms: O_3  and  C_62
    5  A    between atoms: C_4  and  C_9
    6  A    between atoms: C_4  and  N_31
    7  A    between atoms: O_8  and  C_66
    8  A    between atoms: C_9  and  C_33
    9  A    between atoms: C_9  and  C_66
   10  A    between atoms: C_10  and  C_49
   11  A    between atoms: C_12  and  C_42
   12  A    between atoms: C_13  and  C_34
   13  A    between atoms: C_17  and  C_34
   14  A    between atoms: N_22  and  C_51
   15  A    between atoms: C_24  and  C_39
   16  A    between atoms: C_28  and  C_44
   17  A    between atoms: C_28  and  C_62
   18  A    between atoms: C_29  and  O_52
   19  A    between atoms: C_29  and  O_56
   20  A    between atoms: C_32  and  C_67
   21  A    between atoms: C_33  and  C_51
   22  A    between atoms: C_37  and  C_62
   23  A    between atoms: C_39  and  C_53
   24  A    between atoms: C_47  and  C_66
   25  A    between atoms: C_48  and  O_52
   26  A    between atoms: C_49  and  C_67
   27  A    between atoms: C_53  and  O_56
                            x       y       z     vdW  Elec       q    Type
                         _______ _______ _______ _____ _____    ______ ____

>  <TORSDO>
F 27

$$$$
=
 OpenBabel10232412123D

 68 74  0  0  1  0  0  0  0  0999 V2000
  187.8150  177.4820  143.5330 C   0  0  1  0  0  3  0  0  0  0  0  0
  191.9700  176.4820  142.8970 C   0  0  0  0  0  2  0  0  0  0  0  0
  191.4220  176.1730  144.2840 C   0  0  0  0  0  2  0  0  0  0  0  0
  191.5120  177.8730  142.4170 C   0  0  2  0  0  3  0  0  0  0  0  0
  189.8880  176.0820  144.2560 C   0  0  0  0  0  2  0  0  0  0  0  0
  190.1630  178.2880  143.0120 C   0  0  0  0  0  2  0  0  0  0  0  0
  189.2710  177.0720  143.2480 C   0  0  2  0  0  3  0  0  0  0  0  0
  191.4220  177.8860  140.8980 C   0  0  0  0  0  2  0  0  0  0  0  0
  191.8490  176.5650  140.2890 C   0  0  0  0  0  2  0  0  0  0  0  0
  193.1640  175.8580  138.2910 C   0  0  1  0  0  0  0  0  0  0  0  0
  193.1450  176.7170  139.5020 C   0  0  1  0  0  3  0  0  0  0  0  0
  192.0650  175.0250  138.0190 O   0  0  0  0  0  1  0  0  0  0  0  0
  192.8610  177.2250  138.2110 O   0  0  0  0  0  0  0  0  0  0  0  0
  194.4230  175.5140  137.7540 O   0  0  0  0  0  0  0  0  0  0  0  0
  194.9500  174.4500  138.5210 C   0  0  2  0  0  3  0  0  0  0  0  0
  197.2820  174.9550  138.1940 O   0  0  0  0  0  0  0  0  0  0  0  0
  196.3330  174.7730  139.0110 C   0  0  0  0  0  0  0  0  0  0  0  0
  196.5720  174.8560  140.3750 O   0  0  0  0  0  1  0  0  0  0  0  0
  195.6850  172.1200  138.3130 O   0  0  0  0  0  1  0  0  0  0  0  0
  194.8520  173.0990  137.7610 C   0  0  2  0  0  3  0  0  0  0  0  0
  196.8240  168.8310  136.3640 N   0  0  0  0  0  0  0  0  0  0  0  0
  195.7420  168.1560  135.6670 C   0  0  0  0  0  2  0  0  0  0  0  0
  196.0380  170.9570  135.4810 C   0  0  1  0  0  0  0  0  0  0  0  0
  192.3550  170.8300  135.5210 O   0  0  0  0  0  0  0  0  0  0  0  0
  193.7300  172.7820  135.5190 C   0  0  0  0  0  2  0  0  0  0  0  0
  196.2340  172.4030  135.7250 C   0  0  2  0  0  0  0  0  0  0  0  0
  197.9530  167.9160  136.3970 C   0  0  0  0  0  1  0  0  0  0  0  0
  193.5290  171.2940  135.5480 C   0  0  0  0  0  0  0  0  0  0  0  0
  195.0210  173.2040  136.2340 C   0  0  2  0  0  3  0  0  0  0  0  0
  194.6690  170.4050  135.5300 N   0  0  0  0  0  0  0  0  0  0  0  0
  196.1670  171.8750  134.4170 O   0  0  0  0  0  0  0  0  0  0  0  0
  197.2050  169.9730  135.5430 C   0  0  0  0  0  2  0  0  0  0  0  0
  197.5250  172.8260  136.0470 O   0  0  0  0  0  1  0  0  0  0  0  0
  194.4480  168.9760  135.7780 C   0  0  0  0  0  2  0  0  0  0  0  0
  187.7600  178.6500  144.3190 O   0  0  0  0  0  0  0  0  0  0  0  0
  187.4180  178.2200  145.6100 C   0  0  0  0  0  1  0  0  0  0  0  0
  186.8860  177.5820  142.3050 C   0  0  1  0  0  3  0  0  0  0  0  0
  185.4950  177.9930  142.7630 C   0  0  0  0  0  2  0  0  0  0  0  0
  184.5440  177.9810  141.5770 C   0  0  0  0  0  2  0  0  0  0  0  0
  183.6440  179.1260  141.6580 N   0  0  0  0  0  2  0  0  0  0  0  0
  182.0560  178.6310  141.0950 P   0  0  1  0  0  0  0  0  0  0  0  0
  180.9470  176.6030  140.1570 C   0  0  0  0  0  2  0  0  0  0  0  0
  180.3010  177.0410  138.8370 C   0  0  0  0  0  2  0  0  0  0  0  0
  180.2910  179.2340  139.4230 C   0  0  0  0  0  2  0  0  0  0  0  0
  181.4230  179.8050  140.0160 O   0  0  0  0  0  0  0  0  0  0  0  0
  180.6910  178.3340  138.4240 O   0  0  0  0  0  0  0  0  0  0  0  0
  182.2320  177.1350  140.2920 O   0  0  0  0  0  0  0  0  0  0  0  0
  181.1410  178.4780  142.2950 O   0  0  0  0  0  0  0  0  0  0  0  0
  187.4020  178.5810  141.2740 C   0  0  0  0  0  2  0  0  0  0  0  0
  188.2740  177.8900  140.3350 N   0  0  0  0  0  2  0  0  0  0  0  0
  187.8870  177.5920  139.0000 C   0  0  0  0  0  0  0  0  0  0  0  0
  188.6670  176.9060  138.2850 O   0  0  0  0  0  0  0  0  0  0  0  0
  186.5850  178.0540  138.4710 C   0  0  0  0  0  3  0  0  0  0  0  0
  186.2470  178.1800  137.1810 C   0  0  0  0  0  3  0  0  0  0  0  0
  187.1490  177.8540  136.0390 C   0  0  0  0  0  2  0  0  0  0  0  0
  186.4370  176.9210  135.0690 C   0  0  0  0  0  2  0  0  0  0  0  0
  185.7710  175.9360  135.8090 O   0  0  0  0  0  0  0  0  0  0  0  0
  186.5270  174.5080  137.4820 O   0  0  0  0  0  1  0  0  0  0  0  0
  186.7000  174.9280  136.1580 C   0  0  1  0  0  3  0  0  0  0  0  0
  186.6420  173.8370  135.2760 O   0  0  0  0  0  0  0  0  0  0  0  0
  188.8220  174.4710  135.5550 O   0  0  0  0  0  1  0  0  0  0  0  0
  187.9700  173.5240  134.9800 C   0  0  1  0  0  3  0  0  0  0  0  0
  188.2970  172.1500  135.5520 C   0  0  1  0  0  3  0  0  0  0  0  0
  187.1250  171.5420  136.0470 O   0  0  0  0  0  0  0  0  0  0  0  0
  187.5920  171.1020  134.7910 C   0  0  2  0  0  3  0  0  0  0  0  0
  188.3100  169.7810  134.9620 C   0  0  0  0  0  2  0  0  0  0  0  0
  187.3800  168.6570  134.5570 C   0  0  0  0  0  2  0  0  0  0  0  0
  186.0410  169.1850  134.3460 N   0  0  0  0  0  1  0  0  0  0  0  0
  1 35  1  6  0  0  0
  2  3  1  0  0  0  0
  4  8  1  6  0  0  0
  4  2  1  0  0  0  0
  4  6  1  0  0  0  0
  5  3  1  0  0  0  0
  6  7  1  0  0  0  0
  7  1  1  1  0  0  0
  7  5  1  0  0  0  0
  9  8  1  0  0  0  0
 10 12  1  6  0  0  0
 10 11  1  0  0  0  0
 11  9  1  1  0  0  0
 13 10  1  0  0  0  0
 13 11  1  0  0  0  0
 14 10  1  0  0  0  0
 15 14  1  6  0  0  0
 15 17  1  0  0  0  0
 16 17  2  0  0  0  0
 17 18  1  0  0  0  0
 20 19  1  1  0  0  0
 20 15  1  0  0  0  0
 21 27  1  0  0  0  0
 22 34  1  0  0  0  0
 22 21  1  0  0  0  0
 23 30  1  0  0  0  0
 23 32  1  1  0  0  0
 23 26  1  0  0  0  0
 24 28  2  0  0  0  0
 25 28  1  0  0  0  0
 25 29  1  0  0  0  0
 26 33  1  1  0  0  0
 26 29  1  0  0  0  0
 29 20  1  1  0  0  0
 30 28  1  0  0  0  0
 30 34  1  0  0  0  0
 31 23  1  0  0  0  0
 31 26  1  0  0  0  0
 32 21  1  0  0  0  0
 35 36  1  0  0  0  0
 37 49  1  6  0  0  0
 37 38  1  0  0  0  0
 37  1  1  0  0  0  0
 39 40  1  0  0  0  0
 39 38  1  0  0  0  0
 41 40  1  0  0  0  0
 41 48  2  1  0  0  0
 42 47  1  0  0  0  0
 43 42  1  0  0  0  0
 44 45  1  0  0  0  0
 45 41  1  0  0  0  0
 46 43  1  0  0  0  0
 46 44  1  0  0  0  0
 47 41  1  0  0  0  0
 50 49  1  0  0  0  0
 51 50  1  0  0  0  0
 52 51  2  0  0  0  0
 53 51  1  0  0  0  0
 54 53  2  0  0  0  0
 55 54  1  0  0  0  0
 56 57  1  0  0  0  0
 56 55  1  0  0  0  0
 57 59  1  0  0  0  0
 59 58  1  1  0  0  0
 60 59  1  0  0  0  0
 62 60  1  0  0  0  0
 62 61  1  1  0  0  0
 63 62  1  6  0  0  0
 63 64  1  0  0  0  0
 65 66  1  1  0  0  0
 65 63  1  0  0  0  0
 65 64  1  0  0  0  0
 67 66  1  0  0  0  0
 68 67  1  0  0  0  0
M  END
>  <MODEL>
3

>  <REMARK>
 VINA RESULT:      -5.2      3.636     12.450
  Name = 
  27 active torsions:
  status: ('A' for Active; 'I' for Inactive)
    1  A    between atoms: C_1  and  C_48
    2  A    between atoms: P_2  and  N_22
    3  A    between atoms: O_3  and  C_5
    4  A    between atoms: O_3  and  C_62
    5  A    between atoms: C_4  and  C_9
    6  A    between atoms: C_4  and  N_31
    7  A    between atoms: O_8  and  C_66
    8  A    between atoms: C_9  and  C_33
    9  A    between atoms: C_9  and  C_66
   10  A    between atoms: C_10  and  C_49
   11  A    between atoms: C_12  and  C_42
   12  A    between atoms: C_13  and  C_34
   13  A    between atoms: C_17  and  C_34
   14  A    between atoms: N_22  and  C_51
   15  A    between atoms: C_24  and  C_39
   16  A    between atoms: C_28  and  C_44
   17  A    between atoms: C_28  and  C_62
   18  A    between atoms: C_29  and  O_52
   19  A    between atoms: C_29  and  O_56
   20  A    between atoms: C_32  and  C_67
   21  A    between atoms: C_33  and  C_51
   22  A    between atoms: C_37  and  C_62
   23  A    between atoms: C_39  and  C_53
   24  A    between atoms: C_47  and  C_66
   25  A    between atoms: C_48  and  O_52
   26  A    between atoms: C_49  and  C_67
   27  A    between atoms: C_53  and  O_56
                            x       y       z     vdW  Elec       q    Type
                         _______ _______ _______ _____ _____    ______ ____

>  <TORSDO>
F 27

$$$$
=
 OpenBabel10232412123D

 68 74  0  0  1  0  0  0  0  0999 V2000
  187.3290  177.5870  145.4030 C   0  0  1  0  0  3  0  0  0  0  0  0
  191.4970  176.7490  144.6340 C   0  0  0  0  0  2  0  0  0  0  0  0
  191.1210  176.9350  146.0970 C   0  0  0  0  0  2  0  0  0  0  0  0
  190.8330  177.8220  143.7490 C   0  0  2  0  0  3  0  0  0  0  0  0
  189.6130  176.7210  146.3040 C   0  0  0  0  0  2  0  0  0  0  0  0
  189.5040  178.3230  144.3260 C   0  0  0  0  0  2  0  0  0  0  0  0
  188.7910  177.2150  145.0970 C   0  0  2  0  0  3  0  0  0  0  0  0
  190.6020  177.2630  142.3530 C   0  0  0  0  0  2  0  0  0  0  0  0
  191.5560  177.8540  141.3360 C   0  0  0  0  0  2  0  0  0  0  0  0
  192.1730  176.7190  139.2020 C   0  0  1  0  0  0  0  0  0  0  0  0
  192.3910  176.7670  140.6700 C   0  0  1  0  0  3  0  0  0  0  0  0
  191.2590  177.6080  138.6110 O   0  0  0  0  0  1  0  0  0  0  0  0
  193.2950  177.3560  139.7520 O   0  0  0  0  0  0  0  0  0  0  0  0
  192.4650  175.5090  138.5370 O   0  0  0  0  0  0  0  0  0  0  0  0
  193.1700  175.8190  137.3520 C   0  0  2  0  0  3  0  0  0  0  0  0
  192.6520  175.9100  135.0020 O   0  0  0  0  0  0  0  0  0  0  0  0
  192.3780  175.4240  136.1370 C   0  0  0  0  0  0  0  0  0  0  0  0
  191.3250  174.5300  136.2690 O   0  0  0  0  0  1  0  0  0  0  0  0
  195.0590  174.8790  136.1040 O   0  0  0  0  0  1  0  0  0  0  0  0
  194.6100  175.2400  137.3790 C   0  0  2  0  0  3  0  0  0  0  0  0
  198.0120  172.3110  135.4010 N   0  0  0  0  0  0  0  0  0  0  0  0
  199.1980  172.5610  136.2020 C   0  0  0  0  0  2  0  0  0  0  0  0
  196.6380  172.5780  137.3900 C   0  0  1  0  0  0  0  0  0  0  0  0
  198.1400  175.3050  139.3630 O   0  0  0  0  0  0  0  0  0  0  0  0
  195.8800  174.5400  139.4480 C   0  0  0  0  0  2  0  0  0  0  0  0
  195.2150  172.7810  137.7400 C   0  0  2  0  0  0  0  0  0  0  0  0
  198.3890  171.3840  134.3470 C   0  0  0  0  0  1  0  0  0  0  0  0
  197.2740  174.5170  138.8910 C   0  0  0  0  0  0  0  0  0  0  0  0
  194.8340  174.1160  138.4070 C   0  0  2  0  0  3  0  0  0  0  0  0
  197.6370  173.5500  137.8790 N   0  0  0  0  0  0  0  0  0  0  0  0
  196.0380  171.8960  138.4700 O   0  0  0  0  0  0  0  0  0  0  0  0
  197.0550  171.6330  136.2650 C   0  0  0  0  0  2  0  0  0  0  0  0
  194.2670  172.0970  136.9760 O   0  0  0  0  0  1  0  0  0  0  0  0
  198.9310  173.6940  137.2040 C   0  0  0  0  0  2  0  0  0  0  0  0
  187.2520  178.8000  146.1190 O   0  0  0  0  0  0  0  0  0  0  0  0
  186.8590  178.4450  147.4180 C   0  0  0  0  0  1  0  0  0  0  0  0
  186.3610  177.5760  144.2020 C   0  0  1  0  0  3  0  0  0  0  0  0
  185.4190  178.7650  144.3080 C   0  0  0  0  0  2  0  0  0  0  0  0
  184.5530  178.8430  143.0610 C   0  0  0  0  0  2  0  0  0  0  0  0
  183.1910  178.4320  143.3820 N   0  0  0  0  0  2  0  0  0  0  0  0
  182.2390  178.4470  141.9060 P   0  0  1  0  0  0  0  0  0  0  0  0
  181.6970  176.9220  140.0080 C   0  0  0  0  0  2  0  0  0  0  0  0
  182.0610  177.6850  138.7290 C   0  0  0  0  0  2  0  0  0  0  0  0
  181.9700  179.7070  139.7580 C   0  0  0  0  0  2  0  0  0  0  0  0
  182.5590  179.8780  141.0160 O   0  0  0  0  0  0  0  0  0  0  0  0
  182.7820  178.8740  138.9720 O   0  0  0  0  0  0  0  0  0  0  0  0
  182.6810  177.0770  140.9880 O   0  0  0  0  0  0  0  0  0  0  0  0
  180.7700  178.3790  142.2760 O   0  0  0  0  0  0  0  0  0  0  0  0
  187.1000  177.6250  142.8680 C   0  0  0  0  0  2  0  0  0  0  0  0
  186.2340  178.2240  141.8630 N   0  0  0  0  0  2  0  0  0  0  0  0
  186.6940  178.5960  140.5710 C   0  0  0  0  0  0  0  0  0  0  0  0
  185.9000  179.1970  139.7980 O   0  0  0  0  0  0  0  0  0  0  0  0
  188.0830  178.3070  140.1540 C   0  0  0  0  0  3  0  0  0  0  0  0
  188.4640  177.5970  139.0840 C   0  0  0  0  0  3  0  0  0  0  0  0
  187.5230  176.9770  138.1060 C   0  0  0  0  0  2  0  0  0  0  0  0
  188.2280  175.8660  137.3420 C   0  0  0  0  0  2  0  0  0  0  0  0
  187.8500  175.9420  135.9960 O   0  0  0  0  0  0  0  0  0  0  0  0
  186.2710  177.2300  134.8750 O   0  0  0  0  0  1  0  0  0  0  0  0
  186.4940  176.3380  135.9300 C   0  0  1  0  0  3  0  0  0  0  0  0
  185.6310  175.2340  135.8430 O   0  0  0  0  0  0  0  0  0  0  0  0
  183.7650  176.5540  135.7780 O   0  0  0  0  0  1  0  0  0  0  0  0
  184.4730  175.6080  136.5250 C   0  0  1  0  0  3  0  0  0  0  0  0
  183.5950  174.3790  136.7280 C   0  0  1  0  0  3  0  0  0  0  0  0
  183.4370  173.6920  135.5080 O   0  0  0  0  0  0  0  0  0  0  0  0
  184.3600  173.1550  136.4290 C   0  0  2  0  0  3  0  0  0  0  0  0
  183.7270  171.9760  137.1370 C   0  0  0  0  0  2  0  0  0  0  0  0
  183.8880  170.7390  136.2780 C   0  0  0  0  0  2  0  0  0  0  0  0
  184.6460  171.0720  135.0820 N   0  0  0  0  0  1  0  0  0  0  0  0
  1 35  1  6  0  0  0
  2  3  1  0  0  0  0
  3  5  1  0  0  0  0
  4  8  1  6  0  0  0
  4  6  1  0  0  0  0
  4  2  1  0  0  0  0
  6  7  1  0  0  0  0
  7  1  1  1  0  0  0
  7  5  1  0  0  0  0
  9  8  1  0  0  0  0
 10 12  1  6  0  0  0
 10 13  1  0  0  0  0
 10 11  1  0  0  0  0
 11  9  1  1  0  0  0
 13 11  1  0  0  0  0
 14 10  1  0  0  0  0
 15 17  1  6  0  0  0
 15 20  1  0  0  0  0
 15 14  1  0  0  0  0
 16 17  2  0  0  0  0
 17 18  1  0  0  0  0
 20 19  1  6  0  0  0
 21 22  1  0  0  0  0
 21 32  1  0  0  0  0
 22 34  1  0  0  0  0
 23 32  1  6  0  0  0
 23 26  1  0  0  0  0
 23 30  1  0  0  0  0
 23 31  1  0  0  0  0
 26 33  1  6  0  0  0
 26 29  1  0  0  0  0
 26 31  1  0  0  0  0
 27 21  1  0  0  0  0
 28 24  2  0  0  0  0
 28 25  1  0  0  0  0
 29 20  1  6  0  0  0
 29 25  1  0  0  0  0
 30 28  1  0  0  0  0
 34 30  1  0  0  0  0
 35 36  1  0  0  0  0
 37 49  1  6  0  0  0
 37 38  1  0  0  0  0
 37  1  1  0  0  0  0
 39 40  1  0  0  0  0
 39 38  1  0  0  0  0
 41 48  2  1  0  0  0
 41 40  1  0  0  0  0
 42 47  1  0  0  0  0
 43 46  1  0  0  0  0
 43 42  1  0  0  0  0
 44 45  1  0  0  0  0
 45 41  1  0  0  0  0
 46 44  1  0  0  0  0
 47 41  1  0  0  0  0
 50 49  1  0  0  0  0
 51 50  1  0  0  0  0
 52 51  2  0  0  0  0
 53 51  1  0  0  0  0
 54 53  2  0  0  0  0
 55 54  1  0  0  0  0
 56 55  1  0  0  0  0
 57 56  1  0  0  0  0
 59 58  1  6  0  0  0
 59 57  1  0  0  0  0
 60 59  1  0  0  0  0
 60 62  1  0  0  0  0
 62 61  1  6  0  0  0
 63 62  1  6  0  0  0
 64 65  1  0  0  0  0
 64 63  1  0  0  0  0
 65 63  1  0  0  0  0
 65 66  1  1  0  0  0
 67 66  1  0  0  0  0
 68 67  1  0  0  0  0
M  END
>  <MODEL>
4

>  <REMARK>
 VINA RESULT:      -5.2      2.967     12.227
  Name = 
  27 active torsions:
  status: ('A' for Active; 'I' for Inactive)
    1  A    between atoms: C_1  and  C_48
    2  A    between atoms: P_2  and  N_22
    3  A    between atoms: O_3  and  C_5
    4  A    between atoms: O_3  and  C_62
    5  A    between atoms: C_4  and  C_9
    6  A    between atoms: C_4  and  N_31
    7  A    between atoms: O_8  and  C_66
    8  A    between atoms: C_9  and  C_33
    9  A    between atoms: C_9  and  C_66
   10  A    between atoms: C_10  and  C_49
   11  A    between atoms: C_12  and  C_42
   12  A    between atoms: C_13  and  C_34
   13  A    between atoms: C_17  and  C_34
   14  A    between atoms: N_22  and  C_51
   15  A    between atoms: C_24  and  C_39
   16  A    between atoms: C_28  and  C_44
   17  A    between atoms: C_28  and  C_62
   18  A    between atoms: C_29  and  O_52
   19  A    between atoms: C_29  and  O_56
   20  A    between atoms: C_32  and  C_67
   21  A    between atoms: C_33  and  C_51
   22  A    between atoms: C_37  and  C_62
   23  A    between atoms: C_39  and  C_53
   24  A    between atoms: C_47  and  C_66
   25  A    between atoms: C_48  and  O_52
   26  A    between atoms: C_49  and  C_67
   27  A    between atoms: C_53  and  O_56
                            x       y       z     vdW  Elec       q    Type
                         _______ _______ _______ _____ _____    ______ ____

>  <TORSDO>
F 27

$$$$
=
 OpenBabel10232412123D

 68 74  0  0  1  0  0  0  0  0999 V2000
  191.0330  175.2820  137.9450 C   0  0  1  0  0  3  0  0  0  0  0  0
  188.2070  177.9960  136.1240 C   0  0  0  0  0  2  0  0  0  0  0  0
  189.3570  177.5460  135.2340 C   0  0  0  0  0  2  0  0  0  0  0  0
  188.7080  178.3630  137.5340 C   0  0  2  0  0  3  0  0  0  0  0  0
  189.9830  176.2480  135.7670 C   0  0  0  0  0  2  0  0  0  0  0  0
  189.9630  177.5820  137.9370 C   0  0  0  0  0  2  0  0  0  0  0  0
  189.9670  176.1910  137.3070 C   0  0  2  0  0  3  0  0  0  0  0  0
  187.6040  178.1100  138.5510 C   0  0  0  0  0  2  0  0  0  0  0  0
  186.3120  178.8070  138.1770 C   0  0  0  0  0  2  0  0  0  0  0  0
  183.9000  178.5930  138.7770 C   0  0  1  0  0  0  0  0  0  0  0  0
  185.1200  177.8710  138.3340 C   0  0  1  0  0  3  0  0  0  0  0  0
  183.9670  179.9760  139.0160 O   0  0  0  0  0  1  0  0  0  0  0  0
  184.0950  178.2500  137.4310 O   0  0  0  0  0  0  0  0  0  0  0  0
  182.8950  177.8430  139.4240 O   0  0  0  0  0  0  0  0  0  0  0  0
  181.7700  177.7900  138.5710 C   0  0  2  0  0  3  0  0  0  0  0  0
  180.6630  179.8980  138.2090 O   0  0  0  0  0  0  0  0  0  0  0  0
  180.7760  178.8600  138.9240 C   0  0  0  0  0  0  0  0  0  0  0  0
  179.9880  178.7130  140.0570 O   0  0  0  0  0  1  0  0  0  0  0  0
  182.0980  175.3780  138.8630 O   0  0  0  0  0  1  0  0  0  0  0  0
  181.1630  176.3610  138.5190 C   0  0  2  0  0  3  0  0  0  0  0  0
  184.6770  175.2600  135.2780 N   0  0  0  0  0  0  0  0  0  0  0  0
  184.5540  173.8220  135.1020 C   0  0  0  0  0  2  0  0  0  0  0  0
  182.2600  175.4180  135.5010 C   0  0  1  0  0  0  0  0  0  0  0  0
  181.1730  172.4640  137.4190 O   0  0  0  0  0  0  0  0  0  0  0  0
  180.0180  174.5400  137.1930 C   0  0  0  0  0  2  0  0  0  0  0  0
  181.2480  176.3920  135.9630 C   0  0  2  0  0  0  0  0  0  0  0  0
  185.8170  175.6950  134.4880 C   0  0  0  0  0  1  0  0  0  0  0  0
  181.1890  173.6350  136.9470 C   0  0  0  0  0  0  0  0  0  0  0  0
  180.4260  176.0210  137.2110 C   0  0  2  0  0  3  0  0  0  0  0  0
  182.2880  174.0750  136.1150 N   0  0  0  0  0  0  0  0  0  0  0  0
  181.0540  175.6190  134.7970 O   0  0  0  0  0  0  0  0  0  0  0  0
  183.4820  175.8580  134.6980 C   0  0  0  0  0  2  0  0  0  0  0  0
  181.4730  177.7370  135.6610 O   0  0  0  0  0  1  0  0  0  0  0  0
  183.5060  173.2580  136.0730 C   0  0  0  0  0  2  0  0  0  0  0  0
  191.3260  174.1810  137.1140 O   0  0  0  0  0  0  0  0  0  0  0  0
  190.1610  173.3990  137.1010 C   0  0  0  0  0  1  0  0  0  0  0  0
  192.3180  175.9820  138.4320 C   0  0  1  0  0  3  0  0  0  0  0  0
  192.8890  176.8210  137.3010 C   0  0  0  0  0  2  0  0  0  0  0  0
  194.4000  176.6580  137.2570 C   0  0  0  0  0  2  0  0  0  0  0  0
  194.7580  175.6690  136.2470 N   0  0  0  0  0  2  0  0  0  0  0  0
  195.6540  174.3740  137.0240 P   0  0  1  0  0  0  0  0  0  0  0  0
  197.5240  172.8090  136.4970 C   0  0  0  0  0  2  0  0  0  0  0  0
  196.9870  171.3970  136.7620 C   0  0  0  0  0  2  0  0  0  0  0  0
  195.3290  172.1460  138.1210 C   0  0  0  0  0  2  0  0  0  0  0  0
  194.5690  173.2610  137.7480 O   0  0  0  0  0  0  0  0  0  0  0  0
  195.5930  171.3610  136.9880 O   0  0  0  0  0  0  0  0  0  0  0  0
  196.5810  173.5900  135.8230 O   0  0  0  0  0  0  0  0  0  0  0  0
  196.5640  174.9780  138.0770 O   0  0  0  0  0  0  0  0  0  0  0  0
  192.0650  176.8660  139.6500 C   0  0  0  0  0  2  0  0  0  0  0  0
  190.9470  176.3250  140.4090 N   0  0  0  0  0  2  0  0  0  0  0  0
  190.6320  176.7520  141.7280 C   0  0  0  0  0  0  0  0  0  0  0  0
  189.7060  176.1620  142.3470 O   0  0  0  0  0  0  0  0  0  0  0  0
  191.3920  177.8480  142.3670 C   0  0  0  0  0  3  0  0  0  0  0  0
  191.0280  178.5450  143.4510 C   0  0  0  0  0  3  0  0  0  0  0  0
  189.7690  178.3140  144.2180 C   0  0  0  0  0  2  0  0  0  0  0  0
  190.0270  177.3290  145.3490 C   0  0  0  0  0  2  0  0  0  0  0  0
  188.8010  177.0050  145.9440 O   0  0  0  0  0  0  0  0  0  0  0  0
  187.1810  176.3590  144.4060 O   0  0  0  0  0  1  0  0  0  0  0  0
  187.7580  177.4350  145.0910 C   0  0  1  0  0  3  0  0  0  0  0  0
  186.7820  178.1650  145.7870 O   0  0  0  0  0  0  0  0  0  0  0  0
  186.4230  178.3640  143.5370 O   0  0  0  0  0  1  0  0  0  0  0  0
  185.9800  178.7490  144.8060 C   0  0  1  0  0  3  0  0  0  0  0  0
  184.5430  178.2780  144.9920 C   0  0  1  0  0  3  0  0  0  0  0  0
  183.8160  179.2290  145.7370 O   0  0  0  0  0  0  0  0  0  0  0  0
  183.6120  179.2180  144.3410 C   0  0  2  0  0  3  0  0  0  0  0  0
  182.3080  178.5110  144.0350 C   0  0  0  0  0  2  0  0  0  0  0  0
  181.4650  179.3950  143.1410 C   0  0  0  0  0  2  0  0  0  0  0  0
  180.0910  179.4030  143.6220 N   0  0  0  0  0  1  0  0  0  0  0  0
  1 35  1  6  0  0  0
  1 37  1  0  0  0  0
  2  4  1  0  0  0  0
  3  5  1  0  0  0  0
  3  2  1  0  0  0  0
  4  6  1  0  0  0  0
  4  8  1  1  0  0  0
  5  7  1  0  0  0  0
  7  6  1  0  0  0  0
  7  1  1  1  0  0  0
  9  8  1  0  0  0  0
 10 12  1  1  0  0  0
 10 14  1  0  0  0  0
 11  9  1  6  0  0  0
 11 10  1  0  0  0  0
 13 11  1  0  0  0  0
 13 10  1  0  0  0  0
 15 17  1  1  0  0  0
 15 14  1  0  0  0  0
 16 17  2  0  0  0  0
 17 18  1  0  0  0  0
 20 15  1  0  0  0  0
 20 19  1  6  0  0  0
 22 21  1  0  0  0  0
 22 34  1  0  0  0  0
 23 32  1  6  0  0  0
 23 26  1  0  0  0  0
 23 30  1  0  0  0  0
 25 29  1  0  0  0  0
 26 33  1  6  0  0  0
 26 29  1  0  0  0  0
 27 21  1  0  0  0  0
 28 25  1  0  0  0  0
 28 24  2  0  0  0  0
 29 20  1  1  0  0  0
 30 28  1  0  0  0  0
 31 23  1  0  0  0  0
 31 26  1  0  0  0  0
 32 21  1  0  0  0  0
 34 30  1  0  0  0  0
 36 35  1  0  0  0  0
 37 38  1  6  0  0  0
 37 49  1  0  0  0  0
 39 38  1  0  0  0  0
 40 41  1  0  0  0  0
 40 39  1  0  0  0  0
 41 45  1  0  0  0  0
 41 48  2  1  0  0  0
 42 43  1  0  0  0  0
 43 46  1  0  0  0  0
 45 44  1  0  0  0  0
 46 44  1  0  0  0  0
 47 42  1  0  0  0  0
 47 41  1  0  0  0  0
 49 50  1  0  0  0  0
 50 51  1  0  0  0  0
 51 52  2  0  0  0  0
 51 53  1  0  0  0  0
 53 54  2  0  0  0  0
 54 55  1  0  0  0  0
 55 56  1  0  0  0  0
 56 57  1  0  0  0  0
 59 58  1  1  0  0  0
 59 60  1  0  0  0  0
 59 57  1  0  0  0  0
 62 61  1  6  0  0  0
 62 60  1  0  0  0  0
 63 62  1  6  0  0  0
 63 64  1  0  0  0  0
 65 66  1  1  0  0  0
 65 63  1  0  0  0  0
 65 64  1  0  0  0  0
 67 68  1  0  0  0  0
 67 66  1  0  0  0  0
M  END
>  <MODEL>
5

>  <REMARK>
 VINA RESULT:      -5.1      1.389      2.124
  Name = 
  27 active torsions:
  status: ('A' for Active; 'I' for Inactive)
    1  A    between atoms: C_1  and  C_48
    2  A    between atoms: P_2  and  N_22
    3  A    between atoms: O_3  and  C_5
    4  A    between atoms: O_3  and  C_62
    5  A    between atoms: C_4  and  C_9
    6  A    between atoms: C_4  and  N_31
    7  A    between atoms: O_8  and  C_66
    8  A    between atoms: C_9  and  C_33
    9  A    between atoms: C_9  and  C_66
   10  A    between atoms: C_10  and  C_49
   11  A    between atoms: C_12  and  C_42
   12  A    between atoms: C_13  and  C_34
   13  A    between atoms: C_17  and  C_34
   14  A    between atoms: N_22  and  C_51
   15  A    between atoms: C_24  and  C_39
   16  A    between atoms: C_28  and  C_44
   17  A    between atoms: C_28  and  C_62
   18  A    between atoms: C_29  and  O_52
   19  A    between atoms: C_29  and  O_56
   20  A    between atoms: C_32  and  C_67
   21  A    between atoms: C_33  and  C_51
   22  A    between atoms: C_37  and  C_62
   23  A    between atoms: C_39  and  C_53
   24  A    between atoms: C_47  and  C_66
   25  A    between atoms: C_48  and  O_52
   26  A    between atoms: C_49  and  C_67
   27  A    between atoms: C_53  and  O_56
                            x       y       z     vdW  Elec       q    Type
                         _______ _______ _______ _____ _____    ______ ____

>  <TORSDO>
F 27

$$$$
=
 OpenBabel10232412123D

 68 74  0  0  1  0  0  0  0  0999 V2000
  186.0480  178.1500  143.7540 C   0  0  1  0  0  3  0  0  0  0  0  0
  190.0680  176.6740  143.1800 C   0  0  0  0  0  2  0  0  0  0  0  0
  189.6410  176.8790  144.6270 C   0  0  0  0  0  2  0  0  0  0  0  0
  189.6370  177.8630  142.3000 C   0  0  2  0  0  3  0  0  0  0  0  0
  188.1090  176.9040  144.7440 C   0  0  0  0  0  2  0  0  0  0  0  0
  188.3730  178.5550  142.8230 C   0  0  0  0  0  2  0  0  0  0  0  0
  187.4480  177.5560  143.5140 C   0  0  2  0  0  3  0  0  0  0  0  0
  189.4020  177.3870  140.8740 C   0  0  0  0  0  2  0  0  0  0  0  0
  190.4880  176.4410  140.4020 C   0  0  0  0  0  2  0  0  0  0  0  0
  192.1040  176.2610  138.5100 C   0  0  1  0  0  0  0  0  0  0  0  0
  191.5000  177.1650  139.5220 C   0  0  1  0  0  3  0  0  0  0  0  0
  191.7250  174.9080  138.4800 O   0  0  0  0  0  1  0  0  0  0  0  0
  191.0630  177.1390  138.1740 O   0  0  0  0  0  0  0  0  0  0  0  0
  193.3590  176.6240  137.9760 O   0  0  0  0  0  0  0  0  0  0  0  0
  193.4560  176.0780  136.6760 C   0  0  2  0  0  3  0  0  0  0  0  0
  191.2820  176.2990  135.6640 O   0  0  0  0  0  0  0  0  0  0  0  0
  192.1300  175.5410  136.2170 C   0  0  0  0  0  0  0  0  0  0  0  0
  191.8280  174.2020  136.4210 O   0  0  0  0  0  1  0  0  0  0  0  0
  194.6290  174.3860  135.3450 O   0  0  0  0  0  1  0  0  0  0  0  0
  194.6180  175.0540  136.5750 C   0  0  2  0  0  3  0  0  0  0  0  0
  197.9730  171.7310  135.2450 N   0  0  0  0  0  0  0  0  0  0  0  0
  199.1210  172.0390  136.0810 C   0  0  0  0  0  2  0  0  0  0  0  0
  196.5000  172.3340  137.0850 C   0  0  1  0  0  0  0  0  0  0  0  0
  198.0230  175.2430  138.7580 O   0  0  0  0  0  0  0  0  0  0  0  0
  195.7260  174.5970  138.7990 C   0  0  0  0  0  2  0  0  0  0  0  0
  195.0710  172.6460  137.3090 C   0  0  2  0  0  0  0  0  0  0  0  0
  198.3620  170.6490  134.3570 C   0  0  0  0  0  1  0  0  0  0  0  0
  197.1470  174.4350  138.3430 C   0  0  0  0  0  0  0  0  0  0  0  0
  194.7220  174.0770  137.7600 C   0  0  2  0  0  3  0  0  0  0  0  0
  197.5180  173.3200  137.5000 N   0  0  0  0  0  0  0  0  0  0  0  0
  195.8020  171.8370  138.2060 O   0  0  0  0  0  0  0  0  0  0  0  0
  196.9330  171.2230  136.1300 C   0  0  0  0  0  2  0  0  0  0  0  0
  194.1360  171.9040  136.5860 O   0  0  0  0  0  1  0  0  0  0  0  0
  198.8550  173.3120  136.8980 C   0  0  0  0  0  2  0  0  0  0  0  0
  186.0240  178.9390  144.9220 O   0  0  0  0  0  0  0  0  0  0  0  0
  185.4930  178.1120  145.9230 C   0  0  0  0  0  1  0  0  0  0  0  0
  185.4110  178.8880  142.5590 C   0  0  1  0  0  3  0  0  0  0  0  0
  184.9560  177.8680  141.5260 C   0  0  0  0  0  2  0  0  0  0  0  0
  184.8960  178.5210  140.1550 C   0  0  0  0  0  2  0  0  0  0  0  0
  186.2450  178.8510  139.7080 N   0  0  0  0  0  2  0  0  0  0  0  0
  186.5560  178.0070  138.1990 P   0  0  1  0  0  0  0  0  0  0  0  0
  187.9910  178.2570  136.1740 C   0  0  0  0  0  2  0  0  0  0  0  0
  187.0420  178.2180  134.9710 C   0  0  0  0  0  2  0  0  0  0  0  0
  185.3980  177.1770  136.1400 C   0  0  0  0  0  2  0  0  0  0  0  0
  185.0750  177.6120  137.4310 O   0  0  0  0  0  0  0  0  0  0  0  0
  185.6780  178.2890  135.3300 O   0  0  0  0  0  0  0  0  0  0  0  0
  187.4720  179.0480  137.2030 O   0  0  0  0  0  0  0  0  0  0  0  0
  187.3410  176.7460  138.5020 O   0  0  0  0  0  0  0  0  0  0  0  0
  184.2260  179.7520  142.9820 C   0  0  0  0  0  2  0  0  0  0  0  0
  183.2090  178.9050  143.5860 N   0  0  0  0  0  2  0  0  0  0  0  0
  181.8960  178.7800  143.0560 C   0  0  0  0  0  0  0  0  0  0  0  0
  181.0490  178.1010  143.6970 O   0  0  0  0  0  0  0  0  0  0  0  0
  181.5250  179.4550  141.7940 C   0  0  0  0  0  3  0  0  0  0  0  0
  181.2120  178.8630  140.6340 C   0  0  0  0  0  3  0  0  0  0  0  0
  181.1720  177.3860  140.4260 C   0  0  0  0  0  2  0  0  0  0  0  0
  181.7050  177.0450  139.0430 C   0  0  0  0  0  2  0  0  0  0  0  0
  181.3380  175.7280  138.7370 O   0  0  0  0  0  0  0  0  0  0  0  0
  181.9210  176.4670  136.6120 O   0  0  0  0  0  1  0  0  0  0  0  0
  181.9060  175.3780  137.4900 C   0  0  1  0  0  3  0  0  0  0  0  0
  183.1920  174.8370  137.6370 O   0  0  0  0  0  0  0  0  0  0  0  0
  181.8670  173.2450  136.6660 O   0  0  0  0  0  1  0  0  0  0  0  0
  183.0600  173.4760  137.3570 C   0  0  1  0  0  3  0  0  0  0  0  0
  184.2300  173.0300  136.4880 C   0  0  1  0  0  3  0  0  0  0  0  0
  185.1890  174.0590  136.4050 O   0  0  0  0  0  0  0  0  0  0  0  0
  185.4700  172.9940  137.2850 C   0  0  2  0  0  3  0  0  0  0  0  0
  186.4660  172.0590  136.6330 C   0  0  0  0  0  2  0  0  0  0  0  0
  187.8600  172.4170  137.1010 C   0  0  0  0  0  2  0  0  0  0  0  0
  188.4160  173.4430  136.2330 N   0  0  0  0  0  1  0  0  0  0  0  0
  1 35  1  1  0  0  0
  2  3  1  0  0  0  0
  3  5  1  0  0  0  0
  4  8  1  6  0  0  0
  4  6  1  0  0  0  0
  4  2  1  0  0  0  0
  6  7  1  0  0  0  0
  7  1  1  1  0  0  0
  7  5  1  0  0  0  0
  9  8  1  0  0  0  0
 10 12  1  1  0  0  0
 10 11  1  0  0  0  0
 11  9  1  1  0  0  0
 13 10  1  0  0  0  0
 13 11  1  0  0  0  0
 14 10  1  0  0  0  0
 15 17  1  1  0  0  0
 15 14  1  0  0  0  0
 16 17  2  0  0  0  0
 17 18  1  0  0  0  0
 20 19  1  6  0  0  0
 20 15  1  0  0  0  0
 21 22  1  0  0  0  0
 21 32  1  0  0  0  0
 22 34  1  0  0  0  0
 23 32  1  6  0  0  0
 23 26  1  0  0  0  0
 23 30  1  0  0  0  0
 23 31  1  0  0  0  0
 26 33  1  6  0  0  0
 26 29  1  0  0  0  0
 26 31  1  0  0  0  0
 27 21  1  0  0  0  0
 28 24  2  0  0  0  0
 28 25  1  0  0  0  0
 29 20  1  6  0  0  0
 29 25  1  0  0  0  0
 30 28  1  0  0  0  0
 34 30  1  0  0  0  0
 35 36  1  0  0  0  0
 37 38  1  6  0  0  0
 37 49  1  0  0  0  0
 37  1  1  0  0  0  0
 39 38  1  0  0  0  0
 40 39  1  0  0  0  0
 41 48  2  1  0  0  0
 41 40  1  0  0  0  0
 42 47  1  0  0  0  0
 43 46  1  0  0  0  0
 43 42  1  0  0  0  0
 44 45  1  0  0  0  0
 45 41  1  0  0  0  0
 46 44  1  0  0  0  0
 47 41  1  0  0  0  0
 49 50  1  0  0  0  0
 51 50  1  0  0  0  0
 51 52  2  0  0  0  0
 53 51  1  0  0  0  0
 54 53  2  0  0  0  0
 55 54  1  0  0  0  0
 56 55  1  0  0  0  0
 57 56  1  0  0  0  0
 59 58  1  6  0  0  0
 59 60  1  0  0  0  0
 59 57  1  0  0  0  0
 62 61  1  6  0  0  0
 62 60  1  0  0  0  0
 63 65  1  0  0  0  0
 63 62  1  1  0  0  0
 64 63  1  0  0  0  0
 64 65  1  0  0  0  0
 65 66  1  6  0  0  0
 66 67  1  0  0  0  0
 68 67  1  0  0  0  0
M  END
>  <MODEL>
6

>  <REMARK>
 VINA RESULT:      -5.0      2.852     11.590
  Name = 
  27 active torsions:
  status: ('A' for Active; 'I' for Inactive)
    1  A    between atoms: C_1  and  C_48
    2  A    between atoms: P_2  and  N_22
    3  A    between atoms: O_3  and  C_5
    4  A    between atoms: O_3  and  C_62
    5  A    between atoms: C_4  and  C_9
    6  A    between atoms: C_4  and  N_31
    7  A    between atoms: O_8  and  C_66
    8  A    between atoms: C_9  and  C_33
    9  A    between atoms: C_9  and  C_66
   10  A    between atoms: C_10  and  C_49
   11  A    between atoms: C_12  and  C_42
   12  A    between atoms: C_13  and  C_34
   13  A    between atoms: C_17  and  C_34
   14  A    between atoms: N_22  and  C_51
   15  A    between atoms: C_24  and  C_39
   16  A    between atoms: C_28  and  C_44
   17  A    between atoms: C_28  and  C_62
   18  A    between atoms: C_29  and  O_52
   19  A    between atoms: C_29  and  O_56
   20  A    between atoms: C_32  and  C_67
   21  A    between atoms: C_33  and  C_51
   22  A    between atoms: C_37  and  C_62
   23  A    between atoms: C_39  and  C_53
   24  A    between atoms: C_47  and  C_66
   25  A    between atoms: C_48  and  O_52
   26  A    between atoms: C_49  and  C_67
   27  A    between atoms: C_53  and  O_56
                            x       y       z     vdW  Elec       q    Type
                         _______ _______ _______ _____ _____    ______ ____

>  <TORSDO>
F 27

$$$$
=
 OpenBabel10232412123D

 68 74  0  0  1  0  0  0  0  0999 V2000
  187.0640  177.8470  144.9030 C   0  0  1  0  0  3  0  0  0  0  0  0
  191.3230  177.1230  144.8250 C   0  0  0  0  0  2  0  0  0  0  0  0
  190.6410  176.9010  146.1680 C   0  0  0  0  0  2  0  0  0  0  0  0
  190.8310  178.4230  144.1600 C   0  0  2  0  0  3  0  0  0  0  0  0
  189.1310  176.6870  145.9830 C   0  0  0  0  0  2  0  0  0  0  0  0
  189.3960  178.7850  144.5620 C   0  0  0  0  0  2  0  0  0  0  0  0
  188.5680  177.5280  144.8200 C   0  0  2  0  0  3  0  0  0  0  0  0
  190.9160  178.2890  142.6470 C   0  0  0  0  0  2  0  0  0  0  0  0
  191.7380  177.0880  142.2260 C   0  0  0  0  0  2  0  0  0  0  0  0
  192.8770  176.7710  140.0290 C   0  0  1  0  0  0  0  0  0  0  0  0
  192.8920  177.5030  141.3210 C   0  0  1  0  0  3  0  0  0  0  0  0
  191.8780  175.8110  139.7920 O   0  0  0  0  0  1  0  0  0  0  0  0
  192.3810  178.0790  140.1320 O   0  0  0  0  0  0  0  0  0  0  0  0
  194.0940  176.6690  139.3220 O   0  0  0  0  0  0  0  0  0  0  0  0
  194.6260  175.3790  139.5480 C   0  0  2  0  0  3  0  0  0  0  0  0
  196.9240  175.1480  138.8670 O   0  0  0  0  0  0  0  0  0  0  0  0
  196.1070  175.4430  139.7870 C   0  0  0  0  0  0  0  0  0  0  0  0
  196.5830  175.8110  141.0380 O   0  0  0  0  0  1  0  0  0  0  0  0
  195.0380  173.2610  138.3860 O   0  0  0  0  0  1  0  0  0  0  0  0
  194.2110  174.3890  138.4260 C   0  0  2  0  0  3  0  0  0  0  0  0
  195.4360  170.8860  135.2190 N   0  0  0  0  0  0  0  0  0  0  0  0
  194.1700  170.5030  134.6180 C   0  0  0  0  0  2  0  0  0  0  0  0
  194.6600  173.1880  135.3360 C   0  0  1  0  0  0  0  0  0  0  0  0
  191.0850  173.0620  136.2220 O   0  0  0  0  0  0  0  0  0  0  0  0
  192.5880  174.8860  136.5550 C   0  0  0  0  0  2  0  0  0  0  0  0
  195.0310  174.4540  136.0040 C   0  0  2  0  0  0  0  0  0  0  0  0
  196.4590  170.0160  134.6620 C   0  0  0  0  0  1  0  0  0  0  0  0
  192.2700  173.4840  136.1210 C   0  0  0  0  0  0  0  0  0  0  0  0
  194.0390  175.0260  137.0350 C   0  0  2  0  0  3  0  0  0  0  0  0
  193.2950  172.6570  135.5230 N   0  0  0  0  0  0  0  0  0  0  0  0
  194.6240  174.4230  134.6530 O   0  0  0  0  0  0  0  0  0  0  0  0
  195.7200  172.2430  134.7720 C   0  0  0  0  0  2  0  0  0  0  0  0
  196.3930  174.7340  136.1290 O   0  0  0  0  0  1  0  0  0  0  0  0
  193.0110  171.2330  135.3140 C   0  0  0  0  0  2  0  0  0  0  0  0
  186.8450  179.1190  145.4710 O   0  0  0  0  0  0  0  0  0  0  0  0
  186.3840  178.8750  146.7730 C   0  0  0  0  0  1  0  0  0  0  0  0
  186.2590  177.6620  143.6010 C   0  0  1  0  0  3  0  0  0  0  0  0
  184.8640  178.2370  143.7900 C   0  0  0  0  0  2  0  0  0  0  0  0
  184.1540  178.3060  142.4470 C   0  0  0  0  0  2  0  0  0  0  0  0
  182.8190  178.8630  142.6250 N   0  0  0  0  0  2  0  0  0  0  0  0
  182.0210  178.9170  141.0610 P   0  0  1  0  0  0  0  0  0  0  0  0
  180.7530  177.3910  139.5490 C   0  0  0  0  0  2  0  0  0  0  0  0
  181.4680  177.4430  138.1930 C   0  0  0  0  0  2  0  0  0  0  0  0
  182.4630  179.4310  138.6500 C   0  0  0  0  0  2  0  0  0  0  0  0
  183.0520  179.6480  139.9020 O   0  0  0  0  0  0  0  0  0  0  0  0
  182.7100  178.1130  138.2400 O   0  0  0  0  0  0  0  0  0  0  0  0
  181.6700  177.3110  140.6010 O   0  0  0  0  0  0  0  0  0  0  0  0
  180.7390  179.7160  141.1980 O   0  0  0  0  0  0  0  0  0  0  0  0
  186.9330  178.3340  142.4080 C   0  0  0  0  0  2  0  0  0  0  0  0
  187.9160  177.4240  141.8400 N   0  0  0  0  0  2  0  0  0  0  0  0
  188.1630  177.3290  140.4440 C   0  0  0  0  0  0  0  0  0  0  0  0
  188.9630  176.4460  140.0310 O   0  0  0  0  0  0  0  0  0  0  0  0
  187.4760  178.2310  139.4940 C   0  0  0  0  0  3  0  0  0  0  0  0
  187.9710  178.7050  138.3430 C   0  0  0  0  0  3  0  0  0  0  0  0
  189.3270  178.3800  137.8120 C   0  0  0  0  0  2  0  0  0  0  0  0
  189.2090  177.8150  136.4040 C   0  0  0  0  0  2  0  0  0  0  0  0
  188.4950  176.6120  136.4660 O   0  0  0  0  0  0  0  0  0  0  0  0
  189.4180  175.3130  134.7730 O   0  0  0  0  0  1  0  0  0  0  0  0
  188.3340  176.1140  135.1520 C   0  0  1  0  0  3  0  0  0  0  0  0
  187.1230  175.4210  135.0010 O   0  0  0  0  0  0  0  0  0  0  0  0
  185.9660  177.3860  134.8220 O   0  0  0  0  0  1  0  0  0  0  0  0
  186.1510  176.2320  135.5890 C   0  0  1  0  0  3  0  0  0  0  0  0
  184.8360  175.4650  135.6550 C   0  0  1  0  0  3  0  0  0  0  0  0
  184.8910  174.3390  134.8100 O   0  0  0  0  0  0  0  0  0  0  0  0
  185.0650  174.1100  136.1910 C   0  0  2  0  0  3  0  0  0  0  0  0
  183.7760  173.5700  136.7720 C   0  0  0  0  0  2  0  0  0  0  0  0
  183.8840  172.0660  136.9020 C   0  0  0  0  0  2  0  0  0  0  0  0
  183.5570  171.4420  135.6280 N   0  0  0  0  0  1  0  0  0  0  0  0
  1 35  1  6  0  0  0
  2  3  1  0  0  0  0
  4  8  1  6  0  0  0
  4  6  1  0  0  0  0
  4  2  1  0  0  0  0
  5  3  1  0  0  0  0
  6  7  1  0  0  0  0
  7  1  1  1  0  0  0
  7  5  1  0  0  0  0
  9  8  1  0  0  0  0
 10 12  1  6  0  0  0
 10 13  1  0  0  0  0
 10 11  1  0  0  0  0
 11  9  1  1  0  0  0
 13 11  1  0  0  0  0
 14 10  1  0  0  0  0
 15 14  1  6  0  0  0
 15 17  1  0  0  0  0
 16 17  2  0  0  0  0
 17 18  1  0  0  0  0
 20 19  1  6  0  0  0
 20 15  1  0  0  0  0
 22 21  1  0  0  0  0
 22 34  1  0  0  0  0
 23 32  1  6  0  0  0
 23 30  1  0  0  0  0
 23 26  1  0  0  0  0
 25 29  1  0  0  0  0
 26 33  1  1  0  0  0
 26 29  1  0  0  0  0
 27 21  1  0  0  0  0
 28 24  2  0  0  0  0
 28 25  1  0  0  0  0
 29 20  1  1  0  0  0
 30 28  1  0  0  0  0
 31 23  1  0  0  0  0
 31 26  1  0  0  0  0
 32 21  1  0  0  0  0
 34 30  1  0  0  0  0
 35 36  1  0  0  0  0
 37 49  1  6  0  0  0
 37 38  1  0  0  0  0
 37  1  1  0  0  0  0
 39 40  1  0  0  0  0
 39 38  1  0  0  0  0
 41 48  2  1  0  0  0
 41 40  1  0  0  0  0
 42 47  1  0  0  0  0
 43 46  1  0  0  0  0
 43 42  1  0  0  0  0
 44 45  1  0  0  0  0
 45 41  1  0  0  0  0
 46 44  1  0  0  0  0
 47 41  1  0  0  0  0
 50 49  1  0  0  0  0
 51 50  1  0  0  0  0
 52 51  2  0  0  0  0
 53 51  1  0  0  0  0
 54 53  2  0  0  0  0
 55 54  1  0  0  0  0
 56 57  1  0  0  0  0
 56 55  1  0  0  0  0
 59 58  1  1  0  0  0
 59 57  1  0  0  0  0
 60 59  1  0  0  0  0
 60 62  1  0  0  0  0
 62 61  1  6  0  0  0
 63 62  1  6  0  0  0
 63 65  1  0  0  0  0
 64 63  1  0  0  0  0
 64 65  1  0  0  0  0
 65 66  1  1  0  0  0
 66 67  1  0  0  0  0
 68 67  1  0  0  0  0
M  END
>  <MODEL>
7

>  <REMARK>
 VINA RESULT:      -4.3      3.033     11.787
  Name = 
  27 active torsions:
  status: ('A' for Active; 'I' for Inactive)
    1  A    between atoms: C_1  and  C_48
    2  A    between atoms: P_2  and  N_22
    3  A    between atoms: O_3  and  C_5
    4  A    between atoms: O_3  and  C_62
    5  A    between atoms: C_4  and  C_9
    6  A    between atoms: C_4  and  N_31
    7  A    between atoms: O_8  and  C_66
    8  A    between atoms: C_9  and  C_33
    9  A    between atoms: C_9  and  C_66
   10  A    between atoms: C_10  and  C_49
   11  A    between atoms: C_12  and  C_42
   12  A    between atoms: C_13  and  C_34
   13  A    between atoms: C_17  and  C_34
   14  A    between atoms: N_22  and  C_51
   15  A    between atoms: C_24  and  C_39
   16  A    between atoms: C_28  and  C_44
   17  A    between atoms: C_28  and  C_62
   18  A    between atoms: C_29  and  O_52
   19  A    between atoms: C_29  and  O_56
   20  A    between atoms: C_32  and  C_67
   21  A    between atoms: C_33  and  C_51
   22  A    between atoms: C_37  and  C_62
   23  A    between atoms: C_39  and  C_53
   24  A    between atoms: C_47  and  C_66
   25  A    between atoms: C_48  and  O_52
   26  A    between atoms: C_49  and  C_67
   27  A    between atoms: C_53  and  O_56
                            x       y       z     vdW  Elec       q    Type
                         _______ _______ _______ _____ _____    ______ ____

>  <TORSDO>
F 27

$$$$
=
 OpenBabel10232412123D

 68 74  0  0  1  0  0  0  0  0999 V2000
  185.9960  177.0250  137.3040 C   0  0  1  0  0  3  0  0  0  0  0  0
  189.2140  176.8420  134.4260 C   0  0  0  0  0  2  0  0  0  0  0  0
  188.3330  178.0820  134.3530 C   0  0  0  0  0  2  0  0  0  0  0  0
  188.3640  175.5670  134.5950 C   0  0  2  0  0  3  0  0  0  0  0  0
  187.5830  178.2960  135.6770 C   0  0  0  0  0  2  0  0  0  0  0  0
  187.0430  175.8310  135.3250 C   0  0  0  0  0  2  0  0  0  0  0  0
  187.1960  176.9600  136.3420 C   0  0  2  0  0  3  0  0  0  0  0  0
  189.1620  174.5170  135.3530 C   0  0  0  0  0  2  0  0  0  0  0  0
  190.3860  175.1050  136.0250 C   0  0  0  0  0  2  0  0  0  0  0  0
  192.6100  174.0420  135.6390 C   0  0  1  0  0  0  0  0  0  0  0  0
  191.6080  175.0080  135.1210 C   0  0  1  0  0  3  0  0  0  0  0  0
  192.3590  173.3720  136.8490 O   0  0  0  0  0  1  0  0  0  0  0  0
  191.7220  173.6900  134.6120 O   0  0  0  0  0  0  0  0  0  0  0  0
  193.9470  174.1980  135.2170 O   0  0  0  0  0  0  0  0  0  0  0  0
  194.7710  174.2060  136.3650 C   0  0  2  0  0  3  0  0  0  0  0  0
  194.6570  175.5320  138.3720 O   0  0  0  0  0  1  0  0  0  0  0  0
  194.6470  175.5060  137.1070 C   0  0  0  0  0  0  0  0  0  0  0  0
  194.5000  176.6880  136.3950 O   0  0  0  0  0  0  0  0  0  0  0  0
  196.3590  173.3500  134.7040 O   0  0  0  0  0  1  0  0  0  0  0  0
  196.2340  173.8180  136.0170 C   0  0  2  0  0  3  0  0  0  0  0  0
  193.8320  169.5570  135.6510 N   0  0  0  0  0  0  0  0  0  0  0  0
  194.7820  168.6740  134.9950 C   0  0  0  0  0  2  0  0  0  0  0  0
  195.6710  170.6220  136.8340 C   0  0  1  0  0  0  0  0  0  0  0  0
  198.4830  170.8320  134.4610 O   0  0  0  0  0  0  0  0  0  0  0  0
  198.1250  172.1850  136.3950 C   0  0  0  0  0  2  0  0  0  0  0  0
  195.9250  171.8490  137.6200 C   0  0  2  0  0  0  0  0  0  0  0  0
  192.5970  168.8100  135.8240 C   0  0  0  0  0  1  0  0  0  0  0  0
  197.7220  171.1080  135.4300 C   0  0  0  0  0  0  0  0  0  0  0  0
  196.9100  172.8760  137.0300 C   0  0  2  0  0  3  0  0  0  0  0  0
  196.5140  170.3460  135.6530 N   0  0  0  0  0  0  0  0  0  0  0  0
  196.4440  170.5970  138.0140 O   0  0  0  0  0  0  0  0  0  0  0  0
  194.3670  169.8400  136.9760 C   0  0  0  0  0  2  0  0  0  0  0  0
  194.9090  172.2810  138.4740 O   0  0  0  0  0  1  0  0  0  0  0  0
  196.0380  169.4580  134.5860 C   0  0  0  0  0  2  0  0  0  0  0  0
  185.9790  175.9130  138.1710 O   0  0  0  0  0  0  0  0  0  0  0  0
  184.7430  175.2870  137.9560 C   0  0  0  0  0  1  0  0  0  0  0  0
  185.8160  178.3480  138.0760 C   0  0  1  0  0  3  0  0  0  0  0  0
  184.6750  178.1960  139.0700 C   0  0  0  0  0  2  0  0  0  0  0  0
  184.2780  179.5620  139.6040 C   0  0  0  0  0  2  0  0  0  0  0  0
  183.2790  180.1620  138.7270 N   0  0  0  0  0  2  0  0  0  0  0  0
  181.7950  179.2300  138.8470 P   0  0  1  0  0  0  0  0  0  0  0  0
  180.4580  178.0520  140.5930 C   0  0  0  0  0  2  0  0  0  0  0  0
  180.2730  176.6150  140.0920 C   0  0  0  0  0  2  0  0  0  0  0  0
  180.6860  177.1800  137.9320 C   0  0  0  0  0  2  0  0  0  0  0  0
  181.7540  178.0290  137.6230 O   0  0  0  0  0  0  0  0  0  0  0  0
  181.0660  176.3080  138.9640 O   0  0  0  0  0  0  0  0  0  0  0  0
  181.7680  178.4950  140.3880 O   0  0  0  0  0  0  0  0  0  0  0  0
  180.6170  180.1720  138.6950 O   0  0  0  0  0  0  0  0  0  0  0  0
  187.0870  178.7610  138.8130 C   0  0  0  0  0  2  0  0  0  0  0  0
  186.9270  178.4840  140.2320 N   0  0  0  0  0  2  0  0  0  0  0  0
  187.9060  177.7940  140.9980 C   0  0  0  0  0  0  0  0  0  0  0  0
  187.6430  177.5120  142.1990 O   0  0  0  0  0  0  0  0  0  0  0  0
  189.1930  177.3930  140.3910 C   0  0  0  0  0  3  0  0  0  0  0  0
  190.3950  177.4120  140.9820 C   0  0  0  0  0  3  0  0  0  0  0  0
  190.6330  177.8380  142.3920 C   0  0  0  0  0  2  0  0  0  0  0  0
  190.5220  176.6370  143.3200 C   0  0  0  0  0  2  0  0  0  0  0  0
  191.6770  176.5770  144.1100 O   0  0  0  0  0  0  0  0  0  0  0  0
  192.3570  176.7230  146.3280 O   0  0  0  0  0  1  0  0  0  0  0  0
  191.2920  176.4450  145.4640 C   0  0  1  0  0  3  0  0  0  0  0  0
  190.1780  177.2410  145.7700 O   0  0  0  0  0  0  0  0  0  0  0  0
  190.4140  177.2920  148.0450 O   0  0  0  0  0  1  0  0  0  0  0  0
  189.6870  176.7500  146.9810 C   0  0  1  0  0  3  0  0  0  0  0  0
  188.2240  177.1510  147.1250 C   0  0  1  0  0  3  0  0  0  0  0  0
  188.1150  178.5530  147.2150 O   0  0  0  0  0  0  0  0  0  0  0  0
  187.8060  177.9670  145.9700 C   0  0  2  0  0  3  0  0  0  0  0  0
  186.3020  177.8940  145.8150 C   0  0  0  0  0  2  0  0  0  0  0  0
  185.7650  179.2810  145.5330 C   0  0  0  0  0  2  0  0  0  0  0  0
  184.4330  179.1790  144.9550 N   0  0  0  0  0  1  0  0  0  0  0  0
  1 37  1  0  0  0  0
  1 35  1  1  0  0  0
  2  4  1  0  0  0  0
  3  2  1  0  0  0  0
  3  5  1  0  0  0  0
  4  6  1  0  0  0  0
  4  8  1  1  0  0  0
  5  7  1  0  0  0  0
  6  7  1  0  0  0  0
  7  1  1  6  0  0  0
  8  9  1  0  0  0  0
 10 12  1  1  0  0  0
 11 10  1  0  0  0  0
 11  9  1  1  0  0  0
 13 11  1  0  0  0  0
 13 10  1  0  0  0  0
 14 10  1  0  0  0  0
 15 14  1  6  0  0  0
 15 17  1  0  0  0  0
 17 16  1  0  0  0  0
 18 17  2  0  0  0  0
 20 19  1  6  0  0  0
 20 15  1  0  0  0  0
 21 27  1  0  0  0  0
 21 32  1  0  0  0  0
 22 21  1  0  0  0  0
 23 32  1  1  0  0  0
 23 26  1  0  0  0  0
 23 31  1  0  0  0  0
 24 28  2  0  0  0  0
 25 29  1  0  0  0  0
 26 31  1  0  0  0  0
 26 33  1  1  0  0  0
 28 30  1  0  0  0  0
 28 25  1  0  0  0  0
 29 20  1  6  0  0  0
 29 26  1  0  0  0  0
 30 23  1  0  0  0  0
 34 22  1  0  0  0  0
 34 30  1  0  0  0  0
 36 35  1  0  0  0  0
 37 49  1  1  0  0  0
 37 38  1  0  0  0  0
 38 39  1  0  0  0  0
 40 41  1  0  0  0  0
 40 39  1  0  0  0  0
 41 48  2  6  0  0  0
 41 47  1  0  0  0  0
 43 42  1  0  0  0  0
 44 46  1  0  0  0  0
 45 44  1  0  0  0  0
 45 41  1  0  0  0  0
 46 43  1  0  0  0  0
 47 42  1  0  0  0  0
 49 50  1  0  0  0  0
 50 51  1  0  0  0  0
 51 52  2  0  0  0  0
 53 54  2  0  0  0  0
 53 51  1  0  0  0  0
 54 55  1  0  0  0  0
 55 56  1  0  0  0  0
 56 57  1  0  0  0  0
 57 59  1  0  0  0  0
 59 60  1  0  0  0  0
 59 58  1  1  0  0  0
 60 62  1  0  0  0  0
 62 61  1  1  0  0  0
 63 62  1  6  0  0  0
 63 64  1  0  0  0  0
 65 66  1  1  0  0  0
 65 63  1  0  0  0  0
 65 64  1  0  0  0  0
 67 66  1  0  0  0  0
 68 67  1  0  0  0  0
M  END
>  <MODEL>
8

>  <REMARK>
 VINA RESULT:      -4.3      3.165     10.821
  Name = 
  27 active torsions:
  status: ('A' for Active; 'I' for Inactive)
    1  A    between atoms: C_1  and  C_48
    2  A    between atoms: P_2  and  N_22
    3  A    between atoms: O_3  and  C_5
    4  A    between atoms: O_3  and  C_62
    5  A    between atoms: C_4  and  C_9
    6  A    between atoms: C_4  and  N_31
    7  A    between atoms: O_8  and  C_66
    8  A    between atoms: C_9  and  C_33
    9  A    between atoms: C_9  and  C_66
   10  A    between atoms: C_10  and  C_49
   11  A    between atoms: C_12  and  C_42
   12  A    between atoms: C_13  and  C_34
   13  A    between atoms: C_17  and  C_34
   14  A    between atoms: N_22  and  C_51
   15  A    between atoms: C_24  and  C_39
   16  A    between atoms: C_28  and  C_44
   17  A    between atoms: C_28  and  C_62
   18  A    between atoms: C_29  and  O_52
   19  A    between atoms: C_29  and  O_56
   20  A    between atoms: C_32  and  C_67
   21  A    between atoms: C_33  and  C_51
   22  A    between atoms: C_37  and  C_62
   23  A    between atoms: C_39  and  C_53
   24  A    between atoms: C_47  and  C_66
   25  A    between atoms: C_48  and  O_52
   26  A    between atoms: C_49  and  C_67
   27  A    between atoms: C_53  and  O_56
                            x       y       z     vdW  Elec       q    Type
                         _______ _______ _______ _____ _____    ______ ____

>  <TORSDO>
F 27

$$$$
=
 OpenBabel10232412123D

 68 74  0  0  1  0  0  0  0  0999 V2000
  181.8970  175.4470  139.1860 C   0  0  1  0  0  3  0  0  0  0  0  0
  184.0350  179.1270  139.9300 C   0  0  0  0  0  2  0  0  0  0  0  0
  182.8610  178.8470  140.8580 C   0  0  0  0  0  2  0  0  0  0  0  0
  183.6680  178.8260  138.4640 C   0  0  2  0  0  3  0  0  0  0  0  0
  182.5080  177.3520  140.8540 C   0  0  0  0  0  2  0  0  0  0  0  0
  182.6030  177.7300  138.3360 C   0  0  0  0  0  2  0  0  0  0  0  0
  182.7270  176.7130  139.4680 C   0  0  2  0  0  3  0  0  0  0  0  0
  184.9160  178.4120  137.6980 C   0  0  0  0  0  2  0  0  0  0  0  0
  186.1820  178.9440  138.3400 C   0  0  0  0  0  2  0  0  0  0  0  0
  188.1500  178.1270  139.6370 C   0  0  1  0  0  0  0  0  0  0  0  0
  186.6850  178.0000  139.4240 C   0  0  1  0  0  3  0  0  0  0  0  0
  188.8840  179.0310  138.8510 O   0  0  0  0  0  1  0  0  0  0  0  0
  187.2320  178.7510  140.4940 O   0  0  0  0  0  0  0  0  0  0  0  0
  188.8230  177.0300  140.2140 O   0  0  0  0  0  0  0  0  0  0  0  0
  189.7580  177.5320  141.1480 C   0  0  2  0  0  3  0  0  0  0  0  0
  192.0450  176.9140  141.5810 O   0  0  0  0  0  1  0  0  0  0  0  0
  191.1640  177.2150  140.7250 C   0  0  0  0  0  0  0  0  0  0  0  0
  191.5020  177.2720  139.3800 O   0  0  0  0  0  0  0  0  0  0  0  0
  188.5010  176.0190  142.6110 O   0  0  0  0  0  1  0  0  0  0  0  0
  189.4190  177.0760  142.5930 C   0  0  2  0  0  3  0  0  0  0  0  0
  190.5230  175.4690  147.0940 N   0  0  0  0  0  0  0  0  0  0  0  0
  191.6710  176.2720  147.4810 C   0  0  0  0  0  2  0  0  0  0  0  0
  189.6020  177.3890  145.9190 C   0  0  1  0  0  0  0  0  0  0  0  0
  192.4390  179.1310  144.3380 O   0  0  0  0  0  0  0  0  0  0  0  0
  190.1440  179.2330  143.6900 C   0  0  0  0  0  2  0  0  0  0  0  0
  188.5510  177.6820  144.9210 C   0  0  2  0  0  0  0  0  0  0  0  0
  190.2800  174.5170  148.1660 C   0  0  0  0  0  1  0  0  0  0  0  0
  191.2650  178.7140  144.5440 C   0  0  0  0  0  0  0  0  0  0  0  0
  189.0070  178.2110  143.5480 C   0  0  2  0  0  3  0  0  0  0  0  0
  190.9890  177.8080  145.6360 N   0  0  0  0  0  0  0  0  0  0  0  0
  188.7580  178.5130  146.0430 O   0  0  0  0  0  0  0  0  0  0  0  0
  189.3800  176.3700  147.0350 C   0  0  0  0  0  2  0  0  0  0  0  0
  187.3580  176.9640  145.0210 O   0  0  0  0  0  1  0  0  0  0  0  0
  192.1190  177.1550  146.3070 C   0  0  0  0  0  2  0  0  0  0  0  0
  180.5160  175.7130  139.2790 O   0  0  0  0  0  0  0  0  0  0  0  0
  179.9820  174.6660  140.0450 C   0  0  0  0  0  1  0  0  0  0  0  0
  182.2420  174.6850  137.8900 C   0  0  1  0  0  3  0  0  0  0  0  0
  181.1330  174.9040  136.8720 C   0  0  0  0  0  2  0  0  0  0  0  0
  181.0000  173.6740  135.9890 C   0  0  0  0  0  2  0  0  0  0  0  0
  181.3240  172.4790  136.7590 N   0  0  0  0  0  2  0  0  0  0  0  0
  182.0780  171.3090  135.6880 P   0  0  1  0  0  0  0  0  0  0  0  0
  181.4500  169.2610  134.4100 C   0  0  0  0  0  2  0  0  0  0  0  0
  182.4330  168.1670  134.8460 C   0  0  0  0  0  2  0  0  0  0  0  0
  183.9650  169.6660  135.5940 C   0  0  0  0  0  2  0  0  0  0  0  0
  183.5550  170.7600  136.3640 O   0  0  0  0  0  0  0  0  0  0  0  0
  183.2210  168.5330  135.9590 O   0  0  0  0  0  0  0  0  0  0  0  0
  180.9970  169.9990  135.5060 O   0  0  0  0  0  0  0  0  0  0  0  0
  182.3300  171.9710  134.3470 O   0  0  0  0  0  0  0  0  0  0  0  0
  183.5760  175.1310  137.2980 C   0  0  0  0  0  2  0  0  0  0  0  0
  184.1850  174.0120  136.5960 N   0  0  0  0  0  2  0  0  0  0  0  0
  185.2790  174.1660  135.7010 C   0  0  0  0  0  0  0  0  0  0  0  0
  185.6820  173.1560  135.0620 O   0  0  0  0  0  0  0  0  0  0  0  0
  185.9120  175.4880  135.5050 C   0  0  0  0  0  3  0  0  0  0  0  0
  187.1550  175.8380  135.8600 C   0  0  0  0  0  3  0  0  0  0  0  0
  188.1330  174.9220  136.5140 C   0  0  0  0  0  2  0  0  0  0  0  0
  189.5010  175.5860  136.5780 C   0  0  0  0  0  2  0  0  0  0  0  0
  190.4130  174.7940  135.8690 O   0  0  0  0  0  0  0  0  0  0  0  0
  191.1680  174.7170  138.0670 O   0  0  0  0  0  1  0  0  0  0  0  0
  191.4890  174.4660  136.7280 C   0  0  1  0  0  3  0  0  0  0  0  0
  191.9100  173.1390  136.5540 O   0  0  0  0  0  0  0  0  0  0  0  0
  193.8020  174.4020  136.3200 O   0  0  0  0  0  1  0  0  0  0  0  0
  193.1600  173.2200  135.9390 C   0  0  1  0  0  3  0  0  0  0  0  0
  194.0080  172.0320  136.3770 C   0  0  1  0  0  3  0  0  0  0  0  0
  193.8140  170.9500  135.4950 O   0  0  0  0  0  0  0  0  0  0  0  0
  194.9970  171.7020  135.3340 C   0  0  2  0  0  3  0  0  0  0  0  0
  196.1540  170.9470  135.9530 C   0  0  0  0  0  2  0  0  0  0  0  0
  195.7630  169.4950  136.1230 C   0  0  0  0  0  2  0  0  0  0  0  0
  195.2700  168.9720  134.8580 N   0  0  0  0  0  1  0  0  0  0  0  0
  1 35  1  6  0  0  0
  2  3  1  0  0  0  0
  4  8  1  6  0  0  0
  4  2  1  0  0  0  0
  5  3  1  0  0  0  0
  6  4  1  0  0  0  0
  6  7  1  0  0  0  0
  7  1  1  6  0  0  0
  7  5  1  0  0  0  0
  8  9  1  0  0  0  0
 10 12  1  6  0  0  0
 10 14  1  0  0  0  0
 10 13  1  0  0  0  0
 11  9  1  6  0  0  0
 11 10  1  0  0  0  0
 11 13  1  0  0  0  0
 15 14  1  6  0  0  0
 15 20  1  0  0  0  0
 17 15  1  0  0  0  0
 17 16  1  0  0  0  0
 18 17  2  0  0  0  0
 20 19  1  6  0  0  0
 21 22  1  0  0  0  0
 21 27  1  0  0  0  0
 23 31  1  0  0  0  0
 23 32  1  1  0  0  0
 24 28  2  0  0  0  0
 25 28  1  0  0  0  0
 26 33  1  1  0  0  0
 26 23  1  0  0  0  0
 26 31  1  0  0  0  0
 28 30  1  0  0  0  0
 29 20  1  6  0  0  0
 29 25  1  0  0  0  0
 29 26  1  0  0  0  0
 30 23  1  0  0  0  0
 30 34  1  0  0  0  0
 32 21  1  0  0  0  0
 34 22  1  0  0  0  0
 35 36  1  0  0  0  0
 37 38  1  6  0  0  0
 37  1  1  0  0  0  0
 39 40  1  0  0  0  0
 39 38  1  0  0  0  0
 41 48  2  6  0  0  0
 41 45  1  0  0  0  0
 41 40  1  0  0  0  0
 42 43  1  0  0  0  0
 42 47  1  0  0  0  0
 43 46  1  0  0  0  0
 44 46  1  0  0  0  0
 44 45  1  0  0  0  0
 47 41  1  0  0  0  0
 49 37  1  0  0  0  0
 50 49  1  0  0  0  0
 51 50  1  0  0  0  0
 52 51  2  0  0  0  0
 53 51  1  0  0  0  0
 53 54  2  0  0  0  0
 54 55  1  0  0  0  0
 55 56  1  0  0  0  0
 57 56  1  0  0  0  0
 57 59  1  0  0  0  0
 59 58  1  1  0  0  0
 60 59  1  0  0  0  0
 62 61  1  1  0  0  0
 62 60  1  0  0  0  0
 63 62  1  6  0  0  0
 64 63  1  0  0  0  0
 65 64  1  0  0  0  0
 65 66  1  1  0  0  0
 65 63  1  0  0  0  0
 66 67  1  0  0  0  0
 68 67  1  0  0  0  0
M  END
>  <MODEL>
9

>  <REMARK>
 VINA RESULT:      -3.9      3.319     11.697
  Name = 
  27 active torsions:
  status: ('A' for Active; 'I' for Inactive)
    1  A    between atoms: C_1  and  C_48
    2  A    between atoms: P_2  and  N_22
    3  A    between atoms: O_3  and  C_5
    4  A    between atoms: O_3  and  C_62
    5  A    between atoms: C_4  and  C_9
    6  A    between atoms: C_4  and  N_31
    7  A    between atoms: O_8  and  C_66
    8  A    between atoms: C_9  and  C_33
    9  A    between atoms: C_9  and  C_66
   10  A    between atoms: C_10  and  C_49
   11  A    between atoms: C_12  and  C_42
   12  A    between atoms: C_13  and  C_34
   13  A    between atoms: C_17  and  C_34
   14  A    between atoms: N_22  and  C_51
   15  A    between atoms: C_24  and  C_39
   16  A    between atoms: C_28  and  C_44
   17  A    between atoms: C_28  and  C_62
   18  A    between atoms: C_29  and  O_52
   19  A    between atoms: C_29  and  O_56
   20  A    between atoms: C_32  and  C_67
   21  A    between atoms: C_33  and  C_51
   22  A    between atoms: C_37  and  C_62
   23  A    between atoms: C_39  and  C_53
   24  A    between atoms: C_47  and  C_66
   25  A    between atoms: C_48  and  O_52
   26  A    between atoms: C_49  and  C_67
   27  A    between atoms: C_53  and  O_56
                            x       y       z     vdW  Elec       q    Type
                         _______ _______ _______ _____ _____    ______ ____

>  <TORSDO>
F 27

$$$$
