=
 OpenBabel10232409103D

 59 64  0  0  1  0  0  0  0  0999 V2000
  188.6640  177.7190  140.4520 C   0  0  0  0  0  3  0  0  0  0  0  0
  187.5140  177.8670  141.1180 C   0  0  0  0  0  0  0  0  0  0  0  0
  185.1490  179.1660  138.3830 C   0  0  0  0  0  1  0  0  0  0  0  0
  188.8410  178.1920  139.0350 C   0  0  2  0  0  3  0  0  0  0  0  0
  187.5350  178.2860  138.3480 N   0  0  0  0  0  0  0  0  0  0  0  0
  186.3490  178.6280  139.1060 C   0  0  0  0  0  0  0  0  0  0  0  0
  186.3290  178.4380  140.4460 C   0  0  0  0  0  0  0  0  0  0  0  0
  191.1960  177.2880  139.0110 C   0  0  0  0  0  2  0  0  0  0  0  0
  189.8610  177.3260  138.2610 C   0  0  1  0  0  3  0  0  0  0  0  0
  190.4090  175.1120  137.2120 C   0  0  0  0  0  2  0  0  0  0  0  0
  189.3870  175.8820  138.0410 C   0  0  0  0  0  2  0  0  0  0  0  0
  191.7600  175.1000  137.9260 C   0  0  2  0  0  3  0  0  0  0  0  0
  192.2400  176.5280  138.2000 C   0  0  0  0  0  2  0  0  0  0  0  0
  194.0750  174.1360  137.6760 N   0  0  0  0  0  2  0  0  0  0  0  0
  192.4650  173.8700  135.9630 N   0  0  0  0  0  2  0  0  0  0  0  0
  192.7690  174.3390  137.1300 C   0  0  0  0  0  0  0  0  0  0  0  0
  197.3190  172.4680  137.3520 C   0  0  2  0  0  3  0  0  0  0  0  0
  195.9530  172.6360  138.0060 C   0  0  0  0  0  2  0  0  0  0  0  0
  196.0800  174.3100  136.2950 C   0  0  0  0  0  2  0  0  0  0  0  0
  195.1160  173.3800  136.9960 C   0  0  2  0  0  3  0  0  0  0  0  0
  197.4650  173.6780  136.4120 C   0  0  1  0  0  3  0  0  0  0  0  0
  197.3740  171.2110  136.5920 N   0  0  2  0  0  0  0  0  0  0  0  0
  197.3290  170.0910  137.5410 C   0  0  0  0  0  2  0  0  0  0  0  0
  198.6890  169.9060  134.9870 C   0  0  0  0  0  2  0  0  0  0  0  0
  198.1160  168.6850  135.6630 C   0  0  0  0  0  3  0  0  0  0  0  0
  198.6710  171.1240  135.9150 C   0  0  0  0  0  2  0  0  0  0  0  0
  197.4480  168.7710  136.8220 C   0  0  0  0  0  3  0  0  0  0  0  0
  198.4200  174.6490  136.9530 N   0  0  0  0  0  0  0  0  0  0  0  0
  197.7620  175.8210  137.1400 O   0  0  0  0  0  1  0  0  0  0  0  0
  198.8190  174.1970  138.2820 C   0  0  0  0  0  2  0  0  0  0  0  0
  197.6220  174.9920  140.3180 C   0  0  0  0  0  1  0  0  0  0  0  0
  198.6820  175.3260  139.2890 C   0  0  0  0  0  2  0  0  0  0  0  0
  185.1470  178.7680  141.3280 C   0  0  2  0  0  3  0  0  0  0  0  0
  185.4720  179.5310  142.6050 C   0  0  0  0  0  1  0  0  0  0  0  0
  184.1400  177.6260  141.4910 C   0  0  0  0  0  2  0  0  0  0  0  0
  182.9430  177.7300  140.5580 C   0  0  0  0  0  2  0  0  0  0  0  0
  182.7450  176.5090  139.9070 O   0  0  0  0  0  0  0  0  0  0  0  0
  180.0370  172.5470  137.7830 C   0  0  0  0  0  1  0  0  0  0  0  0
  183.2970  174.5610  137.5630 C   0  0  0  0  0  0  0  0  0  0  0  0
  183.7760  175.7550  137.9200 C   0  0  0  0  0  3  0  0  0  0  0  0
  181.3360  172.9650  137.1220 C   0  0  0  0  0  0  0  0  0  0  0  0
  181.8280  174.2720  137.7800 C   0  0  2  0  0  3  0  0  0  0  0  0
  183.7410  172.1280  136.7710 C   0  0  1  0  0  3  0  0  0  0  0  0
  184.2260  173.5090  137.0950 C   0  0  0  0  0  0  0  0  0  0  0  0
  185.4530  173.7630  136.9620 O   0  0  0  0  0  0  0  0  0  0  0  0
  181.4990  176.8400  137.8890 C   0  0  2  0  0  3  0  0  0  0  0  0
  182.8880  176.7910  138.5490 C   0  0  1  0  0  3  0  0  0  0  0  0
  182.3480  171.8370  137.3470 C   0  0  0  0  0  2  0  0  0  0  0  0
  181.0660  173.1410  135.6310 C   0  0  0  0  0  1  0  0  0  0  0  0
  180.9590  175.4830  137.3890 C   0  0  0  0  0  2  0  0  0  0  0  0
  181.4780  179.3350  137.4290 C   0  0  0  0  0  1  0  0  0  0  0  0
  182.5240  177.7740  135.7970 C   0  0  0  0  0  1  0  0  0  0  0  0
  181.4240  177.9390  136.8280 C   0  0  0  0  0  3  0  0  0  0  0  0
  184.3870  170.6180  135.0990 C   0  0  0  0  0  1  0  0  0  0  0  0
  183.7680  171.9110  135.3320 N   0  0  0  0  0  2  0  0  0  0  0  0
  187.4070  177.4650  142.4550 O   0  0  0  0  0  0  0  0  0  0  0  0
  188.2140  176.4470  143.0270 C   0  0  0  0  0  1  0  0  0  0  0  0
  186.4270  177.3960  136.3650 C   0  0  0  0  0  1  0  0  0  0  0  0
  187.4840  178.3470  136.8890 C   0  0  0  0  0  2  0  0  0  0  0  0
  1  2  2  0  0  0  0
  2 56  1  0  0  0  0
  3  6  1  0  0  0  0
  4  1  1  1  0  0  0
  5  4  1  0  0  0  0
  5  6  1  0  0  0  0
  6  7  2  0  0  0  0
  7  2  1  0  0  0  0
  7 33  1  0  0  0  0
  9 11  1  1  0  0  0
  9  8  1  0  0  0  0
  9  4  1  0  0  0  0
 10 12  1  0  0  0  0
 10 11  1  0  0  0  0
 12 16  1  6  0  0  0
 12 13  1  0  0  0  0
 13  8  1  0  0  0  0
 15 16  2  0  0  0  0
 16 14  1  0  0  0  0
 17 18  1  6  0  0  0
 19 21  1  0  0  0  0
 19 20  1  0  0  0  0
 20 14  1  1  0  0  0
 20 18  1  0  0  0  0
 21 28  1  1  0  0  0
 21 17  1  0  0  0  0
 22 26  1  1  0  0  0
 22 17  1  0  0  0  0
 22 23  1  0  0  0  0
 24 25  1  0  0  0  0
 24 26  1  0  0  0  0
 25 27  2  0  0  0  0
 27 23  1  0  0  0  0
 28 29  1  0  0  0  0
 28 30  1  0  0  0  0
 30 32  1  0  0  0  0
 32 31  1  0  0  0  0
 33 35  1  0  0  0  0
 33 34  1  1  0  0  0
 36 35  1  0  0  0  0
 37 36  1  0  0  0  0
 39 42  1  0  0  0  0
 39 40  2  0  0  0  0
 40 47  1  0  0  0  0
 41 48  1  0  0  0  0
 41 42  1  0  0  0  0
 41 38  1  0  0  0  0
 42 50  1  6  0  0  0
 43 55  1  6  0  0  0
 43 44  1  0  0  0  0
 43 48  1  0  0  0  0
 44 39  1  0  0  0  0
 45 44  2  0  0  0  0
 46 53  1  6  0  0  0
 46 47  1  0  0  0  0
 47 37  1  1  0  0  0
 49 41  1  0  0  0  0
 50 46  1  0  0  0  0
 52 53  1  0  0  0  0
 53 51  1  0  0  0  0
 54 55  1  0  0  0  0
 56 57  1  0  0  0  0
 58 59  1  0  0  0  0
 59  5  1  0  0  0  0
M  END
>  <MODEL>
1

>  <REMARK>
 VINA RESULT:      -6.0      0.000      0.000
  Name = 
  16 active torsions:
  status: ('A' for Active; 'I' for Inactive)
    1  A    between atoms: N_2  and  C_4
    2  A    between atoms: C_3  and  O_22
    3  A    between atoms: C_5  and  C_6
    4  A    between atoms: C_5  and  C_12
    5  A    between atoms: C_6  and  C_50
    6  A    between atoms: N_10  and  C_40
    7  A    between atoms: N_10  and  C_41
    8  A    between atoms: C_12  and  O_54
    9  A    between atoms: C_18  and  N_45
   10  A    between atoms: C_23  and  C_51
   11  A    between atoms: C_24  and  C_42
   12  A    between atoms: N_25  and  C_26
   13  A    between atoms: C_34  and  O_54
   14  A    between atoms: C_36  and  C_40
   15  A    between atoms: N_47  and  C_49
   16  A    between atoms: C_56  and  C_57
                            x       y       z     vdW  Elec       q    Type
                         _______ _______ _______ _____ _____    ______ ____

>  <TORSDO>
F 16

$$$$
=
 OpenBabel10232409103D

 59 64  0  0  1  0  0  0  0  0999 V2000
  186.1170  174.4940  137.3440 C   0  0  0  0  0  3  0  0  0  0  0  0
  184.8140  174.2820  137.1350 C   0  0  0  0  0  0  0  0  0  0  0  0
  183.8140  177.3490  135.0470 C   0  0  0  0  0  1  0  0  0  0  0  0
  186.7980  175.7780  136.9530 C   0  0  2  0  0  3  0  0  0  0  0  0
  186.0480  176.4600  135.8770 N   0  0  0  0  0  0  0  0  0  0  0  0
  184.6070  176.3310  135.8140 C   0  0  0  0  0  0  0  0  0  0  0  0
  183.9980  175.2880  136.4240 C   0  0  0  0  0  0  0  0  0  0  0  0
  188.8290  174.3300  137.3360 C   0  0  0  0  0  2  0  0  0  0  0  0
  188.2860  175.5560  136.5940 C   0  0  1  0  0  3  0  0  0  0  0  0
  190.0160  175.2180  134.8070 C   0  0  0  0  0  2  0  0  0  0  0  0
  188.5240  175.3580  135.0900 C   0  0  0  0  0  2  0  0  0  0  0  0
  190.5830  174.0230  135.5730 C   0  0  2  0  0  3  0  0  0  0  0  0
  190.3230  174.1690  137.0740 C   0  0  0  0  0  2  0  0  0  0  0  0
  192.8080  172.9600  136.0940 N   0  0  0  0  0  2  0  0  0  0  0  0
  192.6060  174.5420  134.3470 N   0  0  0  0  0  2  0  0  0  0  0  0
  192.0430  173.8670  135.2960 C   0  0  0  0  0  0  0  0  0  0  0  0
  196.3020  172.4950  137.0890 C   0  0  2  0  0  3  0  0  0  0  0  0
  194.8310  172.1000  137.1220 C   0  0  0  0  0  2  0  0  0  0  0  0
  194.9730  174.0080  135.6790 C   0  0  0  0  0  2  0  0  0  0  0  0
  194.2260  172.7100  135.8820 C   0  0  2  0  0  3  0  0  0  0  0  0
  196.3390  173.8390  136.3380 C   0  0  1  0  0  3  0  0  0  0  0  0
  197.0920  171.4800  136.3760 N   0  0  2  0  0  0  0  0  0  0  0  0
  196.2050  170.3650  136.0220 C   0  0  0  0  0  2  0  0  0  0  0  0
  199.0360  169.9950  136.5290 C   0  0  0  0  0  2  0  0  0  0  0  0
  198.2720  169.0670  135.6170 C   0  0  0  0  0  3  0  0  0  0  0  0
  198.0960  170.9330  137.2930 C   0  0  0  0  0  2  0  0  0  0  0  0
  196.9740  169.2590  135.3450 C   0  0  0  0  0  3  0  0  0  0  0  0
  196.5970  174.9470  137.2620 N   0  0  0  0  0  0  0  0  0  0  0  0
  195.5030  175.0940  138.0510 O   0  0  0  0  0  1  0  0  0  0  0  0
  197.6830  174.5500  138.1520 C   0  0  0  0  0  2  0  0  0  0  0  0
  198.1770  175.3550  140.4590 C   0  0  0  0  0  1  0  0  0  0  0  0
  197.2150  174.5630  139.5970 C   0  0  0  0  0  2  0  0  0  0  0  0
  182.5030  175.0660  136.4250 C   0  0  2  0  0  3  0  0  0  0  0  0
  181.9430  174.3620  135.1960 C   0  0  0  0  0  1  0  0  0  0  0  0
  181.6850  176.2620  136.9190 C   0  0  0  0  0  2  0  0  0  0  0  0
  181.1030  176.0690  138.3120 C   0  0  0  0  0  2  0  0  0  0  0  0
  182.0450  176.4450  139.2720 O   0  0  0  0  0  0  0  0  0  0  0  0
  186.7630  177.7980  141.1310 C   0  0  0  0  0  1  0  0  0  0  0  0
  182.9820  178.2700  141.5940 C   0  0  0  0  0  0  0  0  0  0  0  0
  181.8540  178.1580  140.8880 C   0  0  0  0  0  3  0  0  0  0  0  0
  185.5380  178.4610  141.7310 C   0  0  0  0  0  0  0  0  0  0  0  0
  184.3050  178.0790  140.8840 C   0  0  2  0  0  3  0  0  0  0  0  0
  184.1580  178.4840  143.8990 C   0  0  1  0  0  3  0  0  0  0  0  0
  182.9150  178.4440  143.0610 C   0  0  0  0  0  0  0  0  0  0  0  0
  181.7990  178.5600  143.6330 O   0  0  0  0  0  0  0  0  0  0  0  0
  183.0180  178.5530  138.6860 C   0  0  2  0  0  3  0  0  0  0  0  0
  181.8830  177.8230  139.4240 C   0  0  1  0  0  3  0  0  0  0  0  0
  185.3890  177.9380  143.1630 C   0  0  0  0  0  2  0  0  0  0  0  0
  185.7800  179.9670  141.7430 C   0  0  0  0  0  1  0  0  0  0  0  0
  184.3050  178.7740  139.5090 C   0  0  0  0  0  2  0  0  0  0  0  0
  181.0440  179.7510  137.6350 C   0  0  0  0  0  1  0  0  0  0  0  0
  182.7550  181.0400  138.9000 C   0  0  0  0  0  1  0  0  0  0  0  0
  182.5140  179.8320  138.0150 C   0  0  0  0  0  3  0  0  0  0  0  0
  185.2550  179.7380  145.5480 C   0  0  0  0  0  1  0  0  0  0  0  0
  184.3940  179.8370  144.3810 N   0  0  0  0  0  2  0  0  0  0  0  0
  184.2060  173.0970  137.5650 O   0  0  0  0  0  0  0  0  0  0  0  0
  184.2590  171.8850  136.8280 C   0  0  0  0  0  1  0  0  0  0  0  0
  187.1140  178.6530  135.9710 C   0  0  0  0  0  1  0  0  0  0  0  0
  186.7000  177.4980  135.0820 C   0  0  0  0  0  2  0  0  0  0  0  0
  2  1  2  0  0  0  0
  2 56  1  0  0  0  0
  3  6  1  0  0  0  0
  4  1  1  6  0  0  0
  5  4  1  0  0  0  0
  6  5  1  0  0  0  0
  6  7  2  0  0  0  0
  7 33  1  0  0  0  0
  7  2  1  0  0  0  0
  9 11  1  6  0  0  0
  9  4  1  0  0  0  0
  9  8  1  0  0  0  0
 10 11  1  0  0  0  0
 10 12  1  0  0  0  0
 12 16  1  1  0  0  0
 12 13  1  0  0  0  0
 13  8  1  0  0  0  0
 15 16  2  0  0  0  0
 16 14  1  0  0  0  0
 17 18  1  6  0  0  0
 19 20  1  0  0  0  0
 19 21  1  0  0  0  0
 20 14  1  1  0  0  0
 20 18  1  0  0  0  0
 21 17  1  0  0  0  0
 21 28  1  1  0  0  0
 22 23  1  1  0  0  0
 22 17  1  0  0  0  0
 22 26  1  0  0  0  0
 24 26  1  0  0  0  0
 25 24  1  0  0  0  0
 27 25  2  0  0  0  0
 27 23  1  0  0  0  0
 28 29  1  0  0  0  0
 28 30  1  0  0  0  0
 30 32  1  0  0  0  0
 32 31  1  0  0  0  0
 33 34  1  6  0  0  0
 33 35  1  0  0  0  0
 35 36  1  0  0  0  0
 36 37  1  0  0  0  0
 38 41  1  0  0  0  0
 39 44  1  0  0  0  0
 40 39  2  0  0  0  0
 41 49  1  0  0  0  0
 41 48  1  0  0  0  0
 42 50  1  6  0  0  0
 42 39  1  0  0  0  0
 42 41  1  0  0  0  0
 43 55  1  6  0  0  0
 44 45  2  0  0  0  0
 44 43  1  0  0  0  0
 46 53  1  1  0  0  0
 46 47  1  0  0  0  0
 46 50  1  0  0  0  0
 47 37  1  1  0  0  0
 47 40  1  0  0  0  0
 48 43  1  0  0  0  0
 51 53  1  0  0  0  0
 53 52  1  0  0  0  0
 55 54  1  0  0  0  0
 57 56  1  0  0  0  0
 59  5  1  0  0  0  0
 59 58  1  0  0  0  0
M  END
>  <MODEL>
2

>  <REMARK>
 VINA RESULT:      -3.8      2.007      5.256
  Name = 
  16 active torsions:
  status: ('A' for Active; 'I' for Inactive)
    1  A    between atoms: N_2  and  C_4
    2  A    between atoms: C_3  and  O_22
    3  A    between atoms: C_5  and  C_6
    4  A    between atoms: C_5  and  C_12
    5  A    between atoms: C_6  and  C_50
    6  A    between atoms: N_10  and  C_40
    7  A    between atoms: N_10  and  C_41
    8  A    between atoms: C_12  and  O_54
    9  A    between atoms: C_18  and  N_45
   10  A    between atoms: C_23  and  C_51
   11  A    between atoms: C_24  and  C_42
   12  A    between atoms: N_25  and  C_26
   13  A    between atoms: C_34  and  O_54
   14  A    between atoms: C_36  and  C_40
   15  A    between atoms: N_47  and  C_49
   16  A    between atoms: C_56  and  C_57
                            x       y       z     vdW  Elec       q    Type
                         _______ _______ _______ _____ _____    ______ ____

>  <TORSDO>
F 16

$$$$
=
 OpenBabel10232409103D

 59 64  0  0  1  0  0  0  0  0999 V2000
  188.4240  177.6880  141.3730 C   0  0  0  0  0  3  0  0  0  0  0  0
  187.1390  177.9200  141.6610 C   0  0  0  0  0  0  0  0  0  0  0  0
  185.7100  178.9440  138.2450 C   0  0  0  0  0  1  0  0  0  0  0  0
  189.0180  178.0040  140.0270 C   0  0  2  0  0  3  0  0  0  0  0  0
  187.9670  178.0380  138.9870 N   0  0  0  0  0  0  0  0  0  0  0  0
  186.6300  178.4730  139.3330 C   0  0  0  0  0  0  0  0  0  0  0  0
  186.2210  178.4290  140.6220 C   0  0  0  0  0  0  0  0  0  0  0  0
  189.8280  176.2380  138.4170 C   0  0  0  0  0  2  0  0  0  0  0  0
  190.1790  177.0460  139.6700 C   0  0  1  0  0  3  0  0  0  0  0  0
  192.6170  176.7630  139.1480 C   0  0  0  0  0  2  0  0  0  0  0  0
  191.5090  177.7730  139.4220 C   0  0  0  0  0  2  0  0  0  0  0  0
  192.2640  175.9180  137.9240 C   0  0  2  0  0  3  0  0  0  0  0  0
  190.9200  175.2140  138.1220 C   0  0  0  0  0  2  0  0  0  0  0  0
  193.1360  173.9410  136.6270 N   0  0  0  0  0  2  0  0  0  0  0  0
  194.4630  174.9720  138.2910 N   0  0  0  0  0  2  0  0  0  0  0  0
  193.3480  174.9310  137.6360 C   0  0  0  0  0  0  0  0  0  0  0  0
  196.1230  171.8720  137.0840 C   0  0  2  0  0  3  0  0  0  0  0  0
  194.7210  172.3150  137.4820 C   0  0  0  0  0  2  0  0  0  0  0  0
  195.3100  173.6270  135.5650 C   0  0  0  0  0  2  0  0  0  0  0  0
  194.1390  172.9580  136.2480 C   0  0  2  0  0  3  0  0  0  0  0  0
  196.5640  172.8680  135.9950 C   0  0  1  0  0  3  0  0  0  0  0  0
  196.0990  170.5010  136.5540 N   0  0  2  0  0  0  0  0  0  0  0  0
  196.5970  169.5910  137.5920 C   0  0  0  0  0  2  0  0  0  0  0  0
  196.9180  169.0400  134.7640 C   0  0  0  0  0  2  0  0  0  0  0  0
  196.8490  167.9260  135.7800 C   0  0  0  0  0  3  0  0  0  0  0  0
  197.0450  170.4090  135.4380 C   0  0  0  0  0  2  0  0  0  0  0  0
  196.6570  168.1740  137.0830 C   0  0  0  0  0  3  0  0  0  0  0  0
  197.5670  173.8010  136.5150 N   0  0  0  0  0  0  0  0  0  0  0  0
  198.1380  173.2330  137.6070 O   0  0  0  0  0  1  0  0  0  0  0  0
  198.6300  173.9210  135.5230 C   0  0  0  0  0  2  0  0  0  0  0  0
  197.7600  176.1480  134.8170 C   0  0  0  0  0  1  0  0  0  0  0  0
  198.1650  174.7650  134.3480 C   0  0  0  0  0  2  0  0  0  0  0  0
  184.8510  178.8660  141.0890 C   0  0  2  0  0  3  0  0  0  0  0  0
  184.5970  178.7460  142.5850 C   0  0  0  0  0  1  0  0  0  0  0  0
  183.6990  178.4010  140.1940 C   0  0  0  0  0  2  0  0  0  0  0  0
  183.2510  176.9730  140.4690 C   0  0  0  0  0  2  0  0  0  0  0  0
  182.1460  176.6630  139.6720 O   0  0  0  0  0  0  0  0  0  0  0  0
  179.9890  172.6340  137.0930 C   0  0  0  0  0  1  0  0  0  0  0  0
  183.1880  174.7150  137.5010 C   0  0  0  0  0  0  0  0  0  0  0  0
  183.5630  175.9210  137.9340 C   0  0  0  0  0  3  0  0  0  0  0  0
  181.3840  173.0760  136.6960 C   0  0  0  0  0  0  0  0  0  0  0  0
  181.7100  174.3970  137.4260 C   0  0  2  0  0  3  0  0  0  0  0  0
  183.8260  172.2880  136.8340 C   0  0  1  0  0  3  0  0  0  0  0  0
  184.2110  173.6810  137.2350 C   0  0  0  0  0  0  0  0  0  0  0  0
  185.4350  173.9600  137.3430 O   0  0  0  0  0  0  0  0  0  0  0  0
  181.3160  176.9580  137.4450 C   0  0  2  0  0  3  0  0  0  0  0  0
  182.5480  176.9410  138.3660 C   0  0  1  0  0  3  0  0  0  0  0  0
  182.3530  171.9710  137.1260 C   0  0  0  0  0  2  0  0  0  0  0  0
  181.4100  173.2380  135.1800 C   0  0  0  0  0  1  0  0  0  0  0  0
  180.9120  175.5870  136.8610 C   0  0  0  0  0  2  0  0  0  0  0  0
  181.5830  179.4370  136.9810 C   0  0  0  0  0  1  0  0  0  0  0  0
  182.5780  177.7640  135.4320 C   0  0  0  0  0  1  0  0  0  0  0  0
  181.4290  178.0490  136.3800 C   0  0  0  0  0  3  0  0  0  0  0  0
  184.7090  170.7320  135.3190 C   0  0  0  0  0  1  0  0  0  0  0  0
  184.1410  172.0650  135.4310 N   0  0  0  0  0  2  0  0  0  0  0  0
  186.6380  177.6660  142.9430 O   0  0  0  0  0  0  0  0  0  0  0  0
  187.4160  177.8050  144.1220 C   0  0  0  0  0  1  0  0  0  0  0  0
  188.9530  179.2450  137.1100 C   0  0  0  0  0  1  0  0  0  0  0  0
  188.3370  177.9420  137.5770 C   0  0  0  0  0  2  0  0  0  0  0  0
  1  2  2  0  0  0  0
  2 56  1  0  0  0  0
  3  6  1  0  0  0  0
  4  1  1  1  0  0  0
  5  6  1  0  0  0  0
  5  4  1  0  0  0  0
  6  7  2  0  0  0  0
  7 33  1  0  0  0  0
  7  2  1  0  0  0  0
  9  8  1  6  0  0  0
  9  4  1  0  0  0  0
 10 11  1  0  0  0  0
 11  9  1  0  0  0  0
 12 16  1  1  0  0  0
 12 13  1  0  0  0  0
 12 10  1  0  0  0  0
 13  8  1  0  0  0  0
 14 16  1  0  0  0  0
 16 15  2  0  0  0  0
 17 18  1  6  0  0  0
 19 21  1  0  0  0  0
 19 20  1  0  0  0  0
 20 14  1  1  0  0  0
 20 18  1  0  0  0  0
 21 28  1  1  0  0  0
 21 17  1  0  0  0  0
 22 26  1  6  0  0  0
 22 17  1  0  0  0  0
 22 23  1  0  0  0  0
 24 26  1  0  0  0  0
 24 25  1  0  0  0  0
 25 27  2  0  0  0  0
 27 23  1  0  0  0  0
 28 29  1  0  0  0  0
 30 28  1  0  0  0  0
 32 31  1  0  0  0  0
 32 30  1  0  0  0  0
 33 34  1  1  0  0  0
 35 36  1  0  0  0  0
 35 33  1  0  0  0  0
 37 36  1  0  0  0  0
 39 40  2  0  0  0  0
 40 47  1  0  0  0  0
 41 38  1  0  0  0  0
 41 48  1  0  0  0  0
 41 42  1  0  0  0  0
 42 50  1  6  0  0  0
 42 39  1  0  0  0  0
 43 55  1  6  0  0  0
 43 48  1  0  0  0  0
 43 44  1  0  0  0  0
 44 45  2  0  0  0  0
 44 39  1  0  0  0  0
 46 53  1  6  0  0  0
 46 47  1  0  0  0  0
 47 37  1  1  0  0  0
 49 41  1  0  0  0  0
 50 46  1  0  0  0  0
 52 53  1  0  0  0  0
 53 51  1  0  0  0  0
 54 55  1  0  0  0  0
 56 57  1  0  0  0  0
 58 59  1  0  0  0  0
 59  5  1  0  0  0  0
M  END
>  <MODEL>
3

>  <REMARK>
 VINA RESULT:      -3.4      1.340      1.689
  Name = 
  16 active torsions:
  status: ('A' for Active; 'I' for Inactive)
    1  A    between atoms: N_2  and  C_4
    2  A    between atoms: C_3  and  O_22
    3  A    between atoms: C_5  and  C_6
    4  A    between atoms: C_5  and  C_12
    5  A    between atoms: C_6  and  C_50
    6  A    between atoms: N_10  and  C_40
    7  A    between atoms: N_10  and  C_41
    8  A    between atoms: C_12  and  O_54
    9  A    between atoms: C_18  and  N_45
   10  A    between atoms: C_23  and  C_51
   11  A    between atoms: C_24  and  C_42
   12  A    between atoms: N_25  and  C_26
   13  A    between atoms: C_34  and  O_54
   14  A    between atoms: C_36  and  C_40
   15  A    between atoms: N_47  and  C_49
   16  A    between atoms: C_56  and  C_57
                            x       y       z     vdW  Elec       q    Type
                         _______ _______ _______ _____ _____    ______ ____

>  <TORSDO>
F 16

$$$$
