=
 OpenBabel10232411093D

 36 39  0  0  1  0  0  0  0  0999 V2000
  186.3000  178.0850  145.1130 C   0  0  0  0  0  0  0  0  0  0  0  0
  185.4780  178.5430  146.1670 C   0  0  0  0  0  0  0  0  0  0  0  0
  188.1630  177.9250  146.6660 C   0  0  0  0  0  3  0  0  0  0  0  0
  184.1390  178.8510  145.9640 O   0  0  0  0  0  1  0  0  0  0  0  0
  186.0090  178.6870  147.4520 C   0  0  0  0  0  3  0  0  0  0  0  0
  187.8550  178.5260  148.9480 F   0  0  0  0  0  0  0  0  0  0  0  0
  187.6430  177.7730  145.3730 C   0  0  0  0  0  0  0  0  0  0  0  0
  187.3470  178.3810  147.7010 C   0  0  0  0  0  0  0  0  0  0  0  0
  185.8200  177.9220  143.7710 N   0  0  0  0  0  2  0  0  0  0  0  0
  185.3000  178.9820  142.9170 C   0  0  0  0  0  2  0  0  0  0  0  0
  184.0660  178.5020  142.1480 C   0  0  2  0  0  3  0  0  0  0  0  0
  184.0660  178.9160  140.6800 C   0  0  1  0  0  3  0  0  0  0  0  0
  182.8740  179.0330  142.7910 N   0  0  0  0  0  0  0  0  0  0  0  0
  180.3830  179.5510  143.4270 Cl  0  0  0  0  0  0  0  0  0  0  0  0
  185.4570  178.8840  140.0570 C   0  0  0  0  0  1  0  0  0  0  0  0
  181.2370  178.0050  141.3380 N   0  0  0  0  0  0  0  0  0  0  0  0
  183.2200  178.0030  139.9370 N   0  0  0  0  0  2  0  0  0  0  0  0
  181.6400  178.8370  142.4390 C   0  0  0  0  0  0  0  0  0  0  0  0
  181.8850  177.6170  140.2760 C   0  0  0  0  0  3  0  0  0  0  0  0
  188.4530  177.3260  144.3220 O   0  0  0  0  0  0  0  0  0  0  0  0
  190.3900  176.0660  142.6710 C   0  0  0  0  0  2  0  0  0  0  0  0
  191.1250  176.6610  144.9780 C   0  0  0  0  0  2  0  0  0  0  0  0
  190.6060  178.0820  144.7340 C   0  0  0  0  0  2  0  0  0  0  0  0
  189.4750  178.0960  143.7940 N   0  0  0  0  0  0  0  0  0  0  0  0
  191.5490  176.0330  143.6580 C   0  0  0  0  0  2  0  0  0  0  0  0
  189.8960  177.5100  142.5110 C   0  0  2  0  0  3  0  0  0  0  0  0
  188.7930  177.6350  141.4570 C   0  0  2  0  0  3  0  0  0  0  0  0
  187.8390  176.6360  141.6080 F   0  0  0  0  0  0  0  0  0  0  0  0
  189.3720  177.6570  140.0400 C   0  0  1  0  0  0  0  0  0  0  0  0
  188.4680  177.8700  138.8910 C   0  0  0  0  0  2  0  0  0  0  0  0
  189.2500  178.9170  139.4290 O   0  0  0  0  0  0  0  0  0  0  0  0
  191.7560  177.6490  140.0930 O   0  0  0  0  0  0  0  0  0  0  0  0
  190.7020  177.0380  139.7690 C   0  0  0  0  0  0  0  0  0  0  0  0
  190.7600  175.7730  139.1770 O   0  0  0  0  0  0  0  0  0  0  0  0
  190.9660  174.3240  137.2540 C   0  0  0  0  0  1  0  0  0  0  0  0
  191.5400  175.5090  138.0170 C   0  0  0  0  0  2  0  0  0  0  0  0
  1  7  2  0  0  0  0
  1  2  1  0  0  0  0
  2  5  2  0  0  0  0
  3  8  2  0  0  0  0
  4  2  1  0  0  0  0
  5  8  1  0  0  0  0
  7  3  1  0  0  0  0
  8  6  1  0  0  0  0
  9  1  1  0  0  0  0
 10  9  1  0  0  0  0
 11 13  1  0  0  0  0
 11 10  1  1  0  0  0
 12 15  1  6  0  0  0
 12 11  1  0  0  0  0
 16 18  1  0  0  0  0
 17 19  1  0  0  0  0
 17 12  1  0  0  0  0
 18 13  2  0  0  0  0
 18 14  1  0  0  0  0
 19 16  2  0  0  0  0
 20  7  1  0  0  0  0
 21 25  1  0  0  0  0
 23 22  1  0  0  0  0
 24 20  1  0  0  0  0
 24 23  1  0  0  0  0
 25 22  1  0  0  0  0
 26 27  1  6  0  0  0
 26 21  1  0  0  0  0
 26 24  1  0  0  0  0
 27 28  1  6  0  0  0
 29 33  1  6  0  0  0
 29 27  1  0  0  0  0
 30 31  1  0  0  0  0
 30 29  1  0  0  0  0
 31 29  1  0  0  0  0
 33 32  2  0  0  0  0
 34 33  1  0  0  0  0
 35 36  1  0  0  0  0
 36 34  1  0  0  0  0
M  END
>  <MODEL>
1

>  <REMARK>
 VINA RESULT:      -8.4      0.000      0.000
  Name = 
  10 active torsions:
  status: ('A' for Active; 'I' for Inactive)
    1  A    between atoms: O_2  and  C_27
    2  A    between atoms: O_2  and  C_34
    3  A    between atoms: C_3  and  N_11
    4  A    between atoms: C_5  and  C_25
    5  A    between atoms: C_8  and  C_27
    6  A    between atoms: C_8  and  C_29
    7  A    between atoms: N_11  and  C_25
    8  A    between atoms: N_20  and  O_32
    9  A    between atoms: C_29  and  C_30
   10  A    between atoms: O_32  and  C_33
                            x       y       z     vdW  Elec       q    Type
                         _______ _______ _______ _____ _____    ______ ____

>  <TORSDO>
F 10

$$$$
=
 OpenBabel10232411093D

 36 39  0  0  1  0  0  0  0  0999 V2000
  187.6320  178.0140  138.4350 C   0  0  0  0  0  0  0  0  0  0  0  0
  188.2480  178.0590  137.1640 C   0  0  0  0  0  0  0  0  0  0  0  0
  189.7150  177.2010  139.3890 C   0  0  0  0  0  3  0  0  0  0  0  0
  187.5590  178.4880  136.0370 O   0  0  0  0  0  1  0  0  0  0  0  0
  189.5840  177.6740  137.0230 C   0  0  0  0  0  3  0  0  0  0  0  0
  191.6080  176.8690  137.9850 F   0  0  0  0  0  0  0  0  0  0  0  0
  188.3770  177.5870  139.5460 C   0  0  0  0  0  0  0  0  0  0  0  0
  190.3160  177.2440  138.1310 C   0  0  0  0  0  0  0  0  0  0  0  0
  186.2650  178.3890  138.6470 N   0  0  0  0  0  2  0  0  0  0  0  0
  185.1000  177.7190  138.0820 C   0  0  0  0  0  2  0  0  0  0  0  0
  183.8510  178.0080  138.9190 C   0  0  2  0  0  3  0  0  0  0  0  0
  182.7400  176.9800  138.7270 C   0  0  1  0  0  3  0  0  0  0  0  0
  183.3440  179.3260  138.5700 N   0  0  0  0  0  0  0  0  0  0  0  0
  181.9470  181.5450  138.5120 Cl  0  0  0  0  0  0  0  0  0  0  0  0
  183.2710  175.5630  138.5490 C   0  0  0  0  0  1  0  0  0  0  0  0
  181.4880  179.3800  140.1200 N   0  0  0  0  0  0  0  0  0  0  0  0
  181.8830  176.9950  139.8960 N   0  0  0  0  0  2  0  0  0  0  0  0
  182.3090  179.9260  139.0730 C   0  0  0  0  0  0  0  0  0  0  0  0
  181.3000  178.1500  140.5070 C   0  0  0  0  0  3  0  0  0  0  0  0
  187.7580  177.5390  140.8000 O   0  0  0  0  0  0  0  0  0  0  0  0
  187.1730  176.9640  143.5190 C   0  0  0  0  0  2  0  0  0  0  0  0
  185.4850  178.3270  142.2920 C   0  0  0  0  0  2  0  0  0  0  0  0
  186.6170  179.2620  141.8530 C   0  0  0  0  0  2  0  0  0  0  0  0
  187.8990  178.5500  141.7360 N   0  0  0  0  0  0  0  0  0  0  0  0
  185.8350  177.6840  143.6260 C   0  0  0  0  0  2  0  0  0  0  0  0
  188.2460  177.9490  143.0350 C   0  0  2  0  0  3  0  0  0  0  0  0
  189.6410  177.3190  142.9980 C   0  0  2  0  0  3  0  0  0  0  0  0
  189.5690  175.9340  143.0770 F   0  0  0  0  0  0  0  0  0  0  0  0
  190.5480  177.9040  144.0840 C   0  0  1  0  0  0  0  0  0  0  0  0
  191.8160  178.5550  143.6950 C   0  0  0  0  0  2  0  0  0  0  0  0
  190.6560  179.3020  143.9990 O   0  0  0  0  0  0  0  0  0  0  0  0
  191.1940  176.5670  145.9490 O   0  0  0  0  0  0  0  0  0  0  0  0
  190.4100  177.4450  145.4960 C   0  0  0  0  0  0  0  0  0  0  0  0
  189.4220  178.0110  146.3080 O   0  0  0  0  0  0  0  0  0  0  0  0
  188.4810  177.9550  148.5320 C   0  0  0  0  0  1  0  0  0  0  0  0
  188.6310  177.2370  147.1990 C   0  0  0  0  0  2  0  0  0  0  0  0
  1  9  1  0  0  0  0
  1  7  1  0  0  0  0
  2  1  2  0  0  0  0
  3  7  2  0  0  0  0
  4  2  1  0  0  0  0
  5  2  1  0  0  0  0
  5  8  2  0  0  0  0
  6  8  1  0  0  0  0
  7 20  1  0  0  0  0
  8  3  1  0  0  0  0
 10  9  1  0  0  0  0
 11 10  1  6  0  0  0
 12 15  1  1  0  0  0
 12 11  1  0  0  0  0
 12 17  1  0  0  0  0
 13 11  1  0  0  0  0
 13 18  2  0  0  0  0
 14 18  1  0  0  0  0
 16 19  2  0  0  0  0
 17 19  1  0  0  0  0
 18 16  1  0  0  0  0
 20 24  1  0  0  0  0
 21 25  1  0  0  0  0
 22 25  1  0  0  0  0
 23 22  1  0  0  0  0
 24 23  1  0  0  0  0
 24 26  1  0  0  0  0
 26 27  1  6  0  0  0
 26 21  1  0  0  0  0
 27 28  1  1  0  0  0
 27 29  1  0  0  0  0
 29 33  1  1  0  0  0
 30 31  1  0  0  0  0
 30 29  1  0  0  0  0
 31 29  1  0  0  0  0
 33 32  2  0  0  0  0
 33 34  1  0  0  0  0
 34 36  1  0  0  0  0
 36 35  1  0  0  0  0
M  END
>  <MODEL>
2

>  <REMARK>
 VINA RESULT:      -8.1      2.652      6.339
  Name = 
  10 active torsions:
  status: ('A' for Active; 'I' for Inactive)
    1  A    between atoms: O_2  and  C_27
    2  A    between atoms: O_2  and  C_34
    3  A    between atoms: C_3  and  N_11
    4  A    between atoms: C_5  and  C_25
    5  A    between atoms: C_8  and  C_27
    6  A    between atoms: C_8  and  C_29
    7  A    between atoms: N_11  and  C_25
    8  A    between atoms: N_20  and  O_32
    9  A    between atoms: C_29  and  C_30
   10  A    between atoms: O_32  and  C_33
                            x       y       z     vdW  Elec       q    Type
                         _______ _______ _______ _____ _____    ______ ____

>  <TORSDO>
F 10

$$$$
=
 OpenBabel10232411093D

 36 39  0  0  1  0  0  0  0  0999 V2000
  188.4610  177.7760  138.5820 C   0  0  0  0  0  0  0  0  0  0  0  0
  189.2190  177.7080  137.3920 C   0  0  0  0  0  0  0  0  0  0  0  0
  190.2470  176.6170  139.7560 C   0  0  0  0  0  3  0  0  0  0  0  0
  188.7500  178.2460  136.2000 O   0  0  0  0  0  1  0  0  0  0  0  0
  190.4750  177.0960  137.3990 C   0  0  0  0  0  3  0  0  0  0  0  0
  192.2040  175.9560  138.5740 F   0  0  0  0  0  0  0  0  0  0  0  0
  188.9860  177.2310  139.7640 C   0  0  0  0  0  0  0  0  0  0  0  0
  190.9880  176.5500  138.5760 C   0  0  0  0  0  0  0  0  0  0  0  0
  187.1640  178.3840  138.6410 N   0  0  0  0  0  2  0  0  0  0  0  0
  186.1400  178.3080  137.6070 C   0  0  0  0  0  2  0  0  0  0  0  0
  185.0080  177.3690  138.0330 C   0  0  2  0  0  3  0  0  0  0  0  0
  184.0750  176.9840  136.8890 C   0  0  1  0  0  3  0  0  0  0  0  0
  184.2330  178.0110  139.0840 N   0  0  0  0  0  0  0  0  0  0  0  0
  182.4840  178.4890  140.9780 Cl  0  0  0  0  0  0  0  0  0  0  0  0
  184.8070  176.8020  135.5660 C   0  0  0  0  0  1  0  0  0  0  0  0
  182.6660  176.2110  139.4740 N   0  0  0  0  0  0  0  0  0  0  0  0
  183.4250  175.7310  137.2190 N   0  0  0  0  0  2  0  0  0  0  0  0
  183.2030  177.5240  139.7060 C   0  0  0  0  0  0  0  0  0  0  0  0
  182.7560  175.4180  138.4440 C   0  0  0  0  0  3  0  0  0  0  0  0
  188.2280  177.2960  140.9380 O   0  0  0  0  0  0  0  0  0  0  0  0
  187.4970  176.8330  143.6430 C   0  0  0  0  0  2  0  0  0  0  0  0
  185.9070  178.1940  142.2880 C   0  0  0  0  0  2  0  0  0  0  0  0
  187.0850  179.0830  141.8730 C   0  0  0  0  0  2  0  0  0  0  0  0
  188.3510  178.3350  141.8450 N   0  0  0  0  0  0  0  0  0  0  0  0
  186.1750  177.5890  143.6590 C   0  0  0  0  0  2  0  0  0  0  0  0
  188.6180  177.7730  143.1790 C   0  0  2  0  0  3  0  0  0  0  0  0
  189.9960  177.1060  143.2320 C   0  0  2  0  0  3  0  0  0  0  0  0
  189.8820  175.7270  143.3550 F   0  0  0  0  0  0  0  0  0  0  0  0
  190.8650  177.7060  144.3400 C   0  0  1  0  0  0  0  0  0  0  0  0
  191.7780  178.8230  144.0190 C   0  0  0  0  0  2  0  0  0  0  0  0
  190.5220  179.0370  144.6300 O   0  0  0  0  0  0  0  0  0  0  0  0
  191.9760  175.9800  145.5520 O   0  0  0  0  0  0  0  0  0  0  0  0
  191.1380  176.9220  145.5790 C   0  0  0  0  0  0  0  0  0  0  0  0
  190.4750  177.2580  146.7630 O   0  0  0  0  0  0  0  0  0  0  0  0
  188.3790  177.9580  147.7380 C   0  0  0  0  0  1  0  0  0  0  0  0
  189.1420  176.8470  147.0330 C   0  0  0  0  0  2  0  0  0  0  0  0
  1  9  1  0  0  0  0
  1  7  1  0  0  0  0
  2  5  1  0  0  0  0
  2  1  2  0  0  0  0
  3  7  2  0  0  0  0
  4  2  1  0  0  0  0
  5  8  2  0  0  0  0
  6  8  1  0  0  0  0
  7 20  1  0  0  0  0
  8  3  1  0  0  0  0
 10  9  1  0  0  0  0
 11 10  1  6  0  0  0
 11 13  1  0  0  0  0
 12 15  1  6  0  0  0
 12 17  1  0  0  0  0
 12 11  1  0  0  0  0
 13 18  2  0  0  0  0
 16 18  1  0  0  0  0
 17 19  1  0  0  0  0
 18 14  1  0  0  0  0
 19 16  2  0  0  0  0
 20 24  1  0  0  0  0
 21 25  1  0  0  0  0
 22 25  1  0  0  0  0
 23 22  1  0  0  0  0
 24 23  1  0  0  0  0
 24 26  1  0  0  0  0
 26 27  1  6  0  0  0
 26 21  1  0  0  0  0
 27 28  1  1  0  0  0
 27 29  1  0  0  0  0
 29 31  1  0  0  0  0
 29 33  1  1  0  0  0
 30 29  1  0  0  0  0
 30 31  1  0  0  0  0
 32 33  2  0  0  0  0
 33 34  1  0  0  0  0
 34 36  1  0  0  0  0
 36 35  1  0  0  0  0
M  END
>  <MODEL>
3

>  <REMARK>
 VINA RESULT:      -8.1      2.666      6.355
  Name = 
  10 active torsions:
  status: ('A' for Active; 'I' for Inactive)
    1  A    between atoms: O_2  and  C_27
    2  A    between atoms: O_2  and  C_34
    3  A    between atoms: C_3  and  N_11
    4  A    between atoms: C_5  and  C_25
    5  A    between atoms: C_8  and  C_27
    6  A    between atoms: C_8  and  C_29
    7  A    between atoms: N_11  and  C_25
    8  A    between atoms: N_20  and  O_32
    9  A    between atoms: C_29  and  C_30
   10  A    between atoms: O_32  and  C_33
                            x       y       z     vdW  Elec       q    Type
                         _______ _______ _______ _____ _____    ______ ____

>  <TORSDO>
F 10

$$$$
=
 OpenBabel10232411093D

 36 39  0  0  1  0  0  0  0  0999 V2000
  188.9350  176.8630  138.3840 C   0  0  0  0  0  0  0  0  0  0  0  0
  189.7930  176.7030  137.2720 C   0  0  0  0  0  0  0  0  0  0  0  0
  190.8790  176.9620  139.8390 C   0  0  0  0  0  3  0  0  0  0  0  0
  189.2950  176.5810  135.9810 O   0  0  0  0  0  1  0  0  0  0  0  0
  191.1780  176.6730  137.4590 C   0  0  0  0  0  3  0  0  0  0  0  0
  193.0620  176.7670  138.9110 F   0  0  0  0  0  0  0  0  0  0  0  0
  189.4890  176.9980  139.6670 C   0  0  0  0  0  0  0  0  0  0  0  0
  191.7200  176.8000  138.7390 C   0  0  0  0  0  0  0  0  0  0  0  0
  187.5070  176.8960  138.2610 N   0  0  0  0  0  2  0  0  0  0  0  0
  186.7130  178.0510  137.8630 C   0  0  0  0  0  2  0  0  0  0  0  0
  185.3380  177.6120  137.3520 C   0  0  2  0  0  3  0  0  0  0  0  0
  184.1940  177.9790  138.2920 C   0  0  1  0  0  3  0  0  0  0  0  0
  185.3460  176.1710  137.1540 N   0  0  0  0  0  0  0  0  0  0  0  0
  184.6650  173.7190  136.5180 Cl  0  0  0  0  0  0  0  0  0  0  0  0
  184.3990  179.3270  138.9730 C   0  0  0  0  0  1  0  0  0  0  0  0
  183.0900  175.9470  136.3130 N   0  0  0  0  0  0  0  0  0  0  0  0
  182.9640  178.0450  137.5270 N   0  0  0  0  0  2  0  0  0  0  0  0
  184.3710  175.4340  136.7180 C   0  0  0  0  0  0  0  0  0  0  0  0
  182.4740  177.0530  136.6200 C   0  0  0  0  0  3  0  0  0  0  0  0
  188.6330  177.1490  140.7630 O   0  0  0  0  0  0  0  0  0  0  0  0
  187.6030  176.8810  143.3960 C   0  0  0  0  0  2  0  0  0  0  0  0
  186.2270  178.2180  141.8040 C   0  0  0  0  0  2  0  0  0  0  0  0
  187.4800  179.0340  141.4680 C   0  0  0  0  0  2  0  0  0  0  0  0
  188.7070  178.2360  141.6180 N   0  0  0  0  0  0  0  0  0  0  0  0
  186.3230  177.6880  143.2280 C   0  0  0  0  0  2  0  0  0  0  0  0
  188.8080  177.7460  143.0020 C   0  0  2  0  0  3  0  0  0  0  0  0
  190.1410  177.0310  143.2400 C   0  0  2  0  0  3  0  0  0  0  0  0
  189.9500  175.6730  143.4630 F   0  0  0  0  0  0  0  0  0  0  0  0
  190.9330  177.6870  144.3740 C   0  0  1  0  0  0  0  0  0  0  0  0
  191.8480  178.8060  144.0650 C   0  0  0  0  0  2  0  0  0  0  0  0
  190.5540  179.0230  144.5910 O   0  0  0  0  0  0  0  0  0  0  0  0
  191.9530  175.9910  145.7030 O   0  0  0  0  0  0  0  0  0  0  0  0
  191.1420  176.9560  145.6560 C   0  0  0  0  0  0  0  0  0  0  0  0
  190.4500  177.3650  146.8000 O   0  0  0  0  0  0  0  0  0  0  0  0
  188.0710  177.7630  146.9400 C   0  0  0  0  0  1  0  0  0  0  0  0
  189.2110  176.7870  147.1890 C   0  0  0  0  0  2  0  0  0  0  0  0
  1  7  1  0  0  0  0
  2  5  1  0  0  0  0
  2  1  2  0  0  0  0
  4  2  1  0  0  0  0
  5  8  2  0  0  0  0
  7  3  2  0  0  0  0
  7 20  1  0  0  0  0
  8  6  1  0  0  0  0
  8  3  1  0  0  0  0
  9  1  1  0  0  0  0
 10  9  1  0  0  0  0
 11 10  1  1  0  0  0
 11 12  1  0  0  0  0
 12 15  1  6  0  0  0
 13 11  1  0  0  0  0
 14 18  1  0  0  0  0
 16 19  2  0  0  0  0
 16 18  1  0  0  0  0
 17 12  1  0  0  0  0
 18 13  2  0  0  0  0
 19 17  1  0  0  0  0
 20 24  1  0  0  0  0
 22 25  1  0  0  0  0
 23 24  1  0  0  0  0
 23 22  1  0  0  0  0
 24 26  1  0  0  0  0
 25 21  1  0  0  0  0
 26 27  1  6  0  0  0
 26 21  1  0  0  0  0
 27 28  1  1  0  0  0
 27 29  1  0  0  0  0
 29 31  1  0  0  0  0
 29 33  1  1  0  0  0
 30 29  1  0  0  0  0
 30 31  1  0  0  0  0
 33 32  2  0  0  0  0
 33 34  1  0  0  0  0
 34 36  1  0  0  0  0
 35 36  1  0  0  0  0
M  END
>  <MODEL>
4

>  <REMARK>
 VINA RESULT:      -8.1      3.243      6.757
  Name = 
  10 active torsions:
  status: ('A' for Active; 'I' for Inactive)
    1  A    between atoms: O_2  and  C_27
    2  A    between atoms: O_2  and  C_34
    3  A    between atoms: C_3  and  N_11
    4  A    between atoms: C_5  and  C_25
    5  A    between atoms: C_8  and  C_27
    6  A    between atoms: C_8  and  C_29
    7  A    between atoms: N_11  and  C_25
    8  A    between atoms: N_20  and  O_32
    9  A    between atoms: C_29  and  C_30
   10  A    between atoms: O_32  and  C_33
                            x       y       z     vdW  Elec       q    Type
                         _______ _______ _______ _____ _____    ______ ____

>  <TORSDO>
F 10

$$$$
=
 OpenBabel10232411093D

 36 39  0  0  1  0  0  0  0  0999 V2000
  186.4670  178.5600  141.0960 C   0  0  0  0  0  0  0  0  0  0  0  0
  185.0700  178.7720  141.1290 C   0  0  0  0  0  0  0  0  0  0  0  0
  186.4480  178.2190  143.5030 C   0  0  0  0  0  3  0  0  0  0  0  0
  184.3480  179.0400  139.9730 O   0  0  0  0  0  1  0  0  0  0  0  0
  184.3840  178.7070  142.3450 C   0  0  0  0  0  3  0  0  0  0  0  0
  184.3990  178.3750  144.7030 F   0  0  0  0  0  0  0  0  0  0  0  0
  187.1490  178.2770  142.2900 C   0  0  0  0  0  0  0  0  0  0  0  0
  185.0700  178.4330  143.5290 C   0  0  0  0  0  0  0  0  0  0  0  0
  187.2310  178.6180  139.8840 N   0  0  0  0  0  2  0  0  0  0  0  0
  186.8430  178.0390  138.6040 C   0  0  0  0  0  2  0  0  0  0  0  0
  187.9440  177.1170  138.0720 C   0  0  2  0  0  3  0  0  0  0  0  0
  188.7530  177.7300  136.9330 C   0  0  1  0  0  3  0  0  0  0  0  0
  187.3380  175.8770  137.6090 N   0  0  0  0  0  0  0  0  0  0  0  0
  186.9790  173.4520  136.6780 Cl  0  0  0  0  0  0  0  0  0  0  0  0
  188.9820  179.2260  137.1110 C   0  0  0  0  0  1  0  0  0  0  0  0
  189.3720  174.7500  136.9470 N   0  0  0  0  0  0  0  0  0  0  0  0
  190.0480  177.0810  136.8780 N   0  0  0  0  0  2  0  0  0  0  0  0
  187.9460  174.8480  137.1040 C   0  0  0  0  0  0  0  0  0  0  0  0
  190.2910  175.6710  136.8670 C   0  0  0  0  0  3  0  0  0  0  0  0
  188.5330  178.0740  142.2500 O   0  0  0  0  0  0  0  0  0  0  0  0
  191.3260  178.0370  142.7620 C   0  0  0  0  0  2  0  0  0  0  0  0
  190.5800  176.9820  140.6290 C   0  0  0  0  0  2  0  0  0  0  0  0
  189.5650  176.1650  141.4350 C   0  0  0  0  0  2  0  0  0  0  0  0
  189.1190  176.8820  142.6390 N   0  0  0  0  0  0  0  0  0  0  0  0
  191.7830  177.3150  141.5010 C   0  0  0  0  0  2  0  0  0  0  0  0
  190.2820  177.1800  143.4910 C   0  0  2  0  0  3  0  0  0  0  0  0
  189.8480  177.7990  144.8220 C   0  0  2  0  0  3  0  0  0  0  0  0
  190.1100  179.1630  144.8510 F   0  0  0  0  0  0  0  0  0  0  0  0
  190.4840  177.0730  146.0100 C   0  0  1  0  0  0  0  0  0  0  0  0
  191.6080  176.1420  145.7730 C   0  0  0  0  0  2  0  0  0  0  0  0
  191.8170  177.4640  146.2280 O   0  0  0  0  0  0  0  0  0  0  0  0
  189.4570  175.7900  147.7370 O   0  0  0  0  0  0  0  0  0  0  0  0
  189.7310  176.9370  147.2900 C   0  0  0  0  0  0  0  0  0  0  0  0
  189.3560  178.0870  147.9910 O   0  0  0  0  0  0  0  0  0  0  0  0
  187.0480  178.2970  147.3120 C   0  0  0  0  0  1  0  0  0  0  0  0
  188.0340  178.2910  148.4700 C   0  0  0  0  0  2  0  0  0  0  0  0
  1  2  2  0  0  0  0
  1  7  1  0  0  0  0
  2  5  1  0  0  0  0
  3  8  1  0  0  0  0
  4  2  1  0  0  0  0
  5  8  2  0  0  0  0
  7  3  2  0  0  0  0
  8  6  1  0  0  0  0
  9  1  1  0  0  0  0
 10  9  1  0  0  0  0
 11 10  1  6  0  0  0
 12 15  1  1  0  0  0
 12 11  1  0  0  0  0
 13 11  1  0  0  0  0
 14 18  1  0  0  0  0
 16 18  1  0  0  0  0
 17 12  1  0  0  0  0
 18 13  2  0  0  0  0
 19 17  1  0  0  0  0
 19 16  2  0  0  0  0
 20  7  1  0  0  0  0
 20 24  1  0  0  0  0
 21 26  1  0  0  0  0
 22 23  1  0  0  0  0
 22 25  1  0  0  0  0
 23 24  1  0  0  0  0
 24 26  1  0  0  0  0
 25 21  1  0  0  0  0
 26 27  1  1  0  0  0
 27 28  1  6  0  0  0
 27 29  1  0  0  0  0
 29 31  1  0  0  0  0
 29 33  1  1  0  0  0
 30 29  1  0  0  0  0
 30 31  1  0  0  0  0
 33 32  2  0  0  0  0
 33 34  1  0  0  0  0
 34 36  1  0  0  0  0
 35 36  1  0  0  0  0
M  END
>  <MODEL>
5

>  <REMARK>
 VINA RESULT:      -7.8      3.554      6.526
  Name = 
  10 active torsions:
  status: ('A' for Active; 'I' for Inactive)
    1  A    between atoms: O_2  and  C_27
    2  A    between atoms: O_2  and  C_34
    3  A    between atoms: C_3  and  N_11
    4  A    between atoms: C_5  and  C_25
    5  A    between atoms: C_8  and  C_27
    6  A    between atoms: C_8  and  C_29
    7  A    between atoms: N_11  and  C_25
    8  A    between atoms: N_20  and  O_32
    9  A    between atoms: C_29  and  C_30
   10  A    between atoms: O_32  and  C_33
                            x       y       z     vdW  Elec       q    Type
                         _______ _______ _______ _____ _____    ______ ____

>  <TORSDO>
F 10

$$$$
=
 OpenBabel10232411093D

 36 39  0  0  1  0  0  0  0  0999 V2000
  185.7560  178.1240  142.4230 C   0  0  0  0  0  0  0  0  0  0  0  0
  184.7420  178.4750  141.5040 C   0  0  0  0  0  0  0  0  0  0  0  0
  184.1700  178.4080  144.2430 C   0  0  0  0  0  3  0  0  0  0  0  0
  184.9820  178.5110  140.1360 O   0  0  0  0  0  1  0  0  0  0  0  0
  183.4610  178.7890  141.9650 C   0  0  0  0  0  3  0  0  0  0  0  0
  181.9320  179.0660  143.7700 F   0  0  0  0  0  0  0  0  0  0  0  0
  185.4590  178.0870  143.7940 C   0  0  0  0  0  0  0  0  0  0  0  0
  183.1750  178.7580  143.3310 C   0  0  0  0  0  0  0  0  0  0  0  0
  187.0910  177.7970  142.0160 N   0  0  0  0  0  2  0  0  0  0  0  0
  187.9000  178.5500  141.0660 C   0  0  0  0  0  2  0  0  0  0  0  0
  188.2690  177.6800  139.8600 C   0  0  2  0  0  3  0  0  0  0  0  0
  189.7690  177.4400  139.7200 C   0  0  1  0  0  3  0  0  0  0  0  0
  187.7750  178.3190  138.6500 N   0  0  0  0  0  0  0  0  0  0  0  0
  187.1440  178.8230  136.1550 Cl  0  0  0  0  0  0  0  0  0  0  0  0
  190.4680  177.2770  141.0640 C   0  0  0  0  0  1  0  0  0  0  0  0
  188.4960  176.6300  137.0760 N   0  0  0  0  0  0  0  0  0  0  0  0
  189.9770  176.2250  138.9560 N   0  0  0  0  0  2  0  0  0  0  0  0
  187.8810  177.8810  137.4330 C   0  0  0  0  0  0  0  0  0  0  0  0
  189.3690  175.8950  137.7040 C   0  0  0  0  0  3  0  0  0  0  0  0
  186.4690  177.7440  144.6990 O   0  0  0  0  0  0  0  0  0  0  0  0
  188.3500  176.8880  146.6480 C   0  0  0  0  0  2  0  0  0  0  0  0
  186.3350  178.0790  147.5070 C   0  0  0  0  0  2  0  0  0  0  0  0
  186.6160  179.1980  146.5000 C   0  0  0  0  0  2  0  0  0  0  0  0
  187.2870  178.6910  145.2930 N   0  0  0  0  0  0  0  0  0  0  0  0
  187.6380  177.3940  147.8950 C   0  0  0  0  0  2  0  0  0  0  0  0
  188.5580  178.0520  145.6700 C   0  0  2  0  0  3  0  0  0  0  0  0
  189.3570  177.6370  144.4310 C   0  0  2  0  0  3  0  0  0  0  0  0
  188.9790  176.3750  143.9900 F   0  0  0  0  0  0  0  0  0  0  0  0
  190.8640  177.7220  144.6840 C   0  0  1  0  0  0  0  0  0  0  0  0
  191.6620  178.7420  143.9700 C   0  0  0  0  0  2  0  0  0  0  0  0
  191.2380  178.9260  145.3060 O   0  0  0  0  0  0  0  0  0  0  0  0
  191.9230  175.5930  144.5130 O   0  0  0  0  0  0  0  0  0  0  0  0
  191.5910  176.5540  145.2590 C   0  0  0  0  0  0  0  0  0  0  0  0
  191.9130  176.5490  146.6190 O   0  0  0  0  0  0  0  0  0  0  0  0
  193.0830  175.8050  148.5970 C   0  0  0  0  0  1  0  0  0  0  0  0
  192.4550  175.4070  147.2700 C   0  0  0  0  0  2  0  0  0  0  0  0
  1  7  1  0  0  0  0
  2  5  1  0  0  0  0
  2  1  2  0  0  0  0
  4  2  1  0  0  0  0
  5  8  2  0  0  0  0
  7  3  2  0  0  0  0
  7 20  1  0  0  0  0
  8  6  1  0  0  0  0
  8  3  1  0  0  0  0
  9  1  1  0  0  0  0
 10  9  1  0  0  0  0
 11 10  1  1  0  0  0
 12 11  1  0  0  0  0
 12 15  1  1  0  0  0
 13 11  1  0  0  0  0
 14 18  1  0  0  0  0
 16 18  1  0  0  0  0
 16 19  2  0  0  0  0
 17 12  1  0  0  0  0
 18 13  2  0  0  0  0
 19 17  1  0  0  0  0
 20 24  1  0  0  0  0
 21 25  1  0  0  0  0
 22 25  1  0  0  0  0
 23 22  1  0  0  0  0
 24 26  1  0  0  0  0
 24 23  1  0  0  0  0
 26 27  1  6  0  0  0
 26 21  1  0  0  0  0
 27 28  1  1  0  0  0
 27 29  1  0  0  0  0
 29 33  1  1  0  0  0
 29 31  1  0  0  0  0
 30 29  1  0  0  0  0
 30 31  1  0  0  0  0
 32 33  2  0  0  0  0
 33 34  1  0  0  0  0
 34 36  1  0  0  0  0
 36 35  1  0  0  0  0
M  END
>  <MODEL>
6

>  <REMARK>
 VINA RESULT:      -7.7      3.225      6.025
  Name = 
  10 active torsions:
  status: ('A' for Active; 'I' for Inactive)
    1  A    between atoms: O_2  and  C_27
    2  A    between atoms: O_2  and  C_34
    3  A    between atoms: C_3  and  N_11
    4  A    between atoms: C_5  and  C_25
    5  A    between atoms: C_8  and  C_27
    6  A    between atoms: C_8  and  C_29
    7  A    between atoms: N_11  and  C_25
    8  A    between atoms: N_20  and  O_32
    9  A    between atoms: C_29  and  C_30
   10  A    between atoms: O_32  and  C_33
                            x       y       z     vdW  Elec       q    Type
                         _______ _______ _______ _____ _____    ______ ____

>  <TORSDO>
F 10

$$$$
=
 OpenBabel10232411093D

 36 39  0  0  1  0  0  0  0  0999 V2000
  185.1310  178.7330  140.8190 C   0  0  0  0  0  0  0  0  0  0  0  0
  183.8960  178.8320  141.4990 C   0  0  0  0  0  0  0  0  0  0  0  0
  183.9320  178.5900  138.7100 C   0  0  0  0  0  3  0  0  0  0  0  0
  183.8350  178.9640  142.8800 O   0  0  0  0  0  1  0  0  0  0  0  0
  182.7000  178.8070  140.7770 C   0  0  0  0  0  3  0  0  0  0  0  0
  181.5530  178.6580  138.6950 F   0  0  0  0  0  0  0  0  0  0  0  0
  185.1400  178.6170  139.4210 C   0  0  0  0  0  0  0  0  0  0  0  0
  182.7160  178.6850  139.3870 C   0  0  0  0  0  0  0  0  0  0  0  0
  186.3930  178.7460  141.5010 N   0  0  0  0  0  2  0  0  0  0  0  0
  187.0990  177.5780  142.0100 C   0  0  0  0  0  2  0  0  0  0  0  0
  187.4550  177.7610  143.4880 C   0  0  2  0  0  3  0  0  0  0  0  0
  188.2230  176.5830  144.0790 C   0  0  1  0  0  3  0  0  0  0  0  0
  186.2300  177.9590  144.2470 N   0  0  0  0  0  0  0  0  0  0  0  0
  184.5220  178.4270  146.1820 Cl  0  0  0  0  0  0  0  0  0  0  0  0
  189.2060  175.9650  143.0930 C   0  0  0  0  0  1  0  0  0  0  0  0
  187.2420  178.2610  146.4220 N   0  0  0  0  0  0  0  0  0  0  0  0
  188.9730  177.0460  145.2300 N   0  0  0  0  0  2  0  0  0  0  0  0
  186.1230  178.1610  145.5250 C   0  0  0  0  0  0  0  0  0  0  0  0
  188.4640  177.8190  146.3210 C   0  0  0  0  0  3  0  0  0  0  0  0
  186.3670  178.5130  138.7550 O   0  0  0  0  0  0  0  0  0  0  0  0
  188.4080  178.4880  136.7810 C   0  0  0  0  0  2  0  0  0  0  0  0
  186.1480  177.7390  136.0410 C   0  0  0  0  0  2  0  0  0  0  0  0
  186.1190  176.7790  137.2360 C   0  0  0  0  0  2  0  0  0  0  0  0
  186.9010  177.2950  138.3700 N   0  0  0  0  0  0  0  0  0  0  0  0
  187.5860  177.9760  135.6050 C   0  0  0  0  0  2  0  0  0  0  0  0
  188.2970  177.5000  137.9500 C   0  0  2  0  0  3  0  0  0  0  0  0
  189.1780  177.9020  139.1360 C   0  0  2  0  0  3  0  0  0  0  0  0
  189.4970  179.2530  139.0910 F   0  0  0  0  0  0  0  0  0  0  0  0
  190.4290  177.0250  139.2250 C   0  0  1  0  0  0  0  0  0  0  0  0
  191.4680  177.3440  140.2280 C   0  0  0  0  0  2  0  0  0  0  0  0
  190.5110  176.3260  140.4420 O   0  0  0  0  0  0  0  0  0  0  0  0
  191.3350  176.6970  137.0440 O   0  0  0  0  0  0  0  0  0  0  0  0
  190.8230  176.1700  138.0690 C   0  0  0  0  0  0  0  0  0  0  0  0
  190.6390  174.7860  138.1450 O   0  0  0  0  0  0  0  0  0  0  0  0
  188.8590  174.2010  136.6210 C   0  0  0  0  0  1  0  0  0  0  0  0
  190.3150  173.9960  137.0090 C   0  0  0  0  0  2  0  0  0  0  0  0
  1  2  1  0  0  0  0
  1  9  1  0  0  0  0
  2  4  1  0  0  0  0
  3  8  2  0  0  0  0
  3  7  1  0  0  0  0
  5  2  2  0  0  0  0
  6  8  1  0  0  0  0
  7  1  2  0  0  0  0
  8  5  1  0  0  0  0
  9 10  1  0  0  0  0
 11 10  1  6  0  0  0
 11 12  1  0  0  0  0
 11 13  1  0  0  0  0
 12 15  1  6  0  0  0
 12 17  1  0  0  0  0
 13 18  2  0  0  0  0
 17 19  1  0  0  0  0
 18 14  1  0  0  0  0
 18 16  1  0  0  0  0
 19 16  2  0  0  0  0
 20  7  1  0  0  0  0
 21 26  1  0  0  0  0
 22 23  1  0  0  0  0
 23 24  1  0  0  0  0
 24 20  1  0  0  0  0
 25 22  1  0  0  0  0
 25 21  1  0  0  0  0
 26 24  1  0  0  0  0
 26 27  1  1  0  0  0
 27 28  1  6  0  0  0
 27 29  1  0  0  0  0
 29 33  1  6  0  0  0
 29 30  1  0  0  0  0
 29 31  1  0  0  0  0
 30 31  1  0  0  0  0
 32 33  2  0  0  0  0
 33 34  1  0  0  0  0
 35 36  1  0  0  0  0
 36 34  1  0  0  0  0
M  END
>  <MODEL>
7

>  <REMARK>
 VINA RESULT:      -7.7      2.883      6.044
  Name = 
  10 active torsions:
  status: ('A' for Active; 'I' for Inactive)
    1  A    between atoms: O_2  and  C_27
    2  A    between atoms: O_2  and  C_34
    3  A    between atoms: C_3  and  N_11
    4  A    between atoms: C_5  and  C_25
    5  A    between atoms: C_8  and  C_27
    6  A    between atoms: C_8  and  C_29
    7  A    between atoms: N_11  and  C_25
    8  A    between atoms: N_20  and  O_32
    9  A    between atoms: C_29  and  C_30
   10  A    between atoms: O_32  and  C_33
                            x       y       z     vdW  Elec       q    Type
                         _______ _______ _______ _____ _____    ______ ____

>  <TORSDO>
F 10

$$$$
=
 OpenBabel10232411093D

 36 39  0  0  1  0  0  0  0  0999 V2000
  185.8010  178.2230  142.8730 C   0  0  0  0  0  0  0  0  0  0  0  0
  186.1760  178.0480  144.2240 C   0  0  0  0  0  0  0  0  0  0  0  0
  183.6280  179.0290  143.6040 C   0  0  0  0  0  3  0  0  0  0  0  0
  187.4330  177.5740  144.5740 O   0  0  0  0  0  1  0  0  0  0  0  0
  185.2730  178.3630  145.2440 C   0  0  0  0  0  3  0  0  0  0  0  0
  183.1320  179.1490  145.9290 F   0  0  0  0  0  0  0  0  0  0  0  0
  184.5240  178.7200  142.5710 C   0  0  0  0  0  0  0  0  0  0  0  0
  184.0020  178.8500  144.9360 C   0  0  0  0  0  0  0  0  0  0  0  0
  186.6780  177.9140  141.7800 N   0  0  0  0  0  2  0  0  0  0  0  0
  187.9760  178.5260  141.5300 C   0  0  0  0  0  2  0  0  0  0  0  0
  188.7330  177.7640  140.4390 C   0  0  2  0  0  3  0  0  0  0  0  0
  190.1860  177.4690  140.7990 C   0  0  1  0  0  3  0  0  0  0  0  0
  188.6970  178.5410  139.2090 N   0  0  0  0  0  0  0  0  0  0  0  0
  188.9790  179.3180  136.7200 Cl  0  0  0  0  0  0  0  0  0  0  0  0
  190.3720  177.1430  142.2760 C   0  0  0  0  0  1  0  0  0  0  0  0
  189.9050  176.9850  137.8070 N   0  0  0  0  0  0  0  0  0  0  0  0
  190.6350  176.3270  140.0270 N   0  0  0  0  0  2  0  0  0  0  0  0
  189.2170  178.2210  138.0640 C   0  0  0  0  0  0  0  0  0  0  0  0
  190.4990  176.1510  138.6140 C   0  0  0  0  0  3  0  0  0  0  0  0
  184.1580  178.8850  141.2310 O   0  0  0  0  0  0  0  0  0  0  0  0
  182.9960  179.5910  138.7370 C   0  0  0  0  0  2  0  0  0  0  0  0
  181.4240  179.3440  140.6560 C   0  0  0  0  0  2  0  0  0  0  0  0
  182.0470  177.9720  140.9380 C   0  0  0  0  0  2  0  0  0  0  0  0
  183.4590  177.9190  140.5280 N   0  0  0  0  0  0  0  0  0  0  0  0
  181.5390  179.6690  139.1740 C   0  0  0  0  0  2  0  0  0  0  0  0
  183.5630  178.2090  139.0890 C   0  0  2  0  0  3  0  0  0  0  0  0
  184.9980  178.0240  138.5900 C   0  0  2  0  0  3  0  0  0  0  0  0
  185.5750  179.2430  138.2560 F   0  0  0  0  0  0  0  0  0  0  0  0
  185.0630  177.0280  137.4290 C   0  0  1  0  0  0  0  0  0  0  0  0
  186.0030  177.2750  136.3150 C   0  0  0  0  0  2  0  0  0  0  0  0
  186.3000  176.3670  137.3560 O   0  0  0  0  0  0  0  0  0  0  0  0
  183.0390  176.4040  136.3330 O   0  0  0  0  0  0  0  0  0  0  0  0
  183.9230  176.0990  137.1800 C   0  0  0  0  0  0  0  0  0  0  0  0
  183.8610  174.8890  137.8760 O   0  0  0  0  0  0  0  0  0  0  0  0
  185.2600  172.9220  137.7720 C   0  0  0  0  0  1  0  0  0  0  0  0
  184.0260  173.6310  137.2350 C   0  0  0  0  0  2  0  0  0  0  0  0
  1  2  1  0  0  0  0
  2  4  1  0  0  0  0
  2  5  2  0  0  0  0
  3  8  2  0  0  0  0
  7  1  2  0  0  0  0
  7  3  1  0  0  0  0
  8  5  1  0  0  0  0
  8  6  1  0  0  0  0
  9  1  1  0  0  0  0
 10  9  1  0  0  0  0
 11 12  1  0  0  0  0
 11 10  1  1  0  0  0
 12 15  1  1  0  0  0
 13 11  1  0  0  0  0
 14 18  1  0  0  0  0
 16 18  1  0  0  0  0
 16 19  2  0  0  0  0
 17 12  1  0  0  0  0
 18 13  2  0  0  0  0
 19 17  1  0  0  0  0
 20  7  1  0  0  0  0
 21 26  1  0  0  0  0
 21 25  1  0  0  0  0
 22 23  1  0  0  0  0
 24 23  1  0  0  0  0
 24 20  1  0  0  0  0
 25 22  1  0  0  0  0
 26 27  1  1  0  0  0
 26 24  1  0  0  0  0
 27 28  1  6  0  0  0
 29 33  1  6  0  0  0
 29 27  1  0  0  0  0
 30 31  1  0  0  0  0
 30 29  1  0  0  0  0
 31 29  1  0  0  0  0
 32 33  2  0  0  0  0
 33 34  1  0  0  0  0
 36 35  1  0  0  0  0
 36 34  1  0  0  0  0
M  END
>  <MODEL>
8

>  <REMARK>
 VINA RESULT:      -7.7      3.886      6.786
  Name = 
  10 active torsions:
  status: ('A' for Active; 'I' for Inactive)
    1  A    between atoms: O_2  and  C_27
    2  A    between atoms: O_2  and  C_34
    3  A    between atoms: C_3  and  N_11
    4  A    between atoms: C_5  and  C_25
    5  A    between atoms: C_8  and  C_27
    6  A    between atoms: C_8  and  C_29
    7  A    between atoms: N_11  and  C_25
    8  A    between atoms: N_20  and  O_32
    9  A    between atoms: C_29  and  C_30
   10  A    between atoms: O_32  and  C_33
                            x       y       z     vdW  Elec       q    Type
                         _______ _______ _______ _____ _____    ______ ____

>  <TORSDO>
F 10

$$$$
=
 OpenBabel10232411093D

 36 39  0  0  1  0  0  0  0  0999 V2000
  186.8140  178.6520  140.9990 C   0  0  0  0  0  0  0  0  0  0  0  0
  185.4610  178.9720  140.7460 C   0  0  0  0  0  0  0  0  0  0  0  0
  186.2170  178.0270  143.2700 C   0  0  0  0  0  3  0  0  0  0  0  0
  185.0430  179.4340  139.5040 O   0  0  0  0  0  1  0  0  0  0  0  0
  184.5080  178.8170  141.7560 C   0  0  0  0  0  3  0  0  0  0  0  0
  183.9550  178.2040  143.9900 F   0  0  0  0  0  0  0  0  0  0  0  0
  187.1830  178.1740  142.2650 C   0  0  0  0  0  0  0  0  0  0  0  0
  184.8830  178.3480  143.0150 C   0  0  0  0  0  0  0  0  0  0  0  0
  187.8410  178.7930  140.0080 N   0  0  0  0  0  2  0  0  0  0  0  0
  188.9090  177.8370  139.7460 C   0  0  0  0  0  2  0  0  0  0  0  0
  188.5110  176.8750  138.6230 C   0  0  2  0  0  3  0  0  0  0  0  0
  189.6050  176.6740  137.5780 C   0  0  1  0  0  3  0  0  0  0  0  0
  187.3160  177.3850  137.9670 N   0  0  0  0  0  0  0  0  0  0  0  0
  185.2200  177.6390  136.4110 Cl  0  0  0  0  0  0  0  0  0  0  0  0
  191.0030  176.6580  138.1840 C   0  0  0  0  0  1  0  0  0  0  0  0
  187.0280  175.5860  136.3760 N   0  0  0  0  0  0  0  0  0  0  0  0
  189.3880  175.4030  136.9150 N   0  0  0  0  0  2  0  0  0  0  0  0
  186.6720  176.8420  136.9800 C   0  0  0  0  0  0  0  0  0  0  0  0
  188.1590  174.9410  136.3460 C   0  0  0  0  0  3  0  0  0  0  0  0
  188.5250  177.8650  142.5110 O   0  0  0  0  0  0  0  0  0  0  0  0
  191.1310  177.9540  143.6360 C   0  0  0  0  0  2  0  0  0  0  0  0
  190.7680  176.2780  141.8270 C   0  0  0  0  0  2  0  0  0  0  0  0
  189.5360  175.7800  142.5900 C   0  0  0  0  0  2  0  0  0  0  0  0
  188.9080  176.8540  143.3750 N   0  0  0  0  0  0  0  0  0  0  0  0
  191.7810  176.8570  142.8030 C   0  0  0  0  0  2  0  0  0  0  0  0
  189.8850  177.3940  144.3350 C   0  0  2  0  0  3  0  0  0  0  0  0
  189.2330  178.4170  145.2700 C   0  0  2  0  0  3  0  0  0  0  0  0
  190.0960  179.4730  145.5390 F   0  0  0  0  0  0  0  0  0  0  0  0
  188.7260  177.7560  146.5550 C   0  0  1  0  0  0  0  0  0  0  0  0
  187.3070  177.9130  146.9380 C   0  0  0  0  0  2  0  0  0  0  0  0
  187.7850  176.7440  146.3030 O   0  0  0  0  0  0  0  0  0  0  0  0
  189.8000  178.0670  148.6600 O   0  0  0  0  0  0  0  0  0  0  0  0
  189.6910  177.3620  147.6210 C   0  0  0  0  0  0  0  0  0  0  0  0
  190.4500  176.1980  147.4620 O   0  0  0  0  0  0  0  0  0  0  0  0
  192.7290  175.7790  148.1460 C   0  0  0  0  0  1  0  0  0  0  0  0
  191.8030  176.2240  147.0240 C   0  0  0  0  0  2  0  0  0  0  0  0
  1  7  1  0  0  0  0
  2  1  2  0  0  0  0
  2  5  1  0  0  0  0
  4  2  1  0  0  0  0
  5  8  2  0  0  0  0
  7 20  1  0  0  0  0
  7  3  2  0  0  0  0
  8  3  1  0  0  0  0
  8  6  1  0  0  0  0
  9  1  1  0  0  0  0
 10  9  1  0  0  0  0
 11 10  1  1  0  0  0
 12 15  1  1  0  0  0
 12 11  1  0  0  0  0
 13 11  1  0  0  0  0
 14 18  1  0  0  0  0
 16 18  1  0  0  0  0
 17 12  1  0  0  0  0
 18 13  2  0  0  0  0
 19 16  2  0  0  0  0
 19 17  1  0  0  0  0
 20 24  1  0  0  0  0
 21 26  1  0  0  0  0
 22 23  1  0  0  0  0
 22 25  1  0  0  0  0
 23 24  1  0  0  0  0
 24 26  1  0  0  0  0
 25 21  1  0  0  0  0
 26 27  1  6  0  0  0
 27 28  1  1  0  0  0
 27 29  1  0  0  0  0
 29 30  1  0  0  0  0
 29 33  1  1  0  0  0
 31 29  1  0  0  0  0
 31 30  1  0  0  0  0
 33 32  2  0  0  0  0
 34 33  1  0  0  0  0
 36 34  1  0  0  0  0
 36 35  1  0  0  0  0
M  END
>  <MODEL>
9

>  <REMARK>
 VINA RESULT:      -7.7      3.216      6.236
  Name = 
  10 active torsions:
  status: ('A' for Active; 'I' for Inactive)
    1  A    between atoms: O_2  and  C_27
    2  A    between atoms: O_2  and  C_34
    3  A    between atoms: C_3  and  N_11
    4  A    between atoms: C_5  and  C_25
    5  A    between atoms: C_8  and  C_27
    6  A    between atoms: C_8  and  C_29
    7  A    between atoms: N_11  and  C_25
    8  A    between atoms: N_20  and  O_32
    9  A    between atoms: C_29  and  C_30
   10  A    between atoms: O_32  and  C_33
                            x       y       z     vdW  Elec       q    Type
                         _______ _______ _______ _____ _____    ______ ____

>  <TORSDO>
F 10

$$$$
