=
 OpenBabel10232409573D

 34 36  0  0  1  0  0  0  0  0999 V2000
  189.1440  178.1700  142.2200 C   0  0  0  0  0  3  0  0  0  0  0  0
  189.3720  177.7400  143.5280 C   0  0  0  0  0  3  0  0  0  0  0  0
  186.7490  178.0270  142.5800 C   0  0  0  0  0  0  0  0  0  0  0  0
  186.9920  177.5970  143.8880 C   0  0  0  0  0  3  0  0  0  0  0  0
  187.8440  178.3200  141.7230 C   0  0  0  0  0  0  0  0  0  0  0  0
  188.2980  177.4510  144.3680 C   0  0  0  0  0  0  0  0  0  0  0  0
  185.3700  178.1650  142.1920 C   0  0  0  0  0  0  0  0  0  0  0  0
  184.2100  178.2530  141.8760 C   0  0  0  0  0  0  0  0  0  0  0  0
  182.0630  178.0020  135.9330 O   0  0  0  0  0  1  0  0  0  0  0  0
  181.1130  179.4690  139.9660 C   0  0  1  0  0  3  0  0  0  0  0  0
  181.3670  179.8280  137.3510 C   0  0  2  0  0  3  0  0  0  0  0  0
  182.6120  179.2730  140.2850 C   0  0  2  0  0  3  0  0  0  0  0  0
  180.3550  179.9870  141.1890 C   0  0  0  0  0  2  0  0  0  0  0  0
  183.4260  178.7970  139.0590 C   0  0  0  0  0  2  0  0  0  0  0  0
  180.6740  180.5710  136.2160 C   0  0  0  0  0  1  0  0  0  0  0  0
  182.0060  178.8750  142.6980 C   0  0  0  0  0  2  0  0  0  0  0  0
  180.3490  181.3960  138.8190 O   0  0  0  0  0  0  0  0  0  0  0  0
  181.3200  178.3080  137.0750 C   0  0  2  0  0  3  0  0  0  0  0  0
  180.5280  179.0190  142.3530 C   0  0  0  0  0  2  0  0  0  0  0  0
  182.7940  178.3480  141.5000 C   0  0  2  0  0  3  0  0  0  0  0  0
  180.8630  180.2900  138.7150 C   0  0  0  0  0  0  0  0  0  0  0  0
  181.7580  177.3970  138.2350 C   0  0  0  0  0  2  0  0  0  0  0  0
  183.1220  177.4970  138.5920 O   0  0  0  0  0  0  0  0  0  0  0  0
  187.7280  178.7560  140.3920 O   0  0  0  0  0  0  0  0  0  0  0  0
  188.1470  178.0350  139.2440 C   0  0  0  0  0  1  0  0  0  0  0  0
  188.5500  177.0090  145.7050 N   0  0  0  0  0  2  0  0  0  0  0  0
  188.4300  177.8770  146.8750 C   0  0  2  0  0  3  0  0  0  0  0  0
  189.5900  177.6500  147.8450 C   0  0  0  0  0  2  0  0  0  0  0  0
  190.5840  176.6540  147.2720 C   0  0  0  0  0  2  0  0  0  0  0  0
  191.8710  176.9560  147.7190 O   0  0  0  0  0  1  0  0  0  0  0  0
  187.1310  177.6970  147.5280 N   0  0  0  0  0  2  0  0  0  0  0  0
  186.2430  178.8140  147.2190 C   0  0  0  0  0  2  0  0  0  0  0  0
  184.2310  178.9640  145.9030 N   0  0  0  0  0  2  0  0  0  0  0  0
  184.9230  178.2990  146.7520 C   0  0  0  0  0  3  0  0  0  0  0  0
  1  2  1  0  0  0  0
  2  6  2  0  0  0  0
  3  4  2  0  0  0  0
  4  6  1  0  0  0  0
  5  1  2  0  0  0  0
  5  3  1  0  0  0  0
  6 26  1  0  0  0  0
  7  3  1  0  0  0  0
  8  7  3  0  0  0  0
 10 12  1  0  0  0  0
 10 13  1  1  0  0  0
 11 15  1  6  0  0  0
 11 21  1  0  0  0  0
 12 14  1  6  0  0  0
 12 20  1  0  0  0  0
 13 19  1  0  0  0  0
 18  9  1  6  0  0  0
 18 11  1  0  0  0  0
 18 22  1  0  0  0  0
 19 16  1  0  0  0  0
 20  8  1  1  0  0  0
 20 16  1  0  0  0  0
 21 17  2  0  0  0  0
 21 10  1  0  0  0  0
 22 23  1  0  0  0  0
 23 14  1  0  0  0  0
 24  5  1  0  0  0  0
 25 24  1  0  0  0  0
 26 27  1  0  0  0  0
 27 31  1  0  0  0  0
 27 28  1  1  0  0  0
 29 30  1  0  0  0  0
 29 28  1  0  0  0  0
 32 31  1  0  0  0  0
 33 34  2  0  0  0  0
 34 32  1  0  0  0  0
M  END
>  <MODEL>
1

>  <REMARK>
 VINA RESULT:      -7.7      0.000      0.000
  Name = 
  10 active torsions:
  status: ('A' for Active; 'I' for Inactive)
    1  A    between atoms: C_2  and  C_8
    2  A    between atoms: C_8  and  C_10
    3  A    between atoms: C_10  and  N_32
    4  A    between atoms: C_10  and  N_33
    5  A    between atoms: C_11  and  C_14
    6  A    between atoms: C_17  and  C_29
    7  A    between atoms: C_19  and  O_24
    8  A    between atoms: C_21  and  C_23
    9  A    between atoms: C_23  and  N_32
   10  A    between atoms: C_25  and  N_33
                            x       y       z     vdW  Elec       q    Type
                         _______ _______ _______ _____ _____    ______ ____

>  <TORSDO>
F 10

$$$$
=
 OpenBabel10232409573D

 34 36  0  0  1  0  0  0  0  0999 V2000
  189.5430  177.9950  142.2310 C   0  0  0  0  0  3  0  0  0  0  0  0
  189.8910  178.0310  143.5830 C   0  0  0  0  0  3  0  0  0  0  0  0
  187.1910  178.0330  142.8260 C   0  0  0  0  0  0  0  0  0  0  0  0
  187.5530  178.0680  144.1760 C   0  0  0  0  0  3  0  0  0  0  0  0
  188.2030  177.9940  141.8280 C   0  0  0  0  0  0  0  0  0  0  0  0
  188.8990  178.0680  144.5610 C   0  0  0  0  0  0  0  0  0  0  0  0
  185.7810  178.0590  142.5350 C   0  0  0  0  0  0  0  0  0  0  0  0
  184.6040  178.1050  142.2790 C   0  0  0  0  0  0  0  0  0  0  0  0
  182.1940  177.2450  136.4960 O   0  0  0  0  0  1  0  0  0  0  0  0
  181.4330  179.1440  140.3860 C   0  0  1  0  0  3  0  0  0  0  0  0
  181.5730  179.2180  137.7390 C   0  0  2  0  0  3  0  0  0  0  0  0
  182.9430  178.9660  140.6590 C   0  0  2  0  0  3  0  0  0  0  0  0
  180.7330  179.7970  141.5790 C   0  0  0  0  0  2  0  0  0  0  0  0
  183.7000  178.3540  139.4560 C   0  0  0  0  0  2  0  0  0  0  0  0
  180.8340  179.8440  136.5630 C   0  0  0  0  0  1  0  0  0  0  0  0
  182.4440  178.8350  143.1250 C   0  0  0  0  0  2  0  0  0  0  0  0
  180.6310  180.9450  139.0740 O   0  0  0  0  0  0  0  0  0  0  0  0
  181.5040  177.6780  137.6300 C   0  0  2  0  0  3  0  0  0  0  0  0
  180.9530  178.9570  142.8310 C   0  0  0  0  0  2  0  0  0  0  0  0
  183.1740  178.1740  141.9570 C   0  0  2  0  0  3  0  0  0  0  0  0
  181.1320  179.8290  139.0670 C   0  0  0  0  0  0  0  0  0  0  0  0
  181.9880  176.8920  138.8600 C   0  0  0  0  0  2  0  0  0  0  0  0
  183.3670  177.0140  139.1440 O   0  0  0  0  0  0  0  0  0  0  0  0
  187.9640  177.9540  140.4440 O   0  0  0  0  0  0  0  0  0  0  0  0
  188.9220  178.2180  139.4300 C   0  0  0  0  0  1  0  0  0  0  0  0
  189.2730  178.1020  145.9410 N   0  0  0  0  0  2  0  0  0  0  0  0
  189.2070  176.9380  146.8210 C   0  0  2  0  0  3  0  0  0  0  0  0
  188.0030  177.0290  147.7590 C   0  0  0  0  0  2  0  0  0  0  0  0
  187.5680  178.4730  147.9390 C   0  0  0  0  0  2  0  0  0  0  0  0
  186.2940  178.6570  147.4020 O   0  0  0  0  0  1  0  0  0  0  0  0
  190.4610  176.7700  147.5600 N   0  0  0  0  0  2  0  0  0  0  0  0
  191.5630  176.4890  146.6440 C   0  0  0  0  0  2  0  0  0  0  0  0
  193.0840  175.8850  148.4110 N   0  0  0  0  0  2  0  0  0  0  0  0
  192.5420  175.5690  147.2950 C   0  0  0  0  0  3  0  0  0  0  0  0
  1  2  1  0  0  0  0
  2  6  2  0  0  0  0
  3  4  2  0  0  0  0
  4  6  1  0  0  0  0
  5  1  2  0  0  0  0
  5  3  1  0  0  0  0
  6 26  1  0  0  0  0
  7  3  1  0  0  0  0
  8  7  3  0  0  0  0
 10 12  1  0  0  0  0
 10 13  1  1  0  0  0
 11 15  1  6  0  0  0
 11 21  1  0  0  0  0
 12 14  1  6  0  0  0
 12 20  1  0  0  0  0
 13 19  1  0  0  0  0
 18  9  1  6  0  0  0
 18 11  1  0  0  0  0
 18 22  1  0  0  0  0
 19 16  1  0  0  0  0
 20  8  1  1  0  0  0
 20 16  1  0  0  0  0
 21 17  2  0  0  0  0
 21 10  1  0  0  0  0
 22 23  1  0  0  0  0
 23 14  1  0  0  0  0
 24  5  1  0  0  0  0
 25 24  1  0  0  0  0
 26 27  1  0  0  0  0
 27 31  1  0  0  0  0
 27 28  1  1  0  0  0
 28 29  1  0  0  0  0
 30 29  1  0  0  0  0
 32 34  1  0  0  0  0
 32 31  1  0  0  0  0
 34 33  2  0  0  0  0
M  END
>  <MODEL>
2

>  <REMARK>
 VINA RESULT:      -7.1      1.685      2.824
  Name = 
  10 active torsions:
  status: ('A' for Active; 'I' for Inactive)
    1  A    between atoms: C_2  and  C_8
    2  A    between atoms: C_8  and  C_10
    3  A    between atoms: C_10  and  N_32
    4  A    between atoms: C_10  and  N_33
    5  A    between atoms: C_11  and  C_14
    6  A    between atoms: C_17  and  C_29
    7  A    between atoms: C_19  and  O_24
    8  A    between atoms: C_21  and  C_23
    9  A    between atoms: C_23  and  N_32
   10  A    between atoms: C_25  and  N_33
                            x       y       z     vdW  Elec       q    Type
                         _______ _______ _______ _____ _____    ______ ____

>  <TORSDO>
F 10

$$$$
=
 OpenBabel10232409573D

 34 36  0  0  1  0  0  0  0  0999 V2000
  188.5630  177.6070  145.3100 C   0  0  0  0  0  3  0  0  0  0  0  0
  189.4920  177.6250  144.2680 C   0  0  0  0  0  3  0  0  0  0  0  0
  186.7570  177.9170  143.7180 C   0  0  0  0  0  0  0  0  0  0  0  0
  187.6980  177.9350  142.6850 C   0  0  0  0  0  3  0  0  0  0  0  0
  187.1930  177.7520  145.0610 C   0  0  0  0  0  0  0  0  0  0  0  0
  189.0650  177.7890  142.9510 C   0  0  0  0  0  0  0  0  0  0  0  0
  185.3760  178.0530  143.3360 C   0  0  0  0  0  0  0  0  0  0  0  0
  184.2240  178.1500  142.9940 C   0  0  0  0  0  0  0  0  0  0  0  0
  182.1710  176.9470  137.1340 O   0  0  0  0  0  1  0  0  0  0  0  0
  181.2430  179.1750  140.8080 C   0  0  1  0  0  3  0  0  0  0  0  0
  181.5640  179.0370  138.1800 C   0  0  2  0  0  3  0  0  0  0  0  0
  182.7210  178.9530  141.2000 C   0  0  2  0  0  3  0  0  0  0  0  0
  180.4970  179.9490  141.8960 C   0  0  0  0  0  2  0  0  0  0  0  0
  183.5260  178.2170  140.1030 C   0  0  0  0  0  2  0  0  0  0  0  0
  180.9380  179.6000  136.9100 C   0  0  0  0  0  1  0  0  0  0  0  0
  182.0490  179.0360  143.6270 C   0  0  0  0  0  2  0  0  0  0  0  0
  180.6200  180.9020  139.3120 O   0  0  0  0  0  0  0  0  0  0  0  0
  181.4280  177.4970  138.1810 C   0  0  2  0  0  3  0  0  0  0  0  0
  180.5900  179.2000  143.2200 C   0  0  0  0  0  2  0  0  0  0  0  0
  182.8240  178.2550  142.5670 C   0  0  2  0  0  3  0  0  0  0  0  0
  181.0650  179.7680  139.4230 C   0  0  0  0  0  0  0  0  0  0  0  0
  181.7890  176.7890  139.4980 C   0  0  0  0  0  2  0  0  0  0  0  0
  183.1500  176.8730  139.8700 O   0  0  0  0  0  0  0  0  0  0  0  0
  186.3450  177.7210  146.1820 O   0  0  0  0  0  0  0  0  0  0  0  0
  185.9680  178.8420  146.9670 C   0  0  0  0  0  1  0  0  0  0  0  0
  190.0310  177.8080  141.8960 N   0  0  0  0  0  2  0  0  0  0  0  0
  189.7520  177.3330  140.5430 C   0  0  2  0  0  3  0  0  0  0  0  0
  191.0420  176.9190  139.8330 C   0  0  0  0  0  2  0  0  0  0  0  0
  192.2500  177.5540  140.4980 C   0  0  0  0  0  2  0  0  0  0  0  0
  193.4060  177.2460  139.7800 O   0  0  0  0  0  1  0  0  0  0  0  0
  189.0090  178.3380  139.7790 N   0  0  0  0  0  2  0  0  0  0  0  0
  188.8620  177.9210  138.3880 C   0  0  0  0  0  2  0  0  0  0  0  0
  186.6330  178.6670  137.8600 N   0  0  0  0  0  2  0  0  0  0  0  0
  187.4220  177.6810  138.0790 C   0  0  0  0  0  3  0  0  0  0  0  0
  2  1  2  0  0  0  0
  3  5  2  0  0  0  0
  4  6  2  0  0  0  0
  4  3  1  0  0  0  0
  5  1  1  0  0  0  0
  5 24  1  0  0  0  0
  6  2  1  0  0  0  0
  7  3  1  0  0  0  0
  8  7  3  0  0  0  0
 10 12  1  0  0  0  0
 10 13  1  1  0  0  0
 11 15  1  6  0  0  0
 11 18  1  0  0  0  0
 11 21  1  0  0  0  0
 12 14  1  6  0  0  0
 12 20  1  0  0  0  0
 13 19  1  0  0  0  0
 17 21  2  0  0  0  0
 18  9  1  6  0  0  0
 18 22  1  0  0  0  0
 19 16  1  0  0  0  0
 20  8  1  1  0  0  0
 20 16  1  0  0  0  0
 21 10  1  0  0  0  0
 22 23  1  0  0  0  0
 23 14  1  0  0  0  0
 24 25  1  0  0  0  0
 26  6  1  0  0  0  0
 27 28  1  6  0  0  0
 27 26  1  0  0  0  0
 28 29  1  0  0  0  0
 30 29  1  0  0  0  0
 31 27  1  0  0  0  0
 32 31  1  0  0  0  0
 33 34  2  0  0  0  0
 34 32  1  0  0  0  0
M  END
>  <MODEL>
3

>  <REMARK>
 VINA RESULT:      -7.1      2.676      4.522
  Name = 
  10 active torsions:
  status: ('A' for Active; 'I' for Inactive)
    1  A    between atoms: C_2  and  C_8
    2  A    between atoms: C_8  and  C_10
    3  A    between atoms: C_10  and  N_32
    4  A    between atoms: C_10  and  N_33
    5  A    between atoms: C_11  and  C_14
    6  A    between atoms: C_17  and  C_29
    7  A    between atoms: C_19  and  O_24
    8  A    between atoms: C_21  and  C_23
    9  A    between atoms: C_23  and  N_32
   10  A    between atoms: C_25  and  N_33
                            x       y       z     vdW  Elec       q    Type
                         _______ _______ _______ _____ _____    ______ ____

>  <TORSDO>
F 10

$$$$
=
 OpenBabel10232409573D

 34 36  0  0  1  0  0  0  0  0999 V2000
  188.8650  177.7670  145.1100 C   0  0  0  0  0  3  0  0  0  0  0  0
  189.6740  177.3440  144.0540 C   0  0  0  0  0  3  0  0  0  0  0  0
  186.9310  177.7560  143.6430 C   0  0  0  0  0  0  0  0  0  0  0  0
  187.7540  177.3340  142.5950 C   0  0  0  0  0  3  0  0  0  0  0  0
  187.4930  177.9810  144.9290 C   0  0  0  0  0  0  0  0  0  0  0  0
  189.1240  177.1250  142.7930 C   0  0  0  0  0  0  0  0  0  0  0  0
  185.5330  177.9200  143.3410 C   0  0  0  0  0  0  0  0  0  0  0  0
  184.3660  178.0380  143.0660 C   0  0  0  0  0  0  0  0  0  0  0  0
  181.9760  177.0370  137.2970 O   0  0  0  0  0  1  0  0  0  0  0  0
  181.2780  179.1580  141.0830 C   0  0  1  0  0  3  0  0  0  0  0  0
  181.4510  179.0990  138.4380 C   0  0  2  0  0  3  0  0  0  0  0  0
  182.7730  178.9110  141.3840 C   0  0  2  0  0  3  0  0  0  0  0  0
  180.6030  179.9060  142.2340 C   0  0  0  0  0  2  0  0  0  0  0  0
  183.5080  178.2020  140.2220 C   0  0  0  0  0  2  0  0  0  0  0  0
  180.7620  179.7070  137.2230 C   0  0  0  0  0  1  0  0  0  0  0  0
  182.2390  178.9250  143.8470 C   0  0  0  0  0  2  0  0  0  0  0  0
  180.5920  180.9370  139.6770 O   0  0  0  0  0  0  0  0  0  0  0  0
  181.2980  177.5610  138.4000 C   0  0  2  0  0  3  0  0  0  0  0  0
  180.7610  179.1150  143.5270 C   0  0  0  0  0  2  0  0  0  0  0  0
  182.9450  178.1700  142.7210 C   0  0  2  0  0  3  0  0  0  0  0  0
  181.0310  179.7960  139.7290 C   0  0  0  0  0  0  0  0  0  0  0  0
  181.7240  176.8090  139.6730 C   0  0  0  0  0  2  0  0  0  0  0  0
  183.1050  176.8690  139.9700 O   0  0  0  0  0  0  0  0  0  0  0  0
  186.7710  178.4080  146.0570 O   0  0  0  0  0  0  0  0  0  0  0  0
  187.0920  178.1120  147.4070 C   0  0  0  0  0  1  0  0  0  0  0  0
  189.9690  176.6940  141.7220 N   0  0  0  0  0  2  0  0  0  0  0  0
  190.1590  177.4570  140.4910 C   0  0  2  0  0  3  0  0  0  0  0  0
  189.0820  177.1100  139.4610 C   0  0  0  0  0  2  0  0  0  0  0  0
  188.3910  178.3670  138.9610 C   0  0  0  0  0  2  0  0  0  0  0  0
  187.1210  178.4700  139.5290 O   0  0  0  0  0  1  0  0  0  0  0  0
  191.5080  177.2580  139.9550 N   0  0  0  0  0  2  0  0  0  0  0  0
  191.4560  176.5410  138.6850 C   0  0  0  0  0  2  0  0  0  0  0  0
  193.8580  176.5360  138.8640 N   0  0  0  0  0  2  0  0  0  0  0  0
  192.8280  176.4260  138.1100 C   0  0  0  0  0  3  0  0  0  0  0  0
  2  1  2  0  0  0  0
  3  5  2  0  0  0  0
  4  6  2  0  0  0  0
  4  3  1  0  0  0  0
  5  1  1  0  0  0  0
  5 24  1  0  0  0  0
  6  2  1  0  0  0  0
  7  3  1  0  0  0  0
  8  7  3  0  0  0  0
 10 12  1  0  0  0  0
 10 13  1  1  0  0  0
 11 15  1  6  0  0  0
 11 21  1  0  0  0  0
 12 14  1  6  0  0  0
 12 20  1  0  0  0  0
 13 19  1  0  0  0  0
 17 21  2  0  0  0  0
 18  9  1  6  0  0  0
 18 11  1  0  0  0  0
 18 22  1  0  0  0  0
 19 16  1  0  0  0  0
 20  8  1  1  0  0  0
 20 16  1  0  0  0  0
 21 10  1  0  0  0  0
 22 23  1  0  0  0  0
 23 14  1  0  0  0  0
 24 25  1  0  0  0  0
 26  6  1  0  0  0  0
 27 28  1  6  0  0  0
 27 26  1  0  0  0  0
 29 28  1  0  0  0  0
 29 30  1  0  0  0  0
 31 27  1  0  0  0  0
 32 31  1  0  0  0  0
 34 32  1  0  0  0  0
 34 33  2  0  0  0  0
M  END
>  <MODEL>
4

>  <REMARK>
 VINA RESULT:      -6.8      2.667      5.224
  Name = 
  10 active torsions:
  status: ('A' for Active; 'I' for Inactive)
    1  A    between atoms: C_2  and  C_8
    2  A    between atoms: C_8  and  C_10
    3  A    between atoms: C_10  and  N_32
    4  A    between atoms: C_10  and  N_33
    5  A    between atoms: C_11  and  C_14
    6  A    between atoms: C_17  and  C_29
    7  A    between atoms: C_19  and  O_24
    8  A    between atoms: C_21  and  C_23
    9  A    between atoms: C_23  and  N_32
   10  A    between atoms: C_25  and  N_33
                            x       y       z     vdW  Elec       q    Type
                         _______ _______ _______ _____ _____    ______ ____

>  <TORSDO>
F 10

$$$$
=
 OpenBabel10232409573D

 34 36  0  0  1  0  0  0  0  0999 V2000
  191.5750  177.2940  141.0330 C   0  0  0  0  0  3  0  0  0  0  0  0
  191.2880  177.5530  142.3750 C   0  0  0  0  0  3  0  0  0  0  0  0
  189.2720  177.7770  140.4390 C   0  0  0  0  0  0  0  0  0  0  0  0
  188.9990  178.0330  141.7860 C   0  0  0  0  0  3  0  0  0  0  0  0
  190.5850  177.3980  140.0490 C   0  0  0  0  0  0  0  0  0  0  0  0
  190.0010  177.9230  142.7580 C   0  0  0  0  0  0  0  0  0  0  0  0
  188.1780  177.9390  139.5180 C   0  0  0  0  0  0  0  0  0  0  0  0
  187.2680  178.0480  138.7360 C   0  0  0  0  0  0  0  0  0  0  0  0
  181.4530  180.0430  140.2210 O   0  0  0  0  0  1  0  0  0  0  0  0
  183.7210  177.6270  137.3340 C   0  0  1  0  0  3  0  0  0  0  0  0
  181.7040  177.9630  139.0220 C   0  0  2  0  0  3  0  0  0  0  0  0
  184.8560  177.6160  138.3820 C   0  0  2  0  0  3  0  0  0  0  0  0
  184.1290  176.8600  136.0750 C   0  0  0  0  0  2  0  0  0  0  0  0
  184.4660  178.3390  139.6930 C   0  0  0  0  0  2  0  0  0  0  0  0
  180.2280  177.6050  139.1410 C   0  0  0  0  0  1  0  0  0  0  0  0
  186.5300  177.3990  136.5110 C   0  0  0  0  0  2  0  0  0  0  0  0
  181.8850  176.1410  137.5060 O   0  0  0  0  0  0  0  0  0  0  0  0
  181.8610  179.5010  139.0010 C   0  0  2  0  0  3  0  0  0  0  0  0
  185.3990  177.4650  135.4900 C   0  0  0  0  0  2  0  0  0  0  0  0
  186.1610  178.1660  137.7790 C   0  0  2  0  0  3  0  0  0  0  0  0
  182.3790  177.1920  137.8910 C   0  0  0  0  0  0  0  0  0  0  0  0
  183.2600  180.0320  138.6420 C   0  0  0  0  0  2  0  0  0  0  0  0
  184.2720  179.7370  139.5830 O   0  0  0  0  0  0  0  0  0  0  0  0
  190.9790  177.1130  138.7310 O   0  0  0  0  0  0  0  0  0  0  0  0
  190.8750  175.8510  138.0890 C   0  0  0  0  0  1  0  0  0  0  0  0
  189.7250  178.1830  144.1380 N   0  0  0  0  0  2  0  0  0  0  0  0
  189.0050  177.2510  145.0030 C   0  0  2  0  0  3  0  0  0  0  0  0
  187.5170  177.5960  145.0600 C   0  0  0  0  0  2  0  0  0  0  0  0
  187.0850  177.8820  146.4880 C   0  0  0  0  0  2  0  0  0  0  0  0
  185.6930  177.9410  146.5610 O   0  0  0  0  0  1  0  0  0  0  0  0
  189.6060  177.2080  146.3380 N   0  0  0  0  0  2  0  0  0  0  0  0
  191.0390  176.9420  146.2480 C   0  0  0  0  0  2  0  0  0  0  0  0
  192.7240  175.8640  147.5900 N   0  0  0  0  0  2  0  0  0  0  0  0
  191.4940  176.1970  147.4580 C   0  0  0  0  0  3  0  0  0  0  0  0
  1  2  1  0  0  0  0
  2  6  2  0  0  0  0
  3  4  2  0  0  0  0
  4  6  1  0  0  0  0
  5  3  1  0  0  0  0
  5  1  2  0  0  0  0
  6 26  1  0  0  0  0
  7  3  1  0  0  0  0
  8  7  3  0  0  0  0
 10 13  1  6  0  0  0
 10 21  1  0  0  0  0
 10 12  1  0  0  0  0
 11 15  1  6  0  0  0
 12 14  1  1  0  0  0
 16 20  1  0  0  0  0
 17 21  2  0  0  0  0
 18 11  1  0  0  0  0
 18  9  1  1  0  0  0
 19 13  1  0  0  0  0
 19 16  1  0  0  0  0
 20 12  1  0  0  0  0
 20  8  1  1  0  0  0
 21 11  1  0  0  0  0
 22 18  1  0  0  0  0
 22 23  1  0  0  0  0
 23 14  1  0  0  0  0
 24  5  1  0  0  0  0
 25 24  1  0  0  0  0
 26 27  1  0  0  0  0
 27 28  1  1  0  0  0
 27 31  1  0  0  0  0
 28 29  1  0  0  0  0
 29 30  1  0  0  0  0
 32 31  1  0  0  0  0
 32 34  1  0  0  0  0
 34 33  2  0  0  0  0
M  END
>  <MODEL>
5

>  <REMARK>
 VINA RESULT:      -6.8      2.504      4.573
  Name = 
  10 active torsions:
  status: ('A' for Active; 'I' for Inactive)
    1  A    between atoms: C_2  and  C_8
    2  A    between atoms: C_8  and  C_10
    3  A    between atoms: C_10  and  N_32
    4  A    between atoms: C_10  and  N_33
    5  A    between atoms: C_11  and  C_14
    6  A    between atoms: C_17  and  C_29
    7  A    between atoms: C_19  and  O_24
    8  A    between atoms: C_21  and  C_23
    9  A    between atoms: C_23  and  N_32
   10  A    between atoms: C_25  and  N_33
                            x       y       z     vdW  Elec       q    Type
                         _______ _______ _______ _____ _____    ______ ____

>  <TORSDO>
F 10

$$$$
=
 OpenBabel10232409573D

 34 36  0  0  1  0  0  0  0  0999 V2000
  183.1620  178.8060  144.7870 C   0  0  0  0  0  3  0  0  0  0  0  0
  184.3290  178.6890  145.5440 C   0  0  0  0  0  3  0  0  0  0  0  0
  184.4580  178.6150  142.7440 C   0  0  0  0  0  0  0  0  0  0  0  0
  185.6190  178.4990  143.5150 C   0  0  0  0  0  3  0  0  0  0  0  0
  183.2010  178.7730  143.3880 C   0  0  0  0  0  0  0  0  0  0  0  0
  185.5620  178.5350  144.9130 C   0  0  0  0  0  0  0  0  0  0  0  0
  184.6230  178.5440  141.3160 C   0  0  0  0  0  0  0  0  0  0  0  0
  184.7420  178.4640  140.1190 C   0  0  0  0  0  0  0  0  0  0  0  0
  180.0420  176.8440  136.2090 O   0  0  0  0  0  1  0  0  0  0  0  0
  184.4170  176.9100  136.6260 C   0  0  1  0  0  3  0  0  0  0  0  0
  182.1450  175.6670  136.0600 C   0  0  2  0  0  3  0  0  0  0  0  0
  184.1730  177.0890  138.1410 C   0  0  2  0  0  3  0  0  0  0  0  0
  185.9140  176.8980  136.3090 C   0  0  0  0  0  2  0  0  0  0  0  0
  182.6710  177.0560  138.5120 C   0  0  0  0  0  2  0  0  0  0  0  0
  181.6080  174.6380  135.0740 C   0  0  0  0  0  1  0  0  0  0  0  0
  186.3610  178.3270  138.3090 C   0  0  0  0  0  2  0  0  0  0  0  0
  184.3020  174.7730  135.6120 O   0  0  0  0  0  0  0  0  0  0  0  0
  181.3890  177.0020  135.8730 C   0  0  2  0  0  3  0  0  0  0  0  0
  186.5580  178.1870  136.8040 C   0  0  0  0  0  2  0  0  0  0  0  0
  184.8750  178.3550  138.6610 C   0  0  2  0  0  3  0  0  0  0  0  0
  183.6690  175.7350  136.0260 C   0  0  0  0  0  0  0  0  0  0  0  0
  181.9680  178.2170  136.6190 C   0  0  0  0  0  2  0  0  0  0  0  0
  181.9010  178.1410  138.0290 O   0  0  0  0  0  0  0  0  0  0  0  0
  181.9700  178.9020  142.7230 O   0  0  0  0  0  0  0  0  0  0  0  0
  180.7010  179.0340  143.3470 C   0  0  0  0  0  1  0  0  0  0  0  0
  186.7480  178.4190  145.7050 N   0  0  0  0  0  2  0  0  0  0  0  0
  187.6890  177.3080  145.5850 C   0  0  2  0  0  3  0  0  0  0  0  0
  188.2910  176.9510  146.9450 C   0  0  0  0  0  2  0  0  0  0  0  0
  188.0750  178.0780  147.9410 C   0  0  0  0  0  2  0  0  0  0  0  0
  189.2820  178.4010  148.5620 O   0  0  0  0  0  1  0  0  0  0  0  0
  188.7250  177.6060  144.5920 N   0  0  0  0  0  2  0  0  0  0  0  0
  188.8030  176.5410  143.5970 C   0  0  0  0  0  2  0  0  0  0  0  0
  188.5290  177.7940  141.5580 N   0  0  0  0  0  2  0  0  0  0  0  0
  189.3000  177.0910  142.3020 C   0  0  0  0  0  3  0  0  0  0  0  0
  1  2  1  0  0  0  0
  3  5  1  0  0  0  0
  3  4  2  0  0  0  0
  4  6  1  0  0  0  0
  5  1  2  0  0  0  0
  6  2  2  0  0  0  0
  6 26  1  0  0  0  0
  7  3  1  0  0  0  0
  8  7  3  0  0  0  0
 10 13  1  1  0  0  0
 10 12  1  0  0  0  0
 11 15  1  6  0  0  0
 12 14  1  6  0  0  0
 12 20  1  0  0  0  0
 13 19  1  0  0  0  0
 16 20  1  0  0  0  0
 17 21  2  0  0  0  0
 18 11  1  0  0  0  0
 18  9  1  1  0  0  0
 18 22  1  0  0  0  0
 19 16  1  0  0  0  0
 20  8  1  1  0  0  0
 21 11  1  0  0  0  0
 21 10  1  0  0  0  0
 22 23  1  0  0  0  0
 23 14  1  0  0  0  0
 24 25  1  0  0  0  0
 24  5  1  0  0  0  0
 27 26  1  0  0  0  0
 27 28  1  1  0  0  0
 28 29  1  0  0  0  0
 29 30  1  0  0  0  0
 31 27  1  0  0  0  0
 32 31  1  0  0  0  0
 33 34  2  0  0  0  0
 34 32  1  0  0  0  0
M  END
>  <MODEL>
6

>  <REMARK>
 VINA RESULT:      -6.7      2.365      4.790
  Name = 
  10 active torsions:
  status: ('A' for Active; 'I' for Inactive)
    1  A    between atoms: C_2  and  C_8
    2  A    between atoms: C_8  and  C_10
    3  A    between atoms: C_10  and  N_32
    4  A    between atoms: C_10  and  N_33
    5  A    between atoms: C_11  and  C_14
    6  A    between atoms: C_17  and  C_29
    7  A    between atoms: C_19  and  O_24
    8  A    between atoms: C_21  and  C_23
    9  A    between atoms: C_23  and  N_32
   10  A    between atoms: C_25  and  N_33
                            x       y       z     vdW  Elec       q    Type
                         _______ _______ _______ _____ _____    ______ ____

>  <TORSDO>
F 10

$$$$
=
 OpenBabel10232409573D

 34 36  0  0  1  0  0  0  0  0999 V2000
  191.5620  177.1620  142.5520 C   0  0  0  0  0  3  0  0  0  0  0  0
  190.9480  176.9720  143.7920 C   0  0  0  0  0  3  0  0  0  0  0  0
  189.3930  177.5280  141.5250 C   0  0  0  0  0  0  0  0  0  0  0  0
  188.7930  177.3340  142.7720 C   0  0  0  0  0  3  0  0  0  0  0  0
  190.8070  177.4390  141.4060 C   0  0  0  0  0  0  0  0  0  0  0  0
  189.5620  177.0570  143.9080 C   0  0  0  0  0  0  0  0  0  0  0  0
  188.5150  177.8280  140.4250 C   0  0  0  0  0  0  0  0  0  0  0  0
  187.7870  178.0550  139.4910 C   0  0  0  0  0  0  0  0  0  0  0  0
  181.6930  179.6740  139.9830 O   0  0  0  0  0  1  0  0  0  0  0  0
  184.6440  177.8220  137.3030 C   0  0  1  0  0  3  0  0  0  0  0  0
  182.3010  177.8340  138.5450 C   0  0  2  0  0  3  0  0  0  0  0  0
  185.5310  177.6510  138.5570 C   0  0  2  0  0  3  0  0  0  0  0  0
  185.3490  177.2870  136.0560 C   0  0  0  0  0  2  0  0  0  0  0  0
  184.8350  178.1340  139.8520 C   0  0  0  0  0  2  0  0  0  0  0  0
  180.8540  177.4370  138.2800 C   0  0  0  0  0  1  0  0  0  0  0  0
  187.5710  177.7830  137.0840 C   0  0  0  0  0  2  0  0  0  0  0  0
  182.8930  176.3000  136.8270 O   0  0  0  0  0  0  0  0  0  0  0  0
  182.3780  179.3540  138.8090 C   0  0  2  0  0  3  0  0  0  0  0  0
  186.6800  178.0040  135.8670 C   0  0  0  0  0  2  0  0  0  0  0  0
  186.9020  178.3160  138.3500 C   0  0  2  0  0  3  0  0  0  0  0  0
  183.2390  177.2780  137.4770 C   0  0  0  0  0  0  0  0  0  0  0  0
  183.7910  179.9610  138.8540 C   0  0  0  0  0  2  0  0  0  0  0  0
  184.5950  179.5260  139.9320 O   0  0  0  0  0  0  0  0  0  0  0  0
  191.5240  177.6100  140.2090 O   0  0  0  0  0  0  0  0  0  0  0  0
  192.8940  177.2940  140.0120 C   0  0  0  0  0  1  0  0  0  0  0  0
  188.9500  176.8580  145.1850 N   0  0  0  0  0  2  0  0  0  0  0  0
  188.7330  177.9330  146.1500 C   0  0  2  0  0  3  0  0  0  0  0  0
  189.6520  177.7760  147.3610 C   0  0  0  0  0  2  0  0  0  0  0  0
  190.5260  176.5420  147.2170 C   0  0  0  0  0  2  0  0  0  0  0  0
  191.8720  176.9020  147.2760 O   0  0  0  0  0  1  0  0  0  0  0  0
  187.3230  178.0070  146.5420 N   0  0  0  0  0  2  0  0  0  0  0  0
  186.4580  177.7180  145.4020 C   0  0  0  0  0  2  0  0  0  0  0  0
  184.4930  178.8150  146.2620 N   0  0  0  0  0  2  0  0  0  0  0  0
  185.3630  178.7300  145.3260 C   0  0  0  0  0  3  0  0  0  0  0  0
  1  2  1  0  0  0  0
  2  6  2  0  0  0  0
  3  4  2  0  0  0  0
  4  6  1  0  0  0  0
  5  3  1  0  0  0  0
  5  1  2  0  0  0  0
  6 26  1  0  0  0  0
  7  3  1  0  0  0  0
  8  7  3  0  0  0  0
 10 13  1  6  0  0  0
 10 21  1  0  0  0  0
 10 12  1  0  0  0  0
 11 15  1  6  0  0  0
 11 18  1  0  0  0  0
 12 14  1  1  0  0  0
 14 23  1  0  0  0  0
 16 20  1  0  0  0  0
 17 21  2  0  0  0  0
 18 22  1  0  0  0  0
 18  9  1  1  0  0  0
 19 13  1  0  0  0  0
 19 16  1  0  0  0  0
 20 12  1  0  0  0  0
 20  8  1  1  0  0  0
 21 11  1  0  0  0  0
 22 23  1  0  0  0  0
 24  5  1  0  0  0  0
 25 24  1  0  0  0  0
 26 27  1  0  0  0  0
 27 31  1  0  0  0  0
 27 28  1  1  0  0  0
 29 30  1  0  0  0  0
 29 28  1  0  0  0  0
 32 31  1  0  0  0  0
 34 32  1  0  0  0  0
 34 33  2  0  0  0  0
M  END
>  <MODEL>
7

>  <REMARK>
 VINA RESULT:      -6.7      2.010      3.842
  Name = 
  10 active torsions:
  status: ('A' for Active; 'I' for Inactive)
    1  A    between atoms: C_2  and  C_8
    2  A    between atoms: C_8  and  C_10
    3  A    between atoms: C_10  and  N_32
    4  A    between atoms: C_10  and  N_33
    5  A    between atoms: C_11  and  C_14
    6  A    between atoms: C_17  and  C_29
    7  A    between atoms: C_19  and  O_24
    8  A    between atoms: C_21  and  C_23
    9  A    between atoms: C_23  and  N_32
   10  A    between atoms: C_25  and  N_33
                            x       y       z     vdW  Elec       q    Type
                         _______ _______ _______ _____ _____    ______ ____

>  <TORSDO>
F 10

$$$$
=
 OpenBabel10232409573D

 34 36  0  0  1  0  0  0  0  0999 V2000
  184.8130  178.7630  145.7620 C   0  0  0  0  0  3  0  0  0  0  0  0
  185.9830  178.1730  146.2430 C   0  0  0  0  0  3  0  0  0  0  0  0
  185.5820  178.4490  143.4810 C   0  0  0  0  0  0  0  0  0  0  0  0
  186.7490  177.8600  143.9770 C   0  0  0  0  0  3  0  0  0  0  0  0
  184.5910  178.9140  144.3880 C   0  0  0  0  0  0  0  0  0  0  0  0
  186.9560  177.7180  145.3540 C   0  0  0  0  0  0  0  0  0  0  0  0
  185.4570  178.5280  142.0500 C   0  0  0  0  0  0  0  0  0  0  0  0
  185.3810  178.5910  140.8480 C   0  0  0  0  0  0  0  0  0  0  0  0
  179.9860  178.6280  137.5490 O   0  0  0  0  0  1  0  0  0  0  0  0
  184.2650  177.6590  137.2980 C   0  0  1  0  0  3  0  0  0  0  0  0
  181.7090  177.0460  136.9540 C   0  0  2  0  0  3  0  0  0  0  0  0
  184.2590  177.6710  138.8430 C   0  0  2  0  0  3  0  0  0  0  0  0
  185.6640  177.3580  136.7570 C   0  0  0  0  0  2  0  0  0  0  0  0
  182.8510  177.9220  139.4330 C   0  0  0  0  0  2  0  0  0  0  0  0
  180.8230  176.3120  135.9550 C   0  0  0  0  0  1  0  0  0  0  0  0
  186.6840  178.3550  138.8080 C   0  0  0  0  0  2  0  0  0  0  0  0
  183.5150  175.7660  136.0870 O   0  0  0  0  0  0  0  0  0  0  0  0
  181.2780  178.5280  137.0300 C   0  0  2  0  0  3  0  0  0  0  0  0
  186.6550  178.3890  137.2850 C   0  0  0  0  0  2  0  0  0  0  0  0
  185.3030  178.6630  139.3850 C   0  0  2  0  0  3  0  0  0  0  0  0
  183.1880  176.7770  136.6950 C   0  0  0  0  0  0  0  0  0  0  0  0
  182.2200  179.4650  137.8070 C   0  0  0  0  0  2  0  0  0  0  0  0
  182.3100  179.2070  139.1940 O   0  0  0  0  0  0  0  0  0  0  0  0
  183.3820  179.5240  144.0120 O   0  0  0  0  0  0  0  0  0  0  0  0
  182.1960  178.8450  143.6280 C   0  0  0  0  0  1  0  0  0  0  0  0
  188.1490  177.1170  145.8650 N   0  0  0  0  0  2  0  0  0  0  0  0
  189.4730  177.7210  145.7350 C   0  0  2  0  0  3  0  0  0  0  0  0
  190.2850  177.0270  144.6410 C   0  0  0  0  0  2  0  0  0  0  0  0
  190.7330  178.0260  143.5880 C   0  0  0  0  0  2  0  0  0  0  0  0
  190.7060  179.3170  144.1140 O   0  0  0  0  0  1  0  0  0  0  0  0
  190.1770  177.7200  147.0200 N   0  0  0  0  0  2  0  0  0  0  0  0
  190.4650  176.3540  147.4460 C   0  0  0  0  0  2  0  0  0  0  0  0
  192.5420  175.1970  147.0600 N   0  0  0  0  0  2  0  0  0  0  0  0
  191.9370  176.1770  147.6200 C   0  0  0  0  0  3  0  0  0  0  0  0
  1  2  1  0  0  0  0
  3  4  2  0  0  0  0
  3  5  1  0  0  0  0
  4  6  1  0  0  0  0
  5  1  2  0  0  0  0
  6 26  1  0  0  0  0
  6  2  2  0  0  0  0
  7  3  1  0  0  0  0
  8  7  3  0  0  0  0
 10 13  1  1  0  0  0
 10 12  1  0  0  0  0
 11 15  1  6  0  0  0
 11 18  1  0  0  0  0
 12 20  1  0  0  0  0
 12 14  1  6  0  0  0
 13 19  1  0  0  0  0
 16 20  1  0  0  0  0
 17 21  2  0  0  0  0
 18  9  1  1  0  0  0
 18 22  1  0  0  0  0
 19 16  1  0  0  0  0
 20  8  1  1  0  0  0
 21 11  1  0  0  0  0
 21 10  1  0  0  0  0
 22 23  1  0  0  0  0
 23 14  1  0  0  0  0
 24  5  1  0  0  0  0
 25 24  1  0  0  0  0
 27 28  1  6  0  0  0
 27 26  1  0  0  0  0
 27 31  1  0  0  0  0
 29 30  1  0  0  0  0
 29 28  1  0  0  0  0
 31 32  1  0  0  0  0
 32 34  1  0  0  0  0
 33 34  2  0  0  0  0
M  END
>  <MODEL>
8

>  <REMARK>
 VINA RESULT:      -6.6      2.224      4.521
  Name = 
  10 active torsions:
  status: ('A' for Active; 'I' for Inactive)
    1  A    between atoms: C_2  and  C_8
    2  A    between atoms: C_8  and  C_10
    3  A    between atoms: C_10  and  N_32
    4  A    between atoms: C_10  and  N_33
    5  A    between atoms: C_11  and  C_14
    6  A    between atoms: C_17  and  C_29
    7  A    between atoms: C_19  and  O_24
    8  A    between atoms: C_21  and  C_23
    9  A    between atoms: C_23  and  N_32
   10  A    between atoms: C_25  and  N_33
                            x       y       z     vdW  Elec       q    Type
                         _______ _______ _______ _____ _____    ______ ____

>  <TORSDO>
F 10

$$$$
=
 OpenBabel10232409573D

 34 36  0  0  1  0  0  0  0  0999 V2000
  185.2590  178.9850  143.0940 C   0  0  0  0  0  3  0  0  0  0  0  0
  185.5000  178.4080  144.3420 C   0  0  0  0  0  3  0  0  0  0  0  0
  187.3370  178.0560  142.2530 C   0  0  0  0  0  0  0  0  0  0  0  0
  187.5660  177.4840  143.5080 C   0  0  0  0  0  3  0  0  0  0  0  0
  186.1610  178.8250  142.0360 C   0  0  0  0  0  0  0  0  0  0  0  0
  186.6530  177.6550  144.5550 C   0  0  0  0  0  0  0  0  0  0  0  0
  188.3260  177.8030  141.2380 C   0  0  0  0  0  0  0  0  0  0  0  0
  189.1410  177.6100  140.3720 C   0  0  0  0  0  0  0  0  0  0  0  0
  187.6860  176.3460  134.3480 O   0  0  0  0  0  1  0  0  0  0  0  0
  190.8240  175.8790  137.3900 C   0  0  1  0  0  3  0  0  0  0  0  0
  189.2370  174.9020  135.5030 C   0  0  2  0  0  3  0  0  0  0  0  0
  189.7260  176.1890  138.4310 C   0  0  2  0  0  3  0  0  0  0  0  0
  192.1760  175.6530  138.0690 C   0  0  0  0  0  2  0  0  0  0  0  0
  188.3300  176.3740  137.7900 C   0  0  0  0  0  2  0  0  0  0  0  0
  189.2840  173.8850  134.3700 C   0  0  0  0  0  1  0  0  0  0  0  0
  191.4920  177.1450  139.9530 C   0  0  0  0  0  2  0  0  0  0  0  0
  191.0560  173.7100  136.4660 O   0  0  0  0  0  0  0  0  0  0  0  0
  188.9570  176.3070  134.9240 C   0  0  2  0  0  3  0  0  0  0  0  0
  192.5530  176.8800  138.8910 C   0  0  0  0  0  2  0  0  0  0  0  0
  190.1280  177.3870  139.3080 C   0  0  2  0  0  3  0  0  0  0  0  0
  190.4480  174.7720  136.4240 C   0  0  0  0  0  0  0  0  0  0  0  0
  189.1180  177.4850  135.9010 C   0  0  0  0  0  2  0  0  0  0  0  0
  188.1860  177.5130  136.9620 O   0  0  0  0  0  0  0  0  0  0  0  0
  185.8230  179.4500  140.8240 O   0  0  0  0  0  0  0  0  0  0  0  0
  184.6660  179.1800  140.0470 C   0  0  0  0  0  1  0  0  0  0  0  0
  186.8850  177.0720  145.8410 N   0  0  0  0  0  2  0  0  0  0  0  0
  188.2050  176.9910  146.4610 C   0  0  2  0  0  3  0  0  0  0  0  0
  188.1140  177.1950  147.9730 C   0  0  0  0  0  2  0  0  0  0  0  0
  188.8510  178.4550  148.3920 C   0  0  0  0  0  2  0  0  0  0  0  0
  190.1020  178.1230  148.9140 O   0  0  0  0  0  1  0  0  0  0  0  0
  189.1340  177.9380  145.8380 N   0  0  0  0  0  2  0  0  0  0  0  0
  190.4520  177.3320  145.6740 C   0  0  0  0  0  2  0  0  0  0  0  0
  191.1610  178.5650  143.7300 N   0  0  0  0  0  2  0  0  0  0  0  0
  190.8800  177.4280  144.2480 C   0  0  0  0  0  3  0  0  0  0  0  0
  1  2  1  0  0  0  0
  2  6  2  0  0  0  0
  3  4  2  0  0  0  0
  4  6  1  0  0  0  0
  5  3  1  0  0  0  0
  5  1  2  0  0  0  0
  6 26  1  0  0  0  0
  7  3  1  0  0  0  0
  8  7  3  0  0  0  0
 10 13  1  1  0  0  0
 10 12  1  0  0  0  0
 11 15  1  6  0  0  0
 11 21  1  0  0  0  0
 12 14  1  6  0  0  0
 12 20  1  0  0  0  0
 13 19  1  0  0  0  0
 18  9  1  1  0  0  0
 18 11  1  0  0  0  0
 18 22  1  0  0  0  0
 19 16  1  0  0  0  0
 20 16  1  0  0  0  0
 20  8  1  1  0  0  0
 21 17  2  0  0  0  0
 21 10  1  0  0  0  0
 22 23  1  0  0  0  0
 23 14  1  0  0  0  0
 24  5  1  0  0  0  0
 25 24  1  0  0  0  0
 26 27  1  0  0  0  0
 27 28  1  1  0  0  0
 28 29  1  0  0  0  0
 29 30  1  0  0  0  0
 31 27  1  0  0  0  0
 32 31  1  0  0  0  0
 33 34  2  0  0  0  0
 34 32  1  0  0  0  0
M  END
>  <MODEL>
9

>  <REMARK>
 VINA RESULT:      -6.5      3.280      6.962
  Name = 
  10 active torsions:
  status: ('A' for Active; 'I' for Inactive)
    1  A    between atoms: C_2  and  C_8
    2  A    between atoms: C_8  and  C_10
    3  A    between atoms: C_10  and  N_32
    4  A    between atoms: C_10  and  N_33
    5  A    between atoms: C_11  and  C_14
    6  A    between atoms: C_17  and  C_29
    7  A    between atoms: C_19  and  O_24
    8  A    between atoms: C_21  and  C_23
    9  A    between atoms: C_23  and  N_32
   10  A    between atoms: C_25  and  N_33
                            x       y       z     vdW  Elec       q    Type
                         _______ _______ _______ _____ _____    ______ ____

>  <TORSDO>
F 10

$$$$
