=
 OpenBabel10232409503D

 45 51  0  0  1  0  0  0  0  0999 V2000
  187.8630  176.8900  137.7820 C   0  0  1  0  0  3  0  0  0  0  0  0
  189.0500  179.1170  137.9940 C   0  0  0  0  0  1  0  0  0  0  0  0
  187.9990  178.1960  138.5940 C   0  0  2  0  0  3  0  0  0  0  0  0
  183.9610  178.7530  144.4950 N   0  0  0  0  0  0  0  0  0  0  0  0
  190.7410  177.1060  145.6500 C   0  0  0  0  0  0  0  0  0  0  0  0
  187.1810  177.9890  145.4260 N   0  0  0  0  0  0  0  0  0  0  0  0
  189.5050  177.7510  146.5750 S   0  0  0  0  0  0  0  0  0  0  0  0
  184.2400  179.5140  143.3170 C   0  0  0  0  0  3  0  0  0  0  0  0
  189.1020  177.3180  144.1030 C   0  0  0  0  0  0  0  0  0  0  0  0
  187.4860  178.1050  142.3630 C   0  0  0  0  0  0  0  0  0  0  0  0
  190.3890  176.9300  144.3630 N   0  0  0  0  0  2  0  0  0  0  0  0
  187.3670  178.4010  140.9900 C   0  0  0  0  0  3  0  0  0  0  0  0
  186.1800  177.6910  144.4270 C   0  0  0  0  0  0  0  0  0  0  0  0
  188.4440  177.7640  145.2700 C   0  0  0  0  0  0  0  0  0  0  0  0
  189.3710  177.1890  140.4620 C   0  0  0  0  0  3  0  0  0  0  0  0
  185.3900  179.3730  142.6660 C   0  0  0  0  0  3  0  0  0  0  0  0
  188.6670  177.4090  142.8080 C   0  0  0  0  0  0  0  0  0  0  0  0
  189.5630  176.9460  141.8190 C   0  0  0  0  0  2  0  0  0  0  0  0
  186.4360  178.4390  143.1500 C   0  0  0  0  0  0  0  0  0  0  0  0
  184.8100  177.9190  145.0110 C   0  0  0  0  0  3  0  0  0  0  0  0
  188.2850  177.9530  140.0460 C   0  0  0  0  0  0  0  0  0  0  0  0
  191.8840  176.8220  146.0920 O   0  0  0  0  0  0  0  0  0  0  0  0
  186.5830  176.7980  137.0730 N   0  0  0  0  0  2  0  0  0  0  0  0
  183.5850  174.8830  137.9400 O   0  0  0  0  0  0  0  0  0  0  0  0
  184.2940  173.6750  137.7250 C   0  0  2  0  0  3  0  0  0  0  0  0
  184.3250  176.0330  137.7230 C   0  0  0  0  0  0  0  0  0  0  0  0
  185.5370  175.8200  137.2230 C   0  0  0  0  0  0  0  0  0  0  0  0
  185.8610  174.0980  136.8750 S   0  0  0  0  0  0  0  0  0  0  0  0
  182.7000  173.2310  136.0760 O   0  0  0  0  0  0  0  0  0  0  0  0
  183.4990  172.7670  136.9150 N   0  0  0  0  0  0  0  0  0  0  0  0
  183.7310  171.4120  136.9560 O   0  0  0  0  0  0  0  0  0  0  0  0
  183.8060  177.3240  138.0410 N   0  0  0  0  0  2  0  0  0  0  0  0
  184.0220  179.4950  139.0810 C   0  0  0  0  0  1  0  0  0  0  0  0
  184.1020  177.9990  139.2950 C   0  0  0  0  0  3  0  0  0  0  0  0
  183.0910  177.5920  140.3550 C   0  0  0  0  0  1  0  0  0  0  0  0
  188.9650  176.7220  136.8390 N   0  0  0  0  0  2  0  0  0  0  0  0
  191.0380  175.9810  137.6080 C   0  0  0  0  0  0  0  0  0  0  0  0
  191.7110  175.0710  135.3620 C   0  0  0  0  0  3  0  0  0  0  0  0
  190.7930  175.3400  136.3230 C   0  0  0  0  0  0  0  0  0  0  0  0
  189.7470  175.5610  137.2390 C   0  0  2  0  0  3  0  0  0  0  0  0
  193.0130  175.5200  135.7900 C   0  0  0  0  0  0  0  0  0  0  0  0
  193.2660  176.1690  137.0800 C   0  0  0  0  0  3  0  0  0  0  0  0
  194.0630  175.3220  134.9580 F   0  0  0  0  0  0  0  0  0  0  0  0
  192.2410  176.4230  138.0510 C   0  0  0  0  0  0  0  0  0  0  0  0
  192.4430  177.0340  139.2440 F   0  0  0  0  0  0  0  0  0  0  0  0
  1 36  1  6  0  0  0
  1  3  1  0  0  0  0
  3  2  1  6  0  0  0
  3 21  1  0  0  0  0
  4 20  1  0  0  0  0
  5 22  2  0  0  0  0
  5  7  1  0  0  0  0
  8  4  2  0  0  0  0
  9 11  1  0  0  0  0
  9 14  1  0  0  0  0
 10 17  1  0  0  0  0
 10 19  1  0  0  0  0
 11  5  1  0  0  0  0
 12 10  2  0  0  0  0
 13 20  2  0  0  0  0
 13  6  1  0  0  0  0
 14  6  2  0  0  0  0
 14  7  1  0  0  0  0
 15 18  1  0  0  0  0
 16 19  2  0  0  0  0
 16  8  1  0  0  0  0
 17  9  2  0  0  0  0
 18 17  1  0  0  0  0
 19 13  1  0  0  0  0
 21 15  2  0  0  0  0
 21 12  1  0  0  0  0
 23 27  1  0  0  0  0
 23  1  1  0  0  0  0
 25 30  1  6  0  0  0
 25 24  1  0  0  0  0
 26 24  1  0  0  0  0
 26 32  1  0  0  0  0
 27 26  2  0  0  0  0
 28 27  1  0  0  0  0
 28 25  1  0  0  0  0
 29 30  2  0  0  0  0
 30 31  2  0  0  0  0
 32 34  1  0  0  0  0
 33 34  1  0  0  0  0
 34 35  1  0  0  0  0
 37 44  1  0  0  0  0
 38 41  2  0  0  0  0
 38 39  1  0  0  0  0
 39 40  1  0  0  0  0
 39 37  2  0  0  0  0
 40 36  1  6  0  0  0
 40 37  1  0  0  0  0
 41 42  1  0  0  0  0
 42 44  2  0  0  0  0
 43 41  1  0  0  0  0
 44 45  1  0  0  0  0
M  END
>  <MODEL>
1

>  <REMARK>
 VINA RESULT:      -8.5      0.000      0.000
  Name = 
  9 active torsions:
  status: ('A' for Active; 'I' for Inactive)
    1  A    between atoms: C_10  and  N_41
    2  A    between atoms: C_12  and  C_18
    3  A    between atoms: C_12  and  C_40
    4  A    between atoms: C_13  and  N_44
    5  A    between atoms: C_14  and  N_33
    6  A    between atoms: C_18  and  N_25
    7  A    between atoms: C_18  and  N_41
    8  A    between atoms: C_19  and  N_44
    9  A    between atoms: N_25  and  C_26
                            x       y       z     vdW  Elec       q    Type
                         _______ _______ _______ _____ _____    ______ ____

>  <TORSDO>
F 9

$$$$
=
 OpenBabel10232409503D

 45 51  0  0  1  0  0  0  0  0999 V2000
  188.8380  177.8560  141.3620 C   0  0  1  0  0  3  0  0  0  0  0  0
  187.8500  177.9000  139.0300 C   0  0  0  0  0  1  0  0  0  0  0  0
  189.1060  178.1090  139.8630 C   0  0  2  0  0  3  0  0  0  0  0  0
  189.3940  172.9740  134.8640 N   0  0  0  0  0  0  0  0  0  0  0  0
  195.4810  174.2040  138.2480 C   0  0  0  0  0  0  0  0  0  0  0  0
  192.4930  173.2730  136.3220 N   0  0  0  0  0  0  0  0  0  0  0  0
  194.8580  172.9330  137.3550 S   0  0  0  0  0  0  0  0  0  0  0  0
  188.5800  173.3270  135.9860 C   0  0  0  0  0  3  0  0  0  0  0  0
  193.3770  174.9380  137.8510 C   0  0  0  0  0  0  0  0  0  0  0  0
  190.9210  175.4160  137.8790 C   0  0  0  0  0  0  0  0  0  0  0  0
  194.5890  175.1950  138.4340 N   0  0  0  0  0  2  0  0  0  0  0  0
  189.9300  176.1750  138.5350 C   0  0  0  0  0  3  0  0  0  0  0  0
  191.3690  174.0540  135.8590 C   0  0  0  0  0  0  0  0  0  0  0  0
  193.3800  173.7110  137.1540 C   0  0  1  0  0  3  0  0  0  0  0  0
  191.5630  177.6570  139.4840 C   0  0  0  0  0  3  0  0  0  0  0  0
  189.0720  174.0430  136.9910 C   0  0  0  0  0  3  0  0  0  0  0  0
  192.3030  175.7390  138.1340 C   0  0  0  0  0  0  0  0  0  0  0  0
  192.5720  176.8840  138.9170 C   0  0  0  0  0  3  0  0  0  0  0  0
  190.4890  174.4830  136.9980 C   0  0  0  0  0  0  0  0  0  0  0  0
  190.6480  173.2960  134.7760 C   0  0  0  0  0  3  0  0  0  0  0  0
  190.2330  177.2800  139.3220 C   0  0  0  0  0  0  0  0  0  0  0  0
  196.6500  174.2400  138.7120 O   0  0  0  0  0  0  0  0  0  0  0  0
  187.4480  177.4730  141.6280 N   0  0  0  0  0  2  0  0  0  0  0  0
  184.9370  179.6160  143.2110 O   0  0  0  0  0  0  0  0  0  0  0  0
  185.4130  179.2310  144.4900 C   0  0  2  0  0  3  0  0  0  0  0  0
  185.6010  179.0310  142.1470 C   0  0  0  0  0  0  0  0  0  0  0  0
  186.4890  178.1060  142.4960 C   0  0  0  0  0  0  0  0  0  0  0  0
  186.5260  177.7950  144.2550 S   0  0  0  0  0  0  0  0  0  0  0  0
  183.1590  178.7490  144.8640 O   0  0  0  0  0  0  0  0  0  0  0  0
  184.2980  178.8810  145.3540 N   0  0  0  0  0  0  0  0  0  0  0  0
  184.5160  178.5450  146.6700 O   0  0  0  0  0  0  0  0  0  0  0  0
  185.3450  179.4260  140.8000 N   0  0  0  0  0  2  0  0  0  0  0  0
  184.3220  179.0340  138.6460 C   0  0  0  0  0  1  0  0  0  0  0  0
  184.0800  179.1600  140.1340 C   0  0  0  0  0  3  0  0  0  0  0  0
  183.4810  177.8630  140.6550 C   0  0  0  0  0  1  0  0  0  0  0  0
  189.7430  176.8500  141.9110 N   0  0  0  0  0  2  0  0  0  0  0  0
  191.2560  176.6910  143.6790 C   0  0  0  0  0  0  0  0  0  0  0  0
  189.9070  178.2080  145.1640 C   0  0  0  0  0  3  0  0  0  0  0  0
  190.3800  177.8220  143.9530 C   0  0  0  0  0  0  0  0  0  0  0  0
  190.8030  177.5290  142.6430 C   0  0  2  0  0  3  0  0  0  0  0  0
  190.3990  177.3180  146.1870 C   0  0  0  0  0  0  0  0  0  0  0  0
  191.2780  176.1770  145.9180 C   0  0  0  0  0  3  0  0  0  0  0  0
  190.0380  177.5590  147.4700 F   0  0  0  0  0  0  0  0  0  0  0  0
  191.7400  175.8270  144.6050 C   0  0  0  0  0  0  0  0  0  0  0  0
  192.5400  174.7700  144.3250 F   0  0  0  0  0  0  0  0  0  0  0  0
  1 23  1  6  0  0  0
  1 36  1  0  0  0  0
  3  2  1  6  0  0  0
  3  1  1  0  0  0  0
  4  8  1  0  0  0  0
  5 11  1  0  0  0  0
  5 22  2  0  0  0  0
  7  5  1  0  0  0  0
  8 16  2  0  0  0  0
  9 17  2  0  0  0  0
  9 11  1  0  0  0  0
 10 17  1  0  0  0  0
 10 12  1  0  0  0  0
 12 21  2  0  0  0  0
 13  6  2  0  0  0  0
 13 19  1  0  0  0  0
 14  6  1  6  0  0  0
 14  7  1  0  0  0  0
 14  9  1  0  0  0  0
 16 19  1  0  0  0  0
 17 18  1  0  0  0  0
 18 15  2  0  0  0  0
 19 10  2  0  0  0  0
 20  4  2  0  0  0  0
 20 13  1  0  0  0  0
 21 15  1  0  0  0  0
 21  3  1  0  0  0  0
 23 27  1  0  0  0  0
 24 25  1  0  0  0  0
 25 30  1  1  0  0  0
 26 27  2  0  0  0  0
 26 24  1  0  0  0  0
 27 28  1  0  0  0  0
 28 25  1  0  0  0  0
 29 30  2  0  0  0  0
 30 31  2  0  0  0  0
 32 26  1  0  0  0  0
 33 34  1  0  0  0  0
 34 35  1  0  0  0  0
 34 32  1  0  0  0  0
 37 39  2  0  0  0  0
 37 44  1  0  0  0  0
 38 41  2  0  0  0  0
 39 38  1  0  0  0  0
 40 36  1  6  0  0  0
 40 37  1  0  0  0  0
 40 39  1  0  0  0  0
 41 43  1  0  0  0  0
 42 41  1  0  0  0  0
 44 42  2  0  0  0  0
 45 44  1  0  0  0  0
M  END
>  <MODEL>
2

>  <REMARK>
 VINA RESULT:      -8.4      3.992      8.004
  Name = 
  9 active torsions:
  status: ('A' for Active; 'I' for Inactive)
    1  A    between atoms: C_10  and  N_41
    2  A    between atoms: C_12  and  C_18
    3  A    between atoms: C_12  and  C_40
    4  A    between atoms: C_13  and  N_44
    5  A    between atoms: C_14  and  N_33
    6  A    between atoms: C_18  and  N_25
    7  A    between atoms: C_18  and  N_41
    8  A    between atoms: C_19  and  N_44
    9  A    between atoms: N_25  and  C_26
                            x       y       z     vdW  Elec       q    Type
                         _______ _______ _______ _____ _____    ______ ____

>  <TORSDO>
F 9

$$$$
=
 OpenBabel10232409503D

 45 51  0  0  1  0  0  0  0  0999 V2000
  187.8100  176.5540  137.8230 C   0  0  1  0  0  3  0  0  0  0  0  0
  188.9950  178.7860  137.9810 C   0  0  0  0  0  1  0  0  0  0  0  0
  187.7220  178.0190  138.3010 C   0  0  2  0  0  3  0  0  0  0  0  0
  191.5060  176.6890  144.2480 N   0  0  0  0  0  0  0  0  0  0  0  0
  184.7790  178.5780  145.3390 C   0  0  0  0  0  0  0  0  0  0  0  0
  188.2960  177.5320  145.1450 N   0  0  0  0  0  0  0  0  0  0  0  0
  185.9460  177.7830  146.2360 S   0  0  0  0  0  0  0  0  0  0  0  0
  191.2330  176.0600  142.9930 C   0  0  0  0  0  3  0  0  0  0  0  0
  186.4610  178.4270  143.8320 C   0  0  0  0  0  0  0  0  0  0  0  0
  188.0990  177.7230  142.0760 C   0  0  0  0  0  0  0  0  0  0  0  0
  185.1860  178.8570  144.0860 N   0  0  0  0  0  2  0  0  0  0  0  0
  188.2530  177.5530  140.6860 C   0  0  0  0  0  3  0  0  0  0  0  0
  189.3470  177.8690  144.2120 C   0  0  0  0  0  0  0  0  0  0  0  0
  187.0520  177.8380  144.9700 C   0  0  0  0  0  0  0  0  0  0  0  0
  186.3340  178.9150  140.2140 C   0  0  0  0  0  3  0  0  0  0  0  0
  190.1160  176.3220  142.3220 C   0  0  0  0  0  3  0  0  0  0  0  0
  186.9390  178.4360  142.5490 C   0  0  0  0  0  0  0  0  0  0  0  0
  186.1040  179.0380  141.5800 C   0  0  0  0  0  2  0  0  0  0  0  0
  189.1010  177.2610  142.8610 C   0  0  0  0  0  0  0  0  0  0  0  0
  190.6810  177.5150  144.8140 C   0  0  0  0  0  3  0  0  0  0  0  0
  187.3950  178.1370  139.7610 C   0  0  0  0  0  0  0  0  0  0  0  0
  183.6350  178.8790  145.7690 O   0  0  0  0  0  0  0  0  0  0  0  0
  186.6930  176.1790  136.9510 N   0  0  0  0  0  2  0  0  0  0  0  0
  183.8960  173.9100  137.6120 O   0  0  0  0  0  0  0  0  0  0  0  0
  184.7960  172.8170  137.6670 C   0  0  2  0  0  3  0  0  0  0  0  0
  184.4900  175.1340  137.3550 C   0  0  0  0  0  0  0  0  0  0  0  0
  185.7870  175.0670  137.0730 C   0  0  0  0  0  0  0  0  0  0  0  0
  186.4060  173.3920  137.0110 S   0  0  0  0  0  0  0  0  0  0  0  0
  183.1410  171.2660  137.1070 O   0  0  0  0  0  0  0  0  0  0  0  0
  184.2850  171.7090  136.8770 N   0  0  0  0  0  0  0  0  0  0  0  0
  184.9850  171.2510  135.7850 O   0  0  0  0  0  0  0  0  0  0  0  0
  183.7470  176.3510  137.4160 N   0  0  0  0  0  2  0  0  0  0  0  0
  183.1510  178.5390  138.2520 C   0  0  0  0  0  1  0  0  0  0  0  0
  183.6870  177.1710  138.6160 C   0  0  0  0  0  3  0  0  0  0  0  0
  182.7650  176.5290  139.6390 C   0  0  0  0  0  1  0  0  0  0  0  0
  189.0770  176.2790  137.1510 N   0  0  0  0  0  2  0  0  0  0  0  0
  190.9640  176.0790  138.5060 C   0  0  0  0  0  0  0  0  0  0  0  0
  192.2700  174.8320  136.7550 C   0  0  0  0  0  3  0  0  0  0  0  0
  191.1190  175.1440  137.3990 C   0  0  0  0  0  0  0  0  0  0  0  0
  189.8600  175.3790  137.9850 C   0  0  2  0  0  3  0  0  0  0  0  0
  193.3670  175.5740  137.3260 C   0  0  0  0  0  0  0  0  0  0  0  0
  193.2180  176.5180  138.4380 C   0  0  0  0  0  3  0  0  0  0  0  0
  194.6050  175.3800  136.8150 F   0  0  0  0  0  0  0  0  0  0  0  0
  191.9620  176.8000  139.0730 C   0  0  0  0  0  0  0  0  0  0  0  0
  191.7930  177.6780  140.0900 F   0  0  0  0  0  0  0  0  0  0  0  0
  1 23  1  6  0  0  0
  1  3  1  0  0  0  0
  3  2  1  1  0  0  0
  3 21  1  0  0  0  0
  4 20  1  0  0  0  0
  5 22  2  0  0  0  0
  5  7  1  0  0  0  0
  8  4  2  0  0  0  0
  9 11  1  0  0  0  0
  9 14  1  0  0  0  0
 10 17  1  0  0  0  0
 10 19  1  0  0  0  0
 11  5  1  0  0  0  0
 12 10  2  0  0  0  0
 13 20  2  0  0  0  0
 13  6  1  0  0  0  0
 14  6  2  0  0  0  0
 14  7  1  0  0  0  0
 15 18  1  0  0  0  0
 16 19  2  0  0  0  0
 16  8  1  0  0  0  0
 17  9  2  0  0  0  0
 18 17  1  0  0  0  0
 19 13  1  0  0  0  0
 21 15  2  0  0  0  0
 21 12  1  0  0  0  0
 23 27  1  0  0  0  0
 24 25  1  0  0  0  0
 25 30  1  6  0  0  0
 26 32  1  0  0  0  0
 26 24  1  0  0  0  0
 27 26  2  0  0  0  0
 28 27  1  0  0  0  0
 28 25  1  0  0  0  0
 30 29  2  0  0  0  0
 31 30  2  0  0  0  0
 32 34  1  0  0  0  0
 33 34  1  0  0  0  0
 34 35  1  0  0  0  0
 36  1  1  0  0  0  0
 37 44  1  0  0  0  0
 38 41  2  0  0  0  0
 38 39  1  0  0  0  0
 39 40  1  0  0  0  0
 39 37  2  0  0  0  0
 40 36  1  6  0  0  0
 40 37  1  0  0  0  0
 41 42  1  0  0  0  0
 42 44  2  0  0  0  0
 43 41  1  0  0  0  0
 44 45  1  0  0  0  0
M  END
>  <MODEL>
3

>  <REMARK>
 VINA RESULT:      -8.4      1.762      3.153
  Name = 
  9 active torsions:
  status: ('A' for Active; 'I' for Inactive)
    1  A    between atoms: C_10  and  N_41
    2  A    between atoms: C_12  and  C_18
    3  A    between atoms: C_12  and  C_40
    4  A    between atoms: C_13  and  N_44
    5  A    between atoms: C_14  and  N_33
    6  A    between atoms: C_18  and  N_25
    7  A    between atoms: C_18  and  N_41
    8  A    between atoms: C_19  and  N_44
    9  A    between atoms: N_25  and  C_26
                            x       y       z     vdW  Elec       q    Type
                         _______ _______ _______ _____ _____    ______ ____

>  <TORSDO>
F 9

$$$$
=
 OpenBabel10232409503D

 45 51  0  0  1  0  0  0  0  0999 V2000
  187.7750  176.8500  137.8040 C   0  0  1  0  0  3  0  0  0  0  0  0
  189.2450  178.9080  137.9330 C   0  0  0  0  0  1  0  0  0  0  0  0
  188.0920  178.1510  138.5730 C   0  0  2  0  0  3  0  0  0  0  0  0
  184.0090  178.7440  144.4400 N   0  0  0  0  0  0  0  0  0  0  0  0
  190.7780  177.0960  145.6570 C   0  0  0  0  0  0  0  0  0  0  0  0
  187.2210  177.9820  145.4010 N   0  0  0  0  0  0  0  0  0  0  0  0
  189.5360  177.7470  146.5680 S   0  0  0  0  0  0  0  0  0  0  0  0
  184.2980  179.4990  143.2600 C   0  0  0  0  0  3  0  0  0  0  0  0
  189.1520  177.3010  144.0960 C   0  0  0  0  0  0  0  0  0  0  0  0
  187.5500  178.0810  142.3390 C   0  0  0  0  0  0  0  0  0  0  0  0
  190.4360  176.9130  144.3670 N   0  0  0  0  0  2  0  0  0  0  0  0
  187.4420  178.3700  140.9630 C   0  0  0  0  0  3  0  0  0  0  0  0
  186.2270  177.6800  144.3950 C   0  0  0  0  0  0  0  0  0  0  0  0
  188.4850  177.7540  145.2550 C   0  0  0  0  0  0  0  0  0  0  0  0
  189.4480  177.1530  140.4580 C   0  0  0  0  0  3  0  0  0  0  0  0
  185.4530  179.3530  142.6190 C   0  0  0  0  0  3  0  0  0  0  0  0
  188.7260  177.3860  142.7970 C   0  0  0  0  0  0  0  0  0  0  0  0
  189.6300  176.9160  141.8170 C   0  0  0  0  0  2  0  0  0  0  0  0
  186.4940  178.4200  143.1160 C   0  0  0  0  0  0  0  0  0  0  0  0
  184.8540  177.9120  144.9670 C   0  0  0  0  0  3  0  0  0  0  0  0
  188.3660  177.9150  140.0300 C   0  0  0  0  0  0  0  0  0  0  0  0
  191.9180  176.8130  146.1090 O   0  0  0  0  0  0  0  0  0  0  0  0
  186.4970  176.9180  137.0890 N   0  0  0  0  0  2  0  0  0  0  0  0
  183.0630  175.9040  137.8560 O   0  0  0  0  0  0  0  0  0  0  0  0
  182.7760  177.2170  138.3060 C   0  0  2  0  0  3  0  0  0  0  0  0
  184.3620  175.7170  137.4150 C   0  0  0  0  0  0  0  0  0  0  0  0
  185.1630  176.7590  137.6080 C   0  0  0  0  0  0  0  0  0  0  0  0
  184.3690  178.1050  138.4730 S   0  0  0  0  0  0  0  0  0  0  0  0
  181.3320  176.2000  139.8350 O   0  0  0  0  0  0  0  0  0  0  0  0
  182.0790  177.1670  139.5810 N   0  0  0  0  0  0  0  0  0  0  0  0
  182.3560  178.0890  140.5630 O   0  0  0  0  0  0  0  0  0  0  0  0
  184.7690  174.4990  136.7920 N   0  0  0  0  0  2  0  0  0  0  0  0
  184.2400  172.1630  137.1200 C   0  0  0  0  0  1  0  0  0  0  0  0
  185.1260  173.3120  137.5520 C   0  0  0  0  0  3  0  0  0  0  0  0
  186.5790  172.9480  137.2940 C   0  0  0  0  0  1  0  0  0  0  0  0
  188.8440  176.4950  136.8760 N   0  0  0  0  0  2  0  0  0  0  0  0
  190.8640  175.6300  137.6590 C   0  0  0  0  0  0  0  0  0  0  0  0
  191.3460  174.4160  135.5100 C   0  0  0  0  0  3  0  0  0  0  0  0
  190.5020  174.8820  136.4630 C   0  0  0  0  0  0  0  0  0  0  0  0
  189.5220  175.3090  137.3800 C   0  0  2  0  0  3  0  0  0  0  0  0
  192.7040  174.7710  135.8430 C   0  0  0  0  0  0  0  0  0  0  0  0
  193.0750  175.5260  137.0430 C   0  0  0  0  0  3  0  0  0  0  0  0
  193.6920  174.3750  135.0070 F   0  0  0  0  0  0  0  0  0  0  0  0
  192.1220  175.9900  138.0120 C   0  0  0  0  0  0  0  0  0  0  0  0
  192.4350  176.7020  139.1210 F   0  0  0  0  0  0  0  0  0  0  0  0
  1 36  1  6  0  0  0
  1  3  1  0  0  0  0
  3  2  1  6  0  0  0
  3 21  1  0  0  0  0
  4 20  1  0  0  0  0
  5 22  2  0  0  0  0
  5  7  1  0  0  0  0
  8  4  2  0  0  0  0
  9 11  1  0  0  0  0
  9 14  1  0  0  0  0
 10 17  1  0  0  0  0
 10 19  1  0  0  0  0
 11  5  1  0  0  0  0
 12 10  2  0  0  0  0
 13 20  2  0  0  0  0
 13  6  1  0  0  0  0
 14  6  2  0  0  0  0
 14  7  1  0  0  0  0
 15 18  1  0  0  0  0
 16 19  2  0  0  0  0
 16  8  1  0  0  0  0
 17  9  2  0  0  0  0
 18 17  1  0  0  0  0
 19 13  1  0  0  0  0
 21 15  2  0  0  0  0
 21 12  1  0  0  0  0
 23 27  1  0  0  0  0
 23  1  1  0  0  0  0
 24 25  1  0  0  0  0
 25 28  1  0  0  0  0
 25 30  1  1  0  0  0
 26 27  2  0  0  0  0
 26 24  1  0  0  0  0
 27 28  1  0  0  0  0
 30 29  2  0  0  0  0
 30 31  2  0  0  0  0
 32 26  1  0  0  0  0
 32 34  1  0  0  0  0
 33 34  1  0  0  0  0
 35 34  1  0  0  0  0
 37 44  1  0  0  0  0
 38 41  2  0  0  0  0
 38 39  1  0  0  0  0
 39 40  1  0  0  0  0
 39 37  2  0  0  0  0
 40 36  1  6  0  0  0
 40 37  1  0  0  0  0
 41 42  1  0  0  0  0
 42 44  2  0  0  0  0
 43 41  1  0  0  0  0
 44 45  1  0  0  0  0
M  END
>  <MODEL>
4

>  <REMARK>
 VINA RESULT:      -8.2      1.377      2.550
  Name = 
  9 active torsions:
  status: ('A' for Active; 'I' for Inactive)
    1  A    between atoms: C_10  and  N_41
    2  A    between atoms: C_12  and  C_18
    3  A    between atoms: C_12  and  C_40
    4  A    between atoms: C_13  and  N_44
    5  A    between atoms: C_14  and  N_33
    6  A    between atoms: C_18  and  N_25
    7  A    between atoms: C_18  and  N_41
    8  A    between atoms: C_19  and  N_44
    9  A    between atoms: N_25  and  C_26
                            x       y       z     vdW  Elec       q    Type
                         _______ _______ _______ _____ _____    ______ ____

>  <TORSDO>
F 9

$$$$
=
 OpenBabel10232409503D

 45 51  0  0  1  0  0  0  0  0999 V2000
  187.7390  177.3410  142.1820 C   0  0  1  0  0  3  0  0  0  0  0  0
  187.6960  179.8520  141.8470 C   0  0  0  0  0  1  0  0  0  0  0  0
  187.5720  178.4950  141.1700 C   0  0  2  0  0  3  0  0  0  0  0  0
  180.7400  179.7300  142.9690 N   0  0  0  0  0  0  0  0  0  0  0  0
  181.7120  177.2830  136.4060 C   0  0  0  0  0  0  0  0  0  0  0  0
  180.8350  178.5190  139.7530 N   0  0  0  0  0  0  0  0  0  0  0  0
  180.4210  177.3430  137.4680 S   0  0  0  0  0  0  0  0  0  0  0  0
  181.8770  179.0470  143.5020 C   0  0  0  0  0  3  0  0  0  0  0  0
  182.7030  178.1400  138.2510 C   0  0  0  0  0  0  0  0  0  0  0  0
  183.8350  178.5230  140.4500 C   0  0  0  0  0  0  0  0  0  0  0  0
  182.8560  177.7350  136.9520 N   0  0  0  0  0  2  0  0  0  0  0  0
  185.0870  178.4610  141.0960 C   0  0  0  0  0  3  0  0  0  0  0  0
  181.5290  179.4030  140.6620 C   0  0  2  0  0  3  0  0  0  0  0  0
  181.3640  178.0280  138.6810 C   0  0  0  0  0  0  0  0  0  0  0  0
  186.2670  178.4170  139.0070 C   0  0  0  0  0  3  0  0  0  0  0  0
  182.8380  178.5900  142.7060 C   0  0  0  0  0  3  0  0  0  0  0  0
  183.8080  178.4160  139.0120 C   0  0  0  0  0  0  0  0  0  0  0  0
  185.0480  178.3960  138.3350 C   0  0  0  0  0  3  0  0  0  0  0  0
  182.7560  178.7520  141.2340 C   0  0  0  0  0  0  0  0  0  0  0  0
  180.5620  179.9130  141.6970 C   0  0  0  0  0  3  0  0  0  0  0  0
  186.2880  178.4130  140.3980 C   0  0  0  0  0  0  0  0  0  0  0  0
  181.6410  176.8540  135.2250 O   0  0  0  0  0  0  0  0  0  0  0  0
  188.7990  176.4040  141.7960 N   0  0  0  0  0  2  0  0  0  0  0  0
  192.3450  177.3140  141.7280 O   0  0  0  0  0  0  0  0  0  0  0  0
  192.2350  177.6420  140.3540 C   0  0  2  0  0  3  0  0  0  0  0  0
  191.1720  176.8610  142.3090 C   0  0  0  0  0  0  0  0  0  0  0  0
  190.1700  176.6840  141.4560 C   0  0  0  0  0  0  0  0  0  0  0  0
  190.6300  176.9920  139.7570 S   0  0  0  0  0  0  0  0  0  0  0  0
  193.2380  176.9140  138.3740 O   0  0  0  0  0  0  0  0  0  0  0  0
  193.3360  177.0530  139.6110 N   0  0  0  0  0  0  0  0  0  0  0  0
  194.5360  176.7940  140.2310 O   0  0  0  0  0  0  0  0  0  0  0  0
  191.0760  176.6340  143.7150 N   0  0  0  0  0  2  0  0  0  0  0  0
  190.9010  178.8400  144.6870 C   0  0  0  0  0  1  0  0  0  0  0  0
  191.6650  177.5330  144.6950 C   0  0  0  0  0  3  0  0  0  0  0  0
  191.5840  176.9150  146.0810 C   0  0  0  0  0  1  0  0  0  0  0  0
  187.9840  177.8370  143.5330 N   0  0  0  0  0  2  0  0  0  0  0  0
  186.4890  177.8070  145.3230 C   0  0  0  0  0  0  0  0  0  0  0  0
  188.2940  177.3430  147.0120 C   0  0  0  0  0  3  0  0  0  0  0  0
  187.7360  177.2110  145.7840 C   0  0  0  0  0  0  0  0  0  0  0  0
  187.2640  176.9930  144.4750 C   0  0  2  0  0  3  0  0  0  0  0  0
  187.4620  178.1840  147.8390 C   0  0  0  0  0  0  0  0  0  0  0  0
  186.2080  178.7880  147.3800 C   0  0  0  0  0  3  0  0  0  0  0  0
  187.8570  178.4190  149.1120 F   0  0  0  0  0  0  0  0  0  0  0  0
  185.6780  178.6040  146.0600 C   0  0  0  0  0  0  0  0  0  0  0  0
  184.5300  179.1630  145.6050 F   0  0  0  0  0  0  0  0  0  0  0  0
  1 23  1  6  0  0  0
  1 36  1  0  0  0  0
  3  2  1  1  0  0  0
  3  1  1  0  0  0  0
  4  8  1  0  0  0  0
  5 11  1  0  0  0  0
  5  7  1  0  0  0  0
  6 13  1  0  0  0  0
  7 14  1  0  0  0  0
  9 14  1  0  0  0  0
  9 17  2  0  0  0  0
 10 12  1  0  0  0  0
 10 19  2  0  0  0  0
 11  9  1  0  0  0  0
 13 19  1  0  0  0  0
 13 20  1  1  0  0  0
 14  6  2  0  0  0  0
 15 21  1  0  0  0  0
 16  8  2  0  0  0  0
 17 10  1  0  0  0  0
 18 15  2  0  0  0  0
 18 17  1  0  0  0  0
 19 16  1  0  0  0  0
 20  4  2  0  0  0  0
 21 12  2  0  0  0  0
 21  3  1  0  0  0  0
 22  5  2  0  0  0  0
 24 26  1  0  0  0  0
 25 30  1  6  0  0  0
 25 24  1  0  0  0  0
 26 32  1  0  0  0  0
 27 23  1  0  0  0  0
 27 26  2  0  0  0  0
 28 25  1  0  0  0  0
 28 27  1  0  0  0  0
 29 30  2  0  0  0  0
 30 31  2  0  0  0  0
 32 34  1  0  0  0  0
 33 34  1  0  0  0  0
 34 35  1  0  0  0  0
 37 39  2  0  0  0  0
 37 44  1  0  0  0  0
 38 41  2  0  0  0  0
 39 38  1  0  0  0  0
 40 36  1  6  0  0  0
 40 37  1  0  0  0  0
 40 39  1  0  0  0  0
 41 43  1  0  0  0  0
 42 41  1  0  0  0  0
 44 42  2  0  0  0  0
 45 44  1  0  0  0  0
M  END
>  <MODEL>
5

>  <REMARK>
 VINA RESULT:      -8.0      4.225      8.903
  Name = 
  9 active torsions:
  status: ('A' for Active; 'I' for Inactive)
    1  A    between atoms: C_10  and  N_41
    2  A    between atoms: C_12  and  C_18
    3  A    between atoms: C_12  and  C_40
    4  A    between atoms: C_13  and  N_44
    5  A    between atoms: C_14  and  N_33
    6  A    between atoms: C_18  and  N_25
    7  A    between atoms: C_18  and  N_41
    8  A    between atoms: C_19  and  N_44
    9  A    between atoms: N_25  and  C_26
                            x       y       z     vdW  Elec       q    Type
                         _______ _______ _______ _____ _____    ______ ____

>  <TORSDO>
F 9

$$$$
=
 OpenBabel10232409503D

 45 51  0  0  1  0  0  0  0  0999 V2000
  188.0620  177.5710  142.6190 C   0  0  1  0  0  3  0  0  0  0  0  0
  186.9310  178.3400  140.4870 C   0  0  0  0  0  1  0  0  0  0  0  0
  188.2330  178.3060  141.2720 C   0  0  2  0  0  3  0  0  0  0  0  0
  188.5520  176.3200  134.3880 N   0  0  0  0  0  0  0  0  0  0  0  0
  194.3990  175.0300  138.1500 C   0  0  0  0  0  0  0  0  0  0  0  0
  191.5260  175.5120  135.9110 N   0  0  0  0  0  0  0  0  0  0  0  0
  193.7590  174.4460  136.7190 S   0  0  0  0  0  0  0  0  0  0  0  0
  187.6740  176.1600  135.5050 C   0  0  0  0  0  3  0  0  0  0  0  0
  192.4020  176.0930  138.0990 C   0  0  0  0  0  0  0  0  0  0  0  0
  189.9980  176.7640  138.2740 C   0  0  0  0  0  0  0  0  0  0  0  0
  193.5750  175.8920  138.7750 N   0  0  0  0  0  2  0  0  0  0  0  0
  189.0160  177.2040  139.1850 C   0  0  0  0  0  3  0  0  0  0  0  0
  190.5110  176.5390  135.8610 C   0  0  0  0  0  0  0  0  0  0  0  0
  192.3700  175.3790  136.8810 C   0  0  1  0  0  3  0  0  0  0  0  0
  190.6710  177.8310  140.8070 C   0  0  0  0  0  3  0  0  0  0  0  0
  188.1310  176.2250  136.7520 C   0  0  0  0  0  3  0  0  0  0  0  0
  191.3730  176.7620  138.7050 C   0  0  0  0  0  0  0  0  0  0  0  0
  191.6620  177.3330  139.9660 C   0  0  0  0  0  3  0  0  0  0  0  0
  189.5720  176.4440  137.0290 C   0  0  0  0  0  0  0  0  0  0  0  0
  189.8300  176.5010  134.5180 C   0  0  0  0  0  3  0  0  0  0  0  0
  189.3350  177.7330  140.4300 C   0  0  0  0  0  0  0  0  0  0  0  0
  195.5230  174.7010  138.6120 O   0  0  0  0  0  0  0  0  0  0  0  0
  188.8340  178.1900  143.7000 N   0  0  0  0  0  2  0  0  0  0  0  0
  190.0960  176.8450  146.8630 O   0  0  0  0  0  0  0  0  0  0  0  0
  191.4210  176.9120  146.3630 C   0  0  2  0  0  3  0  0  0  0  0  0
  189.1230  177.2740  145.9770 C   0  0  0  0  0  0  0  0  0  0  0  0
  189.5740  177.5540  144.7590 C   0  0  0  0  0  0  0  0  0  0  0  0
  191.3170  177.2150  144.5600 S   0  0  0  0  0  0  0  0  0  0  0  0
  192.3560  174.8770  145.7000 O   0  0  0  0  0  0  0  0  0  0  0  0
  192.1210  175.6680  146.6360 N   0  0  0  0  0  0  0  0  0  0  0  0
  192.6590  175.4300  147.8790 O   0  0  0  0  0  0  0  0  0  0  0  0
  187.7600  177.4110  146.3760 N   0  0  0  0  0  2  0  0  0  0  0  0
  188.6090  178.0400  148.5500 C   0  0  0  0  0  1  0  0  0  0  0  0
  187.3750  177.9230  147.6820 C   0  0  0  0  0  3  0  0  0  0  0  0
  186.7350  179.2940  147.5350 C   0  0  0  0  0  1  0  0  0  0  0  0
  186.6580  177.4710  143.0060 N   0  0  0  0  0  2  0  0  0  0  0  0
  185.0590  178.7300  144.1460 C   0  0  0  0  0  0  0  0  0  0  0  0
  183.6700  179.1040  142.0840 C   0  0  0  0  0  3  0  0  0  0  0  0
  184.8570  178.9520  142.7210 C   0  0  0  0  0  0  0  0  0  0  0  0
  186.1490  178.8120  143.2600 C   0  0  2  0  0  3  0  0  0  0  0  0
  182.5880  179.0120  143.0340 C   0  0  0  0  0  0  0  0  0  0  0  0
  182.7850  178.7860  144.4690 C   0  0  0  0  0  3  0  0  0  0  0  0
  181.3220  179.1550  142.5770 F   0  0  0  0  0  0  0  0  0  0  0  0
  184.0770  178.6330  145.0760 C   0  0  0  0  0  0  0  0  0  0  0  0
  184.2870  178.4070  146.3950 F   0  0  0  0  0  0  0  0  0  0  0  0
  1 36  1  1  0  0  0
  1 23  1  0  0  0  0
  3  2  1  6  0  0  0
  3  1  1  0  0  0  0
  4 20  2  0  0  0  0
  4  8  1  0  0  0  0
  5 22  2  0  0  0  0
  5 11  1  0  0  0  0
  7 14  1  0  0  0  0
  7  5  1  0  0  0  0
  8 16  2  0  0  0  0
  9 17  2  0  0  0  0
  9 11  1  0  0  0  0
 10 17  1  0  0  0  0
 10 12  1  0  0  0  0
 12 21  2  0  0  0  0
 13  6  2  0  0  0  0
 13 19  1  0  0  0  0
 14  6  1  6  0  0  0
 14  9  1  0  0  0  0
 16 19  1  0  0  0  0
 17 18  1  0  0  0  0
 18 15  2  0  0  0  0
 19 10  2  0  0  0  0
 20 13  1  0  0  0  0
 21 15  1  0  0  0  0
 21  3  1  0  0  0  0
 23 27  1  0  0  0  0
 25 30  1  6  0  0  0
 25 24  1  0  0  0  0
 26 32  1  0  0  0  0
 26 24  1  0  0  0  0
 27 26  2  0  0  0  0
 28 27  1  0  0  0  0
 28 25  1  0  0  0  0
 29 30  2  0  0  0  0
 30 31  2  0  0  0  0
 32 34  1  0  0  0  0
 34 33  1  0  0  0  0
 35 34  1  0  0  0  0
 37 44  1  0  0  0  0
 38 39  1  0  0  0  0
 38 41  2  0  0  0  0
 39 40  1  0  0  0  0
 39 37  2  0  0  0  0
 40 36  1  6  0  0  0
 40 37  1  0  0  0  0
 41 42  1  0  0  0  0
 42 44  2  0  0  0  0
 43 41  1  0  0  0  0
 44 45  1  0  0  0  0
M  END
>  <MODEL>
6

>  <REMARK>
 VINA RESULT:      -7.9      4.932      9.385
  Name = 
  9 active torsions:
  status: ('A' for Active; 'I' for Inactive)
    1  A    between atoms: C_10  and  N_41
    2  A    between atoms: C_12  and  C_18
    3  A    between atoms: C_12  and  C_40
    4  A    between atoms: C_13  and  N_44
    5  A    between atoms: C_14  and  N_33
    6  A    between atoms: C_18  and  N_25
    7  A    between atoms: C_18  and  N_41
    8  A    between atoms: C_19  and  N_44
    9  A    between atoms: N_25  and  C_26
                            x       y       z     vdW  Elec       q    Type
                         _______ _______ _______ _____ _____    ______ ____

>  <TORSDO>
F 9

$$$$
=
 OpenBabel10232409503D

 45 51  0  0  1  0  0  0  0  0999 V2000
  187.8540  177.3010  142.0080 C   0  0  1  0  0  3  0  0  0  0  0  0
  188.3120  179.7290  141.4520 C   0  0  0  0  0  1  0  0  0  0  0  0
  187.8110  178.3960  140.9200 C   0  0  2  0  0  3  0  0  0  0  0  0
  184.7040  175.4660  135.1580 N   0  0  0  0  0  0  0  0  0  0  0  0
  180.8370  180.3690  138.4770 C   0  0  0  0  0  0  0  0  0  0  0  0
  182.5760  177.8170  136.4860 N   0  0  0  0  0  0  0  0  0  0  0  0
  180.8340  179.6960  136.9460 S   0  0  0  0  0  0  0  0  0  0  0  0
  185.9530  176.0680  135.5070 C   0  0  0  0  0  3  0  0  0  0  0  0
  182.6690  179.0440  138.5790 C   0  0  0  0  0  0  0  0  0  0  0  0
  184.9550  178.0370  138.4320 C   0  0  2  0  0  3  0  0  0  0  0  0
  181.8620  179.9360  139.2340 N   0  0  0  0  0  2  0  0  0  0  0  0
  186.2290  178.0480  139.0330 C   0  0  0  0  0  3  0  0  0  0  0  0
  183.5090  176.7790  136.8620 C   0  0  0  0  0  0  0  0  0  0  0  0
  182.1920  178.7620  137.2810 C   0  0  0  0  0  0  0  0  0  0  0  0
  185.3820  179.0840  141.0250 C   0  0  0  0  0  3  0  0  0  0  0  0
  186.0380  176.9460  136.5010 C   0  0  0  0  0  3  0  0  0  0  0  0
  183.8690  178.6810  139.1280 C   0  0  0  0  0  0  0  0  0  0  0  0
  184.1250  179.1620  140.4330 C   0  0  0  0  0  3  0  0  0  0  0  0
  184.8360  177.3510  137.2700 C   0  0  0  0  0  0  0  0  0  0  0  0
  183.5910  175.7590  135.7560 C   0  0  0  0  0  3  0  0  0  0  0  0
  186.4510  178.5560  140.3080 C   0  0  0  0  0  0  0  0  0  0  0  0
  179.9870  181.2010  138.8890 O   0  0  0  0  0  0  0  0  0  0  0  0
  188.9550  176.3530  141.8080 N   0  0  0  0  0  2  0  0  0  0  0  0
  192.5080  177.2360  141.7870 O   0  0  0  0  0  0  0  0  0  0  0  0
  192.4160  177.5750  140.4140 C   0  0  2  0  0  3  0  0  0  0  0  0
  191.3260  176.7880  142.3510 C   0  0  0  0  0  0  0  0  0  0  0  0
  190.3320  176.6240  141.4850 C   0  0  0  0  0  0  0  0  0  0  0  0
  190.8130  176.9420  139.7950 S   0  0  0  0  0  0  0  0  0  0  0  0
  193.4630  176.9120  138.4340 O   0  0  0  0  0  0  0  0  0  0  0  0
  193.5210  176.9840  139.6780 N   0  0  0  0  0  0  0  0  0  0  0  0
  194.6880  176.6480  140.3250 O   0  0  0  0  0  0  0  0  0  0  0  0
  191.2130  176.5500  143.7540 N   0  0  0  0  0  2  0  0  0  0  0  0
  190.8940  178.7780  144.6360 C   0  0  0  0  0  1  0  0  0  0  0  0
  191.6920  177.4970  144.7490 C   0  0  0  0  0  3  0  0  0  0  0  0
  191.5150  176.9180  146.1430 C   0  0  0  0  0  1  0  0  0  0  0  0
  187.9310  177.8730  143.3490 N   0  0  0  0  0  2  0  0  0  0  0  0
  186.3790  177.8150  145.0890 C   0  0  0  0  0  0  0  0  0  0  0  0
  188.1320  177.3630  146.8340 C   0  0  0  0  0  3  0  0  0  0  0  0
  187.6170  177.2310  145.5870 C   0  0  0  0  0  0  0  0  0  0  0  0
  187.1900  177.0150  144.2630 C   0  0  2  0  0  3  0  0  0  0  0  0
  187.2650  178.1900  147.6370 C   0  0  0  0  0  0  0  0  0  0  0  0
  186.0190  178.7820  147.1420 C   0  0  0  0  0  3  0  0  0  0  0  0
  187.6150  178.4210  148.9250 F   0  0  0  0  0  0  0  0  0  0  0  0
  185.5350  178.6000  145.8030 C   0  0  0  0  0  0  0  0  0  0  0  0
  184.3960  179.1480  145.3140 F   0  0  0  0  0  0  0  0  0  0  0  0
  1 23  1  6  0  0  0
  1 36  1  0  0  0  0
  3  2  1  1  0  0  0
  3  1  1  0  0  0  0
  4  8  2  0  0  0  0
  4 20  1  0  0  0  0
  5 22  2  0  0  0  0
  5 11  1  0  0  0  0
  6 13  1  0  0  0  0
  6 14  2  0  0  0  0
  7 14  1  0  0  0  0
  7  5  1  0  0  0  0
  8 16  1  0  0  0  0
  9 17  2  0  0  0  0
  9 11  1  0  0  0  0
 10 12  1  1  0  0  0
 10 17  1  0  0  0  0
 12 21  2  0  0  0  0
 13 19  1  0  0  0  0
 14  9  1  0  0  0  0
 16 19  2  0  0  0  0
 17 18  1  0  0  0  0
 18 15  2  0  0  0  0
 19 10  1  0  0  0  0
 20 13  2  0  0  0  0
 21  3  1  0  0  0  0
 21 15  1  0  0  0  0
 24 26  1  0  0  0  0
 25 30  1  6  0  0  0
 25 24  1  0  0  0  0
 26 32  1  0  0  0  0
 27 23  1  0  0  0  0
 27 26  2  0  0  0  0
 28 25  1  0  0  0  0
 28 27  1  0  0  0  0
 29 30  2  0  0  0  0
 30 31  2  0  0  0  0
 32 34  1  0  0  0  0
 33 34  1  0  0  0  0
 34 35  1  0  0  0  0
 37 39  2  0  0  0  0
 37 44  1  0  0  0  0
 38 41  2  0  0  0  0
 39 38  1  0  0  0  0
 40 36  1  6  0  0  0
 40 37  1  0  0  0  0
 40 39  1  0  0  0  0
 41 43  1  0  0  0  0
 42 41  1  0  0  0  0
 44 42  2  0  0  0  0
 45 44  1  0  0  0  0
M  END
>  <MODEL>
7

>  <REMARK>
 VINA RESULT:      -7.7      4.578      9.302
  Name = 
  9 active torsions:
  status: ('A' for Active; 'I' for Inactive)
    1  A    between atoms: C_10  and  N_41
    2  A    between atoms: C_12  and  C_18
    3  A    between atoms: C_12  and  C_40
    4  A    between atoms: C_13  and  N_44
    5  A    between atoms: C_14  and  N_33
    6  A    between atoms: C_18  and  N_25
    7  A    between atoms: C_18  and  N_41
    8  A    between atoms: C_19  and  N_44
    9  A    between atoms: N_25  and  C_26
                            x       y       z     vdW  Elec       q    Type
                         _______ _______ _______ _____ _____    ______ ____

>  <TORSDO>
F 9

$$$$
=
 OpenBabel10232409503D

 45 51  0  0  1  0  0  0  0  0999 V2000
  191.4540  175.6490  136.5980 C   0  0  1  0  0  3  0  0  0  0  0  0
  192.9130  175.9630  138.6450 C   0  0  0  0  0  1  0  0  0  0  0  0
  191.8690  176.6010  137.7410 C   0  0  2  0  0  3  0  0  0  0  0  0
  190.7570  177.1420  144.8060 N   0  0  0  0  0  0  0  0  0  0  0  0
  185.2050  178.8290  140.7620 C   0  0  0  0  0  0  0  0  0  0  0  0
  187.8590  177.9910  143.1620 N   0  0  0  0  0  0  0  0  0  0  0  0
  185.4130  178.3760  142.3590 S   0  0  0  0  0  0  0  0  0  0  0  0
  191.2730  176.1850  143.8760 C   0  0  0  0  0  3  0  0  0  0  0  0
  187.4240  178.3880  140.8070 C   0  0  0  0  0  0  0  0  0  0  0  0
  189.6990  177.3460  140.7770 C   0  0  0  0  0  0  0  0  0  0  0  0
  186.3510  178.7900  140.0570 N   0  0  0  0  0  2  0  0  0  0  0  0
  190.6850  176.8210  139.9160 C   0  0  0  0  0  3  0  0  0  0  0  0
  189.2960  178.1330  143.0910 C   0  0  0  0  0  0  0  0  0  0  0  0
  187.0680  178.1610  142.1530 C   0  0  0  0  0  0  0  0  0  0  0  0
  189.7080  177.8850  137.9990 C   0  0  0  0  0  3  0  0  0  0  0  0
  190.8900  176.1890  142.6040 C   0  0  0  0  0  3  0  0  0  0  0  0
  188.6090  178.0850  140.1910 C   0  0  0  0  0  0  0  0  0  0  0  0
  188.6740  178.3540  138.8050 C   0  0  0  0  0  2  0  0  0  0  0  0
  189.8970  177.1720  142.1050 C   0  0  0  0  0  0  0  0  0  0  0  0
  189.8750  178.0350  144.4780 C   0  0  0  0  0  3  0  0  0  0  0  0
  190.7020  177.0830  138.5510 C   0  0  0  0  0  0  0  0  0  0  0  0
  184.1020  179.1620  140.2570 O   0  0  0  0  0  0  0  0  0  0  0  0
  192.5780  175.2950  135.7250 N   0  0  0  0  0  2  0  0  0  0  0  0
  195.9540  173.9480  136.1670 O   0  0  0  0  0  0  0  0  0  0  0  0
  195.4310  172.6310  136.1470 C   0  0  2  0  0  3  0  0  0  0  0  0
  195.0060  174.9480  136.0310 C   0  0  0  0  0  0  0  0  0  0  0  0
  193.7490  174.5160  136.0340 C   0  0  0  0  0  0  0  0  0  0  0  0
  193.6110  172.7560  136.3060 S   0  0  0  0  0  0  0  0  0  0  0  0
  197.1160  171.3300  137.1090 O   0  0  0  0  0  0  0  0  0  0  0  0
  195.9910  171.8540  137.2400 N   0  0  0  0  0  0  0  0  0  0  0  0
  195.3650  171.8230  138.4640 O   0  0  0  0  0  0  0  0  0  0  0  0
  195.3820  176.3160  135.8810 N   0  0  0  0  0  2  0  0  0  0  0  0
  196.0090  178.3580  134.7490 C   0  0  0  0  0  1  0  0  0  0  0  0
  195.8980  176.8530  134.6320 C   0  0  0  0  0  3  0  0  0  0  0  0
  197.2730  176.2710  134.3460 C   0  0  0  0  0  1  0  0  0  0  0  0
  190.8210  174.4360  137.1060 N   0  0  0  0  0  2  0  0  0  0  0  0
  188.6990  174.6400  136.1600 C   0  0  0  0  0  0  0  0  0  0  0  0
  187.8300  172.5740  137.3010 C   0  0  0  0  0  3  0  0  0  0  0  0
  188.8100  173.2910  136.6980 C   0  0  0  0  0  0  0  0  0  0  0  0
  189.9100  173.9270  136.0910 C   0  0  2  0  0  3  0  0  0  0  0  0
  186.6140  173.3490  137.3460 C   0  0  0  0  0  0  0  0  0  0  0  0
  186.4960  174.7070  136.8090 C   0  0  0  0  0  3  0  0  0  0  0  0
  185.5180  172.7840  137.9050 F   0  0  0  0  0  0  0  0  0  0  0  0
  187.5810  175.4070  136.1820 C   0  0  0  0  0  0  0  0  0  0  0  0
  187.5050  176.6670  135.6910 F   0  0  0  0  0  0  0  0  0  0  0  0
  1 23  1  1  0  0  0
  1 36  1  0  0  0  0
  1  3  1  0  0  0  0
  3 21  1  0  0  0  0
  3  2  1  1  0  0  0
  5  7  1  0  0  0  0
  8  4  2  0  0  0  0
  9 14  1  0  0  0  0
 10 19  1  0  0  0  0
 11  5  1  0  0  0  0
 11  9  1  0  0  0  0
 12 10  2  0  0  0  0
 13  6  1  0  0  0  0
 13 20  2  0  0  0  0
 14  7  1  0  0  0  0
 14  6  2  0  0  0  0
 15 21  2  0  0  0  0
 15 18  1  0  0  0  0
 16  8  1  0  0  0  0
 17 10  1  0  0  0  0
 17  9  2  0  0  0  0
 18 17  1  0  0  0  0
 19 16  2  0  0  0  0
 19 13  1  0  0  0  0
 20  4  1  0  0  0  0
 21 12  1  0  0  0  0
 22  5  2  0  0  0  0
 23 27  1  0  0  0  0
 25 24  1  0  0  0  0
 25 28  1  0  0  0  0
 25 30  1  1  0  0  0
 26 27  2  0  0  0  0
 26 24  1  0  0  0  0
 27 28  1  0  0  0  0
 29 30  2  0  0  0  0
 30 31  2  0  0  0  0
 32 26  1  0  0  0  0
 34 33  1  0  0  0  0
 34 32  1  0  0  0  0
 35 34  1  0  0  0  0
 37 44  2  0  0  0  0
 37 39  1  0  0  0  0
 38 41  1  0  0  0  0
 39 38  2  0  0  0  0
 40 37  1  0  0  0  0
 40 39  1  0  0  0  0
 40 36  1  1  0  0  0
 41 43  1  0  0  0  0
 42 41  2  0  0  0  0
 44 42  1  0  0  0  0
 45 44  1  0  0  0  0
M  END
>  <MODEL>
8

>  <REMARK>
 VINA RESULT:      -7.6      4.405      7.707
  Name = 
  9 active torsions:
  status: ('A' for Active; 'I' for Inactive)
    1  A    between atoms: C_10  and  N_41
    2  A    between atoms: C_12  and  C_18
    3  A    between atoms: C_12  and  C_40
    4  A    between atoms: C_13  and  N_44
    5  A    between atoms: C_14  and  N_33
    6  A    between atoms: C_18  and  N_25
    7  A    between atoms: C_18  and  N_41
    8  A    between atoms: C_19  and  N_44
    9  A    between atoms: N_25  and  C_26
                            x       y       z     vdW  Elec       q    Type
                         _______ _______ _______ _____ _____    ______ ____

>  <TORSDO>
F 9

$$$$
=
 OpenBabel10232409503D

 45 51  0  0  1  0  0  0  0  0999 V2000
  189.8680  176.2220  137.8720 C   0  0  1  0  0  3  0  0  0  0  0  0
  191.9130  176.9220  139.1920 C   0  0  0  0  0  1  0  0  0  0  0  0
  190.4820  177.2760  138.8180 C   0  0  2  0  0  3  0  0  0  0  0  0
  191.8180  176.2510  145.7900 N   0  0  0  0  0  0  0  0  0  0  0  0
  185.2470  178.3860  144.2820 C   0  0  0  0  0  0  0  0  0  0  0  0
  188.5450  177.2370  145.4240 N   0  0  0  0  0  0  0  0  0  0  0  0
  185.9750  177.6230  145.5800 S   0  0  0  0  0  0  0  0  0  0  0  0
  191.9820  175.5460  144.5560 C   0  0  0  0  0  3  0  0  0  0  0  0
  187.3470  178.0900  143.4930 C   0  0  0  0  0  0  0  0  0  0  0  0
  189.4690  177.2260  142.4850 C   0  0  0  0  0  0  0  0  0  0  0  0
  186.0880  178.5690  143.2470 N   0  0  0  0  0  2  0  0  0  0  0  0
  190.1020  176.9590  141.2540 C   0  0  0  0  0  3  0  0  0  0  0  0
  189.8750  177.4830  144.9160 C   0  0  0  0  0  0  0  0  0  0  0  0
  187.4620  177.5630  144.7970 C   0  0  0  0  0  0  0  0  0  0  0  0
  188.5470  178.3350  140.0510 C   0  0  0  0  0  3  0  0  0  0  0  0
  191.1930  175.7920  143.5150 C   0  0  0  0  0  3  0  0  0  0  0  0
  188.2520  177.9990  142.4690 C   0  0  0  0  0  0  0  0  0  0  0  0
  187.8500  178.5570  141.2340 C   0  0  0  0  0  2  0  0  0  0  0  0
  190.1000  176.7910  143.6010 C   0  0  0  0  0  0  0  0  0  0  0  0
  190.8860  177.1350  145.9760 C   0  0  0  0  0  3  0  0  0  0  0  0
  189.6610  177.5010  140.0530 C   0  0  0  0  0  0  0  0  0  0  0  0
  184.0410  178.7460  144.2550 O   0  0  0  0  0  0  0  0  0  0  0  0
  190.4760  174.8970  138.0360 N   0  0  0  0  0  2  0  0  0  0  0  0
  192.3020  172.9140  135.5590 O   0  0  0  0  0  0  0  0  0  0  0  0
  191.0950  172.6830  134.8530 C   0  0  2  0  0  3  0  0  0  0  0  0
  192.1640  173.6840  136.7010 C   0  0  0  0  0  0  0  0  0  0  0  0
  190.9070  173.9710  137.0220 C   0  0  0  0  0  0  0  0  0  0  0  0
  189.7130  173.2060  135.9360 S   0  0  0  0  0  0  0  0  0  0  0  0
  192.0030  170.5680  134.4570 O   0  0  0  0  0  0  0  0  0  0  0  0
  190.9760  171.2750  134.5130 N   0  0  0  0  0  0  0  0  0  0  0  0
  189.7380  170.6860  134.4060 O   0  0  0  0  0  0  0  0  0  0  0  0
  193.3010  174.1320  137.4390 N   0  0  0  0  0  2  0  0  0  0  0  0
  195.4240  174.7610  136.4710 C   0  0  0  0  0  1  0  0  0  0  0  0
  194.6480  173.6610  137.1630 C   0  0  0  0  0  3  0  0  0  0  0  0
  195.3480  173.2970  138.4620 C   0  0  0  0  0  1  0  0  0  0  0  0
  188.4200  176.1270  138.0340 N   0  0  0  0  0  2  0  0  0  0  0  0
  186.5030  177.2210  137.2830 C   0  0  0  0  0  0  0  0  0  0  0  0
  185.6890  175.2220  135.9930 C   0  0  0  0  0  3  0  0  0  0  0  0
  186.6720  176.0250  136.4680 C   0  0  0  0  0  0  0  0  0  0  0  0
  187.7820  176.7770  136.8980 C   0  0  2  0  0  3  0  0  0  0  0  0
  184.4020  175.7200  136.4140 C   0  0  0  0  0  0  0  0  0  0  0  0
  184.2260  176.9210  137.2350 C   0  0  0  0  0  3  0  0  0  0  0  0
  183.2960  175.0480  136.0190 F   0  0  0  0  0  0  0  0  0  0  0  0
  185.3180  177.7260  137.7050 C   0  0  0  0  0  0  0  0  0  0  0  0
  185.1850  178.8310  138.4780 F   0  0  0  0  0  0  0  0  0  0  0  0
  1 36  1  1  0  0  0
  1 23  1  0  0  0  0
  1  3  1  0  0  0  0
  3  2  1  1  0  0  0
  3 21  1  0  0  0  0
  4 20  1  0  0  0  0
  5  7  1  0  0  0  0
  8  4  2  0  0  0  0
  9 14  1  0  0  0  0
 10 19  1  0  0  0  0
 11  9  1  0  0  0  0
 11  5  1  0  0  0  0
 12 10  2  0  0  0  0
 13  6  1  0  0  0  0
 13 20  2  0  0  0  0
 14  6  2  0  0  0  0
 14  7  1  0  0  0  0
 15 21  2  0  0  0  0
 15 18  1  0  0  0  0
 16 19  2  0  0  0  0
 16  8  1  0  0  0  0
 17 10  1  0  0  0  0
 17  9  2  0  0  0  0
 18 17  1  0  0  0  0
 19 13  1  0  0  0  0
 21 12  1  0  0  0  0
 22  5  2  0  0  0  0
 24 26  1  0  0  0  0
 25 30  1  1  0  0  0
 25 24  1  0  0  0  0
 25 28  1  0  0  0  0
 26 27  2  0  0  0  0
 26 32  1  0  0  0  0
 27 23  1  0  0  0  0
 28 27  1  0  0  0  0
 29 30  2  0  0  0  0
 31 30  2  0  0  0  0
 33 34  1  0  0  0  0
 34 32  1  0  0  0  0
 34 35  1  0  0  0  0
 37 44  1  0  0  0  0
 38 41  2  0  0  0  0
 38 39  1  0  0  0  0
 39 40  1  0  0  0  0
 39 37  2  0  0  0  0
 40 37  1  0  0  0  0
 40 36  1  1  0  0  0
 41 42  1  0  0  0  0
 42 44  2  0  0  0  0
 43 41  1  0  0  0  0
 44 45  1  0  0  0  0
M  END
>  <MODEL>
9

>  <REMARK>
 VINA RESULT:      -7.6      3.666      6.619
  Name = 
  9 active torsions:
  status: ('A' for Active; 'I' for Inactive)
    1  A    between atoms: C_10  and  N_41
    2  A    between atoms: C_12  and  C_18
    3  A    between atoms: C_12  and  C_40
    4  A    between atoms: C_13  and  N_44
    5  A    between atoms: C_14  and  N_33
    6  A    between atoms: C_18  and  N_25
    7  A    between atoms: C_18  and  N_41
    8  A    between atoms: C_19  and  N_44
    9  A    between atoms: N_25  and  C_26
                            x       y       z     vdW  Elec       q    Type
                         _______ _______ _______ _____ _____    ______ ____

>  <TORSDO>
F 9

$$$$
