=
 OpenBabel10232412103D

 39 42  0  0  1  0  0  0  0  0999 V2000
  190.6340  176.5750  137.9300 C   0  0  0  0  0  3  0  0  0  0  0  0
  189.3430  176.7710  138.2260 C   0  0  0  0  0  0  0  0  0  0  0  0
  192.1200  174.6570  135.0930 C   0  0  0  0  0  2  0  0  0  0  0  0
  191.1280  175.5750  137.0280 N   0  0  0  0  0  0  0  0  0  0  0  0
  192.3730  173.7120  136.2620 C   0  0  2  0  0  3  0  0  0  0  0  0
  191.5230  174.2300  137.4040 C   0  0  0  0  0  2  0  0  0  0  0  0
  191.5440  175.9280  135.6890 C   0  0  0  0  0  2  0  0  0  0  0  0
  193.7740  173.7880  136.6440 N   0  0  0  0  0  2  0  0  0  0  0  0
  195.0420  170.3220  136.6780 C   0  0  1  0  0  3  0  0  0  0  0  0
  196.6780  170.9170  136.1500 S   0  0  0  0  0  0  0  0  0  0  0  0
  195.1120  169.7920  138.0980 C   0  0  0  0  0  1  0  0  0  0  0  0
  194.1180  171.4410  136.6060 N   0  0  0  0  0  0  0  0  0  0  0  0
  194.6000  172.6300  136.7640 C   0  0  0  0  0  0  0  0  0  0  0  0
  196.3400  172.7930  137.1070 S   0  0  0  0  0  0  0  0  0  0  0  0
  189.0080  177.7800  139.2570 C   0  0  0  0  0  0  0  0  0  0  0  0
  188.8260  179.0320  138.9670 N   0  0  0  0  0  0  0  0  0  0  0  0
  188.9570  179.5300  137.6630 N   0  0  0  0  0  1  0  0  0  0  0  0
  188.9240  177.3590  140.6860 C   0  0  0  0  0  2  0  0  0  0  0  0
  190.2480  177.6320  141.3840 C   0  0  0  0  0  2  0  0  0  0  0  0
  190.1680  177.2210  142.7780 N   0  0  0  0  0  2  0  0  0  0  0  0
  191.8850  178.3330  143.9330 O   0  0  0  0  0  1  0  0  0  0  0  0
  190.5280  178.3760  143.5930 C   0  0  2  0  0  3  0  0  0  0  0  0
  189.6980  178.4360  144.7910 N   0  0  0  0  0  2  0  0  0  0  0  0
  189.9880  177.3180  145.5980 N   0  0  0  0  0  0  0  0  0  0  0  0
  188.8160  176.8490  146.3340 C   0  0  1  0  0  3  0  0  0  0  0  0
  189.7160  177.7020  146.9010 O   0  0  0  0  0  0  0  0  0  0  0  0
  185.1300  178.1850  142.7840 S   0  0  0  0  0  1  0  0  0  0  0  0
  186.8710  178.2860  147.0210 C   0  0  0  0  0  3  0  0  0  0  0  0
  186.9930  177.5400  144.7190 C   0  0  0  0  0  3  0  0  0  0  0  0
  187.5230  177.5570  146.0180 C   0  0  0  0  0  0  0  0  0  0  0  0
  185.8070  178.2230  144.4350 C   0  0  0  0  0  0  0  0  0  0  0  0
  185.6850  178.9700  146.7360 C   0  0  0  0  0  3  0  0  0  0  0  0
  185.1520  178.9360  145.4440 C   0  0  0  0  0  3  0  0  0  0  0  0
  188.3180  175.9880  137.5970 N   0  0  0  0  0  2  0  0  0  0  0  0
  188.4620  177.2970  135.6830 F   0  0  0  0  0  0  0  0  0  0  0  0
  187.7380  176.2900  136.2970 C   0  0  2  0  0  3  0  0  0  0  0  0
  186.1550  177.5320  137.5840 F   0  0  0  0  0  0  0  0  0  0  0  0
  186.2920  176.7200  136.4690 C   0  0  0  0  0  3  0  0  0  0  0  0
  185.8650  177.4020  135.3440 F   0  0  0  0  0  0  0  0  0  0  0  0
  1  2  2  0  0  0  0
  2 15  1  0  0  0  0
  3  7  1  0  0  0  0
  3  5  1  0  0  0  0
  4  6  1  0  0  0  0
  4  1  1  0  0  0  0
  5  8  1  1  0  0  0
  5  6  1  0  0  0  0
  7  4  1  0  0  0  0
  8 13  1  0  0  0  0
  9 11  1  1  0  0  0
 10  9  1  0  0  0  0
 10 14  1  0  0  0  0
 12  9  1  0  0  0  0
 12 13  2  0  0  0  0
 13 14  1  0  0  0  0
 15 18  1  0  0  0  0
 16 15  2  0  0  0  0
 17 16  1  0  0  0  0
 18 19  1  0  0  0  0
 19 20  1  0  0  0  0
 20 22  1  0  0  0  0
 22 21  1  1  0  0  0
 22 23  1  0  0  0  0
 23 24  1  0  0  0  0
 24 25  1  0  0  0  0
 24 26  1  0  0  0  0
 25 30  1  6  0  0  0
 25 26  1  0  0  0  0
 27 31  1  0  0  0  0
 29 30  1  0  0  0  0
 30 28  2  0  0  0  0
 31 29  2  0  0  0  0
 31 33  1  0  0  0  0
 32 28  1  0  0  0  0
 33 32  2  0  0  0  0
 34  2  1  0  0  0  0
 36 35  1  1  0  0  0
 36 38  1  0  0  0  0
 36 34  1  0  0  0  0
 38 37  1  0  0  0  0
 39 38  1  0  0  0  0
M  END
>  <MODEL>
1

>  <REMARK>
 VINA RESULT:      -7.3      0.000      0.000
  Name = 
  13 active torsions:
  status: ('A' for Active; 'I' for Inactive)
    1  A    between atoms: C_3  and  N_8
    2  A    between atoms: N_6  and  C_17
    3  A    between atoms: C_11  and  C_13
    4  A    between atoms: C_11  and  C_33
    5  A    between atoms: C_13  and  C_21
    6  A    between atoms: C_16  and  C_30
    7  A    between atoms: N_18  and  C_21
    8  A    between atoms: N_18  and  C_31
    9  A    between atoms: C_20  and  C_36
   10  A    between atoms: N_24  and  N_28
   11  A    between atoms: N_28  and  C_31
   12  A    between atoms: C_33  and  N_34
   13  A    between atoms: N_34  and  C_36
                            x       y       z     vdW  Elec       q    Type
                         _______ _______ _______ _____ _____    ______ ____

>  <TORSDO>
F 13

$$$$
=
 OpenBabel10232412103D

 39 42  0  0  1  0  0  0  0  0999 V2000
  190.8160  176.7930  138.0070 C   0  0  0  0  0  3  0  0  0  0  0  0
  189.5040  176.7830  138.2730 C   0  0  0  0  0  0  0  0  0  0  0  0
  192.2010  174.7870  135.1790 C   0  0  0  0  0  2  0  0  0  0  0  0
  191.4920  175.8490  137.1640 N   0  0  0  0  0  0  0  0  0  0  0  0
  193.2720  174.5880  136.2440 C   0  0  2  0  0  3  0  0  0  0  0  0
  192.6630  175.0790  137.5410 C   0  0  0  0  0  2  0  0  0  0  0  0
  191.2190  175.7960  135.7450 C   0  0  0  0  0  2  0  0  0  0  0  0
  194.4260  175.4120  135.9230 N   0  0  0  0  0  2  0  0  0  0  0  0
  197.3940  173.2440  136.2620 C   0  0  1  0  0  3  0  0  0  0  0  0
  198.2160  174.1620  134.9230 S   0  0  0  0  0  0  0  0  0  0  0  0
  198.0980  173.5030  137.5810 C   0  0  0  0  0  1  0  0  0  0  0  0
  196.0160  173.6990  136.3320 N   0  0  0  0  0  0  0  0  0  0  0  0
  195.7610  174.9070  135.9480 C   0  0  0  0  0  0  0  0  0  0  0  0
  197.1230  175.9260  135.4180 S   0  0  0  0  0  0  0  0  0  0  0  0
  188.9810  177.7690  139.2450 C   0  0  0  0  0  0  0  0  0  0  0  0
  188.7440  179.0030  138.9200 N   0  0  0  0  0  0  0  0  0  0  0  0
  188.9880  179.5040  137.6340 N   0  0  0  0  0  1  0  0  0  0  0  0
  188.7640  177.3500  140.6600 C   0  0  0  0  0  2  0  0  0  0  0  0
  190.0530  177.5120  141.4520 C   0  0  0  0  0  2  0  0  0  0  0  0
  189.7690  178.1060  142.7500 N   0  0  0  0  0  2  0  0  0  0  0  0
  192.0470  177.5480  142.8820 O   0  0  0  0  0  1  0  0  0  0  0  0
  191.0490  178.3900  143.3880 C   0  0  2  0  0  3  0  0  0  0  0  0
  190.9420  178.2480  144.8360 N   0  0  0  0  0  2  0  0  0  0  0  0
  191.5130  177.0160  145.2130 N   0  0  0  0  0  0  0  0  0  0  0  0
  190.7720  176.3730  146.2950 C   0  0  1  0  0  3  0  0  0  0  0  0
  191.8650  177.1470  146.5470 O   0  0  0  0  0  0  0  0  0  0  0  0
  185.9010  178.0520  145.1000 S   0  0  0  0  0  1  0  0  0  0  0  0
  189.4200  177.6280  148.0030 C   0  0  0  0  0  3  0  0  0  0  0  0
  188.4300  177.2140  145.8320 C   0  0  0  0  0  3  0  0  0  0  0  0
  189.5040  177.0700  146.7210 C   0  0  0  0  0  0  0  0  0  0  0  0
  187.2710  177.8860  146.2310 C   0  0  0  0  0  0  0  0  0  0  0  0
  188.2610  178.3010  148.4020 C   0  0  0  0  0  3  0  0  0  0  0  0
  187.1860  178.4280  147.5170 C   0  0  0  0  0  3  0  0  0  0  0  0
  188.6400  175.8100  137.6690 N   0  0  0  0  0  2  0  0  0  0  0  0
  186.4570  175.0920  137.3260 F   0  0  0  0  0  0  0  0  0  0  0  0
  187.3490  176.1190  137.0730 C   0  0  2  0  0  3  0  0  0  0  0  0
  186.3020  176.1100  134.9260 F   0  0  0  0  0  0  0  0  0  0  0  0
  187.5100  176.3100  135.5750 C   0  0  0  0  0  3  0  0  0  0  0  0
  187.9730  177.5860  135.3090 F   0  0  0  0  0  0  0  0  0  0  0  0
  1  2  2  0  0  0  0
  2 15  1  0  0  0  0
  3  7  1  0  0  0  0
  3  5  1  0  0  0  0
  4  6  1  0  0  0  0
  4  1  1  0  0  0  0
  5  8  1  6  0  0  0
  5  6  1  0  0  0  0
  7  4  1  0  0  0  0
  8 13  1  0  0  0  0
  9 12  1  0  0  0  0
  9 11  1  1  0  0  0
 10 14  1  0  0  0  0
 10  9  1  0  0  0  0
 13 12  2  0  0  0  0
 14 13  1  0  0  0  0
 15 18  1  0  0  0  0
 16 15  2  0  0  0  0
 17 16  1  0  0  0  0
 18 19  1  0  0  0  0
 19 20  1  0  0  0  0
 20 22  1  0  0  0  0
 22 21  1  6  0  0  0
 22 23  1  0  0  0  0
 23 24  1  0  0  0  0
 24 25  1  0  0  0  0
 24 26  1  0  0  0  0
 25 26  1  0  0  0  0
 25 30  1  1  0  0  0
 27 31  1  0  0  0  0
 28 32  1  0  0  0  0
 29 31  2  0  0  0  0
 29 30  1  0  0  0  0
 30 28  2  0  0  0  0
 31 33  1  0  0  0  0
 33 32  2  0  0  0  0
 34  2  1  0  0  0  0
 36 35  1  6  0  0  0
 36 34  1  0  0  0  0
 37 38  1  0  0  0  0
 38 36  1  0  0  0  0
 39 38  1  0  0  0  0
M  END
>  <MODEL>
2

>  <REMARK>
 VINA RESULT:      -7.1      1.821      2.145
  Name = 
  13 active torsions:
  status: ('A' for Active; 'I' for Inactive)
    1  A    between atoms: C_3  and  N_8
    2  A    between atoms: N_6  and  C_17
    3  A    between atoms: C_11  and  C_13
    4  A    between atoms: C_11  and  C_33
    5  A    between atoms: C_13  and  C_21
    6  A    between atoms: C_16  and  C_30
    7  A    between atoms: N_18  and  C_21
    8  A    between atoms: N_18  and  C_31
    9  A    between atoms: C_20  and  C_36
   10  A    between atoms: N_24  and  N_28
   11  A    between atoms: N_28  and  C_31
   12  A    between atoms: C_33  and  N_34
   13  A    between atoms: N_34  and  C_36
                            x       y       z     vdW  Elec       q    Type
                         _______ _______ _______ _____ _____    ______ ____

>  <TORSDO>
F 13

$$$$
=
 OpenBabel10232412103D

 39 42  0  0  1  0  0  0  0  0999 V2000
  186.9380  178.2710  138.7840 C   0  0  0  0  0  3  0  0  0  0  0  0
  185.6010  178.2400  138.8450 C   0  0  0  0  0  0  0  0  0  0  0  0
  189.1490  177.5110  135.8740 C   0  0  0  0  0  2  0  0  0  0  0  0
  187.7280  177.6640  137.7520 N   0  0  0  0  0  0  0  0  0  0  0  0
  189.3720  176.2850  136.7510 C   0  0  2  0  0  3  0  0  0  0  0  0
  188.2810  176.3230  137.8000 C   0  0  0  0  0  2  0  0  0  0  0  0
  188.2820  178.4600  136.6790 C   0  0  0  0  0  2  0  0  0  0  0  0
  190.6640  176.3980  137.4100 N   0  0  0  0  0  2  0  0  0  0  0  0
  193.0080  174.2860  135.4950 C   0  0  1  0  0  3  0  0  0  0  0  0
  194.3620  175.4360  135.8850 S   0  0  0  0  0  0  0  0  0  0  0  0
  193.2300  172.9590  136.1980 C   0  0  0  0  0  1  0  0  0  0  0  0
  191.7670  174.8900  135.9470 N   0  0  0  0  0  0  0  0  0  0  0  0
  191.8250  175.7100  136.9440 C   0  0  0  0  0  0  0  0  0  0  0  0
  193.4090  175.9880  137.7120 S   0  0  0  0  0  0  0  0  0  0  0  0
  184.9430  178.8300  140.0330 C   0  0  0  0  0  0  0  0  0  0  0  0
  184.2680  179.9370  139.9720 N   0  0  0  0  0  0  0  0  0  0  0  0
  184.1310  180.6720  138.7870 N   0  0  0  0  0  1  0  0  0  0  0  0
  185.0980  178.1610  141.3580 C   0  0  0  0  0  2  0  0  0  0  0  0
  185.1340  179.2050  142.4640 C   0  0  0  0  0  2  0  0  0  0  0  0
  183.9220  179.1230  143.2650 N   0  0  0  0  0  2  0  0  0  0  0  0
  183.5360  179.2010  145.5800 O   0  0  0  0  0  1  0  0  0  0  0  0
  184.2980  178.5990  144.5720 C   0  0  2  0  0  3  0  0  0  0  0  0
  185.7230  178.8000  144.8140 N   0  0  0  0  0  2  0  0  0  0  0  0
  185.9730  178.6460  146.1920 N   0  0  0  0  0  0  0  0  0  0  0  0
  187.2070  177.9060  146.4490 C   0  0  1  0  0  3  0  0  0  0  0  0
  185.9960  177.2800  146.4290 O   0  0  0  0  0  0  0  0  0  0  0  0
  191.6360  178.5160  143.6230 S   0  0  0  0  0  1  0  0  0  0  0  0
  187.4840  176.6900  144.2670 C   0  0  0  0  0  3  0  0  0  0  0  0
  189.2870  178.1200  145.0220 C   0  0  0  0  0  3  0  0  0  0  0  0
  188.0210  177.5530  145.2300 C   0  0  0  0  0  0  0  0  0  0  0  0
  190.0190  177.8040  143.8740 C   0  0  0  0  0  0  0  0  0  0  0  0
  188.2160  176.3740  143.1180 C   0  0  0  0  0  3  0  0  0  0  0  0
  189.4840  176.9290  142.9230 C   0  0  0  0  0  3  0  0  0  0  0  0
  184.8320  177.6070  137.8120 N   0  0  0  0  0  2  0  0  0  0  0  0
  183.9310  175.5020  137.4150 F   0  0  0  0  0  0  0  0  0  0  0  0
  183.7130  176.7090  138.0570 C   0  0  2  0  0  3  0  0  0  0  0  0
  181.9960  178.3260  138.4290 F   0  0  0  0  0  0  0  0  0  0  0  0
  182.4290  177.3420  137.5540 C   0  0  0  0  0  3  0  0  0  0  0  0
  182.6330  177.8940  136.3010 F   0  0  0  0  0  0  0  0  0  0  0  0
  1  2  2  0  0  0  0
  2 15  1  0  0  0  0
  3  7  1  0  0  0  0
  3  5  1  0  0  0  0
  4  6  1  0  0  0  0
  4  1  1  0  0  0  0
  5  8  1  1  0  0  0
  5  6  1  0  0  0  0
  7  4  1  0  0  0  0
  9 10  1  0  0  0  0
  9 12  1  0  0  0  0
  9 11  1  1  0  0  0
 10 14  1  0  0  0  0
 12 13  2  0  0  0  0
 13  8  1  0  0  0  0
 13 14  1  0  0  0  0
 15 18  1  0  0  0  0
 16 15  2  0  0  0  0
 17 16  1  0  0  0  0
 18 19  1  0  0  0  0
 19 20  1  0  0  0  0
 20 22  1  0  0  0  0
 22 23  1  0  0  0  0
 22 21  1  1  0  0  0
 23 24  1  0  0  0  0
 24 26  1  0  0  0  0
 24 25  1  0  0  0  0
 25 30  1  6  0  0  0
 26 25  1  0  0  0  0
 27 31  1  0  0  0  0
 28 30  1  0  0  0  0
 29 30  2  0  0  0  0
 31 29  1  0  0  0  0
 32 28  2  0  0  0  0
 33 32  1  0  0  0  0
 33 31  2  0  0  0  0
 34 36  1  0  0  0  0
 34  2  1  0  0  0  0
 36 35  1  6  0  0  0
 38 36  1  0  0  0  0
 38 37  1  0  0  0  0
 39 38  1  0  0  0  0
M  END
>  <MODEL>
3

>  <REMARK>
 VINA RESULT:      -7.1      3.255      4.569
  Name = 
  13 active torsions:
  status: ('A' for Active; 'I' for Inactive)
    1  A    between atoms: C_3  and  N_8
    2  A    between atoms: N_6  and  C_17
    3  A    between atoms: C_11  and  C_13
    4  A    between atoms: C_11  and  C_33
    5  A    between atoms: C_13  and  C_21
    6  A    between atoms: C_16  and  C_30
    7  A    between atoms: N_18  and  C_21
    8  A    between atoms: N_18  and  C_31
    9  A    between atoms: C_20  and  C_36
   10  A    between atoms: N_24  and  N_28
   11  A    between atoms: N_28  and  C_31
   12  A    between atoms: C_33  and  N_34
   13  A    between atoms: N_34  and  C_36
                            x       y       z     vdW  Elec       q    Type
                         _______ _______ _______ _____ _____    ______ ____

>  <TORSDO>
F 13

$$$$
=
 OpenBabel10232412103D

 39 42  0  0  1  0  0  0  0  0999 V2000
  188.8260  175.4760  137.7290 C   0  0  0  0  0  3  0  0  0  0  0  0
  189.5040  176.6190  137.8920 C   0  0  0  0  0  0  0  0  0  0  0  0
  187.5260  174.1180  134.5040 C   0  0  0  0  0  2  0  0  0  0  0  0
  188.0570  175.1340  136.5670 N   0  0  0  0  0  0  0  0  0  0  0  0
  186.2330  174.3510  135.2770 C   0  0  2  0  0  3  0  0  0  0  0  0
  186.6110  175.2070  136.4680 C   0  0  0  0  0  2  0  0  0  0  0  0
  188.6590  174.4060  135.4710 C   0  0  0  0  0  2  0  0  0  0  0  0
  185.7240  173.0760  135.7550 N   0  0  0  0  0  2  0  0  0  0  0  0
  182.0440  173.2770  135.5650 C   0  0  1  0  0  3  0  0  0  0  0  0
  181.9660  171.4960  135.2000 S   0  0  0  0  0  0  0  0  0  0  0  0
  181.4510  173.5550  136.9350 C   0  0  0  0  0  1  0  0  0  0  0  0
  183.4390  173.6770  135.5320 N   0  0  0  0  0  0  0  0  0  0  0  0
  184.3280  172.7860  135.8260 C   0  0  0  0  0  0  0  0  0  0  0  0
  183.7660  171.1610  136.2950 S   0  0  0  0  0  0  0  0  0  0  0  0
  190.1630  176.8600  139.1950 C   0  0  0  0  0  0  0  0  0  0  0  0
  191.4510  176.7920  139.3430 N   0  0  0  0  0  0  0  0  0  0  0  0
  192.3140  176.4610  138.2900 N   0  0  0  0  0  1  0  0  0  0  0  0
  189.3220  177.1430  140.3940 C   0  0  0  0  0  2  0  0  0  0  0  0
  190.1940  177.1960  141.6390 C   0  0  0  0  0  2  0  0  0  0  0  0
  189.7370  178.2580  142.5220 N   0  0  0  0  0  2  0  0  0  0  0  0
  191.3920  177.0970  143.7180 O   0  0  0  0  0  1  0  0  0  0  0  0
  190.6070  178.2550  143.6930 C   0  0  2  0  0  3  0  0  0  0  0  0
  189.8200  178.3710  144.9160 N   0  0  0  0  0  2  0  0  0  0  0  0
  190.0960  177.2590  145.7370 N   0  0  0  0  0  0  0  0  0  0  0  0
  188.9180  176.8150  146.4780 C   0  0  1  0  0  3  0  0  0  0  0  0
  189.8280  177.6630  147.0360 O   0  0  0  0  0  0  0  0  0  0  0  0
  185.2370  178.1290  142.9150 S   0  0  0  0  0  1  0  0  0  0  0  0
  186.9960  178.2920  147.1430 C   0  0  0  0  0  3  0  0  0  0  0  0
  187.0990  177.4980  144.8570 C   0  0  0  0  0  3  0  0  0  0  0  0
  187.6330  177.5340  146.1530 C   0  0  0  0  0  0  0  0  0  0  0  0
  185.9210  178.1920  144.5630 C   0  0  0  0  0  0  0  0  0  0  0  0
  185.8180  178.9860  146.8480 C   0  0  0  0  0  3  0  0  0  0  0  0
  185.2810  178.9340  145.5590 C   0  0  0  0  0  3  0  0  0  0  0  0
  189.5470  177.6020  136.8480 N   0  0  0  0  0  2  0  0  0  0  0  0
  189.2120  179.4570  138.2080 F   0  0  0  0  0  0  0  0  0  0  0  0
  188.9640  178.9320  136.9520 C   0  0  2  0  0  3  0  0  0  0  0  0
  187.2000  178.1290  135.5560 F   0  0  0  0  0  0  0  0  0  0  0  0
  187.4680  178.8560  136.7060 C   0  0  0  0  0  3  0  0  0  0  0  0
  186.8410  178.2610  137.7870 F   0  0  0  0  0  0  0  0  0  0  0  0
  1  2  2  0  0  0  0
  2 15  1  0  0  0  0
  3  5  1  0  0  0  0
  3  7  1  0  0  0  0
  4  1  1  0  0  0  0
  5  8  1  1  0  0  0
  5  6  1  0  0  0  0
  6  4  1  0  0  0  0
  7  4  1  0  0  0  0
  8 13  1  0  0  0  0
  9 11  1  1  0  0  0
 10  9  1  0  0  0  0
 10 14  1  0  0  0  0
 12  9  1  0  0  0  0
 12 13  2  0  0  0  0
 13 14  1  0  0  0  0
 15 16  2  0  0  0  0
 15 18  1  0  0  0  0
 17 16  1  0  0  0  0
 18 19  1  0  0  0  0
 19 20  1  0  0  0  0
 20 22  1  0  0  0  0
 22 21  1  1  0  0  0
 22 23  1  0  0  0  0
 23 24  1  0  0  0  0
 24 25  1  0  0  0  0
 24 26  1  0  0  0  0
 25 30  1  6  0  0  0
 25 26  1  0  0  0  0
 27 31  1  0  0  0  0
 29 30  1  0  0  0  0
 30 28  2  0  0  0  0
 31 29  2  0  0  0  0
 31 33  1  0  0  0  0
 32 28  1  0  0  0  0
 33 32  2  0  0  0  0
 34 36  1  0  0  0  0
 34  2  1  0  0  0  0
 36 35  1  1  0  0  0
 37 38  1  0  0  0  0
 38 36  1  0  0  0  0
 38 39  1  0  0  0  0
M  END
>  <MODEL>
4

>  <REMARK>
 VINA RESULT:      -7.0      3.991      5.658
  Name = 
  13 active torsions:
  status: ('A' for Active; 'I' for Inactive)
    1  A    between atoms: C_3  and  N_8
    2  A    between atoms: N_6  and  C_17
    3  A    between atoms: C_11  and  C_13
    4  A    between atoms: C_11  and  C_33
    5  A    between atoms: C_13  and  C_21
    6  A    between atoms: C_16  and  C_30
    7  A    between atoms: N_18  and  C_21
    8  A    between atoms: N_18  and  C_31
    9  A    between atoms: C_20  and  C_36
   10  A    between atoms: N_24  and  N_28
   11  A    between atoms: N_28  and  C_31
   12  A    between atoms: C_33  and  N_34
   13  A    between atoms: N_34  and  C_36
                            x       y       z     vdW  Elec       q    Type
                         _______ _______ _______ _____ _____    ______ ____

>  <TORSDO>
F 13

$$$$
=
 OpenBabel10232412103D

 39 42  0  0  1  0  0  0  0  0999 V2000
  187.0150  177.7650  144.0200 C   0  0  0  0  0  3  0  0  0  0  0  0
  186.9300  178.1310  145.3050 C   0  0  0  0  0  0  0  0  0  0  0  0
  189.8630  176.0470  142.3250 C   0  0  0  0  0  2  0  0  0  0  0  0
  188.2300  177.4130  143.3430 N   0  0  0  0  0  0  0  0  0  0  0  0
  189.9160  177.4270  141.6810 C   0  0  2  0  0  3  0  0  0  0  0  0
  189.0230  178.3130  142.5260 C   0  0  0  0  0  2  0  0  0  0  0  0
  188.6180  176.0280  143.1920 C   0  0  0  0  0  2  0  0  0  0  0  0
  189.3680  177.3500  140.3370 N   0  0  0  0  0  2  0  0  0  0  0  0
  191.8500  175.5330  138.2950 C   0  0  1  0  0  3  0  0  0  0  0  0
  190.5050  174.8230  137.2960 S   0  0  0  0  0  0  0  0  0  0  0  0
  192.6670  176.5000  137.4590 C   0  0  0  0  0  1  0  0  0  0  0  0
  191.2480  176.2270  139.4200 N   0  0  0  0  0  0  0  0  0  0  0  0
  190.0590  176.7100  139.2630 C   0  0  0  0  0  0  0  0  0  0  0  0
  189.2820  176.5310  137.6690 S   0  0  0  0  0  0  0  0  0  0  0  0
  185.6110  178.5610  145.8230 C   0  0  0  0  0  0  0  0  0  0  0  0
  185.4830  179.1920  146.9500 N   0  0  0  0  0  0  0  0  0  0  0  0
  186.5760  179.4920  147.7750 N   0  0  0  0  0  1  0  0  0  0  0  0
  184.3810  178.2170  145.0540 C   0  0  0  0  0  2  0  0  0  0  0  0
  183.8760  179.4420  144.3080 C   0  0  0  0  0  2  0  0  0  0  0  0
  183.2630  179.0420  143.0500 N   0  0  0  0  0  2  0  0  0  0  0  0
  185.1670  179.5980  141.7910 O   0  0  0  0  0  1  0  0  0  0  0  0
  184.3290  178.5480  142.1850 C   0  0  2  0  0  3  0  0  0  0  0  0
  183.7700  177.8700  141.0200 N   0  0  0  0  0  2  0  0  0  0  0  0
  182.4980  178.4130  140.7490 N   0  0  0  0  0  0  0  0  0  0  0  0
  182.0160  178.0500  139.4190 C   0  0  1  0  0  3  0  0  0  0  0  0
  182.6570  179.2320  139.6430 O   0  0  0  0  0  0  0  0  0  0  0  0
  185.8540  177.2910  135.8600 S   0  0  0  0  0  1  0  0  0  0  0  0
  182.7120  175.7150  138.7990 C   0  0  0  0  0  3  0  0  0  0  0  0
  183.8450  177.5740  137.7360 C   0  0  0  0  0  3  0  0  0  0  0  0
  182.8910  177.0960  138.6460 C   0  0  0  0  0  0  0  0  0  0  0  0
  184.6310  176.6770  137.0060 C   0  0  0  0  0  0  0  0  0  0  0  0
  183.4980  174.8190  138.0680 C   0  0  0  0  0  3  0  0  0  0  0  0
  184.4580  175.3000  137.1730 C   0  0  0  0  0  3  0  0  0  0  0  0
  188.0960  178.1520  146.1410 N   0  0  0  0  0  2  0  0  0  0  0  0
  188.5120  177.0300  148.1320 F   0  0  0  0  0  0  0  0  0  0  0  0
  188.6820  176.9720  146.7600 C   0  0  2  0  0  3  0  0  0  0  0  0
  190.5230  177.9470  145.5920 F   0  0  0  0  0  0  0  0  0  0  0  0
  190.1600  176.8980  146.4220 C   0  0  0  0  0  3  0  0  0  0  0  0
  190.9130  176.9420  147.5810 F   0  0  0  0  0  0  0  0  0  0  0  0
  1  2  2  0  0  0  0
  2 15  1  0  0  0  0
  2 34  1  0  0  0  0
  3  7  1  0  0  0  0
  4  1  1  0  0  0  0
  5  8  1  6  0  0  0
  5  3  1  0  0  0  0
  5  6  1  0  0  0  0
  6  4  1  0  0  0  0
  7  4  1  0  0  0  0
  9 11  1  6  0  0  0
  9 12  1  0  0  0  0
 10 14  1  0  0  0  0
 10  9  1  0  0  0  0
 13 12  2  0  0  0  0
 13  8  1  0  0  0  0
 14 13  1  0  0  0  0
 15 16  2  0  0  0  0
 16 17  1  0  0  0  0
 18 15  1  0  0  0  0
 19 18  1  0  0  0  0
 20 19  1  0  0  0  0
 22 21  1  6  0  0  0
 22 20  1  0  0  0  0
 23 22  1  0  0  0  0
 24 23  1  0  0  0  0
 25 30  1  6  0  0  0
 25 26  1  0  0  0  0
 25 24  1  0  0  0  0
 26 24  1  0  0  0  0
 27 31  1  0  0  0  0
 29 30  2  0  0  0  0
 30 28  1  0  0  0  0
 31 33  2  0  0  0  0
 31 29  1  0  0  0  0
 32 28  2  0  0  0  0
 33 32  1  0  0  0  0
 34 36  1  0  0  0  0
 36 35  1  1  0  0  0
 37 38  1  0  0  0  0
 38 36  1  0  0  0  0
 38 39  1  0  0  0  0
M  END
>  <MODEL>
5

>  <REMARK>
 VINA RESULT:      -7.0      4.878      8.408
  Name = 
  13 active torsions:
  status: ('A' for Active; 'I' for Inactive)
    1  A    between atoms: C_3  and  N_8
    2  A    between atoms: N_6  and  C_17
    3  A    between atoms: C_11  and  C_13
    4  A    between atoms: C_11  and  C_33
    5  A    between atoms: C_13  and  C_21
    6  A    between atoms: C_16  and  C_30
    7  A    between atoms: N_18  and  C_21
    8  A    between atoms: N_18  and  C_31
    9  A    between atoms: C_20  and  C_36
   10  A    between atoms: N_24  and  N_28
   11  A    between atoms: N_28  and  C_31
   12  A    between atoms: C_33  and  N_34
   13  A    between atoms: N_34  and  C_36
                            x       y       z     vdW  Elec       q    Type
                         _______ _______ _______ _____ _____    ______ ____

>  <TORSDO>
F 13

$$$$
=
 OpenBabel10232412103D

 39 42  0  0  1  0  0  0  0  0999 V2000
  187.8870  177.2780  143.9600 C   0  0  0  0  0  3  0  0  0  0  0  0
  188.2740  177.7560  145.1490 C   0  0  0  0  0  0  0  0  0  0  0  0
  189.9680  176.5590  140.9460 C   0  0  0  0  0  2  0  0  0  0  0  0
  188.6680  177.3300  142.7580 N   0  0  0  0  0  0  0  0  0  0  0  0
  189.2380  177.8250  140.5140 C   0  0  2  0  0  3  0  0  0  0  0  0
  188.6170  178.3950  141.7730 C   0  0  0  0  0  2  0  0  0  0  0  0
  189.3780  176.1620  142.2860 C   0  0  0  0  0  2  0  0  0  0  0  0
  188.1780  177.4720  139.5830 N   0  0  0  0  0  2  0  0  0  0  0  0
  189.8350  176.2930  136.5030 C   0  0  1  0  0  3  0  0  0  0  0  0
  188.4630  175.1350  136.2100 S   0  0  0  0  0  0  0  0  0  0  0  0
  189.8350  177.3810  135.4450 C   0  0  0  0  0  1  0  0  0  0  0  0
  189.6510  176.8760  137.8210 N   0  0  0  0  0  0  0  0  0  0  0  0
  188.4430  176.9720  138.2730 C   0  0  0  0  0  0  0  0  0  0  0  0
  187.1070  176.4330  137.2240 S   0  0  0  0  0  0  0  0  0  0  0  0
  187.3050  177.7130  146.2680 C   0  0  0  0  0  0  0  0  0  0  0  0
  187.6830  177.6440  147.5080 N   0  0  0  0  0  0  0  0  0  0  0  0
  189.0320  177.5790  147.8830 N   0  0  0  0  0  1  0  0  0  0  0  0
  185.8450  177.6980  145.9650 C   0  0  0  0  0  2  0  0  0  0  0  0
  185.3130  179.1220  145.9090 C   0  0  0  0  0  2  0  0  0  0  0  0
  183.8990  179.1120  145.5640 N   0  0  0  0  0  2  0  0  0  0  0  0
  184.8040  179.8950  143.5430 O   0  0  0  0  0  1  0  0  0  0  0  0
  183.8060  179.0930  144.1090 C   0  0  2  0  0  3  0  0  0  0  0  0
  182.4850  179.5320  143.6740 N   0  0  0  0  0  2  0  0  0  0  0  0
  181.5310  178.5890  144.1050 N   0  0  0  0  0  0  0  0  0  0  0  0
  180.5510  178.2810  143.0660 C   0  0  1  0  0  3  0  0  0  0  0  0
  180.3000  179.2200  144.0220 O   0  0  0  0  0  0  0  0  0  0  0  0
  183.3200  178.4550  138.5630 S   0  0  0  0  0  1  0  0  0  0  0  0
  180.0470  180.0460  141.3470 C   0  0  0  0  0  3  0  0  0  0  0  0
  181.8080  178.4500  140.8750 C   0  0  0  0  0  3  0  0  0  0  0  0
  180.7980  178.9260  141.7250 C   0  0  0  0  0  0  0  0  0  0  0  0
  182.0440  179.0740  139.6470 C   0  0  0  0  0  0  0  0  0  0  0  0
  180.2850  180.6700  140.1190 C   0  0  0  0  0  3  0  0  0  0  0  0
  181.2810  180.1830  139.2680 C   0  0  0  0  0  3  0  0  0  0  0  0
  189.5740  178.3380  145.3180 N   0  0  0  0  0  2  0  0  0  0  0  0
  191.5210  177.2820  146.0220 F   0  0  0  0  0  0  0  0  0  0  0  0
  190.8170  177.7010  144.9070 C   0  0  2  0  0  3  0  0  0  0  0  0
  191.9800  178.1430  142.8680 F   0  0  0  0  0  0  0  0  0  0  0  0
  191.6520  178.6820  144.1020 C   0  0  0  0  0  3  0  0  0  0  0  0
  190.9530  179.8610  143.9220 F   0  0  0  0  0  0  0  0  0  0  0  0
  1  2  2  0  0  0  0
  2 34  1  0  0  0  0
  2 15  1  0  0  0  0
  3  7  1  0  0  0  0
  4  1  1  0  0  0  0
  5  8  1  6  0  0  0
  5  3  1  0  0  0  0
  5  6  1  0  0  0  0
  6  4  1  0  0  0  0
  7  4  1  0  0  0  0
  9 11  1  6  0  0  0
  9 12  1  0  0  0  0
 10  9  1  0  0  0  0
 10 14  1  0  0  0  0
 12 13  2  0  0  0  0
 13  8  1  0  0  0  0
 14 13  1  0  0  0  0
 15 16  2  0  0  0  0
 16 17  1  0  0  0  0
 18 15  1  0  0  0  0
 19 18  1  0  0  0  0
 20 19  1  0  0  0  0
 22 21  1  6  0  0  0
 22 20  1  0  0  0  0
 23 24  1  0  0  0  0
 23 22  1  0  0  0  0
 25 30  1  6  0  0  0
 25 26  1  0  0  0  0
 25 24  1  0  0  0  0
 26 24  1  0  0  0  0
 27 31  1  0  0  0  0
 28 30  1  0  0  0  0
 29 30  2  0  0  0  0
 31 29  1  0  0  0  0
 32 28  2  0  0  0  0
 33 31  2  0  0  0  0
 33 32  1  0  0  0  0
 36 34  1  0  0  0  0
 36 35  1  1  0  0  0
 37 38  1  0  0  0  0
 38 36  1  0  0  0  0
 39 38  1  0  0  0  0
M  END
>  <MODEL>
6

>  <REMARK>
 VINA RESULT:      -7.0      4.985      8.017
  Name = 
  13 active torsions:
  status: ('A' for Active; 'I' for Inactive)
    1  A    between atoms: C_3  and  N_8
    2  A    between atoms: N_6  and  C_17
    3  A    between atoms: C_11  and  C_13
    4  A    between atoms: C_11  and  C_33
    5  A    between atoms: C_13  and  C_21
    6  A    between atoms: C_16  and  C_30
    7  A    between atoms: N_18  and  C_21
    8  A    between atoms: N_18  and  C_31
    9  A    between atoms: C_20  and  C_36
   10  A    between atoms: N_24  and  N_28
   11  A    between atoms: N_28  and  C_31
   12  A    between atoms: C_33  and  N_34
   13  A    between atoms: N_34  and  C_36
                            x       y       z     vdW  Elec       q    Type
                         _______ _______ _______ _____ _____    ______ ____

>  <TORSDO>
F 13

$$$$
=
 OpenBabel10232412103D

 39 42  0  0  1  0  0  0  0  0999 V2000
  187.3670  177.8800  138.8530 C   0  0  0  0  0  3  0  0  0  0  0  0
  187.8330  178.1910  140.0690 C   0  0  0  0  0  0  0  0  0  0  0  0
  189.6960  177.7360  135.9390 C   0  0  0  0  0  2  0  0  0  0  0  0
  188.1800  177.5030  137.7320 N   0  0  0  0  0  0  0  0  0  0  0  0
  189.7980  176.3140  136.4780 C   0  0  2  0  0  3  0  0  0  0  0  0
  188.6510  176.1590  137.4550 C   0  0  0  0  0  2  0  0  0  0  0  0
  188.8390  178.5060  136.9260 C   0  0  0  0  0  2  0  0  0  0  0  0
  191.0530  176.1630  137.1960 N   0  0  0  0  0  2  0  0  0  0  0  0
  193.0290  173.6570  135.3410 C   0  0  1  0  0  3  0  0  0  0  0  0
  194.5610  174.5150  135.8170 S   0  0  0  0  0  0  0  0  0  0  0  0
  192.9540  172.3040  136.0240 C   0  0  0  0  0  1  0  0  0  0  0  0
  191.9090  174.4870  135.7500 N   0  0  0  0  0  0  0  0  0  0  0  0
  192.0790  175.2670  136.7670 C   0  0  0  0  0  0  0  0  0  0  0  0
  193.6470  175.2200  137.6110 S   0  0  0  0  0  0  0  0  0  0  0  0
  186.8670  178.6590  141.0890 C   0  0  0  0  0  0  0  0  0  0  0  0
  185.7110  179.1570  140.7700 N   0  0  0  0  0  0  0  0  0  0  0  0
  185.2990  179.3130  139.4400 N   0  0  0  0  0  1  0  0  0  0  0  0
  187.2480  178.6050  142.5300 C   0  0  0  0  0  2  0  0  0  0  0  0
  186.0960  178.0440  143.3500 C   0  0  0  0  0  2  0  0  0  0  0  0
  186.6070  177.1510  144.3790 N   0  0  0  0  0  2  0  0  0  0  0  0
  185.8310  178.9750  145.6390 O   0  0  0  0  0  1  0  0  0  0  0  0
  186.0520  177.5930  145.6540 C   0  0  2  0  0  3  0  0  0  0  0  0
  186.9370  177.2250  146.7530 N   0  0  0  0  0  2  0  0  0  0  0  0
  186.9900  178.2950  147.6680 N   0  0  0  0  0  0  0  0  0  0  0  0
  188.3620  178.7190  147.9410 C   0  0  1  0  0  3  0  0  0  0  0  0
  187.7170  177.8360  148.7560 O   0  0  0  0  0  0  0  0  0  0  0  0
  192.5540  175.4980  147.7790 S   0  0  0  0  0  1  0  0  0  0  0  0
  189.5200  178.2720  145.7550 C   0  0  0  0  0  3  0  0  0  0  0  0
  190.3690  177.1900  147.7490 C   0  0  0  0  0  3  0  0  0  0  0  0
  189.4310  178.0290  147.1320 C   0  0  0  0  0  0  0  0  0  0  0  0
  191.3720  176.5780  146.9900 C   0  0  0  0  0  0  0  0  0  0  0  0
  190.5230  177.6600  144.9970 C   0  0  0  0  0  3  0  0  0  0  0  0
  191.4470  176.8120  145.6140 C   0  0  0  0  0  3  0  0  0  0  0  0
  189.2370  178.1200  140.3580 N   0  0  0  0  0  2  0  0  0  0  0  0
  189.3030  176.3720  141.8880 F   0  0  0  0  0  0  0  0  0  0  0  0
  189.9270  176.9080  140.7750 C   0  0  2  0  0  3  0  0  0  0  0  0
  192.0310  177.6970  139.9660 F   0  0  0  0  0  0  0  0  0  0  0  0
  191.3760  177.2290  141.0940 C   0  0  0  0  0  3  0  0  0  0  0  0
  191.4400  178.1810  142.0960 F   0  0  0  0  0  0  0  0  0  0  0  0
  1  2  2  0  0  0  0
  2 34  1  0  0  0  0
  2 15  1  0  0  0  0
  3  5  1  0  0  0  0
  3  7  1  0  0  0  0
  4  1  1  0  0  0  0
  5  8  1  1  0  0  0
  5  6  1  0  0  0  0
  6  4  1  0  0  0  0
  7  4  1  0  0  0  0
  9 12  1  0  0  0  0
  9 10  1  0  0  0  0
  9 11  1  1  0  0  0
 10 14  1  0  0  0  0
 12 13  2  0  0  0  0
 13  8  1  0  0  0  0
 13 14  1  0  0  0  0
 15 18  1  0  0  0  0
 16 15  2  0  0  0  0
 17 16  1  0  0  0  0
 18 19  1  0  0  0  0
 19 20  1  0  0  0  0
 20 22  1  0  0  0  0
 22 21  1  6  0  0  0
 22 23  1  0  0  0  0
 23 24  1  0  0  0  0
 24 25  1  0  0  0  0
 24 26  1  0  0  0  0
 25 30  1  6  0  0  0
 25 26  1  0  0  0  0
 28 30  1  0  0  0  0
 30 29  2  0  0  0  0
 31 29  1  0  0  0  0
 31 27  1  0  0  0  0
 32 33  1  0  0  0  0
 32 28  2  0  0  0  0
 33 31  2  0  0  0  0
 34 36  1  0  0  0  0
 36 38  1  0  0  0  0
 36 35  1  1  0  0  0
 37 38  1  0  0  0  0
 38 39  1  0  0  0  0
M  END
>  <MODEL>
7

>  <REMARK>
 VINA RESULT:      -6.8      3.232      4.700
  Name = 
  13 active torsions:
  status: ('A' for Active; 'I' for Inactive)
    1  A    between atoms: C_3  and  N_8
    2  A    between atoms: N_6  and  C_17
    3  A    between atoms: C_11  and  C_13
    4  A    between atoms: C_11  and  C_33
    5  A    between atoms: C_13  and  C_21
    6  A    between atoms: C_16  and  C_30
    7  A    between atoms: N_18  and  C_21
    8  A    between atoms: N_18  and  C_31
    9  A    between atoms: C_20  and  C_36
   10  A    between atoms: N_24  and  N_28
   11  A    between atoms: N_28  and  C_31
   12  A    between atoms: C_33  and  N_34
   13  A    between atoms: N_34  and  C_36
                            x       y       z     vdW  Elec       q    Type
                         _______ _______ _______ _____ _____    ______ ____

>  <TORSDO>
F 13

$$$$
=
 OpenBabel10232412103D

 39 42  0  0  1  0  0  0  0  0999 V2000
  185.2160  178.0580  139.2790 C   0  0  0  0  0  3  0  0  0  0  0  0
  185.7870  178.6490  140.3360 C   0  0  0  0  0  0  0  0  0  0  0  0
  181.6030  178.4280  138.4160 C   0  0  0  0  0  2  0  0  0  0  0  0
  183.8030  177.9000  139.0880 N   0  0  0  0  0  0  0  0  0  0  0  0
  181.7630  176.9130  138.4020 C   0  0  2  0  0  3  0  0  0  0  0  0
  183.0990  176.6310  139.0600 C   0  0  0  0  0  2  0  0  0  0  0  0
  182.9930  179.0020  138.6190 C   0  0  0  0  0  2  0  0  0  0  0  0
  181.8090  176.4490  137.0250 N   0  0  0  0  0  2  0  0  0  0  0  0
  180.7290  172.9200  137.0690 C   0  0  1  0  0  3  0  0  0  0  0  0
  179.9820  173.1290  135.4230 S   0  0  0  0  0  0  0  0  0  0  0  0
  181.9270  171.9920  136.9840 C   0  0  0  0  0  1  0  0  0  0  0  0
  181.1430  174.2300  137.5390 N   0  0  0  0  0  0  0  0  0  0  0  0
  181.4550  175.1170  136.6520 C   0  0  0  0  0  0  0  0  0  0  0  0
  181.4040  174.6430  134.9350 S   0  0  0  0  0  0  0  0  0  0  0  0
  187.2650  178.6390  140.4290 C   0  0  0  0  0  0  0  0  0  0  0  0
  188.0230  178.5310  139.3810 N   0  0  0  0  0  0  0  0  0  0  0  0
  187.5050  178.3920  138.0860 N   0  0  0  0  0  1  0  0  0  0  0  0
  187.9090  178.7030  141.7730 C   0  0  0  0  0  2  0  0  0  0  0  0
  187.6690  177.4030  142.5250 C   0  0  0  0  0  2  0  0  0  0  0  0
  188.5480  176.3620  142.0120 N   0  0  0  0  0  2  0  0  0  0  0  0
  190.5360  176.4030  140.7630 O   0  0  0  0  0  1  0  0  0  0  0  0
  189.8780  176.9450  141.8720 C   0  0  2  0  0  3  0  0  0  0  0  0
  190.6580  176.7360  143.0870 N   0  0  0  0  0  2  0  0  0  0  0  0
  191.6450  177.7390  143.1670 N   0  0  0  0  0  0  0  0  0  0  0  0
  191.6790  178.3760  144.4810 C   0  0  1  0  0  3  0  0  0  0  0  0
  190.9740  178.9180  143.4490 O   0  0  0  0  0  0  0  0  0  0  0  0
  186.8270  178.0260  146.5590 S   0  0  0  0  0  1  0  0  0  0  0  0
  191.2730  176.9200  146.4910 C   0  0  0  0  0  3  0  0  0  0  0  0
  189.3970  178.1300  145.5490 C   0  0  0  0  0  3  0  0  0  0  0  0
  190.7560  177.7840  145.5170 C   0  0  0  0  0  0  0  0  0  0  0  0
  188.5590  177.5940  146.5320 C   0  0  0  0  0  0  0  0  0  0  0  0
  190.4350  176.3860  147.4740 C   0  0  0  0  0  3  0  0  0  0  0  0
  189.0770  176.7210  147.4920 C   0  0  0  0  0  3  0  0  0  0  0  0
  184.9850  179.2310  141.3730 N   0  0  0  0  0  2  0  0  0  0  0  0
  182.8220  178.6210  141.9660 F   0  0  0  0  0  0  0  0  0  0  0  0
  184.1570  178.4670  142.2950 C   0  0  2  0  0  3  0  0  0  0  0  0
  184.8530  180.2530  143.7200 F   0  0  0  0  0  0  0  0  0  0  0  0
  184.4010  178.9430  143.7160 C   0  0  0  0  0  3  0  0  0  0  0  0
  183.2320  178.8550  144.4510 F   0  0  0  0  0  0  0  0  0  0  0  0
  1  2  2  0  0  0  0
  2 15  1  0  0  0  0
  2 34  1  0  0  0  0
  3  7  1  0  0  0  0
  4  1  1  0  0  0  0
  5  8  1  6  0  0  0
  5  3  1  0  0  0  0
  5  6  1  0  0  0  0
  6  4  1  0  0  0  0
  7  4  1  0  0  0  0
  9 11  1  6  0  0  0
  9 12  1  0  0  0  0
 10  9  1  0  0  0  0
 13  8  1  0  0  0  0
 13 12  2  0  0  0  0
 14 10  1  0  0  0  0
 14 13  1  0  0  0  0
 15 18  1  0  0  0  0
 16 15  2  0  0  0  0
 17 16  1  0  0  0  0
 18 19  1  0  0  0  0
 20 19  1  0  0  0  0
 22 21  1  6  0  0  0
 22 20  1  0  0  0  0
 22 23  1  0  0  0  0
 23 24  1  0  0  0  0
 24 26  1  0  0  0  0
 24 25  1  0  0  0  0
 25 30  1  1  0  0  0
 26 25  1  0  0  0  0
 28 32  1  0  0  0  0
 29 31  2  0  0  0  0
 30 29  1  0  0  0  0
 30 28  2  0  0  0  0
 31 27  1  0  0  0  0
 31 33  1  0  0  0  0
 32 33  2  0  0  0  0
 34 36  1  0  0  0  0
 36 35  1  6  0  0  0
 36 38  1  0  0  0  0
 38 37  1  0  0  0  0
 38 39  1  0  0  0  0
M  END
>  <MODEL>
8

>  <REMARK>
 VINA RESULT:      -6.7      5.924      8.072
  Name = 
  13 active torsions:
  status: ('A' for Active; 'I' for Inactive)
    1  A    between atoms: C_3  and  N_8
    2  A    between atoms: N_6  and  C_17
    3  A    between atoms: C_11  and  C_13
    4  A    between atoms: C_11  and  C_33
    5  A    between atoms: C_13  and  C_21
    6  A    between atoms: C_16  and  C_30
    7  A    between atoms: N_18  and  C_21
    8  A    between atoms: N_18  and  C_31
    9  A    between atoms: C_20  and  C_36
   10  A    between atoms: N_24  and  N_28
   11  A    between atoms: N_28  and  C_31
   12  A    between atoms: C_33  and  N_34
   13  A    between atoms: N_34  and  C_36
                            x       y       z     vdW  Elec       q    Type
                         _______ _______ _______ _____ _____    ______ ____

>  <TORSDO>
F 13

$$$$
=
 OpenBabel10232412103D

 39 42  0  0  1  0  0  0  0  0999 V2000
  187.9030  174.5650  136.2310 C   0  0  0  0  0  3  0  0  0  0  0  0
  188.4790  175.5730  136.8980 C   0  0  0  0  0  0  0  0  0  0  0  0
  184.8470  172.8010  137.4510 C   0  0  0  0  0  2  0  0  0  0  0  0
  186.5760  174.0730  136.4700 N   0  0  0  0  0  0  0  0  0  0  0  0
  184.2580  174.1120  136.9460 C   0  0  2  0  0  3  0  0  0  0  0  0
  185.3500  174.7700  136.1290 C   0  0  0  0  0  2  0  0  0  0  0  0
  186.3540  172.9410  137.3420 C   0  0  0  0  0  2  0  0  0  0  0  0
  183.9410  174.9630  138.0820 N   0  0  0  0  0  2  0  0  0  0  0  0
  180.8520  176.7820  137.2030 C   0  0  1  0  0  3  0  0  0  0  0  0
  180.3490  176.7710  138.9510 S   0  0  0  0  0  0  0  0  0  0  0  0
  181.1720  178.1980  136.7600 C   0  0  0  0  0  1  0  0  0  0  0  0
  182.0280  175.9390  137.0730 N   0  0  0  0  0  0  0  0  0  0  0  0
  182.8010  175.8220  138.1020 C   0  0  0  0  0  0  0  0  0  0  0  0
  182.3900  176.7440  139.5710 S   0  0  0  0  0  0  0  0  0  0  0  0
  189.8930  175.8910  136.5960 C   0  0  0  0  0  0  0  0  0  0  0  0
  190.2350  176.6470  135.5980 N   0  0  0  0  0  0  0  0  0  0  0  0
  189.2970  177.1990  134.7150 N   0  0  0  0  0  1  0  0  0  0  0  0
  190.9690  175.2850  137.4340 C   0  0  0  0  0  2  0  0  0  0  0  0
  191.4600  176.2970  138.4580 C   0  0  0  0  0  2  0  0  0  0  0  0
  190.6300  176.2400  139.6520 N   0  0  0  0  0  2  0  0  0  0  0  0
  192.3410  177.6650  140.4000 O   0  0  0  0  0  1  0  0  0  0  0  0
  190.9690  177.3970  140.4730 C   0  0  2  0  0  3  0  0  0  0  0  0
  190.5590  177.1810  141.8560 N   0  0  0  0  0  2  0  0  0  0  0  0
  190.7620  175.8250  142.1800 N   0  0  0  0  0  0  0  0  0  0  0  0
  189.9360  175.3980  143.3070 C   0  0  1  0  0  3  0  0  0  0  0  0
  191.2240  175.8060  143.4870 O   0  0  0  0  0  0  0  0  0  0  0  0
  185.5410  178.2520  142.5930 S   0  0  0  0  0  1  0  0  0  0  0  0
  189.2080  177.0450  145.0610 C   0  0  0  0  0  3  0  0  0  0  0  0
  187.8470  176.8070  143.0710 C   0  0  0  0  0  3  0  0  0  0  0  0
  188.9640  176.4250  143.8290 C   0  0  0  0  0  0  0  0  0  0  0  0
  186.9690  177.7810  143.5560 C   0  0  0  0  0  0  0  0  0  0  0  0
  188.3300  178.0200  145.5450 C   0  0  0  0  0  3  0  0  0  0  0  0
  187.2090  178.3850  144.7930 C   0  0  0  0  0  3  0  0  0  0  0  0
  187.7600  176.2890  137.9110 N   0  0  0  0  0  2  0  0  0  0  0  0
  187.7890  178.0740  139.4000 F   0  0  0  0  0  0  0  0  0  0  0  0
  187.7740  177.7380  138.0570 C   0  0  2  0  0  3  0  0  0  0  0  0
  186.6040  178.1370  136.0140 F   0  0  0  0  0  0  0  0  0  0  0  0
  186.5490  178.3320  137.3850 C   0  0  0  0  0  3  0  0  0  0  0  0
  185.4020  177.7480  137.8920 F   0  0  0  0  0  0  0  0  0  0  0  0
  1  4  1  0  0  0  0
  1  2  2  0  0  0  0
  2 34  1  0  0  0  0
  4  7  1  0  0  0  0
  5  3  1  0  0  0  0
  5  8  1  1  0  0  0
  6  4  1  0  0  0  0
  6  5  1  0  0  0  0
  7  3  1  0  0  0  0
  8 13  1  0  0  0  0
  9 11  1  1  0  0  0
  9 10  1  0  0  0  0
 10 14  1  0  0  0  0
 12  9  1  0  0  0  0
 12 13  2  0  0  0  0
 13 14  1  0  0  0  0
 15  2  1  0  0  0  0
 15 18  1  0  0  0  0
 16 15  2  0  0  0  0
 17 16  1  0  0  0  0
 18 19  1  0  0  0  0
 19 20  1  0  0  0  0
 20 22  1  0  0  0  0
 22 21  1  1  0  0  0
 22 23  1  0  0  0  0
 23 24  1  0  0  0  0
 24 25  1  0  0  0  0
 24 26  1  0  0  0  0
 25 26  1  0  0  0  0
 25 30  1  1  0  0  0
 27 31  1  0  0  0  0
 28 32  1  0  0  0  0
 29 31  2  0  0  0  0
 29 30  1  0  0  0  0
 30 28  2  0  0  0  0
 31 33  1  0  0  0  0
 33 32  2  0  0  0  0
 34 36  1  0  0  0  0
 36 35  1  1  0  0  0
 37 38  1  0  0  0  0
 38 39  1  0  0  0  0
 38 36  1  0  0  0  0
M  END
>  <MODEL>
9

>  <REMARK>
 VINA RESULT:      -6.7      4.291      7.056
  Name = 
  13 active torsions:
  status: ('A' for Active; 'I' for Inactive)
    1  A    between atoms: C_3  and  N_8
    2  A    between atoms: N_6  and  C_17
    3  A    between atoms: C_11  and  C_13
    4  A    between atoms: C_11  and  C_33
    5  A    between atoms: C_13  and  C_21
    6  A    between atoms: C_16  and  C_30
    7  A    between atoms: N_18  and  C_21
    8  A    between atoms: N_18  and  C_31
    9  A    between atoms: C_20  and  C_36
   10  A    between atoms: N_24  and  N_28
   11  A    between atoms: N_28  and  C_31
   12  A    between atoms: C_33  and  N_34
   13  A    between atoms: N_34  and  C_36
                            x       y       z     vdW  Elec       q    Type
                         _______ _______ _______ _____ _____    ______ ____

>  <TORSDO>
F 13

$$$$
