=
 OpenBabel10232411363D

 46 48  0  0  1  0  0  0  0  0999 V2000
  189.2650  176.6210  143.3400 C   0  0  1  0  0  3  0  0  0  0  0  0
  189.5190  177.7350  140.9210 C   0  0  0  0  0  0  0  0  0  0  0  0
  189.4080  177.2120  142.0030 C   0  0  0  0  0  0  0  0  0  0  0  0
  189.6450  178.4110  139.6250 C   0  0  0  0  0  2  0  0  0  0  0  0
  191.2950  174.8700  137.2120 C   0  0  0  0  0  0  0  0  0  0  0  0
  190.3470  174.2690  136.5360 N   0  0  0  0  0  0  0  0  0  0  0  0
  189.0230  177.6240  138.5660 N   0  0  0  0  0  0  0  0  0  0  0  0
  189.6210  176.6390  137.8660 C   0  0  0  0  0  0  0  0  0  0  0  0
  187.7040  177.5470  138.2600 C   0  0  0  0  0  0  0  0  0  0  0  0
  188.7000  175.9690  137.1180 C   0  0  0  0  0  0  0  0  0  0  0  0
  192.6000  174.2760  137.2120 N   0  0  0  0  0  2  0  0  0  0  0  0
  189.0230  174.7530  136.4570 N   0  0  0  0  0  2  0  0  0  0  0  0
  187.4660  176.5270  137.3470 C   0  0  0  0  0  0  0  0  0  0  0  0
  193.7450  175.8620  138.5130 O   0  0  0  0  0  0  0  0  0  0  0  0
  193.7760  174.7860  137.8540 C   0  0  0  0  0  0  0  0  0  0  0  0
  191.0350  176.1650  137.9910 C   0  0  0  0  0  2  0  0  0  0  0  0
  186.6910  178.3120  138.9030 N   0  0  0  0  0  1  0  0  0  0  0  0
  186.1470  176.0260  136.8720 C   0  0  0  0  0  1  0  0  0  0  0  0
  195.8740  174.2080  138.9980 C   0  0  0  0  0  1  0  0  0  0  0  0
  195.0680  174.0330  137.7120 C   0  0  2  0  0  3  0  0  0  0  0  0
  197.2090  174.7130  136.9150 C   0  0  0  0  0  1  0  0  0  0  0  0
  195.8720  173.4100  135.5610 C   0  0  0  0  0  1  0  0  0  0  0  0
  195.8210  174.4940  136.5320 N   0  0  0  0  0  0  0  0  0  0  0  0
  190.0300  177.4720  144.3490 C   0  0  0  0  0  2  0  0  0  0  0  0
  191.1950  176.7050  144.9630 C   0  0  0  0  0  2  0  0  0  0  0  0
  191.3150  177.0100  146.3840 N   0  0  0  0  0  0  0  0  0  0  0  0
  192.3300  176.2660  146.8890 O   0  0  0  0  0  1  0  0  0  0  0  0
  189.4950  177.7540  147.9220 C   0  0  0  0  0  1  0  0  0  0  0  0
  190.0750  176.6280  147.0620 C   0  0  0  0  0  2  0  0  0  0  0  0
  187.7900  176.5460  143.7240 C   0  0  0  0  0  2  0  0  0  0  0  0
  187.4840  177.4610  144.8720 C   0  0  0  0  0  2  0  0  0  0  0  0
  186.3190  178.0870  144.9900 C   0  0  0  0  0  3  0  0  0  0  0  0
  185.2980  177.9620  143.9980 N   0  0  0  0  0  0  0  0  0  0  0  0
  184.1360  178.7970  144.0020 C   0  0  0  0  0  0  0  0  0  0  0  0
  183.8970  179.5560  144.9840 O   0  0  0  0  0  0  0  0  0  0  0  0
  183.2160  178.7720  142.8580 C   0  0  0  0  0  0  0  0  0  0  0  0
  181.4260  178.7390  141.7250 C   0  0  1  0  0  3  0  0  0  0  0  0
  179.9820  178.6820  141.3590 C   0  0  0  0  0  1  0  0  0  0  0  0
  181.8720  178.8140  142.9910 N   0  0  0  0  0  0  0  0  0  0  0  0
  183.6360  178.6750  141.5760 N   0  0  0  0  0  0  0  0  0  0  0  0
  182.5000  178.6620  140.8640 C   0  0  0  0  0  0  0  0  0  0  0  0
  182.4680  178.5200  139.3700 C   0  0  0  0  0  2  0  0  0  0  0  0
  183.1790  177.2810  138.9120 C   0  0  0  0  0  3  0  0  0  0  0  0
  182.5580  176.1350  138.5960 C   0  0  0  0  0  3  0  0  0  0  0  0
  181.0720  175.9710  138.6600 C   0  0  0  0  0  2  0  0  0  0  0  0
  180.6900  175.2890  139.9600 C   0  0  0  0  0  1  0  0  0  0  0  0
  1  3  1  6  0  0  0
  1 30  1  0  0  0  0
  1 24  1  0  0  0  0
  2  3  3  0  0  0  0
  4  2  1  0  0  0  0
  5 16  1  0  0  0  0
  6  5  2  0  0  0  0
  7  4  1  0  0  0  0
  8 16  1  0  0  0  0
  8  7  1  0  0  0  0
  9  7  1  0  0  0  0
  9 17  1  0  0  0  0
 10 13  1  0  0  0  0
 10  8  2  0  0  0  0
 11  5  1  0  0  0  0
 11 15  1  0  0  0  0
 12  6  1  0  0  0  0
 12 10  1  0  0  0  0
 13  9  2  0  0  0  0
 15 14  2  0  0  0  0
 18 13  1  0  0  0  0
 20 15  1  0  0  0  0
 20 19  1  1  0  0  0
 22 23  1  0  0  0  0
 23 21  1  0  0  0  0
 23 20  1  0  0  0  0
 24 25  1  0  0  0  0
 25 26  1  0  0  0  0
 26 27  1  0  0  0  0
 26 29  1  0  0  0  0
 29 28  1  0  0  0  0
 30 31  1  0  0  0  0
 31 32  1  0  0  0  0
 33 34  1  0  0  0  0
 33 32  2  0  0  0  0
 34 35  2  0  0  0  0
 36 39  2  0  0  0  0
 36 34  1  0  0  0  0
 37 38  1  1  0  0  0
 37 39  1  0  0  0  0
 40 36  1  0  0  0  0
 41 40  2  0  0  0  0
 41 37  1  0  0  0  0
 42 41  1  0  0  0  0
 43 42  1  0  0  0  0
 44 45  1  0  0  0  0
 44 43  2  0  0  0  0
 45 46  1  0  0  0  0
M  END
>  <MODEL>
1

>  <REMARK>
 VINA RESULT:      -7.7      0.000      0.000
  Name = 
  16 active torsions:
  status: ('A' for Active; 'I' for Inactive)
    1  A    between atoms: N_2  and  C_28
    2  A    between atoms: N_2  and  C_45
    3  A    between atoms: C_3  and  C_19
    4  A    between atoms: C_4  and  C_27
    5  A    between atoms: C_5  and  C_25
    6  A    between atoms: N_9  and  C_14
    7  A    between atoms: N_12  and  C_46
    8  A    between atoms: C_13  and  C_15
    9  A    between atoms: C_17  and  C_46
   10  A    between atoms: C_18  and  C_20
   11  A    between atoms: C_18  and  C_28
   12  A    between atoms: C_19  and  C_20
   13  A    between atoms: C_20  and  C_41
   14  A    between atoms: C_21  and  N_34
   15  A    between atoms: C_21  and  C_38
   16  A    between atoms: C_27  and  C_32
                            x       y       z     vdW  Elec       q    Type
                         _______ _______ _______ _____ _____    ______ ____

>  <TORSDO>
F 16

$$$$
=
 OpenBabel10232411363D

 46 48  0  0  1  0  0  0  0  0999 V2000
  188.9420  176.7780  143.0040 C   0  0  1  0  0  3  0  0  0  0  0  0
  189.3500  177.8560  140.5900 C   0  0  0  0  0  0  0  0  0  0  0  0
  189.1840  177.3800  141.6860 C   0  0  0  0  0  0  0  0  0  0  0  0
  189.5140  178.4110  139.2420 C   0  0  0  0  0  2  0  0  0  0  0  0
  191.4560  174.8500  137.0910 C   0  0  0  0  0  0  0  0  0  0  0  0
  190.5650  174.1310  136.4540 N   0  0  0  0  0  0  0  0  0  0  0  0
  188.9660  177.5070  138.2360 N   0  0  0  0  0  0  0  0  0  0  0  0
  189.6450  176.5250  137.6100 C   0  0  0  0  0  0  0  0  0  0  0  0
  187.6600  177.3090  137.9290 C   0  0  0  0  0  0  0  0  0  0  0  0
  188.7870  175.7370  136.9060 C   0  0  0  0  0  0  0  0  0  0  0  0
  192.8030  174.3590  137.1410 N   0  0  0  0  0  2  0  0  0  0  0  0
  189.2090  174.5070  136.3340 N   0  0  0  0  0  2  0  0  0  0  0  0
  187.5110  176.2120  137.0890 C   0  0  0  0  0  0  0  0  0  0  0  0
  193.8090  176.1140  138.3340 O   0  0  0  0  0  0  0  0  0  0  0  0
  193.9290  175.0020  137.7520 C   0  0  0  0  0  0  0  0  0  0  0  0
  191.0900  176.1710  137.7770 C   0  0  0  0  0  2  0  0  0  0  0  0
  186.5840  178.0360  138.5120 N   0  0  0  0  0  1  0  0  0  0  0  0
  186.2390  175.5790  136.6410 C   0  0  0  0  0  1  0  0  0  0  0  0
  195.7260  173.9820  139.0870 C   0  0  0  0  0  1  0  0  0  0  0  0
  195.2760  174.3420  137.6710 C   0  0  2  0  0  3  0  0  0  0  0  0
  197.5900  174.6830  137.2120 C   0  0  0  0  0  1  0  0  0  0  0  0
  196.0430  175.1230  135.5590 C   0  0  0  0  0  1  0  0  0  0  0  0
  196.2520  175.2160  136.9970 N   0  0  0  0  0  0  0  0  0  0  0  0
  189.6800  177.5850  144.0660 C   0  0  0  0  0  2  0  0  0  0  0  0
  190.6400  176.7140  144.8680 C   0  0  0  0  0  2  0  0  0  0  0  0
  190.8200  177.2550  146.2110 N   0  0  0  0  0  0  0  0  0  0  0  0
  192.0120  176.8150  146.6840 O   0  0  0  0  0  1  0  0  0  0  0  0
  189.0440  177.8530  147.8580 C   0  0  0  0  0  1  0  0  0  0  0  0
  189.7570  176.7460  147.0790 C   0  0  0  0  0  2  0  0  0  0  0  0
  187.4450  176.7570  143.3030 C   0  0  0  0  0  2  0  0  0  0  0  0
  187.1000  177.7200  144.3980 C   0  0  0  0  0  3  0  0  0  0  0  0
  185.9380  178.3610  144.4420 C   0  0  0  0  0  3  0  0  0  0  0  0
  184.9590  178.2040  143.4130 N   0  0  0  0  0  2  0  0  0  0  0  0
  184.9970  178.9810  142.2110 C   0  0  0  0  0  0  0  0  0  0  0  0
  185.8010  179.9500  142.1010 O   0  0  0  0  0  0  0  0  0  0  0  0
  184.0960  178.6500  141.1000 C   0  0  0  0  0  0  0  0  0  0  0  0
  182.9470  178.8290  139.3300 C   0  0  1  0  0  3  0  0  0  0  0  0
  182.2920  179.3980  138.1170 C   0  0  0  0  0  1  0  0  0  0  0  0
  183.8180  179.5090  140.0950 N   0  0  0  0  0  0  0  0  0  0  0  0
  183.4460  177.4670  141.0050 N   0  0  0  0  0  0  0  0  0  0  0  0
  182.7260  177.5840  139.8800 C   0  0  0  0  0  0  0  0  0  0  0  0
  181.7980  176.5150  139.3840 C   0  0  0  0  0  2  0  0  0  0  0  0
  182.5460  175.3180  138.8740 C   0  0  0  0  0  3  0  0  0  0  0  0
  182.7200  175.0430  137.5730 C   0  0  0  0  0  3  0  0  0  0  0  0
  182.1880  175.9150  136.4790 C   0  0  0  0  0  2  0  0  0  0  0  0
  182.3950  175.2340  135.1390 C   0  0  0  0  0  1  0  0  0  0  0  0
  1  3  1  6  0  0  0
  1 30  1  0  0  0  0
  1 24  1  0  0  0  0
  2  3  3  0  0  0  0
  4  2  1  0  0  0  0
  5 11  1  0  0  0  0
  5 16  1  0  0  0  0
  6  5  2  0  0  0  0
  7  4  1  0  0  0  0
  8 16  1  0  0  0  0
  8  7  1  0  0  0  0
  9  7  1  0  0  0  0
  9 17  1  0  0  0  0
 10 13  1  0  0  0  0
 10  8  2  0  0  0  0
 11 15  1  0  0  0  0
 12  6  1  0  0  0  0
 12 10  1  0  0  0  0
 13  9  2  0  0  0  0
 15 14  2  0  0  0  0
 18 13  1  0  0  0  0
 20 15  1  0  0  0  0
 20 19  1  1  0  0  0
 22 23  1  0  0  0  0
 23 21  1  0  0  0  0
 23 20  1  0  0  0  0
 24 25  1  0  0  0  0
 25 26  1  0  0  0  0
 26 27  1  0  0  0  0
 26 29  1  0  0  0  0
 29 28  1  0  0  0  0
 30 31  1  0  0  0  0
 31 32  2  0  0  0  0
 33 32  1  0  0  0  0
 34 33  1  0  0  0  0
 35 34  2  0  0  0  0
 36 34  1  0  0  0  0
 37 38  1  1  0  0  0
 37 41  1  0  0  0  0
 37 39  1  0  0  0  0
 39 36  2  0  0  0  0
 40 36  1  0  0  0  0
 41 40  2  0  0  0  0
 42 41  1  0  0  0  0
 43 42  1  0  0  0  0
 44 43  2  0  0  0  0
 45 44  1  0  0  0  0
 46 45  1  0  0  0  0
M  END
>  <MODEL>
2

>  <REMARK>
 VINA RESULT:      -7.5      1.197      1.577
  Name = 
  16 active torsions:
  status: ('A' for Active; 'I' for Inactive)
    1  A    between atoms: N_2  and  C_28
    2  A    between atoms: N_2  and  C_45
    3  A    between atoms: C_3  and  C_19
    4  A    between atoms: C_4  and  C_27
    5  A    between atoms: C_5  and  C_25
    6  A    between atoms: N_9  and  C_14
    7  A    between atoms: N_12  and  C_46
    8  A    between atoms: C_13  and  C_15
    9  A    between atoms: C_17  and  C_46
   10  A    between atoms: C_18  and  C_20
   11  A    between atoms: C_18  and  C_28
   12  A    between atoms: C_19  and  C_20
   13  A    between atoms: C_20  and  C_41
   14  A    between atoms: C_21  and  N_34
   15  A    between atoms: C_21  and  C_38
   16  A    between atoms: C_27  and  C_32
                            x       y       z     vdW  Elec       q    Type
                         _______ _______ _______ _____ _____    ______ ____

>  <TORSDO>
F 16

$$$$
=
 OpenBabel10232411363D

 46 48  0  0  1  0  0  0  0  0999 V2000
  189.7170  176.7030  143.6510 C   0  0  1  0  0  3  0  0  0  0  0  0
  190.6420  177.2350  141.1980 C   0  0  0  0  0  0  0  0  0  0  0  0
  190.2440  176.9850  142.3090 C   0  0  0  0  0  0  0  0  0  0  0  0
  191.0850  177.5610  139.8380 C   0  0  0  0  0  2  0  0  0  0  0  0
  191.2440  174.0790  136.8490 C   0  0  0  0  0  0  0  0  0  0  0  0
  190.0690  173.8510  136.3170 N   0  0  0  0  0  0  0  0  0  0  0  0
  190.1040  177.1230  138.8520 N   0  0  0  0  0  0  0  0  0  0  0  0
  190.2740  176.1210  137.9660 C   0  0  0  0  0  0  0  0  0  0  0  0
  188.7870  177.4430  138.7990 C   0  0  0  0  0  0  0  0  0  0  0  0
  189.0940  175.8310  137.3530 C   0  0  0  0  0  0  0  0  0  0  0  0
  192.3070  173.1640  136.5470 N   0  0  0  0  0  2  0  0  0  0  0  0
  188.9450  174.6770  136.5370 N   0  0  0  0  0  2  0  0  0  0  0  0
  188.1240  176.6600  137.8620 C   0  0  0  0  0  0  0  0  0  0  0  0
  194.0510  174.1920  137.7390 O   0  0  0  0  0  0  0  0  0  0  0  0
  193.6660  173.2500  136.9940 C   0  0  0  0  0  0  0  0  0  0  0  0
  191.4940  175.2750  137.7750 C   0  0  0  0  0  2  0  0  0  0  0  0
  188.1510  178.3530  139.6900 N   0  0  0  0  0  1  0  0  0  0  0  0
  186.6580  176.5990  137.6060 C   0  0  0  0  0  1  0  0  0  0  0  0
  194.8550  172.3600  135.0340 C   0  0  0  0  0  1  0  0  0  0  0  0
  194.6480  172.2070  136.5400 C   0  0  2  0  0  3  0  0  0  0  0  0
  194.1460  170.0410  135.6830 C   0  0  0  0  0  1  0  0  0  0  0  0
  195.1840  170.2210  137.7340 C   0  0  0  0  0  1  0  0  0  0  0  0
  194.1810  170.8550  136.8900 N   0  0  0  0  0  0  0  0  0  0  0  0
  190.5130  177.5000  144.6790 C   0  0  0  0  0  2  0  0  0  0  0  0
  191.5290  176.6260  145.4040 C   0  0  0  0  0  2  0  0  0  0  0  0
  191.5660  176.9560  146.8250 N   0  0  0  0  0  0  0  0  0  0  0  0
  192.5000  176.1690  147.4140 O   0  0  0  0  0  1  0  0  0  0  0  0
  189.6810  177.8380  148.2010 C   0  0  0  0  0  1  0  0  0  0  0  0
  190.2630  176.6580  147.4200 C   0  0  0  0  0  2  0  0  0  0  0  0
  188.2390  177.0780  143.7230 C   0  0  0  0  0  2  0  0  0  0  0  0
  187.9010  177.6890  145.0490 C   0  0  0  0  0  2  0  0  0  0  0  0
  186.6800  178.1210  145.3420 C   0  0  0  0  0  3  0  0  0  0  0  0
  185.6200  178.0720  144.3860 N   0  0  0  0  0  0  0  0  0  0  0  0
  184.3250  178.6140  144.6650 C   0  0  0  0  0  0  0  0  0  0  0  0
  184.0320  179.0010  145.8330 O   0  0  0  0  0  0  0  0  0  0  0  0
  183.3310  178.7220  143.5900 C   0  0  0  0  0  0  0  0  0  0  0  0
  181.4830  178.9820  142.5860 C   0  0  1  0  0  3  0  0  0  0  0  0
  180.0290  179.1780  142.3240 C   0  0  0  0  0  1  0  0  0  0  0  0
  182.0310  179.0130  143.8140 N   0  0  0  0  0  0  0  0  0  0  0  0
  183.6280  178.5100  142.2870 N   0  0  0  0  0  0  0  0  0  0  0  0
  182.4580  178.6830  141.6570 C   0  0  0  0  0  0  0  0  0  0  0  0
  182.2870  178.5040  140.1770 C   0  0  0  0  0  2  0  0  0  0  0  0
  183.2120  179.3900  139.3970 C   0  0  0  0  0  3  0  0  0  0  0  0
  182.8000  180.4030  138.6200 C   0  0  0  0  0  3  0  0  0  0  0  0
  181.3580  180.7650  138.4520 C   0  0  0  0  0  2  0  0  0  0  0  0
  180.8550  180.2500  137.1170 C   0  0  0  0  0  1  0  0  0  0  0  0
  1  3  1  6  0  0  0
  1 30  1  0  0  0  0
  1 24  1  0  0  0  0
  2  3  3  0  0  0  0
  4  2  1  0  0  0  0
  5 16  1  0  0  0  0
  6 12  1  0  0  0  0
  6  5  2  0  0  0  0
  7  4  1  0  0  0  0
  8  7  1  0  0  0  0
  9  7  1  0  0  0  0
  9 17  1  0  0  0  0
 10 13  1  0  0  0  0
 10  8  2  0  0  0  0
 11  5  1  0  0  0  0
 11 15  1  0  0  0  0
 12 10  1  0  0  0  0
 13  9  2  0  0  0  0
 15 14  2  0  0  0  0
 16  8  1  0  0  0  0
 18 13  1  0  0  0  0
 20 19  1  6  0  0  0
 20 23  1  0  0  0  0
 20 15  1  0  0  0  0
 21 23  1  0  0  0  0
 23 22  1  0  0  0  0
 24 25  1  0  0  0  0
 25 26  1  0  0  0  0
 26 27  1  0  0  0  0
 26 29  1  0  0  0  0
 29 28  1  0  0  0  0
 30 31  1  0  0  0  0
 31 32  1  0  0  0  0
 33 34  1  0  0  0  0
 33 32  2  0  0  0  0
 34 35  2  0  0  0  0
 36 39  2  0  0  0  0
 36 34  1  0  0  0  0
 37 38  1  1  0  0  0
 37 39  1  0  0  0  0
 40 36  1  0  0  0  0
 41 40  2  0  0  0  0
 41 37  1  0  0  0  0
 42 41  1  0  0  0  0
 43 42  1  0  0  0  0
 44 43  2  0  0  0  0
 45 44  1  0  0  0  0
 46 45  1  0  0  0  0
M  END
>  <MODEL>
3

>  <REMARK>
 VINA RESULT:      -7.3      1.546      2.096
  Name = 
  16 active torsions:
  status: ('A' for Active; 'I' for Inactive)
    1  A    between atoms: N_2  and  C_28
    2  A    between atoms: N_2  and  C_45
    3  A    between atoms: C_3  and  C_19
    4  A    between atoms: C_4  and  C_27
    5  A    between atoms: C_5  and  C_25
    6  A    between atoms: N_9  and  C_14
    7  A    between atoms: N_12  and  C_46
    8  A    between atoms: C_13  and  C_15
    9  A    between atoms: C_17  and  C_46
   10  A    between atoms: C_18  and  C_20
   11  A    between atoms: C_18  and  C_28
   12  A    between atoms: C_19  and  C_20
   13  A    between atoms: C_20  and  C_41
   14  A    between atoms: C_21  and  N_34
   15  A    between atoms: C_21  and  C_38
   16  A    between atoms: C_27  and  C_32
                            x       y       z     vdW  Elec       q    Type
                         _______ _______ _______ _____ _____    ______ ____

>  <TORSDO>
F 16

$$$$
=
 OpenBabel10232411363D

 46 48  0  0  1  0  0  0  0  0999 V2000
  188.5320  178.4500  139.7760 C   0  0  1  0  0  3  0  0  0  0  0  0
  189.0190  178.0020  137.1840 C   0  0  0  0  0  0  0  0  0  0  0  0
  188.7840  178.1880  138.3530 C   0  0  0  0  0  0  0  0  0  0  0  0
  189.3360  177.8090  135.7650 C   0  0  0  0  0  2  0  0  0  0  0  0
  191.8410  173.9610  135.7290 C   0  0  0  0  0  0  0  0  0  0  0  0
  191.0940  172.9060  135.5130 N   0  0  0  0  0  0  0  0  0  0  0  0
  188.9830  176.4620  135.3310 N   0  0  0  0  0  0  0  0  0  0  0  0
  189.8190  175.4040  135.2960 C   0  0  0  0  0  0  0  0  0  0  0  0
  187.7410  175.9580  135.1300 C   0  0  0  0  0  0  0  0  0  0  0  0
  189.1190  174.2610  135.0580 C   0  0  0  0  0  0  0  0  0  0  0  0
  193.2230  173.7510  136.0510 N   0  0  0  0  0  2  0  0  0  0  0  0
  189.7220  172.9810  135.1870 N   0  0  0  0  0  2  0  0  0  0  0  0
  187.7880  174.5810  134.9460 C   0  0  0  0  0  0  0  0  0  0  0  0
  193.9190  175.9870  136.2340 O   0  0  0  0  0  0  0  0  0  0  0  0
  194.2120  174.7610  136.2890 C   0  0  0  0  0  0  0  0  0  0  0  0
  191.2720  175.3830  135.6540 C   0  0  0  0  0  2  0  0  0  0  0  0
  186.5430  176.7190  135.2450 N   0  0  0  0  0  1  0  0  0  0  0  0
  186.6390  173.6400  134.8430 C   0  0  0  0  0  1  0  0  0  0  0  0
  195.6900  172.8150  136.5610 C   0  0  0  0  0  1  0  0  0  0  0  0
  195.6250  174.3420  136.5810 C   0  0  2  0  0  3  0  0  0  0  0  0
  195.4480  174.1400  138.9500 C   0  0  0  0  0  1  0  0  0  0  0  0
  197.5030  174.6120  138.0150 C   0  0  0  0  0  1  0  0  0  0  0  0
  196.0800  174.8880  137.8710 N   0  0  0  0  0  0  0  0  0  0  0  0
  187.0300  178.4040  140.0350 C   0  0  0  0  0  2  0  0  0  0  0  0
  186.7010  178.7040  141.4920 C   0  0  0  0  0  2  0  0  0  0  0  0
  185.4930  179.5170  141.5870 N   0  0  0  0  0  0  0  0  0  0  0  0
  185.1150  179.5580  142.8880 O   0  0  0  0  0  1  0  0  0  0  0  0
  183.2220  178.4860  141.6660 C   0  0  0  0  0  1  0  0  0  0  0  0
  184.4260  178.8830  140.8100 C   0  0  0  0  0  2  0  0  0  0  0  0
  189.2470  177.4110  140.6340 C   0  0  0  0  0  2  0  0  0  0  0  0
  190.6750  177.2480  140.2070 C   0  0  0  0  0  3  0  0  0  0  0  0
  191.6810  177.2480  141.0740 C   0  0  0  0  0  3  0  0  0  0  0  0
  191.4630  177.4520  142.4720 N   0  0  0  0  0  2  0  0  0  0  0  0
  191.0360  176.3900  143.3320 C   0  0  0  0  0  0  0  0  0  0  0  0
  190.6730  175.2810  142.8460 O   0  0  0  0  0  0  0  0  0  0  0  0
  191.0190  176.5910  144.7860 C   0  0  0  0  0  0  0  0  0  0  0  0
  191.5490  176.4670  146.8330 C   0  0  1  0  0  3  0  0  0  0  0  0
  192.2370  176.0780  148.0970 C   0  0  0  0  0  1  0  0  0  0  0  0
  191.9550  176.0760  145.6130 N   0  0  0  0  0  0  0  0  0  0  0  0
  190.0470  177.2840  145.4230 N   0  0  0  0  0  0  0  0  0  0  0  0
  190.3920  177.2080  146.7160 C   0  0  0  0  0  0  0  0  0  0  0  0
  189.5710  177.8050  147.8220 C   0  0  0  0  0  2  0  0  0  0  0  0
  188.3120  177.0260  148.0650 C   0  0  0  0  0  3  0  0  0  0  0  0
  187.1110  177.3750  147.5800 C   0  0  0  0  0  3  0  0  0  0  0  0
  186.8990  178.5870  146.7290 C   0  0  0  0  0  2  0  0  0  0  0  0
  185.4380  178.6790  146.3290 C   0  0  0  0  0  1  0  0  0  0  0  0
  1  3  1  6  0  0  0
  1 24  1  0  0  0  0
  1 30  1  0  0  0  0
  2  3  3  0  0  0  0
  4  2  1  0  0  0  0
  5 11  1  0  0  0  0
  6  5  2  0  0  0  0
  7  4  1  0  0  0  0
  8  7  1  0  0  0  0
  8 16  1  0  0  0  0
  9 17  1  0  0  0  0
  9  7  1  0  0  0  0
 10 12  1  0  0  0  0
 10  8  2  0  0  0  0
 11 15  1  0  0  0  0
 12  6  1  0  0  0  0
 13 10  1  0  0  0  0
 13  9  2  0  0  0  0
 14 15  2  0  0  0  0
 15 20  1  0  0  0  0
 16  5  1  0  0  0  0
 18 13  1  0  0  0  0
 20 19  1  1  0  0  0
 20 23  1  0  0  0  0
 23 22  1  0  0  0  0
 23 21  1  0  0  0  0
 24 25  1  0  0  0  0
 25 26  1  0  0  0  0
 26 27  1  0  0  0  0
 29 26  1  0  0  0  0
 29 28  1  0  0  0  0
 31 30  1  0  0  0  0
 31 32  2  0  0  0  0
 32 33  1  0  0  0  0
 33 34  1  0  0  0  0
 34 36  1  0  0  0  0
 35 34  2  0  0  0  0
 36 40  1  0  0  0  0
 36 39  2  0  0  0  0
 37 38  1  1  0  0  0
 39 37  1  0  0  0  0
 40 41  2  0  0  0  0
 41 37  1  0  0  0  0
 41 42  1  0  0  0  0
 42 43  1  0  0  0  0
 44 43  2  0  0  0  0
 45 44  1  0  0  0  0
 46 45  1  0  0  0  0
M  END
>  <MODEL>
4

>  <REMARK>
 VINA RESULT:      -7.2      2.326      6.597
  Name = 
  16 active torsions:
  status: ('A' for Active; 'I' for Inactive)
    1  A    between atoms: N_2  and  C_28
    2  A    between atoms: N_2  and  C_45
    3  A    between atoms: C_3  and  C_19
    4  A    between atoms: C_4  and  C_27
    5  A    between atoms: C_5  and  C_25
    6  A    between atoms: N_9  and  C_14
    7  A    between atoms: N_12  and  C_46
    8  A    between atoms: C_13  and  C_15
    9  A    between atoms: C_17  and  C_46
   10  A    between atoms: C_18  and  C_20
   11  A    between atoms: C_18  and  C_28
   12  A    between atoms: C_19  and  C_20
   13  A    between atoms: C_20  and  C_41
   14  A    between atoms: C_21  and  N_34
   15  A    between atoms: C_21  and  C_38
   16  A    between atoms: C_27  and  C_32
                            x       y       z     vdW  Elec       q    Type
                         _______ _______ _______ _____ _____    ______ ____

>  <TORSDO>
F 16

$$$$
=
 OpenBabel10232411363D

 46 48  0  0  1  0  0  0  0  0999 V2000
  186.7810  178.3940  141.0970 C   0  0  1  0  0  3  0  0  0  0  0  0
  186.6470  177.8900  138.4730 C   0  0  0  0  0  0  0  0  0  0  0  0
  186.7140  178.0970  139.6600 C   0  0  0  0  0  0  0  0  0  0  0  0
  186.5520  177.6840  137.0240 C   0  0  0  0  0  2  0  0  0  0  0  0
  189.6850  174.3280  137.0830 C   0  0  0  0  0  0  0  0  0  0  0  0
  189.1240  173.1480  136.9910 N   0  0  0  0  0  0  0  0  0  0  0  0
  186.4170  176.2650  136.7090 N   0  0  0  0  0  0  0  0  0  0  0  0
  187.4210  175.3660  136.6900 C   0  0  0  0  0  0  0  0  0  0  0  0
  185.2730  175.5430  136.6280 C   0  0  0  0  0  0  0  0  0  0  0  0
  186.9210  174.1050  136.5790 C   0  0  0  0  0  0  0  0  0  0  0  0
  191.0990  174.3830  137.3240 N   0  0  0  0  0  2  0  0  0  0  0  0
  187.7450  172.9610  136.7550 N   0  0  0  0  0  2  0  0  0  0  0  0
  185.5500  174.1840  136.5360 C   0  0  0  0  0  0  0  0  0  0  0  0
  191.4020  176.7120  137.3050 O   0  0  0  0  0  0  0  0  0  0  0  0
  191.9070  175.5620  137.4240 C   0  0  0  0  0  0  0  0  0  0  0  0
  188.8740  175.6220  136.9490 C   0  0  0  0  0  2  0  0  0  0  0  0
  183.9690  176.0950  136.7710 N   0  0  0  0  0  1  0  0  0  0  0  0
  184.5790  173.0560  136.5760 C   0  0  0  0  0  1  0  0  0  0  0  0
  194.1210  176.1490  136.5280 C   0  0  0  0  0  1  0  0  0  0  0  0
  193.3850  175.4150  137.6480 C   0  0  2  0  0  3  0  0  0  0  0  0
  194.1040  173.5370  136.3690 C   0  0  0  0  0  1  0  0  0  0  0  0
  195.0140  173.8830  138.4590 C   0  0  0  0  0  1  0  0  0  0  0  0
  193.7700  173.9940  137.7110 N   0  0  0  0  0  0  0  0  0  0  0  0
  188.2020  178.8150  141.4550 C   0  0  0  0  0  2  0  0  0  0  0  0
  188.7670  177.9770  142.5960 C   0  0  0  0  0  2  0  0  0  0  0  0
  188.8830  176.5790  142.1940 N   0  0  0  0  0  0  0  0  0  0  0  0
  188.8160  175.8140  143.3110 O   0  0  0  0  0  1  0  0  0  0  0  0
  191.3070  177.1730  142.2250 C   0  0  0  0  0  1  0  0  0  0  0  0
  190.1860  176.3690  141.5620 C   0  0  0  0  0  2  0  0  0  0  0  0
  185.7980  179.5070  141.4480 C   0  0  0  0  0  2  0  0  0  0  0  0
  184.4700  178.9450  141.8580 C   0  0  0  0  0  3  0  0  0  0  0  0
  184.2940  178.3040  143.0070 C   0  0  0  0  0  3  0  0  0  0  0  0
  185.3790  178.0690  143.9060 N   0  0  0  0  0  2  0  0  0  0  0  0
  185.4160  178.6510  145.2140 C   0  0  0  0  0  0  0  0  0  0  0  0
  184.5690  179.5280  145.5470 O   0  0  0  0  0  0  0  0  0  0  0  0
  186.4420  178.2260  146.1730 C   0  0  0  0  0  0  0  0  0  0  0  0
  187.5620  178.0460  147.9630 C   0  0  1  0  0  3  0  0  0  0  0  0
  188.0490  178.2530  149.3560 C   0  0  0  0  0  1  0  0  0  0  0  0
  186.4620  178.6330  147.4610 N   0  0  0  0  0  0  0  0  0  0  0  0
  187.4720  177.4140  145.8400 N   0  0  0  0  0  0  0  0  0  0  0  0
  188.1720  177.2970  146.9780 C   0  0  0  0  0  0  0  0  0  0  0  0
  189.4470  176.5130  147.0810 C   0  0  0  0  0  2  0  0  0  0  0  0
  190.5240  177.0800  146.2050 C   0  0  0  0  0  3  0  0  0  0  0  0
  191.7640  176.5730  146.1180 C   0  0  0  0  0  3  0  0  0  0  0  0
  192.2050  175.3690  146.8880 C   0  0  0  0  0  2  0  0  0  0  0  0
  192.7330  175.7980  148.2440 C   0  0  0  0  0  1  0  0  0  0  0  0
  1  3  1  6  0  0  0
  1 30  1  0  0  0  0
  1 24  1  0  0  0  0
  2  3  3  0  0  0  0
  4  2  1  0  0  0  0
  5 11  1  0  0  0  0
  6  5  2  0  0  0  0
  7  4  1  0  0  0  0
  8  7  1  0  0  0  0
  8 16  1  0  0  0  0
  9  7  1  0  0  0  0
  9 17  1  0  0  0  0
 10  8  2  0  0  0  0
 10 12  1  0  0  0  0
 11 15  1  0  0  0  0
 12  6  1  0  0  0  0
 13 18  1  0  0  0  0
 13 10  1  0  0  0  0
 13  9  2  0  0  0  0
 14 15  2  0  0  0  0
 15 20  1  0  0  0  0
 16  5  1  0  0  0  0
 20 19  1  6  0  0  0
 20 23  1  0  0  0  0
 21 23  1  0  0  0  0
 23 22  1  0  0  0  0
 24 25  1  0  0  0  0
 26 25  1  0  0  0  0
 26 27  1  0  0  0  0
 29 26  1  0  0  0  0
 29 28  1  0  0  0  0
 30 31  1  0  0  0  0
 31 32  2  0  0  0  0
 32 33  1  0  0  0  0
 33 34  1  0  0  0  0
 34 35  2  0  0  0  0
 34 36  1  0  0  0  0
 36 39  2  0  0  0  0
 37 38  1  6  0  0  0
 39 37  1  0  0  0  0
 40 36  1  0  0  0  0
 40 41  2  0  0  0  0
 41 42  1  0  0  0  0
 41 37  1  0  0  0  0
 43 42  1  0  0  0  0
 44 43  2  0  0  0  0
 44 45  1  0  0  0  0
 45 46  1  0  0  0  0
M  END
>  <MODEL>
5

>  <REMARK>
 VINA RESULT:      -7.1      2.476      5.797
  Name = 
  16 active torsions:
  status: ('A' for Active; 'I' for Inactive)
    1  A    between atoms: N_2  and  C_28
    2  A    between atoms: N_2  and  C_45
    3  A    between atoms: C_3  and  C_19
    4  A    between atoms: C_4  and  C_27
    5  A    between atoms: C_5  and  C_25
    6  A    between atoms: N_9  and  C_14
    7  A    between atoms: N_12  and  C_46
    8  A    between atoms: C_13  and  C_15
    9  A    between atoms: C_17  and  C_46
   10  A    between atoms: C_18  and  C_20
   11  A    between atoms: C_18  and  C_28
   12  A    between atoms: C_19  and  C_20
   13  A    between atoms: C_20  and  C_41
   14  A    between atoms: C_21  and  N_34
   15  A    between atoms: C_21  and  C_38
   16  A    between atoms: C_27  and  C_32
                            x       y       z     vdW  Elec       q    Type
                         _______ _______ _______ _____ _____    ______ ____

>  <TORSDO>
F 16

$$$$
=
 OpenBabel10232411363D

 46 48  0  0  1  0  0  0  0  0999 V2000
  184.2930  179.1130  140.1600 C   0  0  1  0  0  3  0  0  0  0  0  0
  185.6330  178.0730  138.0910 C   0  0  0  0  0  0  0  0  0  0  0  0
  185.0310  178.5230  139.0350 C   0  0  0  0  0  0  0  0  0  0  0  0
  186.3580  177.5670  136.9210 C   0  0  0  0  0  2  0  0  0  0  0  0
  189.5000  174.2380  137.2770 C   0  0  0  0  0  0  0  0  0  0  0  0
  188.9390  173.0570  137.3710 N   0  0  0  0  0  0  0  0  0  0  0  0
  186.2130  176.1190  136.8050 N   0  0  0  0  0  0  0  0  0  0  0  0
  187.2170  175.2220  136.8580 C   0  0  0  0  0  0  0  0  0  0  0  0
  185.0670  175.3970  136.8770 C   0  0  0  0  0  0  0  0  0  0  0  0
  186.7150  173.9600  136.9410 C   0  0  0  0  0  0  0  0  0  0  0  0
  190.9240  174.3190  137.4410 N   0  0  0  0  0  2  0  0  0  0  0  0
  187.5500  172.8460  137.2280 N   0  0  0  0  0  2  0  0  0  0  0  0
  185.3440  174.0370  136.9540 C   0  0  0  0  0  0  0  0  0  0  0  0
  191.2190  176.6240  137.0960 O   0  0  0  0  0  0  0  0  0  0  0  0
  191.7320  175.4980  137.3430 C   0  0  0  0  0  0  0  0  0  0  0  0
  188.6800  175.5040  137.0100 C   0  0  0  0  0  2  0  0  0  0  0  0
  183.7700  175.9680  137.0070 N   0  0  0  0  0  1  0  0  0  0  0  0
  184.3790  172.9280  137.1910 C   0  0  0  0  0  1  0  0  0  0  0  0
  193.9020  176.2140  136.4320 C   0  0  0  0  0  1  0  0  0  0  0  0
  193.2200  175.3760  137.5140 C   0  0  2  0  0  3  0  0  0  0  0  0
  194.0710  173.6580  136.0980 C   0  0  0  0  0  1  0  0  0  0  0  0
  194.8450  173.8100  138.2650 C   0  0  0  0  0  1  0  0  0  0  0  0
  193.6440  173.9670  137.4560 N   0  0  0  0  0  0  0  0  0  0  0  0
  182.8400  179.3240  139.7500 C   0  0  0  0  0  2  0  0  0  0  0  0
  182.7150  180.3490  138.6300 C   0  0  0  0  0  2  0  0  0  0  0  0
  181.3340  180.8010  138.5010 N   0  0  0  0  0  0  0  0  0  0  0  0
  180.7650  180.1250  137.4720 O   0  0  0  0  0  1  0  0  0  0  0  0
  180.0060  182.6910  137.5570 C   0  0  0  0  0  1  0  0  0  0  0  0
  181.3240  182.2290  138.1820 C   0  0  0  0  0  2  0  0  0  0  0  0
  184.3690  178.1930  141.3760 C   0  0  0  0  0  2  0  0  0  0  0  0
  183.3090  178.5340  142.3780 C   0  0  0  0  0  3  0  0  0  0  0  0
  183.5850  178.7510  143.6590 C   0  0  0  0  0  3  0  0  0  0  0  0
  184.9130  178.6260  144.1690 N   0  0  0  0  0  2  0  0  0  0  0  0
  185.1790  178.5620  145.5740 C   0  0  0  0  0  0  0  0  0  0  0  0
  184.2580  178.7860  146.4100 O   0  0  0  0  0  0  0  0  0  0  0  0
  186.5300  178.2330  146.0470 C   0  0  0  0  0  0  0  0  0  0  0  0
  188.1990  177.9780  147.3260 C   0  0  1  0  0  3  0  0  0  0  0  0
  189.0780  178.0000  148.5300 C   0  0  0  0  0  1  0  0  0  0  0  0
  186.9050  178.3390  147.3410 N   0  0  0  0  0  0  0  0  0  0  0  0
  187.5210  177.8250  145.2210 N   0  0  0  0  0  0  0  0  0  0  0  0
  188.5720  177.6580  146.0370 C   0  0  0  0  0  0  0  0  0  0  0  0
  189.9310  177.2460  145.5520 C   0  0  0  0  0  2  0  0  0  0  0  0
  190.5110  178.2500  144.5990 C   0  0  0  0  0  3  0  0  0  0  0  0
  190.5110  178.1030  143.2660 C   0  0  0  0  0  3  0  0  0  0  0  0
  189.9180  176.9130  142.5790 C   0  0  0  0  0  2  0  0  0  0  0  0
  188.6770  177.3320  141.8140 C   0  0  0  0  0  1  0  0  0  0  0  0
  1  3  1  6  0  0  0
  1 30  1  0  0  0  0
  2  3  3  0  0  0  0
  4  2  1  0  0  0  0
  5  6  2  0  0  0  0
  5 11  1  0  0  0  0
  7  8  1  0  0  0  0
  7  9  1  0  0  0  0
  7  4  1  0  0  0  0
  8 10  2  0  0  0  0
  8 16  1  0  0  0  0
  9 13  2  0  0  0  0
  9 17  1  0  0  0  0
 10 13  1  0  0  0  0
 10 12  1  0  0  0  0
 12  6  1  0  0  0  0
 13 18  1  0  0  0  0
 14 15  2  0  0  0  0
 15 11  1  0  0  0  0
 15 20  1  0  0  0  0
 16  5  1  0  0  0  0
 20 19  1  6  0  0  0
 21 23  1  0  0  0  0
 23 20  1  0  0  0  0
 23 22  1  0  0  0  0
 24  1  1  0  0  0  0
 25 24  1  0  0  0  0
 26 25  1  0  0  0  0
 27 26  1  0  0  0  0
 28 29  1  0  0  0  0
 29 26  1  0  0  0  0
 30 31  1  0  0  0  0
 31 32  2  0  0  0  0
 32 33  1  0  0  0  0
 33 34  1  0  0  0  0
 34 36  1  0  0  0  0
 34 35  2  0  0  0  0
 36 39  2  0  0  0  0
 37 39  1  0  0  0  0
 37 38  1  6  0  0  0
 40 41  2  0  0  0  0
 40 36  1  0  0  0  0
 41 37  1  0  0  0  0
 42 41  1  0  0  0  0
 43 42  1  0  0  0  0
 44 43  2  0  0  0  0
 45 44  1  0  0  0  0
 46 45  1  0  0  0  0
M  END
>  <MODEL>
6

>  <REMARK>
 VINA RESULT:      -7.1      2.464      6.878
  Name = 
  16 active torsions:
  status: ('A' for Active; 'I' for Inactive)
    1  A    between atoms: N_2  and  C_28
    2  A    between atoms: N_2  and  C_45
    3  A    between atoms: C_3  and  C_19
    4  A    between atoms: C_4  and  C_27
    5  A    between atoms: C_5  and  C_25
    6  A    between atoms: N_9  and  C_14
    7  A    between atoms: N_12  and  C_46
    8  A    between atoms: C_13  and  C_15
    9  A    between atoms: C_17  and  C_46
   10  A    between atoms: C_18  and  C_20
   11  A    between atoms: C_18  and  C_28
   12  A    between atoms: C_19  and  C_20
   13  A    between atoms: C_20  and  C_41
   14  A    between atoms: C_21  and  N_34
   15  A    between atoms: C_21  and  C_38
   16  A    between atoms: C_27  and  C_32
                            x       y       z     vdW  Elec       q    Type
                         _______ _______ _______ _____ _____    ______ ____

>  <TORSDO>
F 16

$$$$
=
 OpenBabel10232411363D

 46 48  0  0  1  0  0  0  0  0999 V2000
  189.6610  177.1130  139.0310 C   0  0  1  0  0  3  0  0  0  0  0  0
  190.7400  176.4180  136.6830 C   0  0  0  0  0  0  0  0  0  0  0  0
  190.2570  176.7110  137.7490 C   0  0  0  0  0  0  0  0  0  0  0  0
  191.3210  176.1050  135.3730 C   0  0  0  0  0  2  0  0  0  0  0  0
  194.6960  173.1240  136.2680 C   0  0  0  0  0  0  0  0  0  0  0  0
  194.2770  171.8860  136.1800 N   0  0  0  0  0  0  0  0  0  0  0  0
  191.3820  174.6630  135.1620 N   0  0  0  0  0  0  0  0  0  0  0  0
  192.4540  173.8800  135.3970 C   0  0  0  0  0  0  0  0  0  0  0  0
  190.3460  173.8160  134.9450 C   0  0  0  0  0  0  0  0  0  0  0  0
  192.1050  172.5670  135.3090 C   0  0  0  0  0  0  0  0  0  0  0  0
  196.0300  173.3490  136.7470 N   0  0  0  0  0  2  0  0  0  0  0  0
  192.9880  171.5340  135.7230 N   0  0  0  0  0  2  0  0  0  0  0  0
  190.7640  172.4930  135.0200 C   0  0  0  0  0  0  0  0  0  0  0  0
  196.1080  175.6910  136.5820 O   0  0  0  0  0  0  0  0  0  0  0  0
  196.6900  174.6140  136.8850 C   0  0  0  0  0  0  0  0  0  0  0  0
  193.8030  174.3090  135.8830 C   0  0  0  0  0  2  0  0  0  0  0  0
  188.9910  174.2310  134.8090 N   0  0  0  0  0  1  0  0  0  0  0  0
  189.9140  171.2700  134.9850 C   0  0  0  0  0  1  0  0  0  0  0  0
  198.6470  173.2130  137.3920 C   0  0  0  0  0  1  0  0  0  0  0  0
  198.1090  174.6440  137.3770 C   0  0  2  0  0  3  0  0  0  0  0  0
  197.1900  174.6680  139.5750 C   0  0  0  0  0  1  0  0  0  0  0  0
  199.4680  174.9070  139.3110 C   0  0  0  0  0  1  0  0  0  0  0  0
  198.1940  175.2690  138.7080 N   0  0  0  0  0  0  0  0  0  0  0  0
  190.7650  177.2490  140.0750 C   0  0  0  0  0  2  0  0  0  0  0  0
  190.2040  177.2280  141.4910 C   0  0  0  0  0  2  0  0  0  0  0  0
  190.9070  176.2400  142.3040 N   0  0  0  0  0  0  0  0  0  0  0  0
  189.9830  175.4080  142.8460 O   0  0  0  0  0  1  0  0  0  0  0  0
  191.4260  178.4450  143.3520 C   0  0  0  0  0  1  0  0  0  0  0  0
  191.6110  176.9260  143.3890 C   0  0  0  0  0  2  0  0  0  0  0  0
  188.9210  178.4380  138.8710 C   0  0  0  0  0  2  0  0  0  0  0  0
  187.7710  178.3020  137.9190 C   0  0  0  0  0  3  0  0  0  0  0  0
  186.5070  178.4210  138.3090 C   0  0  0  0  0  3  0  0  0  0  0  0
  186.1650  178.6400  139.6790 N   0  0  0  0  0  2  0  0  0  0  0  0
  184.8120  178.8530  140.0940 C   0  0  0  0  0  0  0  0  0  0  0  0
  183.8990  179.0240  139.2370 O   0  0  0  0  0  0  0  0  0  0  0  0
  184.4820  178.8740  141.5250 C   0  0  0  0  0  0  0  0  0  0  0  0
  183.3680  178.8270  143.3260 C   0  0  1  0  0  3  0  0  0  0  0  0
  182.2290  178.7840  144.2860 C   0  0  0  0  0  1  0  0  0  0  0  0
  183.2260  178.7090  141.9950 N   0  0  0  0  0  0  0  0  0  0  0  0
  185.4040  179.0900  142.4910 N   0  0  0  0  0  0  0  0  0  0  0  0
  184.6950  179.0520  143.6280 C   0  0  0  0  0  0  0  0  0  0  0  0
  185.2990  179.2870  144.9810 C   0  0  0  0  0  2  0  0  0  0  0  0
  185.4620  178.0090  145.7490 C   0  0  0  0  0  3  0  0  0  0  0  0
  186.6440  177.4130  145.9690 C   0  0  0  0  0  3  0  0  0  0  0  0
  187.9410  177.9710  145.4720 C   0  0  0  0  0  2  0  0  0  0  0  0
  189.0870  177.3860  146.2750 C   0  0  0  0  0  1  0  0  0  0  0  0
  1  3  1  6  0  0  0
  1 24  1  0  0  0  0
  2  3  3  0  0  0  0
  4  2  1  0  0  0  0
  5 11  1  0  0  0  0
  6  5  2  0  0  0  0
  7  4  1  0  0  0  0
  7  8  1  0  0  0  0
  8 16  1  0  0  0  0
  9 13  2  0  0  0  0
  9  7  1  0  0  0  0
 10  8  2  0  0  0  0
 10 12  1  0  0  0  0
 11 15  1  0  0  0  0
 12  6  1  0  0  0  0
 13 10  1  0  0  0  0
 14 15  2  0  0  0  0
 15 20  1  0  0  0  0
 16  5  1  0  0  0  0
 17  9  1  0  0  0  0
 18 13  1  0  0  0  0
 20 19  1  1  0  0  0
 20 23  1  0  0  0  0
 23 22  1  0  0  0  0
 23 21  1  0  0  0  0
 24 25  1  0  0  0  0
 25 26  1  0  0  0  0
 26 27  1  0  0  0  0
 26 29  1  0  0  0  0
 28 29  1  0  0  0  0
 30  1  1  0  0  0  0
 31 32  2  0  0  0  0
 31 30  1  0  0  0  0
 32 33  1  0  0  0  0
 33 34  1  0  0  0  0
 34 36  1  0  0  0  0
 35 34  2  0  0  0  0
 36 39  2  0  0  0  0
 36 40  1  0  0  0  0
 37 41  1  0  0  0  0
 37 38  1  6  0  0  0
 39 37  1  0  0  0  0
 40 41  2  0  0  0  0
 41 42  1  0  0  0  0
 42 43  1  0  0  0  0
 43 44  2  0  0  0  0
 45 44  1  0  0  0  0
 45 46  1  0  0  0  0
M  END
>  <MODEL>
7

>  <REMARK>
 VINA RESULT:      -7.1      2.462      5.122
  Name = 
  16 active torsions:
  status: ('A' for Active; 'I' for Inactive)
    1  A    between atoms: N_2  and  C_28
    2  A    between atoms: N_2  and  C_45
    3  A    between atoms: C_3  and  C_19
    4  A    between atoms: C_4  and  C_27
    5  A    between atoms: C_5  and  C_25
    6  A    between atoms: N_9  and  C_14
    7  A    between atoms: N_12  and  C_46
    8  A    between atoms: C_13  and  C_15
    9  A    between atoms: C_17  and  C_46
   10  A    between atoms: C_18  and  C_20
   11  A    between atoms: C_18  and  C_28
   12  A    between atoms: C_19  and  C_20
   13  A    between atoms: C_20  and  C_41
   14  A    between atoms: C_21  and  N_34
   15  A    between atoms: C_21  and  C_38
   16  A    between atoms: C_27  and  C_32
                            x       y       z     vdW  Elec       q    Type
                         _______ _______ _______ _____ _____    ______ ____

>  <TORSDO>
F 16

$$$$
=
 OpenBabel10232411363D

 46 48  0  0  1  0  0  0  0  0999 V2000
  186.8020  178.6230  139.5720 C   0  0  1  0  0  3  0  0  0  0  0  0
  186.3700  177.6260  137.1280 C   0  0  0  0  0  0  0  0  0  0  0  0
  186.5720  178.0940  138.2210 C   0  0  0  0  0  0  0  0  0  0  0  0
  186.1110  177.0160  135.8190 C   0  0  0  0  0  2  0  0  0  0  0  0
  189.1330  173.7770  137.0270 C   0  0  0  0  0  0  0  0  0  0  0  0
  188.5380  172.6350  137.2720 N   0  0  0  0  0  0  0  0  0  0  0  0
  185.9430  175.5720  135.9410 N   0  0  0  0  0  0  0  0  0  0  0  0
  186.9180  174.6910  136.2390 C   0  0  0  0  0  0  0  0  0  0  0  0
  184.7800  174.8810  136.0320 C   0  0  0  0  0  0  0  0  0  0  0  0
  186.3820  173.4650  136.4930 C   0  0  0  0  0  0  0  0  0  0  0  0
  190.5370  173.8750  137.3030 N   0  0  0  0  0  2  0  0  0  0  0  0
  187.1630  172.4120  137.0420 N   0  0  0  0  0  2  0  0  0  0  0  0
  185.0180  173.5540  136.3680 C   0  0  0  0  0  0  0  0  0  0  0  0
  190.9150  176.0830  136.5940 O   0  0  0  0  0  0  0  0  0  0  0  0
  191.3780  175.0140  137.0770 C   0  0  0  0  0  0  0  0  0  0  0  0
  188.3680  174.9840  136.4730 C   0  0  0  0  0  2  0  0  0  0  0  0
  183.4900  175.4760  135.9440 N   0  0  0  0  0  1  0  0  0  0  0  0
  184.0100  172.5090  136.7030 C   0  0  0  0  0  1  0  0  0  0  0  0
  193.2740  176.2020  138.0990 C   0  0  0  0  0  1  0  0  0  0  0  0
  192.8420  174.9120  137.4010 C   0  0  2  0  0  3  0  0  0  0  0  0
  194.4400  175.8410  135.8960 C   0  0  0  0  0  1  0  0  0  0  0  0
  194.6050  173.6130  136.4710 C   0  0  0  0  0  1  0  0  0  0  0  0
  193.6350  174.6620  136.1850 N   0  0  0  0  0  0  0  0  0  0  0  0
  185.4710  178.6990  140.3130 C   0  0  0  0  0  2  0  0  0  0  0  0
  185.6530  179.1700  141.7500 C   0  0  0  0  0  2  0  0  0  0  0  0
  185.3400  178.0950  142.6850 N   0  0  0  0  0  0  0  0  0  0  0  0
  184.1530  178.3830  143.2740 O   0  0  0  0  0  1  0  0  0  0  0  0
  187.1220  176.7090  143.7480 C   0  0  0  0  0  1  0  0  0  0  0  0
  186.3730  178.0430  143.7200 C   0  0  0  0  0  2  0  0  0  0  0  0
  187.7750  177.7230  140.3280 C   0  0  0  0  0  2  0  0  0  0  0  0
  188.9510  177.3600  139.4720 C   0  0  0  0  0  3  0  0  0  0  0  0
  190.0440  176.7940  139.9690 C   0  0  0  0  0  3  0  0  0  0  0  0
  190.1840  176.5380  141.3680 N   0  0  0  0  0  2  0  0  0  0  0  0
  191.1700  177.2060  142.1620 C   0  0  0  0  0  0  0  0  0  0  0  0
  192.0600  177.9160  141.6130 O   0  0  0  0  0  0  0  0  0  0  0  0
  191.1480  177.0640  143.6230 C   0  0  0  0  0  0  0  0  0  0  0  0
  191.5860  176.3740  145.5770 C   0  0  1  0  0  3  0  0  0  0  0  0
  192.1530  175.5820  146.7060 C   0  0  0  0  0  1  0  0  0  0  0  0
  191.9480  176.2070  144.2940 N   0  0  0  0  0  0  0  0  0  0  0  0
  190.3020  177.7600  144.4180 N   0  0  0  0  0  0  0  0  0  0  0  0
  190.5890  177.3240  145.6530 C   0  0  0  0  0  0  0  0  0  0  0  0
  189.8600  177.7900  146.8790 C   0  0  0  0  0  2  0  0  0  0  0  0
  188.7440  176.8600  147.2520 C   0  0  0  0  0  3  0  0  0  0  0  0
  187.4930  177.2620  147.5230 C   0  0  0  0  0  3  0  0  0  0  0  0
  187.0720  178.6970  147.4730 C   0  0  0  0  0  2  0  0  0  0  0  0
  185.6220  178.7870  147.0360 C   0  0  0  0  0  1  0  0  0  0  0  0
  1  3  1  6  0  0  0
  1 24  1  0  0  0  0
  1 30  1  0  0  0  0
  2  3  3  0  0  0  0
  4  7  1  0  0  0  0
  4  2  1  0  0  0  0
  5  6  2  0  0  0  0
  5 11  1  0  0  0  0
  7  9  1  0  0  0  0
  7  8  1  0  0  0  0
  8 16  1  0  0  0  0
  8 10  2  0  0  0  0
  9 13  2  0  0  0  0
 10 12  1  0  0  0  0
 12  6  1  0  0  0  0
 13 10  1  0  0  0  0
 13 18  1  0  0  0  0
 14 15  2  0  0  0  0
 15 11  1  0  0  0  0
 15 20  1  0  0  0  0
 16  5  1  0  0  0  0
 17  9  1  0  0  0  0
 20 19  1  6  0  0  0
 21 23  1  0  0  0  0
 23 22  1  0  0  0  0
 23 20  1  0  0  0  0
 24 25  1  0  0  0  0
 25 26  1  0  0  0  0
 26 27  1  0  0  0  0
 26 29  1  0  0  0  0
 29 28  1  0  0  0  0
 31 32  2  0  0  0  0
 31 30  1  0  0  0  0
 32 33  1  0  0  0  0
 33 34  1  0  0  0  0
 34 36  1  0  0  0  0
 35 34  2  0  0  0  0
 36 39  2  0  0  0  0
 36 40  1  0  0  0  0
 37 41  1  0  0  0  0
 37 38  1  6  0  0  0
 39 37  1  0  0  0  0
 40 41  2  0  0  0  0
 41 42  1  0  0  0  0
 42 43  1  0  0  0  0
 43 44  2  0  0  0  0
 45 44  1  0  0  0  0
 46 45  1  0  0  0  0
M  END
>  <MODEL>
8

>  <REMARK>
 VINA RESULT:      -7.0      2.636      6.591
  Name = 
  16 active torsions:
  status: ('A' for Active; 'I' for Inactive)
    1  A    between atoms: N_2  and  C_28
    2  A    between atoms: N_2  and  C_45
    3  A    between atoms: C_3  and  C_19
    4  A    between atoms: C_4  and  C_27
    5  A    between atoms: C_5  and  C_25
    6  A    between atoms: N_9  and  C_14
    7  A    between atoms: N_12  and  C_46
    8  A    between atoms: C_13  and  C_15
    9  A    between atoms: C_17  and  C_46
   10  A    between atoms: C_18  and  C_20
   11  A    between atoms: C_18  and  C_28
   12  A    between atoms: C_19  and  C_20
   13  A    between atoms: C_20  and  C_41
   14  A    between atoms: C_21  and  N_34
   15  A    between atoms: C_21  and  C_38
   16  A    between atoms: C_27  and  C_32
                            x       y       z     vdW  Elec       q    Type
                         _______ _______ _______ _____ _____    ______ ____

>  <TORSDO>
F 16

$$$$
=
 OpenBabel10232411363D

 46 48  0  0  1  0  0  0  0  0999 V2000
  190.5760  176.7860  141.2440 C   0  0  1  0  0  3  0  0  0  0  0  0
  191.9420  176.6250  138.9490 C   0  0  0  0  0  0  0  0  0  0  0  0
  191.3180  176.6770  139.9810 C   0  0  0  0  0  0  0  0  0  0  0  0
  192.7140  176.6060  137.7020 C   0  0  0  0  0  2  0  0  0  0  0  0
  189.7010  173.5660  136.0390 C   0  0  0  0  0  0  0  0  0  0  0  0
  190.3070  172.5420  135.4910 N   0  0  0  0  0  0  0  0  0  0  0  0
  192.9180  175.2380  137.2380 N   0  0  0  0  0  0  0  0  0  0  0  0
  191.9480  174.3950  136.8280 C   0  0  0  0  0  0  0  0  0  0  0  0
  194.0890  174.6480  136.8930 C   0  0  0  0  0  0  0  0  0  0  0  0
  192.4980  173.2890  136.2560 C   0  0  0  0  0  0  0  0  0  0  0  0
  188.2740  173.6490  135.9120 N   0  0  0  0  0  2  0  0  0  0  0  0
  191.7050  172.3470  135.5470 N   0  0  0  0  0  2  0  0  0  0  0  0
  193.8650  173.4200  136.2830 C   0  0  0  0  0  0  0  0  0  0  0  0
  187.8920  175.6160  137.1380 O   0  0  0  0  0  0  0  0  0  0  0  0
  187.4210  174.6600  136.4630 C   0  0  0  0  0  0  0  0  0  0  0  0
  190.4740  174.6560  136.7900 C   0  0  0  0  0  2  0  0  0  0  0  0
  195.3620  175.2760  137.0080 N   0  0  0  0  0  1  0  0  0  0  0  0
  194.8700  172.5340  135.6340 C   0  0  0  0  0  1  0  0  0  0  0  0
  185.3760  175.9660  136.0630 C   0  0  0  0  0  1  0  0  0  0  0  0
  185.9380  174.5570  136.2490 C   0  0  2  0  0  3  0  0  0  0  0  0
  184.0550  174.5520  137.7100 C   0  0  0  0  0  1  0  0  0  0  0  0
  184.8610  172.5430  136.9140 C   0  0  0  0  0  1  0  0  0  0  0  0
  185.2900  173.8580  137.3720 N   0  0  0  0  0  0  0  0  0  0  0  0
  191.5390  177.1820  142.3580 C   0  0  0  0  0  2  0  0  0  0  0  0
  191.3710  176.2980  143.5880 C   0  0  0  0  0  2  0  0  0  0  0  0
  191.6440  177.0560  144.8040 N   0  0  0  0  0  0  0  0  0  0  0  0
  191.7460  176.1790  145.8320 O   0  0  0  0  0  1  0  0  0  0  0  0
  189.6220  177.4700  146.2070 C   0  0  0  0  0  1  0  0  0  0  0  0
  190.5210  177.9570  145.0690 C   0  0  0  0  0  2  0  0  0  0  0  0
  189.4670  177.8250  141.1120 C   0  0  0  0  0  2  0  0  0  0  0  0
  189.0290  177.9700  139.6850 C   0  0  0  0  0  3  0  0  0  0  0  0
  187.7840  178.2860  139.3520 C   0  0  0  0  0  3  0  0  0  0  0  0
  186.7670  178.4630  140.3410 N   0  0  0  0  0  2  0  0  0  0  0  0
  185.4170  178.7820  139.9870 C   0  0  0  0  0  0  0  0  0  0  0  0
  185.1230  179.0850  138.7960 O   0  0  0  0  0  0  0  0  0  0  0  0
  184.3690  178.7570  141.0140 C   0  0  0  0  0  0  0  0  0  0  0  0
  182.4590  178.7950  141.9300 C   0  0  1  0  0  3  0  0  0  0  0  0
  180.9860  178.9060  142.1310 C   0  0  0  0  0  1  0  0  0  0  0  0
  183.0500  178.8110  140.7230 N   0  0  0  0  0  0  0  0  0  0  0  0
  184.6350  178.7080  142.3390 N   0  0  0  0  0  0  0  0  0  0  0  0
  183.4240  178.7250  142.9130 C   0  0  0  0  0  0  0  0  0  0  0  0
  183.2190  178.7280  144.4000 C   0  0  0  0  0  2  0  0  0  0  0  0
  184.2500  179.5600  145.1030 C   0  0  0  0  0  3  0  0  0  0  0  0
  185.3750  179.0620  145.6390 C   0  0  0  0  0  3  0  0  0  0  0  0
  185.7270  177.6090  145.5850 C   0  0  0  0  0  2  0  0  0  0  0  0
  186.7260  177.3690  144.4690 C   0  0  0  0  0  1  0  0  0  0  0  0
  1  3  1  6  0  0  0
  1 24  1  0  0  0  0
  2  3  3  0  0  0  0
  4  2  1  0  0  0  0
  5 16  1  0  0  0  0
  6 12  1  0  0  0  0
  6  5  2  0  0  0  0
  7  4  1  0  0  0  0
  8  7  1  0  0  0  0
  9 17  1  0  0  0  0
  9  7  1  0  0  0  0
 10 13  1  0  0  0  0
 10  8  2  0  0  0  0
 11  5  1  0  0  0  0
 11 15  1  0  0  0  0
 12 10  1  0  0  0  0
 13  9  2  0  0  0  0
 15 14  2  0  0  0  0
 16  8  1  0  0  0  0
 18 13  1  0  0  0  0
 20 19  1  1  0  0  0
 20 15  1  0  0  0  0
 20 23  1  0  0  0  0
 22 23  1  0  0  0  0
 23 21  1  0  0  0  0
 24 25  1  0  0  0  0
 25 26  1  0  0  0  0
 26 29  1  0  0  0  0
 26 27  1  0  0  0  0
 29 28  1  0  0  0  0
 30  1  1  0  0  0  0
 31 30  1  0  0  0  0
 32 31  2  0  0  0  0
 32 33  1  0  0  0  0
 34 33  1  0  0  0  0
 34 36  1  0  0  0  0
 35 34  2  0  0  0  0
 36 40  1  0  0  0  0
 37 38  1  1  0  0  0
 37 41  1  0  0  0  0
 39 36  2  0  0  0  0
 39 37  1  0  0  0  0
 40 41  2  0  0  0  0
 41 42  1  0  0  0  0
 42 43  1  0  0  0  0
 43 44  2  0  0  0  0
 45 44  1  0  0  0  0
 46 45  1  0  0  0  0
M  END
>  <MODEL>
9

>  <REMARK>
 VINA RESULT:      -6.9      2.205      5.867
  Name = 
  16 active torsions:
  status: ('A' for Active; 'I' for Inactive)
    1  A    between atoms: N_2  and  C_28
    2  A    between atoms: N_2  and  C_45
    3  A    between atoms: C_3  and  C_19
    4  A    between atoms: C_4  and  C_27
    5  A    between atoms: C_5  and  C_25
    6  A    between atoms: N_9  and  C_14
    7  A    between atoms: N_12  and  C_46
    8  A    between atoms: C_13  and  C_15
    9  A    between atoms: C_17  and  C_46
   10  A    between atoms: C_18  and  C_20
   11  A    between atoms: C_18  and  C_28
   12  A    between atoms: C_19  and  C_20
   13  A    between atoms: C_20  and  C_41
   14  A    between atoms: C_21  and  N_34
   15  A    between atoms: C_21  and  C_38
   16  A    between atoms: C_27  and  C_32
                            x       y       z     vdW  Elec       q    Type
                         _______ _______ _______ _____ _____    ______ ____

>  <TORSDO>
F 16

$$$$
