=
 OpenBabel10232411123D

 54 59  0  0  1  0  0  0  0  0999 V2000
  185.3950  175.3850  135.7970 C   0  0  0  0  0  2  0  0  0  0  0  0
  184.5370  172.7470  136.5530 C   0  0  0  0  0  2  0  0  0  0  0  0
  185.9240  174.8610  137.1370 C   0  0  2  0  0  3  0  0  0  0  0  0
  182.2330  173.3780  135.9410 C   0  0  2  0  0  3  0  0  0  0  0  0
  181.0110  174.9020  137.5380 N   0  0  0  0  0  0  0  0  0  0  0  0
  183.8570  177.2330  137.7160 C   0  0  0  0  0  0  0  0  0  0  0  0
  181.8730  175.9470  137.9970 C   0  0  0  0  0  0  0  0  0  0  0  0
  187.0060  172.7040  136.9400 C   0  0  0  0  0  2  0  0  0  0  0  0
  181.6610  176.5070  139.2550 C   0  0  0  0  0  3  0  0  0  0  0  0
  183.6670  177.8330  138.9770 C   0  0  2  0  0  3  0  0  0  0  0  0
  182.9460  176.3300  137.2580 N   0  0  0  0  0  0  0  0  0  0  0  0
  187.4310  175.0750  137.2240 C   0  0  0  0  0  2  0  0  0  0  0  0
  185.3200  176.9130  135.7150 C   0  0  0  0  0  2  0  0  0  0  0  0
  188.0560  173.6960  137.3890 C   0  0  2  0  0  3  0  0  0  0  0  0
  185.7020  173.3540  137.3300 C   0  0  2  0  0  3  0  0  0  0  0  0
  183.2030  173.2150  137.1040 C   0  0  0  0  0  2  0  0  0  0  0  0
  182.5530  177.4630  139.7370 C   0  0  0  0  0  3  0  0  0  0  0  0
  181.0610  174.3380  136.1910 C   0  0  2  0  0  3  0  0  0  0  0  0
  184.9980  177.5290  136.9630 O   0  0  0  0  0  0  0  0  0  0  0  0
  180.8640  172.8350  136.2980 C   0  0  1  0  0  3  0  0  0  0  0  0
  189.3290  173.5520  136.6100 C   0  0  0  0  0  0  0  0  0  0  0  0
  190.6850  173.0570  134.9850 N   0  0  0  0  0  0  0  0  0  0  0  0
  190.5510  174.1040  136.9330 C   0  0  1  0  0  3  0  0  0  0  0  0
  189.4410  172.9140  135.4250 N   0  0  0  0  0  0  0  0  0  0  0  0
  191.3750  173.7940  135.8800 C   0  0  0  0  0  0  0  0  0  0  0  0
  190.8750  174.9100  138.0680 N   0  0  0  0  0  2  0  0  0  0  0  0
  191.0170  176.3320  137.9780 C   0  0  0  0  0  0  0  0  0  0  0  0
  190.6990  176.9360  136.9150 O   0  0  0  0  0  0  0  0  0  0  0  0
  191.5000  177.1010  139.1670 C   0  0  0  0  0  3  0  0  0  0  0  0
  192.9980  176.9270  139.3390 C   0  0  0  0  0  1  0  0  0  0  0  0
  190.7760  176.6490  140.4230 C   0  0  0  0  0  1  0  0  0  0  0  0
  192.8120  174.1590  135.7350 C   0  0  0  0  0  2  0  0  0  0  0  0
  193.6340  173.5020  136.8280 C   0  0  0  0  0  2  0  0  0  0  0  0
  194.2590  171.9430  135.1330 O   0  0  0  0  0  1  0  0  0  0  0  0
  193.9180  172.0530  136.4810 C   0  0  0  0  0  2  0  0  0  0  0  0
  184.4740  180.1000  138.8500 O   0  0  0  0  0  1  0  0  0  0  0  0
  184.5900  178.8850  139.5320 C   0  0  1  0  0  3  0  0  0  0  0  0
  184.4270  179.0870  141.0400 C   0  0  0  0  0  2  0  0  0  0  0  0
  185.7140  178.8130  141.8020 C   0  0  0  0  0  2  0  0  0  0  0  0
  185.3920  178.5940  143.5420 S   0  0  0  0  0  0  0  0  0  0  0  0
  185.4790  179.9260  144.2360 O   0  0  0  0  0  0  0  0  0  0  0  0
  183.9960  178.0550  143.6920 O   0  0  0  0  0  0  0  0  0  0  0  0
  189.2950  177.8760  145.9620 C   0  0  0  0  0  2  0  0  0  0  0  0
  186.5510  177.4420  144.2710 C   0  0  2  0  0  3  0  0  0  0  0  0
  188.9450  178.0300  143.4580 C   0  0  0  0  0  2  0  0  0  0  0  0
  188.0610  177.1380  146.1920 N   0  0  0  0  0  2  0  0  0  0  0  0
  186.9890  177.9530  145.6460 C   0  0  0  0  0  2  0  0  0  0  0  0
  188.0370  175.7870  143.3280 O   0  0  0  0  0  1  0  0  0  0  0  0
  187.7020  177.1430  143.2940 C   0  0  1  0  0  3  0  0  0  0  0  0
  189.8660  177.5580  144.5840 C   0  0  0  0  0  2  0  0  0  0  0  0
  180.2370  172.3190  135.0910 N   0  0  0  0  0  2  0  0  0  0  0  0
  179.9820  170.6690  136.5470 O   0  0  0  0  0  1  0  0  0  0  0  0
  180.1210  170.9260  135.2230 N   0  0  0  0  0  0  0  0  0  0  0  0
  181.6620  170.2600  134.7540 Cl  0  0  0  0  0  0  0  0  0  0  0  0
  2 16  1  0  0  0  0
  3  1  1  6  0  0  0
  3 12  1  0  0  0  0
  3 15  1  0  0  0  0
  4 18  1  0  0  0  0
  4 20  1  0  0  0  0
  4 16  1  1  0  0  0
  5  7  2  0  0  0  0
  6 10  1  0  0  0  0
  7  9  1  0  0  0  0
  8 15  1  0  0  0  0
  8 14  1  0  0  0  0
  9 17  2  0  0  0  0
 10 37  1  6  0  0  0
 10 17  1  0  0  0  0
 11  6  2  0  0  0  0
 11  7  1  0  0  0  0
 12 14  1  0  0  0  0
 13  1  1  0  0  0  0
 13 19  1  0  0  0  0
 14 21  1  6  0  0  0
 15  2  1  6  0  0  0
 18 20  1  0  0  0  0
 18  5  1  1  0  0  0
 19  6  1  0  0  0  0
 20 51  1  6  0  0  0
 21 23  1  0  0  0  0
 22 24  1  0  0  0  0
 22 25  2  0  0  0  0
 23 26  1  6  0  0  0
 24 21  2  0  0  0  0
 25 23  1  0  0  0  0
 27 26  1  0  0  0  0
 27 29  1  0  0  0  0
 28 27  2  0  0  0  0
 29 30  1  0  0  0  0
 29 31  1  0  0  0  0
 32 25  1  0  0  0  0
 32 33  1  0  0  0  0
 34 35  1  0  0  0  0
 35 33  1  0  0  0  0
 37 36  1  6  0  0  0
 37 38  1  0  0  0  0
 38 39  1  0  0  0  0
 39 40  1  0  0  0  0
 40 42  2  0  0  0  0
 40 41  2  0  0  0  0
 43 46  1  0  0  0  0
 44 40  1  6  0  0  0
 44 47  1  0  0  0  0
 45 50  1  0  0  0  0
 47 46  1  0  0  0  0
 49 48  1  1  0  0  0
 49 45  1  0  0  0  0
 49 44  1  0  0  0  0
 50 43  1  0  0  0  0
 51 53  1  0  0  0  0
 53 52  1  0  0  0  0
 54 53  1  0  0  0  0
M  END
>  <MODEL>
1

>  <REMARK>
 VINA RESULT:      -7.2      0.000      0.000
  Name = 
  13 active torsions:
  status: ('A' for Active; 'I' for Inactive)
    1  A    between atoms: C_1  and  C_39
    2  A    between atoms: S_4  and  C_20
    3  A    between atoms: S_4  and  C_27
    4  A    between atoms: C_6  and  C_27
    5  A    between atoms: C_6  and  C_37
    6  A    between atoms: C_10  and  C_47
    7  A    between atoms: C_13  and  N_46
    8  A    between atoms: C_15  and  C_43
    9  A    between atoms: N_18  and  N_30
   10  A    between atoms: N_18  and  C_51
   11  A    between atoms: C_26  and  C_43
   12  A    between atoms: C_26  and  C_54
   13  A    between atoms: C_33  and  C_37
                            x       y       z     vdW  Elec       q    Type
                         _______ _______ _______ _____ _____    ______ ____

>  <TORSDO>
F 13

$$$$
=
 OpenBabel10232411123D

 54 59  0  0  1  0  0  0  0  0999 V2000
  189.7220  175.7130  143.0380 C   0  0  0  0  0  2  0  0  0  0  0  0
  191.9060  177.3350  143.9680 C   0  0  0  0  0  2  0  0  0  0  0  0
  189.7760  177.1470  142.4980 C   0  0  2  0  0  3  0  0  0  0  0  0
  191.4320  176.5640  146.2630 C   0  0  2  0  0  3  0  0  0  0  0  0
  189.4080  177.5530  147.3970 N   0  0  0  0  0  2  0  0  0  0  0  0
  187.2700  176.8970  144.4700 C   0  0  0  0  0  0  0  0  0  0  0  0
  188.3030  177.6180  146.4910 C   0  0  0  0  0  0  0  0  0  0  0  0
  191.9110  177.6910  141.4950 C   0  0  0  0  0  2  0  0  0  0  0  0
  187.3380  178.6100  146.6560 C   0  0  0  0  0  3  0  0  0  0  0  0
  186.2670  177.8770  144.6120 C   0  0  0  0  0  0  0  0  0  0  0  0
  188.2390  176.7840  145.4210 N   0  0  0  0  0  0  0  0  0  0  0  0
  189.6050  177.1420  140.9830 C   0  0  0  0  0  2  0  0  0  0  0  0
  188.3120  175.1130  143.0630 C   0  0  0  0  0  2  0  0  0  0  0  0
  190.8670  177.7640  140.4020 C   0  0  2  0  0  3  0  0  0  0  0  0
  191.1160  177.8460  142.7670 C   0  0  2  0  0  3  0  0  0  0  0  0
  191.2260  177.7040  145.2740 C   0  0  0  0  0  2  0  0  0  0  0  0
  186.3120  178.7270  145.7210 C   0  0  0  0  0  3  0  0  0  0  0  0
  190.3990  176.4810  147.3950 C   0  0  2  0  0  3  0  0  0  0  0  0
  187.2940  176.0770  143.3360 O   0  0  0  0  0  0  0  0  0  0  0  0
  191.7660  177.0980  147.6410 C   0  0  1  0  0  3  0  0  0  0  0  0
  191.3190  177.0710  139.1520 C   0  0  0  0  0  0  0  0  0  0  0  0
  192.4720  175.7860  137.8300 N   0  0  0  0  0  0  0  0  0  0  0  0
  190.6440  177.0330  137.9490 C   0  0  0  0  0  0  0  0  0  0  0  0
  192.4310  176.3110  139.0490 N   0  0  0  0  0  2  0  0  0  0  0  0
  191.3840  176.1980  137.1490 C   0  0  0  0  0  0  0  0  0  0  0  0
  189.3940  177.6450  137.6280 N   0  0  0  0  0  2  0  0  0  0  0  0
  188.1910  176.8860  137.4650 C   0  0  0  0  0  0  0  0  0  0  0  0
  188.1700  175.6580  137.7640 O   0  0  0  0  0  0  0  0  0  0  0  0
  186.9490  177.5660  136.9860 C   0  0  0  0  0  3  0  0  0  0  0  0
  186.2980  176.7630  135.8750 C   0  0  0  0  0  1  0  0  0  0  0  0
  187.2640  178.9690  136.4980 C   0  0  0  0  0  1  0  0  0  0  0  0
  191.0860  175.8210  135.7390 C   0  0  0  0  0  2  0  0  0  0  0  0
  191.3720  174.3460  135.5180 C   0  0  0  0  0  2  0  0  0  0  0  0
  189.1190  173.7150  135.0470 O   0  0  0  0  0  1  0  0  0  0  0  0
  190.1780  173.5070  135.9310 C   0  0  0  0  0  2  0  0  0  0  0  0
  183.9520  178.4510  144.2730 O   0  0  0  0  0  1  0  0  0  0  0  0
  185.1260  178.0300  143.6430 C   0  0  1  0  0  3  0  0  0  0  0  0
  185.4660  178.9370  142.4590 C   0  0  0  0  0  2  0  0  0  0  0  0
  184.2710  179.1700  141.5480 C   0  0  0  0  0  2  0  0  0  0  0  0
  184.7350  179.0180  139.8330 S   0  0  0  0  0  0  0  0  0  0  0  0
  184.4910  180.3270  139.1330 O   0  0  0  0  0  0  0  0  0  0  0  0
  186.2030  178.6990  139.7750 O   0  0  0  0  0  0  0  0  0  0  0  0
  181.1130  177.7290  137.2200 C   0  0  0  0  0  2  0  0  0  0  0  0
  183.8140  177.7090  139.0310 C   0  0  2  0  0  3  0  0  0  0  0  0
  181.3230  177.8770  139.7400 C   0  0  0  0  0  2  0  0  0  0  0  0
  182.4600  177.2080  137.0360 N   0  0  0  0  0  2  0  0  0  0  0  0
  183.3590  178.1750  137.6460 C   0  0  0  0  0  2  0  0  0  0  0  0
  182.5810  175.8110  139.8750 O   0  0  0  0  0  1  0  0  0  0  0  0
  182.6870  177.2030  139.9480 C   0  0  1  0  0  3  0  0  0  0  0  0
  180.5420  177.2880  138.5640 C   0  0  0  0  0  2  0  0  0  0  0  0
  192.6400  176.1460  148.3110 N   0  0  0  0  0  2  0  0  0  0  0  0
  193.6640  176.0390  150.2720 O   0  0  0  0  0  1  0  0  0  0  0  0
  193.4460  176.8570  149.2130 N   0  0  0  0  0  0  0  0  0  0  0  0
  192.4720  178.1760  149.8070 Cl  0  0  0  0  0  0  0  0  0  0  0  0
  1 13  1  0  0  0  0
  2 16  1  0  0  0  0
  3 12  1  6  0  0  0
  3 15  1  0  0  0  0
  3  1  1  0  0  0  0
  4 16  1  6  0  0  0
  4 18  1  0  0  0  0
  4 20  1  0  0  0  0
  6 10  1  0  0  0  0
  6 11  2  0  0  0  0
  7  9  2  0  0  0  0
  7  5  1  0  0  0  0
 10 17  2  0  0  0  0
 11  7  1  0  0  0  0
 13 19  1  0  0  0  0
 14 21  1  6  0  0  0
 14 12  1  0  0  0  0
 14  8  1  0  0  0  0
 15  8  1  6  0  0  0
 15  2  1  0  0  0  0
 17  9  1  0  0  0  0
 18  5  1  6  0  0  0
 18 20  1  0  0  0  0
 19  6  1  0  0  0  0
 20 51  1  1  0  0  0
 22 24  1  0  0  0  0
 23 21  2  0  0  0  0
 24 21  1  0  0  0  0
 25 22  2  0  0  0  0
 25 23  1  0  0  0  0
 26 23  1  0  0  0  0
 27 26  1  0  0  0  0
 27 28  2  0  0  0  0
 29 27  1  0  0  0  0
 30 29  1  0  0  0  0
 31 29  1  0  0  0  0
 32 25  1  0  0  0  0
 33 32  1  0  0  0  0
 33 35  1  0  0  0  0
 34 35  1  0  0  0  0
 37 36  1  1  0  0  0
 37 10  1  0  0  0  0
 38 37  1  0  0  0  0
 39 38  1  0  0  0  0
 40 39  1  0  0  0  0
 41 40  2  0  0  0  0
 42 40  2  0  0  0  0
 43 50  1  0  0  0  0
 44 40  1  1  0  0  0
 44 49  1  0  0  0  0
 45 49  1  0  0  0  0
 46 43  1  0  0  0  0
 46 47  1  0  0  0  0
 47 44  1  0  0  0  0
 49 48  1  6  0  0  0
 50 45  1  0  0  0  0
 51 53  1  0  0  0  0
 53 54  1  0  0  0  0
 53 52  1  0  0  0  0
M  END
>  <MODEL>
2

>  <REMARK>
 VINA RESULT:      -7.2      3.974      9.278
  Name = 
  13 active torsions:
  status: ('A' for Active; 'I' for Inactive)
    1  A    between atoms: C_1  and  C_39
    2  A    between atoms: S_4  and  C_20
    3  A    between atoms: S_4  and  C_27
    4  A    between atoms: C_6  and  C_27
    5  A    between atoms: C_6  and  C_37
    6  A    between atoms: C_10  and  C_47
    7  A    between atoms: C_13  and  N_46
    8  A    between atoms: C_15  and  C_43
    9  A    between atoms: N_18  and  N_30
   10  A    between atoms: N_18  and  C_51
   11  A    between atoms: C_26  and  C_43
   12  A    between atoms: C_26  and  C_54
   13  A    between atoms: C_33  and  C_37
                            x       y       z     vdW  Elec       q    Type
                         _______ _______ _______ _____ _____    ______ ____

>  <TORSDO>
F 13

$$$$
=
 OpenBabel10232411123D

 54 59  0  0  1  0  0  0  0  0999 V2000
  190.0370  176.8020  136.3040 C   0  0  0  0  0  2  0  0  0  0  0  0
  192.2540  176.5970  138.1250 C   0  0  0  0  0  2  0  0  0  0  0  0
  189.8560  175.8390  137.4830 C   0  0  2  0  0  3  0  0  0  0  0  0
  193.7610  176.3980  136.1830 C   0  0  2  0  0  3  0  0  0  0  0  0
  193.7610  174.1880  134.9670 N   0  0  0  0  0  2  0  0  0  0  0  0
  190.0820  174.1230  134.7930 C   0  0  0  0  0  0  0  0  0  0  0  0
  192.4250  173.7010  134.8070 C   0  0  0  0  0  0  0  0  0  0  0  0
  190.2760  176.8870  139.6250 C   0  0  0  0  0  2  0  0  0  0  0  0
  192.2000  172.3270  134.7370 C   0  0  0  0  0  3  0  0  0  0  0  0
  189.8150  172.7420  134.7040 C   0  0  0  0  0  0  0  0  0  0  0  0
  191.3720  174.5590  134.8180 N   0  0  0  0  0  0  0  0  0  0  0  0
  188.5140  176.0890  138.1610 C   0  0  0  0  0  2  0  0  0  0  0  0
  189.1950  176.4430  135.0750 C   0  0  0  0  0  2  0  0  0  0  0  0
  188.8210  176.4720  139.6030 C   0  0  2  0  0  3  0  0  0  0  0  0
  190.9190  176.0130  138.5770 C   0  0  2  0  0  3  0  0  0  0  0  0
  193.0210  175.6150  137.2590 C   0  0  0  0  0  2  0  0  0  0  0  0
  190.8930  171.8510  134.6700 C   0  0  0  0  0  3  0  0  0  0  0  0
  194.1210  175.6020  134.9200 C   0  0  2  0  0  3  0  0  0  0  0  0
  189.0260  175.0360  134.9000 O   0  0  0  0  0  0  0  0  0  0  0  0
  195.1660  175.8610  135.9940 C   0  0  1  0  0  3  0  0  0  0  0  0
  187.9220  177.5620  140.1050 C   0  0  0  0  0  0  0  0  0  0  0  0
  186.4530  179.1650  140.0980 N   0  0  0  0  0  0  0  0  0  0  0  0
  187.6360  177.8420  141.4250 C   0  0  1  0  0  3  0  0  0  0  0  0
  187.1950  178.3870  139.3190 N   0  0  0  0  0  0  0  0  0  0  0  0
  186.6930  178.8390  141.3840 C   0  0  0  0  0  0  0  0  0  0  0  0
  188.1350  177.1790  142.5880 N   0  0  0  0  0  2  0  0  0  0  0  0
  189.3020  177.6310  143.2830 C   0  0  0  0  0  0  0  0  0  0  0  0
  189.8350  178.7360  142.9780 O   0  0  0  0  0  0  0  0  0  0  0  0
  189.8560  176.8120  144.4040 C   0  0  0  0  0  3  0  0  0  0  0  0
  189.2180  177.2140  145.7220 C   0  0  0  0  0  1  0  0  0  0  0  0
  191.3640  176.9710  144.4860 C   0  0  0  0  0  1  0  0  0  0  0  0
  186.0480  179.5040  142.5510 C   0  0  0  0  0  2  0  0  0  0  0  0
  184.7320  178.8240  142.8820 C   0  0  0  0  0  2  0  0  0  0  0  0
  183.2340  178.7800  144.7390 O   0  0  0  0  0  1  0  0  0  0  0  0
  184.5780  178.6690  144.3830 C   0  0  0  0  0  2  0  0  0  0  0  0
  188.4260  170.8060  134.3470 O   0  0  0  0  0  1  0  0  0  0  0  0
  188.4220  172.1800  134.6080 C   0  0  1  0  0  3  0  0  0  0  0  0
  187.5630  172.5010  135.8320 C   0  0  0  0  0  2  0  0  0  0  0  0
  186.2000  173.0560  135.4510 C   0  0  0  0  0  2  0  0  0  0  0  0
  185.0070  172.7630  136.7430 S   0  0  0  0  0  0  0  0  0  0  0  0
  184.4160  171.3890  136.5730 O   0  0  0  0  0  0  0  0  0  0  0  0
  185.7250  172.8250  138.0620 O   0  0  0  0  0  0  0  0  0  0  0  0
  183.4280  176.8350  135.1520 C   0  0  0  0  0  2  0  0  0  0  0  0
  183.7120  173.9980  136.7170 C   0  0  2  0  0  3  0  0  0  0  0  0
  184.7510  176.3170  137.2490 C   0  0  0  0  0  2  0  0  0  0  0  0
  182.6030  175.6390  135.2540 N   0  0  0  0  0  2  0  0  0  0  0  0
  183.5200  174.5120  135.2870 C   0  0  0  0  0  2  0  0  0  0  0  0
  182.8030  175.4620  138.4090 O   0  0  0  0  0  1  0  0  0  0  0  0
  183.9860  175.0890  137.7660 C   0  0  1  0  0  3  0  0  0  0  0  0
  183.8460  177.3220  136.5360 C   0  0  0  0  0  2  0  0  0  0  0  0
  196.0360  176.9590  135.6000 N   0  0  0  0  0  2  0  0  0  0  0  0
  197.5710  175.9690  134.3460 O   0  0  0  0  0  1  0  0  0  0  0  0
  197.3560  176.4830  135.5830 N   0  0  0  0  0  0  0  0  0  0  0  0
  197.4040  175.1340  136.6870 Cl  0  0  0  0  0  0  0  0  0  0  0  0
  3  1  1  6  0  0  0
  3 12  1  0  0  0  0
  3 15  1  0  0  0  0
  4 16  1  1  0  0  0
  6 11  2  0  0  0  0
  6 19  1  0  0  0  0
  7 11  1  0  0  0  0
  7  5  1  0  0  0  0
  9  7  2  0  0  0  0
 10  6  1  0  0  0  0
 12 14  1  0  0  0  0
 13  1  1  0  0  0  0
 14  8  1  0  0  0  0
 14 21  1  6  0  0  0
 15  2  1  6  0  0  0
 15  8  1  0  0  0  0
 16  2  1  0  0  0  0
 17 10  2  0  0  0  0
 17  9  1  0  0  0  0
 18  5  1  1  0  0  0
 18 20  1  0  0  0  0
 18  4  1  0  0  0  0
 19 13  1  0  0  0  0
 20 51  1  6  0  0  0
 20  4  1  0  0  0  0
 21 23  1  0  0  0  0
 22 25  2  0  0  0  0
 23 26  1  6  0  0  0
 24 22  1  0  0  0  0
 24 21  2  0  0  0  0
 25 23  1  0  0  0  0
 25 32  1  0  0  0  0
 26 27  1  0  0  0  0
 27 29  1  0  0  0  0
 28 27  2  0  0  0  0
 29 31  1  0  0  0  0
 29 30  1  0  0  0  0
 32 33  1  0  0  0  0
 33 35  1  0  0  0  0
 35 34  1  0  0  0  0
 37 36  1  1  0  0  0
 37 10  1  0  0  0  0
 37 38  1  0  0  0  0
 39 38  1  0  0  0  0
 39 40  1  0  0  0  0
 40 42  2  0  0  0  0
 41 40  2  0  0  0  0
 43 46  1  0  0  0  0
 43 50  1  0  0  0  0
 44 40  1  6  0  0  0
 44 49  1  0  0  0  0
 45 49  1  0  0  0  0
 46 47  1  0  0  0  0
 47 44  1  0  0  0  0
 49 48  1  6  0  0  0
 50 45  1  0  0  0  0
 52 53  1  0  0  0  0
 53 51  1  0  0  0  0
 53 54  1  0  0  0  0
M  END
>  <MODEL>
3

>  <REMARK>
 VINA RESULT:      -6.7      3.837     10.097
  Name = 
  13 active torsions:
  status: ('A' for Active; 'I' for Inactive)
    1  A    between atoms: C_1  and  C_39
    2  A    between atoms: S_4  and  C_20
    3  A    between atoms: S_4  and  C_27
    4  A    between atoms: C_6  and  C_27
    5  A    between atoms: C_6  and  C_37
    6  A    between atoms: C_10  and  C_47
    7  A    between atoms: C_13  and  N_46
    8  A    between atoms: C_15  and  C_43
    9  A    between atoms: N_18  and  N_30
   10  A    between atoms: N_18  and  C_51
   11  A    between atoms: C_26  and  C_43
   12  A    between atoms: C_26  and  C_54
   13  A    between atoms: C_33  and  C_37
                            x       y       z     vdW  Elec       q    Type
                         _______ _______ _______ _____ _____    ______ ____

>  <TORSDO>
F 13

$$$$
=
 OpenBabel10232411123D

 54 59  0  0  1  0  0  0  0  0999 V2000
  186.1350  175.3740  135.8140 C   0  0  0  0  0  2  0  0  0  0  0  0
  185.1630  172.7500  136.4800 C   0  0  0  0  0  2  0  0  0  0  0  0
  186.6840  174.7570  137.1060 C   0  0  2  0  0  3  0  0  0  0  0  0
  182.8750  173.5320  135.9910 C   0  0  2  0  0  3  0  0  0  0  0  0
  181.7990  175.0380  137.7060 N   0  0  0  0  0  0  0  0  0  0  0  0
  184.7740  177.2040  137.8790 C   0  0  0  0  0  0  0  0  0  0  0  0
  182.7340  176.0120  138.1790 C   0  0  0  0  0  0  0  0  0  0  0  0
  187.6380  172.5580  136.7650 C   0  0  0  0  0  2  0  0  0  0  0  0
  182.6000  176.5210  139.4690 C   0  0  0  0  0  3  0  0  0  0  0  0
  184.6650  177.7510  139.1730 C   0  0  2  0  0  3  0  0  0  0  0  0
  183.7980  176.3740  137.4160 N   0  0  0  0  0  0  0  0  0  0  0  0
  188.2030  174.8870  137.1430 C   0  0  0  0  0  2  0  0  0  0  0  0
  186.1410  176.9060  135.8070 C   0  0  0  0  0  2  0  0  0  0  0  0
  188.7570  173.4700  137.2170 C   0  0  2  0  0  3  0  0  0  0  0  0
  186.3870  173.2570  137.2370 C   0  0  2  0  0  3  0  0  0  0  0  0
  183.8780  173.2610  137.1060 C   0  0  0  0  0  2  0  0  0  0  0  0
  183.5620  177.4030  139.9580 C   0  0  0  0  0  3  0  0  0  0  0  0
  181.7680  174.5390  136.3340 C   0  0  2  0  0  3  0  0  0  0  0  0
  185.9000  177.4760  137.0940 O   0  0  0  0  0  0  0  0  0  0  0  0
  181.4930  173.0450  136.3780 C   0  0  1  0  0  3  0  0  0  0  0  0
  189.9900  173.2980  136.3820 C   0  0  0  0  0  0  0  0  0  0  0  0
  191.2670  172.7340  134.7150 N   0  0  0  0  0  0  0  0  0  0  0  0
  191.2220  173.8740  136.6150 C   0  0  1  0  0  3  0  0  0  0  0  0
  190.0480  172.6030  135.2250 N   0  0  0  0  0  0  0  0  0  0  0  0
  191.9940  173.5180  135.5360 C   0  0  0  0  0  0  0  0  0  0  0  0
  191.5950  174.7360  137.6900 N   0  0  0  0  0  2  0  0  0  0  0  0
  191.5870  176.1630  137.5630 C   0  0  0  0  0  0  0  0  0  0  0  0
  191.0900  176.7050  136.5360 O   0  0  0  0  0  0  0  0  0  0  0  0
  192.1270  177.0050  138.6740 C   0  0  0  0  0  3  0  0  0  0  0  0
  193.4210  176.4150  139.2070 C   0  0  0  0  0  1  0  0  0  0  0  0
  191.1100  177.1250  139.7950 C   0  0  0  0  0  1  0  0  0  0  0  0
  193.4180  173.8850  135.3000 C   0  0  0  0  0  2  0  0  0  0  0  0
  193.5030  175.1080  134.4050 C   0  0  0  0  0  2  0  0  0  0  0  0
  194.8100  175.7480  136.2960 O   0  0  0  0  0  1  0  0  0  0  0  0
  194.3980  176.1620  135.0300 C   0  0  0  0  0  2  0  0  0  0  0  0
  185.0470  179.7650  140.4390 O   0  0  0  0  0  1  0  0  0  0  0  0
  185.6640  178.7240  139.7390 C   0  0  1  0  0  3  0  0  0  0  0  0
  186.7350  178.0490  140.5960 C   0  0  0  0  0  2  0  0  0  0  0  0
  186.9770  178.7850  141.9050 C   0  0  0  0  0  2  0  0  0  0  0  0
  187.6490  177.6890  143.1400 S   0  0  0  0  0  0  0  0  0  0  0  0
  187.0790  178.0460  144.4860 O   0  0  0  0  0  0  0  0  0  0  0  0
  187.2350  176.2860  142.7910 O   0  0  0  0  0  0  0  0  0  0  0  0
  191.6940  175.9090  144.5830 C   0  0  0  0  0  2  0  0  0  0  0  0
  189.4360  177.7840  143.1820 C   0  0  2  0  0  3  0  0  0  0  0  0
  190.2250  177.6750  145.6530 C   0  0  0  0  0  2  0  0  0  0  0  0
  191.4690  176.3960  143.2300 N   0  0  0  0  0  2  0  0  0  0  0  0
  190.0300  176.3830  143.0240 C   0  0  0  0  0  2  0  0  0  0  0  0
  190.9730  179.3950  144.1190 O   0  0  0  0  0  1  0  0  0  0  0  0
  189.9050  178.5500  144.4320 C   0  0  1  0  0  3  0  0  0  0  0  0
  191.6220  177.0540  145.5880 C   0  0  0  0  0  2  0  0  0  0  0  0
  180.7940  172.6220  135.1740 N   0  0  0  0  0  2  0  0  0  0  0  0
  179.9830  171.2350  136.7000 O   0  0  0  0  0  1  0  0  0  0  0  0
  180.3100  171.3210  135.3860 N   0  0  0  0  0  0  0  0  0  0  0  0
  181.6660  170.2510  135.1490 Cl  0  0  0  0  0  0  0  0  0  0  0  0
  2 16  1  0  0  0  0
  3  1  1  6  0  0  0
  3 12  1  0  0  0  0
  3 15  1  0  0  0  0
  4 18  1  0  0  0  0
  4 20  1  0  0  0  0
  4 16  1  1  0  0  0
  5  7  2  0  0  0  0
  6 10  1  0  0  0  0
  7  9  1  0  0  0  0
  8 14  1  0  0  0  0
  8 15  1  0  0  0  0
  9 17  2  0  0  0  0
 10 37  1  6  0  0  0
 10 17  1  0  0  0  0
 11  6  2  0  0  0  0
 11  7  1  0  0  0  0
 12 14  1  0  0  0  0
 13  1  1  0  0  0  0
 13 19  1  0  0  0  0
 14 21  1  6  0  0  0
 15  2  1  6  0  0  0
 18 20  1  0  0  0  0
 18  5  1  1  0  0  0
 19  6  1  0  0  0  0
 20 51  1  6  0  0  0
 21 23  1  0  0  0  0
 22 24  1  0  0  0  0
 22 25  2  0  0  0  0
 23 26  1  6  0  0  0
 24 21  2  0  0  0  0
 25 23  1  0  0  0  0
 27 26  1  0  0  0  0
 27 29  1  0  0  0  0
 28 27  2  0  0  0  0
 29 30  1  0  0  0  0
 29 31  1  0  0  0  0
 32 25  1  0  0  0  0
 33 35  1  0  0  0  0
 33 32  1  0  0  0  0
 35 34  1  0  0  0  0
 37 36  1  1  0  0  0
 37 38  1  0  0  0  0
 38 39  1  0  0  0  0
 39 40  1  0  0  0  0
 40 41  2  0  0  0  0
 42 40  2  0  0  0  0
 43 50  1  0  0  0  0
 44 40  1  1  0  0  0
 44 49  1  0  0  0  0
 46 43  1  0  0  0  0
 47 44  1  0  0  0  0
 47 46  1  0  0  0  0
 49 48  1  6  0  0  0
 49 45  1  0  0  0  0
 50 45  1  0  0  0  0
 51 53  1  0  0  0  0
 53 52  1  0  0  0  0
 54 53  1  0  0  0  0
M  END
>  <MODEL>
4

>  <REMARK>
 VINA RESULT:      -6.4      1.548      1.953
  Name = 
  13 active torsions:
  status: ('A' for Active; 'I' for Inactive)
    1  A    between atoms: C_1  and  C_39
    2  A    between atoms: S_4  and  C_20
    3  A    between atoms: S_4  and  C_27
    4  A    between atoms: C_6  and  C_27
    5  A    between atoms: C_6  and  C_37
    6  A    between atoms: C_10  and  C_47
    7  A    between atoms: C_13  and  N_46
    8  A    between atoms: C_15  and  C_43
    9  A    between atoms: N_18  and  N_30
   10  A    between atoms: N_18  and  C_51
   11  A    between atoms: C_26  and  C_43
   12  A    between atoms: C_26  and  C_54
   13  A    between atoms: C_33  and  C_37
                            x       y       z     vdW  Elec       q    Type
                         _______ _______ _______ _____ _____    ______ ____

>  <TORSDO>
F 13

$$$$
=
 OpenBabel10232411123D

 54 59  0  0  1  0  0  0  0  0999 V2000
  190.0060  178.2430  138.4560 C   0  0  0  0  0  2  0  0  0  0  0  0
  191.6130  175.8600  138.3430 C   0  0  0  0  0  2  0  0  0  0  0  0
  189.3960  176.9850  139.0880 C   0  0  2  0  0  3  0  0  0  0  0  0
  192.0550  176.3360  135.9630 C   0  0  2  0  0  3  0  0  0  0  0  0
  190.1720  175.8830  134.3460 N   0  0  0  0  0  0  0  0  0  0  0  0
  187.7460  177.6970  136.4420 C   0  0  0  0  0  0  0  0  0  0  0  0
  188.9270  176.3400  134.8810 C   0  0  0  0  0  0  0  0  0  0  0  0
  190.8550  175.9550  140.7220 C   0  0  0  0  0  2  0  0  0  0  0  0
  187.7440  175.7050  134.5050 C   0  0  0  0  0  3  0  0  0  0  0  0
  186.5280  177.0900  136.0750 C   0  0  2  0  0  3  0  0  0  0  0  0
  188.8980  177.3210  135.8200 N   0  0  0  0  0  0  0  0  0  0  0  0
  188.8570  177.3080  140.4770 C   0  0  0  0  0  2  0  0  0  0  0  0
  188.9670  179.2570  137.9670 C   0  0  0  0  0  2  0  0  0  0  0  0
  189.6140  176.4170  141.4530 C   0  0  2  0  0  3  0  0  0  0  0  0
  190.4120  175.8510  139.2840 C   0  0  2  0  0  3  0  0  0  0  0  0
  191.2030  175.5140  136.9230 C   0  0  0  0  0  2  0  0  0  0  0  0
  186.5430  176.0940  135.0940 C   0  0  0  0  0  3  0  0  0  0  0  0
  191.4490  176.5550  134.5700 C   0  0  2  0  0  3  0  0  0  0  0  0
  187.7750  178.6470  137.4690 O   0  0  0  0  0  0  0  0  0  0  0  0
  192.5130  175.4920  134.7900 C   0  0  1  0  0  3  0  0  0  0  0  0
  189.9500  177.1300  142.7290 C   0  0  0  0  0  0  0  0  0  0  0  0
  191.0760  178.2770  144.1930 N   0  0  0  0  0  0  0  0  0  0  0  0
  189.0740  177.4380  143.7480 C   0  0  1  0  0  3  0  0  0  0  0  0
  191.1630  177.6450  143.0290 N   0  0  0  0  0  0  0  0  0  0  0  0
  189.8080  178.1780  144.6420 C   0  0  0  0  0  0  0  0  0  0  0  0
  187.6790  177.1400  143.8230 N   0  0  0  0  0  2  0  0  0  0  0  0
  186.6870  177.9730  143.2110 C   0  0  0  0  0  0  0  0  0  0  0  0
  187.0340  178.9160  142.4450 O   0  0  0  0  0  0  0  0  0  0  0  0
  185.2380  177.6890  143.4480 C   0  0  0  0  0  3  0  0  0  0  0  0
  184.4200  178.0460  142.2200 C   0  0  0  0  0  1  0  0  0  0  0  0
  184.7330  178.4630  144.6530 C   0  0  0  0  0  1  0  0  0  0  0  0
  189.3260  178.7590  145.9260 C   0  0  0  0  0  2  0  0  0  0  0  0
  189.3620  177.7110  147.0230 C   0  0  0  0  0  2  0  0  0  0  0  0
  187.0870  178.4310  147.0600 O   0  0  0  0  0  1  0  0  0  0  0  0
  188.0150  177.6190  147.7130 C   0  0  0  0  0  2  0  0  0  0  0  0
  184.3100  177.9490  135.6930 O   0  0  0  0  0  1  0  0  0  0  0  0
  185.2020  177.4890  136.6660 C   0  0  1  0  0  3  0  0  0  0  0  0
  184.5680  176.3820  137.5100 C   0  0  0  0  0  2  0  0  0  0  0  0
  183.2000  175.9700  136.9880 C   0  0  0  0  0  2  0  0  0  0  0  0
  181.9440  176.2120  138.2300 S   0  0  0  0  0  0  0  0  0  0  0  0
  180.5950  176.2800  137.5670 O   0  0  0  0  0  0  0  0  0  0  0  0
  181.9720  175.0280  139.1570 O   0  0  0  0  0  0  0  0  0  0  0  0
  180.2410  179.8600  140.5530 C   0  0  0  0  0  2  0  0  0  0  0  0
  182.2450  177.7050  139.1690 C   0  0  2  0  0  3  0  0  0  0  0  0
  180.8890  179.6510  138.1130 C   0  0  0  0  0  2  0  0  0  0  0  0
  181.3630  179.0610  141.0250 N   0  0  0  0  0  2  0  0  0  0  0  0
  181.2670  177.7800  140.3440 C   0  0  0  0  0  2  0  0  0  0  0  0
  183.2550  179.8250  138.6050 O   0  0  0  0  0  1  0  0  0  0  0  0
  182.2410  178.9340  138.2430 C   0  0  1  0  0  3  0  0  0  0  0  0
  180.6100  180.6060  139.2750 C   0  0  0  0  0  2  0  0  0  0  0  0
  193.8120  175.9750  134.3470 N   0  0  0  0  0  2  0  0  0  0  0  0
  195.1590  177.6230  134.9630 O   0  0  0  0  0  1  0  0  0  0  0  0
  194.4520  176.5700  135.4450 N   0  0  0  0  0  0  0  0  0  0  0  0
  195.6250  175.4130  136.0150 Cl  0  0  0  0  0  0  0  0  0  0  0  0
  3  1  1  1  0  0  0
  3 15  1  0  0  0  0
  3 12  1  0  0  0  0
  4 16  1  1  0  0  0
  5  7  2  0  0  0  0
  6 19  1  0  0  0  0
  7 11  1  0  0  0  0
  8 14  1  0  0  0  0
  9  7  1  0  0  0  0
  9 17  2  0  0  0  0
 10  6  1  0  0  0  0
 10 37  1  6  0  0  0
 11  6  2  0  0  0  0
 12 14  1  0  0  0  0
 13  1  1  0  0  0  0
 14 21  1  1  0  0  0
 15  2  1  6  0  0  0
 15  8  1  0  0  0  0
 16  2  1  0  0  0  0
 17 10  1  0  0  0  0
 18  5  1  1  0  0  0
 18 20  1  0  0  0  0
 18  4  1  0  0  0  0
 19 13  1  0  0  0  0
 20 51  1  6  0  0  0
 20  4  1  0  0  0  0
 21 24  2  0  0  0  0
 21 23  1  0  0  0  0
 22 25  2  0  0  0  0
 23 26  1  6  0  0  0
 23 25  1  0  0  0  0
 24 22  1  0  0  0  0
 25 32  1  0  0  0  0
 27 29  1  0  0  0  0
 27 26  1  0  0  0  0
 28 27  2  0  0  0  0
 29 31  1  0  0  0  0
 30 29  1  0  0  0  0
 32 33  1  0  0  0  0
 33 35  1  0  0  0  0
 34 35  1  0  0  0  0
 37 36  1  6  0  0  0
 37 38  1  0  0  0  0
 39 38  1  0  0  0  0
 39 40  1  0  0  0  0
 40 42  2  0  0  0  0
 41 40  2  0  0  0  0
 43 46  1  0  0  0  0
 44 40  1  6  0  0  0
 44 47  1  0  0  0  0
 45 49  1  0  0  0  0
 45 50  1  0  0  0  0
 47 46  1  0  0  0  0
 49 48  1  1  0  0  0
 49 44  1  0  0  0  0
 50 43  1  0  0  0  0
 51 53  1  0  0  0  0
 52 53  1  0  0  0  0
 53 54  1  0  0  0  0
M  END
>  <MODEL>
5

>  <REMARK>
 VINA RESULT:      -5.4      3.942      8.926
  Name = 
  13 active torsions:
  status: ('A' for Active; 'I' for Inactive)
    1  A    between atoms: C_1  and  C_39
    2  A    between atoms: S_4  and  C_20
    3  A    between atoms: S_4  and  C_27
    4  A    between atoms: C_6  and  C_27
    5  A    between atoms: C_6  and  C_37
    6  A    between atoms: C_10  and  C_47
    7  A    between atoms: C_13  and  N_46
    8  A    between atoms: C_15  and  C_43
    9  A    between atoms: N_18  and  N_30
   10  A    between atoms: N_18  and  C_51
   11  A    between atoms: C_26  and  C_43
   12  A    between atoms: C_26  and  C_54
   13  A    between atoms: C_33  and  C_37
                            x       y       z     vdW  Elec       q    Type
                         _______ _______ _______ _____ _____    ______ ____

>  <TORSDO>
F 13

$$$$
=
 OpenBabel10232411123D

 54 59  0  0  1  0  0  0  0  0999 V2000
  186.9680  177.4290  136.6200 C   0  0  0  0  0  2  0  0  0  0  0  0
  186.2250  174.6810  136.2100 C   0  0  0  0  0  2  0  0  0  0  0  0
  187.4700  176.4290  137.6690 C   0  0  2  0  0  3  0  0  0  0  0  0
  183.9170  175.4260  135.7670 C   0  0  2  0  0  3  0  0  0  0  0  0
  182.5500  176.1390  137.7640 N   0  0  0  0  0  0  0  0  0  0  0  0
  185.2560  178.2980  139.0230 C   0  0  0  0  0  0  0  0  0  0  0  0
  183.3340  176.9410  138.6510 C   0  0  0  0  0  0  0  0  0  0  0  0
  188.6750  174.5710  136.6920 C   0  0  0  0  0  2  0  0  0  0  0  0
  183.0420  176.9420  140.0140 C   0  0  0  0  0  3  0  0  0  0  0  0
  184.9830  178.3360  140.4050 C   0  0  2  0  0  3  0  0  0  0  0  0
  184.4150  177.6240  138.1910 N   0  0  0  0  0  0  0  0  0  0  0  0
  188.9590  176.6420  137.9220 C   0  0  0  0  0  2  0  0  0  0  0  0
  186.8130  178.8580  137.1490 C   0  0  0  0  0  2  0  0  0  0  0  0
  189.6510  175.3340  137.5600 C   0  0  2  0  0  3  0  0  0  0  0  0
  187.3230  174.9650  137.2310 C   0  0  2  0  0  3  0  0  0  0  0  0
  184.8470  174.8430  136.8230 C   0  0  0  0  0  2  0  0  0  0  0  0
  183.8610  177.6540  140.8870 C   0  0  0  0  0  3  0  0  0  0  0  0
  182.6850  176.1640  136.3100 C   0  0  2  0  0  3  0  0  0  0  0  0
  186.4080  178.9110  138.5180 O   0  0  0  0  0  0  0  0  0  0  0  0
  182.5660  174.7380  135.7970 C   0  0  1  0  0  3  0  0  0  0  0  0
  190.9600  175.5580  136.8650 C   0  0  0  0  0  0  0  0  0  0  0  0
  192.9470  176.3370  136.4510 N   0  0  0  0  0  0  0  0  0  0  0  0
  191.4600  174.8260  135.8080 C   0  0  0  0  0  0  0  0  0  0  0  0
  191.8820  176.4760  137.2310 N   0  0  0  0  0  2  0  0  0  0  0  0
  192.7200  175.3270  135.5890 C   0  0  0  0  0  0  0  0  0  0  0  0
  190.8480  173.7200  135.1430 N   0  0  0  0  0  2  0  0  0  0  0  0
  191.3350  172.3800  135.2840 C   0  0  0  0  0  0  0  0  0  0  0  0
  192.2290  172.1160  136.1360 O   0  0  0  0  0  0  0  0  0  0  0  0
  190.7430  171.2900  134.4490 C   0  0  0  0  0  3  0  0  0  0  0  0
  189.2960  171.0490  134.8380 C   0  0  0  0  0  1  0  0  0  0  0  0
  191.5430  170.0080  134.6030 C   0  0  0  0  0  1  0  0  0  0  0  0
  193.6880  174.8780  134.5490 C   0  0  0  0  0  2  0  0  0  0  0  0
  195.1080  174.9800  135.0750 C   0  0  0  0  0  2  0  0  0  0  0  0
  196.6150  176.6620  135.8460 O   0  0  0  0  0  1  0  0  0  0  0  0
  195.6450  176.3850  134.8820 C   0  0  0  0  0  2  0  0  0  0  0  0
  185.1950  179.2410  142.6280 O   0  0  0  0  0  1  0  0  0  0  0  0
  185.8240  179.1080  141.3870 C   0  0  1  0  0  3  0  0  0  0  0  0
  187.2320  178.5350  141.5460 C   0  0  0  0  0  2  0  0  0  0  0  0
  187.4940  178.0280  142.9560 C   0  0  0  0  0  2  0  0  0  0  0  0
  189.0910  177.2450  143.0680 S   0  0  0  0  0  0  0  0  0  0  0  0
  188.9120  175.7510  143.1150 O   0  0  0  0  0  0  0  0  0  0  0  0
  189.8720  177.6030  141.8340 O   0  0  0  0  0  0  0  0  0  0  0  0
  191.5850  176.2060  146.8510 C   0  0  0  0  0  2  0  0  0  0  0  0
  189.9830  177.8050  144.5150 C   0  0  2  0  0  3  0  0  0  0  0  0
  189.0860  176.5400  146.5970 C   0  0  0  0  0  2  0  0  0  0  0  0
  191.9250  177.2880  145.9380 N   0  0  0  0  0  2  0  0  0  0  0  0
  191.2650  176.9840  144.6790 C   0  0  0  0  0  2  0  0  0  0  0  0
  189.2970  178.9520  146.5260 O   0  0  0  0  0  1  0  0  0  0  0  0
  189.0600  177.8180  145.7460 C   0  0  1  0  0  3  0  0  0  0  0  0
  190.2690  176.4970  147.5660 C   0  0  0  0  0  2  0  0  0  0  0  0
  182.0170  174.7280  134.4490 N   0  0  0  0  0  2  0  0  0  0  0  0
  180.1740  173.8780  135.3370 O   0  0  0  0  0  1  0  0  0  0  0  0
  181.0960  173.6730  134.3640 N   0  0  0  0  0  0  0  0  0  0  0  0
  181.9640  172.2280  134.8090 Cl  0  0  0  0  0  0  0  0  0  0  0  0
  1 13  1  0  0  0  0
  2 16  1  0  0  0  0
  3  1  1  6  0  0  0
  3 12  1  0  0  0  0
  4 20  1  0  0  0  0
  4 18  1  0  0  0  0
  4 16  1  1  0  0  0
  5  7  2  0  0  0  0
  6 10  1  0  0  0  0
  7  9  1  0  0  0  0
  8 15  1  0  0  0  0
  8 14  1  0  0  0  0
  9 17  2  0  0  0  0
 10 17  1  0  0  0  0
 10 37  1  6  0  0  0
 11  7  1  0  0  0  0
 11  6  2  0  0  0  0
 13 19  1  0  0  0  0
 14 21  1  6  0  0  0
 14 12  1  0  0  0  0
 15  2  1  6  0  0  0
 15  3  1  0  0  0  0
 18  5  1  1  0  0  0
 19  6  1  0  0  0  0
 20 51  1  6  0  0  0
 20 18  1  0  0  0  0
 21 24  1  0  0  0  0
 22 24  1  0  0  0  0
 23 21  2  0  0  0  0
 25 23  1  0  0  0  0
 25 22  2  0  0  0  0
 26 27  1  0  0  0  0
 26 23  1  0  0  0  0
 27 28  2  0  0  0  0
 29 31  1  0  0  0  0
 29 30  1  0  0  0  0
 29 27  1  0  0  0  0
 32 33  1  0  0  0  0
 32 25  1  0  0  0  0
 35 33  1  0  0  0  0
 35 34  1  0  0  0  0
 37 38  1  0  0  0  0
 37 36  1  1  0  0  0
 38 39  1  0  0  0  0
 39 40  1  0  0  0  0
 40 41  2  0  0  0  0
 42 40  2  0  0  0  0
 43 50  1  0  0  0  0
 44 40  1  6  0  0  0
 44 47  1  0  0  0  0
 44 49  1  0  0  0  0
 45 50  1  0  0  0  0
 46 43  1  0  0  0  0
 47 46  1  0  0  0  0
 49 48  1  1  0  0  0
 49 45  1  0  0  0  0
 53 51  1  0  0  0  0
 53 54  1  0  0  0  0
 53 52  1  0  0  0  0
M  END
>  <MODEL>
6

>  <REMARK>
 VINA RESULT:      -5.2      2.246      3.722
  Name = 
  13 active torsions:
  status: ('A' for Active; 'I' for Inactive)
    1  A    between atoms: C_1  and  C_39
    2  A    between atoms: S_4  and  C_20
    3  A    between atoms: S_4  and  C_27
    4  A    between atoms: C_6  and  C_27
    5  A    between atoms: C_6  and  C_37
    6  A    between atoms: C_10  and  C_47
    7  A    between atoms: C_13  and  N_46
    8  A    between atoms: C_15  and  C_43
    9  A    between atoms: N_18  and  N_30
   10  A    between atoms: N_18  and  C_51
   11  A    between atoms: C_26  and  C_43
   12  A    between atoms: C_26  and  C_54
   13  A    between atoms: C_33  and  C_37
                            x       y       z     vdW  Elec       q    Type
                         _______ _______ _______ _____ _____    ______ ____

>  <TORSDO>
F 13

$$$$
=
 OpenBabel10232411123D

 54 59  0  0  1  0  0  0  0  0999 V2000
  186.3240  179.6130  142.0620 C   0  0  0  0  0  2  0  0  0  0  0  0
  185.0100  178.0350  144.0760 C   0  0  0  0  0  2  0  0  0  0  0  0
  185.7050  178.2920  141.5890 C   0  0  2  0  0  3  0  0  0  0  0  0
  186.9570  178.3900  145.5480 C   0  0  2  0  0  3  0  0  0  0  0  0
  189.0440  177.0790  145.0070 N   0  0  0  0  0  2  0  0  0  0  0  0
  188.8900  178.0310  141.4510 C   0  0  0  0  0  0  0  0  0  0  0  0
  189.2850  177.0760  143.5970 C   0  0  0  0  0  0  0  0  0  0  0  0
  183.3700  178.0810  142.1910 C   0  0  0  0  0  2  0  0  0  0  0  0
  189.9560  175.9990  143.0190 C   0  0  0  0  0  3  0  0  0  0  0  0
  189.5760  176.9660  140.8320 C   0  0  0  0  0  0  0  0  0  0  0  0
  188.7870  178.0640  142.8090 N   0  0  0  0  0  0  0  0  0  0  0  0
  184.8680  178.5270  140.3360 C   0  0  0  0  0  2  0  0  0  0  0  0
  187.4970  180.0920  141.2020 C   0  0  0  0  0  2  0  0  0  0  0  0
  183.4450  178.1050  140.6810 C   0  0  2  0  0  3  0  0  0  0  0  0
  184.7550  177.6640  142.6180 C   0  0  2  0  0  3  0  0  0  0  0  0
  186.2960  177.4100  144.5870 C   0  0  0  0  0  2  0  0  0  0  0  0
  190.1120  175.9550  141.6350 C   0  0  0  0  0  3  0  0  0  0  0  0
  188.4710  178.2110  145.7310 C   0  0  2  0  0  3  0  0  0  0  0  0
  188.2810  179.0210  140.6730 O   0  0  0  0  0  0  0  0  0  0  0  0
  187.4990  177.6680  146.7660 C   0  0  1  0  0  3  0  0  0  0  0  0
  182.4200  179.0220  140.0840 C   0  0  0  0  0  0  0  0  0  0  0  0
  180.9440  180.6100  139.9280 N   0  0  0  0  0  0  0  0  0  0  0  0
  182.1300  179.1610  138.7430 C   0  0  0  0  0  0  0  0  0  0  0  0
  181.6790  179.9100  140.7830 N   0  0  0  0  0  2  0  0  0  0  0  0
  181.2150  180.1830  138.6790 C   0  0  0  0  0  0  0  0  0  0  0  0
  182.7200  178.4660  137.6440 N   0  0  0  0  0  2  0  0  0  0  0  0
  182.2760  177.1670  137.2360 C   0  0  0  0  0  0  0  0  0  0  0  0
  181.2330  176.6640  137.7420 O   0  0  0  0  0  0  0  0  0  0  0  0
  183.0280  176.4310  136.1730 C   0  0  0  0  0  3  0  0  0  0  0  0
  183.1800  177.2960  134.9350 C   0  0  0  0  0  1  0  0  0  0  0  0
  182.3200  175.1350  135.8190 C   0  0  0  0  0  1  0  0  0  0  0  0
  180.5750  180.7300  137.4490 C   0  0  0  0  0  2  0  0  0  0  0  0
  180.1020  182.1520  137.6900 C   0  0  0  0  0  2  0  0  0  0  0  0
  181.5140  184.0430  137.3410 O   0  0  0  0  0  1  0  0  0  0  0  0
  180.7280  183.0970  136.6830 C   0  0  0  0  0  2  0  0  0  0  0  0
  190.0420  178.1370  138.7780 O   0  0  0  0  0  1  0  0  0  0  0  0
  189.7900  176.8840  139.3440 C   0  0  1  0  0  3  0  0  0  0  0  0
  190.8750  175.8800  138.9530 C   0  0  0  0  0  2  0  0  0  0  0  0
  191.2950  176.0210  137.4980 C   0  0  0  0  0  2  0  0  0  0  0  0
  190.4200  174.8600  136.4650 S   0  0  0  0  0  0  0  0  0  0  0  0
  191.3740  174.2690  135.4620 O   0  0  0  0  0  0  0  0  0  0  0  0
  189.8930  173.7600  137.3450 O   0  0  0  0  0  0  0  0  0  0  0  0
  187.4160  178.3980  136.2120 C   0  0  0  0  0  2  0  0  0  0  0  0
  189.0520  175.6500  135.6240 C   0  0  2  0  0  3  0  0  0  0  0  0
  187.1780  176.1470  137.3500 C   0  0  0  0  0  2  0  0  0  0  0  0
  188.1150  177.8550  135.0560 N   0  0  0  0  0  2  0  0  0  0  0  0
  189.2840  177.1620  135.5730 C   0  0  0  0  0  2  0  0  0  0  0  0
  186.7540  175.0030  135.2570 O   0  0  0  0  0  1  0  0  0  0  0  0
  187.7140  175.2200  136.2490 C   0  0  1  0  0  3  0  0  0  0  0  0
  186.4500  177.3710  136.7910 C   0  0  0  0  0  2  0  0  0  0  0  0
  187.4250  178.5640  147.9100 N   0  0  0  0  0  2  0  0  0  0  0  0
  189.3950  178.4540  148.9170 O   0  0  0  0  0  1  0  0  0  0  0  0
  188.1280  177.9730  148.9720 N   0  0  0  0  0  0  0  0  0  0  0  0
  188.2340  176.2730  148.6010 Cl  0  0  0  0  0  0  0  0  0  0  0  0
  2 16  1  0  0  0  0
  3 12  1  6  0  0  0
  3  1  1  0  0  0  0
  3 15  1  0  0  0  0
  4 16  1  6  0  0  0
  4 18  1  0  0  0  0
  4 20  1  0  0  0  0
  6 11  2  0  0  0  0
  7  5  1  0  0  0  0
  9  7  2  0  0  0  0
 10  6  1  0  0  0  0
 10 17  2  0  0  0  0
 11  7  1  0  0  0  0
 12 14  1  0  0  0  0
 13  1  1  0  0  0  0
 14 21  1  1  0  0  0
 14  8  1  0  0  0  0
 15  8  1  6  0  0  0
 15  2  1  0  0  0  0
 17  9  1  0  0  0  0
 18  5  1  6  0  0  0
 18 20  1  0  0  0  0
 19 13  1  0  0  0  0
 19  6  1  0  0  0  0
 20 51  1  1  0  0  0
 21 24  1  0  0  0  0
 22 24  1  0  0  0  0
 23 21  2  0  0  0  0
 25 23  1  0  0  0  0
 25 22  2  0  0  0  0
 26 23  1  0  0  0  0
 27 26  1  0  0  0  0
 27 28  2  0  0  0  0
 29 27  1  0  0  0  0
 30 29  1  0  0  0  0
 31 29  1  0  0  0  0
 32 33  1  0  0  0  0
 32 25  1  0  0  0  0
 35 34  1  0  0  0  0
 35 33  1  0  0  0  0
 37 36  1  1  0  0  0
 37 10  1  0  0  0  0
 38 37  1  0  0  0  0
 39 38  1  0  0  0  0
 40 42  2  0  0  0  0
 40 39  1  0  0  0  0
 41 40  2  0  0  0  0
 43 50  1  0  0  0  0
 44 49  1  0  0  0  0
 44 40  1  1  0  0  0
 46 47  1  0  0  0  0
 46 43  1  0  0  0  0
 47 44  1  0  0  0  0
 49 48  1  6  0  0  0
 49 45  1  0  0  0  0
 50 45  1  0  0  0  0
 51 53  1  0  0  0  0
 52 53  1  0  0  0  0
 54 53  1  0  0  0  0
M  END
>  <MODEL>
7

>  <REMARK>
 VINA RESULT:      -5.1      4.082     10.592
  Name = 
  13 active torsions:
  status: ('A' for Active; 'I' for Inactive)
    1  A    between atoms: C_1  and  C_39
    2  A    between atoms: S_4  and  C_20
    3  A    between atoms: S_4  and  C_27
    4  A    between atoms: C_6  and  C_27
    5  A    between atoms: C_6  and  C_37
    6  A    between atoms: C_10  and  C_47
    7  A    between atoms: C_13  and  N_46
    8  A    between atoms: C_15  and  C_43
    9  A    between atoms: N_18  and  N_30
   10  A    between atoms: N_18  and  C_51
   11  A    between atoms: C_26  and  C_43
   12  A    between atoms: C_26  and  C_54
   13  A    between atoms: C_33  and  C_37
                            x       y       z     vdW  Elec       q    Type
                         _______ _______ _______ _____ _____    ______ ____

>  <TORSDO>
F 13

$$$$
=
 OpenBabel10232411123D

 54 59  0  0  1  0  0  0  0  0999 V2000
  189.9950  178.2970  139.1440 C   0  0  0  0  0  2  0  0  0  0  0  0
  191.8820  176.1630  139.5360 C   0  0  0  0  0  2  0  0  0  0  0  0
  189.4200  176.9730  139.6620 C   0  0  2  0  0  3  0  0  0  0  0  0
  192.8370  176.6710  137.3190 C   0  0  2  0  0  3  0  0  0  0  0  0
  191.4950  175.9410  135.3110 N   0  0  0  0  0  2  0  0  0  0  0  0
  188.4030  177.4180  136.6630 C   0  0  0  0  0  0  0  0  0  0  0  0
  190.1060  176.2240  135.5030 C   0  0  0  0  0  0  0  0  0  0  0  0
  190.5490  176.1750  141.6500 C   0  0  0  0  0  2  0  0  0  0  0  0
  189.1500  175.4260  134.8760 C   0  0  0  0  0  3  0  0  0  0  0  0
  187.4070  176.6420  136.0360 C   0  0  0  0  0  0  0  0  0  0  0  0
  189.7130  177.2010  136.3610 N   0  0  0  0  0  0  0  0  0  0  0  0
  188.5130  177.2310  140.8600 C   0  0  0  0  0  2  0  0  0  0  0  0
  188.9850  179.1500  138.3690 C   0  0  0  0  0  2  0  0  0  0  0  0
  189.1140  176.4660  142.0320 C   0  0  2  0  0  3  0  0  0  0  0  0
  190.4970  175.9950  140.1530 C   0  0  2  0  0  3  0  0  0  0  0  0
  191.8900  175.7480  138.0760 C   0  0  0  0  0  2  0  0  0  0  0  0
  187.8000  175.6480  135.1340 C   0  0  0  0  0  3  0  0  0  0  0  0
  192.5740  176.7880  135.8110 C   0  0  2  0  0  3  0  0  0  0  0  0
  188.0480  178.3730  137.6220 O   0  0  0  0  0  0  0  0  0  0  0  0
  193.6810  175.8880  136.3340 C   0  0  1  0  0  3  0  0  0  0  0  0
  189.0230  177.2320  143.3170 C   0  0  0  0  0  0  0  0  0  0  0  0
  189.6270  178.4170  145.0370 N   0  0  0  0  0  0  0  0  0  0  0  0
  187.8650  177.6170  143.9590 C   0  0  0  0  0  0  0  0  0  0  0  0
  190.0810  177.7250  143.9990 N   0  0  0  0  0  2  0  0  0  0  0  0
  188.2800  178.3800  145.0220 C   0  0  0  0  0  0  0  0  0  0  0  0
  186.5170  177.3660  143.5570 N   0  0  0  0  0  2  0  0  0  0  0  0
  185.7780  178.2860  142.7460 C   0  0  0  0  0  0  0  0  0  0  0  0
  186.3580  179.2800  142.2240 O   0  0  0  0  0  0  0  0  0  0  0  0
  184.3280  178.0350  142.4810 C   0  0  0  0  0  3  0  0  0  0  0  0
  183.9630  178.4660  141.0720 C   0  0  0  0  0  1  0  0  0  0  0  0
  183.4660  178.7750  143.4900 C   0  0  0  0  0  1  0  0  0  0  0  0
  187.4120  179.0390  146.0380 C   0  0  0  0  0  2  0  0  0  0  0  0
  186.9130  178.0190  147.0460 C   0  0  0  0  0  2  0  0  0  0  0  0
  184.8540  179.1660  146.6760 O   0  0  0  0  0  1  0  0  0  0  0  0
  185.4010  177.9240  146.9990 C   0  0  0  0  0  2  0  0  0  0  0  0
  185.2920  177.3500  135.1250 O   0  0  0  0  0  1  0  0  0  0  0  0
  185.9350  176.8560  136.2640 C   0  0  1  0  0  3  0  0  0  0  0  0
  185.2250  175.6100  136.7940 C   0  0  0  0  0  2  0  0  0  0  0  0
  183.9460  175.3050  136.0310 C   0  0  0  0  0  2  0  0  0  0  0  0
  182.6210  174.8850  137.1470 S   0  0  0  0  0  0  0  0  0  0  0  0
  182.8850  175.5080  138.4910 O   0  0  0  0  0  0  0  0  0  0  0  0
  181.3450  175.4520  136.5890 O   0  0  0  0  0  0  0  0  0  0  0  0
  182.9520  170.6640  135.2270 C   0  0  0  0  0  2  0  0  0  0  0  0
  182.4560  173.1100  137.3120 C   0  0  2  0  0  3  0  0  0  0  0  0
  180.9600  172.2220  135.3850 C   0  0  0  0  0  2  0  0  0  0  0  0
  183.4320  170.9770  136.5660 N   0  0  0  0  0  2  0  0  0  0  0  0
  183.6230  172.4170  136.6060 C   0  0  0  0  0  2  0  0  0  0  0  0
  180.5610  171.6660  137.7090 O   0  0  0  0  0  1  0  0  0  0  0  0
  181.0590  172.6530  136.8550 C   0  0  1  0  0  3  0  0  0  0  0  0
  181.4330  170.7850  135.1560 C   0  0  0  0  0  2  0  0  0  0  0  0
  194.9730  176.5440  136.2030 N   0  0  0  0  0  2  0  0  0  0  0  0
  197.1550  176.1600  136.1730 O   0  0  0  0  0  1  0  0  0  0  0  0
  195.9690  175.6140  136.5400 N   0  0  0  0  0  0  0  0  0  0  0  0
  195.7230  174.2360  135.5010 Cl  0  0  0  0  0  0  0  0  0  0  0  0
  3  1  1  1  0  0  0
  3 15  1  0  0  0  0
  3 12  1  0  0  0  0
  4 16  1  1  0  0  0
  5  7  1  0  0  0  0
  6 19  1  0  0  0  0
  7 11  1  0  0  0  0
  8 14  1  0  0  0  0
  9 17  1  0  0  0  0
  9  7  2  0  0  0  0
 10 37  1  0  0  0  0
 10  6  1  0  0  0  0
 11  6  2  0  0  0  0
 12 14  1  0  0  0  0
 13  1  1  0  0  0  0
 14 21  1  1  0  0  0
 15  2  1  6  0  0  0
 15  8  1  0  0  0  0
 16  2  1  0  0  0  0
 17 10  2  0  0  0  0
 18  5  1  1  0  0  0
 18 20  1  0  0  0  0
 18  4  1  0  0  0  0
 19 13  1  0  0  0  0
 20 51  1  6  0  0  0
 20  4  1  0  0  0  0
 21 23  2  0  0  0  0
 21 24  1  0  0  0  0
 23 25  1  0  0  0  0
 24 22  1  0  0  0  0
 25 22  2  0  0  0  0
 25 32  1  0  0  0  0
 26 23  1  0  0  0  0
 27 26  1  0  0  0  0
 28 27  2  0  0  0  0
 29 27  1  0  0  0  0
 29 31  1  0  0  0  0
 30 29  1  0  0  0  0
 32 33  1  0  0  0  0
 34 35  1  0  0  0  0
 35 33  1  0  0  0  0
 37 36  1  6  0  0  0
 37 38  1  0  0  0  0
 39 38  1  0  0  0  0
 39 40  1  0  0  0  0
 40 41  2  0  0  0  0
 42 40  2  0  0  0  0
 43 46  1  0  0  0  0
 44 40  1  6  0  0  0
 45 49  1  0  0  0  0
 46 47  1  0  0  0  0
 47 44  1  0  0  0  0
 49 44  1  0  0  0  0
 49 48  1  1  0  0  0
 50 43  1  0  0  0  0
 50 45  1  0  0  0  0
 51 53  1  0  0  0  0
 52 53  1  0  0  0  0
 54 53  1  0  0  0  0
M  END
>  <MODEL>
8

>  <REMARK>
 VINA RESULT:      -5.0      3.391     10.010
  Name = 
  13 active torsions:
  status: ('A' for Active; 'I' for Inactive)
    1  A    between atoms: C_1  and  C_39
    2  A    between atoms: S_4  and  C_20
    3  A    between atoms: S_4  and  C_27
    4  A    between atoms: C_6  and  C_27
    5  A    between atoms: C_6  and  C_37
    6  A    between atoms: C_10  and  C_47
    7  A    between atoms: C_13  and  N_46
    8  A    between atoms: C_15  and  C_43
    9  A    between atoms: N_18  and  N_30
   10  A    between atoms: N_18  and  C_51
   11  A    between atoms: C_26  and  C_43
   12  A    between atoms: C_26  and  C_54
   13  A    between atoms: C_33  and  C_37
                            x       y       z     vdW  Elec       q    Type
                         _______ _______ _______ _____ _____    ______ ____

>  <TORSDO>
F 13

$$$$
=
 OpenBabel10232411123D

 54 59  0  0  1  0  0  0  0  0999 V2000
  186.2380  179.5960  142.0650 C   0  0  0  0  0  2  0  0  0  0  0  0
  184.9960  177.9780  144.0920 C   0  0  0  0  0  2  0  0  0  0  0  0
  185.6420  178.2640  141.5950 C   0  0  2  0  0  3  0  0  0  0  0  0
  186.9580  178.3720  145.5330 C   0  0  2  0  0  3  0  0  0  0  0  0
  189.0650  177.1130  144.9510 N   0  0  0  0  0  2  0  0  0  0  0  0
  188.8300  178.0770  141.4030 C   0  0  0  0  0  0  0  0  0  0  0  0
  189.2830  177.1220  143.5370 C   0  0  0  0  0  0  0  0  0  0  0  0
  183.3230  177.9950  142.2350 C   0  0  0  0  0  2  0  0  0  0  0  0
  189.9690  176.0640  142.9420 C   0  0  0  0  0  3  0  0  0  0  0  0
  189.5290  177.0320  140.7670 C   0  0  0  0  0  0  0  0  0  0  0  0
  188.7480  178.1020  142.7620 N   0  0  0  0  0  0  0  0  0  0  0  0
  184.7790  178.4840  140.3580 C   0  0  0  0  0  2  0  0  0  0  0  0
  187.3850  180.1060  141.1870 C   0  0  0  0  0  2  0  0  0  0  0  0
  183.3730  178.0280  140.7230 C   0  0  2  0  0  3  0  0  0  0  0  0
  184.7240  177.6080  142.6360 C   0  0  2  0  0  3  0  0  0  0  0  0
  186.3030  177.3810  144.5780 C   0  0  0  0  0  2  0  0  0  0  0  0
  190.1030  176.0300  141.5560 C   0  0  0  0  0  3  0  0  0  0  0  0
  188.4780  178.2270  145.6900 C   0  0  2  0  0  3  0  0  0  0  0  0
  188.1850  179.0570  140.6400 O   0  0  0  0  0  0  0  0  0  0  0  0
  187.5370  177.6580  146.7380 C   0  0  1  0  0  3  0  0  0  0  0  0
  182.3170  178.9230  140.1490 C   0  0  0  0  0  0  0  0  0  0  0  0
  180.7530  180.4290  140.0400 N   0  0  0  0  0  0  0  0  0  0  0  0
  182.0690  179.1400  138.8100 C   0  0  0  0  0  0  0  0  0  0  0  0
  181.4960  179.7140  140.8750 N   0  0  0  0  0  2  0  0  0  0  0  0
  181.0970  180.1090  138.7770 C   0  0  0  0  0  0  0  0  0  0  0  0
  182.7420  178.5610  137.6910 N   0  0  0  0  0  2  0  0  0  0  0  0
  182.3980  177.2680  137.1790 C   0  0  0  0  0  0  0  0  0  0  0  0
  181.3710  176.6690  137.6070 O   0  0  0  0  0  0  0  0  0  0  0  0
  183.2340  176.6560  136.1010 C   0  0  0  0  0  3  0  0  0  0  0  0
  184.6860  176.5760  136.5360 C   0  0  0  0  0  1  0  0  0  0  0  0
  183.1180  177.4580  134.8160 C   0  0  0  0  0  1  0  0  0  0  0  0
  180.4720  180.7030  137.5620 C   0  0  0  0  0  2  0  0  0  0  0  0
  181.0360  182.0880  137.3040 C   0  0  0  0  0  2  0  0  0  0  0  0
  181.0740  183.8830  135.7320 O   0  0  0  0  0  1  0  0  0  0  0  0
  180.4540  182.6690  136.0300 C   0  0  0  0  0  2  0  0  0  0  0  0
  190.0600  178.2030  138.7290 O   0  0  0  0  0  1  0  0  0  0  0  0
  189.7210  176.9620  139.2760 C   0  0  1  0  0  3  0  0  0  0  0  0
  190.7240  175.8870  138.8530 C   0  0  0  0  0  2  0  0  0  0  0  0
  191.4950  176.2770  137.6010 C   0  0  0  0  0  2  0  0  0  0  0  0
  193.2540  176.1840  137.8800 S   0  0  0  0  0  0  0  0  0  0  0  0
  193.9720  176.9200  136.7820 O   0  0  0  0  0  0  0  0  0  0  0  0
  193.5530  176.8520  139.1930 O   0  0  0  0  0  0  0  0  0  0  0  0
  196.7540  173.1300  137.7070 C   0  0  0  0  0  2  0  0  0  0  0  0
  193.8060  174.4820  137.9440 C   0  0  2  0  0  3  0  0  0  0  0  0
  195.2610  173.9920  135.8510 C   0  0  0  0  0  2  0  0  0  0  0  0
  195.6740  173.0580  138.6810 N   0  0  0  0  0  2  0  0  0  0  0  0
  195.1010  174.3920  138.7550 C   0  0  0  0  0  2  0  0  0  0  0  0
  193.4140  172.5730  136.5170 O   0  0  0  0  0  1  0  0  0  0  0  0
  193.8860  173.8880  136.5270 C   0  0  1  0  0  3  0  0  0  0  0  0
  196.2260  172.8910  136.2960 C   0  0  0  0  0  2  0  0  0  0  0  0
  187.4610  178.5460  147.8880 N   0  0  0  0  0  2  0  0  0  0  0  0
  189.4260  178.4440  148.9040 O   0  0  0  0  0  1  0  0  0  0  0  0
  188.1640  177.9490  148.9460 N   0  0  0  0  0  0  0  0  0  0  0  0
  188.2890  176.2550  148.5560 Cl  0  0  0  0  0  0  0  0  0  0  0  0
  2 16  1  0  0  0  0
  3 12  1  6  0  0  0
  3  1  1  0  0  0  0
  3 15  1  0  0  0  0
  4 16  1  6  0  0  0
  4 18  1  0  0  0  0
  4 20  1  0  0  0  0
  6 11  2  0  0  0  0
  7  5  1  0  0  0  0
  9  7  2  0  0  0  0
 10  6  1  0  0  0  0
 10 17  2  0  0  0  0
 11  7  1  0  0  0  0
 12 14  1  0  0  0  0
 13  1  1  0  0  0  0
 14 21  1  1  0  0  0
 14  8  1  0  0  0  0
 15  8  1  6  0  0  0
 15  2  1  0  0  0  0
 17  9  1  0  0  0  0
 18  5  1  6  0  0  0
 18 20  1  0  0  0  0
 19 13  1  0  0  0  0
 19  6  1  0  0  0  0
 20 51  1  1  0  0  0
 21 24  1  0  0  0  0
 22 24  1  0  0  0  0
 23 21  2  0  0  0  0
 25 23  1  0  0  0  0
 25 22  2  0  0  0  0
 26 23  1  0  0  0  0
 27 28  2  0  0  0  0
 27 26  1  0  0  0  0
 29 30  1  0  0  0  0
 29 27  1  0  0  0  0
 31 29  1  0  0  0  0
 32 25  1  0  0  0  0
 33 32  1  0  0  0  0
 34 35  1  0  0  0  0
 35 33  1  0  0  0  0
 37 36  1  1  0  0  0
 37 10  1  0  0  0  0
 38 37  1  0  0  0  0
 39 40  1  0  0  0  0
 39 38  1  0  0  0  0
 40 42  2  0  0  0  0
 41 40  2  0  0  0  0
 43 46  1  0  0  0  0
 44 40  1  6  0  0  0
 44 47  1  0  0  0  0
 45 50  1  0  0  0  0
 45 49  1  0  0  0  0
 46 47  1  0  0  0  0
 49 48  1  1  0  0  0
 49 44  1  0  0  0  0
 50 43  1  0  0  0  0
 51 53  1  0  0  0  0
 52 53  1  0  0  0  0
 54 53  1  0  0  0  0
M  END
>  <MODEL>
9

>  <REMARK>
 VINA RESULT:      -5.0      4.258     10.785
  Name = 
  13 active torsions:
  status: ('A' for Active; 'I' for Inactive)
    1  A    between atoms: C_1  and  C_39
    2  A    between atoms: S_4  and  C_20
    3  A    between atoms: S_4  and  C_27
    4  A    between atoms: C_6  and  C_27
    5  A    between atoms: C_6  and  C_37
    6  A    between atoms: C_10  and  C_47
    7  A    between atoms: C_13  and  N_46
    8  A    between atoms: C_15  and  C_43
    9  A    between atoms: N_18  and  N_30
   10  A    between atoms: N_18  and  C_51
   11  A    between atoms: C_26  and  C_43
   12  A    between atoms: C_26  and  C_54
   13  A    between atoms: C_33  and  C_37
                            x       y       z     vdW  Elec       q    Type
                         _______ _______ _______ _____ _____    ______ ____

>  <TORSDO>
F 13

$$$$
