=
 OpenBabel10232411013D

 42 45  0  0  1  0  0  0  0  0999 V2000
  187.2670  178.3980  139.5600 C   0  0  0  0  0  0  0  0  0  0  0  0
  187.8450  178.6540  140.8140 C   0  0  0  0  0  0  0  0  0  0  0  0
  185.6680  178.8710  140.9350 C   0  0  0  0  0  3  0  0  0  0  0  0
  188.1320  177.4740  138.8600 C   0  0  0  0  0  0  0  0  0  0  0  0
  186.7570  178.9870  141.7120 C   0  0  0  0  0  3  0  0  0  0  0  0
  189.1580  177.2090  139.6790 C   0  0  0  0  0  0  0  0  0  0  0  0
  188.9560  177.9470  140.9700 C   0  0  0  0  0  0  0  0  0  0  0  0
  185.9810  178.4200  139.6030 N   0  0  0  0  0  0  0  0  0  0  0  0
  187.8690  176.8490  137.5920 C   0  0  0  0  0  0  0  0  0  0  0  0
  187.6600  176.3460  136.5710 N   0  0  0  0  0  0  0  0  0  0  0  0
  190.1710  176.2520  139.3530 N   0  0  0  0  0  2  0  0  0  0  0  0
  191.5280  174.6310  137.4740 C   0  0  0  0  0  1  0  0  0  0  0  0
  191.4410  176.6100  138.8910 N   0  0  0  0  0  0  0  0  0  0  0  0
  192.0990  175.8890  138.0380 C   0  0  0  0  0  0  0  0  0  0  0  0
  193.4420  176.3420  137.5810 C   0  0  0  0  0  2  0  0  0  0  0  0
  193.8390  175.6020  136.3090 C   0  0  0  0  0  2  0  0  0  0  0  0
  195.3490  175.4060  136.1760 C   0  0  2  0  0  3  0  0  0  0  0  0
  195.9120  176.1950  135.0760 N   0  0  0  0  0  2  0  0  0  0  0  0
  195.9220  177.5020  135.4300 O   0  0  0  0  0  1  0  0  0  0  0  0
  195.7650  173.9360  136.1400 C   0  0  0  0  0  2  0  0  0  0  0  0
  194.4110  171.8650  135.9750 C   0  0  0  0  0  1  0  0  0  0  0  0
  194.7420  173.0590  136.8460 C   0  0  1  0  0  3  0  0  0  0  0  0
  195.3630  171.3630  138.4000 O   0  0  0  0  0  0  0  0  0  0  0  0
  195.2540  172.5950  138.1710 C   0  0  0  0  0  0  0  0  0  0  0  0
  195.6170  173.5140  139.1480 O   0  0  0  0  0  1  0  0  0  0  0  0
  189.4560  177.6050  142.2670 N   0  0  0  0  0  2  0  0  0  0  0  0
  190.7000  178.0960  142.8400 C   0  0  2  0  0  3  0  0  0  0  0  0
  190.4540  177.1050  145.1270 C   0  0  2  0  0  3  0  0  0  0  0  0
  191.6230  175.8990  143.6210 C   0  0  0  0  0  2  0  0  0  0  0  0
  191.8100  177.0610  142.6400 C   0  0  0  0  0  2  0  0  0  0  0  0
  191.6460  176.3780  144.9420 O   0  0  0  0  0  0  0  0  0  0  0  0
  190.5180  178.4080  144.3290 C   0  0  0  0  0  2  0  0  0  0  0  0
  190.2770  177.4110  146.5350 N   0  0  0  0  0  2  0  0  0  0  0  0
  188.9600  176.9290  146.9160 C   0  0  0  0  0  2  0  0  0  0  0  0
  188.0670  178.1100  147.2480 C   0  0  2  0  0  3  0  0  0  0  0  0
  186.3890  176.7510  145.9970 F   0  0  0  0  0  0  0  0  0  0  0  0
  186.9480  177.6590  148.1770 C   0  0  0  0  0  2  0  0  0  0  0  0
  186.6600  177.9060  146.7160 C   0  0  1  0  0  0  0  0  0  0  0  0
  185.8490  179.1700  146.4510 C   0  0  2  0  0  3  0  0  0  0  0  0
  185.8640  180.0200  147.5630 O   0  0  0  0  0  1  0  0  0  0  0  0
  184.2880  179.2090  144.6250 C   0  0  0  0  0  1  0  0  0  0  0  0
  184.4780  178.8720  146.0320 N   0  0  0  0  0  2  0  0  0  0  0  0
  1  8  1  0  0  0  0
  1  2  1  0  0  0  0
  2  7  1  0  0  0  0
  2  5  2  0  0  0  0
  3  5  1  0  0  0  0
  4  1  2  0  0  0  0
  4  6  1  0  0  0  0
  6  7  2  0  0  0  0
  7 26  1  0  0  0  0
  8  3  2  0  0  0  0
  9  4  1  0  0  0  0
 10  9  3  0  0  0  0
 11  6  1  0  0  0  0
 12 14  1  0  0  0  0
 13 11  1  0  0  0  0
 14 13  2  0  0  0  0
 15 14  1  0  0  0  0
 16 15  1  0  0  0  0
 17 20  1  6  0  0  0
 17 16  1  0  0  0  0
 18 19  1  0  0  0  0
 18 17  1  0  0  0  0
 20 22  1  0  0  0  0
 22 21  1  6  0  0  0
 22 24  1  0  0  0  0
 24 23  2  0  0  0  0
 24 25  1  0  0  0  0
 27 26  1  1  0  0  0
 27 32  1  0  0  0  0
 28 33  1  1  0  0  0
 29 31  1  0  0  0  0
 30 27  1  0  0  0  0
 30 29  1  0  0  0  0
 31 28  1  0  0  0  0
 32 28  1  0  0  0  0
 33 34  1  0  0  0  0
 35 34  1  6  0  0  0
 35 37  1  0  0  0  0
 38 36  1  6  0  0  0
 38 35  1  0  0  0  0
 38 37  1  0  0  0  0
 39 38  1  0  0  0  0
 39 40  1  1  0  0  0
 41 42  1  0  0  0  0
 42 39  1  0  0  0  0
M  END
>  <MODEL>
1

>  <REMARK>
 VINA RESULT:      -7.4      0.000      0.000
  Name = 
  17 active torsions:
  status: ('A' for Active; 'I' for Inactive)
    1  A    between atoms: C_1  and  C_39
    2  A    between atoms: N_2  and  C_16
    3  A    between atoms: C_7  and  N_11
    4  A    between atoms: C_7  and  C_42
    5  A    between atoms: C_8  and  C_15
    6  A    between atoms: N_9  and  C_13
    7  A    between atoms: N_9  and  C_29
    8  A    between atoms: C_12  and  C_30
    9  A    between atoms: C_12  and  C_36
   10  A    between atoms: C_16  and  C_17
   11  A    between atoms: C_16  and  C_36
   12  A    between atoms: C_17  and  C_41
   13  A    between atoms: N_18  and  C_28
   14  A    between atoms: N_18  and  N_31
   15  A    between atoms: C_20  and  N_37
   16  A    between atoms: C_35  and  C_41
   17  A    between atoms: N_37  and  C_39
                            x       y       z     vdW  Elec       q    Type
                         _______ _______ _______ _____ _____    ______ ____

>  <TORSDO>
F 17

$$$$
=
 OpenBabel10232411013D

 42 45  0  0  1  0  0  0  0  0999 V2000
  188.7880  177.4340  145.2660 C   0  0  0  0  0  0  0  0  0  0  0  0
  187.4870  177.0930  144.8630 C   0  0  0  0  0  0  0  0  0  0  0  0
  187.4830  177.6920  146.9700 C   0  0  0  0  0  3  0  0  0  0  0  0
  189.4960  177.9190  144.1010 C   0  0  0  0  0  0  0  0  0  0  0  0
  186.6360  177.2550  146.0240 C   0  0  0  0  0  3  0  0  0  0  0  0
  188.6350  177.8620  143.0760 C   0  0  0  0  0  0  0  0  0  0  0  0
  187.3120  177.3600  143.5750 C   0  0  0  0  0  0  0  0  0  0  0  0
  188.8210  177.8830  146.4710 N   0  0  0  0  0  0  0  0  0  0  0  0
  190.8160  178.4870  144.0760 C   0  0  0  0  0  0  0  0  0  0  0  0
  191.8780  178.9450  144.0570 N   0  0  0  0  0  0  0  0  0  0  0  0
  188.9630  178.3550  141.7730 N   0  0  0  0  0  2  0  0  0  0  0  0
  191.0140  177.2590  140.1640 C   0  0  0  0  0  1  0  0  0  0  0  0
  188.6530  177.6700  140.5950 N   0  0  0  0  0  0  0  0  0  0  0  0
  189.5640  177.1620  139.8250 C   0  0  0  0  0  0  0  0  0  0  0  0
  189.1560  176.4320  138.5930 C   0  0  0  0  0  2  0  0  0  0  0  0
  190.2060  176.6170  137.5040 C   0  0  0  0  0  2  0  0  0  0  0  0
  190.5780  175.3110  136.8030 C   0  0  2  0  0  3  0  0  0  0  0  0
  190.1810  174.1350  137.5820 N   0  0  0  0  0  2  0  0  0  0  0  0
  189.5430  173.2600  136.7670 O   0  0  0  0  0  1  0  0  0  0  0  0
  192.0360  175.2680  136.3440 C   0  0  0  0  0  2  0  0  0  0  0  0
  193.6060  173.3840  136.7160 C   0  0  0  0  0  1  0  0  0  0  0  0
  192.9130  174.5630  137.3690 C   0  0  1  0  0  3  0  0  0  0  0  0
  195.0140  175.0420  138.3830 O   0  0  0  0  0  1  0  0  0  0  0  0
  193.9280  175.4970  137.9410 C   0  0  0  0  0  0  0  0  0  0  0  0
  193.6850  176.8650  137.9820 O   0  0  0  0  0  0  0  0  0  0  0  0
  186.0130  177.6060  143.0260 N   0  0  0  0  0  2  0  0  0  0  0  0
  185.3620  178.9060  142.9670 C   0  0  2  0  0  3  0  0  0  0  0  0
  184.7590  178.8910  140.5360 C   0  0  2  0  0  3  0  0  0  0  0  0
  183.1810  178.1650  141.9760 C   0  0  0  0  0  2  0  0  0  0  0  0
  183.8600  178.7480  143.2190 C   0  0  0  0  0  2  0  0  0  0  0  0
  183.3960  179.0090  140.8710 O   0  0  0  0  0  0  0  0  0  0  0  0
  185.6120  179.5690  141.6080 C   0  0  0  0  0  2  0  0  0  0  0  0
  185.0060  179.5230  139.2530 N   0  0  0  0  0  2  0  0  0  0  0  0
  184.6160  178.5730  138.2250 C   0  0  0  0  0  2  0  0  0  0  0  0
  185.7580  177.6060  137.9730 C   0  0  2  0  0  3  0  0  0  0  0  0
  184.2130  176.7860  136.1930 F   0  0  0  0  0  0  0  0  0  0  0  0
  186.3500  177.8630  136.5930 C   0  0  0  0  0  2  0  0  0  0  0  0
  185.4480  176.6740  136.8150 C   0  0  1  0  0  0  0  0  0  0  0  0
  186.1780  175.3350  136.8130 C   0  0  2  0  0  3  0  0  0  0  0  0
  187.0810  175.2560  135.7470 O   0  0  0  0  0  1  0  0  0  0  0  0
  185.8020  173.0900  137.5820 C   0  0  0  0  0  1  0  0  0  0  0  0
  185.2540  174.1990  136.8090 N   0  0  0  0  0  2  0  0  0  0  0  0
  1  8  2  0  0  0  0
  2  1  1  0  0  0  0
  2  5  1  0  0  0  0
  4  1  1  0  0  0  0
  5  3  2  0  0  0  0
  6  7  1  0  0  0  0
  6  4  2  0  0  0  0
  7  2  2  0  0  0  0
  8  3  1  0  0  0  0
  9  4  1  0  0  0  0
 10  9  3  0  0  0  0
 11  6  1  0  0  0  0
 13 11  1  0  0  0  0
 14 12  1  0  0  0  0
 14 13  2  0  0  0  0
 15 14  1  0  0  0  0
 16 15  1  0  0  0  0
 17 20  1  1  0  0  0
 17 16  1  0  0  0  0
 17 18  1  0  0  0  0
 19 18  1  0  0  0  0
 20 22  1  0  0  0  0
 22 21  1  6  0  0  0
 22 24  1  0  0  0  0
 24 25  2  0  0  0  0
 24 23  1  0  0  0  0
 26  7  1  0  0  0  0
 27 26  1  6  0  0  0
 27 30  1  0  0  0  0
 28 33  1  6  0  0  0
 28 31  1  0  0  0  0
 28 32  1  0  0  0  0
 29 30  1  0  0  0  0
 31 29  1  0  0  0  0
 32 27  1  0  0  0  0
 34 33  1  0  0  0  0
 35 34  1  6  0  0  0
 37 38  1  0  0  0  0
 37 35  1  0  0  0  0
 38 36  1  6  0  0  0
 38 35  1  0  0  0  0
 39 40  1  6  0  0  0
 39 38  1  0  0  0  0
 42 39  1  0  0  0  0
 42 41  1  0  0  0  0
M  END
>  <MODEL>
2

>  <REMARK>
 VINA RESULT:      -7.3      3.258      7.041
  Name = 
  17 active torsions:
  status: ('A' for Active; 'I' for Inactive)
    1  A    between atoms: C_1  and  C_39
    2  A    between atoms: N_2  and  C_16
    3  A    between atoms: C_7  and  N_11
    4  A    between atoms: C_7  and  C_42
    5  A    between atoms: C_8  and  C_15
    6  A    between atoms: N_9  and  C_13
    7  A    between atoms: N_9  and  C_29
    8  A    between atoms: C_12  and  C_30
    9  A    between atoms: C_12  and  C_36
   10  A    between atoms: C_16  and  C_17
   11  A    between atoms: C_16  and  C_36
   12  A    between atoms: C_17  and  C_41
   13  A    between atoms: N_18  and  C_28
   14  A    between atoms: N_18  and  N_31
   15  A    between atoms: C_20  and  N_37
   16  A    between atoms: C_35  and  C_41
   17  A    between atoms: N_37  and  C_39
                            x       y       z     vdW  Elec       q    Type
                         _______ _______ _______ _____ _____    ______ ____

>  <TORSDO>
F 17

$$$$
=
 OpenBabel10232411013D

 42 45  0  0  1  0  0  0  0  0999 V2000
  188.0550  177.5200  146.7480 C   0  0  0  0  0  0  0  0  0  0  0  0
  186.7440  177.5010  146.2450 C   0  0  0  0  0  0  0  0  0  0  0  0
  186.8710  178.8750  147.9470 C   0  0  0  0  0  3  0  0  0  0  0  0
  188.9500  177.2160  145.6530 C   0  0  0  0  0  0  0  0  0  0  0  0
  185.9670  178.4000  147.0740 C   0  0  0  0  0  3  0  0  0  0  0  0
  188.1840  177.0350  144.5680 C   0  0  0  0  0  0  0  0  0  0  0  0
  186.7480  177.2580  144.9410 C   0  0  0  0  0  0  0  0  0  0  0  0
  188.2010  178.3840  147.6900 N   0  0  0  0  0  0  0  0  0  0  0  0
  190.3870  177.2450  145.6890 C   0  0  0  0  0  0  0  0  0  0  0  0
  191.5430  177.2690  145.7180 N   0  0  0  0  0  0  0  0  0  0  0  0
  188.7400  176.8090  143.2690 N   0  0  0  0  0  2  0  0  0  0  0  0
  190.4080  176.9200  140.9880 C   0  0  0  0  0  1  0  0  0  0  0  0
  188.3450  177.5220  142.1330 N   0  0  0  0  0  0  0  0  0  0  0  0
  189.0860  177.6050  141.0720 C   0  0  0  0  0  0  0  0  0  0  0  0
  188.5910  178.3710  139.8940 C   0  0  0  0  0  2  0  0  0  0  0  0
  189.6160  178.3160  138.7680 C   0  0  0  0  0  2  0  0  0  0  0  0
  188.9780  178.2770  137.3790 C   0  0  2  0  0  3  0  0  0  0  0  0
  187.5330  178.5170  137.4300 N   0  0  0  0  0  2  0  0  0  0  0  0
  187.0710  178.7020  136.1700 O   0  0  0  0  0  1  0  0  0  0  0  0
  189.3560  177.0320  136.5770 C   0  0  0  0  0  2  0  0  0  0  0  0
  187.9880  174.9660  136.6680 C   0  0  0  0  0  1  0  0  0  0  0  0
  189.0700  175.7630  137.3660 C   0  0  1  0  0  3  0  0  0  0  0  0
  190.2140  173.6770  137.4810 O   0  0  0  0  0  0  0  0  0  0  0  0
  190.3020  174.9310  137.5110 C   0  0  0  0  0  0  0  0  0  0  0  0
  191.5450  175.5320  137.6730 O   0  0  0  0  0  1  0  0  0  0  0  0
  185.6740  177.6770  144.0920 N   0  0  0  0  0  2  0  0  0  0  0  0
  185.2600  179.0560  143.8850 C   0  0  2  0  0  3  0  0  0  0  0  0
  184.6740  178.8900  141.4550 C   0  0  2  0  0  3  0  0  0  0  0  0
  182.9870  178.6050  142.9260 C   0  0  0  0  0  2  0  0  0  0  0  0
  183.7530  179.1890  144.1180 C   0  0  0  0  0  2  0  0  0  0  0  0
  183.3510  179.2770  141.7470 O   0  0  0  0  0  0  0  0  0  0  0  0
  185.6280  179.5190  142.4710 C   0  0  0  0  0  2  0  0  0  0  0  0
  185.0330  179.3310  140.1200 N   0  0  0  0  0  2  0  0  0  0  0  0
  183.8160  179.3300  139.3270 C   0  0  0  0  0  2  0  0  0  0  0  0
  183.9680  178.3610  138.1690 C   0  0  2  0  0  3  0  0  0  0  0  0
  182.9080  176.7920  139.7940 F   0  0  0  0  0  0  0  0  0  0  0  0
  182.5920  177.9340  137.6760 C   0  0  0  0  0  2  0  0  0  0  0  0
  183.4160  176.9910  138.5190 C   0  0  1  0  0  0  0  0  0  0  0  0
  183.9950  175.8130  137.7420 C   0  0  2  0  0  3  0  0  0  0  0  0
  184.6800  176.2490  136.6020 O   0  0  0  0  0  1  0  0  0  0  0  0
  183.4190  173.9930  136.2830 C   0  0  0  0  0  1  0  0  0  0  0  0
  182.9740  174.8210  137.3980 N   0  0  0  0  0  2  0  0  0  0  0  0
  1  8  2  0  0  0  0
  2  1  1  0  0  0  0
  2  5  1  0  0  0  0
  4  9  1  0  0  0  0
  4  1  1  0  0  0  0
  5  3  2  0  0  0  0
  6  7  1  0  0  0  0
  6  4  2  0  0  0  0
  7  2  2  0  0  0  0
  8  3  1  0  0  0  0
  9 10  3  0  0  0  0
 11  6  1  0  0  0  0
 12 14  1  0  0  0  0
 13 11  1  0  0  0  0
 14 13  2  0  0  0  0
 15 14  1  0  0  0  0
 16 15  1  0  0  0  0
 17 20  1  1  0  0  0
 17 18  1  0  0  0  0
 17 16  1  0  0  0  0
 19 18  1  0  0  0  0
 20 22  1  0  0  0  0
 22 21  1  6  0  0  0
 22 24  1  0  0  0  0
 23 24  2  0  0  0  0
 24 25  1  0  0  0  0
 26  7  1  0  0  0  0
 27 26  1  6  0  0  0
 27 30  1  0  0  0  0
 28 33  1  6  0  0  0
 28 31  1  0  0  0  0
 28 32  1  0  0  0  0
 29 30  1  0  0  0  0
 31 29  1  0  0  0  0
 32 27  1  0  0  0  0
 34 33  1  0  0  0  0
 35 38  1  0  0  0  0
 35 34  1  1  0  0  0
 37 35  1  0  0  0  0
 37 38  1  0  0  0  0
 38 36  1  1  0  0  0
 39 40  1  6  0  0  0
 39 38  1  0  0  0  0
 41 42  1  0  0  0  0
 42 39  1  0  0  0  0
M  END
>  <MODEL>
3

>  <REMARK>
 VINA RESULT:      -7.3      3.701      7.542
  Name = 
  17 active torsions:
  status: ('A' for Active; 'I' for Inactive)
    1  A    between atoms: C_1  and  C_39
    2  A    between atoms: N_2  and  C_16
    3  A    between atoms: C_7  and  N_11
    4  A    between atoms: C_7  and  C_42
    5  A    between atoms: C_8  and  C_15
    6  A    between atoms: N_9  and  C_13
    7  A    between atoms: N_9  and  C_29
    8  A    between atoms: C_12  and  C_30
    9  A    between atoms: C_12  and  C_36
   10  A    between atoms: C_16  and  C_17
   11  A    between atoms: C_16  and  C_36
   12  A    between atoms: C_17  and  C_41
   13  A    between atoms: N_18  and  C_28
   14  A    between atoms: N_18  and  N_31
   15  A    between atoms: C_20  and  N_37
   16  A    between atoms: C_35  and  C_41
   17  A    between atoms: N_37  and  C_39
                            x       y       z     vdW  Elec       q    Type
                         _______ _______ _______ _____ _____    ______ ____

>  <TORSDO>
F 17

$$$$
=
 OpenBabel10232411013D

 42 45  0  0  1  0  0  0  0  0999 V2000
  188.7490  177.3920  145.4450 C   0  0  0  0  0  0  0  0  0  0  0  0
  187.4200  177.1170  145.0850 C   0  0  0  0  0  0  0  0  0  0  0  0
  187.4940  177.8950  147.1320 C   0  0  0  0  0  3  0  0  0  0  0  0
  189.4720  177.7200  144.2360 C   0  0  0  0  0  0  0  0  0  0  0  0
  186.6010  177.4420  146.2360 C   0  0  0  0  0  3  0  0  0  0  0  0
  188.5930  177.6390  143.2280 C   0  0  0  0  0  0  0  0  0  0  0  0
  187.2450  177.2830  143.7810 C   0  0  0  0  0  0  0  0  0  0  0  0
  188.8340  177.9410  146.6060 N   0  0  0  0  0  0  0  0  0  0  0  0
  190.8300  178.1820  144.1490 C   0  0  0  0  0  0  0  0  0  0  0  0
  191.9230  178.5530  144.0810 N   0  0  0  0  0  0  0  0  0  0  0  0
  188.9370  177.9910  141.8830 N   0  0  0  0  0  2  0  0  0  0  0  0
  188.8790  178.5380  139.1100 C   0  0  0  0  0  1  0  0  0  0  0  0
  189.4750  177.0820  140.9680 N   0  0  0  0  0  0  0  0  0  0  0  0
  189.4590  177.2910  139.6890 C   0  0  0  0  0  0  0  0  0  0  0  0
  190.0650  176.2830  138.7760 C   0  0  0  0  0  2  0  0  0  0  0  0
  191.2510  176.8920  138.0370 C   0  0  0  0  0  2  0  0  0  0  0  0
  192.5930  176.3030  138.4700 C   0  0  2  0  0  3  0  0  0  0  0  0
  193.4030  177.2690  139.2170 N   0  0  0  0  0  2  0  0  0  0  0  0
  192.8670  177.4360  140.4500 O   0  0  0  0  0  1  0  0  0  0  0  0
  193.3540  175.6320  137.3270 C   0  0  0  0  0  2  0  0  0  0  0  0
  193.4510  173.3280  136.4140 C   0  0  0  0  0  1  0  0  0  0  0  0
  193.6600  174.1770  137.6510 C   0  0  1  0  0  3  0  0  0  0  0  0
  195.9350  174.8650  137.8200 O   0  0  0  0  0  0  0  0  0  0  0  0
  195.0610  174.0200  138.1450 C   0  0  0  0  0  0  0  0  0  0  0  0
  195.4050  172.9520  138.9660 O   0  0  0  0  0  1  0  0  0  0  0  0
  185.9590  177.5780  143.2240 N   0  0  0  0  0  2  0  0  0  0  0  0
  185.3690  178.9040  143.1380 C   0  0  2  0  0  3  0  0  0  0  0  0
  184.6880  178.8350  140.7290 C   0  0  2  0  0  3  0  0  0  0  0  0
  183.1240  178.2370  142.2410 C   0  0  0  0  0  2  0  0  0  0  0  0
  183.8700  178.8290  143.4410 C   0  0  0  0  0  2  0  0  0  0  0  0
  183.3440  179.0300  141.1010 O   0  0  0  0  0  0  0  0  0  0  0  0
  185.6070  179.5080  141.7500 C   0  0  0  0  0  2  0  0  0  0  0  0
  184.9240  179.4090  139.4160 N   0  0  0  0  0  2  0  0  0  0  0  0
  183.7630  179.1010  138.5990 C   0  0  0  0  0  2  0  0  0  0  0  0
  184.0110  177.8140  137.8350 C   0  0  2  0  0  3  0  0  0  0  0  0
  181.9750  177.0870  139.0810 F   0  0  0  0  0  0  0  0  0  0  0  0
  182.8580  177.5620  136.8720 C   0  0  0  0  0  2  0  0  0  0  0  0
  182.9560  176.7700  138.1530 C   0  0  1  0  0  0  0  0  0  0  0  0
  183.3650  175.3150  137.9510 C   0  0  2  0  0  3  0  0  0  0  0  0
  184.6930  175.2210  137.5170 O   0  0  0  0  0  1  0  0  0  0  0  0
  181.1850  174.3360  137.6970 C   0  0  0  0  0  1  0  0  0  0  0  0
  182.4610  174.6060  137.0430 N   0  0  0  0  0  2  0  0  0  0  0  0
  1  8  2  0  0  0  0
  2  1  1  0  0  0  0
  2  5  1  0  0  0  0
  4  1  1  0  0  0  0
  5  3  2  0  0  0  0
  6  7  1  0  0  0  0
  6  4  2  0  0  0  0
  7  2  2  0  0  0  0
  8  3  1  0  0  0  0
  9  4  1  0  0  0  0
 10  9  3  0  0  0  0
 11  6  1  0  0  0  0
 12 14  1  0  0  0  0
 13 11  1  0  0  0  0
 14 13  2  0  0  0  0
 15 14  1  0  0  0  0
 16 17  1  0  0  0  0
 16 15  1  0  0  0  0
 17 20  1  6  0  0  0
 17 18  1  0  0  0  0
 18 19  1  0  0  0  0
 20 22  1  0  0  0  0
 22 21  1  6  0  0  0
 22 24  1  0  0  0  0
 23 24  2  0  0  0  0
 24 25  1  0  0  0  0
 26  7  1  0  0  0  0
 27 26  1  6  0  0  0
 27 30  1  0  0  0  0
 28 33  1  6  0  0  0
 28 31  1  0  0  0  0
 28 32  1  0  0  0  0
 29 30  1  0  0  0  0
 31 29  1  0  0  0  0
 32 27  1  0  0  0  0
 34 33  1  0  0  0  0
 35 38  1  0  0  0  0
 35 34  1  1  0  0  0
 37 35  1  0  0  0  0
 37 38  1  0  0  0  0
 38 36  1  1  0  0  0
 39 40  1  6  0  0  0
 39 38  1  0  0  0  0
 42 41  1  0  0  0  0
 42 39  1  0  0  0  0
M  END
>  <MODEL>
4

>  <REMARK>
 VINA RESULT:      -7.1      3.465      6.751
  Name = 
  17 active torsions:
  status: ('A' for Active; 'I' for Inactive)
    1  A    between atoms: C_1  and  C_39
    2  A    between atoms: N_2  and  C_16
    3  A    between atoms: C_7  and  N_11
    4  A    between atoms: C_7  and  C_42
    5  A    between atoms: C_8  and  C_15
    6  A    between atoms: N_9  and  C_13
    7  A    between atoms: N_9  and  C_29
    8  A    between atoms: C_12  and  C_30
    9  A    between atoms: C_12  and  C_36
   10  A    between atoms: C_16  and  C_17
   11  A    between atoms: C_16  and  C_36
   12  A    between atoms: C_17  and  C_41
   13  A    between atoms: N_18  and  C_28
   14  A    between atoms: N_18  and  N_31
   15  A    between atoms: C_20  and  N_37
   16  A    between atoms: C_35  and  C_41
   17  A    between atoms: N_37  and  C_39
                            x       y       z     vdW  Elec       q    Type
                         _______ _______ _______ _____ _____    ______ ____

>  <TORSDO>
F 17

$$$$
=
 OpenBabel10232411013D

 42 45  0  0  1  0  0  0  0  0999 V2000
  188.8690  177.4420  145.3060 C   0  0  0  0  0  0  0  0  0  0  0  0
  187.5660  177.1170  144.8950 C   0  0  0  0  0  0  0  0  0  0  0  0
  187.5700  177.6460  147.0220 C   0  0  0  0  0  3  0  0  0  0  0  0
  189.5740  177.9630  144.1550 C   0  0  0  0  0  0  0  0  0  0  0  0
  186.7180  177.2420  146.0650 C   0  0  0  0  0  3  0  0  0  0  0  0
  188.7100  177.9420  143.1310 C   0  0  0  0  0  0  0  0  0  0  0  0
  187.3880  177.4270  143.6180 C   0  0  0  0  0  0  0  0  0  0  0  0
  188.9060  177.8510  146.5250 N   0  0  0  0  0  0  0  0  0  0  0  0
  190.8960  178.5290  144.1450 C   0  0  0  0  0  0  0  0  0  0  0  0
  191.9590  178.9820  144.1360 N   0  0  0  0  0  0  0  0  0  0  0  0
  189.0350  178.4770  141.8440 N   0  0  0  0  0  2  0  0  0  0  0  0
  191.3910  177.3870  140.7210 C   0  0  0  0  0  1  0  0  0  0  0  0
  188.9800  177.7250  140.6670 N   0  0  0  0  0  0  0  0  0  0  0  0
  190.0380  177.2180  140.1160 C   0  0  0  0  0  0  0  0  0  0  0  0
  189.8980  176.4150  138.8690 C   0  0  0  0  0  2  0  0  0  0  0  0
  190.3230  177.2450  137.6630 C   0  0  0  0  0  2  0  0  0  0  0  0
  189.1400  177.8320  136.8930 C   0  0  2  0  0  3  0  0  0  0  0  0
  188.8260  179.1980  137.3230 N   0  0  0  0  0  2  0  0  0  0  0  0
  187.5640  179.5030  136.9360 O   0  0  0  0  0  1  0  0  0  0  0  0
  187.9210  176.9110  136.8700 C   0  0  0  0  0  2  0  0  0  0  0  0
  188.2150  174.6740  135.8410 C   0  0  0  0  0  1  0  0  0  0  0  0
  187.8550  176.1200  135.5710 C   0  0  1  0  0  3  0  0  0  0  0  0
  186.1450  177.2450  134.3530 O   0  0  0  0  0  0  0  0  0  0  0  0
  186.4940  176.2010  134.9610 C   0  0  0  0  0  0  0  0  0  0  0  0
  185.6140  175.1290  135.0540 O   0  0  0  0  0  1  0  0  0  0  0  0
  186.0870  177.6930  143.0810 N   0  0  0  0  0  2  0  0  0  0  0  0
  185.5520  179.0170  142.8030 C   0  0  2  0  0  3  0  0  0  0  0  0
  183.3630  178.3140  141.8090 C   0  0  2  0  0  3  0  0  0  0  0  0
  183.3700  178.7800  144.0170 C   0  0  0  0  0  2  0  0  0  0  0  0
  184.7210  179.5040  143.9920 C   0  0  0  0  0  2  0  0  0  0  0  0
  182.6770  179.0190  142.8170 O   0  0  0  0  0  0  0  0  0  0  0  0
  184.7030  178.9940  141.5270 C   0  0  0  0  0  2  0  0  0  0  0  0
  182.5680  178.2940  140.5940 N   0  0  0  0  0  2  0  0  0  0  0  0
  183.4790  178.0390  139.4910 C   0  0  0  0  0  2  0  0  0  0  0  0
  182.7370  177.3180  138.3810 C   0  0  2  0  0  3  0  0  0  0  0  0
  184.7660  177.9620  137.0790 F   0  0  0  0  0  0  0  0  0  0  0  0
  183.5200  176.0780  137.9660 C   0  0  0  0  0  2  0  0  0  0  0  0
  183.5420  177.3100  137.0940 C   0  0  1  0  0  0  0  0  0  0  0  0
  182.7450  177.1660  135.8020 C   0  0  2  0  0  3  0  0  0  0  0  0
  181.6700  178.0630  135.7710 O   0  0  0  0  0  1  0  0  0  0  0  0
  180.9280  175.7770  135.0640 C   0  0  0  0  0  1  0  0  0  0  0  0
  182.2930  175.7910  135.5790 N   0  0  0  0  0  2  0  0  0  0  0  0
  1  8  2  0  0  0  0
  2  1  1  0  0  0  0
  2  5  1  0  0  0  0
  4  1  1  0  0  0  0
  5  3  2  0  0  0  0
  6  7  1  0  0  0  0
  6  4  2  0  0  0  0
  7  2  2  0  0  0  0
  8  3  1  0  0  0  0
  9  4  1  0  0  0  0
 10  9  3  0  0  0  0
 11  6  1  0  0  0  0
 13 11  1  0  0  0  0
 14 13  2  0  0  0  0
 14 12  1  0  0  0  0
 15 14  1  0  0  0  0
 16 15  1  0  0  0  0
 17 20  1  1  0  0  0
 17 18  1  0  0  0  0
 17 16  1  0  0  0  0
 19 18  1  0  0  0  0
 22 21  1  1  0  0  0
 22 20  1  0  0  0  0
 23 24  2  0  0  0  0
 24 25  1  0  0  0  0
 24 22  1  0  0  0  0
 26  7  1  0  0  0  0
 27 26  1  1  0  0  0
 27 30  1  0  0  0  0
 28 33  1  6  0  0  0
 28 31  1  0  0  0  0
 30 29  1  0  0  0  0
 31 29  1  0  0  0  0
 32 28  1  0  0  0  0
 32 27  1  0  0  0  0
 34 33  1  0  0  0  0
 35 34  1  1  0  0  0
 37 35  1  0  0  0  0
 38 36  1  6  0  0  0
 38 37  1  0  0  0  0
 38 35  1  0  0  0  0
 39 40  1  1  0  0  0
 39 38  1  0  0  0  0
 41 42  1  0  0  0  0
 42 39  1  0  0  0  0
M  END
>  <MODEL>
5

>  <REMARK>
 VINA RESULT:      -7.0      4.690      7.953
  Name = 
  17 active torsions:
  status: ('A' for Active; 'I' for Inactive)
    1  A    between atoms: C_1  and  C_39
    2  A    between atoms: N_2  and  C_16
    3  A    between atoms: C_7  and  N_11
    4  A    between atoms: C_7  and  C_42
    5  A    between atoms: C_8  and  C_15
    6  A    between atoms: N_9  and  C_13
    7  A    between atoms: N_9  and  C_29
    8  A    between atoms: C_12  and  C_30
    9  A    between atoms: C_12  and  C_36
   10  A    between atoms: C_16  and  C_17
   11  A    between atoms: C_16  and  C_36
   12  A    between atoms: C_17  and  C_41
   13  A    between atoms: N_18  and  C_28
   14  A    between atoms: N_18  and  N_31
   15  A    between atoms: C_20  and  N_37
   16  A    between atoms: C_35  and  C_41
   17  A    between atoms: N_37  and  C_39
                            x       y       z     vdW  Elec       q    Type
                         _______ _______ _______ _____ _____    ______ ____

>  <TORSDO>
F 17

$$$$
=
 OpenBabel10232411013D

 42 45  0  0  1  0  0  0  0  0999 V2000
  190.3280  177.2770  146.7810 C   0  0  0  0  0  0  0  0  0  0  0  0
  190.5990  177.4280  145.4110 C   0  0  0  0  0  0  0  0  0  0  0  0
  191.9470  175.9350  146.2800 C   0  0  0  0  0  3  0  0  0  0  0  0
  188.9310  177.5870  146.9880 C   0  0  0  0  0  0  0  0  0  0  0  0
  191.6990  176.5340  145.1040 C   0  0  0  0  0  3  0  0  0  0  0  0
  188.4230  177.8990  145.7870 C   0  0  0  0  0  0  0  0  0  0  0  0
  189.4980  177.7590  144.7510 C   0  0  0  0  0  0  0  0  0  0  0  0
  191.0320  176.3410  147.3150 N   0  0  0  0  0  0  0  0  0  0  0  0
  188.1960  177.4490  148.2160 C   0  0  0  0  0  0  0  0  0  0  0  0
  187.6050  177.3400  149.2040 N   0  0  0  0  0  0  0  0  0  0  0  0
  187.0310  178.1720  145.5930 N   0  0  0  0  0  2  0  0  0  0  0  0
  184.3920  179.1060  145.1940 C   0  0  0  0  0  1  0  0  0  0  0  0
  186.3640  177.9260  144.3890 N   0  0  0  0  0  0  0  0  0  0  0  0
  185.1520  178.3300  144.1710 C   0  0  0  0  0  0  0  0  0  0  0  0
  184.5110  178.0430  142.8570 C   0  0  0  0  0  2  0  0  0  0  0  0
  183.0890  178.5900  142.8390 C   0  0  0  0  0  2  0  0  0  0  0  0
  182.5140  178.7180  141.4290 C   0  0  2  0  0  3  0  0  0  0  0  0
  181.0620  178.9140  141.4410 N   0  0  0  0  0  2  0  0  0  0  0  0
  180.7510  179.9580  140.6350 O   0  0  0  0  0  1  0  0  0  0  0  0
  182.9650  177.5980  140.4910 C   0  0  0  0  0  2  0  0  0  0  0  0
  182.3170  178.2430  138.1860 C   0  0  0  0  0  1  0  0  0  0  0  0
  183.4660  178.1580  139.1680 C   0  0  1  0  0  3  0  0  0  0  0  0
  185.1820  179.6160  139.9480 O   0  0  0  0  0  1  0  0  0  0  0  0
  184.0780  179.5080  139.3540 C   0  0  0  0  0  0  0  0  0  0  0  0
  183.4410  180.6450  138.8710 O   0  0  0  0  0  0  0  0  0  0  0  0
  189.3440  177.4810  143.3540 N   0  0  0  0  0  2  0  0  0  0  0  0
  189.7680  178.3590  142.2750 C   0  0  2  0  0  3  0  0  0  0  0  0
  190.0610  176.6190  140.4960 C   0  0  2  0  0  3  0  0  0  0  0  0
  188.0650  177.6690  140.5670 C   0  0  0  0  0  2  0  0  0  0  0  0
  188.5510  178.8120  141.4640 C   0  0  0  0  0  2  0  0  0  0  0  0
  189.0970  177.2680  139.7010 O   0  0  0  0  0  0  0  0  0  0  0  0
  190.7810  177.6470  141.3710 C   0  0  0  0  0  2  0  0  0  0  0  0
  191.0290  175.9470  139.6480 N   0  0  0  0  0  2  0  0  0  0  0  0
  190.6670  176.2390  138.2720 C   0  0  0  0  0  2  0  0  0  0  0  0
  191.9160  176.2400  137.4100 C   0  0  2  0  0  3  0  0  0  0  0  0
  191.3950  173.8040  137.2600 F   0  0  0  0  0  0  0  0  0  0  0  0
  191.5510  175.8610  135.9810 C   0  0  0  0  0  2  0  0  0  0  0  0
  192.2230  174.8510  136.8800 C   0  0  1  0  0  0  0  0  0  0  0  0
  193.6780  174.5730  136.5190 C   0  0  2  0  0  3  0  0  0  0  0  0
  193.9300  173.1970  136.4690 O   0  0  0  0  0  1  0  0  0  0  0  0
  195.0360  174.3500  138.4890 C   0  0  0  0  0  1  0  0  0  0  0  0
  194.6120  175.2490  137.4220 N   0  0  0  0  0  2  0  0  0  0  0  0
  1  4  1  0  0  0  0
  1  8  2  0  0  0  0
  2  1  1  0  0  0  0
  3  8  1  0  0  0  0
  4  9  1  0  0  0  0
  5  2  1  0  0  0  0
  5  3  2  0  0  0  0
  6  4  2  0  0  0  0
  7  2  2  0  0  0  0
  7  6  1  0  0  0  0
  9 10  3  0  0  0  0
 11  6  1  0  0  0  0
 13 11  1  0  0  0  0
 14 13  2  0  0  0  0
 14 12  1  0  0  0  0
 15 14  1  0  0  0  0
 16 15  1  0  0  0  0
 17 20  1  6  0  0  0
 17 18  1  0  0  0  0
 17 16  1  0  0  0  0
 19 18  1  0  0  0  0
 22 21  1  6  0  0  0
 22 24  1  0  0  0  0
 22 20  1  0  0  0  0
 24 23  1  0  0  0  0
 25 24  2  0  0  0  0
 26  7  1  0  0  0  0
 27 26  1  1  0  0  0
 28 33  1  6  0  0  0
 28 32  1  0  0  0  0
 29 30  1  0  0  0  0
 30 27  1  0  0  0  0
 31 28  1  0  0  0  0
 31 29  1  0  0  0  0
 32 27  1  0  0  0  0
 34 33  1  0  0  0  0
 35 34  1  1  0  0  0
 37 38  1  0  0  0  0
 37 35  1  0  0  0  0
 38 36  1  1  0  0  0
 38 35  1  0  0  0  0
 39 40  1  1  0  0  0
 39 38  1  0  0  0  0
 39 42  1  0  0  0  0
 42 41  1  0  0  0  0
M  END
>  <MODEL>
6

>  <REMARK>
 VINA RESULT:      -7.0      3.571     10.565
  Name = 
  17 active torsions:
  status: ('A' for Active; 'I' for Inactive)
    1  A    between atoms: C_1  and  C_39
    2  A    between atoms: N_2  and  C_16
    3  A    between atoms: C_7  and  N_11
    4  A    between atoms: C_7  and  C_42
    5  A    between atoms: C_8  and  C_15
    6  A    between atoms: N_9  and  C_13
    7  A    between atoms: N_9  and  C_29
    8  A    between atoms: C_12  and  C_30
    9  A    between atoms: C_12  and  C_36
   10  A    between atoms: C_16  and  C_17
   11  A    between atoms: C_16  and  C_36
   12  A    between atoms: C_17  and  C_41
   13  A    between atoms: N_18  and  C_28
   14  A    between atoms: N_18  and  N_31
   15  A    between atoms: C_20  and  N_37
   16  A    between atoms: C_35  and  C_41
   17  A    between atoms: N_37  and  C_39
                            x       y       z     vdW  Elec       q    Type
                         _______ _______ _______ _____ _____    ______ ____

>  <TORSDO>
F 17

$$$$
=
 OpenBabel10232411013D

 42 45  0  0  1  0  0  0  0  0999 V2000
  190.2210  177.2810  146.9850 C   0  0  0  0  0  0  0  0  0  0  0  0
  190.5430  177.6820  145.6780 C   0  0  0  0  0  0  0  0  0  0  0  0
  191.9280  176.1200  146.3420 C   0  0  0  0  0  3  0  0  0  0  0  0
  188.8020  177.4880  147.1710 C   0  0  0  0  0  0  0  0  0  0  0  0
  191.6990  176.9060  145.2770 C   0  0  0  0  0  3  0  0  0  0  0  0
  188.3300  177.9830  146.0180 C   0  0  0  0  0  0  0  0  0  0  0  0
  189.4550  178.0750  145.0300 C   0  0  0  0  0  0  0  0  0  0  0  0
  190.9490  176.2970  147.3840 N   0  0  0  0  0  0  0  0  0  0  0  0
  188.0240  177.1040  148.3170 C   0  0  0  0  0  0  0  0  0  0  0  0
  187.3980  176.7960  149.2400 N   0  0  0  0  0  0  0  0  0  0  0  0
  186.9360  178.2240  145.8030 N   0  0  0  0  0  2  0  0  0  0  0  0
  184.1820  178.7860  145.4960 C   0  0  0  0  0  1  0  0  0  0  0  0
  186.3360  178.1690  144.5420 N   0  0  0  0  0  0  0  0  0  0  0  0
  185.0750  178.4100  144.3610 C   0  0  0  0  0  0  0  0  0  0  0  0
  184.5090  178.3450  142.9850 C   0  0  0  0  0  2  0  0  0  0  0  0
  183.0590  178.8160  142.9940 C   0  0  0  0  0  2  0  0  0  0  0  0
  182.4300  178.8420  141.6010 C   0  0  2  0  0  3  0  0  0  0  0  0
  180.9660  178.8920  141.6590 N   0  0  0  0  0  2  0  0  0  0  0  0
  180.4740  177.6420  141.4780 O   0  0  0  0  0  1  0  0  0  0  0  0
  182.9610  177.7440  140.6790 C   0  0  0  0  0  2  0  0  0  0  0  0
  181.9990  178.5870  138.5550 C   0  0  0  0  0  1  0  0  0  0  0  0
  183.2860  178.2970  139.2990 C   0  0  1  0  0  3  0  0  0  0  0  0
  183.7090  180.5970  138.8450 O   0  0  0  0  0  0  0  0  0  0  0  0
  184.1080  179.5400  139.3980 C   0  0  0  0  0  0  0  0  0  0  0  0
  185.3080  179.5390  140.1000 O   0  0  0  0  0  1  0  0  0  0  0  0
  189.3750  178.0410  143.6000 N   0  0  0  0  0  2  0  0  0  0  0  0
  189.0010  176.8770  142.8110 C   0  0  2  0  0  3  0  0  0  0  0  0
  189.0800  177.9440  140.5460 C   0  0  2  0  0  3  0  0  0  0  0  0
  190.9480  176.8810  141.2300 C   0  0  0  0  0  2  0  0  0  0  0  0
  190.2570  176.1230  142.3690 C   0  0  0  0  0  2  0  0  0  0  0  0
  190.0660  177.0230  140.1450 O   0  0  0  0  0  0  0  0  0  0  0  0
  188.1710  177.3000  141.5940 C   0  0  0  0  0  2  0  0  0  0  0  0
  188.2840  178.3450  139.4000 N   0  0  0  0  0  2  0  0  0  0  0  0
  189.1670  178.3460  138.2460 C   0  0  0  0  0  2  0  0  0  0  0  0
  188.6430  177.3700  137.2080 C   0  0  2  0  0  3  0  0  0  0  0  0
  186.9640  179.1810  136.8560 F   0  0  0  0  0  0  0  0  0  0  0  0
  188.7940  177.9730  135.8180 C   0  0  0  0  0  2  0  0  0  0  0  0
  187.4370  177.9340  136.4790 C   0  0  1  0  0  0  0  0  0  0  0  0
  186.4820  176.9140  135.8680 C   0  0  2  0  0  3  0  0  0  0  0  0
  185.2080  177.0140  136.4380 O   0  0  0  0  0  1  0  0  0  0  0  0
  186.2710  174.7920  136.9750 C   0  0  0  0  0  1  0  0  0  0  0  0
  186.9970  175.5460  135.9600 N   0  0  0  0  0  2  0  0  0  0  0  0
  1  4  1  0  0  0  0
  1  8  2  0  0  0  0
  2  1  1  0  0  0  0
  3  8  1  0  0  0  0
  4  9  1  0  0  0  0
  5  2  1  0  0  0  0
  5  3  2  0  0  0  0
  6  4  2  0  0  0  0
  7  2  2  0  0  0  0
  7  6  1  0  0  0  0
  9 10  3  0  0  0  0
 11  6  1  0  0  0  0
 13 11  1  0  0  0  0
 14 13  2  0  0  0  0
 14 12  1  0  0  0  0
 15 16  1  0  0  0  0
 15 14  1  0  0  0  0
 17 20  1  6  0  0  0
 17 18  1  0  0  0  0
 17 16  1  0  0  0  0
 19 18  1  0  0  0  0
 22 21  1  1  0  0  0
 22 24  1  0  0  0  0
 22 20  1  0  0  0  0
 23 24  2  0  0  0  0
 24 25  1  0  0  0  0
 26  7  1  0  0  0  0
 27 26  1  6  0  0  0
 28 33  1  6  0  0  0
 28 32  1  0  0  0  0
 29 30  1  0  0  0  0
 30 27  1  0  0  0  0
 31 28  1  0  0  0  0
 31 29  1  0  0  0  0
 32 27  1  0  0  0  0
 34 33  1  0  0  0  0
 35 34  1  1  0  0  0
 37 38  1  0  0  0  0
 37 35  1  0  0  0  0
 38 36  1  1  0  0  0
 38 35  1  0  0  0  0
 39 42  1  0  0  0  0
 39 40  1  1  0  0  0
 39 38  1  0  0  0  0
 42 41  1  0  0  0  0
M  END
>  <MODEL>
7

>  <REMARK>
 VINA RESULT:      -7.0      4.481     10.146
  Name = 
  17 active torsions:
  status: ('A' for Active; 'I' for Inactive)
    1  A    between atoms: C_1  and  C_39
    2  A    between atoms: N_2  and  C_16
    3  A    between atoms: C_7  and  N_11
    4  A    between atoms: C_7  and  C_42
    5  A    between atoms: C_8  and  C_15
    6  A    between atoms: N_9  and  C_13
    7  A    between atoms: N_9  and  C_29
    8  A    between atoms: C_12  and  C_30
    9  A    between atoms: C_12  and  C_36
   10  A    between atoms: C_16  and  C_17
   11  A    between atoms: C_16  and  C_36
   12  A    between atoms: C_17  and  C_41
   13  A    between atoms: N_18  and  C_28
   14  A    between atoms: N_18  and  N_31
   15  A    between atoms: C_20  and  N_37
   16  A    between atoms: C_35  and  C_41
   17  A    between atoms: N_37  and  C_39
                            x       y       z     vdW  Elec       q    Type
                         _______ _______ _______ _____ _____    ______ ____

>  <TORSDO>
F 17

$$$$
=
 OpenBabel10232411013D

 42 45  0  0  1  0  0  0  0  0999 V2000
  190.6370  177.1580  141.4690 C   0  0  0  0  0  0  0  0  0  0  0  0
  189.5170  177.4700  142.2570 C   0  0  0  0  0  0  0  0  0  0  0  0
  191.3490  178.1100  143.2740 C   0  0  0  0  0  3  0  0  0  0  0  0
  190.2170  177.1740  140.0840 C   0  0  0  0  0  0  0  0  0  0  0  0
  190.0200  178.0880  143.4670 C   0  0  0  0  0  3  0  0  0  0  0  0
  188.9140  177.4850  140.0800 C   0  0  0  0  0  0  0  0  0  0  0  0
  188.4620  177.7170  141.4920 C   0  0  0  0  0  0  0  0  0  0  0  0
  191.7310  177.6010  141.9820 N   0  0  0  0  0  0  0  0  0  0  0  0
  191.0630  177.0270  138.9320 C   0  0  0  0  0  0  0  0  0  0  0  0
  191.7450  176.9080  138.0050 N   0  0  0  0  0  0  0  0  0  0  0  0
  188.1790  177.6850  138.8680 N   0  0  0  0  0  2  0  0  0  0  0  0
  187.1440  178.1530  136.2790 C   0  0  0  0  0  1  0  0  0  0  0  0
  187.6480  176.6340  138.1140 N   0  0  0  0  0  0  0  0  0  0  0  0
  187.1560  176.8100  136.9280 C   0  0  0  0  0  0  0  0  0  0  0  0
  186.6210  175.6390  136.1780 C   0  0  0  0  0  2  0  0  0  0  0  0
  185.1050  175.7450  136.0560 C   0  0  0  0  0  2  0  0  0  0  0  0
  184.3870  175.6350  137.4000 C   0  0  2  0  0  3  0  0  0  0  0  0
  183.7570  174.3240  137.5820 N   0  0  0  0  0  2  0  0  0  0  0  0
  184.7240  173.3820  137.6940 O   0  0  0  0  0  1  0  0  0  0  0  0
  183.4400  176.8040  137.6740 C   0  0  0  0  0  2  0  0  0  0  0  0
  184.4650  178.7250  138.8610 C   0  0  0  0  0  1  0  0  0  0  0  0
  183.7130  177.4220  139.0370 C   0  0  1  0  0  3  0  0  0  0  0  0
  181.5450  176.7820  139.7910 O   0  0  0  0  0  0  0  0  0  0  0  0
  182.4400  177.6660  139.7810 C   0  0  0  0  0  0  0  0  0  0  0  0
  182.2400  178.8590  140.4660 O   0  0  0  0  0  1  0  0  0  0  0  0
  187.3760  178.5320  141.9460 N   0  0  0  0  0  2  0  0  0  0  0  0
  186.0580  178.0390  142.3160 C   0  0  2  0  0  3  0  0  0  0  0  0
  186.3400  178.1030  144.8040 C   0  0  2  0  0  3  0  0  0  0  0  0
  185.3950  179.9130  143.8450 C   0  0  0  0  0  2  0  0  0  0  0  0
  185.0980  179.2150  142.5140 C   0  0  0  0  0  2  0  0  0  0  0  0
  185.2590  179.0000  144.9050 O   0  0  0  0  0  0  0  0  0  0  0  0
  186.1410  177.1930  143.5910 C   0  0  0  0  0  2  0  0  0  0  0  0
  186.4220  177.2920  146.0060 N   0  0  0  0  0  2  0  0  0  0  0  0
  187.0430  178.1110  147.0330 C   0  0  0  0  0  2  0  0  0  0  0  0
  188.1080  177.3010  147.7490 C   0  0  2  0  0  3  0  0  0  0  0  0
  189.6220  178.6650  146.3090 F   0  0  0  0  0  0  0  0  0  0  0  0
  188.9650  178.2260  148.6030 C   0  0  0  0  0  2  0  0  0  0  0  0
  189.5020  177.6970  147.2950 C   0  0  1  0  0  0  0  0  0  0  0  0
  190.5880  176.6400  147.4560 C   0  0  2  0  0  3  0  0  0  0  0  0
  191.6340  177.1110  148.2580 O   0  0  0  0  0  1  0  0  0  0  0  0
  192.3440  175.4370  146.3400 C   0  0  0  0  0  1  0  0  0  0  0  0
  191.0870  176.1570  146.1670 N   0  0  0  0  0  2  0  0  0  0  0  0
  1  8  1  0  0  0  0
  1  2  1  0  0  0  0
  2  5  2  0  0  0  0
  3  5  1  0  0  0  0
  4  1  2  0  0  0  0
  6  4  1  0  0  0  0
  6  7  2  0  0  0  0
  7 26  1  0  0  0  0
  7  2  1  0  0  0  0
  8  3  2  0  0  0  0
  9  4  1  0  0  0  0
 10  9  3  0  0  0  0
 11  6  1  0  0  0  0
 12 14  1  0  0  0  0
 13 11  1  0  0  0  0
 14 13  2  0  0  0  0
 15 14  1  0  0  0  0
 16 15  1  0  0  0  0
 17 16  1  6  0  0  0
 17 18  1  0  0  0  0
 17 20  1  0  0  0  0
 18 19  1  0  0  0  0
 20 22  1  0  0  0  0
 22 21  1  6  0  0  0
 22 24  1  0  0  0  0
 24 23  2  0  0  0  0
 24 25  1  0  0  0  0
 27 26  1  1  0  0  0
 27 30  1  0  0  0  0
 27 32  1  0  0  0  0
 28 31  1  0  0  0  0
 28 33  1  1  0  0  0
 29 31  1  0  0  0  0
 30 29  1  0  0  0  0
 32 28  1  0  0  0  0
 33 34  1  0  0  0  0
 35 34  1  6  0  0  0
 35 37  1  0  0  0  0
 38 36  1  6  0  0  0
 38 39  1  0  0  0  0
 38 35  1  0  0  0  0
 38 37  1  0  0  0  0
 39 40  1  1  0  0  0
 42 41  1  0  0  0  0
 42 39  1  0  0  0  0
M  END
>  <MODEL>
8

>  <REMARK>
 VINA RESULT:      -6.8      4.149      7.471
  Name = 
  17 active torsions:
  status: ('A' for Active; 'I' for Inactive)
    1  A    between atoms: C_1  and  C_39
    2  A    between atoms: N_2  and  C_16
    3  A    between atoms: C_7  and  N_11
    4  A    between atoms: C_7  and  C_42
    5  A    between atoms: C_8  and  C_15
    6  A    between atoms: N_9  and  C_13
    7  A    between atoms: N_9  and  C_29
    8  A    between atoms: C_12  and  C_30
    9  A    between atoms: C_12  and  C_36
   10  A    between atoms: C_16  and  C_17
   11  A    between atoms: C_16  and  C_36
   12  A    between atoms: C_17  and  C_41
   13  A    between atoms: N_18  and  C_28
   14  A    between atoms: N_18  and  N_31
   15  A    between atoms: C_20  and  N_37
   16  A    between atoms: C_35  and  C_41
   17  A    between atoms: N_37  and  C_39
                            x       y       z     vdW  Elec       q    Type
                         _______ _______ _______ _____ _____    ______ ____

>  <TORSDO>
F 17

$$$$
=
 OpenBabel10232411013D

 42 45  0  0  1  0  0  0  0  0999 V2000
  187.0370  178.0410  143.2350 C   0  0  0  0  0  0  0  0  0  0  0  0
  188.0030  177.9750  142.2180 C   0  0  0  0  0  0  0  0  0  0  0  0
  188.3830  176.4170  143.7120 C   0  0  0  0  0  3  0  0  0  0  0  0
  185.8280  178.5830  142.6560 C   0  0  0  0  0  0  0  0  0  0  0  0
  188.9030  176.8940  142.5690 C   0  0  0  0  0  3  0  0  0  0  0  0
  186.0890  178.8140  141.3620 C   0  0  0  0  0  0  0  0  0  0  0  0
  187.4940  178.3830  141.0630 C   0  0  0  0  0  0  0  0  0  0  0  0
  187.1630  177.0850  144.0870 N   0  0  0  0  0  0  0  0  0  0  0  0
  184.5520  178.7140  143.3060 C   0  0  0  0  0  0  0  0  0  0  0  0
  183.5250  178.8200  143.8280 N   0  0  0  0  0  0  0  0  0  0  0  0
  185.0850  179.2670  140.4480 N   0  0  0  0  0  2  0  0  0  0  0  0
  182.2810  178.9030  140.4380 C   0  0  0  0  0  1  0  0  0  0  0  0
  184.4790  178.4340  139.5020 N   0  0  0  0  0  0  0  0  0  0  0  0
  183.1990  178.2340  139.4710 C   0  0  0  0  0  0  0  0  0  0  0  0
  182.6240  177.3440  138.4240 C   0  0  0  0  0  2  0  0  0  0  0  0
  182.9000  175.8860  138.7680 C   0  0  0  0  0  2  0  0  0  0  0  0
  183.6970  175.1560  137.6880 C   0  0  2  0  0  3  0  0  0  0  0  0
  184.2670  176.0810  136.7040 N   0  0  0  0  0  2  0  0  0  0  0  0
  185.5750  176.2830  136.9940 O   0  0  0  0  0  1  0  0  0  0  0  0
  182.9310  173.9960  137.0540 C   0  0  0  0  0  2  0  0  0  0  0  0
  184.9920  172.7890  137.7210 C   0  0  0  0  0  1  0  0  0  0  0  0
  183.8630  172.8430  136.7120 C   0  0  1  0  0  3  0  0  0  0  0  0
  181.9400  171.4940  137.1140 O   0  0  0  0  0  1  0  0  0  0  0  0
  183.1280  171.5420  136.7010 C   0  0  0  0  0  0  0  0  0  0  0  0
  183.7440  170.3870  136.2340 O   0  0  0  0  0  0  0  0  0  0  0  0
  188.0360  177.9570  139.8080 N   0  0  0  0  0  2  0  0  0  0  0  0
  189.2550  178.4730  139.2050 C   0  0  2  0  0  3  0  0  0  0  0  0
  190.0930  176.3320  138.2100 C   0  0  2  0  0  3  0  0  0  0  0  0
  188.8640  177.6630  136.8640 C   0  0  0  0  0  2  0  0  0  0  0  0
  188.9820  178.8990  137.7610 C   0  0  0  0  0  2  0  0  0  0  0  0
  190.0500  176.9110  136.9260 O   0  0  0  0  0  0  0  0  0  0  0  0
  190.3650  177.4170  139.2530 C   0  0  0  0  0  2  0  0  0  0  0  0
  191.1470  175.3350  138.2650 N   0  0  0  0  0  2  0  0  0  0  0  0
  192.0710  175.6280  137.1830 C   0  0  0  0  0  2  0  0  0  0  0  0
  193.4870  175.6760  137.7280 C   0  0  2  0  0  3  0  0  0  0  0  0
  193.4320  173.2560  137.1220 F   0  0  0  0  0  0  0  0  0  0  0  0
  194.4750  175.3850  136.6060 C   0  0  0  0  0  2  0  0  0  0  0  0
  194.1630  174.3210  137.6300 C   0  0  1  0  0  0  0  0  0  0  0  0
  195.2960  174.0600  138.6150 C   0  0  2  0  0  3  0  0  0  0  0  0
  196.2910  175.0380  138.5090 O   0  0  0  0  0  1  0  0  0  0  0  0
  196.9930  172.7310  137.5550 C   0  0  0  0  0  1  0  0  0  0  0  0
  195.8590  172.7160  138.4710 N   0  0  0  0  0  2  0  0  0  0  0  0
  1  8  2  0  0  0  0
  2  5  1  0  0  0  0
  2  1  1  0  0  0  0
  3  8  1  0  0  0  0
  4  1  1  0  0  0  0
  4  9  1  0  0  0  0
  5  3  2  0  0  0  0
  6  4  2  0  0  0  0
  7  6  1  0  0  0  0
  7  2  2  0  0  0  0
  9 10  3  0  0  0  0
 11  6  1  0  0  0  0
 13 11  1  0  0  0  0
 14 13  2  0  0  0  0
 14 12  1  0  0  0  0
 15 16  1  0  0  0  0
 15 14  1  0  0  0  0
 17 20  1  6  0  0  0
 17 16  1  0  0  0  0
 18 19  1  0  0  0  0
 18 17  1  0  0  0  0
 22 20  1  0  0  0  0
 22 21  1  1  0  0  0
 24 22  1  0  0  0  0
 24 23  1  0  0  0  0
 25 24  2  0  0  0  0
 26  7  1  0  0  0  0
 27 32  1  0  0  0  0
 27 26  1  6  0  0  0
 28 33  1  6  0  0  0
 28 32  1  0  0  0  0
 29 31  1  0  0  0  0
 29 30  1  0  0  0  0
 30 27  1  0  0  0  0
 31 28  1  0  0  0  0
 34 33  1  0  0  0  0
 35 34  1  6  0  0  0
 37 38  1  0  0  0  0
 37 35  1  0  0  0  0
 38 36  1  6  0  0  0
 38 35  1  0  0  0  0
 38 39  1  0  0  0  0
 39 40  1  6  0  0  0
 41 42  1  0  0  0  0
 42 39  1  0  0  0  0
M  END
>  <MODEL>
9

>  <REMARK>
 VINA RESULT:      -6.7      4.700      9.686
  Name = 
  17 active torsions:
  status: ('A' for Active; 'I' for Inactive)
    1  A    between atoms: C_1  and  C_39
    2  A    between atoms: N_2  and  C_16
    3  A    between atoms: C_7  and  N_11
    4  A    between atoms: C_7  and  C_42
    5  A    between atoms: C_8  and  C_15
    6  A    between atoms: N_9  and  C_13
    7  A    between atoms: N_9  and  C_29
    8  A    between atoms: C_12  and  C_30
    9  A    between atoms: C_12  and  C_36
   10  A    between atoms: C_16  and  C_17
   11  A    between atoms: C_16  and  C_36
   12  A    between atoms: C_17  and  C_41
   13  A    between atoms: N_18  and  C_28
   14  A    between atoms: N_18  and  N_31
   15  A    between atoms: C_20  and  N_37
   16  A    between atoms: C_35  and  C_41
   17  A    between atoms: N_37  and  C_39
                            x       y       z     vdW  Elec       q    Type
                         _______ _______ _______ _____ _____    ______ ____

>  <TORSDO>
F 17

$$$$
