=
 OpenBabel10232409453D

 25 27  0  0  1  0  0  0  0  0999 V2000
  189.3360  176.3810  143.9840 C   0  0  2  0  0  3  0  0  0  0  0  0
  187.6980  178.2720  142.2550 N   0  0  0  0  0  0  0  0  0  0  0  0
  190.0310  176.2860  142.7110 N   0  0  0  0  0  2  0  0  0  0  0  0
  190.5800  176.6490  140.4010 C   0  0  0  0  0  3  0  0  0  0  0  0
  187.3220  177.7200  143.3680 C   0  0  0  0  0  0  0  0  0  0  0  0
  188.4910  178.4050  139.9900 C   0  0  0  0  0  3  0  0  0  0  0  0
  190.3810  177.2490  139.1600 C   0  0  0  0  0  0  0  0  0  0  0  0
  189.7210  176.9310  141.4690 C   0  0  0  0  0  0  0  0  0  0  0  0
  188.6330  177.8270  141.2580 C   0  0  0  0  0  0  0  0  0  0  0  0
  189.3460  178.1070  138.9800 N   0  0  0  0  0  0  0  0  0  0  0  0
  187.8270  176.3830  143.8000 C   0  0  0  0  0  2  0  0  0  0  0  0
  190.4970  176.9150  147.4020 N   0  0  0  0  0  0  0  0  0  0  0  0
  189.9570  177.4120  144.9500 C   0  0  2  0  0  0  0  0  0  0  0  0
  191.3280  176.6160  145.8740 S   0  0  0  0  0  0  0  0  0  0  0  0
  188.5590  177.8430  148.3820 N   0  0  0  0  0  1  0  0  0  0  0  0
  188.9760  177.8300  145.9390 N   0  0  0  0  0  2  0  0  0  0  0  0
  189.3700  177.5140  147.2610 C   0  0  0  0  0  0  0  0  0  0  0  0
  190.4840  178.5960  144.2550 C   0  0  0  0  0  0  0  0  0  0  0  0
  190.9180  179.5690  143.6900 C   0  0  0  0  0  3  0  0  0  0  0  0
  191.2870  176.9270  138.0220 C   0  0  0  0  0  2  0  0  0  0  0  0
  193.2810  176.2270  137.3750 C   0  0  0  0  0  1  0  0  0  0  0  0
  192.5520  176.5910  138.5070 O   0  0  0  0  0  0  0  0  0  0  0  0
  186.4120  178.4120  144.1710 O   0  0  0  0  0  0  0  0  0  0  0  0
  185.0140  178.4150  143.9170 C   0  0  0  0  0  2  0  0  0  0  0  0
  184.2750  178.8280  145.1720 C   0  0  0  0  0  1  0  0  0  0  0  0
  1 11  1  6  0  0  0
  1 13  1  0  0  0  0
  2  5  2  0  0  0  0
  3  1  1  0  0  0  0
  4  8  1  0  0  0  0
  5 11  1  0  0  0  0
  5 23  1  0  0  0  0
  6  9  1  0  0  0  0
  7  4  2  0  0  0  0
  8  3  1  0  0  0  0
  9  8  2  0  0  0  0
  9  2  1  0  0  0  0
 10  7  1  0  0  0  0
 10  6  2  0  0  0  0
 13 18  1  6  0  0  0
 13 14  1  0  0  0  0
 13 16  1  0  0  0  0
 14 12  1  0  0  0  0
 16 17  1  0  0  0  0
 17 12  2  0  0  0  0
 17 15  1  0  0  0  0
 19 18  3  0  0  0  0
 20 22  1  0  0  0  0
 20  7  1  0  0  0  0
 21 22  1  0  0  0  0
 24 23  1  0  0  0  0
 24 25  1  0  0  0  0
M  END
>  <MODEL>
1

>  <REMARK>
 VINA RESULT:      -7.6      0.000      0.000
  Name = 
  6 active torsions:
  status: ('A' for Active; 'I' for Inactive)
    1  A    between atoms: C_1  and  C_12
    2  A    between atoms: C_6  and  O_20
    3  A    between atoms: C_8  and  O_20
    4  A    between atoms: C_9  and  C_14
    5  A    between atoms: C_12  and  C_19
    6  A    between atoms: C_14  and  O_22
                            x       y       z     vdW  Elec       q    Type
                         _______ _______ _______ _____ _____    ______ ____

>  <TORSDO>
F 6

$$$$
=
 OpenBabel10232409453D

 25 27  0  0  1  0  0  0  0  0999 V2000
  188.3760  176.6790  142.7610 C   0  0  2  0  0  3  0  0  0  0  0  0
  188.3020  177.8030  145.5860 N   0  0  0  0  0  0  0  0  0  0  0  0
  187.0160  177.1860  142.8350 N   0  0  0  0  0  2  0  0  0  0  0  0
  185.0270  178.2060  143.7150 C   0  0  0  0  0  3  0  0  0  0  0  0
  189.1480  176.9370  145.1200 C   0  0  0  0  0  0  0  0  0  0  0  0
  186.1670  178.7410  146.1710 C   0  0  0  0  0  3  0  0  0  0  0  0
  184.3050  178.8540  144.7150 C   0  0  0  0  0  0  0  0  0  0  0  0
  186.3520  177.8170  143.9390 C   0  0  0  0  0  0  0  0  0  0  0  0
  186.9410  178.0790  145.2100 C   0  0  0  0  0  0  0  0  0  0  0  0
  184.8850  179.1040  145.9150 N   0  0  0  0  0  0  0  0  0  0  0  0
  188.7820  175.9700  144.0430 C   0  0  0  0  0  2  0  0  0  0  0  0
  191.7340  178.0850  143.0260 N   0  0  0  0  0  0  0  0  0  0  0  0
  189.3710  177.6760  142.1290 C   0  0  2  0  0  0  0  0  0  0  0  0
  191.0100  176.8670  141.9730 S   0  0  0  0  0  0  0  0  0  0  0  0
  191.2950  180.0280  144.2940 N   0  0  0  0  0  1  0  0  0  0  0  0
  189.5560  178.8240  143.0030 N   0  0  0  0  0  2  0  0  0  0  0  0
  190.8950  178.9640  143.4390 C   0  0  0  0  0  0  0  0  0  0  0  0
  188.9450  178.1380  140.7990 C   0  0  0  0  0  0  0  0  0  0  0  0
  188.5910  178.5130  139.7090 C   0  0  0  0  0  3  0  0  0  0  0  0
  182.8880  179.2460  144.4770 C   0  0  0  0  0  2  0  0  0  0  0  0
  181.1750  179.2300  143.0810 C   0  0  0  0  0  1  0  0  0  0  0  0
  182.5500  179.0050  143.1440 O   0  0  0  0  0  0  0  0  0  0  0  0
  190.4360  176.9200  145.6600 O   0  0  0  0  0  0  0  0  0  0  0  0
  190.6810  176.7860  147.0530 C   0  0  0  0  0  2  0  0  0  0  0  0
  191.8500  175.8500  147.2720 C   0  0  0  0  0  1  0  0  0  0  0  0
  1  3  1  0  0  0  0
  1 11  1  1  0  0  0
  3  8  1  0  0  0  0
  4  8  2  0  0  0  0
  4  7  1  0  0  0  0
  5  2  2  0  0  0  0
  5 23  1  0  0  0  0
  7 10  2  0  0  0  0
  8  9  1  0  0  0  0
  9  2  1  0  0  0  0
  9  6  2  0  0  0  0
 10  6  1  0  0  0  0
 11  5  1  0  0  0  0
 12 17  2  0  0  0  0
 13 18  1  6  0  0  0
 13  1  1  0  0  0  0
 13 16  1  0  0  0  0
 14 13  1  0  0  0  0
 14 12  1  0  0  0  0
 16 17  1  0  0  0  0
 17 15  1  0  0  0  0
 19 18  3  0  0  0  0
 20  7  1  0  0  0  0
 21 22  1  0  0  0  0
 22 20  1  0  0  0  0
 23 24  1  0  0  0  0
 24 25  1  0  0  0  0
M  END
>  <MODEL>
2

>  <REMARK>
 VINA RESULT:      -6.1      2.790      6.343
  Name = 
  6 active torsions:
  status: ('A' for Active; 'I' for Inactive)
    1  A    between atoms: C_1  and  C_12
    2  A    between atoms: C_6  and  O_20
    3  A    between atoms: C_8  and  O_20
    4  A    between atoms: C_9  and  C_14
    5  A    between atoms: C_12  and  C_19
    6  A    between atoms: C_14  and  O_22
                            x       y       z     vdW  Elec       q    Type
                         _______ _______ _______ _____ _____    ______ ____

>  <TORSDO>
F 6

$$$$
=
 OpenBabel10232409453D

 25 27  0  0  1  0  0  0  0  0999 V2000
  188.7470  176.5760  142.3820 C   0  0  2  0  0  3  0  0  0  0  0  0
  189.1420  177.2430  145.3220 N   0  0  0  0  0  0  0  0  0  0  0  0
  187.4450  177.1180  142.7330 N   0  0  0  0  0  2  0  0  0  0  0  0
  185.6680  178.0650  144.0430 C   0  0  0  0  0  3  0  0  0  0  0  0
  189.8580  176.4280  144.6110 C   0  0  0  0  0  0  0  0  0  0  0  0
  187.1740  178.1620  146.3530 C   0  0  0  0  0  3  0  0  0  0  0  0
  185.1360  178.5760  145.2240 C   0  0  0  0  0  0  0  0  0  0  0  0
  186.9840  177.5940  144.0050 C   0  0  0  0  0  0  0  0  0  0  0  0
  187.7620  177.6290  145.1990 C   0  0  0  0  0  0  0  0  0  0  0  0
  185.8930  178.6110  146.3480 N   0  0  0  0  0  0  0  0  0  0  0  0
  189.2840  175.6580  143.4680 C   0  0  0  0  0  2  0  0  0  0  0  0
  189.9810  177.9780  139.2460 N   0  0  0  0  0  0  0  0  0  0  0  0
  189.7030  177.6190  141.7660 C   0  0  2  0  0  0  0  0  0  0  0  0
  188.8160  178.5380  140.4490 S   0  0  0  0  0  0  0  0  0  0  0  0
  191.9230  176.6750  138.9200 N   0  0  0  0  0  1  0  0  0  0  0  0
  190.8270  176.9550  141.1250 N   0  0  0  0  0  2  0  0  0  0  0  0
  190.8940  177.2200  139.7360 C   0  0  0  0  0  0  0  0  0  0  0  0
  190.2050  178.5840  142.7560 C   0  0  0  0  0  0  0  0  0  0  0  0
  190.6170  179.3700  143.5720 C   0  0  0  0  0  3  0  0  0  0  0  0
  183.7270  179.0570  145.2610 C   0  0  0  0  0  2  0  0  0  0  0  0
  182.0230  178.8810  143.8640 C   0  0  0  0  0  1  0  0  0  0  0  0
  183.3130  179.4020  143.9740 O   0  0  0  0  0  0  0  0  0  0  0  0
  191.2060  176.2750  144.9450 O   0  0  0  0  0  0  0  0  0  0  0  0
  191.7550  176.7640  146.1600 C   0  0  0  0  0  2  0  0  0  0  0  0
  192.1780  175.5980  147.0280 C   0  0  0  0  0  1  0  0  0  0  0  0
  1  3  1  0  0  0  0
  1 11  1  1  0  0  0
  3  8  1  0  0  0  0
  4  7  1  0  0  0  0
  5 23  1  0  0  0  0
  5  2  2  0  0  0  0
  7 20  1  0  0  0  0
  7 10  2  0  0  0  0
  8  4  2  0  0  0  0
  8  9  1  0  0  0  0
  9  2  1  0  0  0  0
  9  6  2  0  0  0  0
 10  6  1  0  0  0  0
 11  5  1  0  0  0  0
 12 17  2  0  0  0  0
 12 14  1  0  0  0  0
 13  1  1  0  0  0  0
 13 18  1  1  0  0  0
 14 13  1  0  0  0  0
 15 17  1  0  0  0  0
 16 13  1  0  0  0  0
 17 16  1  0  0  0  0
 18 19  3  0  0  0  0
 21 22  1  0  0  0  0
 22 20  1  0  0  0  0
 23 24  1  0  0  0  0
 24 25  1  0  0  0  0
M  END
>  <MODEL>
3

>  <REMARK>
 VINA RESULT:      -6.1      2.475      6.811
  Name = 
  6 active torsions:
  status: ('A' for Active; 'I' for Inactive)
    1  A    between atoms: C_1  and  C_12
    2  A    between atoms: C_6  and  O_20
    3  A    between atoms: C_8  and  O_20
    4  A    between atoms: C_9  and  C_14
    5  A    between atoms: C_12  and  C_19
    6  A    between atoms: C_14  and  O_22
                            x       y       z     vdW  Elec       q    Type
                         _______ _______ _______ _____ _____    ______ ____

>  <TORSDO>
F 6

$$$$
=
 OpenBabel10232409453D

 25 27  0  0  1  0  0  0  0  0999 V2000
  188.8910  178.7040  143.5610 C   0  0  2  0  0  3  0  0  0  0  0  0
  191.3810  177.2740  142.5600 N   0  0  0  0  0  0  0  0  0  0  0  0
  188.6470  178.6660  142.1280 N   0  0  0  0  0  2  0  0  0  0  0  0
  188.9800  178.2390  139.7880 C   0  0  0  0  0  3  0  0  0  0  0  0
  191.2390  177.8730  143.7030 C   0  0  0  0  0  0  0  0  0  0  0  0
  191.4230  177.0140  140.1710 C   0  0  0  0  0  3  0  0  0  0  0  0
  189.7010  177.7280  138.7120 C   0  0  0  0  0  0  0  0  0  0  0  0
  189.4820  178.1360  141.0900 C   0  0  0  0  0  0  0  0  0  0  0  0
  190.7500  177.5160  141.2910 C   0  0  0  0  0  0  0  0  0  0  0  0
  190.9010  177.1320  138.9240 N   0  0  0  0  0  0  0  0  0  0  0  0
  190.3370  179.0500  143.8750 C   0  0  0  0  0  2  0  0  0  0  0  0
  186.5040  177.8570  146.1890 N   0  0  0  0  0  0  0  0  0  0  0  0
  188.2330  177.5370  144.3290 C   0  0  2  0  0  0  0  0  0  0  0  0
  186.4250  177.8290  144.4250 S   0  0  0  0  0  0  0  0  0  0  0  0
  187.9490  177.6660  148.0470 N   0  0  0  0  0  1  0  0  0  0  0  0
  188.7220  177.4970  145.6980 N   0  0  0  0  0  2  0  0  0  0  0  0
  187.6890  177.6790  146.6490 C   0  0  0  0  0  0  0  0  0  0  0  0
  188.4660  176.2330  143.6890 C   0  0  0  0  0  0  0  0  0  0  0  0
  188.6630  175.1640  143.1670 C   0  0  0  0  0  3  0  0  0  0  0  0
  189.1700  177.8600  137.3270 C   0  0  0  0  0  2  0  0  0  0  0  0
  187.3240  178.7560  136.5090 C   0  0  0  0  0  1  0  0  0  0  0  0
  188.4950  179.0740  137.1960 O   0  0  0  0  0  0  0  0  0  0  0  0
  191.9660  177.3890  144.7930 O   0  0  0  0  0  0  0  0  0  0  0  0
  191.8330  176.0590  145.2740 C   0  0  0  0  0  2  0  0  0  0  0  0
  191.9310  176.0570  146.7850 C   0  0  0  0  0  1  0  0  0  0  0  0
  1 11  1  6  0  0  0
  1 13  1  0  0  0  0
  2  5  2  0  0  0  0
  3  1  1  0  0  0  0
  4  8  1  0  0  0  0
  5 11  1  0  0  0  0
  5 23  1  0  0  0  0
  6  9  1  0  0  0  0
  7 10  1  0  0  0  0
  7  4  2  0  0  0  0
  8  9  2  0  0  0  0
  8  3  1  0  0  0  0
  9  2  1  0  0  0  0
 10  6  2  0  0  0  0
 12 17  2  0  0  0  0
 13 18  1  6  0  0  0
 13 14  1  0  0  0  0
 13 16  1  0  0  0  0
 14 12  1  0  0  0  0
 16 17  1  0  0  0  0
 17 15  1  0  0  0  0
 19 18  3  0  0  0  0
 20  7  1  0  0  0  0
 21 22  1  0  0  0  0
 22 20  1  0  0  0  0
 23 24  1  0  0  0  0
 24 25  1  0  0  0  0
M  END
>  <MODEL>
4

>  <REMARK>
 VINA RESULT:      -5.5      2.496      3.998
  Name = 
  6 active torsions:
  status: ('A' for Active; 'I' for Inactive)
    1  A    between atoms: C_1  and  C_12
    2  A    between atoms: C_6  and  O_20
    3  A    between atoms: C_8  and  O_20
    4  A    between atoms: C_9  and  C_14
    5  A    between atoms: C_12  and  C_19
    6  A    between atoms: C_14  and  O_22
                            x       y       z     vdW  Elec       q    Type
                         _______ _______ _______ _____ _____    ______ ____

>  <TORSDO>
F 6

$$$$
=
 OpenBabel10232409453D

 25 27  0  0  1  0  0  0  0  0999 V2000
  189.9750  177.6560  137.1810 C   0  0  2  0  0  3  0  0  0  0  0  0
  187.7290  177.9900  139.2040 N   0  0  0  0  0  0  0  0  0  0  0  0
  190.6650  177.3750  138.4300 N   0  0  0  0  0  2  0  0  0  0  0  0
  191.0560  177.0790  140.7810 C   0  0  0  0  0  3  0  0  0  0  0  0
  187.7550  178.4530  137.9920 C   0  0  0  0  0  0  0  0  0  0  0  0
  188.4440  177.6430  141.4730 C   0  0  0  0  0  3  0  0  0  0  0  0
  190.6430  177.0450  142.1110 C   0  0  0  0  0  0  0  0  0  0  0  0
  190.1470  177.3980  139.7660 C   0  0  0  0  0  0  0  0  0  0  0  0
  188.8000  177.7030  140.1200 C   0  0  0  0  0  0  0  0  0  0  0  0
  189.3550  177.3280  142.4280 N   0  0  0  0  0  0  0  0  0  0  0  0
  189.0290  178.8380  137.3160 C   0  0  0  0  0  2  0  0  0  0  0  0
  189.7230  174.0210  137.4000 N   0  0  0  0  0  0  0  0  0  0  0  0
  189.4660  176.3880  136.4610 C   0  0  2  0  0  0  0  0  0  0  0  0
  188.5730  175.3330  137.6670 S   0  0  0  0  0  0  0  0  0  0  0  0
  191.6520  173.3770  136.1990 N   0  0  0  0  0  1  0  0  0  0  0  0
  190.5880  175.6030  135.9710 N   0  0  0  0  0  2  0  0  0  0  0  0
  190.6380  174.3110  136.5470 C   0  0  0  0  0  0  0  0  0  0  0  0
  188.5610  176.6960  135.3430 C   0  0  0  0  0  0  0  0  0  0  0  0
  187.8210  176.9530  134.4260 C   0  0  0  0  0  3  0  0  0  0  0  0
  191.6220  176.7250  143.1870 C   0  0  0  0  0  2  0  0  0  0  0  0
  191.5390  176.7770  145.3950 C   0  0  0  0  0  1  0  0  0  0  0  0
  191.4340  177.5900  144.2660 O   0  0  0  0  0  0  0  0  0  0  0  0
  186.5400  178.5960  137.3180 O   0  0  0  0  0  0  0  0  0  0  0  0
  185.3320  178.0070  137.7800 C   0  0  0  0  0  2  0  0  0  0  0  0
  185.0430  176.7550  136.9810 C   0  0  0  0  0  1  0  0  0  0  0  0
  1 11  1  1  0  0  0
  1  3  1  0  0  0  0
  2  9  1  0  0  0  0
  3  8  1  0  0  0  0
  4  7  1  0  0  0  0
  5  2  2  0  0  0  0
  6 10  1  0  0  0  0
  7 10  2  0  0  0  0
  7 20  1  0  0  0  0
  8  9  1  0  0  0  0
  8  4  2  0  0  0  0
  9  6  2  0  0  0  0
 11  5  1  0  0  0  0
 12 14  1  0  0  0  0
 13 18  1  6  0  0  0
 13  1  1  0  0  0  0
 13 14  1  0  0  0  0
 15 17  1  0  0  0  0
 16 13  1  0  0  0  0
 16 17  1  0  0  0  0
 17 12  2  0  0  0  0
 19 18  3  0  0  0  0
 20 22  1  0  0  0  0
 22 21  1  0  0  0  0
 23 24  1  0  0  0  0
 23  5  1  0  0  0  0
 25 24  1  0  0  0  0
M  END
>  <MODEL>
5

>  <REMARK>
 VINA RESULT:      -5.0      3.707      7.300
  Name = 
  6 active torsions:
  status: ('A' for Active; 'I' for Inactive)
    1  A    between atoms: C_1  and  C_12
    2  A    between atoms: C_6  and  O_20
    3  A    between atoms: C_8  and  O_20
    4  A    between atoms: C_9  and  C_14
    5  A    between atoms: C_12  and  C_19
    6  A    between atoms: C_14  and  O_22
                            x       y       z     vdW  Elec       q    Type
                         _______ _______ _______ _____ _____    ______ ____

>  <TORSDO>
F 6

$$$$
=
 OpenBabel10232409453D

 25 27  0  0  1  0  0  0  0  0999 V2000
  189.2850  178.6230  144.0410 C   0  0  2  0  0  3  0  0  0  0  0  0
  190.9210  176.3340  142.8870 N   0  0  0  0  0  0  0  0  0  0  0  0
  189.0490  178.7880  142.6160 N   0  0  0  0  0  2  0  0  0  0  0  0
  189.1660  178.4150  140.2460 C   0  0  0  0  0  3  0  0  0  0  0  0
  191.0490  176.8590  144.0660 C   0  0  0  0  0  0  0  0  0  0  0  0
  190.8470  176.2390  140.4860 C   0  0  0  0  0  3  0  0  0  0  0  0
  189.5990  177.7160  139.1210 C   0  0  0  0  0  0  0  0  0  0  0  0
  189.5750  178.0220  141.5250 C   0  0  0  0  0  0  0  0  0  0  0  0
  190.4550  176.9070  141.6520 C   0  0  0  0  0  0  0  0  0  0  0  0
  190.4270  176.6520  139.2630 N   0  0  0  0  0  0  0  0  0  0  0  0
  190.7400  178.2950  144.3340 C   0  0  0  0  0  2  0  0  0  0  0  0
  186.0920  176.9140  143.5900 N   0  0  0  0  0  0  0  0  0  0  0  0
  188.1900  177.8030  144.7560 C   0  0  2  0  0  0  0  0  0  0  0  0
  187.7600  176.3500  143.7210 S   0  0  0  0  0  0  0  0  0  0  0  0
  184.5890  178.6210  144.2260 N   0  0  0  0  0  1  0  0  0  0  0  0
  186.9760  178.5920  144.8900 N   0  0  0  0  0  2  0  0  0  0  0  0
  185.8760  178.0140  144.2140 C   0  0  0  0  0  0  0  0  0  0  0  0
  188.6130  177.3270  146.0820 C   0  0  0  0  0  0  0  0  0  0  0  0
  188.9530  176.9370  147.1720 C   0  0  0  0  0  3  0  0  0  0  0  0
  189.1760  178.1550  137.7620 C   0  0  0  0  0  2  0  0  0  0  0  0
  187.0840  178.1040  137.0510 C   0  0  0  0  0  1  0  0  0  0  0  0
  187.9630  178.8410  137.8450 O   0  0  0  0  0  0  0  0  0  0  0  0
  191.4990  176.0400  145.1050 O   0  0  0  0  0  0  0  0  0  0  0  0
  191.9820  176.5580  146.3360 C   0  0  0  0  0  2  0  0  0  0  0  0
  192.3360  175.4130  147.2610 C   0  0  0  0  0  1  0  0  0  0  0  0
  1 11  1  6  0  0  0
  1 13  1  0  0  0  0
  2  5  2  0  0  0  0
  3  1  1  0  0  0  0
  4  8  1  0  0  0  0
  5 11  1  0  0  0  0
  5 23  1  0  0  0  0
  6  9  1  0  0  0  0
  7 10  1  0  0  0  0
  7  4  2  0  0  0  0
  8  9  2  0  0  0  0
  8  3  1  0  0  0  0
  9  2  1  0  0  0  0
 10  6  2  0  0  0  0
 12 14  1  0  0  0  0
 12 17  2  0  0  0  0
 13 16  1  0  0  0  0
 13 18  1  1  0  0  0
 14 13  1  0  0  0  0
 17 15  1  0  0  0  0
 17 16  1  0  0  0  0
 18 19  3  0  0  0  0
 20 22  1  0  0  0  0
 20  7  1  0  0  0  0
 21 22  1  0  0  0  0
 23 24  1  0  0  0  0
 24 25  1  0  0  0  0
M  END
>  <MODEL>
6

>  <REMARK>
 VINA RESULT:      -4.9      2.582      4.348
  Name = 
  6 active torsions:
  status: ('A' for Active; 'I' for Inactive)
    1  A    between atoms: C_1  and  C_12
    2  A    between atoms: C_6  and  O_20
    3  A    between atoms: C_8  and  O_20
    4  A    between atoms: C_9  and  C_14
    5  A    between atoms: C_12  and  C_19
    6  A    between atoms: C_14  and  O_22
                            x       y       z     vdW  Elec       q    Type
                         _______ _______ _______ _____ _____    ______ ____

>  <TORSDO>
F 6

$$$$
=
 OpenBabel10232409453D

 25 27  0  0  1  0  0  0  0  0999 V2000
  190.3560  177.2610  137.4840 C   0  0  2  0  0  3  0  0  0  0  0  0
  187.9290  177.6760  139.2680 N   0  0  0  0  0  0  0  0  0  0  0  0
  190.9540  177.1900  138.8070 N   0  0  0  0  0  2  0  0  0  0  0  0
  191.1600  177.2190  141.2000 C   0  0  0  0  0  3  0  0  0  0  0  0
  188.0280  177.9850  138.0120 C   0  0  0  0  0  0  0  0  0  0  0  0
  188.4680  177.6680  141.6110 C   0  0  0  0  0  3  0  0  0  0  0  0
  190.6390  177.3200  142.4880 C   0  0  0  0  0  0  0  0  0  0  0  0
  190.3230  177.3400  140.0860 C   0  0  0  0  0  0  0  0  0  0  0  0
  188.9340  177.5860  140.2930 C   0  0  0  0  0  0  0  0  0  0  0  0
  189.3130  177.5440  142.6660 N   0  0  0  0  0  0  0  0  0  0  0  0
  189.3280  178.3760  137.3910 C   0  0  0  0  0  2  0  0  0  0  0  0
  187.8580  175.4200  135.5630 N   0  0  0  0  0  0  0  0  0  0  0  0
  189.9930  175.8790  136.8980 C   0  0  2  0  0  0  0  0  0  0  0  0
  189.4400  176.0930  135.1620 S   0  0  0  0  0  0  0  0  0  0  0  0
  186.5430  174.5190  137.3070 N   0  0  0  0  0  1  0  0  0  0  0  0
  188.8720  175.3030  137.6240 N   0  0  0  0  0  2  0  0  0  0  0  0
  187.7450  175.0840  136.7980 C   0  0  0  0  0  0  0  0  0  0  0  0
  191.1240  174.9380  136.9190 C   0  0  0  0  0  0  0  0  0  0  0  0
  192.0510  174.1680  136.9300 C   0  0  0  0  0  3  0  0  0  0  0  0
  191.5400  177.2110  143.6680 C   0  0  0  0  0  2  0  0  0  0  0  0
  191.5930  176.7510  145.8290 C   0  0  0  0  0  1  0  0  0  0  0  0
  190.7960  177.3310  144.8420 O   0  0  0  0  0  0  0  0  0  0  0  0
  186.8680  177.9520  137.2340 O   0  0  0  0  0  0  0  0  0  0  0  0
  185.5660  178.0250  137.7960 C   0  0  0  0  0  2  0  0  0  0  0  0
  184.5840  177.3150  136.8890 C   0  0  0  0  0  1  0  0  0  0  0  0
  1 11  1  1  0  0  0
  1  3  1  0  0  0  0
  2  9  1  0  0  0  0
  3  8  1  0  0  0  0
  4  7  1  0  0  0  0
  5  2  2  0  0  0  0
  6 10  1  0  0  0  0
  7 10  2  0  0  0  0
  7 20  1  0  0  0  0
  8  9  1  0  0  0  0
  8  4  2  0  0  0  0
  9  6  2  0  0  0  0
 11  5  1  0  0  0  0
 12 17  2  0  0  0  0
 13 18  1  1  0  0  0
 13  1  1  0  0  0  0
 13 16  1  0  0  0  0
 14 12  1  0  0  0  0
 14 13  1  0  0  0  0
 17 15  1  0  0  0  0
 17 16  1  0  0  0  0
 18 19  3  0  0  0  0
 20 22  1  0  0  0  0
 22 21  1  0  0  0  0
 23 24  1  0  0  0  0
 23  5  1  0  0  0  0
 25 24  1  0  0  0  0
M  END
>  <MODEL>
7

>  <REMARK>
 VINA RESULT:      -4.9      3.739      7.205
  Name = 
  6 active torsions:
  status: ('A' for Active; 'I' for Inactive)
    1  A    between atoms: C_1  and  C_12
    2  A    between atoms: C_6  and  O_20
    3  A    between atoms: C_8  and  O_20
    4  A    between atoms: C_9  and  C_14
    5  A    between atoms: C_12  and  C_19
    6  A    between atoms: C_14  and  O_22
                            x       y       z     vdW  Elec       q    Type
                         _______ _______ _______ _____ _____    ______ ____

>  <TORSDO>
F 6

$$$$
=
 OpenBabel10232409453D

 25 27  0  0  1  0  0  0  0  0999 V2000
  189.1670  176.9250  135.8610 C   0  0  2  0  0  3  0  0  0  0  0  0
  190.5980  176.9310  138.5440 N   0  0  0  0  0  0  0  0  0  0  0  0
  190.4940  176.4680  135.4830 N   0  0  0  0  0  2  0  0  0  0  0  0
  192.8010  175.8270  135.6620 C   0  0  0  0  0  3  0  0  0  0  0  0
  189.5090  177.5710  138.2470 C   0  0  0  0  0  0  0  0  0  0  0  0
  192.9000  176.2560  138.3860 C   0  0  0  0  0  3  0  0  0  0  0  0
  193.9690  175.5900  136.3830 C   0  0  0  0  0  0  0  0  0  0  0  0
  191.6500  176.2850  136.3100 C   0  0  0  0  0  0  0  0  0  0  0  0
  191.7000  176.5210  137.7150 C   0  0  0  0  0  0  0  0  0  0  0  0
  193.9950  175.8100  137.7210 N   0  0  0  0  0  0  0  0  0  0  0  0
  189.2310  178.0640  136.8660 C   0  0  0  0  0  2  0  0  0  0  0  0
  185.7340  175.8020  135.3350 N   0  0  0  0  0  0  0  0  0  0  0  0
  188.1700  175.7750  136.1210 C   0  0  2  0  0  0  0  0  0  0  0  0
  187.2720  175.4000  134.5660 S   0  0  0  0  0  0  0  0  0  0  0  0
  184.7260  176.5220  137.3450 N   0  0  0  0  0  1  0  0  0  0  0  0
  187.1680  176.1870  137.0910 N   0  0  0  0  0  2  0  0  0  0  0  0
  185.8560  176.1640  136.5600 C   0  0  0  0  0  0  0  0  0  0  0  0
  188.8290  174.5470  136.5910 C   0  0  0  0  0  0  0  0  0  0  0  0
  189.3730  173.5400  136.9710 C   0  0  0  0  0  3  0  0  0  0  0  0
  195.1970  175.1230  135.6810 C   0  0  0  0  0  2  0  0  0  0  0  0
  196.8330  176.4910  135.1040 C   0  0  0  0  0  1  0  0  0  0  0  0
  196.3130  175.7890  136.1910 O   0  0  0  0  0  0  0  0  0  0  0  0
  188.5830  177.8010  139.2670 O   0  0  0  0  0  0  0  0  0  0  0  0
  188.9080  177.6640  140.6430 C   0  0  0  0  0  2  0  0  0  0  0  0
  187.8940  178.4160  141.4780 C   0  0  0  0  0  1  0  0  0  0  0  0
  1 13  1  0  0  0  0
  1 11  1  1  0  0  0
  3  1  1  0  0  0  0
  3  8  1  0  0  0  0
  4  8  2  0  0  0  0
  4  7  1  0  0  0  0
  5  2  2  0  0  0  0
  5 23  1  0  0  0  0
  7 10  2  0  0  0  0
  8  9  1  0  0  0  0
  9  6  2  0  0  0  0
  9  2  1  0  0  0  0
 10  6  1  0  0  0  0
 11  5  1  0  0  0  0
 12 17  2  0  0  0  0
 13 18  1  1  0  0  0
 13 16  1  0  0  0  0
 14 12  1  0  0  0  0
 14 13  1  0  0  0  0
 17 16  1  0  0  0  0
 17 15  1  0  0  0  0
 18 19  3  0  0  0  0
 20 22  1  0  0  0  0
 20  7  1  0  0  0  0
 21 22  1  0  0  0  0
 23 24  1  0  0  0  0
 24 25  1  0  0  0  0
M  END
>  <MODEL>
8

>  <REMARK>
 VINA RESULT:      -4.7      5.052      7.601
  Name = 
  6 active torsions:
  status: ('A' for Active; 'I' for Inactive)
    1  A    between atoms: C_1  and  C_12
    2  A    between atoms: C_6  and  O_20
    3  A    between atoms: C_8  and  O_20
    4  A    between atoms: C_9  and  C_14
    5  A    between atoms: C_12  and  C_19
    6  A    between atoms: C_14  and  O_22
                            x       y       z     vdW  Elec       q    Type
                         _______ _______ _______ _____ _____    ______ ____

>  <TORSDO>
F 6

$$$$
