=
 OpenBabel10232408053D

 38 42  0  0  1  0  0  0  0  0999 V2000
  182.7000  179.2490  143.1120 C   0  0  0  0  0  3  0  0  0  0  0  0
  184.5860  178.6580  147.0700 N   0  0  0  0  0  1  0  0  0  0  0  0
  186.0750  177.9470  145.1520 C   0  0  0  0  0  0  0  0  0  0  0  0
  188.3690  176.9980  144.8400 C   0  0  0  0  0  0  0  0  0  0  0  0
  187.3010  177.4310  145.8330 C   0  0  0  0  0  3  0  0  0  0  0  0
  184.7000  178.4320  143.4770 N   0  0  0  0  0  0  0  0  0  0  0  0
  184.1040  178.7470  144.6040 C   0  0  0  0  0  0  0  0  0  0  0  0
  185.9150  177.9380  143.7770 C   0  0  2  0  0  3  0  0  0  0  0  0
  188.1400  176.9960  143.4890 C   0  0  0  0  0  0  0  0  0  0  0  0
  182.8680  179.2560  144.4670 N   0  0  0  0  0  0  0  0  0  0  0  0
  186.8470  177.4980  142.9420 C   0  0  0  0  0  3  0  0  0  0  0  0
  183.8460  178.7330  142.4890 C   0  0  0  0  0  0  0  0  0  0  0  0
  184.9000  178.4710  145.6940 C   0  0  0  0  0  0  0  0  0  0  0  0
  190.2960  177.0180  142.3270 C   0  0  0  0  0  0  0  0  0  0  0  0
  189.1360  176.4570  142.5430 C   0  0  0  0  0  3  0  0  0  0  0  0
  191.4600  177.5700  142.1080 C   0  0  0  0  0  0  0  0  0  0  0  0
  192.1230  178.3930  143.1600 C   0  0  0  0  0  2  0  0  0  0  0  0
  191.1110  179.2660  143.8790 C   0  0  0  0  0  1  0  0  0  0  0  0
  192.2140  177.4270  140.4940 S   0  0  0  0  0  0  0  0  0  0  0  0
  190.7460  176.7430  139.7930 N   0  0  0  0  0  0  0  0  0  0  0  0
  188.7450  177.3430  138.5210 C   0  0  0  0  0  2  0  0  0  0  0  0
  189.1920  176.3520  137.4510 C   0  0  1  0  0  3  0  0  0  0  0  0
  189.9790  177.8620  139.2520 C   0  0  0  0  0  2  0  0  0  0  0  0
  191.1660  175.8960  138.6780 C   0  0  0  0  0  2  0  0  0  0  0  0
  189.9930  175.2870  138.0510 N   0  0  0  0  0  2  0  0  0  0  0  0
  187.9750  175.7520  136.7780 C   0  0  0  0  0  1  0  0  0  0  0  0
  190.0500  176.9730  146.6980 C   0  0  0  0  0  1  0  0  0  0  0  0
  189.5780  176.5740  145.4180 O   0  0  0  0  0  0  0  0  0  0  0  0
  184.0820  178.5370  141.0410 C   0  0  0  0  0  0  0  0  0  0  0  0
  185.1950  178.8690  140.5570 O   0  0  0  0  0  0  0  0  0  0  0  0
  182.4130  180.0770  138.8200 C   0  0  0  0  0  1  0  0  0  0  0  0
  182.6310  176.6410  140.1110 C   0  0  0  0  0  3  0  0  0  0  0  0
  183.0530  177.9610  140.1420 C   0  0  0  0  0  0  0  0  0  0  0  0
  181.6710  176.6120  139.1170 C   0  0  0  0  0  0  0  0  0  0  0  0
  181.5060  177.7980  138.5790 O   0  0  0  0  0  0  0  0  0  0  0  0
  182.3220  178.6310  139.1710 C   0  0  0  0  0  0  0  0  0  0  0  0
  180.3740  174.6900  139.5770 O   0  0  0  0  0  0  0  0  0  0  0  0
  180.9300  175.4190  138.7140 C   0  0  0  0  0  3  0  0  0  0  0  0
  1 10  1  0  0  0  0
  3 13  2  0  0  0  0
  3  5  1  0  0  0  0
  4 28  1  0  0  0  0
  4  5  2  0  0  0  0
  6  8  1  0  0  0  0
  6  7  1  0  0  0  0
  7 13  1  0  0  0  0
  8 11  1  1  0  0  0
  8  3  1  0  0  0  0
  9  4  1  0  0  0  0
 10  7  2  0  0  0  0
 11  9  2  0  0  0  0
 12  1  2  0  0  0  0
 12  6  1  0  0  0  0
 13  2  1  0  0  0  0
 14 15  2  0  0  0  0
 15  9  1  0  0  0  0
 16 14  2  0  0  0  0
 16 17  1  0  0  0  0
 17 18  1  0  0  0  0
 19 16  1  0  0  0  0
 20 19  1  0  0  0  0
 21 23  1  0  0  0  0
 22 26  1  1  0  0  0
 22 25  1  0  0  0  0
 22 21  1  0  0  0  0
 23 20  1  0  0  0  0
 24 20  1  0  0  0  0
 25 24  1  0  0  0  0
 28 27  1  0  0  0  0
 29 12  1  0  0  0  0
 30 29  2  0  0  0  0
 31 36  1  0  0  0  0
 32 33  1  0  0  0  0
 33 29  1  0  0  0  0
 34 32  2  0  0  0  0
 35 34  1  0  0  0  0
 35 36  1  0  0  0  0
 36 33  2  0  0  0  0
 38 34  1  0  0  0  0
 38 37  2  0  0  0  0
M  END
>  <MODEL>
1

>  <REMARK>
 VINA RESULT:      -8.9      0.000      0.000
  Name = 
  8 active torsions:
  status: ('A' for Active; 'I' for Inactive)
    1  A    between atoms: N_4  and  S_35
    2  A    between atoms: C_6  and  O_38
    3  A    between atoms: C_10  and  C_23
    4  A    between atoms: C_10  and  C_29
    5  A    between atoms: C_12  and  C_25
    6  A    between atoms: C_18  and  C_28
    7  A    between atoms: C_26  and  C_36
    8  A    between atoms: S_35  and  C_36
                            x       y       z     vdW  Elec       q    Type
                         _______ _______ _______ _____ _____    ______ ____

>  <TORSDO>
F 8

$$$$
=
 OpenBabel10232408053D

 38 42  0  0  1  0  0  0  0  0999 V2000
  183.4710  178.8090  143.1490 C   0  0  0  0  0  3  0  0  0  0  0  0
  186.3700  177.6740  146.2930 N   0  0  0  0  0  1  0  0  0  0  0  0
  187.3940  177.7290  143.9810 C   0  0  0  0  0  0  0  0  0  0  0  0
  189.6330  177.3310  142.9360 C   0  0  0  0  0  0  0  0  0  0  0  0
  188.8100  177.3100  144.2150 C   0  0  0  0  0  3  0  0  0  0  0  0
  185.5850  178.3240  142.8390 N   0  0  0  0  0  0  0  0  0  0  0  0
  185.2630  178.2470  144.1100 C   0  0  0  0  0  0  0  0  0  0  0  0
  186.8890  178.0130  142.7240 C   0  0  2  0  0  3  0  0  0  0  0  0
  189.0670  177.6030  141.7180 C   0  0  0  0  0  0  0  0  0  0  0  0
  183.9790  178.5300  144.3860 N   0  0  0  0  0  0  0  0  0  0  0  0
  187.6240  177.9650  141.6200 C   0  0  0  0  0  3  0  0  0  0  0  0
  184.4750  178.6810  142.1780 C   0  0  0  0  0  0  0  0  0  0  0  0
  186.3410  177.8780  144.8850 C   0  0  0  0  0  0  0  0  0  0  0  0
  189.3000  177.3870  139.2890 C   0  0  0  0  0  0  0  0  0  0  0  0
  189.8470  177.5000  140.4700 C   0  0  0  0  0  3  0  0  0  0  0  0
  188.7600  177.2780  138.1050 C   0  0  0  0  0  0  0  0  0  0  0  0
  187.4000  177.8270  137.8320 C   0  0  0  0  0  2  0  0  0  0  0  0
  187.4120  178.7050  136.5940 C   0  0  0  0  0  1  0  0  0  0  0  0
  189.6140  176.3650  136.8270 S   0  0  0  0  0  0  0  0  0  0  0  0
  188.3930  175.0920  136.8240 N   0  0  0  0  0  0  0  0  0  0  0  0
  186.7660  173.9700  135.3820 C   0  0  0  0  0  2  0  0  0  0  0  0
  187.4980  172.6610  135.6640 C   0  0  1  0  0  3  0  0  0  0  0  0
  187.7580  175.1210  135.5090 C   0  0  0  0  0  2  0  0  0  0  0  0
  189.1060  173.8220  136.9600 C   0  0  0  0  0  2  0  0  0  0  0  0
  188.1490  172.7170  136.9720 N   0  0  0  0  0  2  0  0  0  0  0  0
  186.5100  171.5140  135.6400 C   0  0  0  0  0  1  0  0  0  0  0  0
  191.4880  175.8580  143.7540 C   0  0  0  0  0  1  0  0  0  0  0  0
  190.9930  177.0210  143.1020 O   0  0  0  0  0  0  0  0  0  0  0  0
  184.3540  178.8790  140.7160 C   0  0  0  0  0  0  0  0  0  0  0  0
  185.1730  179.6390  140.1370 O   0  0  0  0  0  0  0  0  0  0  0  0
  182.3130  180.2660  138.7160 C   0  0  0  0  0  1  0  0  0  0  0  0
  183.0210  176.8530  139.8880 C   0  0  0  0  0  3  0  0  0  0  0  0
  183.3040  178.2100  139.9100 C   0  0  0  0  0  0  0  0  0  0  0  0
  181.9720  176.7370  138.9960 C   0  0  0  0  0  0  0  0  0  0  0  0
  181.6300  177.9070  138.5080 O   0  0  0  0  0  0  0  0  0  0  0  0
  182.4110  178.8130  139.0370 C   0  0  0  0  0  0  0  0  0  0  0  0
  181.4040  175.0280  137.4650 O   0  0  0  0  0  0  0  0  0  0  0  0
  181.3220  175.4790  138.6380 C   0  0  0  0  0  3  0  0  0  0  0  0
  1 10  1  0  0  0  0
  3  5  1  0  0  0  0
  3 13  2  0  0  0  0
  4 28  1  0  0  0  0
  4  5  2  0  0  0  0
  6  7  1  0  0  0  0
  7 10  2  0  0  0  0
  7 13  1  0  0  0  0
  8 11  1  6  0  0  0
  8  6  1  0  0  0  0
  8  3  1  0  0  0  0
  9  4  1  0  0  0  0
 11  9  2  0  0  0  0
 12  6  1  0  0  0  0
 12  1  2  0  0  0  0
 13  2  1  0  0  0  0
 14 15  2  0  0  0  0
 15  9  1  0  0  0  0
 16 14  2  0  0  0  0
 17 16  1  0  0  0  0
 18 17  1  0  0  0  0
 19 16  1  0  0  0  0
 20 19  1  0  0  0  0
 20 24  1  0  0  0  0
 21 23  1  0  0  0  0
 21 22  1  0  0  0  0
 22 26  1  1  0  0  0
 22 25  1  0  0  0  0
 23 20  1  0  0  0  0
 24 25  1  0  0  0  0
 28 27  1  0  0  0  0
 29 12  1  0  0  0  0
 30 29  2  0  0  0  0
 31 36  1  0  0  0  0
 32 33  1  0  0  0  0
 33 29  1  0  0  0  0
 34 32  2  0  0  0  0
 35 34  1  0  0  0  0
 35 36  1  0  0  0  0
 36 33  2  0  0  0  0
 37 38  2  0  0  0  0
 38 34  1  0  0  0  0
M  END
>  <MODEL>
2

>  <REMARK>
 VINA RESULT:      -8.4      1.863      3.141
  Name = 
  8 active torsions:
  status: ('A' for Active; 'I' for Inactive)
    1  A    between atoms: N_4  and  S_35
    2  A    between atoms: C_6  and  O_38
    3  A    between atoms: C_10  and  C_23
    4  A    between atoms: C_10  and  C_29
    5  A    between atoms: C_12  and  C_25
    6  A    between atoms: C_18  and  C_28
    7  A    between atoms: C_26  and  C_36
    8  A    between atoms: S_35  and  C_36
                            x       y       z     vdW  Elec       q    Type
                         _______ _______ _______ _____ _____    ______ ____

>  <TORSDO>
F 8

$$$$
=
 OpenBabel10232408053D

 38 42  0  0  1  0  0  0  0  0999 V2000
  183.5010  178.9440  143.7260 C   0  0  0  0  0  3  0  0  0  0  0  0
  186.7510  177.8630  146.5260 N   0  0  0  0  0  1  0  0  0  0  0  0
  187.4500  177.7130  144.0990 C   0  0  0  0  0  0  0  0  0  0  0  0
  189.5040  177.1290  142.7950 C   0  0  0  0  0  0  0  0  0  0  0  0
  188.8640  177.2350  144.1710 C   0  0  0  0  0  3  0  0  0  0  0  0
  185.5290  178.3280  143.1700 N   0  0  0  0  0  0  0  0  0  0  0  0
  185.3810  178.3510  144.4750 C   0  0  0  0  0  0  0  0  0  0  0  0
  186.7900  177.9410  142.9040 C   0  0  2  0  0  3  0  0  0  0  0  0
  188.7880  177.3510  141.6470 C   0  0  0  0  0  0  0  0  0  0  0  0
  184.1610  178.7190  144.9000 N   0  0  0  0  0  0  0  0  0  0  0  0
  187.3630  177.7820  141.7180 C   0  0  0  0  0  3  0  0  0  0  0  0
  184.3550  178.6990  142.6400 C   0  0  0  0  0  0  0  0  0  0  0  0
  186.5380  177.9770  145.1230 C   0  0  0  0  0  0  0  0  0  0  0  0
  188.7010  177.1870  139.2050 C   0  0  0  0  0  0  0  0  0  0  0  0
  189.3850  177.1260  140.3160 C   0  0  0  0  0  3  0  0  0  0  0  0
  188.0260  177.2510  138.0890 C   0  0  0  0  0  0  0  0  0  0  0  0
  186.8070  178.1040  137.9820 C   0  0  0  0  0  2  0  0  0  0  0  0
  185.6600  177.3290  137.3580 C   0  0  0  0  0  1  0  0  0  0  0  0
  188.5050  176.2220  136.7080 S   0  0  0  0  0  0  0  0  0  0  0  0
  190.0890  175.8940  137.4130 N   0  0  0  0  0  0  0  0  0  0  0  0
  191.8250  174.1780  137.5660 C   0  0  0  0  0  2  0  0  0  0  0  0
  192.7950  175.1790  136.9460 C   0  0  1  0  0  3  0  0  0  0  0  0
  190.4140  174.5070  137.0900 C   0  0  0  0  0  2  0  0  0  0  0  0
  191.0450  176.7600  136.7250 C   0  0  0  0  0  2  0  0  0  0  0  0
  192.3860  176.5450  137.2670 N   0  0  0  0  0  2  0  0  0  0  0  0
  194.1890  174.9300  137.4820 C   0  0  0  0  0  1  0  0  0  0  0  0
  191.4810  175.9660  143.8020 C   0  0  0  0  0  1  0  0  0  0  0  0
  190.8590  176.7590  142.7990 O   0  0  0  0  0  0  0  0  0  0  0  0
  184.0440  178.8080  141.1970 C   0  0  0  0  0  0  0  0  0  0  0  0
  184.7570  179.5540  140.4770 O   0  0  0  0  0  0  0  0  0  0  0  0
  180.9630  179.5780  141.2870 C   0  0  0  0  0  1  0  0  0  0  0  0
  183.0170  176.8960  139.8340 C   0  0  0  0  0  3  0  0  0  0  0  0
  182.9220  178.0670  140.5710 C   0  0  0  0  0  0  0  0  0  0  0  0
  181.7130  176.6090  139.4780 C   0  0  0  0  0  0  0  0  0  0  0  0
  180.8820  177.5100  139.9480 O   0  0  0  0  0  0  0  0  0  0  0  0
  181.5760  178.4000  140.6090 C   0  0  0  0  0  0  0  0  0  0  0  0
  180.5620  174.5670  139.1790 O   0  0  0  0  0  0  0  0  0  0  0  0
  181.3050  175.4540  138.6830 C   0  0  0  0  0  3  0  0  0  0  0  0
  1 10  1  0  0  0  0
  3  5  1  0  0  0  0
  3 13  2  0  0  0  0
  4 28  1  0  0  0  0
  4  5  2  0  0  0  0
  6  7  1  0  0  0  0
  7 10  2  0  0  0  0
  7 13  1  0  0  0  0
  8 11  1  6  0  0  0
  8  6  1  0  0  0  0
  8  3  1  0  0  0  0
  9 11  2  0  0  0  0
  9  4  1  0  0  0  0
 12  6  1  0  0  0  0
 12  1  2  0  0  0  0
 13  2  1  0  0  0  0
 14 15  2  0  0  0  0
 15  9  1  0  0  0  0
 16 14  2  0  0  0  0
 17 16  1  0  0  0  0
 18 17  1  0  0  0  0
 19 20  1  0  0  0  0
 19 16  1  0  0  0  0
 22 25  1  0  0  0  0
 22 26  1  1  0  0  0
 22 21  1  0  0  0  0
 23 20  1  0  0  0  0
 23 21  1  0  0  0  0
 24 25  1  0  0  0  0
 24 20  1  0  0  0  0
 28 27  1  0  0  0  0
 29 12  1  0  0  0  0
 30 29  2  0  0  0  0
 32 33  1  0  0  0  0
 33 36  2  0  0  0  0
 33 29  1  0  0  0  0
 34 32  2  0  0  0  0
 34 35  1  0  0  0  0
 35 36  1  0  0  0  0
 36 31  1  0  0  0  0
 38 37  2  0  0  0  0
 38 34  1  0  0  0  0
M  END
>  <MODEL>
3

>  <REMARK>
 VINA RESULT:      -8.3      1.848      3.196
  Name = 
  8 active torsions:
  status: ('A' for Active; 'I' for Inactive)
    1  A    between atoms: N_4  and  S_35
    2  A    between atoms: C_6  and  O_38
    3  A    between atoms: C_10  and  C_23
    4  A    between atoms: C_10  and  C_29
    5  A    between atoms: C_12  and  C_25
    6  A    between atoms: C_18  and  C_28
    7  A    between atoms: C_26  and  C_36
    8  A    between atoms: S_35  and  C_36
                            x       y       z     vdW  Elec       q    Type
                         _______ _______ _______ _____ _____    ______ ____

>  <TORSDO>
F 8

$$$$
=
 OpenBabel10232408053D

 38 42  0  0  1  0  0  0  0  0999 V2000
  188.7540  177.0890  145.4700 C   0  0  0  0  0  3  0  0  0  0  0  0
  185.2800  179.4260  146.9000 N   0  0  0  0  0  1  0  0  0  0  0  0
  185.0490  178.6890  144.4900 C   0  0  0  0  0  0  0  0  0  0  0  0
  183.3740  178.8930  142.6420 C   0  0  0  0  0  0  0  0  0  0  0  0
  183.7390  179.2720  144.0700 C   0  0  0  0  0  3  0  0  0  0  0  0
  186.9790  177.6090  144.2950 N   0  0  0  0  0  0  0  0  0  0  0  0
  186.8920  178.0770  145.5190 C   0  0  0  0  0  0  0  0  0  0  0  0
  185.8630  177.9660  143.6350 C   0  0  2  0  0  3  0  0  0  0  0  0
  184.2340  178.1890  141.8410 C   0  0  0  0  0  0  0  0  0  0  0  0
  187.9440  177.8010  146.3070 N   0  0  0  0  0  0  0  0  0  0  0  0
  185.5380  177.7030  142.3760 C   0  0  0  0  0  3  0  0  0  0  0  0
  188.1530  176.9670  144.2090 C   0  0  0  0  0  0  0  0  0  0  0  0
  185.7140  178.7650  145.7160 C   0  0  0  0  0  0  0  0  0  0  0  0
  182.8760  177.2610  140.0260 C   0  0  0  0  0  0  0  0  0  0  0  0
  183.9240  177.9340  140.4210 C   0  0  0  0  0  3  0  0  0  0  0  0
  181.8300  176.5920  139.6230 C   0  0  0  0  0  0  0  0  0  0  0  0
  180.5900  176.5430  140.4500 C   0  0  0  0  0  2  0  0  0  0  0  0
  179.9830  175.1520  140.4300 C   0  0  0  0  0  1  0  0  0  0  0  0
  181.9210  175.6350  138.1160 S   0  0  0  0  0  0  0  0  0  0  0  0
  183.6390  175.9850  137.9160 N   0  0  0  0  0  0  0  0  0  0  0  0
  185.7650  174.9590  137.2720 C   0  0  0  0  0  2  0  0  0  0  0  0
  185.8720  176.0040  136.1650 C   0  0  1  0  0  3  0  0  0  0  0  0
  184.2890  174.7220  137.5770 C   0  0  0  0  0  2  0  0  0  0  0  0
  183.7570  176.8830  136.7680 C   0  0  0  0  0  2  0  0  0  0  0  0
  185.1620  177.2230  136.5490 N   0  0  0  0  0  2  0  0  0  0  0  0
  187.3310  176.3260  135.9150 C   0  0  0  0  0  1  0  0  0  0  0  0
  180.9230  179.2840  142.9830 C   0  0  0  0  0  1  0  0  0  0  0  0
  182.1160  179.3470  142.2130 O   0  0  0  0  0  0  0  0  0  0  0  0
  188.6900  176.2870  143.0090 C   0  0  0  0  0  0  0  0  0  0  0  0
  188.6980  175.0290  142.9770 O   0  0  0  0  0  0  0  0  0  0  0  0
  191.6860  177.2390  142.5490 C   0  0  0  0  0  1  0  0  0  0  0  0
  188.4920  177.4630  140.7410 C   0  0  0  0  0  3  0  0  0  0  0  0
  189.2170  177.0370  141.8430 C   0  0  0  0  0  0  0  0  0  0  0  0
  189.4220  178.1080  139.9480 C   0  0  0  0  0  0  0  0  0  0  0  0
  190.6130  178.0910  140.5000 O   0  0  0  0  0  0  0  0  0  0  0  0
  190.5250  177.4540  141.6390 C   0  0  0  0  0  0  0  0  0  0  0  0
  187.9380  178.8120  138.2480 O   0  0  0  0  0  0  0  0  0  0  0  0
  189.1250  178.7330  138.6610 C   0  0  0  0  0  3  0  0  0  0  0  0
  1 10  1  0  0  0  0
  3 13  2  0  0  0  0
  4  5  2  0  0  0  0
  5  3  1  0  0  0  0
  6  7  1  0  0  0  0
  7 13  1  0  0  0  0
  7 10  2  0  0  0  0
  8 11  1  6  0  0  0
  8  6  1  0  0  0  0
  8  3  1  0  0  0  0
  9 11  2  0  0  0  0
  9  4  1  0  0  0  0
 12  6  1  0  0  0  0
 12  1  2  0  0  0  0
 13  2  1  0  0  0  0
 14 15  2  0  0  0  0
 15  9  1  0  0  0  0
 16 14  2  0  0  0  0
 16 17  1  0  0  0  0
 18 17  1  0  0  0  0
 19 16  1  0  0  0  0
 20 19  1  0  0  0  0
 21 23  1  0  0  0  0
 22 26  1  1  0  0  0
 22 25  1  0  0  0  0
 22 21  1  0  0  0  0
 23 20  1  0  0  0  0
 24 20  1  0  0  0  0
 25 24  1  0  0  0  0
 28  4  1  0  0  0  0
 28 27  1  0  0  0  0
 29 12  1  0  0  0  0
 30 29  2  0  0  0  0
 32 33  1  0  0  0  0
 33 29  1  0  0  0  0
 34 35  1  0  0  0  0
 34 32  2  0  0  0  0
 35 36  1  0  0  0  0
 36 33  2  0  0  0  0
 36 31  1  0  0  0  0
 37 38  2  0  0  0  0
 38 34  1  0  0  0  0
M  END
>  <MODEL>
4

>  <REMARK>
 VINA RESULT:      -8.1      2.936      6.927
  Name = 
  8 active torsions:
  status: ('A' for Active; 'I' for Inactive)
    1  A    between atoms: N_4  and  S_35
    2  A    between atoms: C_6  and  O_38
    3  A    between atoms: C_10  and  C_23
    4  A    between atoms: C_10  and  C_29
    5  A    between atoms: C_12  and  C_25
    6  A    between atoms: C_18  and  C_28
    7  A    between atoms: C_26  and  C_36
    8  A    between atoms: S_35  and  C_36
                            x       y       z     vdW  Elec       q    Type
                         _______ _______ _______ _____ _____    ______ ____

>  <TORSDO>
F 8

$$$$
=
 OpenBabel10232408053D

 38 42  0  0  1  0  0  0  0  0999 V2000
  190.3110  177.1200  143.7430 C   0  0  0  0  0  3  0  0  0  0  0  0
  192.5670  177.2200  139.9390 N   0  0  0  0  0  1  0  0  0  0  0  0
  190.0900  177.6290  139.6270 C   0  0  0  0  0  0  0  0  0  0  0  0
  188.5120  178.1010  137.7430 C   0  0  0  0  0  0  0  0  0  0  0  0
  189.9440  177.7850  138.1480 C   0  0  0  0  0  2  0  0  0  0  0  0
  189.4660  177.4730  141.7530 N   0  0  0  0  0  0  0  0  0  0  0  0
  190.7660  177.2970  141.6910 C   0  0  0  0  0  0  0  0  0  0  0  0
  189.0180  177.6820  140.5010 C   0  0  0  0  0  0  0  0  0  0  0  0
  187.4910  178.1190  138.6570 C   0  0  0  0  0  0  0  0  0  0  0  0
  191.3630  177.0720  142.8740 N   0  0  0  0  0  0  0  0  0  0  0  0
  187.7710  177.9020  140.1050 C   0  0  0  0  0  3  0  0  0  0  0  0
  189.1210  177.3700  143.0430 C   0  0  0  0  0  0  0  0  0  0  0  0
  191.2280  177.3780  140.3950 C   0  0  0  0  0  0  0  0  0  0  0  0
  185.0870  178.3320  139.0750 C   0  0  0  0  0  0  0  0  0  0  0  0
  186.0890  178.3040  138.2370 C   0  0  0  0  0  3  0  0  0  0  0  0
  184.0800  178.3650  139.9060 C   0  0  0  0  0  0  0  0  0  0  0  0
  184.2700  178.8100  141.3170 C   0  0  0  0  0  2  0  0  0  0  0  0
  182.9780  178.6780  142.1020 C   0  0  0  0  0  1  0  0  0  0  0  0
  182.4810  177.7680  139.3770 S   0  0  0  0  0  0  0  0  0  0  0  0
  182.3010  179.0770  138.2080 N   0  0  0  0  0  0  0  0  0  0  0  0
  181.0590  179.7300  136.2040 C   0  0  0  0  0  2  0  0  0  0  0  0
  180.5490  180.9410  136.9790 C   0  0  1  0  0  3  0  0  0  0  0  0
  181.3600  178.6090  137.1940 C   0  0  0  0  0  2  0  0  0  0  0  0
  181.6870  180.1970  138.9190 C   0  0  0  0  0  2  0  0  0  0  0  0
  181.5140  181.3270  138.0070 N   0  0  0  0  0  2  0  0  0  0  0  0
  180.3360  182.0980  136.0250 C   0  0  0  0  0  1  0  0  0  0  0  0
  188.5160  177.3680  135.3470 C   0  0  0  0  0  1  0  0  0  0  0  0
  188.3230  178.3350  136.3710 O   0  0  0  0  0  0  0  0  0  0  0  0
  187.7520  177.4870  143.5940 C   0  0  0  0  0  0  0  0  0  0  0  0
  186.7720  177.3410  142.8180 O   0  0  0  0  0  0  0  0  0  0  0  0
  185.1780  178.8750  144.8350 C   0  0  0  0  0  1  0  0  0  0  0  0
  188.3390  177.4750  146.0880 C   0  0  0  0  0  3  0  0  0  0  0  0
  187.4960  177.7670  145.0270 C   0  0  0  0  0  0  0  0  0  0  0  0
  187.6580  177.9280  147.2020 C   0  0  0  0  0  0  0  0  0  0  0  0
  186.5020  178.4550  146.8720 O   0  0  0  0  0  0  0  0  0  0  0  0
  186.3730  178.3730  145.5720 C   0  0  0  0  0  0  0  0  0  0  0  0
  189.3340  178.1830  148.8480 O   0  0  0  0  0  0  0  0  0  0  0  0
  188.1550  177.8380  148.5720 C   0  0  0  0  0  3  0  0  0  0  0  0
  2 13  1  0  0  0  0
  3 13  2  0  0  0  0
  3  8  1  0  0  0  0
  4  5  1  0  0  0  0
  4  9  2  0  0  0  0
  5  3  1  0  0  0  0
  6 12  1  0  0  0  0
  7  6  1  0  0  0  0
  7 10  2  0  0  0  0
  8  6  1  0  0  0  0
  9 11  1  0  0  0  0
 10  1  1  0  0  0  0
 11  8  2  0  0  0  0
 12 29  1  0  0  0  0
 12  1  2  0  0  0  0
 13  7  1  0  0  0  0
 14 16  2  0  0  0  0
 15  9  1  0  0  0  0
 15 14  2  0  0  0  0
 16 17  1  0  0  0  0
 17 18  1  0  0  0  0
 19 16  1  0  0  0  0
 20 24  1  0  0  0  0
 20 19  1  0  0  0  0
 21 22  1  0  0  0  0
 21 23  1  0  0  0  0
 22 26  1  6  0  0  0
 22 25  1  0  0  0  0
 23 20  1  0  0  0  0
 25 24  1  0  0  0  0
 27 28  1  0  0  0  0
 28  4  1  0  0  0  0
 29 33  1  0  0  0  0
 30 29  2  0  0  0  0
 31 36  1  0  0  0  0
 32 34  2  0  0  0  0
 33 36  2  0  0  0  0
 33 32  1  0  0  0  0
 34 38  1  0  0  0  0
 35 34  1  0  0  0  0
 36 35  1  0  0  0  0
 38 37  2  0  0  0  0
M  END
>  <MODEL>
5

>  <REMARK>
 VINA RESULT:      -8.1      3.383      8.360
  Name = 
  8 active torsions:
  status: ('A' for Active; 'I' for Inactive)
    1  A    between atoms: N_4  and  S_35
    2  A    between atoms: C_6  and  O_38
    3  A    between atoms: C_10  and  C_23
    4  A    between atoms: C_10  and  C_29
    5  A    between atoms: C_12  and  C_25
    6  A    between atoms: C_18  and  C_28
    7  A    between atoms: C_26  and  C_36
    8  A    between atoms: S_35  and  C_36
                            x       y       z     vdW  Elec       q    Type
                         _______ _______ _______ _____ _____    ______ ____

>  <TORSDO>
F 8

$$$$
=
 OpenBabel10232408053D

 38 42  0  0  1  0  0  0  0  0999 V2000
  189.0510  177.3300  145.5110 C   0  0  0  0  0  3  0  0  0  0  0  0
  185.8960  179.7340  147.4710 N   0  0  0  0  0  1  0  0  0  0  0  0
  185.1790  178.8060  145.2290 C   0  0  0  0  0  0  0  0  0  0  0  0
  183.1460  178.8450  143.7710 C   0  0  0  0  0  0  0  0  0  0  0  0
  183.7940  179.3400  145.0550 C   0  0  0  0  0  3  0  0  0  0  0  0
  187.0530  177.7360  144.7070 N   0  0  0  0  0  0  0  0  0  0  0  0
  187.2140  178.2980  145.8830 C   0  0  0  0  0  0  0  0  0  0  0  0
  185.8130  178.0270  144.2760 C   0  0  2  0  0  3  0  0  0  0  0  0
  183.8350  178.0900  142.8590 C   0  0  0  0  0  0  0  0  0  0  0  0
  188.4170  178.0980  146.4460 N   0  0  0  0  0  0  0  0  0  0  0  0
  185.2360  177.6620  143.1390 C   0  0  0  0  0  3  0  0  0  0  0  0
  188.1990  177.1030  144.4200 C   0  0  0  0  0  0  0  0  0  0  0  0
  186.0860  178.9870  146.2740 C   0  0  0  0  0  0  0  0  0  0  0  0
  183.7410  178.0800  140.4110 C   0  0  0  0  0  0  0  0  0  0  0  0
  183.2380  177.7200  141.5620 C   0  0  0  0  0  3  0  0  0  0  0  0
  184.2400  178.4330  139.2570 C   0  0  0  0  0  0  0  0  0  0  0  0
  185.6990  178.7020  139.1080 C   0  0  0  0  0  2  0  0  0  0  0  0
  186.2400  178.0550  137.8460 C   0  0  0  0  0  1  0  0  0  0  0  0
  183.1470  178.7020  137.8690 S   0  0  0  0  0  0  0  0  0  0  0  0
  182.3590  177.1410  138.0990 N   0  0  0  0  0  0  0  0  0  0  0  0
  180.2380  175.9710  137.7540 C   0  0  0  0  0  2  0  0  0  0  0  0
  180.9930  174.9680  136.8870 C   0  0  1  0  0  3  0  0  0  0  0  0
  180.9650  177.3110  137.6950 C   0  0  0  0  0  2  0  0  0  0  0  0
  182.9930  176.2070  137.1700 C   0  0  0  0  0  2  0  0  0  0  0  0
  182.3890  174.8820  137.3130 N   0  0  0  0  0  2  0  0  0  0  0  0
  180.3430  173.6050  137.0080 C   0  0  0  0  0  1  0  0  0  0  0  0
  180.6770  178.5590  144.0910 C   0  0  0  0  0  1  0  0  0  0  0  0
  181.8130  179.2490  143.5880 O   0  0  0  0  0  0  0  0  0  0  0  0
  188.4890  176.3360  143.1870 C   0  0  0  0  0  0  0  0  0  0  0  0
  188.1230  175.1340  143.1210 O   0  0  0  0  0  0  0  0  0  0  0  0
  191.6070  176.8830  142.9230 C   0  0  0  0  0  1  0  0  0  0  0  0
  188.6120  177.3720  140.8470 C   0  0  0  0  0  3  0  0  0  0  0  0
  189.1920  176.9360  142.0280 C   0  0  0  0  0  0  0  0  0  0  0  0
  189.6730  177.8450  140.0980 C   0  0  0  0  0  0  0  0  0  0  0  0
  190.8070  177.7200  140.7470 O   0  0  0  0  0  0  0  0  0  0  0  0
  190.5530  177.1770  141.9100 C   0  0  0  0  0  0  0  0  0  0  0  0
  189.7840  177.7070  137.7420 O   0  0  0  0  0  0  0  0  0  0  0  0
  189.5540  178.4130  138.7580 C   0  0  0  0  0  3  0  0  0  0  0  0
  1 10  1  0  0  0  0
  3 13  2  0  0  0  0
  4  5  2  0  0  0  0
  5  3  1  0  0  0  0
  6  7  1  0  0  0  0
  7 13  1  0  0  0  0
  7 10  2  0  0  0  0
  8 11  1  6  0  0  0
  8  6  1  0  0  0  0
  8  3  1  0  0  0  0
  9 11  2  0  0  0  0
  9  4  1  0  0  0  0
 12  6  1  0  0  0  0
 12  1  2  0  0  0  0
 13  2  1  0  0  0  0
 14 15  2  0  0  0  0
 15  9  1  0  0  0  0
 16 14  2  0  0  0  0
 17 16  1  0  0  0  0
 18 17  1  0  0  0  0
 19 20  1  0  0  0  0
 19 16  1  0  0  0  0
 22 26  1  1  0  0  0
 22 25  1  0  0  0  0
 22 21  1  0  0  0  0
 23 21  1  0  0  0  0
 23 20  1  0  0  0  0
 24 25  1  0  0  0  0
 24 20  1  0  0  0  0
 28  4  1  0  0  0  0
 28 27  1  0  0  0  0
 29 12  1  0  0  0  0
 30 29  2  0  0  0  0
 32 33  1  0  0  0  0
 33 29  1  0  0  0  0
 34 35  1  0  0  0  0
 34 32  2  0  0  0  0
 35 36  1  0  0  0  0
 36 33  2  0  0  0  0
 36 31  1  0  0  0  0
 37 38  2  0  0  0  0
 38 34  1  0  0  0  0
M  END
>  <MODEL>
6

>  <REMARK>
 VINA RESULT:      -7.9      3.165      7.058
  Name = 
  8 active torsions:
  status: ('A' for Active; 'I' for Inactive)
    1  A    between atoms: N_4  and  S_35
    2  A    between atoms: C_6  and  O_38
    3  A    between atoms: C_10  and  C_23
    4  A    between atoms: C_10  and  C_29
    5  A    between atoms: C_12  and  C_25
    6  A    between atoms: C_18  and  C_28
    7  A    between atoms: C_26  and  C_36
    8  A    between atoms: S_35  and  C_36
                            x       y       z     vdW  Elec       q    Type
                         _______ _______ _______ _____ _____    ______ ____

>  <TORSDO>
F 8

$$$$
=
 OpenBabel10232408053D

 38 42  0  0  1  0  0  0  0  0999 V2000
  180.7350  178.6010  139.4940 C   0  0  0  0  0  3  0  0  0  0  0  0
  180.2020  178.8910  143.8760 N   0  0  0  0  0  1  0  0  0  0  0  0
  182.6330  178.7930  143.1830 C   0  0  0  0  0  0  0  0  0  0  0  0
  184.8780  178.8280  144.2880 C   0  0  0  0  0  0  0  0  0  0  0  0
  183.3690  178.8210  144.4840 C   0  0  0  0  0  3  0  0  0  0  0  0
  182.3380  178.6560  140.9870 N   0  0  0  0  0  0  0  0  0  0  0  0
  181.1570  178.7300  141.5570 C   0  0  0  0  0  0  0  0  0  0  0  0
  183.2690  178.6930  141.9580 C   0  0  2  0  0  3  0  0  0  0  0  0
  185.4450  178.7080  143.0470 C   0  0  0  0  0  0  0  0  0  0  0  0
  180.1170  178.7020  140.7070 N   0  0  0  0  0  0  0  0  0  0  0  0
  184.5880  178.6420  141.8290 C   0  0  0  0  0  3  0  0  0  0  0  0
  182.1270  178.5710  139.6660 C   0  0  0  0  0  0  0  0  0  0  0  0
  181.2610  178.8160  142.9280 C   0  0  0  0  0  0  0  0  0  0  0  0
  187.4780  178.3170  141.7370 C   0  0  0  0  0  0  0  0  0  0  0  0
  186.9060  178.5900  142.8800 C   0  0  0  0  0  3  0  0  0  0  0  0
  188.0570  178.0480  140.5980 C   0  0  0  0  0  0  0  0  0  0  0  0
  187.4070  178.4140  139.3070 C   0  0  0  0  0  2  0  0  0  0  0  0
  188.4140  178.3920  138.1710 C   0  0  0  0  0  1  0  0  0  0  0  0
  189.5940  177.1350  140.5840 S   0  0  0  0  0  0  0  0  0  0  0  0
  189.8560  177.4150  142.3060 N   0  0  0  0  0  0  0  0  0  0  0  0
  189.8380  176.2890  144.4780 C   0  0  0  0  0  2  0  0  0  0  0  0
  191.3020  176.6890  144.6380 C   0  0  1  0  0  3  0  0  0  0  0  0
  189.5250  176.1670  142.9900 C   0  0  0  0  0  2  0  0  0  0  0  0
  191.2850  177.6670  142.4810 C   0  0  0  0  0  2  0  0  0  0  0  0
  191.5740  177.9160  143.8920 N   0  0  0  0  0  2  0  0  0  0  0  0
  191.6070  176.9100  146.1050 C   0  0  0  0  0  1  0  0  0  0  0  0
  185.2290  178.4140  146.7340 C   0  0  0  0  0  1  0  0  0  0  0  0
  185.6270  178.9330  145.4720 O   0  0  0  0  0  0  0  0  0  0  0  0
  183.1690  178.4560  138.6200 C   0  0  0  0  0  0  0  0  0  0  0  0
  183.9870  179.4010  138.4720 O   0  0  0  0  0  0  0  0  0  0  0  0
  181.7740  178.0250  135.7990 C   0  0  0  0  0  1  0  0  0  0  0  0
  184.0190  176.1190  138.0010 C   0  0  0  0  0  3  0  0  0  0  0  0
  183.2820  177.2650  137.7440 C   0  0  0  0  0  0  0  0  0  0  0  0
  183.8000  175.3170  136.8970 C   0  0  0  0  0  0  0  0  0  0  0  0
  183.0030  175.9010  136.0340 O   0  0  0  0  0  0  0  0  0  0  0  0
  182.6740  177.0740  136.5110 C   0  0  0  0  0  0  0  0  0  0  0  0
  184.9430  173.3970  137.6670 O   0  0  0  0  0  0  0  0  0  0  0  0
  184.3770  173.9880  136.7110 C   0  0  0  0  0  3  0  0  0  0  0  0
  1 12  2  0  0  0  0
  1 10  1  0  0  0  0
  3  5  1  0  0  0  0
  4  5  2  0  0  0  0
  4 28  1  0  0  0  0
  6  7  1  0  0  0  0
  6  8  1  0  0  0  0
  7 13  1  0  0  0  0
  8 11  1  1  0  0  0
  8  3  1  0  0  0  0
  9  4  1  0  0  0  0
 10  7  2  0  0  0  0
 11  9  2  0  0  0  0
 12  6  1  0  0  0  0
 13  3  2  0  0  0  0
 13  2  1  0  0  0  0
 14 15  2  0  0  0  0
 15  9  1  0  0  0  0
 16 14  2  0  0  0  0
 17 16  1  0  0  0  0
 18 17  1  0  0  0  0
 19 16  1  0  0  0  0
 19 20  1  0  0  0  0
 20 24  1  0  0  0  0
 20 23  1  0  0  0  0
 21 22  1  0  0  0  0
 22 26  1  1  0  0  0
 23 21  1  0  0  0  0
 24 25  1  0  0  0  0
 25 22  1  0  0  0  0
 28 27  1  0  0  0  0
 29 12  1  0  0  0  0
 30 29  2  0  0  0  0
 31 36  1  0  0  0  0
 33 32  1  0  0  0  0
 33 29  1  0  0  0  0
 34 32  2  0  0  0  0
 35 36  1  0  0  0  0
 35 34  1  0  0  0  0
 36 33  2  0  0  0  0
 38 34  1  0  0  0  0
 38 37  2  0  0  0  0
M  END
>  <MODEL>
7

>  <REMARK>
 VINA RESULT:      -7.8      2.524      4.513
  Name = 
  8 active torsions:
  status: ('A' for Active; 'I' for Inactive)
    1  A    between atoms: N_4  and  S_35
    2  A    between atoms: C_6  and  O_38
    3  A    between atoms: C_10  and  C_23
    4  A    between atoms: C_10  and  C_29
    5  A    between atoms: C_12  and  C_25
    6  A    between atoms: C_18  and  C_28
    7  A    between atoms: C_26  and  C_36
    8  A    between atoms: S_35  and  C_36
                            x       y       z     vdW  Elec       q    Type
                         _______ _______ _______ _____ _____    ______ ____

>  <TORSDO>
F 8

$$$$
=
 OpenBabel10232408053D

 38 42  0  0  1  0  0  0  0  0999 V2000
  191.6960  177.2980  142.1170 C   0  0  0  0  0  3  0  0  0  0  0  0
  192.5400  176.5440  137.8400 N   0  0  0  0  0  1  0  0  0  0  0  0
  190.1540  177.2740  138.2610 C   0  0  0  0  0  0  0  0  0  0  0  0
  188.0870  177.7170  136.9210 C   0  0  0  0  0  0  0  0  0  0  0  0
  189.5350  177.2480  136.9010 C   0  0  0  0  0  2  0  0  0  0  0  0
  190.2690  177.5020  140.4670 N   0  0  0  0  0  0  0  0  0  0  0  0
  191.4500  177.1260  140.0290 C   0  0  0  0  0  0  0  0  0  0  0  0
  189.4490  177.6030  139.4060 C   0  0  0  0  0  0  0  0  0  0  0  0
  187.4410  178.0120  138.0930 C   0  0  0  0  0  0  0  0  0  0  0  0
  192.3850  176.9760  140.9820 N   0  0  0  0  0  0  0  0  0  0  0  0
  188.1690  177.9530  139.3920 C   0  0  0  0  0  3  0  0  0  0  0  0
  190.3710  177.6270  141.7970 C   0  0  0  0  0  0  0  0  0  0  0  0
  191.4540  176.9610  138.6610 C   0  0  0  0  0  0  0  0  0  0  0  0
  185.3140  178.4850  139.2130 C   0  0  0  0  0  0  0  0  0  0  0  0
  186.0040  178.3460  138.1120 C   0  0  0  0  0  3  0  0  0  0  0  0
  184.6190  178.6300  140.3090 C   0  0  0  0  0  0  0  0  0  0  0  0
  185.2760  179.0560  141.5780 C   0  0  0  0  0  2  0  0  0  0  0  0
  184.2940  179.0160  142.7340 C   0  0  0  0  0  1  0  0  0  0  0  0
  182.8830  178.2080  140.3150 S   0  0  0  0  0  0  0  0  0  0  0  0
  182.6210  178.9720  138.7460 N   0  0  0  0  0  0  0  0  0  0  0  0
  181.5180  178.6410  136.5880 C   0  0  0  0  0  2  0  0  0  0  0  0
  180.7340  179.9230  136.8520 C   0  0  1  0  0  3  0  0  0  0  0  0
  181.8880  178.0100  137.9270 C   0  0  0  0  0  2  0  0  0  0  0  0
  181.7560  180.1280  138.9790 C   0  0  0  0  0  2  0  0  0  0  0  0
  181.5030  180.8180  137.7140 N   0  0  0  0  0  2  0  0  0  0  0  0
  180.4410  180.6150  135.5370 C   0  0  0  0  0  1  0  0  0  0  0  0
  186.6430  176.7790  135.1010 C   0  0  0  0  0  1  0  0  0  0  0  0
  187.4720  177.7900  135.6610 O   0  0  0  0  0  0  0  0  0  0  0  0
  189.2850  178.0200  142.7230 C   0  0  0  0  0  0  0  0  0  0  0  0
  188.3190  178.6910  142.2750 O   0  0  0  0  0  0  0  0  0  0  0  0
  186.7940  177.1130  144.4740 C   0  0  0  0  0  1  0  0  0  0  0  0
  190.3960  177.6330  144.9990 C   0  0  0  0  0  3  0  0  0  0  0  0
  189.2940  177.6480  144.1580 C   0  0  0  0  0  0  0  0  0  0  0  0
  189.8910  177.2250  146.2190 C   0  0  0  0  0  0  0  0  0  0  0  0
  188.5980  177.0080  146.1510 O   0  0  0  0  0  0  0  0  0  0  0  0
  188.2080  177.2520  144.9260 C   0  0  0  0  0  0  0  0  0  0  0  0
  191.9200  176.8180  147.3600 O   0  0  0  0  0  0  0  0  0  0  0  0
  190.6860  177.0580  147.4330 C   0  0  0  0  0  3  0  0  0  0  0  0
  2 13  1  0  0  0  0
  3 13  2  0  0  0  0
  3  8  1  0  0  0  0
  4  9  2  0  0  0  0
  5  4  1  0  0  0  0
  5  3  1  0  0  0  0
  6 12  1  0  0  0  0
  7  6  1  0  0  0  0
  7 10  2  0  0  0  0
  8  6  1  0  0  0  0
  9 15  1  0  0  0  0
  9 11  1  0  0  0  0
 10  1  1  0  0  0  0
 11  8  2  0  0  0  0
 12  1  2  0  0  0  0
 12 29  1  0  0  0  0
 13  7  1  0  0  0  0
 14 16  2  0  0  0  0
 15 14  2  0  0  0  0
 16 19  1  0  0  0  0
 16 17  1  0  0  0  0
 17 18  1  0  0  0  0
 20 24  1  0  0  0  0
 20 19  1  0  0  0  0
 21 22  1  0  0  0  0
 21 23  1  0  0  0  0
 22 26  1  6  0  0  0
 22 25  1  0  0  0  0
 23 20  1  0  0  0  0
 25 24  1  0  0  0  0
 27 28  1  0  0  0  0
 28  4  1  0  0  0  0
 29 33  1  0  0  0  0
 30 29  2  0  0  0  0
 31 36  1  0  0  0  0
 32 34  2  0  0  0  0
 33 36  2  0  0  0  0
 33 32  1  0  0  0  0
 34 38  1  0  0  0  0
 35 34  1  0  0  0  0
 36 35  1  0  0  0  0
 37 38  2  0  0  0  0
M  END
>  <MODEL>
8

>  <REMARK>
 VINA RESULT:      -7.8      3.369      8.784
  Name = 
  8 active torsions:
  status: ('A' for Active; 'I' for Inactive)
    1  A    between atoms: N_4  and  S_35
    2  A    between atoms: C_6  and  O_38
    3  A    between atoms: C_10  and  C_23
    4  A    between atoms: C_10  and  C_29
    5  A    between atoms: C_12  and  C_25
    6  A    between atoms: C_18  and  C_28
    7  A    between atoms: C_26  and  C_36
    8  A    between atoms: S_35  and  C_36
                            x       y       z     vdW  Elec       q    Type
                         _______ _______ _______ _____ _____    ______ ____

>  <TORSDO>
F 8

$$$$
=
 OpenBabel10232408053D

 38 42  0  0  1  0  0  0  0  0999 V2000
  191.0560  176.9330  142.0400 C   0  0  0  0  0  3  0  0  0  0  0  0
  188.6460  177.0330  145.7480 N   0  0  0  0  0  1  0  0  0  0  0  0
  187.3270  177.7050  143.6960 C   0  0  0  0  0  0  0  0  0  0  0  0
  184.9910  178.4140  143.1440 C   0  0  0  0  0  0  0  0  0  0  0  0
  185.9740  178.0330  144.2410 C   0  0  0  0  0  3  0  0  0  0  0  0
  188.9430  177.4950  142.1890 N   0  0  0  0  0  0  0  0  0  0  0  0
  189.4320  177.1700  143.3640 C   0  0  0  0  0  0  0  0  0  0  0  0
  187.6510  177.8280  142.3560 C   0  0  2  0  0  3  0  0  0  0  0  0
  185.3810  178.5350  141.8370 C   0  0  0  0  0  0  0  0  0  0  0  0
  190.7270  176.8130  143.3600 N   0  0  0  0  0  0  0  0  0  0  0  0
  186.7810  178.2200  141.4340 C   0  0  0  0  0  3  0  0  0  0  0  0
  189.9410  177.3610  141.3040 C   0  0  0  0  0  0  0  0  0  0  0  0
  188.4810  177.2800  144.3560 C   0  0  0  0  0  0  0  0  0  0  0  0
  183.7680  178.2320  140.0180 C   0  0  0  0  0  0  0  0  0  0  0  0
  184.4500  179.0240  140.8010 C   0  0  0  0  0  3  0  0  0  0  0  0
  183.0800  177.4470  139.2340 C   0  0  0  0  0  0  0  0  0  0  0  0
  182.7070  176.0700  139.6690 C   0  0  0  0  0  2  0  0  0  0  0  0
  181.2510  175.7800  139.3520 C   0  0  0  0  0  1  0  0  0  0  0  0
  182.6740  177.9880  137.5790 S   0  0  0  0  0  0  0  0  0  0  0  0
  183.7700  176.8130  136.8510 N   0  0  0  0  0  0  0  0  0  0  0  0
  184.4450  175.8660  134.6990 C   0  0  0  0  0  2  0  0  0  0  0  0
  185.8620  176.3510  134.9900 C   0  0  1  0  0  3  0  0  0  0  0  0
  183.4590  176.7760  135.4240 C   0  0  0  0  0  2  0  0  0  0  0  0
  185.1240  177.3420  137.0110 C   0  0  0  0  0  2  0  0  0  0  0  0
  186.0900  176.4090  136.4330 N   0  0  0  0  0  2  0  0  0  0  0  0
  186.8600  175.4030  134.3580 C   0  0  0  0  0  1  0  0  0  0  0  0
  183.3290  179.0970  144.8900 C   0  0  0  0  0  1  0  0  0  0  0  0
  183.6800  178.6580  143.5850 O   0  0  0  0  0  0  0  0  0  0  0  0
  189.8620  177.6300  139.8510 C   0  0  0  0  0  0  0  0  0  0  0  0
  189.4760  178.7630  139.4640 O   0  0  0  0  0  0  0  0  0  0  0  0
  192.7750  176.9600  138.7750 C   0  0  0  0  0  1  0  0  0  0  0  0
  189.3500  175.7660  138.1680 C   0  0  0  0  0  3  0  0  0  0  0  0
  190.2230  176.6110  138.8360 C   0  0  0  0  0  0  0  0  0  0  0  0
  190.1650  175.0190  137.3380 C   0  0  0  0  0  0  0  0  0  0  0  0
  191.4250  175.3630  137.4710 O   0  0  0  0  0  0  0  0  0  0  0  0
  191.4950  176.3170  138.3640 C   0  0  0  0  0  0  0  0  0  0  0  0
  189.0170  173.0090  136.8600 O   0  0  0  0  0  0  0  0  0  0  0  0
  189.6910  173.9800  136.4270 C   0  0  0  0  0  3  0  0  0  0  0  0
  1 10  1  0  0  0  0
  3  5  1  0  0  0  0
  3 13  2  0  0  0  0
  4 28  1  0  0  0  0
  4  5  2  0  0  0  0
  6  8  1  0  0  0  0
  6  7  1  0  0  0  0
  7 13  1  0  0  0  0
  8 11  1  1  0  0  0
  8  3  1  0  0  0  0
  9  4  1  0  0  0  0
 10  7  2  0  0  0  0
 11  9  2  0  0  0  0
 12  1  2  0  0  0  0
 12  6  1  0  0  0  0
 13  2  1  0  0  0  0
 14 15  2  0  0  0  0
 15  9  1  0  0  0  0
 16 17  1  0  0  0  0
 16 14  2  0  0  0  0
 18 17  1  0  0  0  0
 19 16  1  0  0  0  0
 20 24  1  0  0  0  0
 20 19  1  0  0  0  0
 21 22  1  0  0  0  0
 21 23  1  0  0  0  0
 22 26  1  6  0  0  0
 22 25  1  0  0  0  0
 23 20  1  0  0  0  0
 25 24  1  0  0  0  0
 28 27  1  0  0  0  0
 29 12  1  0  0  0  0
 30 29  2  0  0  0  0
 32 33  1  0  0  0  0
 33 29  1  0  0  0  0
 34 35  1  0  0  0  0
 34 32  2  0  0  0  0
 35 36  1  0  0  0  0
 36 31  1  0  0  0  0
 36 33  2  0  0  0  0
 38 37  2  0  0  0  0
 38 34  1  0  0  0  0
M  END
>  <MODEL>
9

>  <REMARK>
 VINA RESULT:      -7.7      3.444      7.009
  Name = 
  8 active torsions:
  status: ('A' for Active; 'I' for Inactive)
    1  A    between atoms: N_4  and  S_35
    2  A    between atoms: C_6  and  O_38
    3  A    between atoms: C_10  and  C_23
    4  A    between atoms: C_10  and  C_29
    5  A    between atoms: C_12  and  C_25
    6  A    between atoms: C_18  and  C_28
    7  A    between atoms: C_26  and  C_36
    8  A    between atoms: S_35  and  C_36
                            x       y       z     vdW  Elec       q    Type
                         _______ _______ _______ _____ _____    ______ ____

>  <TORSDO>
F 8

$$$$
