=
 OpenBabel10232412393D

 37 41  0  0  1  0  0  0  0  0999 V2000
  186.3190  174.2600  135.3430 C   0  0  0  0  0  2  0  0  0  0  0  0
  184.2230  177.5820  138.0800 C   0  0  1  0  0  3  0  0  0  0  0  0
  185.4300  176.2740  136.5020 C   0  0  0  0  0  0  0  0  0  0  0  0
  183.7040  176.2230  137.9670 N   0  0  0  0  0  0  0  0  0  0  0  0
  185.3590  177.6650  137.0460 C   0  0  2  0  0  3  0  0  0  0  0  0
  184.9370  173.7710  135.3760 N   0  0  0  0  0  2  0  0  0  0  0  0
  186.3450  175.7930  135.4150 C   0  0  0  0  0  2  0  0  0  0  0  0
  184.3550  174.0590  136.6930 C   0  0  0  0  0  2  0  0  0  0  0  0
  184.4780  175.5220  137.0110 C   0  0  0  0  0  0  0  0  0  0  0  0
  188.4860  178.9650  138.0860 O   0  0  0  0  0  0  0  0  0  0  0  0
  186.6370  178.0490  137.7210 C   0  0  0  0  0  0  0  0  0  0  0  0
  187.5140  178.9450  137.2260 N   0  0  0  0  0  0  0  0  0  0  0  0
  188.2300  178.1250  139.0590 C   0  0  0  0  0  0  0  0  0  0  0  0
  187.0500  177.4990  138.8800 N   0  0  0  0  0  0  0  0  0  0  0  0
  190.2250  177.6170  142.3120 C   0  0  0  0  0  0  0  0  0  0  0  0
  189.1160  177.8890  140.1990 C   0  0  0  0  0  0  0  0  0  0  0  0
  190.4050  177.5010  140.0800 N   0  0  0  0  0  0  0  0  0  0  0  0
  188.6780  178.0650  141.8160 S   0  0  0  0  0  0  0  0  0  0  0  0
  191.0200  177.3490  141.2520 N   0  0  0  0  0  0  0  0  0  0  0  0
  189.9100  176.8260  144.6350 O   0  0  0  0  0  1  0  0  0  0  0  0
  191.7420  178.0750  144.0650 O   0  0  0  0  0  0  0  0  0  0  0  0
  190.6690  177.5230  143.7040 C   0  0  0  0  0  0  0  0  0  0  0  0
  182.8960  175.5780  138.9920 C   0  0  0  0  0  2  0  0  0  0  0  0
  180.4740  175.5570  139.9650 C   0  0  0  0  0  1  0  0  0  0  0  0
  181.2310  175.2410  138.3480 S   0  0  0  0  0  0  0  0  0  0  0  0
  183.1440  178.6000  137.7350 C   0  0  0  0  0  2  0  0  0  0  0  0
  184.5250  178.5430  143.3210 C   0  0  0  0  0  0  0  0  0  0  0  0
  181.7810  179.5510  139.5760 C   0  0  0  0  0  0  0  0  0  0  0  0
  180.8060  180.4360  139.3940 C   0  0  0  0  0  2  0  0  0  0  0  0
  184.1240  179.5160  139.7640 N   0  0  0  0  0  0  0  0  0  0  0  0
  183.0500  179.6830  138.8010 C   0  0  1  0  0  3  0  0  0  0  0  0
  183.3690  178.2640  143.7340 O   0  0  0  0  0  0  0  0  0  0  0  0
  183.7690  179.1220  140.9430 C   0  0  0  0  0  0  0  0  0  0  0  0
  184.7530  178.9690  141.9720 N   0  0  0  0  0  2  0  0  0  0  0  0
  182.0190  178.8120  141.1830 S   0  0  0  0  0  0  0  0  0  0  0  0
  185.2280  178.8390  145.6580 C   0  0  0  0  0  1  0  0  0  0  0  0
  185.6750  178.4580  144.2610 C   0  0  0  0  0  2  0  0  0  0  0  0
  1  6  1  0  0  0  0
  1  7  1  0  0  0  0
  2 26  1  6  0  0  0
  3  9  2  0  0  0  0
  3  5  1  0  0  0  0
  4  2  1  0  0  0  0
  4 23  1  0  0  0  0
  5 11  1  1  0  0  0
  5  2  1  0  0  0  0
  6  8  1  0  0  0  0
  7  3  1  0  0  0  0
  8  9  1  0  0  0  0
  9  4  1  0  0  0  0
 10 13  1  0  0  0  0
 11 14  1  0  0  0  0
 12 11  2  0  0  0  0
 12 10  1  0  0  0  0
 13 16  1  0  0  0  0
 14 13  2  0  0  0  0
 15 22  1  0  0  0  0
 16 18  1  0  0  0  0
 17 16  2  0  0  0  0
 17 19  1  0  0  0  0
 18 15  1  0  0  0  0
 19 15  2  0  0  0  0
 22 21  2  0  0  0  0
 22 20  1  0  0  0  0
 25 23  1  0  0  0  0
 25 24  1  0  0  0  0
 27 32  2  0  0  0  0
 27 37  1  0  0  0  0
 28 35  1  0  0  0  0
 29 28  2  0  0  0  0
 30 33  2  0  0  0  0
 31 26  1  6  0  0  0
 31 28  1  0  0  0  0
 31 30  1  0  0  0  0
 33 35  1  0  0  0  0
 33 34  1  0  0  0  0
 34 27  1  0  0  0  0
 37 36  1  0  0  0  0
M  END
>  <MODEL>
1

>  <REMARK>
 VINA RESULT:      -7.1      0.000      0.000
  Name = 
  8 active torsions:
  status: ('A' for Active; 'I' for Inactive)
    1  A    between atoms: C_1  and  C_10
    2  A    between atoms: C_6  and  C_32
    3  A    between atoms: C_11  and  C_24
    4  A    between atoms: C_12  and  C_31
    5  A    between atoms: C_13  and  C_35
    6  A    between atoms: C_17  and  C_35
    7  A    between atoms: N_23  and  C_28
    8  A    between atoms: C_28  and  S_37
                            x       y       z     vdW  Elec       q    Type
                         _______ _______ _______ _____ _____    ______ ____

>  <TORSDO>
F 8

$$$$
=
 OpenBabel10232412393D

 37 41  0  0  1  0  0  0  0  0999 V2000
  191.3960  174.3190  137.3700 C   0  0  0  0  0  2  0  0  0  0  0  0
  187.1130  176.4460  137.1330 C   0  0  1  0  0  3  0  0  0  0  0  0
  189.4000  175.7940  137.1900 C   0  0  0  0  0  0  0  0  0  0  0  0
  187.2970  175.0280  136.8470 N   0  0  0  0  0  0  0  0  0  0  0  0
  188.5350  177.0070  137.3080 C   0  0  2  0  0  3  0  0  0  0  0  0
  190.6980  173.4510  136.4170 N   0  0  0  0  0  2  0  0  0  0  0  0
  190.8990  175.7660  137.2370 C   0  0  0  0  0  2  0  0  0  0  0  0
  189.2830  173.3590  136.7930 C   0  0  0  0  0  2  0  0  0  0  0  0
  188.6800  174.7310  136.9010 C   0  0  0  0  0  0  0  0  0  0  0  0
  188.9710  179.0880  140.1410 O   0  0  0  0  0  0  0  0  0  0  0  0
  188.6710  177.6420  138.6550 C   0  0  0  0  0  0  0  0  0  0  0  0
  188.8830  178.9590  138.8540 N   0  0  0  0  0  0  0  0  0  0  0  0
  188.8280  177.9170  140.7120 C   0  0  0  0  0  0  0  0  0  0  0  0
  188.6340  176.9400  139.8050 N   0  0  0  0  0  0  0  0  0  0  0  0
  189.3550  177.5090  144.5040 C   0  0  0  0  0  0  0  0  0  0  0  0
  188.8780  177.6930  142.1580 C   0  0  0  0  0  0  0  0  0  0  0  0
  187.8830  177.1080  142.8600 N   0  0  0  0  0  0  0  0  0  0  0  0
  190.1650  178.1190  143.1570 S   0  0  0  0  0  0  0  0  0  0  0  0
  188.1480  177.0060  144.1620 N   0  0  0  0  0  0  0  0  0  0  0  0
  191.2030  177.1910  146.1180 O   0  0  0  0  0  0  0  0  0  0  0  0
  189.1200  177.8130  146.8360 O   0  0  0  0  0  1  0  0  0  0  0  0
  189.8750  177.5150  145.8730 C   0  0  0  0  0  0  0  0  0  0  0  0
  186.2440  174.0310  136.9850 C   0  0  0  0  0  2  0  0  0  0  0  0
  183.9560  173.2560  135.9970 C   0  0  0  0  0  1  0  0  0  0  0  0
  185.6220  173.5530  135.3470 S   0  0  0  0  0  0  0  0  0  0  0  0
  186.4280  177.1460  135.9670 C   0  0  0  0  0  2  0  0  0  0  0  0
  184.7620  178.6020  141.2790 C   0  0  0  0  0  0  0  0  0  0  0  0
  184.0880  177.2190  136.7840 C   0  0  0  0  0  0  0  0  0  0  0  0
  183.0250  177.2590  135.9860 C   0  0  0  0  0  2  0  0  0  0  0  0
  185.6790  178.6960  137.6870 N   0  0  0  0  0  0  0  0  0  0  0  0
  185.2920  178.0360  136.4520 C   0  0  1  0  0  3  0  0  0  0  0  0
  183.8880  177.7020  141.3880 O   0  0  0  0  0  0  0  0  0  0  0  0
  185.0650  178.3000  138.7530 C   0  0  0  0  0  0  0  0  0  0  0  0
  185.3500  178.9210  140.0130 N   0  0  0  0  0  2  0  0  0  0  0  0
  183.8680  176.9820  138.5400 S   0  0  0  0  0  0  0  0  0  0  0  0
  184.3950  178.8850  143.6940 C   0  0  0  0  0  1  0  0  0  0  0  0
  185.1720  179.3690  142.4860 C   0  0  0  0  0  2  0  0  0  0  0  0
  2 26  1  6  0  0  0
  2  5  1  0  0  0  0
  3  7  1  0  0  0  0
  3  5  1  0  0  0  0
  4  9  1  0  0  0  0
  4 23  1  0  0  0  0
  4  2  1  0  0  0  0
  5 11  1  1  0  0  0
  6  8  1  0  0  0  0
  6  1  1  0  0  0  0
  7  1  1  0  0  0  0
  8  9  1  0  0  0  0
  9  3  2  0  0  0  0
 10 13  1  0  0  0  0
 11 12  2  0  0  0  0
 11 14  1  0  0  0  0
 12 10  1  0  0  0  0
 13 16  1  0  0  0  0
 14 13  2  0  0  0  0
 15 22  1  0  0  0  0
 16 17  2  0  0  0  0
 16 18  1  0  0  0  0
 17 19  1  0  0  0  0
 18 15  1  0  0  0  0
 19 15  2  0  0  0  0
 22 20  2  0  0  0  0
 22 21  1  0  0  0  0
 25 24  1  0  0  0  0
 25 23  1  0  0  0  0
 27 32  2  0  0  0  0
 27 37  1  0  0  0  0
 28 35  1  0  0  0  0
 29 28  2  0  0  0  0
 30 33  2  0  0  0  0
 31 26  1  1  0  0  0
 31 28  1  0  0  0  0
 31 30  1  0  0  0  0
 33 34  1  0  0  0  0
 34 27  1  0  0  0  0
 35 33  1  0  0  0  0
 37 36  1  0  0  0  0
M  END
>  <MODEL>
2

>  <REMARK>
 VINA RESULT:      -6.7      2.635      3.610
  Name = 
  8 active torsions:
  status: ('A' for Active; 'I' for Inactive)
    1  A    between atoms: C_1  and  C_10
    2  A    between atoms: C_6  and  C_32
    3  A    between atoms: C_11  and  C_24
    4  A    between atoms: C_12  and  C_31
    5  A    between atoms: C_13  and  C_35
    6  A    between atoms: C_17  and  C_35
    7  A    between atoms: N_23  and  C_28
    8  A    between atoms: C_28  and  S_37
                            x       y       z     vdW  Elec       q    Type
                         _______ _______ _______ _____ _____    ______ ____

>  <TORSDO>
F 8

$$$$
=
 OpenBabel10232412393D

 37 41  0  0  1  0  0  0  0  0999 V2000
  181.0060  179.4950  143.1630 C   0  0  0  0  0  2  0  0  0  0  0  0
  183.4970  178.6100  139.1710 C   0  0  1  0  0  3  0  0  0  0  0  0
  182.4320  178.6710  141.2960 C   0  0  0  0  0  0  0  0  0  0  0  0
  182.3220  179.4750  139.1820 N   0  0  0  0  0  0  0  0  0  0  0  0
  183.5580  177.9990  140.5810 C   0  0  2  0  0  3  0  0  0  0  0  0
  179.9840  179.7120  142.1350 N   0  0  0  0  0  2  0  0  0  0  0  0
  181.9990  178.4140  142.7100 C   0  0  0  0  0  2  0  0  0  0  0  0
  180.6110  180.3030  140.9470 C   0  0  0  0  0  2  0  0  0  0  0  0
  181.7550  179.4500  140.4790 C   0  0  0  0  0  0  0  0  0  0  0  0
  186.7870  179.1150  141.5180 O   0  0  0  0  0  0  0  0  0  0  0  0
  184.8730  178.3170  141.2190 C   0  0  0  0  0  0  0  0  0  0  0  0
  185.8000  179.1320  140.6770 N   0  0  0  0  0  0  0  0  0  0  0  0
  186.4940  178.3280  142.5240 C   0  0  0  0  0  0  0  0  0  0  0  0
  185.2710  177.7800  142.3890 N   0  0  0  0  0  0  0  0  0  0  0  0
  188.4830  177.6730  145.7550 C   0  0  0  0  0  0  0  0  0  0  0  0
  187.3850  178.0710  143.6570 C   0  0  0  0  0  0  0  0  0  0  0  0
  188.7210  177.9100  143.5380 N   0  0  0  0  0  0  0  0  0  0  0  0
  186.8930  177.9420  145.2620 S   0  0  0  0  0  0  0  0  0  0  0  0
  189.3300  177.6890  144.7020 N   0  0  0  0  0  0  0  0  0  0  0  0
  188.3810  178.2190  148.1660 O   0  0  0  0  0  1  0  0  0  0  0  0
  189.7580  176.5570  147.4020 O   0  0  0  0  0  0  0  0  0  0  0  0
  188.9090  177.4490  147.1380 C   0  0  0  0  0  0  0  0  0  0  0  0
  182.0880  180.5350  138.2110 C   0  0  0  0  0  2  0  0  0  0  0  0
  180.3620  181.7890  136.7080 C   0  0  0  0  0  1  0  0  0  0  0  0
  180.7470  180.0570  137.0820 S   0  0  0  0  0  0  0  0  0  0  0  0
  183.3380  177.5000  138.1400 C   0  0  0  0  0  2  0  0  0  0  0  0
  183.1970  172.1280  136.0820 C   0  0  0  0  0  0  0  0  0  0  0  0
  181.5400  175.8400  138.5430 C   0  0  0  0  0  0  0  0  0  0  0  0
  180.6490  175.9360  139.5250 C   0  0  0  0  0  2  0  0  0  0  0  0
  183.7500  175.1040  138.2260 N   0  0  0  0  0  0  0  0  0  0  0  0
  182.9690  176.1820  138.8060 C   0  0  1  0  0  3  0  0  0  0  0  0
  181.9720  172.1370  135.7910 O   0  0  0  0  0  0  0  0  0  0  0  0
  183.0950  174.2640  137.4940 C   0  0  0  0  0  0  0  0  0  0  0  0
  183.7730  173.1430  136.9120 N   0  0  0  0  0  2  0  0  0  0  0  0
  181.3430  174.5860  137.2880 S   0  0  0  0  0  0  0  0  0  0  0  0
  183.4260  169.6870  135.9070 C   0  0  0  0  0  1  0  0  0  0  0  0
  184.0580  171.0250  135.5780 C   0  0  0  0  0  2  0  0  0  0  0  0
  2 26  1  6  0  0  0
  2  4  1  0  0  0  0
  2  5  1  0  0  0  0
  3  7  1  0  0  0  0
  4  9  1  0  0  0  0
  5 11  1  1  0  0  0
  5  3  1  0  0  0  0
  6  1  1  0  0  0  0
  7  1  1  0  0  0  0
  8  6  1  0  0  0  0
  9  8  1  0  0  0  0
  9  3  2  0  0  0  0
 10 13  1  0  0  0  0
 11 14  1  0  0  0  0
 12 11  2  0  0  0  0
 12 10  1  0  0  0  0
 13 16  1  0  0  0  0
 14 13  2  0  0  0  0
 15 22  1  0  0  0  0
 16 18  1  0  0  0  0
 17 16  2  0  0  0  0
 17 19  1  0  0  0  0
 18 15  1  0  0  0  0
 19 15  2  0  0  0  0
 22 21  2  0  0  0  0
 22 20  1  0  0  0  0
 23  4  1  0  0  0  0
 24 25  1  0  0  0  0
 25 23  1  0  0  0  0
 27 34  1  0  0  0  0
 28 31  1  0  0  0  0
 28 29  2  0  0  0  0
 30 31  1  0  0  0  0
 31 26  1  6  0  0  0
 32 27  2  0  0  0  0
 33 30  2  0  0  0  0
 34 33  1  0  0  0  0
 35 33  1  0  0  0  0
 35 28  1  0  0  0  0
 37 36  1  0  0  0  0
 37 27  1  0  0  0  0
M  END
>  <MODEL>
3

>  <REMARK>
 VINA RESULT:      -6.0      3.062      6.349
  Name = 
  8 active torsions:
  status: ('A' for Active; 'I' for Inactive)
    1  A    between atoms: C_1  and  C_10
    2  A    between atoms: C_6  and  C_32
    3  A    between atoms: C_11  and  C_24
    4  A    between atoms: C_12  and  C_31
    5  A    between atoms: C_13  and  C_35
    6  A    between atoms: C_17  and  C_35
    7  A    between atoms: N_23  and  C_28
    8  A    between atoms: C_28  and  S_37
                            x       y       z     vdW  Elec       q    Type
                         _______ _______ _______ _____ _____    ______ ____

>  <TORSDO>
F 8

$$$$
=
 OpenBabel10232412393D

 37 41  0  0  1  0  0  0  0  0999 V2000
  181.0940  182.9290  137.5180 C   0  0  0  0  0  2  0  0  0  0  0  0
  181.6770  178.1790  137.6860 C   0  0  1  0  0  3  0  0  0  0  0  0
  181.3520  180.5090  138.0390 C   0  0  0  0  0  0  0  0  0  0  0  0
  181.2080  178.8660  136.4870 N   0  0  0  0  0  0  0  0  0  0  0  0
  181.7220  179.2630  138.7770 C   0  0  2  0  0  3  0  0  0  0  0  0
  180.1500  182.4890  136.4860 N   0  0  0  0  0  2  0  0  0  0  0  0
  181.1950  181.8780  138.6330 C   0  0  0  0  0  2  0  0  0  0  0  0
  180.6990  181.3150  135.7980 C   0  0  0  0  0  2  0  0  0  0  0  0
  181.0420  180.2390  136.7890 C   0  0  0  0  0  0  0  0  0  0  0  0
  185.1370  179.8210  139.5370 O   0  0  0  0  0  0  0  0  0  0  0  0
  183.1020  179.3590  139.3450 C   0  0  0  0  0  0  0  0  0  0  0  0
  184.1250  179.9990  138.7450 N   0  0  0  0  0  0  0  0  0  0  0  0
  184.7660  179.1060  140.5700 C   0  0  0  0  0  0  0  0  0  0  0  0
  183.4620  178.7720  140.5040 N   0  0  0  0  0  0  0  0  0  0  0  0
  186.7490  178.0100  143.6820 C   0  0  0  0  0  0  0  0  0  0  0  0
  185.6560  178.7110  141.6620 C   0  0  0  0  0  0  0  0  0  0  0  0
  187.0030  178.6870  141.5600 N   0  0  0  0  0  0  0  0  0  0  0  0
  185.1510  178.2340  143.1970 S   0  0  0  0  0  0  0  0  0  0  0  0
  187.6090  178.2980  142.6810 N   0  0  0  0  0  0  0  0  0  0  0  0
  186.3030  177.6650  146.0920 O   0  0  0  0  0  1  0  0  0  0  0  0
  188.3200  177.0770  145.1810 O   0  0  0  0  0  0  0  0  0  0  0  0
  187.1690  177.5600  145.0110 C   0  0  0  0  0  0  0  0  0  0  0  0
  181.3720  178.3430  135.1390 C   0  0  0  0  0  2  0  0  0  0  0  0
  182.0260  175.8890  134.5330 C   0  0  0  0  0  1  0  0  0  0  0  0
  182.9150  177.3910  135.0240 S   0  0  0  0  0  0  0  0  0  0  0  0
  180.7000  177.0850  138.0950 C   0  0  0  0  0  2  0  0  0  0  0  0
  184.5050  173.0810  136.4830 C   0  0  0  0  0  0  0  0  0  0  0  0
  180.6670  174.6980  138.7690 C   0  0  0  0  0  0  0  0  0  0  0  0
  179.9820  174.2320  139.8090 C   0  0  0  0  0  2  0  0  0  0  0  0
  182.7220  175.7540  138.3350 N   0  0  0  0  0  0  0  0  0  0  0  0
  181.4010  175.9920  138.8900 C   0  0  1  0  0  3  0  0  0  0  0  0
  183.6560  172.1710  136.2900 O   0  0  0  0  0  0  0  0  0  0  0  0
  182.8830  174.6260  137.7260 C   0  0  0  0  0  0  0  0  0  0  0  0
  184.1630  174.2830  137.1820 N   0  0  0  0  0  2  0  0  0  0  0  0
  181.4440  173.5590  137.6360 S   0  0  0  0  0  0  0  0  0  0  0  0
  186.7760  174.0200  136.5030 C   0  0  0  0  0  1  0  0  0  0  0  0
  185.8990  172.8910  136.0000 C   0  0  0  0  0  2  0  0  0  0  0  0
  1  7  1  0  0  0  0
  2 26  1  1  0  0  0
  2  5  1  0  0  0  0
  3  7  1  0  0  0  0
  3  5  1  0  0  0  0
  4  9  1  0  0  0  0
  4  2  1  0  0  0  0
  5 11  1  6  0  0  0
  6  1  1  0  0  0  0
  8  6  1  0  0  0  0
  8  9  1  0  0  0  0
  9  3  2  0  0  0  0
 10 13  1  0  0  0  0
 11 14  1  0  0  0  0
 12 11  2  0  0  0  0
 12 10  1  0  0  0  0
 13 16  1  0  0  0  0
 14 13  2  0  0  0  0
 15 22  1  0  0  0  0
 16 18  1  0  0  0  0
 17 16  2  0  0  0  0
 17 19  1  0  0  0  0
 18 15  1  0  0  0  0
 19 15  2  0  0  0  0
 22 21  2  0  0  0  0
 22 20  1  0  0  0  0
 23  4  1  0  0  0  0
 24 25  1  0  0  0  0
 25 23  1  0  0  0  0
 27 34  1  0  0  0  0
 28 31  1  0  0  0  0
 28 29  2  0  0  0  0
 30 31  1  0  0  0  0
 31 26  1  6  0  0  0
 32 27  2  0  0  0  0
 33 30  2  0  0  0  0
 34 33  1  0  0  0  0
 35 33  1  0  0  0  0
 35 28  1  0  0  0  0
 37 27  1  0  0  0  0
 37 36  1  0  0  0  0
M  END
>  <MODEL>
4

>  <REMARK>
 VINA RESULT:      -5.9      2.872      6.003
  Name = 
  8 active torsions:
  status: ('A' for Active; 'I' for Inactive)
    1  A    between atoms: C_1  and  C_10
    2  A    between atoms: C_6  and  C_32
    3  A    between atoms: C_11  and  C_24
    4  A    between atoms: C_12  and  C_31
    5  A    between atoms: C_13  and  C_35
    6  A    between atoms: C_17  and  C_35
    7  A    between atoms: N_23  and  C_28
    8  A    between atoms: C_28  and  S_37
                            x       y       z     vdW  Elec       q    Type
                         _______ _______ _______ _____ _____    ______ ____

>  <TORSDO>
F 8

$$$$
=
 OpenBabel10232412393D

 37 41  0  0  1  0  0  0  0  0999 V2000
  184.0720  178.7850  144.9680 C   0  0  0  0  0  2  0  0  0  0  0  0
  187.3000  178.3010  141.4660 C   0  0  1  0  0  3  0  0  0  0  0  0
  185.5870  178.9120  142.9980 C   0  0  0  0  0  0  0  0  0  0  0  0
  187.4530  177.6510  142.7630 N   0  0  0  0  0  0  0  0  0  0  0  0
  186.0730  179.2150  141.6170 C   0  0  2  0  0  3  0  0  0  0  0  0
  185.2840  178.4860  145.7370 N   0  0  0  0  0  2  0  0  0  0  0  0
  184.4270  179.5630  143.6930 C   0  0  0  0  0  2  0  0  0  0  0  0
  186.1130  177.5390  144.9820 C   0  0  0  0  0  2  0  0  0  0  0  0
  186.3970  178.0720  143.6060 C   0  0  0  0  0  0  0  0  0  0  0  0
  183.8280  178.9730  138.8880 O   0  0  0  0  0  0  0  0  0  0  0  0
  185.0440  178.8640  140.5900 C   0  0  0  0  0  0  0  0  0  0  0  0
  184.7970  179.5950  139.4850 N   0  0  0  0  0  0  0  0  0  0  0  0
  183.4870  177.9170  139.5840 C   0  0  0  0  0  0  0  0  0  0  0  0
  184.2340  177.7920  140.6980 N   0  0  0  0  0  0  0  0  0  0  0  0
  180.9990  175.2280  138.4030 C   0  0  0  0  0  0  0  0  0  0  0  0
  182.4230  176.9880  139.2050 C   0  0  0  0  0  0  0  0  0  0  0  0
  181.1160  177.1880  139.4860 N   0  0  0  0  0  0  0  0  0  0  0  0
  182.6540  175.5450  138.3660 S   0  0  0  0  0  0  0  0  0  0  0  0
  180.3270  176.2120  139.0410 N   0  0  0  0  0  0  0  0  0  0  0  0
  180.1520  173.9610  136.4540 O   0  0  0  0  0  0  0  0  0  0  0  0
  179.9820  173.1010  138.5690 O   0  0  0  0  0  1  0  0  0  0  0  0
  180.3550  174.0470  137.8250 C   0  0  0  0  0  0  0  0  0  0  0  0
  188.2300  176.4380  142.9750 C   0  0  0  0  0  2  0  0  0  0  0  0
  190.7050  175.6170  143.0900 C   0  0  0  0  0  1  0  0  0  0  0  0
  189.6810  176.8020  144.0050 S   0  0  0  0  0  0  0  0  0  0  0  0
  188.5260  179.1420  141.1380 C   0  0  0  0  0  2  0  0  0  0  0  0
  186.2100  176.2560  136.7310 C   0  0  0  0  0  0  0  0  0  0  0  0
  189.6660  177.4050  139.7830 C   0  0  0  0  0  0  0  0  0  0  0  0
  190.9850  177.2450  139.7420 C   0  0  0  0  0  2  0  0  0  0  0  0
  188.0170  178.7560  138.7900 N   0  0  0  0  0  0  0  0  0  0  0  0
  189.0890  178.7820  139.7700 C   0  0  1  0  0  3  0  0  0  0  0  0
  186.6940  175.1370  137.0460 O   0  0  0  0  0  0  0  0  0  0  0  0
  187.6970  177.5890  138.3360 C   0  0  0  0  0  0  0  0  0  0  0  0
  186.6790  177.4670  137.3350 N   0  0  0  0  0  2  0  0  0  0  0  0
  188.6020  176.1960  139.0130 S   0  0  0  0  0  0  0  0  0  0  0  0
  185.5150  177.3660  134.6510 C   0  0  0  0  0  1  0  0  0  0  0  0
  185.1500  176.3250  135.6910 C   0  0  0  0  0  2  0  0  0  0  0  0
  1  6  1  0  0  0  0
  2 26  1  1  0  0  0
  2  5  1  0  0  0  0
  2  4  1  0  0  0  0
  3  9  2  0  0  0  0
  3  7  1  0  0  0  0
  4 23  1  0  0  0  0
  4  9  1  0  0  0  0
  5 11  1  6  0  0  0
  5  3  1  0  0  0  0
  7  1  1  0  0  0  0
  8  6  1  0  0  0  0
  9  8  1  0  0  0  0
 10 12  1  0  0  0  0
 10 13  1  0  0  0  0
 11 14  1  0  0  0  0
 12 11  2  0  0  0  0
 13 14  2  0  0  0  0
 15 19  2  0  0  0  0
 16 17  2  0  0  0  0
 16 13  1  0  0  0  0
 18 15  1  0  0  0  0
 18 16  1  0  0  0  0
 19 17  1  0  0  0  0
 20 22  2  0  0  0  0
 22 15  1  0  0  0  0
 22 21  1  0  0  0  0
 23 25  1  0  0  0  0
 24 25  1  0  0  0  0
 27 32  2  0  0  0  0
 27 34  1  0  0  0  0
 29 28  2  0  0  0  0
 30 31  1  0  0  0  0
 31 28  1  0  0  0  0
 31 26  1  1  0  0  0
 33 30  2  0  0  0  0
 33 35  1  0  0  0  0
 34 33  1  0  0  0  0
 35 28  1  0  0  0  0
 36 37  1  0  0  0  0
 37 27  1  0  0  0  0
M  END
>  <MODEL>
5

>  <REMARK>
 VINA RESULT:      -5.9      3.134      8.358
  Name = 
  8 active torsions:
  status: ('A' for Active; 'I' for Inactive)
    1  A    between atoms: C_1  and  C_10
    2  A    between atoms: C_6  and  C_32
    3  A    between atoms: C_11  and  C_24
    4  A    between atoms: C_12  and  C_31
    5  A    between atoms: C_13  and  C_35
    6  A    between atoms: C_17  and  C_35
    7  A    between atoms: N_23  and  C_28
    8  A    between atoms: C_28  and  S_37
                            x       y       z     vdW  Elec       q    Type
                         _______ _______ _______ _____ _____    ______ ____

>  <TORSDO>
F 8

$$$$
=
 OpenBabel10232412393D

 37 41  0  0  1  0  0  0  0  0999 V2000
  193.5410  175.5390  138.4600 C   0  0  0  0  0  2  0  0  0  0  0  0
  189.2970  176.0360  136.3000 C   0  0  1  0  0  3  0  0  0  0  0  0
  191.4350  176.2250  137.3250 C   0  0  0  0  0  0  0  0  0  0  0  0
  190.0310  174.7750  136.2980 N   0  0  0  0  0  0  0  0  0  0  0  0
  190.2560  177.0570  136.9360 C   0  0  2  0  0  3  0  0  0  0  0  0
  193.6190  174.4940  137.4350 N   0  0  0  0  0  2  0  0  0  0  0  0
  192.7030  176.7220  137.9540 C   0  0  0  0  0  2  0  0  0  0  0  0
  192.2870  173.9080  137.2410 C   0  0  0  0  0  2  0  0  0  0  0  0
  191.2840  174.9810  136.9230 C   0  0  0  0  0  0  0  0  0  0  0  0
  188.5890  179.0540  139.3410 O   0  0  0  0  0  0  0  0  0  0  0  0
  189.6140  177.6820  138.1330 C   0  0  0  0  0  0  0  0  0  0  0  0
  188.9600  178.8600  138.1130 N   0  0  0  0  0  0  0  0  0  0  0  0
  188.9960  178.0550  140.0850 C   0  0  0  0  0  0  0  0  0  0  0  0
  189.6670  177.1360  139.3650 N   0  0  0  0  0  0  0  0  0  0  0  0
  188.7980  177.7610  143.9190 C   0  0  0  0  0  0  0  0  0  0  0  0
  188.7560  177.9490  141.5260 C   0  0  0  0  0  0  0  0  0  0  0  0
  187.5250  177.9260  142.0810 N   0  0  0  0  0  0  0  0  0  0  0  0
  189.9590  177.8370  142.6990 S   0  0  0  0  0  0  0  0  0  0  0  0
  187.5480  177.8220  143.4090 N   0  0  0  0  0  0  0  0  0  0  0  0
  190.1210  176.8290  145.7910 O   0  0  0  0  0  0  0  0  0  0  0  0
  188.3980  178.2830  146.1890 O   0  0  0  0  0  1  0  0  0  0  0  0
  189.0870  177.6440  145.3500 C   0  0  0  0  0  0  0  0  0  0  0  0
  189.4000  173.4710  136.1480 C   0  0  0  0  0  2  0  0  0  0  0  0
  188.7980  171.2940  134.8400 C   0  0  0  0  0  1  0  0  0  0  0  0
  189.7170  172.8160  134.4830 S   0  0  0  0  0  0  0  0  0  0  0  0
  188.9650  176.4660  134.8770 C   0  0  0  0  0  2  0  0  0  0  0  0
  184.8720  178.3260  138.4700 C   0  0  0  0  0  0  0  0  0  0  0  0
  186.7380  175.4230  135.2040 C   0  0  0  0  0  0  0  0  0  0  0  0
  186.1870  174.5700  134.3460 C   0  0  0  0  0  2  0  0  0  0  0  0
  186.9840  177.7460  135.4760 N   0  0  0  0  0  0  0  0  0  0  0  0
  187.4620  176.6230  134.6890 C   0  0  1  0  0  3  0  0  0  0  0  0
  184.5380  177.1840  138.8820 O   0  0  0  0  0  0  0  0  0  0  0  0
  186.2510  177.4460  136.4980 C   0  0  0  0  0  0  0  0  0  0  0  0
  185.6990  178.4890  137.3110 N   0  0  0  0  0  2  0  0  0  0  0  0
  185.9750  175.6990  136.7940 S   0  0  0  0  0  0  0  0  0  0  0  0
  182.8870  179.6970  138.9430 C   0  0  0  0  0  1  0  0  0  0  0  0
  184.3750  179.5330  139.1830 C   0  0  0  0  0  2  0  0  0  0  0  0
  2 26  1  6  0  0  0
  2  5  1  0  0  0  0
  3  7  1  0  0  0  0
  4  2  1  0  0  0  0
  4  9  1  0  0  0  0
  5  3  1  0  0  0  0
  5 11  1  1  0  0  0
  6  1  1  0  0  0  0
  7  1  1  0  0  0  0
  8  6  1  0  0  0  0
  9  8  1  0  0  0  0
  9  3  2  0  0  0  0
 10 13  1  0  0  0  0
 11 14  1  0  0  0  0
 12 11  2  0  0  0  0
 12 10  1  0  0  0  0
 13 16  1  0  0  0  0
 14 13  2  0  0  0  0
 15 22  1  0  0  0  0
 16 17  2  0  0  0  0
 16 18  1  0  0  0  0
 17 19  1  0  0  0  0
 18 15  1  0  0  0  0
 19 15  2  0  0  0  0
 22 20  2  0  0  0  0
 22 21  1  0  0  0  0
 23  4  1  0  0  0  0
 25 24  1  0  0  0  0
 25 23  1  0  0  0  0
 27 32  2  0  0  0  0
 27 37  1  0  0  0  0
 28 35  1  0  0  0  0
 29 28  2  0  0  0  0
 30 33  2  0  0  0  0
 31 26  1  1  0  0  0
 31 28  1  0  0  0  0
 31 30  1  0  0  0  0
 33 35  1  0  0  0  0
 33 34  1  0  0  0  0
 34 27  1  0  0  0  0
 36 37  1  0  0  0  0
M  END
>  <MODEL>
6

>  <REMARK>
 VINA RESULT:      -5.8      3.356      5.883
  Name = 
  8 active torsions:
  status: ('A' for Active; 'I' for Inactive)
    1  A    between atoms: C_1  and  C_10
    2  A    between atoms: C_6  and  C_32
    3  A    between atoms: C_11  and  C_24
    4  A    between atoms: C_12  and  C_31
    5  A    between atoms: C_13  and  C_35
    6  A    between atoms: C_17  and  C_35
    7  A    between atoms: N_23  and  C_28
    8  A    between atoms: C_28  and  S_37
                            x       y       z     vdW  Elec       q    Type
                         _______ _______ _______ _____ _____    ______ ____

>  <TORSDO>
F 8

$$$$
=
 OpenBabel10232412393D

 37 41  0  0  1  0  0  0  0  0999 V2000
  190.3820  176.3080  135.4110 C   0  0  0  0  0  2  0  0  0  0  0  0
  185.7480  176.5670  136.5860 C   0  0  1  0  0  3  0  0  0  0  0  0
  188.0460  176.8740  136.0550 C   0  0  0  0  0  0  0  0  0  0  0  0
  186.2970  175.4560  135.8160 N   0  0  0  0  0  0  0  0  0  0  0  0
  186.9010  177.5780  136.7080 C   0  0  2  0  0  3  0  0  0  0  0  0
  189.7720  175.5050  134.3460 N   0  0  0  0  0  2  0  0  0  0  0  0
  189.4260  177.4260  135.8500 C   0  0  0  0  0  2  0  0  0  0  0  0
  188.6220  174.7740  134.8910 C   0  0  0  0  0  2  0  0  0  0  0  0
  187.6600  175.7240  135.5460 C   0  0  0  0  0  0  0  0  0  0  0  0
  187.0330  178.6560  140.0810 O   0  0  0  0  0  0  0  0  0  0  0  0
  187.1850  177.8560  138.1500 C   0  0  0  0  0  0  0  0  0  0  0  0
  186.4360  178.6610  138.9290 N   0  0  0  0  0  0  0  0  0  0  0  0
  188.0970  177.8940  140.0210 C   0  0  0  0  0  0  0  0  0  0  0  0
  188.2530  177.3490  138.7990 N   0  0  0  0  0  0  0  0  0  0  0  0
  190.1550  177.3580  143.2300 C   0  0  0  0  0  0  0  0  0  0  0  0
  189.0090  177.6640  141.1420 C   0  0  0  0  0  0  0  0  0  0  0  0
  190.3240  177.3910  140.9940 N   0  0  0  0  0  0  0  0  0  0  0  0
  188.5720  177.7070  142.7680 S   0  0  0  0  0  0  0  0  0  0  0  0
  190.9600  177.2210  142.1530 N   0  0  0  0  0  0  0  0  0  0  0  0
  191.6800  176.3760  144.9130 O   0  0  0  0  0  0  0  0  0  0  0  0
  190.0520  177.8600  145.5370 O   0  0  0  0  0  1  0  0  0  0  0  0
  190.6170  177.2180  144.6120 C   0  0  0  0  0  0  0  0  0  0  0  0
  185.7050  174.1260  135.7800 C   0  0  0  0  0  2  0  0  0  0  0  0
  184.7980  171.9890  136.9740 C   0  0  0  0  0  1  0  0  0  0  0  0
  186.0540  173.2480  137.3310 S   0  0  0  0  0  0  0  0  0  0  0  0
  184.5820  177.2100  135.8460 C   0  0  0  0  0  2  0  0  0  0  0  0
  180.9800  180.2120  139.1820 C   0  0  0  0  0  0  0  0  0  0  0  0
  183.4520  176.3660  137.8860 C   0  0  0  0  0  0  0  0  0  0  0  0
  183.3180  175.0760  138.1790 C   0  0  0  0  0  2  0  0  0  0  0  0
  182.3950  177.9980  136.5640 N   0  0  0  0  0  0  0  0  0  0  0  0
  183.2520  176.8290  136.4810 C   0  0  1  0  0  3  0  0  0  0  0  0
  181.4380  179.7880  140.2750 O   0  0  0  0  0  0  0  0  0  0  0  0
  182.1830  178.4580  137.7530 C   0  0  0  0  0  0  0  0  0  0  0  0
  181.3170  179.5850  137.9390 N   0  0  0  0  0  2  0  0  0  0  0  0
  183.0060  177.6010  139.0960 S   0  0  0  0  0  0  0  0  0  0  0  0
  180.3410  182.2700  138.0000 C   0  0  0  0  0  1  0  0  0  0  0  0
  180.0460  181.3690  139.1830 C   0  0  0  0  0  2  0  0  0  0  0  0
  1  7  1  0  0  0  0
  2 26  1  6  0  0  0
  2  5  1  0  0  0  0
  3  5  1  0  0  0  0
  4  2  1  0  0  0  0
  5 11  1  1  0  0  0
  6  8  1  0  0  0  0
  6  1  1  0  0  0  0
  7  3  1  0  0  0  0
  8  9  1  0  0  0  0
  9  4  1  0  0  0  0
  9  3  2  0  0  0  0
 11 14  1  0  0  0  0
 11 12  2  0  0  0  0
 12 10  1  0  0  0  0
 13 10  1  0  0  0  0
 13 16  1  0  0  0  0
 14 13  2  0  0  0  0
 15 22  1  0  0  0  0
 16 18  1  0  0  0  0
 17 16  2  0  0  0  0
 17 19  1  0  0  0  0
 18 15  1  0  0  0  0
 19 15  2  0  0  0  0
 22 20  2  0  0  0  0
 22 21  1  0  0  0  0
 23  4  1  0  0  0  0
 23 25  1  0  0  0  0
 24 25  1  0  0  0  0
 27 37  1  0  0  0  0
 27 32  2  0  0  0  0
 28 29  2  0  0  0  0
 28 35  1  0  0  0  0
 30 33  2  0  0  0  0
 31 26  1  1  0  0  0
 31 30  1  0  0  0  0
 31 28  1  0  0  0  0
 33 34  1  0  0  0  0
 33 35  1  0  0  0  0
 34 27  1  0  0  0  0
 36 37  1  0  0  0  0
M  END
>  <MODEL>
7

>  <REMARK>
 VINA RESULT:      -5.8      2.371      3.982
  Name = 
  8 active torsions:
  status: ('A' for Active; 'I' for Inactive)
    1  A    between atoms: C_1  and  C_10
    2  A    between atoms: C_6  and  C_32
    3  A    between atoms: C_11  and  C_24
    4  A    between atoms: C_12  and  C_31
    5  A    between atoms: C_13  and  C_35
    6  A    between atoms: C_17  and  C_35
    7  A    between atoms: N_23  and  C_28
    8  A    between atoms: C_28  and  S_37
                            x       y       z     vdW  Elec       q    Type
                         _______ _______ _______ _____ _____    ______ ____

>  <TORSDO>
F 8

$$$$
=
 OpenBabel10232412393D

 37 41  0  0  1  0  0  0  0  0999 V2000
  187.9520  177.6570  146.0970 C   0  0  0  0  0  2  0  0  0  0  0  0
  185.1770  178.3160  142.2510 C   0  0  1  0  0  3  0  0  0  0  0  0
  186.6980  177.6330  143.9470 C   0  0  0  0  0  0  0  0  0  0  0  0
  184.8510  178.8830  143.5560 N   0  0  0  0  0  0  0  0  0  0  0  0
  186.3940  177.4090  142.5010 C   0  0  2  0  0  3  0  0  0  0  0  0
  186.6480  177.8930  146.7230 N   0  0  0  0  0  2  0  0  0  0  0  0
  187.7750  176.9550  144.7430 C   0  0  0  0  0  2  0  0  0  0  0  0
  185.9010  178.8750  145.9280 C   0  0  0  0  0  2  0  0  0  0  0  0
  185.8020  178.4240  144.4980 C   0  0  0  0  0  0  0  0  0  0  0  0
  188.7050  178.9680  140.3150 O   0  0  0  0  0  0  0  0  0  0  0  0
  187.5350  177.8360  141.6350 C   0  0  0  0  0  0  0  0  0  0  0  0
  187.5770  179.0000  140.9560 N   0  0  0  0  0  0  0  0  0  0  0  0
  189.3270  177.8450  140.5750 C   0  0  0  0  0  0  0  0  0  0  0  0
  188.6230  177.0680  141.4210 N   0  0  0  0  0  0  0  0  0  0  0  0
  192.5290  176.7160  138.7600 C   0  0  0  0  0  0  0  0  0  0  0  0
  190.6280  177.4750  140.0160 C   0  0  0  0  0  0  0  0  0  0  0  0
  191.8040  177.6860  140.6470 N   0  0  0  0  0  0  0  0  0  0  0  0
  190.8600  176.7330  138.5220 S   0  0  0  0  0  0  0  0  0  0  0  0
  192.8580  177.2660  139.9500 N   0  0  0  0  0  0  0  0  0  0  0  0
  193.9130  174.8550  137.8990 O   0  0  0  0  0  1  0  0  0  0  0  0
  193.9910  176.9210  136.9140 O   0  0  0  0  0  0  0  0  0  0  0  0
  193.5090  176.1810  137.8130 C   0  0  0  0  0  0  0  0  0  0  0  0
  184.0290  180.0710  143.7400 C   0  0  0  0  0  2  0  0  0  0  0  0
  181.6220  179.4890  142.9150 C   0  0  0  0  0  1  0  0  0  0  0  0
  182.4530  179.6210  144.5220 S   0  0  0  0  0  0  0  0  0  0  0  0
  184.0190  177.4820  141.7220 C   0  0  0  0  0  2  0  0  0  0  0  0
  181.2740  181.2200  138.3150 C   0  0  0  0  0  0  0  0  0  0  0  0
  182.6840  176.9030  139.7130 C   0  0  0  0  0  0  0  0  0  0  0  0
  182.7740  175.7410  139.0740 C   0  0  0  0  0  2  0  0  0  0  0  0
  183.8140  178.9630  139.8030 N   0  0  0  0  0  0  0  0  0  0  0  0
  183.9250  177.5720  140.2050 C   0  0  1  0  0  3  0  0  0  0  0  0
  180.2340  180.5230  138.1760 O   0  0  0  0  0  0  0  0  0  0  0  0
  182.6670  179.3230  139.3270 C   0  0  0  0  0  0  0  0  0  0  0  0
  182.4750  180.6660  138.8660 N   0  0  0  0  0  2  0  0  0  0  0  0
  181.3960  178.0590  139.2750 S   0  0  0  0  0  0  0  0  0  0  0  0
  180.0790  182.8870  136.9610 C   0  0  0  0  0  1  0  0  0  0  0  0
  181.2650  182.6390  137.8720 C   0  0  0  0  0  2  0  0  0  0  0  0
  1  6  1  0  0  0  0
  2 26  1  1  0  0  0
  2  5  1  0  0  0  0
  2  4  1  0  0  0  0
  3  9  2  0  0  0  0
  3  7  1  0  0  0  0
  4 23  1  0  0  0  0
  4  9  1  0  0  0  0
  5 11  1  6  0  0  0
  5  3  1  0  0  0  0
  7  1  1  0  0  0  0
  8  6  1  0  0  0  0
  9  8  1  0  0  0  0
 10 13  1  0  0  0  0
 10 12  1  0  0  0  0
 12 11  2  0  0  0  0
 13 14  2  0  0  0  0
 14 11  1  0  0  0  0
 15 19  2  0  0  0  0
 16 13  1  0  0  0  0
 16 17  2  0  0  0  0
 18 15  1  0  0  0  0
 18 16  1  0  0  0  0
 19 17  1  0  0  0  0
 21 22  2  0  0  0  0
 22 20  1  0  0  0  0
 22 15  1  0  0  0  0
 23 25  1  0  0  0  0
 24 25  1  0  0  0  0
 27 34  1  0  0  0  0
 28 31  1  0  0  0  0
 29 28  2  0  0  0  0
 30 31  1  0  0  0  0
 31 26  1  1  0  0  0
 32 27  2  0  0  0  0
 33 30  2  0  0  0  0
 34 33  1  0  0  0  0
 35 33  1  0  0  0  0
 35 28  1  0  0  0  0
 36 37  1  0  0  0  0
 37 27  1  0  0  0  0
M  END
>  <MODEL>
8

>  <REMARK>
 VINA RESULT:      -5.7      3.136      6.269
  Name = 
  8 active torsions:
  status: ('A' for Active; 'I' for Inactive)
    1  A    between atoms: C_1  and  C_10
    2  A    between atoms: C_6  and  C_32
    3  A    between atoms: C_11  and  C_24
    4  A    between atoms: C_12  and  C_31
    5  A    between atoms: C_13  and  C_35
    6  A    between atoms: C_17  and  C_35
    7  A    between atoms: N_23  and  C_28
    8  A    between atoms: C_28  and  S_37
                            x       y       z     vdW  Elec       q    Type
                         _______ _______ _______ _____ _____    ______ ____

>  <TORSDO>
F 8

$$$$
=
 OpenBabel10232412393D

 37 41  0  0  1  0  0  0  0  0999 V2000
  184.8980  178.5860  145.4510 C   0  0  0  0  0  2  0  0  0  0  0  0
  187.3620  178.2200  141.3620 C   0  0  1  0  0  3  0  0  0  0  0  0
  185.9890  178.7780  143.2220 C   0  0  0  0  0  0  0  0  0  0  0  0
  187.7700  177.5340  142.5840 N   0  0  0  0  0  0  0  0  0  0  0  0
  186.1910  179.1230  141.7820 C   0  0  2  0  0  3  0  0  0  0  0  0
  186.2390  178.2710  145.9530 N   0  0  0  0  0  2  0  0  0  0  0  0
  184.9920  179.4020  144.1540 C   0  0  0  0  0  2  0  0  0  0  0  0
  186.9000  177.3500  145.0210 C   0  0  0  0  0  2  0  0  0  0  0  0
  186.9040  177.9250  143.6320 C   0  0  0  0  0  0  0  0  0  0  0  0
  183.3350  177.7500  140.1990 O   0  0  0  0  0  0  0  0  0  0  0  0
  184.9770  178.7960  140.9710 C   0  0  0  0  0  0  0  0  0  0  0  0
  184.2740  177.6520  141.0880 N   0  0  0  0  0  0  0  0  0  0  0  0
  183.4500  178.8880  139.5600 C   0  0  0  0  0  0  0  0  0  0  0  0
  184.4940  179.6100  140.0110 N   0  0  0  0  0  0  0  0  0  0  0  0
  181.1830  179.6510  136.5440 C   0  0  0  0  0  0  0  0  0  0  0  0
  182.5580  179.3250  138.4850 C   0  0  0  0  0  0  0  0  0  0  0  0
  181.9460  180.5290  138.4610 N   0  0  0  0  0  0  0  0  0  0  0  0
  182.1620  178.4100  137.1270 S   0  0  0  0  0  0  0  0  0  0  0  0
  181.1830  180.7100  137.3840 N   0  0  0  0  0  0  0  0  0  0  0  0
  180.1810  178.3910  134.6640 O   0  0  0  0  0  0  0  0  0  0  0  0
  179.9830  180.6700  134.7810 O   0  0  0  0  0  1  0  0  0  0  0  0
  180.4220  179.6060  135.2930 C   0  0  0  0  0  0  0  0  0  0  0  0
  188.5730  176.3190  142.6000 C   0  0  0  0  0  2  0  0  0  0  0  0
  191.0670  177.0700  142.4250 C   0  0  0  0  0  1  0  0  0  0  0  0
  189.9650  176.5100  143.7520 S   0  0  0  0  0  0  0  0  0  0  0  0
  188.4990  179.0770  140.8210 C   0  0  0  0  0  2  0  0  0  0  0  0
  185.7340  175.6580  137.1090 C   0  0  0  0  0  0  0  0  0  0  0  0
  189.5670  177.5600  139.1750 C   0  0  0  0  0  0  0  0  0  0  0  0
  190.8340  177.6630  138.7870 C   0  0  0  0  0  2  0  0  0  0  0  0
  187.4820  178.5270  138.6810 N   0  0  0  0  0  0  0  0  0  0  0  0
  188.7450  178.7940  139.3460 C   0  0  1  0  0  3  0  0  0  0  0  0
  186.4960  174.6670  137.2590 O   0  0  0  0  0  0  0  0  0  0  0  0
  187.2930  177.3070  138.2990 C   0  0  0  0  0  0  0  0  0  0  0  0
  186.0940  176.9560  137.5970 N   0  0  0  0  0  2  0  0  0  0  0  0
  188.6010  176.1420  138.6830 S   0  0  0  0  0  0  0  0  0  0  0  0
  183.4440  174.7810  137.2770 C   0  0  0  0  0  1  0  0  0  0  0  0
  184.4470  175.4840  136.3840 C   0  0  0  0  0  2  0  0  0  0  0  0
  1  6  1  0  0  0  0
  2 26  1  1  0  0  0
  2  5  1  0  0  0  0
  2  4  1  0  0  0  0
  3  9  2  0  0  0  0
  3  7  1  0  0  0  0
  4 23  1  0  0  0  0
  4  9  1  0  0  0  0
  5 11  1  6  0  0  0
  5  3  1  0  0  0  0
  7  1  1  0  0  0  0
  8  6  1  0  0  0  0
  9  8  1  0  0  0  0
 10 12  1  0  0  0  0
 11 12  2  0  0  0  0
 13 14  2  0  0  0  0
 13 10  1  0  0  0  0
 14 11  1  0  0  0  0
 15 18  1  0  0  0  0
 15 19  2  0  0  0  0
 16 13  1  0  0  0  0
 17 16  2  0  0  0  0
 18 16  1  0  0  0  0
 19 17  1  0  0  0  0
 20 22  2  0  0  0  0
 21 22  1  0  0  0  0
 22 15  1  0  0  0  0
 23 25  1  0  0  0  0
 24 25  1  0  0  0  0
 27 32  2  0  0  0  0
 27 34  1  0  0  0  0
 28 31  1  0  0  0  0
 29 28  2  0  0  0  0
 30 31  1  0  0  0  0
 31 26  1  1  0  0  0
 33 30  2  0  0  0  0
 33 35  1  0  0  0  0
 34 33  1  0  0  0  0
 35 28  1  0  0  0  0
 37 27  1  0  0  0  0
 37 36  1  0  0  0  0
M  END
>  <MODEL>
9

>  <REMARK>
 VINA RESULT:      -5.3      3.114      8.534
  Name = 
  8 active torsions:
  status: ('A' for Active; 'I' for Inactive)
    1  A    between atoms: C_1  and  C_10
    2  A    between atoms: C_6  and  C_32
    3  A    between atoms: C_11  and  C_24
    4  A    between atoms: C_12  and  C_31
    5  A    between atoms: C_13  and  C_35
    6  A    between atoms: C_17  and  C_35
    7  A    between atoms: N_23  and  C_28
    8  A    between atoms: C_28  and  S_37
                            x       y       z     vdW  Elec       q    Type
                         _______ _______ _______ _____ _____    ______ ____

>  <TORSDO>
F 8

$$$$
