=
 OpenBabel10232407533D

 26 30  0  0  1  0  0  0  0  0999 V2000
  188.6380  177.1400  146.1740 C   0  0  0  0  0  2  0  0  0  0  0  0
  190.8470  177.2210  144.9100 C   0  0  0  0  0  0  0  0  0  0  0  0
  191.4430  176.8680  146.0120 N   0  0  0  0  0  0  0  0  0  0  0  0
  189.4890  177.0520  147.4010 C   0  0  0  0  0  3  0  0  0  0  0  0
  191.6490  177.3050  143.7230 N   0  0  0  0  0  2  0  0  0  0  0  0
  189.4000  177.7060  144.9540 C   0  0  1  0  0  3  0  0  0  0  0  0
  190.8020  176.8720  147.2940 C   0  0  0  0  0  3  0  0  0  0  0  0
  188.0080  176.2980  143.4790 C   0  0  0  0  0  2  0  0  0  0  0  0
  187.1810  177.5030  143.8000 N   0  0  0  0  0  0  0  0  0  0  0  0
  188.6610  177.5100  143.6070 C   0  0  1  0  0  3  0  0  0  0  0  0
  184.3370  179.1160  145.5290 N   0  0  0  0  0  0  0  0  0  0  0  0
  185.7950  178.8610  145.4270 C   0  0  2  0  0  3  0  0  0  0  0  0
  184.9590  178.1530  143.1600 C   0  0  0  0  0  3  0  0  0  0  0  0
  185.9480  178.1490  144.0950 C   0  0  0  0  0  0  0  0  0  0  0  0
  183.2950  179.2570  144.5910 C   0  0  0  0  0  3  0  0  0  0  0  0
  183.6110  178.7700  143.3870 C   0  0  0  0  0  3  0  0  0  0  0  0
  185.1020  178.1380  146.3620 C   0  0  0  0  0  2  0  0  0  0  0  0
  191.3210  178.0870  142.5400 C   0  0  0  0  0  2  0  0  0  0  0  0
  191.7210  177.3630  141.3460 N   0  0  0  0  0  2  0  0  0  0  0  0
  190.5110  176.8020  140.7710 C   0  0  0  0  0  2  0  0  0  0  0  0
  188.9050  178.4910  139.8830 C   0  0  0  0  0  2  0  0  0  0  0  0
  190.1040  177.6000  139.5450 C   0  0  2  0  0  3  0  0  0  0  0  0
  187.9050  177.9600  138.9350 C   0  0  0  0  0  0  0  0  0  0  0  0
  186.7230  178.3810  138.8240 O   0  0  0  0  0  0  0  0  0  0  0  0
  189.6320  176.6970  138.4940 N   0  0  0  0  0  0  0  0  0  0  0  0
  188.4260  176.9040  138.1630 N   0  0  0  0  0  0  0  0  0  0  0  0
  1  4  1  0  0  0  0
  2  6  1  0  0  0  0
  2  3  2  0  0  0  0
  3  7  1  0  0  0  0
  5  2  1  0  0  0  0
  6  1  1  1  0  0  0
  7  4  2  0  0  0  0
  8  9  1  0  0  0  0
  9 14  1  0  0  0  0
 10  8  1  1  0  0  0
 10  9  1  0  0  0  0
 10  6  1  0  0  0  0
 11 17  1  0  0  0  0
 12 11  1  0  0  0  0
 12 17  1  1  0  0  0
 13 16  1  0  0  0  0
 13 14  2  0  0  0  0
 14 12  1  0  0  0  0
 15 11  1  0  0  0  0
 16 15  2  0  0  0  0
 18  5  1  0  0  0  0
 19 18  1  0  0  0  0
 20 19  1  0  0  0  0
 22 21  1  0  0  0  0
 22 20  1  1  0  0  0
 23 21  1  0  0  0  0
 24 23  2  0  0  0  0
 25 22  1  0  0  0  0
 26 25  2  0  0  0  0
 26 23  1  0  0  0  0
M  END
>  <MODEL>
1

>  <REMARK>
 VINA RESULT:      -8.8      0.000      0.000
  Name = 
  6 active torsions:
  status: ('A' for Active; 'I' for Inactive)
    1  A    between atoms: C_3  and  C_26
    2  A    between atoms: C_10  and  N_20
    3  A    between atoms: N_15  and  C_17
    4  A    between atoms: C_17  and  N_18
    5  A    between atoms: N_18  and  C_26
    6  A    between atoms: C_21  and  C_22
                            x       y       z     vdW  Elec       q    Type
                         _______ _______ _______ _____ _____    ______ ____

>  <TORSDO>
F 6

$$$$
=
 OpenBabel10232407533D

 26 30  0  0  1  0  0  0  0  0999 V2000
  188.5880  177.3150  146.2510 C   0  0  0  0  0  2  0  0  0  0  0  0
  190.8140  177.0960  145.0350 C   0  0  0  0  0  0  0  0  0  0  0  0
  191.3650  176.8170  146.1810 N   0  0  0  0  0  0  0  0  0  0  0  0
  189.4110  177.2910  147.4990 C   0  0  0  0  0  3  0  0  0  0  0  0
  191.6380  176.9950  143.8640 N   0  0  0  0  0  2  0  0  0  0  0  0
  189.4090  177.6920  144.9960 C   0  0  1  0  0  3  0  0  0  0  0  0
  190.7080  177.0030  147.4410 C   0  0  0  0  0  3  0  0  0  0  0  0
  188.0050  176.2040  143.6120 C   0  0  0  0  0  2  0  0  0  0  0  0
  187.1950  177.4410  143.8410 N   0  0  0  0  0  0  0  0  0  0  0  0
  188.6770  177.4120  143.6610 C   0  0  1  0  0  3  0  0  0  0  0  0
  184.3350  179.1580  145.4380 N   0  0  0  0  0  0  0  0  0  0  0  0
  185.7880  178.8620  145.3940 C   0  0  2  0  0  3  0  0  0  0  0  0
  185.0170  178.1380  143.1100 C   0  0  0  0  0  3  0  0  0  0  0  0
  185.9710  178.1240  144.0800 C   0  0  0  0  0  0  0  0  0  0  0  0
  183.3320  179.3110  144.4600 C   0  0  0  0  0  3  0  0  0  0  0  0
  183.6780  178.7950  143.2770 C   0  0  0  0  0  3  0  0  0  0  0  0
  185.0420  178.1740  146.3140 C   0  0  0  0  0  2  0  0  0  0  0  0
  191.3890  177.6720  142.6000 C   0  0  0  0  0  2  0  0  0  0  0  0
  191.1040  176.6920  141.5660 N   0  0  0  0  0  2  0  0  0  0  0  0
  191.1710  177.3910  140.2950 C   0  0  0  0  0  2  0  0  0  0  0  0
  190.0520  177.7360  138.0930 C   0  0  0  0  0  2  0  0  0  0  0  0
  189.9190  177.1070  139.4840 C   0  0  2  0  0  3  0  0  0  0  0  0
  188.9100  178.6720  138.1150 C   0  0  0  0  0  0  0  0  0  0  0  0
  188.5890  179.4380  137.1690 O   0  0  0  0  0  0  0  0  0  0  0  0
  188.7650  177.7650  140.0970 N   0  0  0  0  0  0  0  0  0  0  0  0
  188.2150  178.6190  139.3390 N   0  0  0  0  0  0  0  0  0  0  0  0
  1  4  1  0  0  0  0
  2  3  2  0  0  0  0
  3  7  1  0  0  0  0
  5  2  1  0  0  0  0
  6  2  1  0  0  0  0
  6  1  1  1  0  0  0
  7  4  2  0  0  0  0
  8  9  1  0  0  0  0
  9 14  1  0  0  0  0
 10  8  1  1  0  0  0
 10  9  1  0  0  0  0
 10  6  1  0  0  0  0
 11 17  1  0  0  0  0
 12 11  1  0  0  0  0
 12 17  1  1  0  0  0
 13 16  1  0  0  0  0
 13 14  2  0  0  0  0
 14 12  1  0  0  0  0
 15 11  1  0  0  0  0
 16 15  2  0  0  0  0
 18  5  1  0  0  0  0
 19 18  1  0  0  0  0
 20 19  1  0  0  0  0
 21 23  1  0  0  0  0
 21 22  1  0  0  0  0
 22 25  1  0  0  0  0
 22 20  1  1  0  0  0
 23 26  1  0  0  0  0
 24 23  2  0  0  0  0
 26 25  2  0  0  0  0
M  END
>  <MODEL>
2

>  <REMARK>
 VINA RESULT:      -8.7      0.966      1.005
  Name = 
  6 active torsions:
  status: ('A' for Active; 'I' for Inactive)
    1  A    between atoms: C_3  and  C_26
    2  A    between atoms: C_10  and  N_20
    3  A    between atoms: N_15  and  C_17
    4  A    between atoms: C_17  and  N_18
    5  A    between atoms: N_18  and  C_26
    6  A    between atoms: C_21  and  C_22
                            x       y       z     vdW  Elec       q    Type
                         _______ _______ _______ _____ _____    ______ ____

>  <TORSDO>
F 6

$$$$
=
 OpenBabel10232407533D

 26 30  0  0  1  0  0  0  0  0999 V2000
  188.6930  177.1180  146.1540 C   0  0  0  0  0  2  0  0  0  0  0  0
  190.8960  177.1870  144.8790 C   0  0  0  0  0  0  0  0  0  0  0  0
  191.4960  176.8350  145.9800 N   0  0  0  0  0  0  0  0  0  0  0  0
  189.5490  177.0300  147.3770 C   0  0  0  0  0  3  0  0  0  0  0  0
  191.6930  177.2640  143.6880 N   0  0  0  0  0  2  0  0  0  0  0  0
  189.4510  177.6780  144.9290 C   0  0  1  0  0  3  0  0  0  0  0  0
  190.8610  176.8450  147.2650 C   0  0  0  0  0  3  0  0  0  0  0  0
  188.0470  176.2700  143.4640 C   0  0  0  0  0  2  0  0  0  0  0  0
  187.2260  177.4790  143.7860 N   0  0  0  0  0  0  0  0  0  0  0  0
  188.7050  177.4800  143.5860 C   0  0  1  0  0  3  0  0  0  0  0  0
  184.3980  179.1090  145.5240 N   0  0  0  0  0  0  0  0  0  0  0  0
  185.8530  178.8490  145.4150 C   0  0  2  0  0  3  0  0  0  0  0  0
  185.0030  178.1320  143.1560 C   0  0  0  0  0  3  0  0  0  0  0  0
  185.9970  178.1300  144.0850 C   0  0  0  0  0  0  0  0  0  0  0  0
  183.3500  179.2490  144.5920 C   0  0  0  0  0  3  0  0  0  0  0  0
  183.6570  178.7550  143.3880 C   0  0  0  0  0  3  0  0  0  0  0  0
  185.1640  178.1330  146.3570 C   0  0  0  0  0  2  0  0  0  0  0  0
  191.3620  178.0440  142.5050 C   0  0  0  0  0  2  0  0  0  0  0  0
  191.8770  177.3800  141.3200 N   0  0  0  0  0  2  0  0  0  0  0  0
  190.7250  176.9690  140.5360 C   0  0  0  0  0  2  0  0  0  0  0  0
  190.4060  175.8380  138.3360 C   0  0  0  0  0  2  0  0  0  0  0  0
  191.0640  177.0190  139.0570 C   0  0  2  0  0  3  0  0  0  0  0  0
  191.6020  175.1470  137.8120 C   0  0  0  0  0  0  0  0  0  0  0  0
  191.5820  174.0910  137.1280 O   0  0  0  0  0  0  0  0  0  0  0  0
  192.5030  176.8360  138.8660 N   0  0  0  0  0  0  0  0  0  0  0  0
  192.7900  175.8090  138.1800 N   0  0  0  0  0  0  0  0  0  0  0  0
  1  4  1  0  0  0  0
  2  6  1  0  0  0  0
  2  3  2  0  0  0  0
  3  7  1  0  0  0  0
  5  2  1  0  0  0  0
  6  1  1  1  0  0  0
  7  4  2  0  0  0  0
  8  9  1  0  0  0  0
  9 14  1  0  0  0  0
 10  8  1  1  0  0  0
 10  9  1  0  0  0  0
 10  6  1  0  0  0  0
 11 17  1  0  0  0  0
 12 11  1  0  0  0  0
 12 17  1  1  0  0  0
 13 16  1  0  0  0  0
 13 14  2  0  0  0  0
 14 12  1  0  0  0  0
 15 11  1  0  0  0  0
 16 15  2  0  0  0  0
 18  5  1  0  0  0  0
 19 18  1  0  0  0  0
 20 19  1  0  0  0  0
 21 22  1  0  0  0  0
 22 20  1  1  0  0  0
 23 26  1  0  0  0  0
 23 21  1  0  0  0  0
 24 23  2  0  0  0  0
 25 22  1  0  0  0  0
 26 25  2  0  0  0  0
M  END
>  <MODEL>
3

>  <REMARK>
 VINA RESULT:      -8.3      1.851      2.055
  Name = 
  6 active torsions:
  status: ('A' for Active; 'I' for Inactive)
    1  A    between atoms: C_3  and  C_26
    2  A    between atoms: C_10  and  N_20
    3  A    between atoms: N_15  and  C_17
    4  A    between atoms: C_17  and  N_18
    5  A    between atoms: N_18  and  C_26
    6  A    between atoms: C_21  and  C_22
                            x       y       z     vdW  Elec       q    Type
                         _______ _______ _______ _____ _____    ______ ____

>  <TORSDO>
F 6

$$$$
=
 OpenBabel10232407533D

 26 30  0  0  1  0  0  0  0  0999 V2000
  188.0410  177.4870  146.2160 C   0  0  0  0  0  2  0  0  0  0  0  0
  190.4710  177.3560  145.4690 C   0  0  0  0  0  0  0  0  0  0  0  0
  190.7920  177.0860  146.7010 N   0  0  0  0  0  0  0  0  0  0  0  0
  188.5990  177.4810  147.6030 C   0  0  0  0  0  3  0  0  0  0  0  0
  191.5150  177.2930  144.4850 N   0  0  0  0  0  2  0  0  0  0  0  0
  189.0810  177.9020  145.1510 C   0  0  1  0  0  3  0  0  0  0  0  0
  189.8900  177.2390  147.8050 C   0  0  0  0  0  3  0  0  0  0  0  0
  188.1500  176.3320  143.4880 C   0  0  0  0  0  2  0  0  0  0  0  0
  187.1590  177.4480  143.6020 N   0  0  0  0  0  0  0  0  0  0  0  0
  188.6410  177.6080  143.6960 C   0  0  1  0  0  3  0  0  0  0  0  0
  183.8680  178.8530  142.6700 N   0  0  0  0  0  0  0  0  0  0  0  0
  185.0210  177.9770  142.3520 C   0  0  2  0  0  3  0  0  0  0  0  0
  185.3150  178.3870  144.8190 C   0  0  0  0  0  3  0  0  0  0  0  0
  185.8340  177.9640  143.6340 C   0  0  0  0  0  0  0  0  0  0  0  0
  183.2110  179.2220  143.8610 C   0  0  0  0  0  3  0  0  0  0  0  0
  183.9450  178.9840  144.9530 C   0  0  0  0  0  3  0  0  0  0  0  0
  184.9830  179.2000  141.7370 C   0  0  0  0  0  2  0  0  0  0  0  0
  191.4990  177.9710  143.1980 C   0  0  0  0  0  2  0  0  0  0  0  0
  191.8020  177.0230  142.1400 N   0  0  0  0  0  2  0  0  0  0  0  0
  191.3870  177.6390  140.8920 C   0  0  0  0  0  2  0  0  0  0  0  0
  191.1120  176.4170  138.7350 C   0  0  0  0  0  2  0  0  0  0  0  0
  190.5000  176.6830  140.1150 C   0  0  2  0  0  3  0  0  0  0  0  0
  190.0350  176.9270  137.8640 C   0  0  0  0  0  0  0  0  0  0  0  0
  190.0650  176.9260  136.6050 O   0  0  0  0  0  0  0  0  0  0  0  0
  189.2030  177.3080  139.8490 N   0  0  0  0  0  0  0  0  0  0  0  0
  188.9540  177.4350  138.6120 N   0  0  0  0  0  0  0  0  0  0  0  0
  1  4  1  0  0  0  0
  2  3  2  0  0  0  0
  3  7  1  0  0  0  0
  4  7  2  0  0  0  0
  5  2  1  0  0  0  0
  6  2  1  0  0  0  0
  6  1  1  1  0  0  0
  8  9  1  0  0  0  0
  9 14  1  0  0  0  0
  9 10  1  0  0  0  0
 10  8  1  1  0  0  0
 10  6  1  0  0  0  0
 11 15  1  0  0  0  0
 12 17  1  6  0  0  0
 12 11  1  0  0  0  0
 12 14  1  0  0  0  0
 13 16  1  0  0  0  0
 14 13  2  0  0  0  0
 15 16  2  0  0  0  0
 17 11  1  0  0  0  0
 18  5  1  0  0  0  0
 19 18  1  0  0  0  0
 20 19  1  0  0  0  0
 21 22  1  0  0  0  0
 22 20  1  1  0  0  0
 23 26  1  0  0  0  0
 23 21  1  0  0  0  0
 24 23  2  0  0  0  0
 25 22  1  0  0  0  0
 26 25  2  0  0  0  0
M  END
>  <MODEL>
4

>  <REMARK>
 VINA RESULT:      -8.1      1.438      1.920
  Name = 
  6 active torsions:
  status: ('A' for Active; 'I' for Inactive)
    1  A    between atoms: C_3  and  C_26
    2  A    between atoms: C_10  and  N_20
    3  A    between atoms: N_15  and  C_17
    4  A    between atoms: C_17  and  N_18
    5  A    between atoms: N_18  and  C_26
    6  A    between atoms: C_21  and  C_22
                            x       y       z     vdW  Elec       q    Type
                         _______ _______ _______ _____ _____    ______ ____

>  <TORSDO>
F 6

$$$$
=
 OpenBabel10232407533D

 26 30  0  0  1  0  0  0  0  0999 V2000
  190.3410  176.8700  142.1220 C   0  0  0  0  0  2  0  0  0  0  0  0
  188.5530  177.9740  140.6840 C   0  0  0  0  0  0  0  0  0  0  0  0
  189.3130  177.7620  139.6490 N   0  0  0  0  0  0  0  0  0  0  0  0
  191.2080  176.9850  140.9100 C   0  0  0  0  0  3  0  0  0  0  0  0
  187.2440  178.5100  140.4440 N   0  0  0  0  0  2  0  0  0  0  0  0
  189.1320  177.8320  142.0900 C   0  0  1  0  0  3  0  0  0  0  0  0
  190.6860  177.3590  139.7450 C   0  0  0  0  0  3  0  0  0  0  0  0
  187.8070  176.1700  143.3460 C   0  0  0  0  0  2  0  0  0  0  0  0
  188.6520  176.8740  144.3600 N   0  0  0  0  0  0  0  0  0  0  0  0
  188.0510  177.5170  143.1540 C   0  0  1  0  0  3  0  0  0  0  0  0
  189.8300  177.2880  147.8410 N   0  0  0  0  0  0  0  0  0  0  0  0
  188.7520  176.9240  146.8900 C   0  0  2  0  0  3  0  0  0  0  0  0
  190.8020  176.8830  145.4290 C   0  0  0  0  0  3  0  0  0  0  0  0
  189.4460  176.9100  145.5400 C   0  0  0  0  0  0  0  0  0  0  0  0
  191.2350  177.1640  147.8320 C   0  0  0  0  0  3  0  0  0  0  0  0
  191.7280  176.9560  146.6070 C   0  0  0  0  0  3  0  0  0  0  0  0
  188.6830  178.1670  147.4610 C   0  0  0  0  0  2  0  0  0  0  0  0
  186.4370  179.2300  141.4190 C   0  0  0  0  0  2  0  0  0  0  0  0
  185.0430  178.8470  141.2800 N   0  0  0  0  0  2  0  0  0  0  0  0
  184.6450  178.2460  142.5410 C   0  0  0  0  0  2  0  0  0  0  0  0
  185.5760  178.7910  144.7900 C   0  0  0  0  0  2  0  0  0  0  0  0
  184.6870  179.2870  143.6450 C   0  0  2  0  0  3  0  0  0  0  0  0
  184.5950  178.7600  145.8930 C   0  0  0  0  0  0  0  0  0  0  0  0
  184.8510  178.4110  147.0750 O   0  0  0  0  0  0  0  0  0  0  0  0
  183.3560  179.4490  144.2310 N   0  0  0  0  0  0  0  0  0  0  0  0
  183.3150  179.1610  145.4640 N   0  0  0  0  0  0  0  0  0  0  0  0
  2  6  1  0  0  0  0
  3  7  1  0  0  0  0
  3  2  2  0  0  0  0
  4  1  1  0  0  0  0
  5  2  1  0  0  0  0
  5 18  1  0  0  0  0
  6  1  1  6  0  0  0
  6 10  1  0  0  0  0
  7  4  2  0  0  0  0
  8  9  1  0  0  0  0
  9 14  1  0  0  0  0
 10  8  1  6  0  0  0
 10  9  1  0  0  0  0
 12 17  1  6  0  0  0
 12 11  1  0  0  0  0
 13 14  2  0  0  0  0
 13 16  1  0  0  0  0
 14 12  1  0  0  0  0
 15 11  1  0  0  0  0
 16 15  2  0  0  0  0
 17 11  1  0  0  0  0
 19 18  1  0  0  0  0
 19 20  1  0  0  0  0
 21 23  1  0  0  0  0
 22 20  1  6  0  0  0
 22 25  1  0  0  0  0
 22 21  1  0  0  0  0
 23 24  2  0  0  0  0
 25 26  2  0  0  0  0
 26 23  1  0  0  0  0
M  END
>  <MODEL>
5

>  <REMARK>
 VINA RESULT:      -7.9      2.248      6.231
  Name = 
  6 active torsions:
  status: ('A' for Active; 'I' for Inactive)
    1  A    between atoms: C_3  and  C_26
    2  A    between atoms: C_10  and  N_20
    3  A    between atoms: N_15  and  C_17
    4  A    between atoms: C_17  and  N_18
    5  A    between atoms: N_18  and  C_26
    6  A    between atoms: C_21  and  C_22
                            x       y       z     vdW  Elec       q    Type
                         _______ _______ _______ _____ _____    ______ ____

>  <TORSDO>
F 6

$$$$
=
 OpenBabel10232407533D

 26 30  0  0  1  0  0  0  0  0999 V2000
  191.5860  177.0910  145.3460 C   0  0  0  0  0  2  0  0  0  0  0  0
  189.3210  177.1170  146.5100 C   0  0  0  0  0  0  0  0  0  0  0  0
  189.8750  176.4940  147.5100 N   0  0  0  0  0  0  0  0  0  0  0  0
  191.9820  176.1210  146.4130 C   0  0  0  0  0  3  0  0  0  0  0  0
  187.9590  177.5400  146.6670 N   0  0  0  0  0  2  0  0  0  0  0  0
  190.0540  177.2030  145.1730 C   0  0  1  0  0  3  0  0  0  0  0  0
  191.1770  175.8980  147.4480 C   0  0  0  0  0  3  0  0  0  0  0  0
  190.6290  179.2630  143.9400 C   0  0  0  0  0  2  0  0  0  0  0  0
  190.1050  178.3040  142.9180 N   0  0  0  0  0  0  0  0  0  0  0  0
  189.6060  178.4150  144.3210 C   0  0  1  0  0  3  0  0  0  0  0  0
  191.1070  176.7380  139.7220 N   0  0  0  0  0  0  0  0  0  0  0  0
  191.3120  176.9140  141.1800 C   0  0  2  0  0  3  0  0  0  0  0  0
  188.9940  177.8360  140.8420 C   0  0  0  0  0  3  0  0  0  0  0  0
  190.1000  177.7120  141.6250 C   0  0  0  0  0  0  0  0  0  0  0  0
  189.9760  176.7280  138.8810 C   0  0  0  0  0  3  0  0  0  0  0  0
  188.9020  177.2840  139.4500 C   0  0  0  0  0  3  0  0  0  0  0  0
  192.1520  177.6050  140.3480 C   0  0  0  0  0  2  0  0  0  0  0  0
  187.0340  177.8200  145.5790 C   0  0  0  0  0  2  0  0  0  0  0  0
  185.8780  178.5340  146.0900 N   0  0  0  0  0  2  0  0  0  0  0  0
  185.3140  179.2740  144.9740 C   0  0  0  0  0  2  0  0  0  0  0  0
  185.9870  178.8460  142.6110 C   0  0  0  0  0  2  0  0  0  0  0  0
  185.1330  178.3510  143.7820 C   0  0  2  0  0  3  0  0  0  0  0  0
  184.9360  179.1070  141.6080 C   0  0  0  0  0  0  0  0  0  0  0  0
  185.1430  179.5380  140.4430 O   0  0  0  0  0  0  0  0  0  0  0  0
  183.7500  178.4130  143.3070 N   0  0  0  0  0  0  0  0  0  0  0  0
  183.6510  178.8260  142.1120 N   0  0  0  0  0  0  0  0  0  0  0  0
  1  4  1  0  0  0  0
  2  5  1  0  0  0  0
  2  3  2  0  0  0  0
  4  7  2  0  0  0  0
  6  1  1  1  0  0  0
  6  2  1  0  0  0  0
  7  3  1  0  0  0  0
  9  8  1  0  0  0  0
  9 10  1  0  0  0  0
 10  8  1  1  0  0  0
 10  6  1  0  0  0  0
 11 17  1  0  0  0  0
 11 12  1  0  0  0  0
 12 17  1  6  0  0  0
 12 14  1  0  0  0  0
 13 14  2  0  0  0  0
 14  9  1  0  0  0  0
 15 16  2  0  0  0  0
 15 11  1  0  0  0  0
 16 13  1  0  0  0  0
 18 19  1  0  0  0  0
 18  5  1  0  0  0  0
 20 19  1  0  0  0  0
 21 22  1  0  0  0  0
 22 20  1  1  0  0  0
 23 26  1  0  0  0  0
 23 21  1  0  0  0  0
 24 23  2  0  0  0  0
 25 22  1  0  0  0  0
 26 25  2  0  0  0  0
M  END
>  <MODEL>
6

>  <REMARK>
 VINA RESULT:      -7.8      1.735      5.547
  Name = 
  6 active torsions:
  status: ('A' for Active; 'I' for Inactive)
    1  A    between atoms: C_3  and  C_26
    2  A    between atoms: C_10  and  N_20
    3  A    between atoms: N_15  and  C_17
    4  A    between atoms: C_17  and  N_18
    5  A    between atoms: N_18  and  C_26
    6  A    between atoms: C_21  and  C_22
                            x       y       z     vdW  Elec       q    Type
                         _______ _______ _______ _____ _____    ______ ____

>  <TORSDO>
F 6

$$$$
=
 OpenBabel10232407533D

 26 30  0  0  1  0  0  0  0  0999 V2000
  185.1780  178.1150  143.3580 C   0  0  0  0  0  2  0  0  0  0  0  0
  185.4710  178.4860  145.8610 C   0  0  0  0  0  0  0  0  0  0  0  0
  184.2090  178.8010  145.9190 N   0  0  0  0  0  0  0  0  0  0  0  0
  183.8570  178.7920  143.5410 C   0  0  0  0  0  3  0  0  0  0  0  0
  186.1880  178.3970  147.1000 N   0  0  0  0  0  2  0  0  0  0  0  0
  186.1710  178.4140  144.5050 C   0  0  1  0  0  3  0  0  0  0  0  0
  183.4030  179.0570  144.7620 C   0  0  0  0  0  3  0  0  0  0  0  0
  187.1810  176.2100  144.0380 C   0  0  0  0  0  2  0  0  0  0  0  0
  187.8720  177.1810  143.1330 N   0  0  0  0  0  0  0  0  0  0  0  0
  187.4090  177.4850  144.5200 C   0  0  1  0  0  3  0  0  0  0  0  0
  188.5450  178.6390  139.8020 N   0  0  0  0  0  0  0  0  0  0  0  0
  187.9250  178.7480  141.1440 C   0  0  2  0  0  3  0  0  0  0  0  0
  189.5540  176.8530  141.4510 C   0  0  0  0  0  3  0  0  0  0  0  0
  188.4740  177.5500  141.8990 C   0  0  0  0  0  0  0  0  0  0  0  0
  189.7230  178.0420  139.3080 C   0  0  0  0  0  3  0  0  0  0  0  0
  190.2370  177.1370  140.1460 C   0  0  0  0  0  3  0  0  0  0  0  0
  187.0990  178.4110  140.1040 C   0  0  0  0  0  2  0  0  0  0  0  0
  187.6310  178.5140  147.2470 C   0  0  0  0  0  2  0  0  0  0  0  0
  188.1050  177.5510  148.2260 N   0  0  0  0  0  2  0  0  0  0  0  0
  188.9010  176.5750  147.5030 C   0  0  0  0  0  2  0  0  0  0  0  0
  190.3630  177.4130  145.6640 C   0  0  0  0  0  2  0  0  0  0  0  0
  190.2620  177.1620  147.1720 C   0  0  2  0  0  3  0  0  0  0  0  0
  191.5010  176.5350  145.3240 C   0  0  0  0  0  0  0  0  0  0  0  0
  191.9810  176.3930  144.1690 O   0  0  0  0  0  0  0  0  0  0  0  0
  191.3130  176.1900  147.4740 N   0  0  0  0  0  0  0  0  0  0  0  0
  191.9900  175.8540  146.4560 N   0  0  0  0  0  0  0  0  0  0  0  0
  1  4  1  0  0  0  0
  2  3  2  0  0  0  0
  2  5  1  0  0  0  0
  4  7  2  0  0  0  0
  5 18  1  0  0  0  0
  6  1  1  6  0  0  0
  6 10  1  0  0  0  0
  6  2  1  0  0  0  0
  7  3  1  0  0  0  0
  9  8  1  0  0  0  0
  9 10  1  0  0  0  0
 10  8  1  6  0  0  0
 11 17  1  0  0  0  0
 11 12  1  0  0  0  0
 12 17  1  6  0  0  0
 12 14  1  0  0  0  0
 13 14  2  0  0  0  0
 14  9  1  0  0  0  0
 15 11  1  0  0  0  0
 15 16  2  0  0  0  0
 16 13  1  0  0  0  0
 18 19  1  0  0  0  0
 20 19  1  0  0  0  0
 21 22  1  0  0  0  0
 22 25  1  0  0  0  0
 22 20  1  6  0  0  0
 23 21  1  0  0  0  0
 23 26  1  0  0  0  0
 24 23  2  0  0  0  0
 26 25  2  0  0  0  0
M  END
>  <MODEL>
7

>  <REMARK>
 VINA RESULT:      -7.7      2.146      6.461
  Name = 
  6 active torsions:
  status: ('A' for Active; 'I' for Inactive)
    1  A    between atoms: C_3  and  C_26
    2  A    between atoms: C_10  and  N_20
    3  A    between atoms: N_15  and  C_17
    4  A    between atoms: C_17  and  N_18
    5  A    between atoms: N_18  and  C_26
    6  A    between atoms: C_21  and  C_22
                            x       y       z     vdW  Elec       q    Type
                         _______ _______ _______ _____ _____    ______ ____

>  <TORSDO>
F 6

$$$$
=
 OpenBabel10232407533D

 26 30  0  0  1  0  0  0  0  0999 V2000
  189.5750  178.2530  144.4130 C   0  0  0  0  0  2  0  0  0  0  0  0
  190.8190  177.6630  142.2700 C   0  0  0  0  0  0  0  0  0  0  0  0
  191.9210  178.0320  142.8580 N   0  0  0  0  0  0  0  0  0  0  0  0
  190.8510  178.9180  144.8200 C   0  0  0  0  0  3  0  0  0  0  0  0
  190.9310  177.0730  140.9670 N   0  0  0  0  0  2  0  0  0  0  0  0
  189.4720  178.0350  142.8860 C   0  0  1  0  0  3  0  0  0  0  0  0
  191.9540  178.7550  144.0950 C   0  0  0  0  0  3  0  0  0  0  0  0
  188.0330  176.0950  143.3960 C   0  0  0  0  0  2  0  0  0  0  0  0
  187.1170  177.2750  143.3050 N   0  0  0  0  0  0  0  0  0  0  0  0
  188.3350  177.0720  142.4650 C   0  0  1  0  0  3  0  0  0  0  0  0
  184.6340  179.1630  145.2920 N   0  0  0  0  0  0  0  0  0  0  0  0
  186.0440  178.7800  145.0360 C   0  0  2  0  0  3  0  0  0  0  0  0
  184.9010  178.1040  142.8970 C   0  0  0  0  0  3  0  0  0  0  0  0
  185.9850  178.0320  143.7170 C   0  0  0  0  0  0  0  0  0  0  0  0
  183.5080  179.3770  144.4710 C   0  0  0  0  0  3  0  0  0  0  0  0
  183.6440  178.8410  143.2540 C   0  0  0  0  0  3  0  0  0  0  0  0
  185.4020  178.1380  146.0620 C   0  0  0  0  0  2  0  0  0  0  0  0
  189.8670  177.0160  139.9750 C   0  0  0  0  0  2  0  0  0  0  0  0
  190.3000  177.6680  138.7530 N   0  0  0  0  0  2  0  0  0  0  0  0
  189.1410  178.3520  138.2070 C   0  0  0  0  0  2  0  0  0  0  0  0
  187.3950  176.9070  137.1660 C   0  0  0  0  0  2  0  0  0  0  0  0
  187.8890  177.5360  138.4730 C   0  0  2  0  0  3  0  0  0  0  0  0
  186.0570  177.5230  137.0630 C   0  0  0  0  0  0  0  0  0  0  0  0
  185.2360  177.3120  136.1320 O   0  0  0  0  0  0  0  0  0  0  0  0
  186.8040  178.4140  138.9140 N   0  0  0  0  0  0  0  0  0  0  0  0
  185.8020  178.3980  138.1370 N   0  0  0  0  0  0  0  0  0  0  0  0
  1  4  1  0  0  0  0
  2  3  2  0  0  0  0
  2  6  1  0  0  0  0
  3  7  1  0  0  0  0
  5  2  1  0  0  0  0
  6  1  1  1  0  0  0
  7  4  2  0  0  0  0
  9  8  1  0  0  0  0
  9 14  1  0  0  0  0
 10  6  1  0  0  0  0
 10  9  1  0  0  0  0
 10  8  1  1  0  0  0
 11 17  1  0  0  0  0
 12 11  1  0  0  0  0
 12 17  1  1  0  0  0
 13 16  1  0  0  0  0
 13 14  2  0  0  0  0
 14 12  1  0  0  0  0
 15 11  1  0  0  0  0
 16 15  2  0  0  0  0
 18  5  1  0  0  0  0
 19 18  1  0  0  0  0
 20 19  1  0  0  0  0
 21 22  1  0  0  0  0
 22 20  1  6  0  0  0
 22 25  1  0  0  0  0
 23 21  1  0  0  0  0
 23 26  1  0  0  0  0
 24 23  2  0  0  0  0
 26 25  2  0  0  0  0
M  END
>  <MODEL>
8

>  <REMARK>
 VINA RESULT:      -7.4      1.615      2.419
  Name = 
  6 active torsions:
  status: ('A' for Active; 'I' for Inactive)
    1  A    between atoms: C_3  and  C_26
    2  A    between atoms: C_10  and  N_20
    3  A    between atoms: N_15  and  C_17
    4  A    between atoms: C_17  and  N_18
    5  A    between atoms: N_18  and  C_26
    6  A    between atoms: C_21  and  C_22
                            x       y       z     vdW  Elec       q    Type
                         _______ _______ _______ _____ _____    ______ ____

>  <TORSDO>
F 6

$$$$
=
 OpenBabel10232407533D

 26 30  0  0  1  0  0  0  0  0999 V2000
  190.1510  177.0140  142.5780 C   0  0  0  0  0  2  0  0  0  0  0  0
  188.5780  178.0160  140.8440 C   0  0  0  0  0  0  0  0  0  0  0  0
  189.5520  177.9480  139.9830 N   0  0  0  0  0  0  0  0  0  0  0  0
  191.2270  177.2920  141.5780 C   0  0  0  0  0  3  0  0  0  0  0  0
  187.2930  178.4290  140.3580 N   0  0  0  0  0  2  0  0  0  0  0  0
  188.8720  177.8470  142.3330 C   0  0  1  0  0  3  0  0  0  0  0  0
  190.9130  177.6820  140.3470 C   0  0  0  0  0  3  0  0  0  0  0  0
  187.7000  176.0340  143.5310 C   0  0  0  0  0  2  0  0  0  0  0  0
  187.9980  177.0810  144.5580 N   0  0  0  0  0  0  0  0  0  0  0  0
  187.6410  177.3570  143.1340 C   0  0  1  0  0  3  0  0  0  0  0  0
  189.8540  177.7370  147.6880 N   0  0  0  0  0  0  0  0  0  0  0  0
  189.8430  177.6050  146.2110 C   0  0  2  0  0  3  0  0  0  0  0  0
  187.3960  177.8420  146.7540 C   0  0  0  0  0  3  0  0  0  0  0  0
  188.3690  177.5000  145.8650 C   0  0  0  0  0  0  0  0  0  0  0  0
  188.9280  178.2040  148.6420 C   0  0  0  0  0  3  0  0  0  0  0  0
  187.6790  178.2590  148.1670 C   0  0  0  0  0  3  0  0  0  0  0  0
  190.3180  176.5370  146.9260 C   0  0  0  0  0  2  0  0  0  0  0  0
  186.2290  179.0000  141.1710 C   0  0  0  0  0  2  0  0  0  0  0  0
  184.9410  178.5250  140.6970 N   0  0  0  0  0  2  0  0  0  0  0  0
  184.1770  178.1420  141.8710 C   0  0  0  0  0  2  0  0  0  0  0  0
  182.6010  179.0390  143.5830 C   0  0  0  0  0  2  0  0  0  0  0  0
  183.0890  179.1670  142.1360 C   0  0  2  0  0  3  0  0  0  0  0  0
  181.1800  178.7080  143.3560 C   0  0  0  0  0  0  0  0  0  0  0  0
  180.3340  178.5030  144.2650 O   0  0  0  0  0  0  0  0  0  0  0  0
  181.9180  178.8800  141.3060 N   0  0  0  0  0  0  0  0  0  0  0  0
  180.8750  178.6330  141.9830 N   0  0  0  0  0  0  0  0  0  0  0  0
  2  6  1  0  0  0  0
  3  7  1  0  0  0  0
  3  2  2  0  0  0  0
  4  1  1  0  0  0  0
  5  2  1  0  0  0  0
  5 18  1  0  0  0  0
  6  1  1  6  0  0  0
  6 10  1  0  0  0  0
  7  4  2  0  0  0  0
  8  9  1  0  0  0  0
  9 14  1  0  0  0  0
 10  8  1  6  0  0  0
 10  9  1  0  0  0  0
 11 15  1  0  0  0  0
 12 17  1  1  0  0  0
 12 11  1  0  0  0  0
 13 16  1  0  0  0  0
 14 12  1  0  0  0  0
 14 13  2  0  0  0  0
 16 15  2  0  0  0  0
 17 11  1  0  0  0  0
 19 18  1  0  0  0  0
 19 20  1  0  0  0  0
 22 20  1  6  0  0  0
 22 21  1  0  0  0  0
 23 21  1  0  0  0  0
 23 24  2  0  0  0  0
 25 26  2  0  0  0  0
 25 22  1  0  0  0  0
 26 23  1  0  0  0  0
M  END
>  <MODEL>
9

>  <REMARK>
 VINA RESULT:      -7.4      2.738      5.959
  Name = 
  6 active torsions:
  status: ('A' for Active; 'I' for Inactive)
    1  A    between atoms: C_3  and  C_26
    2  A    between atoms: C_10  and  N_20
    3  A    between atoms: N_15  and  C_17
    4  A    between atoms: C_17  and  N_18
    5  A    between atoms: N_18  and  C_26
    6  A    between atoms: C_21  and  C_22
                            x       y       z     vdW  Elec       q    Type
                         _______ _______ _______ _____ _____    ______ ____

>  <TORSDO>
F 6

$$$$
