=
 OpenBabel10232411203D

 37 40  0  0  1  0  0  0  0  0999 V2000
  190.2660  178.4020  143.3220 C   0  0  0  0  0  0  0  0  0  0  0  0
  189.5480  177.8400  144.4170 N   0  0  0  0  0  0  0  0  0  0  0  0
  189.2250  177.7350  145.8730 C   0  0  1  0  0  3  0  0  0  0  0  0
  191.0920  179.3280  143.5310 O   0  0  0  0  0  0  0  0  0  0  0  0
  188.5190  176.9310  145.0000 C   0  0  1  0  0  3  0  0  0  0  0  0
  190.9630  177.3660  141.2050 O   0  0  0  0  0  0  0  0  0  0  0  0
  188.8230  177.9530  141.2780 C   0  0  0  0  0  3  0  0  0  0  0  0
  188.3610  177.1910  139.1160 O   0  0  0  0  0  0  0  0  0  0  0  0
  190.4660  177.0280  140.0550 N   0  0  0  0  0  0  0  0  0  0  0  0
  190.0350  177.9130  141.9580 C   0  0  0  0  0  0  0  0  0  0  0  0
  189.1610  177.3720  140.0720 C   0  0  0  0  0  0  0  0  0  0  0  0
  193.3160  176.1620  137.7950 C   0  0  0  0  0  3  0  0  0  0  0  0
  192.7380  175.1850  136.9800 C   0  0  0  0  0  0  0  0  0  0  0  0
  193.6870  174.4190  135.7240 Cl  0  0  0  0  0  0  0  0  0  0  0  0
  191.4030  174.8190  137.1670 C   0  0  0  0  0  3  0  0  0  0  0  0
  190.6480  175.4270  138.1740 C   0  0  0  0  0  3  0  0  0  0  0  0
  191.2210  176.4070  139.0010 C   0  0  0  0  0  0  0  0  0  0  0  0
  192.5600  176.7690  138.8000 C   0  0  0  0  0  3  0  0  0  0  0  0
  189.9780  176.0900  147.4350 O   0  0  0  0  0  0  0  0  0  0  0  0
  191.6600  177.1300  146.2170 N   0  0  0  0  0  1  0  0  0  0  0  0
  190.2900  176.9510  146.5700 C   0  0  0  0  0  0  0  0  0  0  0  0
  187.1430  177.5210  144.7500 C   0  0  0  0  0  2  0  0  0  0  0  0
  186.6380  178.2420  145.9880 C   0  0  0  0  0  2  0  0  0  0  0  0
  185.5500  179.2340  145.6170 C   0  0  1  0  0  3  0  0  0  0  0  0
  184.5150  178.5400  144.8650 C   0  0  1  0  0  3  0  0  0  0  0  0
  184.2950  178.8570  146.2830 N   0  0  0  0  0  2  0  0  0  0  0  0
  183.7600  179.5270  144.0010 C   0  0  0  0  0  2  0  0  0  0  0  0
  182.7600  178.7770  143.1280 C   0  0  0  0  0  2  0  0  0  0  0  0
  183.0550  178.9330  141.6370 C   0  0  1  0  0  3  0  0  0  0  0  0
  184.4570  178.4570  141.2810 C   0  0  0  0  0  2  0  0  0  0  0  0
  185.2140  179.5210  140.7860 O   0  0  0  0  0  0  0  0  0  0  0  0
  185.6970  179.0760  139.6460 O   0  0  0  0  0  1  0  0  0  0  0  0
  181.8120  178.0570  140.6340 S   0  0  0  0  0  0  0  0  0  0  0  0
  182.2660  178.9250  139.1330 C   0  0  0  0  0  0  0  0  0  0  0  0
  182.3630  180.1410  139.1420 O   0  0  0  0  0  0  0  0  0  0  0  0
  183.4150  177.0650  138.1130 N   0  0  0  0  0  1  0  0  0  0  0  0
  182.4910  178.1610  137.8700 C   0  0  0  0  0  2  0  0  0  0  0  0
  1  4  2  0  0  0  0
  1  2  1  0  0  0  0
  2  5  1  0  0  0  0
  2  3  1  0  0  0  0
  3 21  1  1  0  0  0
  5 22  1  6  0  0  0
  5  3  1  0  0  0  0
  6 10  1  0  0  0  0
  7 10  2  0  0  0  0
  8 11  2  0  0  0  0
  9 11  1  0  0  0  0
  9  6  1  0  0  0  0
 10  1  1  0  0  0  0
 11  7  1  0  0  0  0
 12 18  1  0  0  0  0
 13 15  1  0  0  0  0
 13 12  2  0  0  0  0
 14 13  1  0  0  0  0
 15 16  2  0  0  0  0
 16 17  1  0  0  0  0
 17  9  1  0  0  0  0
 18 17  2  0  0  0  0
 20 21  1  0  0  0  0
 21 19  2  0  0  0  0
 22 23  1  0  0  0  0
 24 23  1  1  0  0  0
 24 26  1  0  0  0  0
 25 27  1  6  0  0  0
 25 24  1  0  0  0  0
 25 26  1  0  0  0  0
 28 27  1  0  0  0  0
 29 30  1  1  0  0  0
 29 28  1  0  0  0  0
 31 30  1  0  0  0  0
 32 31  1  0  0  0  0
 33 29  1  0  0  0  0
 34 35  2  0  0  0  0
 34 33  1  0  0  0  0
 37 36  1  0  0  0  0
 37 34  1  0  0  0  0
M  END
>  <MODEL>
1

>  <REMARK>
 VINA RESULT:      -7.8      0.000      0.000
  Name = 
  14 active torsions:
  status: ('A' for Active; 'I' for Inactive)
    1  A    between atoms: C_2  and  O_7
    2  A    between atoms: C_2  and  C_25
    3  A    between atoms: C_3  and  C_29
    4  A    between atoms: C_5  and  S_18
    5  A    between atoms: C_5  and  C_37
    6  A    between atoms: C_6  and  C_14
    7  A    between atoms: C_6  and  C_25
    8  A    between atoms: C_8  and  C_13
    9  A    between atoms: C_13  and  C_33
   10  A    between atoms: C_14  and  C_22
   11  A    between atoms: S_18  and  C_25
   12  A    between atoms: C_23  and  C_31
   13  A    between atoms: N_27  and  C_30
   14  A    between atoms: C_33  and  C_34
                            x       y       z     vdW  Elec       q    Type
                         _______ _______ _______ _____ _____    ______ ____

>  <TORSDO>
F 14

$$$$
=
 OpenBabel10232411203D

 37 40  0  0  1  0  0  0  0  0999 V2000
  190.4210  178.5530  143.4920 C   0  0  0  0  0  0  0  0  0  0  0  0
  189.5310  177.9120  144.4010 N   0  0  0  0  0  0  0  0  0  0  0  0
  188.9230  177.7360  145.7550 C   0  0  1  0  0  3  0  0  0  0  0  0
  191.1260  179.5180  143.8890 O   0  0  0  0  0  0  0  0  0  0  0  0
  188.4640  176.9250  144.7370 C   0  0  1  0  0  3  0  0  0  0  0  0
  189.5430  178.2510  141.2170 O   0  0  0  0  0  0  0  0  0  0  0  0
  191.5990  177.4680  141.5180 C   0  0  0  0  0  3  0  0  0  0  0  0
  191.8280  176.7280  139.3110 O   0  0  0  0  0  0  0  0  0  0  0  0
  189.9060  177.7620  140.0710 N   0  0  0  0  0  0  0  0  0  0  0  0
  190.5060  178.1020  142.0990 C   0  0  0  0  0  0  0  0  0  0  0  0
  191.1560  177.2800  140.2240 C   0  0  0  0  0  0  0  0  0  0  0  0
  188.3420  178.8680  136.8590 C   0  0  0  0  0  3  0  0  0  0  0  0
  187.5070  177.7860  136.5680 C   0  0  0  0  0  0  0  0  0  0  0  0
  186.5320  177.7980  135.1140 Cl  0  0  0  0  0  0  0  0  0  0  0  0
  187.4490  176.6950  137.4400 C   0  0  0  0  0  3  0  0  0  0  0  0
  188.2320  176.6840  138.5970 C   0  0  0  0  0  3  0  0  0  0  0  0
  189.0780  177.7640  138.8950 C   0  0  0  0  0  0  0  0  0  0  0  0
  189.1240  178.8560  138.0160 C   0  0  0  0  0  3  0  0  0  0  0  0
  189.4650  176.4950  147.7240 O   0  0  0  0  0  0  0  0  0  0  0  0
  191.2200  176.7830  146.2320 N   0  0  0  0  0  1  0  0  0  0  0  0
  189.8700  176.9900  146.6400 C   0  0  0  0  0  0  0  0  0  0  0  0
  187.1340  177.4440  144.2210 C   0  0  0  0  0  2  0  0  0  0  0  0
  186.2230  177.8210  145.3770 C   0  0  0  0  0  2  0  0  0  0  0  0
  185.3380  178.9940  144.9950 C   0  0  1  0  0  3  0  0  0  0  0  0
  184.0720  178.4840  144.4880 C   0  0  1  0  0  3  0  0  0  0  0  0
  184.1480  179.0120  145.8580 N   0  0  0  0  0  2  0  0  0  0  0  0
  183.4290  179.5120  143.5830 C   0  0  0  0  0  2  0  0  0  0  0  0
  182.4090  178.8280  142.6800 C   0  0  0  0  0  2  0  0  0  0  0  0
  182.6260  179.1540  141.2030 C   0  0  1  0  0  3  0  0  0  0  0  0
  183.9280  178.5640  140.6750 C   0  0  0  0  0  2  0  0  0  0  0  0
  184.7640  179.5820  140.2130 O   0  0  0  0  0  0  0  0  0  0  0  0
  185.8440  179.4820  140.9580 O   0  0  0  0  0  1  0  0  0  0  0  0
  181.2170  178.5860  140.1980 S   0  0  0  0  0  0  0  0  0  0  0  0
  180.5170  180.2300  140.0700 C   0  0  0  0  0  0  0  0  0  0  0  0
  179.9860  180.7410  141.0420 O   0  0  0  0  0  0  0  0  0  0  0  0
  181.7640  180.6020  138.0380 N   0  0  0  0  0  1  0  0  0  0  0  0
  180.5560  180.9560  138.7650 C   0  0  0  0  0  2  0  0  0  0  0  0
  1  4  2  0  0  0  0
  1  2  1  0  0  0  0
  2  5  1  0  0  0  0
  2  3  1  0  0  0  0
  3 21  1  1  0  0  0
  5 22  1  6  0  0  0
  5  3  1  0  0  0  0
  6 10  1  0  0  0  0
  7 10  2  0  0  0  0
  8 11  2  0  0  0  0
  9 11  1  0  0  0  0
  9  6  1  0  0  0  0
 10  1  1  0  0  0  0
 11  7  1  0  0  0  0
 12 18  1  0  0  0  0
 13 12  2  0  0  0  0
 13 15  1  0  0  0  0
 14 13  1  0  0  0  0
 15 16  2  0  0  0  0
 16 17  1  0  0  0  0
 17  9  1  0  0  0  0
 18 17  2  0  0  0  0
 20 21  1  0  0  0  0
 21 19  2  0  0  0  0
 22 23  1  0  0  0  0
 24 23  1  1  0  0  0
 24 26  1  0  0  0  0
 25 27  1  6  0  0  0
 25 24  1  0  0  0  0
 25 26  1  0  0  0  0
 28 27  1  0  0  0  0
 29 30  1  6  0  0  0
 29 28  1  0  0  0  0
 31 30  1  0  0  0  0
 31 32  1  0  0  0  0
 33 29  1  0  0  0  0
 34 33  1  0  0  0  0
 34 35  2  0  0  0  0
 36 37  1  0  0  0  0
 37 34  1  0  0  0  0
M  END
>  <MODEL>
2

>  <REMARK>
 VINA RESULT:      -7.6      2.222      2.650
  Name = 
  14 active torsions:
  status: ('A' for Active; 'I' for Inactive)
    1  A    between atoms: C_2  and  O_7
    2  A    between atoms: C_2  and  C_25
    3  A    between atoms: C_3  and  C_29
    4  A    between atoms: C_5  and  S_18
    5  A    between atoms: C_5  and  C_37
    6  A    between atoms: C_6  and  C_14
    7  A    between atoms: C_6  and  C_25
    8  A    between atoms: C_8  and  C_13
    9  A    between atoms: C_13  and  C_33
   10  A    between atoms: C_14  and  C_22
   11  A    between atoms: S_18  and  C_25
   12  A    between atoms: C_23  and  C_31
   13  A    between atoms: N_27  and  C_30
   14  A    between atoms: C_33  and  C_34
                            x       y       z     vdW  Elec       q    Type
                         _______ _______ _______ _____ _____    ______ ____

>  <TORSDO>
F 14

$$$$
=
 OpenBabel10232411203D

 37 40  0  0  1  0  0  0  0  0999 V2000
  188.7080  178.2530  137.5720 C   0  0  0  0  0  0  0  0  0  0  0  0
  189.7170  177.5220  138.2630 N   0  0  0  0  0  0  0  0  0  0  0  0
  191.1160  177.0190  138.4150 C   0  0  1  0  0  3  0  0  0  0  0  0
  189.0050  178.8820  136.5220 O   0  0  0  0  0  0  0  0  0  0  0  0
  190.2080  176.6960  139.4040 C   0  0  1  0  0  3  0  0  0  0  0  0
  187.0270  178.4800  139.3510 O   0  0  0  0  0  0  0  0  0  0  0  0
  186.1810  178.1270  137.3290 C   0  0  0  0  0  3  0  0  0  0  0  0
  183.9600  178.1760  138.0600 O   0  0  0  0  0  0  0  0  0  0  0  0
  185.7390  178.4640  139.5060 N   0  0  0  0  0  0  0  0  0  0  0  0
  187.3350  178.2870  138.0870 C   0  0  0  0  0  0  0  0  0  0  0  0
  185.1960  178.2530  138.2890 C   0  0  0  0  0  0  0  0  0  0  0  0
  183.0560  178.4920  142.1110 C   0  0  0  0  0  3  0  0  0  0  0  0
  183.7600  178.9430  143.2310 C   0  0  0  0  0  0  0  0  0  0  0  0
  182.9390  179.1230  144.7670 Cl  0  0  0  0  0  0  0  0  0  0  0  0
  185.1190  179.2500  143.1250 C   0  0  0  0  0  3  0  0  0  0  0  0
  185.7740  179.1000  141.8990 C   0  0  0  0  0  3  0  0  0  0  0  0
  185.0770  178.6430  140.7700 C   0  0  0  0  0  0  0  0  0  0  0  0
  183.7120  178.3430  140.8870 C   0  0  0  0  0  3  0  0  0  0  0  0
  191.6210  176.0550  136.2880 O   0  0  0  0  0  0  0  0  0  0  0  0
  191.2870  174.5260  138.0050 N   0  0  0  0  0  1  0  0  0  0  0  0
  191.3370  175.8580  137.4990 C   0  0  0  0  0  0  0  0  0  0  0  0
  190.4120  177.5940  140.6100 C   0  0  0  0  0  2  0  0  0  0  0  0
  191.6280  177.1520  141.4050 C   0  0  0  0  0  2  0  0  0  0  0  0
  191.4060  177.3840  142.8890 C   0  0  1  0  0  3  0  0  0  0  0  0
  190.0590  176.9550  143.2370 C   0  0  1  0  0  3  0  0  0  0  0  0
  191.2040  176.0930  143.5630 N   0  0  0  0  0  2  0  0  0  0  0  0
  189.5960  177.6770  144.4830 C   0  0  0  0  0  2  0  0  0  0  0  0
  188.0870  177.5170  144.6330 C   0  0  0  0  0  2  0  0  0  0  0  0
  187.6150  177.7490  146.0680 C   0  0  1  0  0  3  0  0  0  0  0  0
  186.0950  177.7340  146.1770 C   0  0  0  0  0  2  0  0  0  0  0  0
  185.6880  178.4620  147.2960 O   0  0  0  0  0  0  0  0  0  0  0  0
  185.8150  179.7200  146.9320 O   0  0  0  0  0  1  0  0  0  0  0  0
  188.3470  176.5220  147.1990 S   0  0  0  0  0  0  0  0  0  0  0  0
  189.4000  177.7350  147.9920 C   0  0  0  0  0  0  0  0  0  0  0  0
  188.9090  178.7400  148.4780 O   0  0  0  0  0  0  0  0  0  0  0  0
  191.2230  176.3050  147.3200 N   0  0  0  0  0  1  0  0  0  0  0  0
  190.8790  177.5290  148.0250 C   0  0  0  0  0  2  0  0  0  0  0  0
  1 10  1  0  0  0  0
  1  2  1  0  0  0  0
  2  3  1  0  0  0  0
  2  5  1  0  0  0  0
  3 21  1  6  0  0  0
  3  5  1  0  0  0  0
  4  1  2  0  0  0  0
  5 22  1  1  0  0  0
  6  9  1  0  0  0  0
  7 10  2  0  0  0  0
  7 11  1  0  0  0  0
  8 11  2  0  0  0  0
  9 17  1  0  0  0  0
 10  6  1  0  0  0  0
 11  9  1  0  0  0  0
 12 13  1  0  0  0  0
 13 14  1  0  0  0  0
 15 13  2  0  0  0  0
 16 15  1  0  0  0  0
 17 18  1  0  0  0  0
 17 16  2  0  0  0  0
 18 12  2  0  0  0  0
 19 21  2  0  0  0  0
 21 20  1  0  0  0  0
 22 23  1  0  0  0  0
 24 23  1  6  0  0  0
 24 25  1  0  0  0  0
 24 26  1  0  0  0  0
 25 26  1  0  0  0  0
 25 27  1  1  0  0  0
 27 28  1  0  0  0  0
 29 28  1  6  0  0  0
 29 30  1  0  0  0  0
 29 33  1  0  0  0  0
 30 31  1  0  0  0  0
 32 31  1  0  0  0  0
 33 34  1  0  0  0  0
 34 37  1  0  0  0  0
 34 35  2  0  0  0  0
 36 37  1  0  0  0  0
M  END
>  <MODEL>
3

>  <REMARK>
 VINA RESULT:      -7.5      3.719      8.258
  Name = 
  14 active torsions:
  status: ('A' for Active; 'I' for Inactive)
    1  A    between atoms: C_2  and  O_7
    2  A    between atoms: C_2  and  C_25
    3  A    between atoms: C_3  and  C_29
    4  A    between atoms: C_5  and  S_18
    5  A    between atoms: C_5  and  C_37
    6  A    between atoms: C_6  and  C_14
    7  A    between atoms: C_6  and  C_25
    8  A    between atoms: C_8  and  C_13
    9  A    between atoms: C_13  and  C_33
   10  A    between atoms: C_14  and  C_22
   11  A    between atoms: S_18  and  C_25
   12  A    between atoms: C_23  and  C_31
   13  A    between atoms: N_27  and  C_30
   14  A    between atoms: C_33  and  C_34
                            x       y       z     vdW  Elec       q    Type
                         _______ _______ _______ _____ _____    ______ ____

>  <TORSDO>
F 14

$$$$
=
 OpenBabel10232411203D

 37 40  0  0  1  0  0  0  0  0999 V2000
  190.3030  178.5350  143.5260 C   0  0  0  0  0  0  0  0  0  0  0  0
  189.3620  177.9340  144.4100 N   0  0  0  0  0  0  0  0  0  0  0  0
  188.7020  177.7960  145.7440 C   0  0  1  0  0  3  0  0  0  0  0  0
  191.0240  179.4830  143.9350 O   0  0  0  0  0  0  0  0  0  0  0  0
  188.2530  176.9860  144.7200 C   0  0  1  0  0  3  0  0  0  0  0  0
  189.5040  178.2460  141.2200 O   0  0  0  0  0  0  0  0  0  0  0  0
  191.5070  177.3720  141.6130 C   0  0  0  0  0  3  0  0  0  0  0  0
  191.7880  176.5930  139.4250 O   0  0  0  0  0  0  0  0  0  0  0  0
  189.8880  177.7250  140.0950 N   0  0  0  0  0  0  0  0  0  0  0  0
  190.4230  178.0630  142.1420 C   0  0  0  0  0  0  0  0  0  0  0  0
  191.1080  177.1880  140.3040 C   0  0  0  0  0  0  0  0  0  0  0  0
  187.5630  176.6480  137.3720 C   0  0  0  0  0  3  0  0  0  0  0  0
  187.5450  177.7820  136.5550 C   0  0  0  0  0  0  0  0  0  0  0  0
  186.5640  177.8020  135.1060 Cl  0  0  0  0  0  0  0  0  0  0  0  0
  188.3110  178.9000  136.8970 C   0  0  0  0  0  3  0  0  0  0  0  0
  189.0890  178.8850  138.0570 C   0  0  0  0  0  3  0  0  0  0  0  0
  189.1090  177.7520  138.8860 C   0  0  0  0  0  0  0  0  0  0  0  0
  188.3410  176.6340  138.5310 C   0  0  0  0  0  3  0  0  0  0  0  0
  189.0990  176.3770  147.6260 O   0  0  0  0  0  0  0  0  0  0  0  0
  191.0000  176.9940  146.4430 N   0  0  0  0  0  1  0  0  0  0  0  0
  189.5940  177.0320  146.6710 C   0  0  0  0  0  0  0  0  0  0  0  0
  186.9590  177.5390  144.1520 C   0  0  0  0  0  2  0  0  0  0  0  0
  186.2190  178.3510  145.2000 C   0  0  0  0  0  2  0  0  0  0  0  0
  185.1340  179.1930  144.5520 C   0  0  1  0  0  3  0  0  0  0  0  0
  184.0840  178.3120  144.0610 C   0  0  1  0  0  3  0  0  0  0  0  0
  183.8840  179.0540  145.3140 N   0  0  0  0  0  2  0  0  0  0  0  0
  183.3250  178.9910  142.9420 C   0  0  0  0  0  2  0  0  0  0  0  0
  183.6340  178.2950  141.6220 C   0  0  0  0  0  2  0  0  0  0  0  0
  182.4850  178.4030  140.6220 C   0  0  1  0  0  3  0  0  0  0  0  0
  181.1670  178.7510  141.3030 C   0  0  0  0  0  2  0  0  0  0  0  0
  180.1940  177.8060  140.9770 O   0  0  0  0  0  0  0  0  0  0  0  0
  180.8390  176.9000  140.2750 O   0  0  0  0  0  1  0  0  0  0  0  0
  182.8680  179.6180  139.3190 S   0  0  0  0  0  0  0  0  0  0  0  0
  184.2330  178.6500  138.6790 C   0  0  0  0  0  0  0  0  0  0  0  0
  185.3780  179.0410  138.8330 O   0  0  0  0  0  0  0  0  0  0  0  0
  182.7880  177.5520  137.0910 N   0  0  0  0  0  1  0  0  0  0  0  0
  183.9640  177.3870  137.9300 C   0  0  0  0  0  2  0  0  0  0  0  0
  1  4  2  0  0  0  0
  1  2  1  0  0  0  0
  2  5  1  0  0  0  0
  2  3  1  0  0  0  0
  3 21  1  1  0  0  0
  5 22  1  6  0  0  0
  5  3  1  0  0  0  0
  6 10  1  0  0  0  0
  7 10  2  0  0  0  0
  8 11  2  0  0  0  0
  9 11  1  0  0  0  0
  9  6  1  0  0  0  0
 10  1  1  0  0  0  0
 11  7  1  0  0  0  0
 12 18  1  0  0  0  0
 13 15  1  0  0  0  0
 13 12  2  0  0  0  0
 14 13  1  0  0  0  0
 15 16  2  0  0  0  0
 16 17  1  0  0  0  0
 17  9  1  0  0  0  0
 18 17  2  0  0  0  0
 20 21  1  0  0  0  0
 21 19  2  0  0  0  0
 22 23  1  0  0  0  0
 24 23  1  1  0  0  0
 24 26  1  0  0  0  0
 25 27  1  6  0  0  0
 25 24  1  0  0  0  0
 25 26  1  0  0  0  0
 28 27  1  0  0  0  0
 29 30  1  1  0  0  0
 29 28  1  0  0  0  0
 31 30  1  0  0  0  0
 32 31  1  0  0  0  0
 33 29  1  0  0  0  0
 34 35  2  0  0  0  0
 34 33  1  0  0  0  0
 36 37  1  0  0  0  0
 37 34  1  0  0  0  0
M  END
>  <MODEL>
4

>  <REMARK>
 VINA RESULT:      -7.5      2.214      2.979
  Name = 
  14 active torsions:
  status: ('A' for Active; 'I' for Inactive)
    1  A    between atoms: C_2  and  O_7
    2  A    between atoms: C_2  and  C_25
    3  A    between atoms: C_3  and  C_29
    4  A    between atoms: C_5  and  S_18
    5  A    between atoms: C_5  and  C_37
    6  A    between atoms: C_6  and  C_14
    7  A    between atoms: C_6  and  C_25
    8  A    between atoms: C_8  and  C_13
    9  A    between atoms: C_13  and  C_33
   10  A    between atoms: C_14  and  C_22
   11  A    between atoms: S_18  and  C_25
   12  A    between atoms: C_23  and  C_31
   13  A    between atoms: N_27  and  C_30
   14  A    between atoms: C_33  and  C_34
                            x       y       z     vdW  Elec       q    Type
                         _______ _______ _______ _____ _____    ______ ____

>  <TORSDO>
F 14

$$$$
=
 OpenBabel10232411203D

 37 40  0  0  1  0  0  0  0  0999 V2000
  188.9260  178.3950  138.0220 C   0  0  0  0  0  0  0  0  0  0  0  0
  189.8500  177.6840  138.8400 N   0  0  0  0  0  0  0  0  0  0  0  0
  191.2350  177.2620  139.2120 C   0  0  1  0  0  3  0  0  0  0  0  0
  189.3540  179.1110  137.0790 O   0  0  0  0  0  0  0  0  0  0  0  0
  190.1950  176.8150  140.0030 C   0  0  1  0  0  3  0  0  0  0  0  0
  186.9430  178.4630  139.4720 O   0  0  0  0  0  0  0  0  0  0  0  0
  186.5030  178.0530  137.3340 C   0  0  0  0  0  3  0  0  0  0  0  0
  184.1910  177.9060  137.6580 O   0  0  0  0  0  0  0  0  0  0  0  0
  185.6540  178.3350  139.3950 N   0  0  0  0  0  0  0  0  0  0  0  0
  187.4850  178.3060  138.2840 C   0  0  0  0  0  0  0  0  0  0  0  0
  185.3560  178.0870  138.1030 C   0  0  0  0  0  0  0  0  0  0  0  0
  184.4390  178.5560  142.9250 C   0  0  0  0  0  3  0  0  0  0  0  0
  183.0620  178.7040  142.7370 C   0  0  0  0  0  0  0  0  0  0  0  0
  182.0030  178.8710  144.1210 Cl  0  0  0  0  0  0  0  0  0  0  0  0
  182.5310  178.7190  141.4450 C   0  0  0  0  0  3  0  0  0  0  0  0
  183.3790  178.5910  140.3410 C   0  0  0  0  0  3  0  0  0  0  0  0
  184.7640  178.4470  140.5190 C   0  0  0  0  0  0  0  0  0  0  0  0
  185.2850  178.4280  141.8210 C   0  0  0  0  0  3  0  0  0  0  0  0
  191.1980  175.0290  138.3600 O   0  0  0  0  0  0  0  0  0  0  0  0
  192.6650  176.4680  137.2790 N   0  0  0  0  0  1  0  0  0  0  0  0
  191.6990  176.1830  138.2870 C   0  0  0  0  0  0  0  0  0  0  0  0
  190.1190  177.6410  141.2740 C   0  0  0  0  0  2  0  0  0  0  0  0
  190.8810  176.9620  142.3980 C   0  0  0  0  0  2  0  0  0  0  0  0
  189.9350  176.5610  143.5160 C   0  0  1  0  0  3  0  0  0  0  0  0
  188.6000  177.0490  143.2000 C   0  0  1  0  0  3  0  0  0  0  0  0
  188.9240  175.6300  142.9930 N   0  0  0  0  0  2  0  0  0  0  0  0
  187.7960  177.2040  144.4730 C   0  0  0  0  0  2  0  0  0  0  0  0
  188.6620  177.8590  145.5440 C   0  0  0  0  0  2  0  0  0  0  0  0
  188.5070  177.1900  146.9090 C   0  0  1  0  0  3  0  0  0  0  0  0
  189.6990  176.3030  147.2480 C   0  0  0  0  0  2  0  0  0  0  0  0
  190.7560  177.0810  147.7220 O   0  0  0  0  0  0  0  0  0  0  0  0
  191.7160  176.9020  146.8410 O   0  0  0  0  0  1  0  0  0  0  0  0
  188.2470  178.4320  148.2160 S   0  0  0  0  0  0  0  0  0  0  0  0
  186.6270  178.8870  147.6000 C   0  0  0  0  0  0  0  0  0  0  0  0
  186.2000  180.0130  147.7920 O   0  0  0  0  0  0  0  0  0  0  0  0
  184.4780  178.4320  146.6030 N   0  0  0  0  0  1  0  0  0  0  0  0
  185.7920  177.8760  146.8840 C   0  0  0  0  0  2  0  0  0  0  0  0
  1 10  1  0  0  0  0
  1  2  1  0  0  0  0
  2  3  1  0  0  0  0
  2  5  1  0  0  0  0
  3 21  1  6  0  0  0
  3  5  1  0  0  0  0
  4  1  2  0  0  0  0
  5 22  1  1  0  0  0
  7 11  1  0  0  0  0
  7 10  2  0  0  0  0
  8 11  2  0  0  0  0
  9  6  1  0  0  0  0
  9 17  1  0  0  0  0
 10  6  1  0  0  0  0
 11  9  1  0  0  0  0
 13 12  1  0  0  0  0
 13 14  1  0  0  0  0
 15 13  2  0  0  0  0
 16 17  2  0  0  0  0
 16 15  1  0  0  0  0
 17 18  1  0  0  0  0
 18 12  2  0  0  0  0
 20 21  1  0  0  0  0
 21 19  2  0  0  0  0
 22 23  1  0  0  0  0
 24 23  1  6  0  0  0
 25 24  1  0  0  0  0
 25 27  1  1  0  0  0
 26 25  1  0  0  0  0
 26 24  1  0  0  0  0
 27 28  1  0  0  0  0
 29 28  1  6  0  0  0
 29 30  1  0  0  0  0
 29 33  1  0  0  0  0
 30 31  1  0  0  0  0
 32 31  1  0  0  0  0
 34 35  2  0  0  0  0
 34 33  1  0  0  0  0
 36 37  1  0  0  0  0
 37 34  1  0  0  0  0
M  END
>  <MODEL>
5

>  <REMARK>
 VINA RESULT:      -7.4      3.629      7.849
  Name = 
  14 active torsions:
  status: ('A' for Active; 'I' for Inactive)
    1  A    between atoms: C_2  and  O_7
    2  A    between atoms: C_2  and  C_25
    3  A    between atoms: C_3  and  C_29
    4  A    between atoms: C_5  and  S_18
    5  A    between atoms: C_5  and  C_37
    6  A    between atoms: C_6  and  C_14
    7  A    between atoms: C_6  and  C_25
    8  A    between atoms: C_8  and  C_13
    9  A    between atoms: C_13  and  C_33
   10  A    between atoms: C_14  and  C_22
   11  A    between atoms: S_18  and  C_25
   12  A    between atoms: C_23  and  C_31
   13  A    between atoms: N_27  and  C_30
   14  A    between atoms: C_33  and  C_34
                            x       y       z     vdW  Elec       q    Type
                         _______ _______ _______ _____ _____    ______ ____

>  <TORSDO>
F 14

$$$$
=
 OpenBabel10232411203D

 37 40  0  0  1  0  0  0  0  0999 V2000
  187.9220  177.3680  145.0780 C   0  0  0  0  0  0  0  0  0  0  0  0
  188.8880  177.6170  144.0600 N   0  0  0  0  0  0  0  0  0  0  0  0
  190.2650  177.5080  143.4900 C   0  0  1  0  0  3  0  0  0  0  0  0
  188.2450  176.6940  146.0900 O   0  0  0  0  0  0  0  0  0  0  0  0
  189.3060  178.1530  142.7330 C   0  0  1  0  0  3  0  0  0  0  0  0
  185.8870  177.9060  143.8080 O   0  0  0  0  0  0  0  0  0  0  0  0
  185.7790  178.4060  145.9690 C   0  0  0  0  0  3  0  0  0  0  0  0
  183.5950  179.2350  145.8450 O   0  0  0  0  0  0  0  0  0  0  0  0
  184.7060  178.4100  143.9940 N   0  0  0  0  0  0  0  0  0  0  0  0
  186.5540  177.8830  144.9400 C   0  0  0  0  0  0  0  0  0  0  0  0
  184.6100  178.7210  145.3030 C   0  0  0  0  0  0  0  0  0  0  0  0
  183.1700  178.5760  140.5890 C   0  0  0  0  0  3  0  0  0  0  0  0
  181.8370  178.8590  140.8970 C   0  0  0  0  0  0  0  0  0  0  0  0
  180.6580  179.0280  139.6150 Cl  0  0  0  0  0  0  0  0  0  0  0  0
  181.4460  179.0080  142.2300 C   0  0  0  0  0  3  0  0  0  0  0  0
  182.3870  178.8680  143.2540 C   0  0  0  0  0  3  0  0  0  0  0  0
  183.7280  178.5780  142.9530 C   0  0  0  0  0  0  0  0  0  0  0  0
  184.1100  178.4360  141.6120 C   0  0  0  0  0  3  0  0  0  0  0  0
  191.2030  179.6910  143.7530 O   0  0  0  0  0  0  0  0  0  0  0  0
  191.9430  178.1120  145.2880 N   0  0  0  0  0  1  0  0  0  0  0  0
  191.1660  178.4980  144.1560 C   0  0  0  0  0  0  0  0  0  0  0  0
  188.7960  177.2260  141.6450 C   0  0  0  0  0  2  0  0  0  0  0  0
  189.6720  177.3210  140.4080 C   0  0  0  0  0  2  0  0  0  0  0  0
  189.1310  178.3690  139.4530 C   0  0  1  0  0  3  0  0  0  0  0  0
  188.4090  177.7020  138.3790 C   0  0  1  0  0  3  0  0  0  0  0  0
  187.6610  178.3390  139.4730 N   0  0  0  0  0  2  0  0  0  0  0  0
  188.3740  178.5900  137.1550 C   0  0  0  0  0  2  0  0  0  0  0  0
  189.1200  177.9100  136.0120 C   0  0  0  0  0  2  0  0  0  0  0  0
  189.2860  176.4080  136.2360 C   0  0  1  0  0  3  0  0  0  0  0  0
  188.2530  175.5990  135.4600 C   0  0  0  0  0  2  0  0  0  0  0  0
  187.4060  174.9290  136.3440 O   0  0  0  0  0  0  0  0  0  0  0  0
  186.3150  175.6640  136.3720 O   0  0  0  0  0  1  0  0  0  0  0  0
  190.9710  175.8680  135.8030 S   0  0  0  0  0  0  0  0  0  0  0  0
  191.4500  175.6550  137.5170 C   0  0  0  0  0  0  0  0  0  0  0  0
  190.9090  174.7990  138.1960 O   0  0  0  0  0  0  0  0  0  0  0  0
  193.7260  176.4410  137.3690 N   0  0  0  0  0  1  0  0  0  0  0  0
  192.4840  176.5500  138.1170 C   0  0  0  0  0  2  0  0  0  0  0  0
  1  4  2  0  0  0  0
  2  1  1  0  0  0  0
  3  2  1  0  0  0  0
  3 21  1  1  0  0  0
  5 22  1  6  0  0  0
  5  3  1  0  0  0  0
  5  2  1  0  0  0  0
  6  9  1  0  0  0  0
  6 10  1  0  0  0  0
  9 11  1  0  0  0  0
 10  1  1  0  0  0  0
 10  7  2  0  0  0  0
 11  8  2  0  0  0  0
 11  7  1  0  0  0  0
 12 13  2  0  0  0  0
 12 18  1  0  0  0  0
 13 15  1  0  0  0  0
 14 13  1  0  0  0  0
 15 16  2  0  0  0  0
 17 16  1  0  0  0  0
 17  9  1  0  0  0  0
 18 17  2  0  0  0  0
 19 21  2  0  0  0  0
 21 20  1  0  0  0  0
 23 22  1  0  0  0  0
 24 26  1  0  0  0  0
 24 23  1  1  0  0  0
 25 27  1  6  0  0  0
 25 24  1  0  0  0  0
 25 26  1  0  0  0  0
 28 29  1  0  0  0  0
 28 27  1  0  0  0  0
 29 30  1  6  0  0  0
 30 31  1  0  0  0  0
 31 32  1  0  0  0  0
 33 29  1  0  0  0  0
 33 34  1  0  0  0  0
 34 37  1  0  0  0  0
 34 35  2  0  0  0  0
 36 37  1  0  0  0  0
M  END
>  <MODEL>
6

>  <REMARK>
 VINA RESULT:      -7.4      3.693      7.924
  Name = 
  14 active torsions:
  status: ('A' for Active; 'I' for Inactive)
    1  A    between atoms: C_2  and  O_7
    2  A    between atoms: C_2  and  C_25
    3  A    between atoms: C_3  and  C_29
    4  A    between atoms: C_5  and  S_18
    5  A    between atoms: C_5  and  C_37
    6  A    between atoms: C_6  and  C_14
    7  A    between atoms: C_6  and  C_25
    8  A    between atoms: C_8  and  C_13
    9  A    between atoms: C_13  and  C_33
   10  A    between atoms: C_14  and  C_22
   11  A    between atoms: S_18  and  C_25
   12  A    between atoms: C_23  and  C_31
   13  A    between atoms: N_27  and  C_30
   14  A    between atoms: C_33  and  C_34
                            x       y       z     vdW  Elec       q    Type
                         _______ _______ _______ _____ _____    ______ ____

>  <TORSDO>
F 14

$$$$
=
 OpenBabel10232411203D

 37 40  0  0  1  0  0  0  0  0999 V2000
  189.0220  177.9330  139.0910 C   0  0  0  0  0  0  0  0  0  0  0  0
  188.6550  176.9880  138.0890 N   0  0  0  0  0  0  0  0  0  0  0  0
  188.2250  176.6300  136.7040 C   0  0  1  0  0  3  0  0  0  0  0  0
  189.0770  179.1570  138.8010 O   0  0  0  0  0  0  0  0  0  0  0  0
  188.4360  175.5980  137.5960 C   0  0  1  0  0  3  0  0  0  0  0  0
  188.6670  177.8240  141.5200 O   0  0  0  0  0  0  0  0  0  0  0  0
  190.3990  176.6400  140.7920 C   0  0  0  0  0  3  0  0  0  0  0  0
  190.9840  175.8630  142.9190 O   0  0  0  0  0  0  0  0  0  0  0  0
  189.1840  177.2710  142.5740 N   0  0  0  0  0  0  0  0  0  0  0  0
  189.3470  177.4820  140.4490 C   0  0  0  0  0  0  0  0  0  0  0  0
  190.2400  176.5400  142.1600 C   0  0  0  0  0  0  0  0  0  0  0  0
  189.0670  178.0280  146.2340 C   0  0  0  0  0  3  0  0  0  0  0  0
  187.7120  177.8360  146.5160 C   0  0  0  0  0  0  0  0  0  0  0  0
  187.1110  178.0860  148.1400 Cl  0  0  0  0  0  0  0  0  0  0  0  0
  186.8370  177.4430  145.5000 C   0  0  0  0  0  3  0  0  0  0  0  0
  187.3170  177.2500  144.2010 C   0  0  0  0  0  3  0  0  0  0  0  0
  188.6760  177.4450  143.9080 C   0  0  0  0  0  0  0  0  0  0  0  0
  189.5460  177.8340  144.9370 C   0  0  0  0  0  3  0  0  0  0  0  0
  186.3720  178.0050  136.0800 O   0  0  0  0  0  0  0  0  0  0  0  0
  185.8070  175.8910  136.8600 N   0  0  0  0  0  1  0  0  0  0  0  0
  186.7630  176.9010  136.5440 C   0  0  0  0  0  0  0  0  0  0  0  0
  189.7830  174.9510  137.3310 C   0  0  0  0  0  2  0  0  0  0  0  0
  190.6570  175.8620  136.4880 C   0  0  0  0  0  2  0  0  0  0  0  0
  191.4750  175.0490  135.5010 C   0  0  1  0  0  3  0  0  0  0  0  0
  192.0030  173.8750  136.1810 C   0  0  1  0  0  3  0  0  0  0  0  0
  190.8370  173.7400  135.2950 N   0  0  0  0  0  2  0  0  0  0  0  0
  193.2430  173.3820  135.4670 C   0  0  0  0  0  2  0  0  0  0  0  0
  194.1770  172.7160  136.4710 C   0  0  0  0  0  2  0  0  0  0  0  0
  195.3620  173.6040  136.8430 C   0  0  1  0  0  3  0  0  0  0  0  0
  196.1080  173.0790  138.0630 C   0  0  0  0  0  2  0  0  0  0  0  0
  195.5650  173.6230  139.2290 O   0  0  0  0  0  0  0  0  0  0  0  0
  195.5600  174.9210  139.0130 O   0  0  0  0  0  1  0  0  0  0  0  0
  196.5020  173.7920  135.4340 S   0  0  0  0  0  0  0  0  0  0  0  0
  196.5100  175.5800  135.5500 C   0  0  0  0  0  0  0  0  0  0  0  0
  197.4420  176.1490  136.0920 O   0  0  0  0  0  0  0  0  0  0  0  0
  195.2880  177.6560  135.6780 N   0  0  0  0  0  1  0  0  0  0  0  0
  195.3590  176.3660  135.0130 C   0  0  0  0  0  2  0  0  0  0  0  0
  1 10  1  0  0  0  0
  2  1  1  0  0  0  0
  3 21  1  1  0  0  0
  3  5  1  0  0  0  0
  3  2  1  0  0  0  0
  4  1  2  0  0  0  0
  5 22  1  6  0  0  0
  5  2  1  0  0  0  0
  6  9  1  0  0  0  0
  7 11  1  0  0  0  0
  9 17  1  0  0  0  0
 10  7  2  0  0  0  0
 10  6  1  0  0  0  0
 11  9  1  0  0  0  0
 11  8  2  0  0  0  0
 12 13  1  0  0  0  0
 13 14  1  0  0  0  0
 15 13  2  0  0  0  0
 16 15  1  0  0  0  0
 17 16  2  0  0  0  0
 17 18  1  0  0  0  0
 18 12  2  0  0  0  0
 19 21  2  0  0  0  0
 21 20  1  0  0  0  0
 23 22  1  0  0  0  0
 24 25  1  0  0  0  0
 24 23  1  1  0  0  0
 25 27  1  6  0  0  0
 26 24  1  0  0  0  0
 26 25  1  0  0  0  0
 27 28  1  0  0  0  0
 29 28  1  6  0  0  0
 29 30  1  0  0  0  0
 30 31  1  0  0  0  0
 32 31  1  0  0  0  0
 33 34  1  0  0  0  0
 33 29  1  0  0  0  0
 34 35  2  0  0  0  0
 37 34  1  0  0  0  0
 37 36  1  0  0  0  0
M  END
>  <MODEL>
7

>  <REMARK>
 VINA RESULT:      -7.1      4.819     10.539
  Name = 
  14 active torsions:
  status: ('A' for Active; 'I' for Inactive)
    1  A    between atoms: C_2  and  O_7
    2  A    between atoms: C_2  and  C_25
    3  A    between atoms: C_3  and  C_29
    4  A    between atoms: C_5  and  S_18
    5  A    between atoms: C_5  and  C_37
    6  A    between atoms: C_6  and  C_14
    7  A    between atoms: C_6  and  C_25
    8  A    between atoms: C_8  and  C_13
    9  A    between atoms: C_13  and  C_33
   10  A    between atoms: C_14  and  C_22
   11  A    between atoms: S_18  and  C_25
   12  A    between atoms: C_23  and  C_31
   13  A    between atoms: N_27  and  C_30
   14  A    between atoms: C_33  and  C_34
                            x       y       z     vdW  Elec       q    Type
                         _______ _______ _______ _____ _____    ______ ____

>  <TORSDO>
F 14

$$$$
=
 OpenBabel10232411203D

 37 40  0  0  1  0  0  0  0  0999 V2000
  189.8630  176.1260  142.5370 C   0  0  0  0  0  0  0  0  0  0  0  0
  190.1600  176.6880  141.2620 N   0  0  0  0  0  0  0  0  0  0  0  0
  190.9170  176.7170  139.9740 C   0  0  1  0  0  3  0  0  0  0  0  0
  190.4630  175.0850  142.9120 O   0  0  0  0  0  0  0  0  0  0  0  0
  189.9400  177.6740  140.1650 C   0  0  1  0  0  3  0  0  0  0  0  0
  187.6520  177.0930  143.0000 O   0  0  0  0  0  0  0  0  0  0  0  0
  189.0200  177.0520  144.7490 C   0  0  0  0  0  3  0  0  0  0  0  0
  187.4700  178.0290  146.2030 O   0  0  0  0  0  0  0  0  0  0  0  0
  186.9830  177.6130  143.9830 N   0  0  0  0  0  0  0  0  0  0  0  0
  188.8550  176.7480  143.4030 C   0  0  0  0  0  0  0  0  0  0  0  0
  187.7910  177.5980  145.0640 C   0  0  0  0  0  0  0  0  0  0  0  0
  183.6600  178.4950  142.5130 C   0  0  0  0  0  3  0  0  0  0  0  0
  182.9830  178.9920  143.6300 C   0  0  0  0  0  0  0  0  0  0  0  0
  181.3290  179.5450  143.4780 Cl  0  0  0  0  0  0  0  0  0  0  0  0
  183.6280  179.0490  144.8680 C   0  0  0  0  0  3  0  0  0  0  0  0
  184.9470  178.6020  144.9890 C   0  0  0  0  0  3  0  0  0  0  0  0
  185.6330  178.0960  143.8730 C   0  0  0  0  0  0  0  0  0  0  0  0
  184.9770  178.0490  142.6350 C   0  0  0  0  0  3  0  0  0  0  0  0
  192.4960  178.0190  141.2090 O   0  0  0  0  0  0  0  0  0  0  0  0
  193.3460  176.9850  139.3110 N   0  0  0  0  0  1  0  0  0  0  0  0
  192.2770  177.2960  140.2010 C   0  0  0  0  0  0  0  0  0  0  0  0
  188.6840  177.2920  139.4040 C   0  0  0  0  0  2  0  0  0  0  0  0
  189.0110  176.9860  137.9530 C   0  0  0  0  0  2  0  0  0  0  0  0
  187.9490  177.5660  137.0360 C   0  0  1  0  0  3  0  0  0  0  0  0
  186.6610  177.5120  137.7120 C   0  0  1  0  0  3  0  0  0  0  0  0
  187.3920  178.7860  137.6390 N   0  0  0  0  0  2  0  0  0  0  0  0
  185.5450  177.5090  136.6900 C   0  0  0  0  0  2  0  0  0  0  0  0
  184.6540  176.2920  136.9130 C   0  0  0  0  0  2  0  0  0  0  0  0
  183.2270  176.6770  137.2980 C   0  0  1  0  0  3  0  0  0  0  0  0
  182.2600  175.5090  137.1440 C   0  0  0  0  0  2  0  0  0  0  0  0
  182.9690  174.3130  137.0210 O   0  0  0  0  0  0  0  0  0  0  0  0
  182.2440  173.5850  136.1990 O   0  0  0  0  0  1  0  0  0  0  0  0
  183.1650  177.3330  138.9960 S   0  0  0  0  0  0  0  0  0  0  0  0
  182.4580  178.8940  138.4740 C   0  0  0  0  0  0  0  0  0  0  0  0
  181.4500  178.9040  137.7870 O   0  0  0  0  0  0  0  0  0  0  0  0
  184.4860  179.9170  139.2870 N   0  0  0  0  0  1  0  0  0  0  0  0
  183.1240  180.1770  138.8500 C   0  0  0  0  0  2  0  0  0  0  0  0
  1  4  2  0  0  0  0
  1 10  1  0  0  0  0
  2  1  1  0  0  0  0
  3  5  1  0  0  0  0
  3 21  1  1  0  0  0
  3  2  1  0  0  0  0
  5 22  1  6  0  0  0
  5  2  1  0  0  0  0
  6 10  1  0  0  0  0
  6  9  1  0  0  0  0
  7 11  1  0  0  0  0
  9 11  1  0  0  0  0
 10  7  2  0  0  0  0
 11  8  2  0  0  0  0
 12 18  2  0  0  0  0
 12 13  1  0  0  0  0
 13 15  2  0  0  0  0
 14 13  1  0  0  0  0
 15 16  1  0  0  0  0
 17  9  1  0  0  0  0
 17 16  2  0  0  0  0
 18 17  1  0  0  0  0
 20 21  1  0  0  0  0
 21 19  2  0  0  0  0
 23 22  1  0  0  0  0
 24 26  1  0  0  0  0
 24 25  1  0  0  0  0
 24 23  1  1  0  0  0
 25 27  1  6  0  0  0
 26 25  1  0  0  0  0
 27 28  1  0  0  0  0
 29 28  1  1  0  0  0
 29 33  1  0  0  0  0
 30 29  1  0  0  0  0
 31 30  1  0  0  0  0
 32 31  1  0  0  0  0
 34 37  1  0  0  0  0
 34 33  1  0  0  0  0
 35 34  2  0  0  0  0
 37 36  1  0  0  0  0
M  END
>  <MODEL>
8

>  <REMARK>
 VINA RESULT:      -7.1      3.679      7.112
  Name = 
  14 active torsions:
  status: ('A' for Active; 'I' for Inactive)
    1  A    between atoms: C_2  and  O_7
    2  A    between atoms: C_2  and  C_25
    3  A    between atoms: C_3  and  C_29
    4  A    between atoms: C_5  and  S_18
    5  A    between atoms: C_5  and  C_37
    6  A    between atoms: C_6  and  C_14
    7  A    between atoms: C_6  and  C_25
    8  A    between atoms: C_8  and  C_13
    9  A    between atoms: C_13  and  C_33
   10  A    between atoms: C_14  and  C_22
   11  A    between atoms: S_18  and  C_25
   12  A    between atoms: C_23  and  C_31
   13  A    between atoms: N_27  and  C_30
   14  A    between atoms: C_33  and  C_34
                            x       y       z     vdW  Elec       q    Type
                         _______ _______ _______ _____ _____    ______ ____

>  <TORSDO>
F 14

$$$$
=
 OpenBabel10232411203D

 37 40  0  0  1  0  0  0  0  0999 V2000
  190.6280  178.4640  143.7730 C   0  0  0  0  0  0  0  0  0  0  0  0
  190.1350  177.8490  144.9590 N   0  0  0  0  0  0  0  0  0  0  0  0
  190.1870  177.5780  146.4280 C   0  0  1  0  0  3  0  0  0  0  0  0
  191.6230  179.2330  143.8390 O   0  0  0  0  0  0  0  0  0  0  0  0
  189.1550  177.0110  145.7080 C   0  0  1  0  0  3  0  0  0  0  0  0
  190.5800  177.7000  141.4370 O   0  0  0  0  0  0  0  0  0  0  0  0
  188.6400  178.4780  142.1890 C   0  0  0  0  0  3  0  0  0  0  0  0
  187.5130  178.1040  140.1740 O   0  0  0  0  0  0  0  0  0  0  0  0
  189.7500  177.5930  140.4460 N   0  0  0  0  0  0  0  0  0  0  0  0
  189.9730  178.2150  142.4840 C   0  0  0  0  0  0  0  0  0  0  0  0
  188.5580  178.0560  140.8760 C   0  0  0  0  0  0  0  0  0  0  0  0
  189.7300  177.0030  136.7530 C   0  0  0  0  0  3  0  0  0  0  0  0
  190.7830  176.0950  136.6100 C   0  0  0  0  0  0  0  0  0  0  0  0
  191.2110  175.4940  135.0230 Cl  0  0  0  0  0  0  0  0  0  0  0  0
  191.4920  175.6660  137.7350 C   0  0  0  0  0  3  0  0  0  0  0  0
  191.1530  176.1510  139.0010 C   0  0  0  0  0  3  0  0  0  0  0  0
  190.1000  177.0680  139.1540 C   0  0  0  0  0  0  0  0  0  0  0  0
  189.3910  177.4860  138.0190 C   0  0  0  0  0  3  0  0  0  0  0  0
  191.5280  175.6820  145.8630 O   0  0  0  0  0  0  0  0  0  0  0  0
  191.9940  176.6320  147.9300 N   0  0  0  0  0  1  0  0  0  0  0  0
  191.2500  176.5650  146.7160 C   0  0  0  0  0  0  0  0  0  0  0  0
  187.8800  177.8090  145.9140 C   0  0  0  0  0  2  0  0  0  0  0  0
  186.8720  177.4970  144.8220 C   0  0  0  0  0  2  0  0  0  0  0  0
  185.9910  178.7030  144.5520 C   0  0  1  0  0  3  0  0  0  0  0  0
  184.5960  178.2910  144.6110 C   0  0  1  0  0  3  0  0  0  0  0  0
  185.1930  179.0060  145.7490 N   0  0  0  0  0  2  0  0  0  0  0  0
  183.7440  179.2450  143.8030 C   0  0  0  0  0  2  0  0  0  0  0  0
  183.8950  178.9280  142.3190 C   0  0  0  0  0  2  0  0  0  0  0  0
  182.5630  178.5690  141.6620 C   0  0  1  0  0  3  0  0  0  0  0  0
  181.3840  178.7940  142.6000 C   0  0  0  0  0  2  0  0  0  0  0  0
  180.4670  179.6690  142.0180 O   0  0  0  0  0  0  0  0  0  0  0  0
  180.2220  180.5590  142.9550 O   0  0  0  0  0  1  0  0  0  0  0  0
  182.3300  179.5010  140.1130 S   0  0  0  0  0  0  0  0  0  0  0  0
  183.8940  178.9540  139.4320 C   0  0  0  0  0  0  0  0  0  0  0  0
  184.8380  179.7240  139.3870 O   0  0  0  0  0  0  0  0  0  0  0  0
  184.3560  177.6230  137.4740 N   0  0  0  0  0  1  0  0  0  0  0  0
  184.0260  177.5690  138.8880 C   0  0  0  0  0  2  0  0  0  0  0  0
  1  4  2  0  0  0  0
  1  2  1  0  0  0  0
  2  5  1  0  0  0  0
  2  3  1  0  0  0  0
  3 21  1  6  0  0  0
  5 22  1  1  0  0  0
  5  3  1  0  0  0  0
  6 10  1  0  0  0  0
  7 10  2  0  0  0  0
  8 11  2  0  0  0  0
  9 11  1  0  0  0  0
  9  6  1  0  0  0  0
 10  1  1  0  0  0  0
 11  7  1  0  0  0  0
 12 18  1  0  0  0  0
 13 12  2  0  0  0  0
 13 15  1  0  0  0  0
 14 13  1  0  0  0  0
 15 16  2  0  0  0  0
 16 17  1  0  0  0  0
 17  9  1  0  0  0  0
 18 17  2  0  0  0  0
 19 21  2  0  0  0  0
 21 20  1  0  0  0  0
 23 22  1  0  0  0  0
 24 25  1  0  0  0  0
 24 23  1  1  0  0  0
 24 26  1  0  0  0  0
 25 27  1  6  0  0  0
 25 26  1  0  0  0  0
 28 27  1  0  0  0  0
 29 28  1  1  0  0  0
 29 30  1  0  0  0  0
 31 30  1  0  0  0  0
 31 32  1  0  0  0  0
 33 29  1  0  0  0  0
 34 33  1  0  0  0  0
 35 34  2  0  0  0  0
 36 37  1  0  0  0  0
 37 34  1  0  0  0  0
M  END
>  <MODEL>
9

>  <REMARK>
 VINA RESULT:      -6.9      1.575      2.127
  Name = 
  14 active torsions:
  status: ('A' for Active; 'I' for Inactive)
    1  A    between atoms: C_2  and  O_7
    2  A    between atoms: C_2  and  C_25
    3  A    between atoms: C_3  and  C_29
    4  A    between atoms: C_5  and  S_18
    5  A    between atoms: C_5  and  C_37
    6  A    between atoms: C_6  and  C_14
    7  A    between atoms: C_6  and  C_25
    8  A    between atoms: C_8  and  C_13
    9  A    between atoms: C_13  and  C_33
   10  A    between atoms: C_14  and  C_22
   11  A    between atoms: S_18  and  C_25
   12  A    between atoms: C_23  and  C_31
   13  A    between atoms: N_27  and  C_30
   14  A    between atoms: C_33  and  C_34
                            x       y       z     vdW  Elec       q    Type
                         _______ _______ _______ _____ _____    ______ ____

>  <TORSDO>
F 14

$$$$
