=
 OpenBabel10232408223D

 30 32  0  0  0  0  0  0  0  0999 V2000
  188.0880  176.6380  143.4050 C   0  0  0  0  0  0  0  0  0  0  0  0
  187.9350  175.3940  143.2670 O   0  0  0  0  0  0  0  0  0  0  0  0
  190.2670  176.6530  142.1470 C   0  0  0  0  0  0  0  0  0  0  0  0
  190.4930  175.4560  142.4690 O   0  0  0  0  0  0  0  0  0  0  0  0
  189.0890  177.3320  142.6310 N   0  0  0  0  0  0  0  0  0  0  0  0
  189.1730  177.4810  147.5060 C   0  0  0  0  0  3  0  0  0  0  0  0
  185.4980  178.7660  146.0490 N   0  0  0  0  0  0  0  0  0  0  0  0
  185.9270  177.8040  143.9030 C   0  0  0  0  0  0  0  0  0  0  0  0
  185.4850  177.5720  142.5690 N   0  0  0  0  0  1  0  0  0  0  0  0
  185.0970  178.5070  144.7780 C   0  0  0  0  0  3  0  0  0  0  0  0
  188.8170  177.2010  146.1840 C   0  0  0  0  0  3  0  0  0  0  0  0
  188.3010  178.1980  148.3290 C   0  0  0  0  0  3  0  0  0  0  0  0
  187.5860  177.6400  145.6690 C   0  0  0  0  0  0  0  0  0  0  0  0
  186.7050  178.3550  146.5140 C   0  0  0  0  0  0  0  0  0  0  0  0
  187.0690  178.6330  147.8340 C   0  0  0  0  0  3  0  0  0  0  0  0
  187.1940  177.3690  144.3390 C   0  0  0  0  0  0  0  0  0  0  0  0
  188.9050  178.7500  142.3130 C   0  0  0  0  0  2  0  0  0  0  0  0
  187.9670  178.9180  141.1590 C   0  0  0  0  0  0  0  0  0  0  0  0
  187.0130  179.6740  141.2640 O   0  0  0  0  0  0  0  0  0  0  0  0
  186.8950  177.9310  139.1400 C   0  0  0  0  0  2  0  0  0  0  0  0
  187.2130  178.1270  137.6680 C   0  0  0  0  0  2  0  0  0  0  0  0
  188.1930  178.1480  139.8940 C   0  0  0  0  0  3  0  0  0  0  0  0
  189.1150  178.8850  138.9510 C   0  0  0  0  0  2  0  0  0  0  0  0
  188.6940  178.4400  137.5700 C   0  0  0  0  0  2  0  0  0  0  0  0
  191.2490  177.3440  141.2530 C   0  0  0  0  0  2  0  0  0  0  0  0
  192.3200  176.9630  139.1130 N   0  0  0  0  0  0  0  0  0  0  0  0
  191.4460  176.5790  139.9890 C   0  0  0  0  0  3  0  0  0  0  0  0
  192.5490  176.2550  137.8910 C   0  0  0  0  0  0  0  0  0  0  0  0
  193.6400  176.4110  137.2850 O   0  0  0  0  0  0  0  0  0  0  0  0
  191.5240  175.3340  137.3150 C   0  0  0  0  0  1  0  0  0  0  0  0
  1 16  1  0  0  0  0
  2  1  2  0  0  0  0
  3  4  2  0  0  0  0
  3  5  1  0  0  0  0
  5  1  1  0  0  0  0
  6 12  1  0  0  0  0
  7 14  1  0  0  0  0
  8 16  2  0  0  0  0
  8 10  1  0  0  0  0
  9  8  1  0  0  0  0
 10  7  2  0  0  0  0
 11  6  2  0  0  0  0
 13 11  1  0  0  0  0
 13 14  2  0  0  0  0
 14 15  1  0  0  0  0
 15 12  2  0  0  0  0
 16 13  1  0  0  0  0
 17  5  1  0  0  0  0
 18 19  2  0  0  0  0
 18 17  1  0  0  0  0
 20 22  1  0  0  0  0
 21 20  1  0  0  0  0
 22 18  1  0  0  0  0
 23 22  1  0  0  0  0
 24 21  1  0  0  0  0
 24 23  1  0  0  0  0
 25  3  1  0  0  0  0
 26 27  2  0  0  0  0
 27 25  1  0  0  0  0
 28 26  1  0  0  0  0
 29 28  2  0  0  0  0
 30 28  1  0  0  0  0
M  END
>  <MODEL>
1

>  <REMARK>
 VINA RESULT:      -7.4      0.000      0.000
  Name = 
  7 active torsions:
  status: ('A' for Active; 'I' for Inactive)
    1  A    between atoms: C_1  and  N_6
    2  A    between atoms: C_5  and  C_29
    3  A    between atoms: C_8  and  C_15
    4  A    between atoms: C_13  and  C_19
    5  A    between atoms: C_13  and  N_30
    6  A    between atoms: C_15  and  C_23
    7  A    between atoms: C_19  and  C_20
                            x       y       z     vdW  Elec       q    Type
                         _______ _______ _______ _____ _____    ______ ____

>  <TORSDO>
F 7

$$$$
=
 OpenBabel10232408223D

 30 32  0  0  0  0  0  0  0  0999 V2000
  188.0370  176.7360  143.4340 C   0  0  0  0  0  0  0  0  0  0  0  0
  187.8640  175.4930  143.3080 O   0  0  0  0  0  0  0  0  0  0  0  0
  190.2250  176.7010  142.1910 C   0  0  0  0  0  0  0  0  0  0  0  0
  190.4290  175.5030  142.5280 O   0  0  0  0  0  0  0  0  0  0  0  0
  189.0560  177.4050  142.6600 N   0  0  0  0  0  0  0  0  0  0  0  0
  184.1320  178.1750  142.2610 C   0  0  0  0  0  3  0  0  0  0  0  0
  185.5070  178.8840  146.1190 N   0  0  0  0  0  0  0  0  0  0  0  0
  187.5780  177.7820  145.6650 C   0  0  0  0  0  0  0  0  0  0  0  0
  188.8490  177.3460  146.1390 N   0  0  0  0  0  1  0  0  0  0  0  0
  186.7340  178.4760  146.5320 C   0  0  0  0  0  3  0  0  0  0  0  0
  185.3970  177.7190  142.6380 C   0  0  0  0  0  3  0  0  0  0  0  0
  183.3300  178.8560  143.1800 C   0  0  0  0  0  3  0  0  0  0  0  0
  185.8730  177.9350  143.9420 C   0  0  0  0  0  0  0  0  0  0  0  0
  185.0580  178.6370  144.8620 C   0  0  0  0  0  0  0  0  0  0  0  0
  183.7930  179.0880  144.4770 C   0  0  0  0  0  3  0  0  0  0  0  0
  187.1500  177.4920  144.3540 C   0  0  0  0  0  0  0  0  0  0  0  0
  188.8980  178.8220  142.3260 C   0  0  0  0  0  2  0  0  0  0  0  0
  187.9670  178.9930  141.1660 C   0  0  0  0  0  0  0  0  0  0  0  0
  187.0460  179.7920  141.2470 O   0  0  0  0  0  0  0  0  0  0  0  0
  186.8510  177.9740  139.1880 C   0  0  0  0  0  2  0  0  0  0  0  0
  187.1630  178.1110  137.7080 C   0  0  0  0  0  2  0  0  0  0  0  0
  188.1600  178.1760  139.9250 C   0  0  0  0  0  3  0  0  0  0  0  0
  189.0970  178.8540  138.9530 C   0  0  0  0  0  2  0  0  0  0  0  0
  188.6520  178.3770  137.5900 C   0  0  0  0  0  2  0  0  0  0  0  0
  191.2240  177.3660  141.2970 C   0  0  0  0  0  2  0  0  0  0  0  0
  192.3190  176.9300  139.1800 N   0  0  0  0  0  0  0  0  0  0  0  0
  191.4170  176.5830  140.0420 C   0  0  0  0  0  3  0  0  0  0  0  0
  192.5440  176.2050  137.9670 C   0  0  0  0  0  0  0  0  0  0  0  0
  193.5440  176.4880  137.2580 O   0  0  0  0  0  0  0  0  0  0  0  0
  191.6220  175.1190  137.5210 C   0  0  0  0  0  1  0  0  0  0  0  0
  1 16  1  0  0  0  0
  2  1  2  0  0  0  0
  3  4  2  0  0  0  0
  3  5  1  0  0  0  0
  5  1  1  0  0  0  0
  6 11  2  0  0  0  0
  6 12  1  0  0  0  0
  7 10  1  0  0  0  0
  8  9  1  0  0  0  0
  8 10  2  0  0  0  0
 11 13  1  0  0  0  0
 12 15  2  0  0  0  0
 13 16  2  0  0  0  0
 13 14  1  0  0  0  0
 14  7  2  0  0  0  0
 15 14  1  0  0  0  0
 16  8  1  0  0  0  0
 17  5  1  0  0  0  0
 18 19  2  0  0  0  0
 18 17  1  0  0  0  0
 20 22  1  0  0  0  0
 21 20  1  0  0  0  0
 22 18  1  0  0  0  0
 23 22  1  0  0  0  0
 24 21  1  0  0  0  0
 24 23  1  0  0  0  0
 25  3  1  0  0  0  0
 26 27  2  0  0  0  0
 27 25  1  0  0  0  0
 28 26  1  0  0  0  0
 29 28  2  0  0  0  0
 30 28  1  0  0  0  0
M  END
>  <MODEL>
2

>  <REMARK>
 VINA RESULT:      -7.3      0.981      2.577
  Name = 
  7 active torsions:
  status: ('A' for Active; 'I' for Inactive)
    1  A    between atoms: C_1  and  N_6
    2  A    between atoms: C_5  and  C_29
    3  A    between atoms: C_8  and  C_15
    4  A    between atoms: C_13  and  C_19
    5  A    between atoms: C_13  and  N_30
    6  A    between atoms: C_15  and  C_23
    7  A    between atoms: C_19  and  C_20
                            x       y       z     vdW  Elec       q    Type
                         _______ _______ _______ _____ _____    ______ ____

>  <TORSDO>
F 7

$$$$
=
 OpenBabel10232408223D

 30 32  0  0  0  0  0  0  0  0999 V2000
  183.7870  178.8700  140.6060 C   0  0  0  0  0  0  0  0  0  0  0  0
  183.9040  179.8590  139.8330 O   0  0  0  0  0  0  0  0  0  0  0  0
  186.2700  178.6700  140.9580 C   0  0  0  0  0  0  0  0  0  0  0  0
  186.5000  179.1890  139.8330 O   0  0  0  0  0  0  0  0  0  0  0  0
  184.9150  178.4310  141.3930 N   0  0  0  0  0  0  0  0  0  0  0  0
  182.6730  175.4500  138.2040 C   0  0  0  0  0  3  0  0  0  0  0  0
  179.9820  176.9700  140.9840 N   0  0  0  0  0  0  0  0  0  0  0  0
  181.5060  178.6950  141.6280 C   0  0  0  0  0  0  0  0  0  0  0  0
  181.7850  179.8160  142.4620 N   0  0  0  0  0  1  0  0  0  0  0  0
  180.2710  178.0560  141.7460 C   0  0  0  0  0  3  0  0  0  0  0  0
  183.0280  176.5600  138.9740 C   0  0  0  0  0  3  0  0  0  0  0  0
  181.4240  174.8480  138.3770 C   0  0  0  0  0  3  0  0  0  0  0  0
  182.1380  177.0790  139.9300 C   0  0  0  0  0  0  0  0  0  0  0  0
  180.8710  176.4700  140.0880 C   0  0  0  0  0  0  0  0  0  0  0  0
  180.5250  175.3590  139.3160 C   0  0  0  0  0  3  0  0  0  0  0  0
  182.4650  178.2040  140.7200 C   0  0  0  0  0  0  0  0  0  0  0  0
  184.6870  177.7430  142.6650 C   0  0  0  0  0  2  0  0  0  0  0  0
  184.9340  178.6640  143.8180 C   0  0  0  0  0  0  0  0  0  0  0  0
  184.8120  179.8700  143.6620 O   0  0  0  0  0  0  0  0  0  0  0  0
  186.6600  177.3620  145.0530 C   0  0  0  0  0  2  0  0  0  0  0  0
  187.4470  177.7170  146.3030 C   0  0  0  0  0  2  0  0  0  0  0  0
  185.3420  178.1070  145.1470 C   0  0  0  0  0  3  0  0  0  0  0  0
  185.5420  179.2000  146.1710 C   0  0  0  0  0  2  0  0  0  0  0  0
  186.5790  178.6520  147.1240 C   0  0  0  0  0  2  0  0  0  0  0  0
  187.4370  178.3130  141.8250 C   0  0  0  0  0  2  0  0  0  0  0  0
  189.6250  177.3190  141.5140 N   0  0  0  0  0  0  0  0  0  0  0  0
  188.6250  177.9590  140.9960 C   0  0  0  0  0  3  0  0  0  0  0  0
  190.7810  176.9510  140.7560 C   0  0  0  0  0  0  0  0  0  0  0  0
  190.6540  176.1570  139.7880 O   0  0  0  0  0  0  0  0  0  0  0  0
  192.1350  177.4880  141.0830 C   0  0  0  0  0  1  0  0  0  0  0  0
  1 16  1  0  0  0  0
  1  5  1  0  0  0  0
  2  1  2  0  0  0  0
  3  5  1  0  0  0  0
  3 25  1  0  0  0  0
  4  3  2  0  0  0  0
  5 17  1  0  0  0  0
  6 12  2  0  0  0  0
  6 11  1  0  0  0  0
  7 10  2  0  0  0  0
  8 10  1  0  0  0  0
  8  9  1  0  0  0  0
 11 13  2  0  0  0  0
 12 15  1  0  0  0  0
 13 14  1  0  0  0  0
 13 16  1  0  0  0  0
 14  7  1  0  0  0  0
 15 14  2  0  0  0  0
 16  8  2  0  0  0  0
 17 18  1  0  0  0  0
 18 22  1  0  0  0  0
 19 18  2  0  0  0  0
 20 22  1  0  0  0  0
 20 21  1  0  0  0  0
 21 24  1  0  0  0  0
 22 23  1  0  0  0  0
 23 24  1  0  0  0  0
 27 26  2  0  0  0  0
 27 25  1  0  0  0  0
 28 30  1  0  0  0  0
 28 26  1  0  0  0  0
 29 28  2  0  0  0  0
M  END
>  <MODEL>
3

>  <REMARK>
 VINA RESULT:      -7.0      3.589      6.863
  Name = 
  7 active torsions:
  status: ('A' for Active; 'I' for Inactive)
    1  A    between atoms: C_1  and  N_6
    2  A    between atoms: C_5  and  C_29
    3  A    between atoms: C_8  and  C_15
    4  A    between atoms: C_13  and  C_19
    5  A    between atoms: C_13  and  N_30
    6  A    between atoms: C_15  and  C_23
    7  A    between atoms: C_19  and  C_20
                            x       y       z     vdW  Elec       q    Type
                         _______ _______ _______ _____ _____    ______ ____

>  <TORSDO>
F 7

$$$$
=
 OpenBabel10232408223D

 30 32  0  0  0  0  0  0  0  0999 V2000
  181.6350  178.1470  140.6040 C   0  0  0  0  0  0  0  0  0  0  0  0
  180.7040  178.0800  141.4520 O   0  0  0  0  0  0  0  0  0  0  0  0
  183.3740  178.6720  142.3450 C   0  0  0  0  0  0  0  0  0  0  0  0
  182.5060  179.1930  143.0960 O   0  0  0  0  0  0  0  0  0  0  0  0
  183.0100  178.1680  141.0430 N   0  0  0  0  0  0  0  0  0  0  0  0
  181.1390  181.7990  138.3430 C   0  0  0  0  0  3  0  0  0  0  0  0
  180.6620  178.1310  136.4470 N   0  0  0  0  0  0  0  0  0  0  0  0
  181.0900  176.9420  138.4760 C   0  0  0  0  0  0  0  0  0  0  0  0
  181.2340  175.6890  139.1390 N   0  0  0  0  0  1  0  0  0  0  0  0
  180.7820  176.9550  137.1150 C   0  0  0  0  0  3  0  0  0  0  0  0
  181.2900  180.6190  139.0740 C   0  0  0  0  0  3  0  0  0  0  0  0
  180.8400  181.7460  136.9800 C   0  0  0  0  0  3  0  0  0  0  0  0
  181.1480  179.3690  138.4480 C   0  0  0  0  0  0  0  0  0  0  0  0
  180.8330  179.3260  137.0700 C   0  0  0  0  0  0  0  0  0  0  0  0
  180.6860  180.5110  136.3450 C   0  0  0  0  0  3  0  0  0  0  0  0
  181.2880  178.1570  139.1600 C   0  0  0  0  0  0  0  0  0  0  0  0
  184.0600  177.6540  140.1600 C   0  0  0  0  0  2  0  0  0  0  0  0
  184.6280  178.7510  139.3160 C   0  0  0  0  0  0  0  0  0  0  0  0
  184.5630  179.9070  139.7080 O   0  0  0  0  0  0  0  0  0  0  0  0
  186.6930  177.9820  138.1590 C   0  0  0  0  0  2  0  0  0  0  0  0
  186.9030  176.8330  137.1870 C   0  0  0  0  0  2  0  0  0  0  0  0
  185.2540  178.4300  137.9940 C   0  0  0  0  0  3  0  0  0  0  0  0
  184.5330  177.3000  137.2960 C   0  0  0  0  0  2  0  0  0  0  0  0
  185.5920  176.6290  136.4520 C   0  0  0  0  0  2  0  0  0  0  0  0
  184.7840  178.5920  142.8410 C   0  0  0  0  0  2  0  0  0  0  0  0
  185.8520  178.2510  144.9890 N   0  0  0  0  0  0  0  0  0  0  0  0
  184.8300  178.6930  144.3290 C   0  0  0  0  0  3  0  0  0  0  0  0
  185.9420  178.3340  146.4150 C   0  0  0  0  0  0  0  0  0  0  0  0
  184.9410  178.7180  147.0730 O   0  0  0  0  0  0  0  0  0  0  0  0
  187.1950  177.9730  147.1430 C   0  0  0  0  0  1  0  0  0  0  0  0
  1  5  1  0  0  0  0
  1  2  2  0  0  0  0
  3 25  1  0  0  0  0
  3  4  2  0  0  0  0
  5  3  1  0  0  0  0
  6 11  1  0  0  0  0
  7 14  1  0  0  0  0
  7 10  2  0  0  0  0
  8  9  1  0  0  0  0
  8 16  2  0  0  0  0
 10  8  1  0  0  0  0
 12  6  2  0  0  0  0
 13 11  2  0  0  0  0
 13 16  1  0  0  0  0
 14 13  1  0  0  0  0
 15 12  1  0  0  0  0
 15 14  2  0  0  0  0
 16  1  1  0  0  0  0
 17  5  1  0  0  0  0
 18 19  2  0  0  0  0
 18 17  1  0  0  0  0
 21 20  1  0  0  0  0
 22 20  1  0  0  0  0
 22 18  1  0  0  0  0
 23 22  1  0  0  0  0
 24 21  1  0  0  0  0
 24 23  1  0  0  0  0
 25 27  1  0  0  0  0
 26 28  1  0  0  0  0
 27 26  2  0  0  0  0
 28 29  2  0  0  0  0
 28 30  1  0  0  0  0
M  END
>  <MODEL>
4

>  <REMARK>
 VINA RESULT:      -6.7      4.732      8.620
  Name = 
  7 active torsions:
  status: ('A' for Active; 'I' for Inactive)
    1  A    between atoms: C_1  and  N_6
    2  A    between atoms: C_5  and  C_29
    3  A    between atoms: C_8  and  C_15
    4  A    between atoms: C_13  and  C_19
    5  A    between atoms: C_13  and  N_30
    6  A    between atoms: C_15  and  C_23
    7  A    between atoms: C_19  and  C_20
                            x       y       z     vdW  Elec       q    Type
                         _______ _______ _______ _____ _____    ______ ____

>  <TORSDO>
F 7

$$$$
=
 OpenBabel10232408223D

 30 32  0  0  0  0  0  0  0  0999 V2000
  188.6960  178.2950  138.9130 C   0  0  0  0  0  0  0  0  0  0  0  0
  189.2180  179.3950  138.5860 O   0  0  0  0  0  0  0  0  0  0  0  0
  187.1460  178.2780  136.9320 C   0  0  0  0  0  0  0  0  0  0  0  0
  187.1580  179.5380  136.8760 O   0  0  0  0  0  0  0  0  0  0  0  0
  187.8630  177.5830  137.9730 N   0  0  0  0  0  0  0  0  0  0  0  0
  185.9530  178.6110  142.2410 C   0  0  0  0  0  3  0  0  0  0  0  0
  189.5800  176.6450  142.7500 N   0  0  0  0  0  0  0  0  0  0  0  0
  190.2200  177.0810  140.4890 C   0  0  0  0  0  0  0  0  0  0  0  0
  191.1840  176.9280  139.4510 N   0  0  0  0  0  1  0  0  0  0  0  0
  190.4880  176.5380  141.7460 C   0  0  0  0  0  3  0  0  0  0  0  0
  186.8440  178.5170  141.1690 C   0  0  0  0  0  3  0  0  0  0  0  0
  186.2760  178.0380  143.4730 C   0  0  0  0  0  3  0  0  0  0  0  0
  188.0680  177.8430  141.3170 C   0  0  0  0  0  0  0  0  0  0  0  0
  188.3910  177.2770  142.5730 C   0  0  0  0  0  0  0  0  0  0  0  0
  187.4930  177.3740  143.6390 C   0  0  0  0  0  3  0  0  0  0  0  0
  188.9930  177.7340  140.2550 C   0  0  0  0  0  0  0  0  0  0  0  0
  187.7510  176.1260  138.0620 C   0  0  0  0  0  2  0  0  0  0  0  0
  188.5370  175.4660  136.9730 C   0  0  0  0  0  0  0  0  0  0  0  0
  189.6420  175.8980  136.6810 O   0  0  0  0  0  0  0  0  0  0  0  0
  188.8160  173.0560  136.4140 C   0  0  0  0  0  2  0  0  0  0  0  0
  187.8590  171.8900  136.5960 C   0  0  0  0  0  2  0  0  0  0  0  0
  187.9590  174.2940  136.2390 C   0  0  0  0  0  3  0  0  0  0  0  0
  186.5840  173.9380  136.7540 C   0  0  0  0  0  2  0  0  0  0  0  0
  186.4530  172.4530  136.5100 C   0  0  0  0  0  2  0  0  0  0  0  0
  186.3700  177.5310  135.8920 C   0  0  0  0  0  2  0  0  0  0  0  0
  184.5960  177.6240  137.5400 N   0  0  0  0  0  0  0  0  0  0  0  0
  184.9700  177.2900  136.3460 C   0  0  0  0  0  3  0  0  0  0  0  0
  183.2620  177.4190  138.0150 C   0  0  0  0  0  0  0  0  0  0  0  0
  182.3000  177.5300  137.2120 O   0  0  0  0  0  0  0  0  0  0  0  0
  182.9820  177.0750  139.4410 C   0  0  0  0  0  1  0  0  0  0  0  0
  1 16  1  0  0  0  0
  2  1  2  0  0  0  0
  3  5  1  0  0  0  0
  4  3  2  0  0  0  0
  5 17  1  0  0  0  0
  5  1  1  0  0  0  0
  6 12  1  0  0  0  0
  8 10  1  0  0  0  0
  9  8  1  0  0  0  0
 10  7  2  0  0  0  0
 11 13  1  0  0  0  0
 11  6  2  0  0  0  0
 12 15  2  0  0  0  0
 13 14  2  0  0  0  0
 14  7  1  0  0  0  0
 14 15  1  0  0  0  0
 16  8  2  0  0  0  0
 16 13  1  0  0  0  0
 18 17  1  0  0  0  0
 19 18  2  0  0  0  0
 20 21  1  0  0  0  0
 22 20  1  0  0  0  0
 22 23  1  0  0  0  0
 22 18  1  0  0  0  0
 24 21  1  0  0  0  0
 24 23  1  0  0  0  0
 25 27  1  0  0  0  0
 25  3  1  0  0  0  0
 26 28  1  0  0  0  0
 27 26  2  0  0  0  0
 28 30  1  0  0  0  0
 29 28  2  0  0  0  0
M  END
>  <MODEL>
5

>  <REMARK>
 VINA RESULT:      -6.6      3.247      6.472
  Name = 
  7 active torsions:
  status: ('A' for Active; 'I' for Inactive)
    1  A    between atoms: C_1  and  N_6
    2  A    between atoms: C_5  and  C_29
    3  A    between atoms: C_8  and  C_15
    4  A    between atoms: C_13  and  C_19
    5  A    between atoms: C_13  and  N_30
    6  A    between atoms: C_15  and  C_23
    7  A    between atoms: C_19  and  C_20
                            x       y       z     vdW  Elec       q    Type
                         _______ _______ _______ _____ _____    ______ ____

>  <TORSDO>
F 7

$$$$
=
 OpenBabel10232408223D

 30 32  0  0  0  0  0  0  0  0999 V2000
  188.0320  176.9060  136.7710 C   0  0  0  0  0  0  0  0  0  0  0  0
  188.2640  177.4090  135.6380 O   0  0  0  0  0  0  0  0  0  0  0  0
  190.4750  176.6530  137.3170 C   0  0  0  0  0  0  0  0  0  0  0  0
  190.7680  176.5680  136.0940 O   0  0  0  0  0  0  0  0  0  0  0  0
  189.0990  176.7740  137.7350 N   0  0  0  0  0  0  0  0  0  0  0  0
  186.6710  172.8090  136.5280 C   0  0  0  0  0  3  0  0  0  0  0  0
  184.0340  175.7780  137.7550 N   0  0  0  0  0  0  0  0  0  0  0  0
  185.7010  177.4710  137.4970 C   0  0  0  0  0  0  0  0  0  0  0  0
  186.0600  178.8450  137.6070 N   0  0  0  0  0  1  0  0  0  0  0  0
  184.4020  177.0830  137.8250 C   0  0  0  0  0  3  0  0  0  0  0  0
  187.1070  174.1340  136.5970 C   0  0  0  0  0  3  0  0  0  0  0  0
  185.3590  172.4830  136.8790 C   0  0  0  0  0  3  0  0  0  0  0  0
  186.2350  175.1490  137.0250 C   0  0  0  0  0  0  0  0  0  0  0  0
  184.9040  174.8110  137.3660 C   0  0  0  0  0  0  0  0  0  0  0  0
  184.4770  173.4830  137.2960 C   0  0  0  0  0  3  0  0  0  0  0  0
  186.6430  176.5000  137.1010 C   0  0  0  0  0  0  0  0  0  0  0  0
  188.7870  176.7780  139.1650 C   0  0  0  0  0  2  0  0  0  0  0  0
  188.7400  178.1770  139.6940 C   0  0  0  0  0  0  0  0  0  0  0  0
  189.0160  179.1100  138.9550 O   0  0  0  0  0  0  0  0  0  0  0  0
  186.8930  178.7310  141.2700 C   0  0  0  0  0  2  0  0  0  0  0  0
  186.4210  178.0090  142.5200 C   0  0  0  0  0  2  0  0  0  0  0  0
  188.3700  178.4230  141.1250 C   0  0  0  0  0  3  0  0  0  0  0  0
  188.6400  177.2110  141.9860 C   0  0  0  0  0  2  0  0  0  0  0  0
  187.6270  177.2980  143.1040 C   0  0  0  0  0  2  0  0  0  0  0  0
  191.5890  176.6270  138.3170 C   0  0  0  0  0  2  0  0  0  0  0  0
  193.8270  175.7340  138.0660 N   0  0  0  0  0  0  0  0  0  0  0  0
  192.5500  175.5280  138.0110 C   0  0  0  0  0  3  0  0  0  0  0  0
  194.7860  174.7080  137.7880 C   0  0  0  0  0  0  0  0  0  0  0  0
  196.0060  174.9360  137.9910 O   0  0  0  0  0  0  0  0  0  0  0  0
  194.3740  173.3720  137.2650 C   0  0  0  0  0  1  0  0  0  0  0  0
  1 16  1  0  0  0  0
  1  5  1  0  0  0  0
  2  1  2  0  0  0  0
  3  5  1  0  0  0  0
  3 25  1  0  0  0  0
  4  3  2  0  0  0  0
  5 17  1  0  0  0  0
  6 11  2  0  0  0  0
  6 12  1  0  0  0  0
  7 10  1  0  0  0  0
  8  9  1  0  0  0  0
  8 10  2  0  0  0  0
 11 13  1  0  0  0  0
 12 15  2  0  0  0  0
 13 16  2  0  0  0  0
 13 14  1  0  0  0  0
 14  7  2  0  0  0  0
 15 14  1  0  0  0  0
 16  8  1  0  0  0  0
 17 18  1  0  0  0  0
 18 22  1  0  0  0  0
 19 18  2  0  0  0  0
 20 21  1  0  0  0  0
 21 24  1  0  0  0  0
 22 20  1  0  0  0  0
 22 23  1  0  0  0  0
 23 24  1  0  0  0  0
 27 26  2  0  0  0  0
 27 25  1  0  0  0  0
 28 29  2  0  0  0  0
 28 26  1  0  0  0  0
 30 28  1  0  0  0  0
M  END
>  <MODEL>
6

>  <REMARK>
 VINA RESULT:      -6.6      3.432      6.710
  Name = 
  7 active torsions:
  status: ('A' for Active; 'I' for Inactive)
    1  A    between atoms: C_1  and  N_6
    2  A    between atoms: C_5  and  C_29
    3  A    between atoms: C_8  and  C_15
    4  A    between atoms: C_13  and  C_19
    5  A    between atoms: C_13  and  N_30
    6  A    between atoms: C_15  and  C_23
    7  A    between atoms: C_19  and  C_20
                            x       y       z     vdW  Elec       q    Type
                         _______ _______ _______ _____ _____    ______ ____

>  <TORSDO>
F 7

$$$$
=
 OpenBabel10232408223D

 30 32  0  0  0  0  0  0  0  0999 V2000
  190.5620  177.4500  139.8640 C   0  0  0  0  0  0  0  0  0  0  0  0
  191.7150  177.8990  140.1090 O   0  0  0  0  0  0  0  0  0  0  0  0
  190.2100  176.6680  142.2300 C   0  0  0  0  0  0  0  0  0  0  0  0
  191.4520  176.5300  142.3980 O   0  0  0  0  0  0  0  0  0  0  0  0
  189.6860  177.0820  140.9510 N   0  0  0  0  0  0  0  0  0  0  0  0
  191.5490  174.0910  137.3260 C   0  0  0  0  0  3  0  0  0  0  0  0
  189.2420  177.2000  135.8120 N   0  0  0  0  0  0  0  0  0  0  0  0
  189.3560  178.3920  137.8800 C   0  0  0  0  0  0  0  0  0  0  0  0
  188.9820  179.5370  138.6420 N   0  0  0  0  0  1  0  0  0  0  0  0
  188.9240  178.2890  136.5580 C   0  0  0  0  0  3  0  0  0  0  0  0
  191.2380  175.1810  138.1420 C   0  0  0  0  0  3  0  0  0  0  0  0
  191.0790  174.0430  136.0120 C   0  0  0  0  0  3  0  0  0  0  0  0
  190.4460  176.2340  137.6530 C   0  0  0  0  0  0  0  0  0  0  0  0
  189.9850  176.1820  136.3170 C   0  0  0  0  0  0  0  0  0  0  0  0
  190.2990  175.0870  135.5080 C   0  0  0  0  0  3  0  0  0  0  0  0
  190.1180  177.3530  138.4510 C   0  0  0  0  0  0  0  0  0  0  0  0
  188.2350  177.1430  140.7630 C   0  0  0  0  0  2  0  0  0  0  0  0
  187.6360  178.2250  141.6040 C   0  0  0  0  0  0  0  0  0  0  0  0
  188.2640  179.2560  141.7960 O   0  0  0  0  0  0  0  0  0  0  0  0
  186.3590  178.0100  143.7310 C   0  0  0  0  0  2  0  0  0  0  0  0
  185.1590  178.7920  144.2370 C   0  0  0  0  0  2  0  0  0  0  0  0
  186.2820  178.0340  142.2170 C   0  0  0  0  0  3  0  0  0  0  0  0
  185.3430  179.1620  141.8550 C   0  0  0  0  0  2  0  0  0  0  0  0
  184.3830  179.2530  143.0180 C   0  0  0  0  0  2  0  0  0  0  0  0
  189.3020  176.3920  143.3870 C   0  0  0  0  0  2  0  0  0  0  0  0
  189.2420  176.9140  145.7530 N   0  0  0  0  0  0  0  0  0  0  0  0
  189.9450  176.7920  144.6730 C   0  0  0  0  0  3  0  0  0  0  0  0
  189.8170  177.2880  147.0090 C   0  0  0  0  0  0  0  0  0  0  0  0
  191.0110  176.9780  147.2540 O   0  0  0  0  0  0  0  0  0  0  0  0
  189.0350  178.0380  148.0360 C   0  0  0  0  0  1  0  0  0  0  0  0
  1  2  2  0  0  0  0
  1  5  1  0  0  0  0
  3  4  2  0  0  0  0
  3 25  1  0  0  0  0
  5  3  1  0  0  0  0
  6 11  1  0  0  0  0
  7 14  1  0  0  0  0
  7 10  2  0  0  0  0
  8 16  2  0  0  0  0
  8  9  1  0  0  0  0
 10  8  1  0  0  0  0
 12  6  2  0  0  0  0
 13 11  2  0  0  0  0
 13 16  1  0  0  0  0
 14 13  1  0  0  0  0
 15 12  1  0  0  0  0
 15 14  2  0  0  0  0
 16  1  1  0  0  0  0
 17  5  1  0  0  0  0
 17 18  1  0  0  0  0
 18 19  2  0  0  0  0
 18 22  1  0  0  0  0
 20 21  1  0  0  0  0
 22 20  1  0  0  0  0
 23 22  1  0  0  0  0
 23 24  1  0  0  0  0
 24 21  1  0  0  0  0
 25 27  1  0  0  0  0
 26 28  1  0  0  0  0
 27 26  2  0  0  0  0
 28 29  2  0  0  0  0
 28 30  1  0  0  0  0
M  END
>  <MODEL>
7

>  <REMARK>
 VINA RESULT:      -6.5      2.170      7.516
  Name = 
  7 active torsions:
  status: ('A' for Active; 'I' for Inactive)
    1  A    between atoms: C_1  and  N_6
    2  A    between atoms: C_5  and  C_29
    3  A    between atoms: C_8  and  C_15
    4  A    between atoms: C_13  and  C_19
    5  A    between atoms: C_13  and  N_30
    6  A    between atoms: C_15  and  C_23
    7  A    between atoms: C_19  and  C_20
                            x       y       z     vdW  Elec       q    Type
                         _______ _______ _______ _____ _____    ______ ____

>  <TORSDO>
F 7

$$$$
=
 OpenBabel10232408223D

 30 32  0  0  0  0  0  0  0  0999 V2000
  188.7780  178.3580  138.9060 C   0  0  0  0  0  0  0  0  0  0  0  0
  189.0990  179.5450  138.6270 O   0  0  0  0  0  0  0  0  0  0  0  0
  187.3310  178.1200  136.8610 C   0  0  0  0  0  0  0  0  0  0  0  0
  187.1130  179.3620  136.8360 O   0  0  0  0  0  0  0  0  0  0  0  0
  188.1250  177.5360  137.9150 N   0  0  0  0  0  0  0  0  0  0  0  0
  186.0220  178.4300  142.2380 C   0  0  0  0  0  3  0  0  0  0  0  0
  189.8020  176.7750  142.7360 N   0  0  0  0  0  0  0  0  0  0  0  0
  190.4000  177.2710  140.4760 C   0  0  0  0  0  0  0  0  0  0  0  0
  191.3720  177.2030  139.4360 N   0  0  0  0  0  1  0  0  0  0  0  0
  190.7140  176.7480  141.7300 C   0  0  0  0  0  3  0  0  0  0  0  0
  186.9160  178.4150  141.1650 C   0  0  0  0  0  3  0  0  0  0  0  0
  186.3940  177.8820  143.4680 C   0  0  0  0  0  3  0  0  0  0  0  0
  188.1930  177.8460  141.3090 C   0  0  0  0  0  0  0  0  0  0  0  0
  188.5640  177.3050  142.5620 C   0  0  0  0  0  0  0  0  0  0  0  0
  187.6630  177.3220  143.6300 C   0  0  0  0  0  3  0  0  0  0  0  0
  189.1230  177.8190  140.2460 C   0  0  0  0  0  0  0  0  0  0  0  0
  188.2800  176.0810  137.9640 C   0  0  0  0  0  2  0  0  0  0  0  0
  189.4270  175.6400  137.1100 C   0  0  0  0  0  0  0  0  0  0  0  0
  190.0920  176.4760  136.5180 O   0  0  0  0  0  0  0  0  0  0  0  0
  188.7520  173.4870  136.0560 C   0  0  0  0  0  2  0  0  0  0  0  0
  189.5570  172.5160  135.2100 C   0  0  0  0  0  2  0  0  0  0  0  0
  189.7400  174.1810  136.9730 C   0  0  0  0  0  3  0  0  0  0  0  0
  191.1080  173.9610  136.3710 C   0  0  0  0  0  2  0  0  0  0  0  0
  191.0040  172.6380  135.6480 C   0  0  0  0  0  2  0  0  0  0  0  0
  186.7460  177.2760  135.7720 C   0  0  0  0  0  2  0  0  0  0  0  0
  184.8500  176.6440  137.1430 N   0  0  0  0  0  0  0  0  0  0  0  0
  185.2870  177.0580  135.9960 C   0  0  0  0  0  3  0  0  0  0  0  0
  183.4600  176.4280  137.4050 C   0  0  0  0  0  0  0  0  0  0  0  0
  183.1230  175.6630  138.3450 O   0  0  0  0  0  0  0  0  0  0  0  0
  182.3970  177.0900  136.5910 C   0  0  0  0  0  1  0  0  0  0  0  0
  1 16  1  0  0  0  0
  2  1  2  0  0  0  0
  3  5  1  0  0  0  0
  4  3  2  0  0  0  0
  5 17  1  0  0  0  0
  5  1  1  0  0  0  0
  6 12  1  0  0  0  0
  8 10  1  0  0  0  0
  9  8  1  0  0  0  0
 10  7  2  0  0  0  0
 11 13  1  0  0  0  0
 11  6  2  0  0  0  0
 12 15  2  0  0  0  0
 13 14  2  0  0  0  0
 14  7  1  0  0  0  0
 14 15  1  0  0  0  0
 16  8  2  0  0  0  0
 16 13  1  0  0  0  0
 18 17  1  0  0  0  0
 19 18  2  0  0  0  0
 20 22  1  0  0  0  0
 21 24  1  0  0  0  0
 21 20  1  0  0  0  0
 22 18  1  0  0  0  0
 23 22  1  0  0  0  0
 24 23  1  0  0  0  0
 25 27  1  0  0  0  0
 25  3  1  0  0  0  0
 26 28  1  0  0  0  0
 27 26  2  0  0  0  0
 28 29  2  0  0  0  0
 30 28  1  0  0  0  0
M  END
>  <MODEL>
8

>  <REMARK>
 VINA RESULT:      -6.4      2.985      6.425
  Name = 
  7 active torsions:
  status: ('A' for Active; 'I' for Inactive)
    1  A    between atoms: C_1  and  N_6
    2  A    between atoms: C_5  and  C_29
    3  A    between atoms: C_8  and  C_15
    4  A    between atoms: C_13  and  C_19
    5  A    between atoms: C_13  and  N_30
    6  A    between atoms: C_15  and  C_23
    7  A    between atoms: C_19  and  C_20
                            x       y       z     vdW  Elec       q    Type
                         _______ _______ _______ _____ _____    ______ ____

>  <TORSDO>
F 7

$$$$
=
 OpenBabel10232408223D

 30 32  0  0  0  0  0  0  0  0999 V2000
  189.2380  176.7740  142.1310 C   0  0  0  0  0  0  0  0  0  0  0  0
  189.2610  175.5290  141.9320 O   0  0  0  0  0  0  0  0  0  0  0  0
  188.8000  177.2970  139.7090 C   0  0  0  0  0  0  0  0  0  0  0  0
  189.3690  176.2320  139.3470 O   0  0  0  0  0  0  0  0  0  0  0  0
  188.7430  177.6600  141.1040 N   0  0  0  0  0  0  0  0  0  0  0  0
  186.6360  176.9690  145.5790 C   0  0  0  0  0  3  0  0  0  0  0  0
  190.5740  178.2600  145.9040 N   0  0  0  0  0  0  0  0  0  0  0  0
  191.0040  177.7710  143.6050 C   0  0  0  0  0  0  0  0  0  0  0  0
  191.9310  177.7440  142.5240 N   0  0  0  0  0  1  0  0  0  0  0  0
  191.4260  178.2430  144.8480 C   0  0  0  0  0  3  0  0  0  0  0  0
  187.4740  176.9160  144.4640 C   0  0  0  0  0  3  0  0  0  0  0  0
  187.1220  177.4440  146.7990 C   0  0  0  0  0  3  0  0  0  0  0  0
  188.8130  177.3330  144.5570 C   0  0  0  0  0  0  0  0  0  0  0  0
  189.2930  177.8240  145.7940 C   0  0  0  0  0  0  0  0  0  0  0  0
  188.4480  177.8720  146.9060 C   0  0  0  0  0  3  0  0  0  0  0  0
  189.6860  177.2960  143.4470 C   0  0  0  0  0  0  0  0  0  0  0  0
  188.1550  178.9480  141.4800 C   0  0  0  0  0  2  0  0  0  0  0  0
  186.6630  178.8970  141.3870 C   0  0  0  0  0  0  0  0  0  0  0  0
  186.1170  179.1570  140.3260 O   0  0  0  0  0  0  0  0  0  0  0  0
  185.6260  179.7540  143.4830 C   0  0  0  0  0  2  0  0  0  0  0  0
  184.1900  179.6740  143.9700 C   0  0  0  0  0  2  0  0  0  0  0  0
  185.8490  178.5450  142.5960 C   0  0  0  0  0  3  0  0  0  0  0  0
  184.4780  178.0370  142.2140 C   0  0  0  0  0  2  0  0  0  0  0  0
  183.5900  178.4130  143.3770 C   0  0  0  0  0  2  0  0  0  0  0  0
  188.1870  178.1660  138.6560 C   0  0  0  0  0  2  0  0  0  0  0  0
  186.7760  177.9150  136.7020 N   0  0  0  0  0  0  0  0  0  0  0  0
  187.3780  177.3540  137.7020 C   0  0  0  0  0  3  0  0  0  0  0  0
  185.9960  177.1750  135.7580 C   0  0  0  0  0  0  0  0  0  0  0  0
  186.5520  176.7130  134.7290 O   0  0  0  0  0  0  0  0  0  0  0  0
  184.5370  176.9340  135.9650 C   0  0  0  0  0  1  0  0  0  0  0  0
  1 16  1  0  0  0  0
  2  1  2  0  0  0  0
  3  5  1  0  0  0  0
  4  3  2  0  0  0  0
  5 17  1  0  0  0  0
  5  1  1  0  0  0  0
  6 12  1  0  0  0  0
  8 10  1  0  0  0  0
  9  8  1  0  0  0  0
 10  7  2  0  0  0  0
 11 13  1  0  0  0  0
 11  6  2  0  0  0  0
 12 15  2  0  0  0  0
 13 14  2  0  0  0  0
 14  7  1  0  0  0  0
 14 15  1  0  0  0  0
 16  8  2  0  0  0  0
 16 13  1  0  0  0  0
 18 17  1  0  0  0  0
 18 22  1  0  0  0  0
 19 18  2  0  0  0  0
 20 21  1  0  0  0  0
 22 20  1  0  0  0  0
 23 22  1  0  0  0  0
 23 24  1  0  0  0  0
 24 21  1  0  0  0  0
 25  3  1  0  0  0  0
 26 27  2  0  0  0  0
 27 25  1  0  0  0  0
 28 30  1  0  0  0  0
 28 26  1  0  0  0  0
 29 28  2  0  0  0  0
M  END
>  <MODEL>
9

>  <REMARK>
 VINA RESULT:      -6.4      2.532      4.560
  Name = 
  7 active torsions:
  status: ('A' for Active; 'I' for Inactive)
    1  A    between atoms: C_1  and  N_6
    2  A    between atoms: C_5  and  C_29
    3  A    between atoms: C_8  and  C_15
    4  A    between atoms: C_13  and  C_19
    5  A    between atoms: C_13  and  N_30
    6  A    between atoms: C_15  and  C_23
    7  A    between atoms: C_19  and  C_20
                            x       y       z     vdW  Elec       q    Type
                         _______ _______ _______ _____ _____    ______ ____

>  <TORSDO>
F 7

$$$$
