=
 OpenBabel10232411043D

 39 44  0  0  1  0  0  0  0  0999 V2000
  188.5890  178.7780  141.1400 N   0  0  0  0  0  1  0  0  0  0  0  0
  188.9850  177.6020  140.3840 C   0  0  1  0  0  3  0  0  0  0  0  0
  189.8550  178.0200  139.2030 C   0  0  0  0  0  2  0  0  0  0  0  0
  189.8580  177.4980  136.9110 F   0  0  0  0  0  0  0  0  0  0  0  0
  189.0870  178.1060  137.8830 C   0  0  0  0  0  0  0  0  0  0  0  0
  188.8990  179.4290  137.5160 F   0  0  0  0  0  0  0  0  0  0  0  0
  187.7560  177.3560  137.9560 C   0  0  0  0  0  2  0  0  0  0  0  0
  185.5190  179.0330  139.4660 N   0  0  0  0  0  0  0  0  0  0  0  0
  184.3580  179.1250  140.1940 C   0  0  0  0  0  3  0  0  0  0  0  0
  186.6010  178.1140  137.3090 C   0  0  1  0  0  3  0  0  0  0  0  0
  184.7160  177.1370  136.5840 N   0  0  0  0  0  2  0  0  0  0  0  0
  186.0330  177.3290  136.2500 O   0  0  0  0  0  0  0  0  0  0  0  0
  183.2010  178.4930  139.7000 C   0  0  0  0  0  0  0  0  0  0  0  0
  181.9220  178.4850  140.2930 N   0  0  0  0  0  2  0  0  0  0  0  0
  183.2250  177.8050  138.5180 C   0  0  0  0  0  0  0  0  0  0  0  0
  184.4200  177.7310  137.8180 C   0  0  0  0  0  0  0  0  0  0  0  0
  181.8870  177.2490  138.2070 C   0  0  0  0  0  2  0  0  0  0  0  0
  185.5200  178.3260  138.2980 C   0  0  0  0  0  0  0  0  0  0  0  0
  181.0320  177.7280  139.4050 C   0  0  1  0  0  3  0  0  0  0  0  0
  180.4700  176.5460  140.1250 C   0  0  0  0  0  3  0  0  0  0  0  0
  180.7570  175.3090  139.7260 C   0  0  0  0  0  2  0  0  0  0  0  0
  189.6940  176.6030  141.2980 C   0  0  0  0  0  2  0  0  0  0  0  0
  187.8760  177.9120  147.0540 C   0  0  0  0  0  0  0  0  0  0  0  0
  184.7930  178.4890  143.7670 C   0  0  0  0  0  3  0  0  0  0  0  0
  189.6820  177.0430  142.6880 N   0  0  0  0  0  2  0  0  0  0  0  0
  190.1270  177.0640  146.9930 C   0  0  0  0  0  0  0  0  0  0  0  0
  189.0750  177.6310  147.7050 C   0  0  0  0  0  3  0  0  0  0  0  0
  186.5210  177.9990  145.0780 C   0  0  0  0  0  0  0  0  0  0  0  0
  188.7880  177.0180  144.9980 N   0  0  0  0  0  0  0  0  0  0  0  0
  185.5390  178.5790  145.8270 C   0  0  0  0  0  0  0  0  0  0  0  0
  186.0750  177.9420  143.7740 C   0  0  0  0  0  3  0  0  0  0  0  0
  186.8500  178.4930  147.7440 N   0  0  0  0  0  0  0  0  0  0  0  0
  185.6980  178.8190  147.1490 N   0  0  0  0  0  0  0  0  0  0  0  0
  191.4140  176.7680  147.6740 C   0  0  0  0  0  1  0  0  0  0  0  0
  189.9610  176.7620  145.6420 C   0  0  0  0  0  3  0  0  0  0  0  0
  187.7410  177.6140  145.6710 C   0  0  0  0  0  0  0  0  0  0  0  0
  184.4500  178.8930  145.0540 C   0  0  0  0  0  3  0  0  0  0  0  0
  187.8190  175.7660  143.2810 O   0  0  0  0  0  0  0  0  0  0  0  0
  188.7100  176.5870  143.6320 C   0  0  0  0  0  0  0  0  0  0  0  0
  2  1  1  1  0  0  0
  2 22  1  0  0  0  0
  3  2  1  0  0  0  0
  4  5  1  0  0  0  0
  5  7  1  0  0  0  0
  5  3  1  0  0  0  0
  6  5  1  0  0  0  0
  8  9  1  0  0  0  0
 10  7  1  1  0  0  0
 10 18  1  0  0  0  0
 11 16  1  0  0  0  0
 12 11  1  0  0  0  0
 12 10  1  0  0  0  0
 13  9  2  0  0  0  0
 13 14  1  0  0  0  0
 15 13  1  0  0  0  0
 16 18  1  0  0  0  0
 16 15  2  0  0  0  0
 17 15  1  0  0  0  0
 17 19  1  0  0  0  0
 18  8  2  0  0  0  0
 19 20  1  1  0  0  0
 19 14  1  0  0  0  0
 21 20  2  0  0  0  0
 22 25  1  0  0  0  0
 23 27  2  0  0  0  0
 23 32  1  0  0  0  0
 24 31  2  0  0  0  0
 24 37  1  0  0  0  0
 25 39  1  0  0  0  0
 26 34  1  0  0  0  0
 26 27  1  0  0  0  0
 28 36  2  0  0  0  0
 28 30  1  0  0  0  0
 29 35  1  0  0  0  0
 29 36  1  0  0  0  0
 30 33  1  0  0  0  0
 31 28  1  0  0  0  0
 33 32  2  0  0  0  0
 35 26  2  0  0  0  0
 36 23  1  0  0  0  0
 37 30  2  0  0  0  0
 38 39  2  0  0  0  0
 39 29  1  0  0  0  0
M  END
>  <MODEL>
1

>  <REMARK>
 VINA RESULT:     -10.5      0.000      0.000
  Name = 
  7 active torsions:
  status: ('A' for Active; 'I' for Inactive)
    1  A    between atoms: C_3  and  C_13
    2  A    between atoms: C_3  and  C_17
    3  A    between atoms: C_4  and  C_35
    4  A    between atoms: C_8  and  C_17
    5  A    between atoms: C_8  and  C_23
    6  A    between atoms: N_10  and  C_14
    7  A    between atoms: C_14  and  C_23
                            x       y       z     vdW  Elec       q    Type
                         _______ _______ _______ _____ _____    ______ ____

>  <TORSDO>
F 7

$$$$
=
 OpenBabel10232411043D

 39 44  0  0  1  0  0  0  0  0999 V2000
  188.5710  178.5420  141.0790 N   0  0  0  0  0  1  0  0  0  0  0  0
  189.2790  177.3240  140.7220 C   0  0  1  0  0  3  0  0  0  0  0  0
  190.2600  177.6130  139.5910 C   0  0  0  0  0  2  0  0  0  0  0  0
  190.5280  177.4310  137.2630 F   0  0  0  0  0  0  0  0  0  0  0  0
  189.5880  177.7470  138.2230 C   0  0  0  0  0  0  0  0  0  0  0  0
  189.1790  179.0540  138.0110 F   0  0  0  0  0  0  0  0  0  0  0  0
  188.4210  176.7700  138.0710 C   0  0  0  0  0  2  0  0  0  0  0  0
  185.9880  178.7580  138.5420 N   0  0  0  0  0  0  0  0  0  0  0  0
  184.7250  179.0400  139.0010 C   0  0  0  0  0  3  0  0  0  0  0  0
  187.3970  177.2110  137.0300 C   0  0  1  0  0  3  0  0  0  0  0  0
  185.6450  175.9620  136.3950 N   0  0  0  0  0  2  0  0  0  0  0  0
  187.0010  176.0870  136.2270 O   0  0  0  0  0  0  0  0  0  0  0  0
  183.6570  178.2270  138.5770 C   0  0  0  0  0  0  0  0  0  0  0  0
  182.2980  178.3630  138.9270 N   0  0  0  0  0  2  0  0  0  0  0  0
  183.8650  177.1790  137.7220 C   0  0  0  0  0  0  0  0  0  0  0  0
  185.1580  176.9260  137.2870 C   0  0  0  0  0  0  0  0  0  0  0  0
  182.5900  176.4920  137.4120 C   0  0  0  0  0  2  0  0  0  0  0  0
  186.1720  177.6970  137.7020 C   0  0  0  0  0  0  0  0  0  0  0  0
  181.5560  177.3100  138.2230 C   0  0  1  0  0  3  0  0  0  0  0  0
  180.8690  176.4190  139.2050 C   0  0  0  0  0  3  0  0  0  0  0  0
  180.7490  175.1150  138.9690 C   0  0  0  0  0  2  0  0  0  0  0  0
  189.9730  176.7400  141.9530 C   0  0  0  0  0  2  0  0  0  0  0  0
  186.2590  178.4530  146.5810 C   0  0  0  0  0  0  0  0  0  0  0  0
  184.3940  178.2590  142.4420 C   0  0  0  0  0  3  0  0  0  0  0  0
  189.4670  177.3300  143.1860 N   0  0  0  0  0  2  0  0  0  0  0  0
  188.4660  177.8960  147.3590 C   0  0  0  0  0  0  0  0  0  0  0  0
  187.1950  178.4020  147.6100 C   0  0  0  0  0  3  0  0  0  0  0  0
  185.6280  178.1440  144.2880 C   0  0  0  0  0  0  0  0  0  0  0  0
  187.8670  177.4540  145.0730 N   0  0  0  0  0  0  0  0  0  0  0  0
  184.4090  178.6760  144.5950 C   0  0  0  0  0  0  0  0  0  0  0  0
  185.6430  177.8830  142.9340 C   0  0  0  0  0  3  0  0  0  0  0  0
  185.0180  178.9740  146.8180 N   0  0  0  0  0  0  0  0  0  0  0  0
  184.1040  179.0830  145.8480 N   0  0  0  0  0  0  0  0  0  0  0  0
  189.4770  177.8440  148.4470 C   0  0  0  0  0  1  0  0  0  0  0  0
  188.7800  177.4230  146.0850 C   0  0  0  0  0  3  0  0  0  0  0  0
  186.6120  177.9850  145.2860 C   0  0  0  0  0  0  0  0  0  0  0  0
  183.6140  178.7600  143.4800 C   0  0  0  0  0  3  0  0  0  0  0  0
  187.6260  175.9030  143.3450 O   0  0  0  0  0  0  0  0  0  0  0  0
  188.2800  176.8640  143.8330 C   0  0  0  0  0  0  0  0  0  0  0  0
  2  1  1  1  0  0  0
  2 22  1  0  0  0  0
  3  2  1  0  0  0  0
  4  5  1  0  0  0  0
  5  3  1  0  0  0  0
  6  5  1  0  0  0  0
  7  5  1  0  0  0  0
  8  9  1  0  0  0  0
 10 18  1  0  0  0  0
 10  7  1  1  0  0  0
 11 16  1  0  0  0  0
 12 11  1  0  0  0  0
 12 10  1  0  0  0  0
 13 14  1  0  0  0  0
 13  9  2  0  0  0  0
 15 13  1  0  0  0  0
 16 18  1  0  0  0  0
 16 15  2  0  0  0  0
 17 15  1  0  0  0  0
 17 19  1  0  0  0  0
 18  8  2  0  0  0  0
 19 14  1  0  0  0  0
 19 20  1  1  0  0  0
 21 20  2  0  0  0  0
 22 25  1  0  0  0  0
 23 32  1  0  0  0  0
 23 27  2  0  0  0  0
 24 31  2  0  0  0  0
 24 37  1  0  0  0  0
 25 39  1  0  0  0  0
 26 27  1  0  0  0  0
 26 34  1  0  0  0  0
 28 30  1  0  0  0  0
 28 36  2  0  0  0  0
 29 36  1  0  0  0  0
 29 35  1  0  0  0  0
 30 33  1  0  0  0  0
 31 28  1  0  0  0  0
 33 32  2  0  0  0  0
 35 26  2  0  0  0  0
 36 23  1  0  0  0  0
 37 30  2  0  0  0  0
 38 39  2  0  0  0  0
 39 29  1  0  0  0  0
M  END
>  <MODEL>
2

>  <REMARK>
 VINA RESULT:     -10.4      1.052      1.304
  Name = 
  7 active torsions:
  status: ('A' for Active; 'I' for Inactive)
    1  A    between atoms: C_3  and  C_13
    2  A    between atoms: C_3  and  C_17
    3  A    between atoms: C_4  and  C_35
    4  A    between atoms: C_8  and  C_17
    5  A    between atoms: C_8  and  C_23
    6  A    between atoms: N_10  and  C_14
    7  A    between atoms: C_14  and  C_23
                            x       y       z     vdW  Elec       q    Type
                         _______ _______ _______ _____ _____    ______ ____

>  <TORSDO>
F 7

$$$$
=
 OpenBabel10232411043D

 39 44  0  0  1  0  0  0  0  0999 V2000
  191.8020  177.4550  140.5720 N   0  0  0  0  0  1  0  0  0  0  0  0
  190.4690  177.5280  141.1460 C   0  0  1  0  0  3  0  0  0  0  0  0
  189.4300  177.2210  140.0730 C   0  0  0  0  0  2  0  0  0  0  0  0
  189.2110  179.1940  138.8150 F   0  0  0  0  0  0  0  0  0  0  0  0
  188.5360  178.4150  139.7340 C   0  0  0  0  0  0  0  0  0  0  0  0
  188.3050  179.1850  140.8630 F   0  0  0  0  0  0  0  0  0  0  0  0
  187.2220  177.9690  139.0890 C   0  0  0  0  0  2  0  0  0  0  0  0
  184.8920  177.1080  137.1080 N   0  0  0  0  0  0  0  0  0  0  0  0
  183.9700  176.2030  136.6420 C   0  0  0  0  0  3  0  0  0  0  0  0
  187.3860  177.5080  137.6450 C   0  0  1  0  0  3  0  0  0  0  0  0
  188.0140  175.4340  137.0600 N   0  0  0  0  0  2  0  0  0  0  0  0
  188.5100  176.6200  137.5400 O   0  0  0  0  0  0  0  0  0  0  0  0
  184.4110  174.9140  136.2900 C   0  0  0  0  0  0  0  0  0  0  0  0
  183.6240  173.8580  135.7840 N   0  0  0  0  0  2  0  0  0  0  0  0
  185.7290  174.5640  136.4020 C   0  0  0  0  0  0  0  0  0  0  0  0
  186.6250  175.5070  136.8830 C   0  0  0  0  0  0  0  0  0  0  0  0
  185.9430  173.1680  135.9550 C   0  0  0  0  0  2  0  0  0  0  0  0
  186.1990  176.7290  137.2260 C   0  0  0  0  0  0  0  0  0  0  0  0
  184.5200  172.7230  135.5370 C   0  0  1  0  0  3  0  0  0  0  0  0
  184.1010  171.5470  136.3590 C   0  0  0  0  0  3  0  0  0  0  0  0
  182.9460  171.5590  137.0200 C   0  0  0  0  0  2  0  0  0  0  0  0
  190.3600  176.5830  142.3430 C   0  0  0  0  0  2  0  0  0  0  0  0
  186.0350  178.4940  146.3160 C   0  0  0  0  0  0  0  0  0  0  0  0
  184.8030  178.2060  141.9520 C   0  0  0  0  0  3  0  0  0  0  0  0
  189.6890  177.2180  143.4710 N   0  0  0  0  0  2  0  0  0  0  0  0
  188.0890  177.9250  147.4300 C   0  0  0  0  0  0  0  0  0  0  0  0
  186.8060  178.4590  147.4750 C   0  0  0  0  0  3  0  0  0  0  0  0
  185.7460  178.1260  143.9640 C   0  0  0  0  0  0  0  0  0  0  0  0
  187.8290  177.4250  145.0930 N   0  0  0  0  0  0  0  0  0  0  0  0
  184.5060  178.6870  144.0710 C   0  0  0  0  0  0  0  0  0  0  0  0
  185.9560  177.8250  142.6350 C   0  0  0  0  0  3  0  0  0  0  0  0
  184.7830  179.0420  146.3510 N   0  0  0  0  0  0  0  0  0  0  0  0
  184.0260  179.1360  145.2530 N   0  0  0  0  0  0  0  0  0  0  0  0
  188.9260  177.8900  148.6570 C   0  0  0  0  0  1  0  0  0  0  0  0
  188.5800  177.4090  146.2310 C   0  0  0  0  0  3  0  0  0  0  0  0
  186.5670  177.9820  145.1010 C   0  0  0  0  0  0  0  0  0  0  0  0
  183.8880  178.7500  142.8480 C   0  0  0  0  0  3  0  0  0  0  0  0
  187.8150  175.8270  143.3910 O   0  0  0  0  0  0  0  0  0  0  0  0
  188.4090  176.7910  143.9450 C   0  0  0  0  0  0  0  0  0  0  0  0
  2  1  1  6  0  0  0
  2 22  1  0  0  0  0
  3  2  1  0  0  0  0
  4  5  1  0  0  0  0
  5  3  1  0  0  0  0
  5  6  1  0  0  0  0
  7  5  1  0  0  0  0
  8 18  1  0  0  0  0
  9  8  2  0  0  0  0
 10  7  1  1  0  0  0
 11 12  1  0  0  0  0
 12 10  1  0  0  0  0
 13 15  2  0  0  0  0
 13  9  1  0  0  0  0
 14 13  1  0  0  0  0
 15 16  1  0  0  0  0
 16 11  1  0  0  0  0
 16 18  2  0  0  0  0
 17 15  1  0  0  0  0
 18 10  1  0  0  0  0
 19 14  1  0  0  0  0
 19 17  1  0  0  0  0
 19 20  1  1  0  0  0
 20 21  2  0  0  0  0
 22 25  1  0  0  0  0
 23 32  1  0  0  0  0
 23 27  2  0  0  0  0
 24 31  2  0  0  0  0
 24 37  1  0  0  0  0
 25 39  1  0  0  0  0
 26 27  1  0  0  0  0
 26 34  1  0  0  0  0
 28 30  1  0  0  0  0
 28 36  2  0  0  0  0
 29 36  1  0  0  0  0
 29 35  1  0  0  0  0
 30 33  1  0  0  0  0
 31 28  1  0  0  0  0
 33 32  2  0  0  0  0
 35 26  2  0  0  0  0
 36 23  1  0  0  0  0
 37 30  2  0  0  0  0
 38 39  2  0  0  0  0
 39 29  1  0  0  0  0
M  END
>  <MODEL>
3

>  <REMARK>
 VINA RESULT:      -9.9      2.480      3.327
  Name = 
  7 active torsions:
  status: ('A' for Active; 'I' for Inactive)
    1  A    between atoms: C_3  and  C_13
    2  A    between atoms: C_3  and  C_17
    3  A    between atoms: C_4  and  C_35
    4  A    between atoms: C_8  and  C_17
    5  A    between atoms: C_8  and  C_23
    6  A    between atoms: N_10  and  C_14
    7  A    between atoms: C_14  and  C_23
                            x       y       z     vdW  Elec       q    Type
                         _______ _______ _______ _____ _____    ______ ____

>  <TORSDO>
F 7

$$$$
=
 OpenBabel10232411043D

 39 44  0  0  1  0  0  0  0  0999 V2000
  191.9780  177.6620  141.2120 N   0  0  0  0  0  1  0  0  0  0  0  0
  190.6240  177.2260  140.9140 C   0  0  1  0  0  3  0  0  0  0  0  0
  190.5540  176.7130  139.4800 C   0  0  0  0  0  2  0  0  0  0  0  0
  190.1560  177.6730  137.3710 F   0  0  0  0  0  0  0  0  0  0  0  0
  189.5650  177.4880  138.6050 C   0  0  0  0  0  0  0  0  0  0  0  0
  189.3100  178.7360  139.1510 F   0  0  0  0  0  0  0  0  0  0  0  0
  188.2710  176.7020  138.3880 C   0  0  0  0  0  2  0  0  0  0  0  0
  185.8820  178.7890  138.5720 N   0  0  0  0  0  0  0  0  0  0  0  0
  184.5770  179.1160  138.8480 C   0  0  0  0  0  3  0  0  0  0  0  0
  187.4350  177.2270  137.2250 C   0  0  1  0  0  3  0  0  0  0  0  0
  185.7470  176.0870  136.2850 N   0  0  0  0  0  2  0  0  0  0  0  0
  187.1170  176.1520  136.3270 O   0  0  0  0  0  0  0  0  0  0  0  0
  183.5510  178.3700  138.2360 C   0  0  0  0  0  0  0  0  0  0  0  0
  182.1620  178.5610  138.3840 N   0  0  0  0  0  2  0  0  0  0  0  0
  183.8410  177.3440  137.3790 C   0  0  0  0  0  0  0  0  0  0  0  0
  185.1730  177.0430  137.1330 C   0  0  0  0  0  0  0  0  0  0  0  0
  182.5990  176.7300  136.8550 C   0  0  0  0  0  2  0  0  0  0  0  0
  186.1440  177.7490  137.7250 C   0  0  0  0  0  0  0  0  0  0  0  0
  181.4910  177.5690  137.5350 C   0  0  1  0  0  3  0  0  0  0  0  0
  180.6260  176.6800  138.3670 C   0  0  0  0  0  3  0  0  0  0  0  0
  180.5450  176.8510  139.6840 C   0  0  0  0  0  2  0  0  0  0  0  0
  190.1770  176.1720  141.9260 C   0  0  0  0  0  2  0  0  0  0  0  0
  185.6630  178.4330  145.4850 C   0  0  0  0  0  0  0  0  0  0  0  0
  189.5520  177.3560  147.5720 C   0  0  0  0  0  3  0  0  0  0  0  0
  188.8640  176.4810  142.4810 N   0  0  0  0  0  2  0  0  0  0  0  0
  185.0390  178.3890  143.1620 C   0  0  0  0  0  0  0  0  0  0  0  0
  184.6980  178.5970  144.4940 C   0  0  0  0  0  3  0  0  0  0  0  0
  187.8750  177.8410  146.1950 C   0  0  0  0  0  0  0  0  0  0  0  0
  187.3050  177.8920  143.7910 N   0  0  0  0  0  0  0  0  0  0  0  0
  187.4690  178.0350  147.4830 C   0  0  0  0  0  0  0  0  0  0  0  0
  189.1820  177.4030  146.2290 C   0  0  0  0  0  3  0  0  0  0  0  0
  185.3250  178.6120  146.7970 N   0  0  0  0  0  0  0  0  0  0  0  0
  186.2070  178.4220  147.7820 N   0  0  0  0  0  0  0  0  0  0  0  0
  184.0170  178.5520  142.0960 C   0  0  0  0  0  1  0  0  0  0  0  0
  186.3480  178.0410  142.8310 C   0  0  0  0  0  3  0  0  0  0  0  0
  186.9850  178.0560  145.1230 C   0  0  0  0  0  0  0  0  0  0  0  0
  188.4790  177.7500  148.3660 C   0  0  0  0  0  3  0  0  0  0  0  0
  189.5760  178.3990  143.6080 O   0  0  0  0  0  0  0  0  0  0  0  0
  188.6310  177.6150  143.3220 C   0  0  0  0  0  0  0  0  0  0  0  0
  2  1  1  1  0  0  0
  2 22  1  0  0  0  0
  3  2  1  0  0  0  0
  4  5  1  0  0  0  0
  5  6  1  0  0  0  0
  5  3  1  0  0  0  0
  7  5  1  0  0  0  0
  8  9  1  0  0  0  0
 10 18  1  0  0  0  0
 10  7  1  1  0  0  0
 11 12  1  0  0  0  0
 11 16  1  0  0  0  0
 12 10  1  0  0  0  0
 13 14  1  0  0  0  0
 13  9  2  0  0  0  0
 15 13  1  0  0  0  0
 16 15  2  0  0  0  0
 16 18  1  0  0  0  0
 17 15  1  0  0  0  0
 17 19  1  0  0  0  0
 18  8  2  0  0  0  0
 19 20  1  1  0  0  0
 19 14  1  0  0  0  0
 20 21  2  0  0  0  0
 22 25  1  0  0  0  0
 23 32  1  0  0  0  0
 24 37  1  0  0  0  0
 25 39  1  0  0  0  0
 26 27  1  0  0  0  0
 27 23  2  0  0  0  0
 28 31  1  0  0  0  0
 28 30  1  0  0  0  0
 29 36  1  0  0  0  0
 30 33  1  0  0  0  0
 30 37  2  0  0  0  0
 31 24  2  0  0  0  0
 32 33  2  0  0  0  0
 34 26  1  0  0  0  0
 35 26  2  0  0  0  0
 35 29  1  0  0  0  0
 36 23  1  0  0  0  0
 36 28  2  0  0  0  0
 39 38  2  0  0  0  0
 39 29  1  0  0  0  0
M  END
>  <MODEL>
4

>  <REMARK>
 VINA RESULT:      -9.7      1.289      3.049
  Name = 
  7 active torsions:
  status: ('A' for Active; 'I' for Inactive)
    1  A    between atoms: C_3  and  C_13
    2  A    between atoms: C_3  and  C_17
    3  A    between atoms: C_4  and  C_35
    4  A    between atoms: C_8  and  C_17
    5  A    between atoms: C_8  and  C_23
    6  A    between atoms: N_10  and  C_14
    7  A    between atoms: C_14  and  C_23
                            x       y       z     vdW  Elec       q    Type
                         _______ _______ _______ _____ _____    ______ ____

>  <TORSDO>
F 7

$$$$
=
 OpenBabel10232411043D

 39 44  0  0  1  0  0  0  0  0999 V2000
  188.4800  178.8480  141.1580 N   0  0  0  0  0  1  0  0  0  0  0  0
  188.8730  177.6620  140.4150 C   0  0  1  0  0  3  0  0  0  0  0  0
  189.6050  178.0720  139.1420 C   0  0  0  0  0  2  0  0  0  0  0  0
  188.7050  178.9730  137.1660 F   0  0  0  0  0  0  0  0  0  0  0  0
  188.8100  177.7870  137.8660 C   0  0  0  0  0  0  0  0  0  0  0  0
  187.5300  177.3570  138.1770 F   0  0  0  0  0  0  0  0  0  0  0  0
  189.5310  176.7800  136.9670 C   0  0  0  0  0  2  0  0  0  0  0  0
  192.3990  176.0110  138.0950 N   0  0  0  0  0  0  0  0  0  0  0  0
  193.6870  175.5630  137.9300 C   0  0  0  0  0  3  0  0  0  0  0  0
  189.9040  175.4890  137.6870 C   0  0  1  0  0  3  0  0  0  0  0  0
  190.3120  173.5470  136.6390 N   0  0  0  0  0  2  0  0  0  0  0  0
  189.2860  174.3690  137.0340 O   0  0  0  0  0  0  0  0  0  0  0  0
  193.8930  174.3400  137.2630 C   0  0  0  0  0  0  0  0  0  0  0  0
  195.1310  173.7130  137.0080 N   0  0  0  0  0  2  0  0  0  0  0  0
  192.8390  173.6060  136.7930 C   0  0  0  0  0  0  0  0  0  0  0  0
  191.5550  174.0990  136.9770 C   0  0  0  0  0  0  0  0  0  0  0  0
  193.3110  172.3590  136.1500 C   0  0  0  0  0  2  0  0  0  0  0  0
  191.3650  175.2680  137.6030 C   0  0  0  0  0  0  0  0  0  0  0  0
  194.8470  172.4500  136.3170 C   0  0  1  0  0  3  0  0  0  0  0  0
  195.5000  172.4410  134.9730 C   0  0  0  0  0  3  0  0  0  0  0  0
  196.5570  173.2110  134.7270 C   0  0  0  0  0  2  0  0  0  0  0  0
  189.7200  176.7460  141.2980 C   0  0  0  0  0  2  0  0  0  0  0  0
  187.8000  177.9200  147.0500 C   0  0  0  0  0  0  0  0  0  0  0  0
  184.7570  178.5160  143.7290 C   0  0  0  0  0  3  0  0  0  0  0  0
  189.6820  177.1600  142.6960 N   0  0  0  0  0  2  0  0  0  0  0  0
  190.0630  177.1050  147.0070 C   0  0  0  0  0  0  0  0  0  0  0  0
  188.9930  177.6440  147.7130 C   0  0  0  0  0  3  0  0  0  0  0  0
  186.4730  178.0260  145.0560 C   0  0  0  0  0  0  0  0  0  0  0  0
  188.7540  177.0780  144.9910 N   0  0  0  0  0  0  0  0  0  0  0  0
  185.4720  178.5780  145.8010 C   0  0  0  0  0  0  0  0  0  0  0  0
  186.0470  177.9870  143.7450 C   0  0  0  0  0  3  0  0  0  0  0  0
  186.7550  178.4730  147.7360 N   0  0  0  0  0  0  0  0  0  0  0  0
  185.6080  178.7950  147.1300 N   0  0  0  0  0  0  0  0  0  0  0  0
  191.3440  176.8140  147.7010 C   0  0  0  0  0  1  0  0  0  0  0  0
  189.9210  176.8260  145.6480 C   0  0  0  0  0  3  0  0  0  0  0  0
  187.6890  177.6460  145.6590 C   0  0  0  0  0  0  0  0  0  0  0  0
  184.3900  178.8910  145.0170 C   0  0  0  0  0  3  0  0  0  0  0  0
  187.8290  175.8460  143.2370 O   0  0  0  0  0  0  0  0  0  0  0  0
  188.7020  176.6710  143.6170 C   0  0  0  0  0  0  0  0  0  0  0  0
  2  1  1  1  0  0  0
  2 22  1  0  0  0  0
  3  2  1  0  0  0  0
  4  5  1  0  0  0  0
  5  6  1  0  0  0  0
  5  3  1  0  0  0  0
  7  5  1  0  0  0  0
  9  8  1  0  0  0  0
 10  7  1  6  0  0  0
 11 16  1  0  0  0  0
 11 12  1  0  0  0  0
 12 10  1  0  0  0  0
 13  9  2  0  0  0  0
 14 13  1  0  0  0  0
 15 16  2  0  0  0  0
 15 13  1  0  0  0  0
 16 18  1  0  0  0  0
 17 19  1  0  0  0  0
 17 15  1  0  0  0  0
 18 10  1  0  0  0  0
 18  8  2  0  0  0  0
 19 20  1  6  0  0  0
 19 14  1  0  0  0  0
 21 20  2  0  0  0  0
 22 25  1  0  0  0  0
 23 27  2  0  0  0  0
 23 32  1  0  0  0  0
 24 31  2  0  0  0  0
 24 37  1  0  0  0  0
 25 39  1  0  0  0  0
 26 34  1  0  0  0  0
 26 27  1  0  0  0  0
 28 36  2  0  0  0  0
 28 30  1  0  0  0  0
 29 35  1  0  0  0  0
 29 36  1  0  0  0  0
 30 33  1  0  0  0  0
 31 28  1  0  0  0  0
 33 32  2  0  0  0  0
 35 26  2  0  0  0  0
 36 23  1  0  0  0  0
 37 30  2  0  0  0  0
 38 39  2  0  0  0  0
 39 29  1  0  0  0  0
M  END
>  <MODEL>
5

>  <REMARK>
 VINA RESULT:      -9.6      3.911      6.723
  Name = 
  7 active torsions:
  status: ('A' for Active; 'I' for Inactive)
    1  A    between atoms: C_3  and  C_13
    2  A    between atoms: C_3  and  C_17
    3  A    between atoms: C_4  and  C_35
    4  A    between atoms: C_8  and  C_17
    5  A    between atoms: C_8  and  C_23
    6  A    between atoms: N_10  and  C_14
    7  A    between atoms: C_14  and  C_23
                            x       y       z     vdW  Elec       q    Type
                         _______ _______ _______ _____ _____    ______ ____

>  <TORSDO>
F 7

$$$$
=
 OpenBabel10232411043D

 39 44  0  0  1  0  0  0  0  0999 V2000
  191.9150  177.6560  141.1930 N   0  0  0  0  0  1  0  0  0  0  0  0
  190.7430  177.3810  140.3800 C   0  0  1  0  0  3  0  0  0  0  0  0
  191.1510  176.5990  139.1360 C   0  0  0  0  0  2  0  0  0  0  0  0
  189.4110  175.8060  137.7700 F   0  0  0  0  0  0  0  0  0  0  0  0
  190.2640  176.8810  137.9220 C   0  0  0  0  0  0  0  0  0  0  0  0
  191.0320  176.9860  136.7740 F   0  0  0  0  0  0  0  0  0  0  0  0
  189.4040  178.1290  138.1310 C   0  0  0  0  0  2  0  0  0  0  0  0
  186.3010  178.7760  138.3400 N   0  0  0  0  0  0  0  0  0  0  0  0
  184.9910  178.3950  138.5040 C   0  0  0  0  0  3  0  0  0  0  0  0
  188.4580  178.4110  136.9690 C   0  0  1  0  0  3  0  0  0  0  0  0
  187.5600  176.8130  135.6740 N   0  0  0  0  0  2  0  0  0  0  0  0
  188.7270  177.5030  135.8880 O   0  0  0  0  0  0  0  0  0  0  0  0
  184.4740  177.3860  137.6700 C   0  0  0  0  0  0  0  0  0  0  0  0
  183.1600  176.8720  137.6780 N   0  0  0  0  0  2  0  0  0  0  0  0
  185.2500  176.7980  136.7100 C   0  0  0  0  0  0  0  0  0  0  0  0
  186.5690  177.2090  136.5810 C   0  0  0  0  0  0  0  0  0  0  0  0
  184.4770  175.7850  135.9550 C   0  0  0  0  0  2  0  0  0  0  0  0
  187.0600  178.1620  137.3840 C   0  0  0  0  0  0  0  0  0  0  0  0
  183.0790  175.8620  136.6160 C   0  0  1  0  0  3  0  0  0  0  0  0
  182.7240  174.5320  137.1960 C   0  0  0  0  0  3  0  0  0  0  0  0
  183.6410  173.5750  137.3090 C   0  0  0  0  0  2  0  0  0  0  0  0
  189.6910  176.6420  141.2070 C   0  0  0  0  0  2  0  0  0  0  0  0
  188.0760  177.8200  147.0510 C   0  0  0  0  0  0  0  0  0  0  0  0
  184.9120  178.5680  143.8760 C   0  0  0  0  0  3  0  0  0  0  0  0
  189.7310  177.0400  142.6090 N   0  0  0  0  0  2  0  0  0  0  0  0
  190.3020  176.9220  146.8980 C   0  0  0  0  0  0  0  0  0  0  0  0
  189.2860  177.4920  147.6560 C   0  0  0  0  0  3  0  0  0  0  0  0
  186.6660  177.9990  145.1190 C   0  0  0  0  0  0  0  0  0  0  0  0
  188.9040  176.9670  144.9430 N   0  0  0  0  0  0  0  0  0  0  0  0
  185.7200  178.5790  145.9140 C   0  0  0  0  0  0  0  0  0  0  0  0
  186.1800  177.9910  143.8290 C   0  0  0  0  0  3  0  0  0  0  0  0
  187.0840  178.4040  147.7880 N   0  0  0  0  0  0  0  0  0  0  0  0
  185.9240  178.7760  147.2370 N   0  0  0  0  0  0  0  0  0  0  0  0
  191.6010  176.5760  147.5300 C   0  0  0  0  0  1  0  0  0  0  0  0
  190.0900  176.6640  145.5440 C   0  0  0  0  0  3  0  0  0  0  0  0
  187.8930  177.5670  145.6640 C   0  0  0  0  0  0  0  0  0  0  0  0
  184.6170  178.9410  145.1830 C   0  0  0  0  0  3  0  0  0  0  0  0
  187.8560  175.7900  143.2200 O   0  0  0  0  0  0  0  0  0  0  0  0
  188.7760  176.5790  143.5680 C   0  0  0  0  0  0  0  0  0  0  0  0
  2  1  1  1  0  0  0
  2 22  1  0  0  0  0
  3  2  1  0  0  0  0
  4  5  1  0  0  0  0
  5  7  1  0  0  0  0
  5  3  1  0  0  0  0
  6  5  1  0  0  0  0
  8  9  1  0  0  0  0
 10 18  1  0  0  0  0
 10  7  1  1  0  0  0
 11 12  1  0  0  0  0
 11 16  1  0  0  0  0
 12 10  1  0  0  0  0
 13 14  1  0  0  0  0
 13  9  2  0  0  0  0
 15 13  1  0  0  0  0
 16 15  2  0  0  0  0
 16 18  1  0  0  0  0
 17 19  1  0  0  0  0
 17 15  1  0  0  0  0
 18  8  2  0  0  0  0
 19 20  1  1  0  0  0
 19 14  1  0  0  0  0
 20 21  2  0  0  0  0
 22 25  1  0  0  0  0
 23 27  2  0  0  0  0
 23 32  1  0  0  0  0
 24 37  1  0  0  0  0
 25 39  1  0  0  0  0
 26 34  1  0  0  0  0
 26 27  1  0  0  0  0
 28 36  2  0  0  0  0
 28 30  1  0  0  0  0
 29 35  1  0  0  0  0
 29 36  1  0  0  0  0
 30 33  1  0  0  0  0
 31 24  2  0  0  0  0
 31 28  1  0  0  0  0
 33 32  2  0  0  0  0
 35 26  2  0  0  0  0
 36 23  1  0  0  0  0
 37 30  2  0  0  0  0
 38 39  2  0  0  0  0
 39 29  1  0  0  0  0
M  END
>  <MODEL>
6

>  <REMARK>
 VINA RESULT:      -9.3      1.679      2.069
  Name = 
  7 active torsions:
  status: ('A' for Active; 'I' for Inactive)
    1  A    between atoms: C_3  and  C_13
    2  A    between atoms: C_3  and  C_17
    3  A    between atoms: C_4  and  C_35
    4  A    between atoms: C_8  and  C_17
    5  A    between atoms: C_8  and  C_23
    6  A    between atoms: N_10  and  C_14
    7  A    between atoms: C_14  and  C_23
                            x       y       z     vdW  Elec       q    Type
                         _______ _______ _______ _____ _____    ______ ____

>  <TORSDO>
F 7

$$$$
=
 OpenBabel10232411043D

 39 44  0  0  1  0  0  0  0  0999 V2000
  192.0290  177.5960  140.7790 N   0  0  0  0  0  1  0  0  0  0  0  0
  190.6050  177.6340  141.0650 C   0  0  1  0  0  3  0  0  0  0  0  0
  189.8170  177.4220  139.7760 C   0  0  0  0  0  2  0  0  0  0  0  0
  189.1020  179.4150  138.7550 F   0  0  0  0  0  0  0  0  0  0  0  0
  188.6650  178.4130  139.5990 C   0  0  0  0  0  0  0  0  0  0  0  0
  188.3300  178.9910  140.8140 F   0  0  0  0  0  0  0  0  0  0  0  0
  187.4500  177.7530  138.9450 C   0  0  0  0  0  2  0  0  0  0  0  0
  187.0420  175.1900  137.1130 N   0  0  0  0  0  0  0  0  0  0  0  0
  187.4840  174.0150  136.5570 C   0  0  0  0  0  3  0  0  0  0  0  0
  187.5360  177.7050  137.4230 C   0  0  1  0  0  3  0  0  0  0  0  0
  189.4670  177.6350  136.2830 N   0  0  0  0  0  2  0  0  0  0  0  0
  188.6470  178.4940  136.9710 O   0  0  0  0  0  0  0  0  0  0  0  0
  188.7030  174.0190  135.8530 C   0  0  0  0  0  0  0  0  0  0  0  0
  189.3120  172.9230  135.2070 N   0  0  0  0  0  2  0  0  0  0  0  0
  189.4340  175.1670  135.7160 C   0  0  0  0  0  0  0  0  0  0  0  0
  188.9530  176.3310  136.2990 C   0  0  0  0  0  0  0  0  0  0  0  0
  190.6600  174.9190  134.9230 C   0  0  0  0  0  2  0  0  0  0  0  0
  187.7980  176.3190  136.9760 C   0  0  0  0  0  0  0  0  0  0  0  0
  190.5480  173.4130  134.5860 C   0  0  1  0  0  3  0  0  0  0  0  0
  191.7280  172.6850  135.1440 C   0  0  0  0  0  3  0  0  0  0  0  0
  192.3590  173.1420  136.2220 C   0  0  0  0  0  2  0  0  0  0  0  0
  190.2550  176.5970  142.1320 C   0  0  0  0  0  2  0  0  0  0  0  0
  186.2500  178.4710  146.4440 C   0  0  0  0  0  0  0  0  0  0  0  0
  184.6950  178.2560  142.1810 C   0  0  0  0  0  3  0  0  0  0  0  0
  189.6740  177.2180  143.3160 N   0  0  0  0  0  2  0  0  0  0  0  0
  188.3780  177.8740  147.3930 C   0  0  0  0  0  0  0  0  0  0  0  0
  187.1060  178.4140  147.5410 C   0  0  0  0  0  3  0  0  0  0  0  0
  185.7850  178.1400  144.1150 C   0  0  0  0  0  0  0  0  0  0  0  0
  187.9410  177.4110  145.0750 N   0  0  0  0  0  0  0  0  0  0  0  0
  184.5600  178.7060  144.3220 C   0  0  0  0  0  0  0  0  0  0  0  0
  185.8940  177.8580  142.7700 C   0  0  0  0  0  3  0  0  0  0  0  0
  185.0080  179.0250  146.5800 N   0  0  0  0  0  0  0  0  0  0  0  0
  184.1720  179.1400  145.5440 N   0  0  0  0  0  0  0  0  0  0  0  0
  189.3040  177.8150  148.5540 C   0  0  0  0  0  1  0  0  0  0  0  0
  188.7750  177.3740  146.1530 C   0  0  0  0  0  3  0  0  0  0  0  0
  186.6870  177.9750  145.1860 C   0  0  0  0  0  0  0  0  0  0  0  0
  183.8530  178.7910  143.1500 C   0  0  0  0  0  3  0  0  0  0  0  0
  187.7910  175.8380  143.3560 O   0  0  0  0  0  0  0  0  0  0  0  0
  188.4300  176.7910  143.8780 C   0  0  0  0  0  0  0  0  0  0  0  0
  2  1  1  6  0  0  0
  2 22  1  0  0  0  0
  3  2  1  0  0  0  0
  4  5  1  0  0  0  0
  5  3  1  0  0  0  0
  5  6  1  0  0  0  0
  7  5  1  0  0  0  0
  9  8  2  0  0  0  0
 10  7  1  1  0  0  0
 11 16  1  0  0  0  0
 11 12  1  0  0  0  0
 12 10  1  0  0  0  0
 13  9  1  0  0  0  0
 14 13  1  0  0  0  0
 15 13  2  0  0  0  0
 15 16  1  0  0  0  0
 16 18  2  0  0  0  0
 17 15  1  0  0  0  0
 18  8  1  0  0  0  0
 18 10  1  0  0  0  0
 19 17  1  0  0  0  0
 19 20  1  1  0  0  0
 19 14  1  0  0  0  0
 20 21  2  0  0  0  0
 22 25  1  0  0  0  0
 23 32  1  0  0  0  0
 23 27  2  0  0  0  0
 24 31  2  0  0  0  0
 24 37  1  0  0  0  0
 25 39  1  0  0  0  0
 26 27  1  0  0  0  0
 26 34  1  0  0  0  0
 28 30  1  0  0  0  0
 28 36  2  0  0  0  0
 29 36  1  0  0  0  0
 29 35  1  0  0  0  0
 30 33  1  0  0  0  0
 31 28  1  0  0  0  0
 33 32  2  0  0  0  0
 35 26  2  0  0  0  0
 36 23  1  0  0  0  0
 37 30  2  0  0  0  0
 38 39  2  0  0  0  0
 39 29  1  0  0  0  0
M  END
>  <MODEL>
7

>  <REMARK>
 VINA RESULT:      -9.2      2.847      5.066
  Name = 
  7 active torsions:
  status: ('A' for Active; 'I' for Inactive)
    1  A    between atoms: C_3  and  C_13
    2  A    between atoms: C_3  and  C_17
    3  A    between atoms: C_4  and  C_35
    4  A    between atoms: C_8  and  C_17
    5  A    between atoms: C_8  and  C_23
    6  A    between atoms: N_10  and  C_14
    7  A    between atoms: C_14  and  C_23
                            x       y       z     vdW  Elec       q    Type
                         _______ _______ _______ _____ _____    ______ ____

>  <TORSDO>
F 7

$$$$
=
 OpenBabel10232411043D

 39 44  0  0  1  0  0  0  0  0999 V2000
  188.2070  178.4970  139.6300 N   0  0  0  0  0  1  0  0  0  0  0  0
  189.0600  177.3390  139.4230 C   0  0  1  0  0  3  0  0  0  0  0  0
  190.0740  177.6380  138.3240 C   0  0  0  0  0  2  0  0  0  0  0  0
  191.2950  176.1470  136.9780 F   0  0  0  0  0  0  0  0  0  0  0  0
  190.0200  176.6460  137.1610 C   0  0  0  0  0  0  0  0  0  0  0  0
  189.6380  177.2870  135.9930 F   0  0  0  0  0  0  0  0  0  0  0  0
  189.0990  175.4640  137.4710 C   0  0  0  0  0  2  0  0  0  0  0  0
  186.5490  177.3120  137.0520 N   0  0  0  0  0  0  0  0  0  0  0  0
  185.2900  177.7370  137.3980 C   0  0  0  0  0  3  0  0  0  0  0  0
  188.0000  175.2680  136.4330 C   0  0  1  0  0  3  0  0  0  0  0  0
  186.3180  173.7990  136.6570 N   0  0  0  0  0  2  0  0  0  0  0  0
  187.6520  173.8770  136.3460 O   0  0  0  0  0  0  0  0  0  0  0  0
  184.2680  176.7780  137.5300 C   0  0  0  0  0  0  0  0  0  0  0  0
  182.9190  177.0190  137.8650 N   0  0  0  0  0  2  0  0  0  0  0  0
  184.5140  175.4510  137.3130 C   0  0  0  0  0  0  0  0  0  0  0  0
  185.8010  175.0640  136.9700 C   0  0  0  0  0  0  0  0  0  0  0  0
  183.2810  174.6500  137.4940 C   0  0  0  0  0  2  0  0  0  0  0  0
  186.7730  175.9790  136.8560 C   0  0  0  0  0  0  0  0  0  0  0  0
  182.2270  175.7250  137.8530 C   0  0  1  0  0  3  0  0  0  0  0  0
  181.6530  175.4350  139.2010 C   0  0  0  0  0  3  0  0  0  0  0  0
  180.7170  176.2240  139.7230 C   0  0  0  0  0  2  0  0  0  0  0  0
  189.7320  176.9410  140.7360 C   0  0  0  0  0  2  0  0  0  0  0  0
  187.2340  177.7420  146.3270 C   0  0  0  0  0  0  0  0  0  0  0  0
  191.6190  176.5590  146.2100 C   0  0  0  0  0  3  0  0  0  0  0  0
  188.7930  176.9630  141.8500 N   0  0  0  0  0  2  0  0  0  0  0  0
  185.6720  178.2350  144.5660 C   0  0  0  0  0  0  0  0  0  0  0  0
  185.9410  178.0580  145.9180 C   0  0  0  0  0  3  0  0  0  0  0  0
  189.5240  177.2120  145.8530 C   0  0  0  0  0  0  0  0  0  0  0  0
  187.9770  177.8230  144.0250 N   0  0  0  0  0  0  0  0  0  0  0  0
  189.7140  177.0250  147.1910 C   0  0  0  0  0  0  0  0  0  0  0  0
  190.7100  176.9140  145.2150 C   0  0  0  0  0  3  0  0  0  0  0  0
  187.4960  177.5410  147.6530 N   0  0  0  0  0  0  0  0  0  0  0  0
  188.7120  177.1930  148.0850 N   0  0  0  0  0  0  0  0  0  0  0  0
  184.2940  178.5640  144.1160 C   0  0  0  0  0  1  0  0  0  0  0  0
  186.7040  178.1180  143.6360 C   0  0  0  0  0  3  0  0  0  0  0  0
  188.2640  177.6060  145.3570 C   0  0  0  0  0  0  0  0  0  0  0  0
  191.0000  176.6250  147.4540 C   0  0  0  0  0  3  0  0  0  0  0  0
  189.9600  178.5870  143.0560 O   0  0  0  0  0  0  0  0  0  0  0  0
  188.9680  177.8120  142.9880 C   0  0  0  0  0  0  0  0  0  0  0  0
  2  1  1  1  0  0  0
  2 22  1  0  0  0  0
  3  2  1  0  0  0  0
  4  5  1  0  0  0  0
  5  7  1  0  0  0  0
  5  3  1  0  0  0  0
  6  5  1  0  0  0  0
  8  9  1  0  0  0  0
  9 13  2  0  0  0  0
 10 18  1  0  0  0  0
 10  7  1  1  0  0  0
 11 16  1  0  0  0  0
 12 10  1  0  0  0  0
 12 11  1  0  0  0  0
 13 14  1  0  0  0  0
 15 17  1  0  0  0  0
 15 13  1  0  0  0  0
 16 15  2  0  0  0  0
 17 19  1  0  0  0  0
 18 16  1  0  0  0  0
 18  8  2  0  0  0  0
 19 14  1  0  0  0  0
 19 20  1  1  0  0  0
 20 21  2  0  0  0  0
 22 25  1  0  0  0  0
 23 32  1  0  0  0  0
 24 37  1  0  0  0  0
 25 39  1  0  0  0  0
 26 27  1  0  0  0  0
 27 23  2  0  0  0  0
 28 30  1  0  0  0  0
 29 36  1  0  0  0  0
 30 37  2  0  0  0  0
 30 33  1  0  0  0  0
 31 28  1  0  0  0  0
 31 24  2  0  0  0  0
 32 33  2  0  0  0  0
 34 26  1  0  0  0  0
 35 29  1  0  0  0  0
 35 26  2  0  0  0  0
 36 28  2  0  0  0  0
 36 23  1  0  0  0  0
 39 38  2  0  0  0  0
 39 29  1  0  0  0  0
M  END
>  <MODEL>
8

>  <REMARK>
 VINA RESULT:      -9.2      1.817      3.491
  Name = 
  7 active torsions:
  status: ('A' for Active; 'I' for Inactive)
    1  A    between atoms: C_3  and  C_13
    2  A    between atoms: C_3  and  C_17
    3  A    between atoms: C_4  and  C_35
    4  A    between atoms: C_8  and  C_17
    5  A    between atoms: C_8  and  C_23
    6  A    between atoms: N_10  and  C_14
    7  A    between atoms: C_14  and  C_23
                            x       y       z     vdW  Elec       q    Type
                         _______ _______ _______ _____ _____    ______ ____

>  <TORSDO>
F 7

$$$$
=
 OpenBabel10232411043D

 39 44  0  0  1  0  0  0  0  0999 V2000
  187.3840  178.3860  139.1500 N   0  0  0  0  0  1  0  0  0  0  0  0
  188.4810  177.4590  138.9330 C   0  0  1  0  0  3  0  0  0  0  0  0
  189.3220  177.9250  137.7500 C   0  0  0  0  0  2  0  0  0  0  0  0
  188.8230  178.0870  135.4580 F   0  0  0  0  0  0  0  0  0  0  0  0
  189.0310  177.1570  136.4580 C   0  0  0  0  0  0  0  0  0  0  0  0
  187.8760  176.4030  136.5920 F   0  0  0  0  0  0  0  0  0  0  0  0
  190.2180  176.2850  136.0420 C   0  0  0  0  0  2  0  0  0  0  0  0
  192.4620  176.2980  138.2900 N   0  0  0  0  0  0  0  0  0  0  0  0
  193.7660  176.1690  138.7020 C   0  0  0  0  0  3  0  0  0  0  0  0
  190.5160  175.1620  137.0290 C   0  0  1  0  0  3  0  0  0  0  0  0
  191.7020  173.3280  136.5140 N   0  0  0  0  0  2  0  0  0  0  0  0
  190.4610  173.8940  136.3580 O   0  0  0  0  0  0  0  0  0  0  0  0
  194.4710  175.0010  138.3520 C   0  0  0  0  0  0  0  0  0  0  0  0
  195.8030  174.6830  138.6900 N   0  0  0  0  0  2  0  0  0  0  0  0
  193.8740  174.0100  137.6230 C   0  0  0  0  0  0  0  0  0  0  0  0
  192.5570  174.1830  137.2230 C   0  0  0  0  0  0  0  0  0  0  0  0
  194.8110  172.8840  137.4010 C   0  0  0  0  0  2  0  0  0  0  0  0
  191.8950  175.3000  137.5490 C   0  0  0  0  0  0  0  0  0  0  0  0
  196.0900  173.3560  138.1340 C   0  0  1  0  0  3  0  0  0  0  0  0
  197.2230  173.4380  137.1630 C   0  0  0  0  0  3  0  0  0  0  0  0
  197.6390  174.6160  136.7050 C   0  0  0  0  0  2  0  0  0  0  0  0
  189.3100  177.3180  140.2100 C   0  0  0  0  0  2  0  0  0  0  0  0
  187.2600  177.6740  146.0260 C   0  0  0  0  0  0  0  0  0  0  0  0
  191.6430  176.6090  145.4750 C   0  0  0  0  0  3  0  0  0  0  0  0
  188.4640  177.2420  141.3950 N   0  0  0  0  0  2  0  0  0  0  0  0
  185.5510  178.2490  144.4340 C   0  0  0  0  0  0  0  0  0  0  0  0
  185.9330  177.9860  145.7450 C   0  0  0  0  0  3  0  0  0  0  0  0
  189.5140  177.2330  145.3340 C   0  0  0  0  0  0  0  0  0  0  0  0
  187.8120  177.9310  143.6830 N   0  0  0  0  0  0  0  0  0  0  0  0
  189.8160  176.9600  146.6360 C   0  0  0  0  0  0  0  0  0  0  0  0
  190.6490  177.0080  144.5840 C   0  0  0  0  0  3  0  0  0  0  0  0
  187.6340  177.3890  147.3090 N   0  0  0  0  0  0  0  0  0  0  0  0
  188.8870  177.0420  147.6170 N   0  0  0  0  0  0  0  0  0  0  0  0
  184.1360  178.5750  144.1200 C   0  0  0  0  0  1  0  0  0  0  0  0
  186.5070  178.2210  143.4190 C   0  0  0  0  0  3  0  0  0  0  0  0
  188.2110  177.6300  144.9690 C   0  0  0  0  0  0  0  0  0  0  0  0
  191.1260  176.5740  146.7670 C   0  0  0  0  0  3  0  0  0  0  0  0
  189.6950  178.8070  142.6150 O   0  0  0  0  0  0  0  0  0  0  0  0
  188.7150  178.0150  142.5720 C   0  0  0  0  0  0  0  0  0  0  0  0
  2  1  1  1  0  0  0
  2 22  1  0  0  0  0
  3  2  1  0  0  0  0
  4  5  1  0  0  0  0
  5  6  1  0  0  0  0
  5  3  1  0  0  0  0
  7  5  1  0  0  0  0
  8  9  1  0  0  0  0
 10  7  1  6  0  0  0
 10 18  1  0  0  0  0
 11 16  1  0  0  0  0
 12 11  1  0  0  0  0
 12 10  1  0  0  0  0
 13 14  1  0  0  0  0
 13  9  2  0  0  0  0
 15 13  1  0  0  0  0
 16 18  1  0  0  0  0
 16 15  2  0  0  0  0
 17 15  1  0  0  0  0
 17 19  1  0  0  0  0
 18  8  2  0  0  0  0
 19 20  1  6  0  0  0
 19 14  1  0  0  0  0
 21 20  2  0  0  0  0
 22 25  1  0  0  0  0
 23 32  1  0  0  0  0
 24 37  1  0  0  0  0
 25 39  1  0  0  0  0
 26 27  1  0  0  0  0
 27 23  2  0  0  0  0
 28 30  1  0  0  0  0
 29 36  1  0  0  0  0
 30 37  2  0  0  0  0
 30 33  1  0  0  0  0
 31 28  1  0  0  0  0
 31 24  2  0  0  0  0
 32 33  2  0  0  0  0
 34 26  1  0  0  0  0
 35 29  1  0  0  0  0
 35 26  2  0  0  0  0
 36 28  2  0  0  0  0
 36 23  1  0  0  0  0
 39 38  2  0  0  0  0
 39 29  1  0  0  0  0
M  END
>  <MODEL>
9

>  <REMARK>
 VINA RESULT:      -9.2      4.082      7.653
  Name = 
  7 active torsions:
  status: ('A' for Active; 'I' for Inactive)
    1  A    between atoms: C_3  and  C_13
    2  A    between atoms: C_3  and  C_17
    3  A    between atoms: C_4  and  C_35
    4  A    between atoms: C_8  and  C_17
    5  A    between atoms: C_8  and  C_23
    6  A    between atoms: N_10  and  C_14
    7  A    between atoms: C_14  and  C_23
                            x       y       z     vdW  Elec       q    Type
                         _______ _______ _______ _____ _____    ______ ____

>  <TORSDO>
F 7

$$$$
