=
 OpenBabel10232409463D

 25 27  0  0  1  0  0  0  0  0999 V2000
  188.1140  177.0100  143.6480 C   0  0  1  0  0  3  0  0  0  0  0  0
  185.3860  178.8580  146.7080 N   0  0  0  0  0  1  0  0  0  0  0  0
  189.2970  178.7440  149.0030 O   0  0  0  0  0  0  0  0  0  0  0  0
  189.1490  176.7210  145.9320 C   0  0  0  0  0  2  0  0  0  0  0  0
  188.1490  177.5200  145.1010 C   0  0  2  0  0  3  0  0  0  0  0  0
  188.7750  178.1190  148.0430 C   0  0  0  0  0  0  0  0  0  0  0  0
  186.7780  178.4610  146.6010 C   0  0  2  0  0  3  0  0  0  0  0  0
  186.8860  177.3960  145.7000 O   0  0  0  0  0  0  0  0  0  0  0  0
  189.6260  177.5170  147.0580 N   0  0  0  0  0  2  0  0  0  0  0  0
  187.2830  178.0230  147.9700 C   0  0  0  0  0  2  0  0  0  0  0  0
  186.5530  178.8460  140.6170 C   0  0  0  0  0  3  0  0  0  0  0  0
  187.4230  178.2500  141.4680 C   0  0  0  0  0  3  0  0  0  0  0  0
  185.0830  179.1950  140.7510 C   0  0  0  0  0  0  0  0  0  0  0  0
  183.7770  178.1150  144.0960 F   0  0  0  0  0  0  0  0  0  0  0  0
  187.1100  177.7760  142.8240 C   0  0  0  0  0  0  0  0  0  0  0  0
  185.8860  177.9480  143.1800 C   0  0  0  0  0  0  0  0  0  0  0  0
  184.2830  178.9550  141.8210 C   0  0  0  0  0  3  0  0  0  0  0  0
  184.6610  178.3090  143.0870 C   0  0  0  0  0  0  0  0  0  0  0  0
  183.1410  179.5150  139.2470 C   0  0  0  0  0  1  0  0  0  0  0  0
  184.4600  179.8300  139.6720 O   0  0  0  0  0  0  0  0  0  0  0  0
  189.5040  177.0510  142.9830 C   0  0  1  0  0  3  0  0  0  0  0  0
  191.6680  176.1380  143.3140 C   0  0  0  0  0  2  0  0  0  0  0  0
  190.3090  178.0590  143.5360 O   0  0  0  0  0  0  0  0  0  0  0  0
  191.6280  177.6480  143.2910 C   0  0  0  0  0  2  0  0  0  0  0  0
  190.2350  175.7350  143.1560 C   0  0  0  0  0  2  0  0  0  0  0  0
  1 15  1  6  0  0  0
  4  9  1  0  0  0  0
  5  1  1  6  0  0  0
  5  8  1  0  0  0  0
  5  4  1  0  0  0  0
  6  3  2  0  0  0  0
  7  2  1  1  0  0  0
  7 10  1  0  0  0  0
  8  7  1  0  0  0  0
  9  6  1  0  0  0  0
 10  6  1  0  0  0  0
 11 13  1  0  0  0  0
 11 12  2  0  0  0  0
 12 15  1  0  0  0  0
 13 17  2  0  0  0  0
 15 16  2  0  0  0  0
 17 18  1  0  0  0  0
 18 16  2  0  0  0  0
 18 14  1  0  0  0  0
 19 20  1  0  0  0  0
 20 13  1  0  0  0  0
 21 25  1  0  0  0  0
 21 23  1  0  0  0  0
 21  1  1  1  0  0  0
 24 22  1  0  0  0  0
 24 23  1  0  0  0  0
 25 22  1  0  0  0  0
M  END
>  <MODEL>
1

>  <REMARK>
 VINA RESULT:      -8.5      0.000      0.000
  Name = 
  4 active torsions:
  status: ('A' for Active; 'I' for Inactive)
    1  A    between atoms: C_1  and  C_6
    2  A    between atoms: C_1  and  C_13
    3  A    between atoms: C_1  and  C_14
    4  A    between atoms: C_11  and  O_17
                            x       y       z     vdW  Elec       q    Type
                         _______ _______ _______ _____ _____    ______ ____

>  <TORSDO>
F 4

$$$$
=
 OpenBabel10232409463D

 25 27  0  0  1  0  0  0  0  0999 V2000
  187.0740  177.5340  144.1470 C   0  0  1  0  0  3  0  0  0  0  0  0
  190.5790  176.0770  141.7370 N   0  0  0  0  0  1  0  0  0  0  0  0
  188.8080  179.1460  138.9060 O   0  0  0  0  0  0  0  0  0  0  0  0
  186.6780  178.1050  141.7210 C   0  0  0  0  0  2  0  0  0  0  0  0
  187.7290  177.7540  142.7710 C   0  0  2  0  0  3  0  0  0  0  0  0
  188.3990  178.4270  139.8550 C   0  0  0  0  0  0  0  0  0  0  0  0
  189.4940  177.0310  141.5980 C   0  0  2  0  0  3  0  0  0  0  0  0
  188.3970  176.5940  142.3500 O   0  0  0  0  0  0  0  0  0  0  0  0
  187.2800  178.8700  140.6340 N   0  0  0  0  0  2  0  0  0  0  0  0
  189.0970  177.1320  140.1300 C   0  0  0  0  0  2  0  0  0  0  0  0
  190.5150  176.8860  145.8000 C   0  0  0  0  0  3  0  0  0  0  0  0
  189.4910  176.9570  144.9150 C   0  0  0  0  0  3  0  0  0  0  0  0
  190.5920  177.1820  147.2850 C   0  0  0  0  0  0  0  0  0  0  0  0
  187.2630  178.3330  148.5690 F   0  0  0  0  0  0  0  0  0  0  0  0
  188.1130  177.3650  145.2260 C   0  0  0  0  0  0  0  0  0  0  0  0
  187.9180  177.6900  146.4550 C   0  0  0  0  0  0  0  0  0  0  0  0
  189.5840  177.6180  148.0830 C   0  0  0  0  0  3  0  0  0  0  0  0
  188.1950  177.8960  147.6880 C   0  0  0  0  0  0  0  0  0  0  0  0
  192.5290  175.7650  147.9010 C   0  0  0  0  0  1  0  0  0  0  0  0
  191.8210  176.9960  147.9270 O   0  0  0  0  0  0  0  0  0  0  0  0
  186.0940  178.6660  144.5130 C   0  0  1  0  0  3  0  0  0  0  0  0
  183.8690  178.9170  145.2990 C   0  0  0  0  0  2  0  0  0  0  0  0
  185.2950  179.0300  143.4170 O   0  0  0  0  0  0  0  0  0  0  0  0
  184.1420  179.5980  143.9780 C   0  0  0  0  0  2  0  0  0  0  0  0
  185.1660  178.2490  145.6370 C   0  0  0  0  0  2  0  0  0  0  0  0
  1 15  1  1  0  0  0
  3  6  2  0  0  0  0
  4  5  1  0  0  0  0
  5  1  1  1  0  0  0
  6 10  1  0  0  0  0
  6  9  1  0  0  0  0
  7  2  1  6  0  0  0
  7  8  1  0  0  0  0
  8  5  1  0  0  0  0
  9  4  1  0  0  0  0
 10  7  1  0  0  0  0
 11 13  1  0  0  0  0
 12 15  1  0  0  0  0
 12 11  2  0  0  0  0
 13 20  1  0  0  0  0
 13 17  2  0  0  0  0
 15 16  2  0  0  0  0
 16 18  2  0  0  0  0
 18 17  1  0  0  0  0
 18 14  1  0  0  0  0
 19 20  1  0  0  0  0
 21  1  1  6  0  0  0
 21 25  1  0  0  0  0
 22 25  1  0  0  0  0
 23 24  1  0  0  0  0
 23 21  1  0  0  0  0
 24 22  1  0  0  0  0
M  END
>  <MODEL>
2

>  <REMARK>
 VINA RESULT:      -8.4      2.926      7.055
  Name = 
  4 active torsions:
  status: ('A' for Active; 'I' for Inactive)
    1  A    between atoms: C_1  and  C_6
    2  A    between atoms: C_1  and  C_13
    3  A    between atoms: C_1  and  C_14
    4  A    between atoms: C_11  and  O_17
                            x       y       z     vdW  Elec       q    Type
                         _______ _______ _______ _____ _____    ______ ____

>  <TORSDO>
F 4

$$$$
=
 OpenBabel10232409463D

 25 27  0  0  1  0  0  0  0  0999 V2000
  187.3290  178.4320  145.2050 C   0  0  1  0  0  3  0  0  0  0  0  0
  191.5470  179.3230  143.9270 N   0  0  0  0  0  1  0  0  0  0  0  0
  190.3660  176.1930  140.8640 O   0  0  0  0  0  0  0  0  0  0  0  0
  188.1700  176.5110  143.8000 C   0  0  0  0  0  2  0  0  0  0  0  0
  188.3590  177.9840  144.1510 C   0  0  2  0  0  3  0  0  0  0  0  0
  190.0170  176.5160  142.0290 C   0  0  0  0  0  0  0  0  0  0  0  0
  190.4540  178.4610  143.5170 C   0  0  2  0  0  3  0  0  0  0  0  0
  189.6660  178.1540  144.6330 O   0  0  0  0  0  0  0  0  0  0  0  0
  188.6780  176.2370  142.4600 N   0  0  0  0  0  2  0  0  0  0  0  0
  191.0190  177.1770  142.9240 C   0  0  0  0  0  2  0  0  0  0  0  0
  183.4850  178.8640  145.0240 C   0  0  0  0  0  3  0  0  0  0  0  0
  184.7560  178.7050  145.4690 C   0  0  0  0  0  3  0  0  0  0  0  0
  182.8920  178.8610  143.6290 C   0  0  0  0  0  0  0  0  0  0  0  0
  185.5760  178.3320  141.0640 F   0  0  0  0  0  0  0  0  0  0  0  0
  185.9370  178.4690  144.6260 C   0  0  0  0  0  0  0  0  0  0  0  0
  185.6940  178.4380  143.3640 C   0  0  0  0  0  0  0  0  0  0  0  0
  183.5620  178.6970  142.4590 C   0  0  0  0  0  3  0  0  0  0  0  0
  185.0070  178.4820  142.2840 C   0  0  0  0  0  0  0  0  0  0  0  0
  180.8610  179.1810  142.2470 C   0  0  0  0  0  1  0  0  0  0  0  0
  181.5120  179.0460  143.5030 O   0  0  0  0  0  0  0  0  0  0  0  0
  187.3670  177.5490  146.4670 C   0  0  1  0  0  3  0  0  0  0  0  0
  188.0080  177.7190  148.7450 C   0  0  0  0  0  2  0  0  0  0  0  0
  188.6060  176.9060  146.6080 O   0  0  0  0  0  0  0  0  0  0  0  0
  188.7200  176.6290  147.9790 C   0  0  0  0  0  2  0  0  0  0  0  0
  187.1320  178.3700  147.7190 C   0  0  0  0  0  2  0  0  0  0  0  0
  1 15  1  6  0  0  0
  3  6  2  0  0  0  0
  4  5  1  0  0  0  0
  5  8  1  0  0  0  0
  5  1  1  1  0  0  0
  6  9  1  0  0  0  0
  6 10  1  0  0  0  0
  7  2  1  1  0  0  0
  7  8  1  0  0  0  0
  9  4  1  0  0  0  0
 10  7  1  0  0  0  0
 11 12  2  0  0  0  0
 13 11  1  0  0  0  0
 14 18  1  0  0  0  0
 15 12  1  0  0  0  0
 16 15  2  0  0  0  0
 17 13  2  0  0  0  0
 18 17  1  0  0  0  0
 18 16  2  0  0  0  0
 19 20  1  0  0  0  0
 20 13  1  0  0  0  0
 21  1  1  6  0  0  0
 21 23  1  0  0  0  0
 21 25  1  0  0  0  0
 23 24  1  0  0  0  0
 24 22  1  0  0  0  0
 25 22  1  0  0  0  0
M  END
>  <MODEL>
3

>  <REMARK>
 VINA RESULT:      -8.3      2.440      4.632
  Name = 
  4 active torsions:
  status: ('A' for Active; 'I' for Inactive)
    1  A    between atoms: C_1  and  C_6
    2  A    between atoms: C_1  and  C_13
    3  A    between atoms: C_1  and  C_14
    4  A    between atoms: C_11  and  O_17
                            x       y       z     vdW  Elec       q    Type
                         _______ _______ _______ _____ _____    ______ ____

>  <TORSDO>
F 4

$$$$
=
 OpenBabel10232409463D

 25 27  0  0  1  0  0  0  0  0999 V2000
  188.4340  178.5970  141.2570 C   0  0  1  0  0  3  0  0  0  0  0  0
  184.4010  179.6680  139.5810 N   0  0  0  0  0  1  0  0  0  0  0  0
  183.3440  178.8750  143.9200 O   0  0  0  0  0  0  0  0  0  0  0  0
  186.6530  177.7090  142.8090 C   0  0  0  0  0  2  0  0  0  0  0  0
  186.9660  178.7180  141.7080 C   0  0  2  0  0  3  0  0  0  0  0  0
  184.2480  178.5290  143.1160 C   0  0  0  0  0  0  0  0  0  0  0  0
  184.9710  179.2780  140.8580 C   0  0  2  0  0  3  0  0  0  0  0  0
  186.0960  178.4760  140.6330 O   0  0  0  0  0  0  0  0  0  0  0  0
  185.5410  178.1780  143.6290 N   0  0  0  0  0  2  0  0  0  0  0  0
  183.9360  178.4920  141.6520 C   0  0  0  0  0  2  0  0  0  0  0  0
  190.2990  175.9730  143.4080 C   0  0  0  0  0  3  0  0  0  0  0  0
  189.4630  176.5730  142.5270 C   0  0  0  0  0  3  0  0  0  0  0  0
  191.2720  176.5350  144.4270 C   0  0  0  0  0  0  0  0  0  0  0  0
  191.2490  180.2830  144.3320 F   0  0  0  0  0  0  0  0  0  0  0  0
  189.2960  178.0240  142.3530 C   0  0  0  0  0  0  0  0  0  0  0  0
  190.0440  178.7410  143.1140 C   0  0  0  0  0  0  0  0  0  0  0  0
  191.5270  177.8450  144.6720 C   0  0  0  0  0  3  0  0  0  0  0  0
  190.9180  179.0100  144.0110 C   0  0  0  0  0  0  0  0  0  0  0  0
  192.1050  175.7420  146.6210 C   0  0  0  0  0  1  0  0  0  0  0  0
  191.9970  175.6310  145.2090 O   0  0  0  0  0  0  0  0  0  0  0  0
  188.5800  177.7690  139.9650 C   0  0  1  0  0  3  0  0  0  0  0  0
  190.1010  177.5300  138.1600 C   0  0  0  0  0  2  0  0  0  0  0  0
  188.0360  178.4420  138.8590 O   0  0  0  0  0  0  0  0  0  0  0  0
  188.6990  177.9080  137.7450 C   0  0  0  0  0  2  0  0  0  0  0  0
  190.0360  177.4840  139.6560 C   0  0  0  0  0  2  0  0  0  0  0  0
  1 15  1  1  0  0  0
  4  9  1  0  0  0  0
  5  1  1  6  0  0  0
  5  4  1  0  0  0  0
  6  9  1  0  0  0  0
  6  3  2  0  0  0  0
  7  2  1  6  0  0  0
  7 10  1  0  0  0  0
  8  7  1  0  0  0  0
  8  5  1  0  0  0  0
 10  6  1  0  0  0  0
 11 13  1  0  0  0  0
 12 11  2  0  0  0  0
 13 17  2  0  0  0  0
 13 20  1  0  0  0  0
 15 12  1  0  0  0  0
 15 16  2  0  0  0  0
 16 18  2  0  0  0  0
 18 14  1  0  0  0  0
 18 17  1  0  0  0  0
 20 19  1  0  0  0  0
 21  1  1  1  0  0  0
 22 25  1  0  0  0  0
 23 21  1  0  0  0  0
 24 22  1  0  0  0  0
 24 23  1  0  0  0  0
 25 21  1  0  0  0  0
M  END
>  <MODEL>
4

>  <REMARK>
 VINA RESULT:      -8.2      3.211      6.335
  Name = 
  4 active torsions:
  status: ('A' for Active; 'I' for Inactive)
    1  A    between atoms: C_1  and  C_6
    2  A    between atoms: C_1  and  C_13
    3  A    between atoms: C_1  and  C_14
    4  A    between atoms: C_11  and  O_17
                            x       y       z     vdW  Elec       q    Type
                         _______ _______ _______ _____ _____    ______ ____

>  <TORSDO>
F 4

$$$$
=
 OpenBabel10232409463D

 25 27  0  0  1  0  0  0  0  0999 V2000
  187.4710  177.4270  143.8260 C   0  0  1  0  0  3  0  0  0  0  0  0
  190.7930  176.1640  141.0720 N   0  0  0  0  0  1  0  0  0  0  0  0
  188.6100  179.1640  138.4630 O   0  0  0  0  0  0  0  0  0  0  0  0
  186.8160  177.9970  141.4560 C   0  0  0  0  0  2  0  0  0  0  0  0
  187.9790  177.6900  142.3960 C   0  0  2  0  0  3  0  0  0  0  0  0
  188.3310  178.4180  139.4380 C   0  0  0  0  0  0  0  0  0  0  0  0
  189.6550  177.0640  141.0490 C   0  0  2  0  0  3  0  0  0  0  0  0
  188.6590  176.5680  141.8980 O   0  0  0  0  0  0  0  0  0  0  0  0
  187.2720  178.7990  140.3260 N   0  0  0  0  0  2  0  0  0  0  0  0
  189.1150  177.1570  139.6290 C   0  0  0  0  0  2  0  0  0  0  0  0
  189.3900  176.7910  147.1280 C   0  0  0  0  0  3  0  0  0  0  0  0
  188.4120  176.9670  146.2070 C   0  0  0  0  0  3  0  0  0  0  0  0
  190.8970  176.9390  147.0480 C   0  0  0  0  0  0  0  0  0  0  0  0
  191.9310  177.9570  143.5900 F   0  0  0  0  0  0  0  0  0  0  0  0
  188.6120  177.3810  144.8110 C   0  0  0  0  0  0  0  0  0  0  0  0
  189.8410  177.5620  144.4790 C   0  0  0  0  0  0  0  0  0  0  0  0
  191.6230  177.2930  145.9570 C   0  0  0  0  0  3  0  0  0  0  0  0
  191.1130  177.6160  144.6150 C   0  0  0  0  0  0  0  0  0  0  0  0
  192.7350  175.7800  148.2370 C   0  0  0  0  0  1  0  0  0  0  0  0
  191.6430  176.6890  148.2030 O   0  0  0  0  0  0  0  0  0  0  0  0
  186.4160  178.4600  144.2680 C   0  0  1  0  0  3  0  0  0  0  0  0
  184.8620  178.7820  146.0320 C   0  0  0  0  0  2  0  0  0  0  0  0
  185.1420  178.1370  143.7760 O   0  0  0  0  0  0  0  0  0  0  0  0
  184.2420  178.7570  144.6550 C   0  0  0  0  0  2  0  0  0  0  0  0
  186.3170  178.5340  145.7790 C   0  0  0  0  0  2  0  0  0  0  0  0
  1 15  1  1  0  0  0
  3  6  2  0  0  0  0
  4  5  1  0  0  0  0
  5  1  1  1  0  0  0
  6 10  1  0  0  0  0
  6  9  1  0  0  0  0
  7  2  1  6  0  0  0
  7  8  1  0  0  0  0
  8  5  1  0  0  0  0
  9  4  1  0  0  0  0
 10  7  1  0  0  0  0
 12 11  2  0  0  0  0
 13 11  1  0  0  0  0
 13 20  1  0  0  0  0
 14 18  1  0  0  0  0
 15 12  1  0  0  0  0
 16 18  2  0  0  0  0
 16 15  2  0  0  0  0
 17 13  2  0  0  0  0
 18 17  1  0  0  0  0
 20 19  1  0  0  0  0
 21  1  1  1  0  0  0
 21 25  1  0  0  0  0
 23 21  1  0  0  0  0
 23 24  1  0  0  0  0
 24 22  1  0  0  0  0
 25 22  1  0  0  0  0
M  END
>  <MODEL>
5

>  <REMARK>
 VINA RESULT:      -8.0      3.225      7.352
  Name = 
  4 active torsions:
  status: ('A' for Active; 'I' for Inactive)
    1  A    between atoms: C_1  and  C_6
    2  A    between atoms: C_1  and  C_13
    3  A    between atoms: C_1  and  C_14
    4  A    between atoms: C_11  and  O_17
                            x       y       z     vdW  Elec       q    Type
                         _______ _______ _______ _____ _____    ______ ____

>  <TORSDO>
F 4

$$$$
=
 OpenBabel10232409463D

 25 27  0  0  1  0  0  0  0  0999 V2000
  188.1300  178.4420  141.6210 C   0  0  1  0  0  3  0  0  0  0  0  0
  185.8140  177.7530  145.4130 N   0  0  0  0  0  1  0  0  0  0  0  0
  182.4400  178.4060  142.4530 O   0  0  0  0  0  0  0  0  0  0  0  0
  185.8060  179.3800  141.3290 C   0  0  0  0  0  2  0  0  0  0  0  0
  186.6740  178.4060  142.1210 C   0  0  2  0  0  3  0  0  0  0  0  0
  183.6540  178.7240  142.5480 C   0  0  0  0  0  0  0  0  0  0  0  0
  185.5400  178.0370  144.0160 C   0  0  2  0  0  3  0  0  0  0  0  0
  186.6070  178.7640  143.4760 O   0  0  0  0  0  0  0  0  0  0  0  0
  184.4110  178.9540  141.3520 N   0  0  0  0  0  2  0  0  0  0  0  0
  184.2600  178.8560  143.9110 C   0  0  0  0  0  2  0  0  0  0  0  0
  190.1130  175.9620  143.8370 C   0  0  0  0  0  3  0  0  0  0  0  0
  189.2110  176.5100  142.9870 C   0  0  0  0  0  3  0  0  0  0  0  0
  191.2110  176.5760  144.6830 C   0  0  0  0  0  0  0  0  0  0  0  0
  191.3250  180.2910  144.1900 F   0  0  0  0  0  0  0  0  0  0  0  0
  189.0830  177.9410  142.6770 C   0  0  0  0  0  0  0  0  0  0  0  0
  189.9360  178.6950  143.2750 C   0  0  0  0  0  0  0  0  0  0  0  0
  191.5430  177.8900  144.7590 C   0  0  0  0  0  3  0  0  0  0  0  0
  190.9110  179.0090  144.0430 C   0  0  0  0  0  0  0  0  0  0  0  0
  191.9920  175.7870  146.8980 C   0  0  0  0  0  1  0  0  0  0  0  0
  191.9800  175.7210  145.4790 O   0  0  0  0  0  0  0  0  0  0  0  0
  188.3150  177.6540  140.3090 C   0  0  1  0  0  3  0  0  0  0  0  0
  189.6750  177.7150  138.3660 C   0  0  0  0  0  2  0  0  0  0  0  0
  187.5460  178.2000  139.2690 O   0  0  0  0  0  0  0  0  0  0  0  0
  188.1930  177.8040  138.0890 C   0  0  0  0  0  2  0  0  0  0  0  0
  189.7620  177.6640  139.8610 C   0  0  0  0  0  2  0  0  0  0  0  0
  1 15  1  1  0  0  0
  3  6  2  0  0  0  0
  4  9  1  0  0  0  0
  4  5  1  0  0  0  0
  5  1  1  6  0  0  0
  5  8  1  0  0  0  0
  6 10  1  0  0  0  0
  7  2  1  1  0  0  0
  8  7  1  0  0  0  0
  9  6  1  0  0  0  0
 10  7  1  0  0  0  0
 11 13  1  0  0  0  0
 12 11  2  0  0  0  0
 13 17  2  0  0  0  0
 13 20  1  0  0  0  0
 15 12  1  0  0  0  0
 15 16  2  0  0  0  0
 16 18  2  0  0  0  0
 18 14  1  0  0  0  0
 18 17  1  0  0  0  0
 20 19  1  0  0  0  0
 21  1  1  1  0  0  0
 22 25  1  0  0  0  0
 23 21  1  0  0  0  0
 24 22  1  0  0  0  0
 24 23  1  0  0  0  0
 25 21  1  0  0  0  0
M  END
>  <MODEL>
6

>  <REMARK>
 VINA RESULT:      -7.9      2.995      6.240
  Name = 
  4 active torsions:
  status: ('A' for Active; 'I' for Inactive)
    1  A    between atoms: C_1  and  C_6
    2  A    between atoms: C_1  and  C_13
    3  A    between atoms: C_1  and  C_14
    4  A    between atoms: C_11  and  O_17
                            x       y       z     vdW  Elec       q    Type
                         _______ _______ _______ _____ _____    ______ ____

>  <TORSDO>
F 4

$$$$
=
 OpenBabel10232409463D

 25 27  0  0  1  0  0  0  0  0999 V2000
  189.5800  177.7360  144.5630 C   0  0  1  0  0  3  0  0  0  0  0  0
  187.3720  178.7620  140.7830 N   0  0  0  0  0  1  0  0  0  0  0  0
  190.4730  175.8550  139.2020 O   0  0  0  0  0  0  0  0  0  0  0  0
  191.0490  177.1700  142.5900 C   0  0  0  0  0  2  0  0  0  0  0  0
  189.6180  177.4230  143.0550 C   0  0  2  0  0  3  0  0  0  0  0  0
  190.3580  176.6310  140.1860 C   0  0  0  0  0  0  0  0  0  0  0  0
  188.4890  177.9300  141.1890 C   0  0  2  0  0  3  0  0  0  0  0  0
  189.1000  178.4960  142.3130 O   0  0  0  0  0  0  0  0  0  0  0  0
  191.0570  176.3260  141.4000 N   0  0  0  0  0  2  0  0  0  0  0  0
  189.4960  177.8470  140.0490 C   0  0  0  0  0  2  0  0  0  0  0  0
  185.7420  178.2270  144.4270 C   0  0  0  0  0  3  0  0  0  0  0  0
  187.0420  178.0490  144.0880 C   0  0  0  0  0  3  0  0  0  0  0  0
  185.0680  178.4810  145.7610 C   0  0  0  0  0  0  0  0  0  0  0  0
  187.6080  178.5760  148.5170 F   0  0  0  0  0  0  0  0  0  0  0  0
  188.1820  178.0710  145.0160 C   0  0  0  0  0  0  0  0  0  0  0  0
  187.8630  178.2600  146.2480 C   0  0  0  0  0  0  0  0  0  0  0  0
  185.6710  178.5780  146.9730 C   0  0  0  0  0  3  0  0  0  0  0  0
  187.1090  178.4640  147.2620 C   0  0  0  0  0  0  0  0  0  0  0  0
  182.9110  178.8430  144.5970 C   0  0  0  0  0  1  0  0  0  0  0  0
  183.6780  178.6320  145.7740 O   0  0  0  0  0  0  0  0  0  0  0  0
  190.1640  176.5890  145.4110 C   0  0  1  0  0  3  0  0  0  0  0  0
  191.4450  176.3040  147.3870 C   0  0  0  0  0  2  0  0  0  0  0  0
  191.4780  176.2820  145.0240 O   0  0  0  0  0  0  0  0  0  0  0  0
  192.0610  175.6880  146.1540 C   0  0  0  0  0  2  0  0  0  0  0  0
  190.1930  176.9520  146.8820 C   0  0  0  0  0  2  0  0  0  0  0  0
  1 15  1  1  0  0  0
  3  6  2  0  0  0  0
  4  5  1  0  0  0  0
  5  1  1  1  0  0  0
  6  9  1  0  0  0  0
  7  2  1  6  0  0  0
  7  8  1  0  0  0  0
  8  5  1  0  0  0  0
  9  4  1  0  0  0  0
 10  6  1  0  0  0  0
 10  7  1  0  0  0  0
 11 13  1  0  0  0  0
 12 11  2  0  0  0  0
 12 15  1  0  0  0  0
 13 20  1  0  0  0  0
 13 17  2  0  0  0  0
 15 16  2  0  0  0  0
 16 18  2  0  0  0  0
 17 18  1  0  0  0  0
 18 14  1  0  0  0  0
 19 20  1  0  0  0  0
 21  1  1  6  0  0  0
 21 25  1  0  0  0  0
 23 21  1  0  0  0  0
 23 24  1  0  0  0  0
 24 22  1  0  0  0  0
 25 22  1  0  0  0  0
M  END
>  <MODEL>
7

>  <REMARK>
 VINA RESULT:      -7.7      3.228      5.175
  Name = 
  4 active torsions:
  status: ('A' for Active; 'I' for Inactive)
    1  A    between atoms: C_1  and  C_6
    2  A    between atoms: C_1  and  C_13
    3  A    between atoms: C_1  and  C_14
    4  A    between atoms: C_11  and  O_17
                            x       y       z     vdW  Elec       q    Type
                         _______ _______ _______ _____ _____    ______ ____

>  <TORSDO>
F 4

$$$$
=
 OpenBabel10232409463D

 25 27  0  0  1  0  0  0  0  0999 V2000
  189.0560  178.0050  140.7560 C   0  0  1  0  0  3  0  0  0  0  0  0
  184.9060  179.1560  142.0470 N   0  0  0  0  0  1  0  0  0  0  0  0
  184.1390  177.8280  137.7780 O   0  0  0  0  0  0  0  0  0  0  0  0
  187.6540  178.4120  138.6970 C   0  0  0  0  0  2  0  0  0  0  0  0
  187.6270  178.0870  140.1880 C   0  0  2  0  0  3  0  0  0  0  0  0
  185.1120  178.2700  138.4420 C   0  0  0  0  0  0  0  0  0  0  0  0
  185.5640  178.6430  140.8600 C   0  0  2  0  0  3  0  0  0  0  0  0
  186.8910  179.0880  140.8400 O   0  0  0  0  0  0  0  0  0  0  0  0
  186.4450  177.9210  138.0460 N   0  0  0  0  0  2  0  0  0  0  0  0
  184.8390  179.1530  139.6210 C   0  0  0  0  0  2  0  0  0  0  0  0
  188.0720  176.7970  144.3010 C   0  0  0  0  0  3  0  0  0  0  0  0
  188.0880  177.0350  142.9660 C   0  0  0  0  0  3  0  0  0  0  0  0
  188.9570  177.2910  145.4280 C   0  0  0  0  0  0  0  0  0  0  0  0
  191.6370  179.5510  144.0990 F   0  0  0  0  0  0  0  0  0  0  0  0
  189.0410  177.9030  142.2600 C   0  0  0  0  0  0  0  0  0  0  0  0
  189.9300  178.4450  143.0160 C   0  0  0  0  0  0  0  0  0  0  0  0
  190.0240  178.1230  145.3220 C   0  0  0  0  0  3  0  0  0  0  0  0
  190.5580  178.7320  144.0940 C   0  0  0  0  0  0  0  0  0  0  0  0
  188.9160  177.6510  147.8790 C   0  0  0  0  0  1  0  0  0  0  0  0
  188.6670  176.8590  146.7260 O   0  0  0  0  0  0  0  0  0  0  0  0
  189.8610  176.8430  140.1420 C   0  0  1  0  0  3  0  0  0  0  0  0
  191.6930  176.5220  138.6690 C   0  0  0  0  0  2  0  0  0  0  0  0
  189.3410  176.4580  138.8970 O   0  0  0  0  0  0  0  0  0  0  0  0
  190.4130  175.8530  138.2240 C   0  0  0  0  0  2  0  0  0  0  0  0
  191.3120  177.2290  139.9330 C   0  0  0  0  0  2  0  0  0  0  0  0
  1 15  1  1  0  0  0
  3  6  2  0  0  0  0
  4  5  1  0  0  0  0
  5  1  1  1  0  0  0
  5  8  1  0  0  0  0
  6 10  1  0  0  0  0
  7  2  1  1  0  0  0
  8  7  1  0  0  0  0
  9  6  1  0  0  0  0
  9  4  1  0  0  0  0
 10  7  1  0  0  0  0
 11 13  1  0  0  0  0
 12 11  2  0  0  0  0
 13 20  1  0  0  0  0
 15 12  1  0  0  0  0
 15 16  2  0  0  0  0
 16 18  2  0  0  0  0
 17 13  2  0  0  0  0
 18 14  1  0  0  0  0
 18 17  1  0  0  0  0
 20 19  1  0  0  0  0
 21  1  1  6  0  0  0
 22 25  1  0  0  0  0
 23 21  1  0  0  0  0
 24 22  1  0  0  0  0
 24 23  1  0  0  0  0
 25 21  1  0  0  0  0
M  END
>  <MODEL>
8

>  <REMARK>
 VINA RESULT:      -7.7      3.483      6.696
  Name = 
  4 active torsions:
  status: ('A' for Active; 'I' for Inactive)
    1  A    between atoms: C_1  and  C_6
    2  A    between atoms: C_1  and  C_13
    3  A    between atoms: C_1  and  C_14
    4  A    between atoms: C_11  and  O_17
                            x       y       z     vdW  Elec       q    Type
                         _______ _______ _______ _____ _____    ______ ____

>  <TORSDO>
F 4

$$$$
=
 OpenBabel10232409463D

 25 27  0  0  1  0  0  0  0  0999 V2000
  188.7670  178.0270  142.3210 C   0  0  1  0  0  3  0  0  0  0  0  0
  187.0100  178.4130  138.2000 N   0  0  0  0  0  1  0  0  0  0  0  0
  190.2690  175.3470  137.4600 O   0  0  0  0  0  0  0  0  0  0  0  0
  190.4530  177.1850  140.6420 C   0  0  0  0  0  2  0  0  0  0  0  0
  188.9770  177.4830  140.8960 C   0  0  2  0  0  3  0  0  0  0  0  0
  190.0420  176.2640  138.2900 C   0  0  0  0  0  0  0  0  0  0  0  0
  188.0720  177.6730  138.8560 C   0  0  2  0  0  3  0  0  0  0  0  0
  188.5510  178.4180  139.9400 O   0  0  0  0  0  0  0  0  0  0  0  0
  190.5960  176.1650  139.6090 N   0  0  0  0  0  2  0  0  0  0  0  0
  189.2030  177.4300  137.8660 C   0  0  0  0  0  2  0  0  0  0  0  0
  185.5030  178.0390  144.4040 C   0  0  0  0  0  3  0  0  0  0  0  0
  186.7800  177.8530  143.9910 C   0  0  0  0  0  3  0  0  0  0  0  0
  184.2760  178.5740  143.6920 C   0  0  0  0  0  0  0  0  0  0  0  0
  185.1180  179.5380  140.1680 F   0  0  0  0  0  0  0  0  0  0  0  0
  187.3000  178.1490  142.6480 C   0  0  0  0  0  0  0  0  0  0  0  0
  186.4320  178.6430  141.8370 C   0  0  0  0  0  0  0  0  0  0  0  0
  184.2050  179.0170  142.4110 C   0  0  0  0  0  3  0  0  0  0  0  0
  185.2980  179.0720  141.4270 C   0  0  0  0  0  0  0  0  0  0  0  0
  181.8090  178.7870  143.7840 C   0  0  0  0  0  1  0  0  0  0  0  0
  183.0760  178.6320  144.4080 O   0  0  0  0  0  0  0  0  0  0  0  0
  189.4890  177.1750  143.3830 C   0  0  1  0  0  3  0  0  0  0  0  0
  191.6060  177.0680  144.4470 C   0  0  0  0  0  2  0  0  0  0  0  0
  190.2070  176.1210  142.7950 O   0  0  0  0  0  0  0  0  0  0  0  0
  191.2120  175.8040  143.7200 C   0  0  0  0  0  2  0  0  0  0  0  0
  190.4710  178.0080  144.1810 C   0  0  0  0  0  2  0  0  0  0  0  0
  1 15  1  1  0  0  0
  3  6  2  0  0  0  0
  4  5  1  0  0  0  0
  5  1  1  1  0  0  0
  6  9  1  0  0  0  0
  7  2  1  6  0  0  0
  7  8  1  0  0  0  0
  8  5  1  0  0  0  0
  9  4  1  0  0  0  0
 10  6  1  0  0  0  0
 10  7  1  0  0  0  0
 12 11  2  0  0  0  0
 13 11  1  0  0  0  0
 13 20  1  0  0  0  0
 14 18  1  0  0  0  0
 15 12  1  0  0  0  0
 16 15  2  0  0  0  0
 17 13  2  0  0  0  0
 18 16  2  0  0  0  0
 18 17  1  0  0  0  0
 19 20  1  0  0  0  0
 21  1  1  6  0  0  0
 21 25  1  0  0  0  0
 23 21  1  0  0  0  0
 23 24  1  0  0  0  0
 24 22  1  0  0  0  0
 25 22  1  0  0  0  0
M  END
>  <MODEL>
9

>  <REMARK>
 VINA RESULT:      -7.6      3.527      5.515
  Name = 
  4 active torsions:
  status: ('A' for Active; 'I' for Inactive)
    1  A    between atoms: C_1  and  C_6
    2  A    between atoms: C_1  and  C_13
    3  A    between atoms: C_1  and  C_14
    4  A    between atoms: C_11  and  O_17
                            x       y       z     vdW  Elec       q    Type
                         _______ _______ _______ _____ _____    ______ ____

>  <TORSDO>
F 4

$$$$
