=
 OpenBabel10232409223D

 60 65  0  0  1  0  0  0  0  0999 V2000
  189.7350  177.0740  139.9420 C   0  0  1  0  0  3  0  0  0  0  0  0
  190.1560  176.6360  142.3370 C   0  0  0  0  0  0  0  0  0  0  0  0
  191.7530  175.4720  143.7160 C   0  0  0  0  0  1  0  0  0  0  0  0
  189.3410  176.5980  141.3130 C   0  0  0  0  0  3  0  0  0  0  0  0
  190.9600  176.6750  143.3620 C   0  0  0  0  0  0  0  0  0  0  0  0
  190.9880  177.8640  144.2670 C   0  0  0  0  0  2  0  0  0  0  0  0
  190.0650  177.6980  145.4300 C   0  0  0  0  0  0  0  0  0  0  0  0
  188.6860  177.9100  145.3000 C   0  0  0  0  0  3  0  0  0  0  0  0
  187.8460  177.8080  146.4150 C   0  0  0  0  0  0  0  0  0  0  0  0
  188.3880  177.4440  147.6620 C   0  0  0  0  0  0  0  0  0  0  0  0
  190.5970  177.3540  146.6760 C   0  0  0  0  0  3  0  0  0  0  0  0
  187.5940  177.2620  148.7440 F   0  0  0  0  0  0  0  0  0  0  0  0
  189.7620  177.2220  147.7860 C   0  0  0  0  0  3  0  0  0  0  0  0
  186.4440  178.0540  146.2470 N   0  0  0  0  0  2  0  0  0  0  0  0
  185.6860  178.0090  142.5710 C   0  0  0  0  0  3  0  0  0  0  0  0
  183.7500  178.8070  143.7840 C   0  0  0  0  0  0  0  0  0  0  0  0
  184.4520  178.6910  144.9870 C   0  0  0  0  0  3  0  0  0  0  0  0
  184.3660  178.4670  142.5760 C   0  0  0  0  0  3  0  0  0  0  0  0
  185.7750  178.2380  144.9900 C   0  0  0  0  0  0  0  0  0  0  0  0
  182.4000  179.2420  143.7950 N   0  0  0  0  0  1  0  0  0  0  0  0
  186.3860  177.8870  143.7740 C   0  0  0  0  0  3  0  0  0  0  0  0
  188.9300  178.3100  139.5240 C   0  0  2  0  0  3  0  0  0  0  0  0
  188.5250  179.0500  140.6400 O   0  0  0  0  0  1  0  0  0  0  0  0
  183.1700  177.3660  136.9590 C   0  0  0  0  0  0  0  0  0  0  0  0
  186.5220  178.4610  139.0620 N   0  0  0  0  0  0  0  0  0  0  0  0
  186.8880  176.9040  136.7310 C   0  0  0  0  0  0  0  0  0  0  0  0
  185.6380  177.7310  136.9040 C   0  0  1  0  0  3  0  0  0  0  0  0
  181.8470  178.6880  138.5490 F   0  0  0  0  0  0  0  0  0  0  0  0
  184.1610  178.7250  138.7500 C   0  0  0  0  0  3  0  0  0  0  0  0
  184.3720  177.0580  136.4380 C   0  0  0  0  0  3  0  0  0  0  0  0
  183.0680  178.3030  138.1020 C   0  0  0  0  0  0  0  0  0  0  0  0
  187.9230  177.1080  137.5470 C   0  0  0  0  0  3  0  0  0  0  0  0
  185.4880  178.3060  138.2940 C   0  0  0  0  0  0  0  0  0  0  0  0
  187.7860  177.9730  138.6850 N   0  0  0  0  0  0  0  0  0  0  0  0
  181.9870  176.8030  136.4620 O   0  0  0  0  0  0  0  0  0  0  0  0
  181.2990  175.3320  137.0460 P   0  0  0  0  0  0  0  0  0  0  0  0
  180.6930  174.4410  135.7450 O   0  0  0  0  0  0  0  0  0  0  0  0
  180.0370  175.6960  138.1150 O   0  0  0  0  0  1  0  0  0  0  0  0
  182.3520  174.5230  137.7660 O   0  0  0  0  0  1  0  0  0  0  0  0
  187.0900  176.0280  135.5340 C   0  0  0  0  0  2  0  0  0  0  0  0
  188.7880  172.6520  135.9570 C   0  0  0  0  0  3  0  0  0  0  0  0
  188.5500  173.9710  135.5590 C   0  0  0  0  0  3  0  0  0  0  0  0
  187.3480  174.6030  135.9070 C   0  0  0  0  0  0  0  0  0  0  0  0
  187.8320  171.9640  136.7160 C   0  0  0  0  0  3  0  0  0  0  0  0
  186.4020  173.9160  136.6830 C   0  0  0  0  0  3  0  0  0  0  0  0
  186.6420  172.5970  137.0820 C   0  0  0  0  0  3  0  0  0  0  0  0
  191.1210  177.2860  139.8240 O   0  0  0  0  0  0  0  0  0  0  0  0
  191.4750  176.6430  138.6320 C   0  0  2  0  0  3  0  0  0  0  0  0
  190.8750  175.3840  138.5910 O   0  0  0  0  0  1  0  0  0  0  0  0
  192.9860  176.4710  138.5820 C   0  0  0  0  0  2  0  0  0  0  0  0
  193.3790  175.7740  137.3650 N   0  0  0  0  0  0  0  0  0  0  0  0
  194.3710  172.2440  137.0120 C   0  0  0  0  0  0  0  0  0  0  0  0
  195.4800  172.6210  138.2140 S   0  0  0  0  0  0  0  0  0  0  0  0
  194.0370  174.4970  137.4620 C   0  0  0  0  0  0  0  0  0  0  0  0
  195.0680  174.2450  138.3720 C   0  0  0  0  0  3  0  0  0  0  0  0
  193.6440  173.3800  136.6980 C   0  0  0  0  0  3  0  0  0  0  0  0
  194.1520  170.8880  136.4330 C   0  0  0  0  0  2  0  0  0  0  0  0
  195.0250  170.6760  135.3810 F   0  0  0  0  0  0  0  0  0  0  0  0
  193.4980  176.5690  136.1430 C   0  0  0  0  0  2  0  0  0  0  0  0
  194.8020  177.0650  136.0200 O   0  0  0  0  0  1  0  0  0  0  0  0
  1  4  1  1  0  0  0
  2  5  2  0  0  0  0
  4  2  2  0  0  0  0
  5  3  1  0  0  0  0
  5  6  1  0  0  0  0
  6  7  1  0  0  0  0
  7 11  1  0  0  0  0
  8  7  2  0  0  0  0
  8  9  1  0  0  0  0
  9 10  2  0  0  0  0
 10 13  1  0  0  0  0
 10 12  1  0  0  0  0
 11 13  2  0  0  0  0
 14  9  1  0  0  0  0
 15 18  2  0  0  0  0
 15 21  1  0  0  0  0
 16 20  1  0  0  0  0
 16 17  2  0  0  0  0
 17 19  1  0  0  0  0
 18 16  1  0  0  0  0
 19 14  1  0  0  0  0
 21 19  2  0  0  0  0
 22  1  1  0  0  0  0
 22 23  1  1  0  0  0
 24 31  1  0  0  0  0
 26 27  1  0  0  0  0
 26 32  2  0  0  0  0
 27 30  1  1  0  0  0
 27 33  1  0  0  0  0
 30 24  2  0  0  0  0
 31 28  1  0  0  0  0
 31 29  2  0  0  0  0
 32 34  1  0  0  0  0
 33 29  1  0  0  0  0
 33 25  2  0  0  0  0
 34 25  1  0  0  0  0
 34 22  1  0  0  0  0
 35 24  1  0  0  0  0
 35 36  1  0  0  0  0
 36 39  1  0  0  0  0
 36 38  1  0  0  0  0
 37 36  2  0  0  0  0
 40 43  1  0  0  0  0
 40 26  1  0  0  0  0
 41 44  1  0  0  0  0
 42 43  1  0  0  0  0
 42 41  2  0  0  0  0
 43 45  2  0  0  0  0
 44 46  2  0  0  0  0
 45 46  1  0  0  0  0
 47  1  1  0  0  0  0
 48 49  1  1  0  0  0
 48 47  1  0  0  0  0
 50 48  1  0  0  0  0
 51 54  1  0  0  0  0
 51 50  1  0  0  0  0
 52 53  1  0  0  0  0
 53 55  1  0  0  0  0
 54 55  2  0  0  0  0
 56 52  2  0  0  0  0
 56 54  1  0  0  0  0
 57 52  1  0  0  0  0
 58 57  1  0  0  0  0
 59 51  1  0  0  0  0
 60 59  1  0  0  0  0
M  END
>  <MODEL>
1

>  <REMARK>
 VINA RESULT:      -9.1      0.000      0.000
  Name = 
  18 active torsions:
  status: ('A' for Active; 'I' for Inactive)
    1  A    between atoms: C_2  and  O_38
    2  A    between atoms: C_6  and  C_9
    3  A    between atoms: C_10  and  C_55
    4  A    between atoms: C_12  and  C_47
    5  A    between atoms: C_13  and  C_44
    6  A    between atoms: C_13  and  O_54
    7  A    between atoms: C_14  and  C_29
    8  A    between atoms: P_15  and  O_38
    9  A    between atoms: C_17  and  C_55
   10  A    between atoms: C_17  and  N_60
   11  A    between atoms: C_23  and  C_29
   12  A    between atoms: N_24  and  C_26
   13  A    between atoms: N_24  and  C_34
   14  A    between atoms: N_24  and  C_44
   15  A    between atoms: C_28  and  N_59
   16  A    between atoms: C_31  and  C_47
   17  A    between atoms: C_36  and  N_59
   18  A    between atoms: O_54  and  C_55
                            x       y       z     vdW  Elec       q    Type
                         _______ _______ _______ _____ _____    ______ ____

>  <TORSDO>
F 18

$$$$
=
 OpenBabel10232409223D

 60 65  0  0  1  0  0  0  0  0999 V2000
  189.6160  177.3950  139.9350 C   0  0  1  0  0  3  0  0  0  0  0  0
  190.0730  176.8250  142.2950 C   0  0  0  0  0  0  0  0  0  0  0  0
  191.7190  175.6270  143.5870 C   0  0  0  0  0  1  0  0  0  0  0  0
  189.2500  176.8250  141.2770 C   0  0  0  0  0  3  0  0  0  0  0  0
  190.8870  176.8250  143.3140 C   0  0  0  0  0  0  0  0  0  0  0  0
  190.8890  177.9560  144.2900 C   0  0  0  0  0  2  0  0  0  0  0  0
  189.9470  177.7130  145.4240 C   0  0  0  0  0  0  0  0  0  0  0  0
  188.5810  178.0020  145.3090 C   0  0  0  0  0  3  0  0  0  0  0  0
  187.7250  177.8240  146.4020 C   0  0  0  0  0  0  0  0  0  0  0  0
  188.2370  177.3060  147.6070 C   0  0  0  0  0  0  0  0  0  0  0  0
  190.4490  177.2160  146.6300 C   0  0  0  0  0  3  0  0  0  0  0  0
  187.4240  177.0490  148.6590 F   0  0  0  0  0  0  0  0  0  0  0  0
  189.5970  177.0070  147.7150 C   0  0  0  0  0  3  0  0  0  0  0  0
  186.3370  178.1520  146.2530 N   0  0  0  0  0  2  0  0  0  0  0  0
  185.5370  178.0640  142.5860 C   0  0  0  0  0  3  0  0  0  0  0  0
  183.5910  178.8010  143.8190 C   0  0  0  0  0  0  0  0  0  0  0  0
  184.3100  178.7150  145.0140 C   0  0  0  0  0  3  0  0  0  0  0  0
  184.2030  178.4770  142.6060 C   0  0  0  0  0  3  0  0  0  0  0  0
  185.6480  178.3070  145.0030 C   0  0  0  0  0  0  0  0  0  0  0  0
  182.2270  179.1910  143.8450 N   0  0  0  0  0  1  0  0  0  0  0  0
  186.2560  177.9710  143.7820 C   0  0  0  0  0  3  0  0  0  0  0  0
  188.6680  178.5310  139.5300 C   0  0  2  0  0  3  0  0  0  0  0  0
  188.1770  179.2040  140.6550 O   0  0  0  0  0  1  0  0  0  0  0  0
  183.0560  177.0350  136.9010 C   0  0  0  0  0  0  0  0  0  0  0  0
  186.2670  178.4790  139.0120 N   0  0  0  0  0  0  0  0  0  0  0  0
  186.8030  176.8400  136.7720 C   0  0  0  0  0  0  0  0  0  0  0  0
  185.4910  177.5800  136.8780 C   0  0  1  0  0  3  0  0  0  0  0  0
  181.6010  178.3310  138.3940 F   0  0  0  0  0  0  0  0  0  0  0  0
  183.9010  178.5500  138.6400 C   0  0  0  0  0  3  0  0  0  0  0  0
  184.2890  176.7920  136.4210 C   0  0  0  0  0  3  0  0  0  0  0  0
  182.8580  178.0160  137.9930 C   0  0  0  0  0  0  0  0  0  0  0  0
  187.8000  177.1610  137.5970 C   0  0  0  0  0  3  0  0  0  0  0  0
  185.2660  178.2100  138.2330 C   0  0  0  0  0  0  0  0  0  0  0  0
  187.5720  178.0680  138.6870 N   0  0  0  0  0  0  0  0  0  0  0  0
  181.9300  176.3610  136.4100 O   0  0  0  0  0  0  0  0  0  0  0  0
  181.3520  174.8610  137.0370 P   0  0  0  0  0  0  0  0  0  0  0  0
  180.5750  175.1320  138.5130 O   0  0  0  0  0  1  0  0  0  0  0  0
  182.6640  173.8170  137.2740 O   0  0  0  0  0  1  0  0  0  0  0  0
  180.3810  174.2370  136.0620 O   0  0  0  0  0  0  0  0  0  0  0  0
  187.0960  175.9240  135.6250 C   0  0  0  0  0  2  0  0  0  0  0  0
  186.0160  172.7060  137.3390 C   0  0  0  0  0  3  0  0  0  0  0  0
  186.5440  173.9860  137.1420 C   0  0  0  0  0  3  0  0  0  0  0  0
  186.5800  174.5390  135.8550 C   0  0  0  0  0  0  0  0  0  0  0  0
  185.5090  171.9800  136.2520 C   0  0  0  0  0  3  0  0  0  0  0  0
  186.0550  173.8160  134.7730 C   0  0  0  0  0  3  0  0  0  0  0  0
  185.5250  172.5370  134.9710 C   0  0  0  0  0  3  0  0  0  0  0  0
  190.9650  177.7890  139.8670 O   0  0  0  0  0  0  0  0  0  0  0  0
  191.6280  176.6810  139.3270 C   0  0  2  0  0  3  0  0  0  0  0  0
  192.9990  176.8070  139.5570 O   0  0  0  0  0  1  0  0  0  0  0  0
  191.3840  176.6300  137.8260 C   0  0  0  0  0  2  0  0  0  0  0  0
  191.8970  175.3870  137.2690 N   0  0  0  0  0  0  0  0  0  0  0  0
  194.8610  176.3630  135.3110 C   0  0  0  0  0  0  0  0  0  0  0  0
  195.0890  174.7070  135.1640 S   0  0  0  0  0  0  0  0  0  0  0  0
  193.1220  175.4020  136.5130 C   0  0  0  0  0  0  0  0  0  0  0  0
  193.7590  174.2340  136.0810 C   0  0  0  0  0  3  0  0  0  0  0  0
  193.7360  176.5960  136.0840 C   0  0  0  0  0  3  0  0  0  0  0  0
  195.6910  177.4100  134.6520 C   0  0  0  0  0  2  0  0  0  0  0  0
  195.6860  178.5670  135.4110 F   0  0  0  0  0  0  0  0  0  0  0  0
  190.9540  174.2790  137.1130 C   0  0  0  0  0  2  0  0  0  0  0  0
  190.2330  174.4290  135.9220 O   0  0  0  0  0  1  0  0  0  0  0  0
  1  4  1  1  0  0  0
  2  5  2  0  0  0  0
  4  2  2  0  0  0  0
  5  3  1  0  0  0  0
  5  6  1  0  0  0  0
  6  7  1  0  0  0  0
  7 11  1  0  0  0  0
  8  7  2  0  0  0  0
  8  9  1  0  0  0  0
  9 10  2  0  0  0  0
 10 13  1  0  0  0  0
 10 12  1  0  0  0  0
 11 13  2  0  0  0  0
 14  9  1  0  0  0  0
 15 18  2  0  0  0  0
 15 21  1  0  0  0  0
 16 20  1  0  0  0  0
 16 17  2  0  0  0  0
 18 16  1  0  0  0  0
 19 17  1  0  0  0  0
 19 14  1  0  0  0  0
 21 19  2  0  0  0  0
 22  1  1  0  0  0  0
 22 23  1  1  0  0  0
 24 31  1  0  0  0  0
 26 27  1  0  0  0  0
 26 32  2  0  0  0  0
 27 30  1  1  0  0  0
 27 33  1  0  0  0  0
 30 24  2  0  0  0  0
 31 28  1  0  0  0  0
 31 29  2  0  0  0  0
 32 34  1  0  0  0  0
 33 29  1  0  0  0  0
 33 25  2  0  0  0  0
 34 25  1  0  0  0  0
 34 22  1  0  0  0  0
 35 24  1  0  0  0  0
 35 36  1  0  0  0  0
 36 38  1  0  0  0  0
 36 37  1  0  0  0  0
 39 36  2  0  0  0  0
 40 43  1  0  0  0  0
 40 26  1  0  0  0  0
 42 41  1  0  0  0  0
 43 42  2  0  0  0  0
 44 41  2  0  0  0  0
 45 46  2  0  0  0  0
 45 43  1  0  0  0  0
 46 44  1  0  0  0  0
 47  1  1  0  0  0  0
 48 49  1  6  0  0  0
 48 47  1  0  0  0  0
 50 48  1  0  0  0  0
 51 50  1  0  0  0  0
 52 56  2  0  0  0  0
 53 52  1  0  0  0  0
 53 55  1  0  0  0  0
 54 51  1  0  0  0  0
 55 54  2  0  0  0  0
 56 54  1  0  0  0  0
 57 52  1  0  0  0  0
 57 58  1  0  0  0  0
 59 51  1  0  0  0  0
 60 59  1  0  0  0  0
M  END
>  <MODEL>
2

>  <REMARK>
 VINA RESULT:      -8.7      1.605      2.159
  Name = 
  18 active torsions:
  status: ('A' for Active; 'I' for Inactive)
    1  A    between atoms: C_2  and  O_38
    2  A    between atoms: C_6  and  C_9
    3  A    between atoms: C_10  and  C_55
    4  A    between atoms: C_12  and  C_47
    5  A    between atoms: C_13  and  C_44
    6  A    between atoms: C_13  and  O_54
    7  A    between atoms: C_14  and  C_29
    8  A    between atoms: P_15  and  O_38
    9  A    between atoms: C_17  and  C_55
   10  A    between atoms: C_17  and  N_60
   11  A    between atoms: C_23  and  C_29
   12  A    between atoms: N_24  and  C_26
   13  A    between atoms: N_24  and  C_34
   14  A    between atoms: N_24  and  C_44
   15  A    between atoms: C_28  and  N_59
   16  A    between atoms: C_31  and  C_47
   17  A    between atoms: C_36  and  N_59
   18  A    between atoms: O_54  and  C_55
                            x       y       z     vdW  Elec       q    Type
                         _______ _______ _______ _____ _____    ______ ____

>  <TORSDO>
F 18

$$$$
=
 OpenBabel10232409223D

 60 65  0  0  1  0  0  0  0  0999 V2000
  184.4890  178.6090  139.5090 C   0  0  1  0  0  3  0  0  0  0  0  0
  183.0840  179.1570  141.4660 C   0  0  0  0  0  0  0  0  0  0  0  0
  181.6800  178.0270  143.0670 C   0  0  0  0  0  1  0  0  0  0  0  0
  183.3900  179.3590  140.2100 C   0  0  0  0  0  3  0  0  0  0  0  0
  182.7760  178.9640  142.7180 C   0  0  0  0  0  0  0  0  0  0  0  0
  183.4140  179.7790  143.7960 C   0  0  0  0  0  2  0  0  0  0  0  0
  184.4830  179.0160  144.5100 C   0  0  0  0  0  0  0  0  0  0  0  0
  185.4860  178.3390  143.8050 C   0  0  0  0  0  3  0  0  0  0  0  0
  186.4440  177.5810  144.4890 C   0  0  0  0  0  0  0  0  0  0  0  0
  186.4220  177.5420  145.8960 C   0  0  0  0  0  0  0  0  0  0  0  0
  184.4580  178.9580  145.9060 C   0  0  0  0  0  3  0  0  0  0  0  0
  187.3770  176.8820  146.5920 F   0  0  0  0  0  0  0  0  0  0  0  0
  185.4270  178.2280  146.5970 C   0  0  0  0  0  3  0  0  0  0  0  0
  187.4420  176.8840  143.7320 N   0  0  0  0  0  2  0  0  0  0  0  0
  190.6930  178.7580  143.8100 C   0  0  0  0  0  3  0  0  0  0  0  0
  191.1300  176.3810  143.9190 C   0  0  0  0  0  0  0  0  0  0  0  0
  189.7590  176.1220  143.8370 C   0  0  0  0  0  3  0  0  0  0  0  0
  191.5970  177.6980  143.9060 C   0  0  0  0  0  3  0  0  0  0  0  0
  188.8470  177.1780  143.7360 C   0  0  0  0  0  0  0  0  0  0  0  0
  192.0430  175.3030  144.0480 N   0  0  0  0  0  1  0  0  0  0  0  0
  189.3220  178.5000  143.7340 C   0  0  0  0  0  3  0  0  0  0  0  0
  185.7690  178.5720  140.3520 C   0  0  2  0  0  3  0  0  0  0  0  0
  186.0040  179.8070  140.9690 O   0  0  0  0  0  1  0  0  0  0  0  0
  191.5580  176.9700  138.2110 C   0  0  0  0  0  0  0  0  0  0  0  0
  188.1280  177.8910  140.2740 N   0  0  0  0  0  0  0  0  0  0  0  0
  187.9280  177.5820  137.4700 C   0  0  0  0  0  0  0  0  0  0  0  0
  189.0620  176.9350  138.2280 C   0  0  1  0  0  3  0  0  0  0  0  0
  192.7240  176.8670  140.3690 F   0  0  0  0  0  0  0  0  0  0  0  0
  190.4280  177.2270  140.3780 C   0  0  0  0  0  3  0  0  0  0  0  0
  190.3970  176.9960  137.5300 C   0  0  0  0  0  3  0  0  0  0  0  0
  191.5560  177.0010  139.6930 C   0  0  0  0  0  0  0  0  0  0  0  0
  186.8900  178.0750  138.1470 C   0  0  0  0  0  3  0  0  0  0  0  0
  189.1600  177.3920  139.6660 C   0  0  0  0  0  0  0  0  0  0  0  0
  186.9330  178.1520  139.5810 N   0  0  0  0  0  0  0  0  0  0  0  0
  192.7950  176.9380  137.5550 O   0  0  0  0  0  0  0  0  0  0  0  0
  193.4610  175.5280  136.8180 P   0  0  0  0  0  0  0  0  0  0  0  0
  193.4340  174.2510  137.9250 O   0  0  0  0  0  1  0  0  0  0  0  0
  195.0600  175.8430  136.3600 O   0  0  0  0  0  1  0  0  0  0  0  0
  192.6510  175.1550  135.5980 O   0  0  0  0  0  0  0  0  0  0  0  0
  187.8220  177.4810  135.9810 C   0  0  0  0  0  2  0  0  0  0  0  0
  185.2120  175.2370  134.3650 C   0  0  0  0  0  3  0  0  0  0  0  0
  185.8810  176.3850  134.8020 C   0  0  0  0  0  3  0  0  0  0  0  0
  187.0640  176.2690  135.5430 C   0  0  0  0  0  0  0  0  0  0  0  0
  185.7320  173.9680  134.6560 C   0  0  0  0  0  3  0  0  0  0  0  0
  187.5900  174.9970  135.8170 C   0  0  0  0  0  3  0  0  0  0  0  0
  186.9220  173.8490  135.3780 C   0  0  0  0  0  3  0  0  0  0  0  0
  184.0900  177.3220  139.1060 O   0  0  0  0  0  0  0  0  0  0  0  0
  182.8570  177.5180  138.4730 C   0  0  2  0  0  3  0  0  0  0  0  0
  181.8870  176.7340  139.0990 O   0  0  0  0  0  1  0  0  0  0  0  0
  182.9660  177.0950  137.0150 C   0  0  0  0  0  2  0  0  0  0  0  0
  181.7650  176.3840  136.6010 N   0  0  0  0  0  0  0  0  0  0  0  0
  182.6630  172.8170  136.8100 C   0  0  0  0  0  0  0  0  0  0  0  0
  181.0650  172.5720  136.3570 S   0  0  0  0  0  0  0  0  0  0  0  0
  181.7510  174.9450  136.6240 C   0  0  0  0  0  0  0  0  0  0  0  0
  180.6210  174.1940  136.2860 C   0  0  0  0  0  3  0  0  0  0  0  0
  182.8960  174.1780  136.9190 C   0  0  0  0  0  3  0  0  0  0  0  0
  183.6830  171.7460  136.9890 C   0  0  0  0  0  2  0  0  0  0  0  0
  184.7450  172.2230  137.7370 F   0  0  0  0  0  0  0  0  0  0  0  0
  180.8030  177.1120  135.7730 C   0  0  0  0  0  2  0  0  0  0  0  0
  179.9840  177.9090  136.5810 O   0  0  0  0  0  1  0  0  0  0  0  0
  1  4  1  1  0  0  0
  1 22  1  0  0  0  0
  2  5  2  0  0  0  0
  4  2  2  0  0  0  0
  5  3  1  0  0  0  0
  5  6  1  0  0  0  0
  6  7  1  0  0  0  0
  7 11  1  0  0  0  0
  8  9  1  0  0  0  0
  8  7  2  0  0  0  0
  9 10  2  0  0  0  0
 10 12  1  0  0  0  0
 10 13  1  0  0  0  0
 11 13  2  0  0  0  0
 14 19  1  0  0  0  0
 14  9  1  0  0  0  0
 15 18  1  0  0  0  0
 16 20  1  0  0  0  0
 17 16  1  0  0  0  0
 18 16  2  0  0  0  0
 19 17  2  0  0  0  0
 21 19  1  0  0  0  0
 21 15  2  0  0  0  0
 22 23  1  6  0  0  0
 24 31  1  0  0  0  0
 26 32  2  0  0  0  0
 26 27  1  0  0  0  0
 27 30  1  6  0  0  0
 27 33  1  0  0  0  0
 30 24  2  0  0  0  0
 31 28  1  0  0  0  0
 31 29  2  0  0  0  0
 32 34  1  0  0  0  0
 33 25  2  0  0  0  0
 33 29  1  0  0  0  0
 34 25  1  0  0  0  0
 34 22  1  0  0  0  0
 35 24  1  0  0  0  0
 36 35  1  0  0  0  0
 36 37  1  0  0  0  0
 38 36  1  0  0  0  0
 39 36  2  0  0  0  0
 40 26  1  0  0  0  0
 41 44  2  0  0  0  0
 41 42  1  0  0  0  0
 42 43  2  0  0  0  0
 43 45  1  0  0  0  0
 43 40  1  0  0  0  0
 44 46  1  0  0  0  0
 46 45  2  0  0  0  0
 47  1  1  0  0  0  0
 48 49  1  1  0  0  0
 48 47  1  0  0  0  0
 50 48  1  0  0  0  0
 51 54  1  0  0  0  0
 51 50  1  0  0  0  0
 52 56  2  0  0  0  0
 52 57  1  0  0  0  0
 53 52  1  0  0  0  0
 54 56  1  0  0  0  0
 55 53  1  0  0  0  0
 55 54  2  0  0  0  0
 57 58  1  0  0  0  0
 59 60  1  0  0  0  0
 59 51  1  0  0  0  0
M  END
>  <MODEL>
3

>  <REMARK>
 VINA RESULT:      -7.6      3.764      8.112
  Name = 
  18 active torsions:
  status: ('A' for Active; 'I' for Inactive)
    1  A    between atoms: C_2  and  O_38
    2  A    between atoms: C_6  and  C_9
    3  A    between atoms: C_10  and  C_55
    4  A    between atoms: C_12  and  C_47
    5  A    between atoms: C_13  and  C_44
    6  A    between atoms: C_13  and  O_54
    7  A    between atoms: C_14  and  C_29
    8  A    between atoms: P_15  and  O_38
    9  A    between atoms: C_17  and  C_55
   10  A    between atoms: C_17  and  N_60
   11  A    between atoms: C_23  and  C_29
   12  A    between atoms: N_24  and  C_26
   13  A    between atoms: N_24  and  C_34
   14  A    between atoms: N_24  and  C_44
   15  A    between atoms: C_28  and  N_59
   16  A    between atoms: C_31  and  C_47
   17  A    between atoms: C_36  and  N_59
   18  A    between atoms: O_54  and  C_55
                            x       y       z     vdW  Elec       q    Type
                         _______ _______ _______ _____ _____    ______ ____

>  <TORSDO>
F 18

$$$$
=
 OpenBabel10232409223D

 60 65  0  0  1  0  0  0  0  0999 V2000
  188.8080  177.5200  141.6650 C   0  0  1  0  0  3  0  0  0  0  0  0
  186.8260  177.6520  143.1350 C   0  0  0  0  0  0  0  0  0  0  0  0
  186.2950  177.5120  145.4830 C   0  0  0  0  0  1  0  0  0  0  0  0
  187.4270  177.1170  142.1030 C   0  0  0  0  0  3  0  0  0  0  0  0
  186.2210  178.1830  144.1610 C   0  0  0  0  0  0  0  0  0  0  0  0
  185.3380  179.3760  143.9930 C   0  0  0  0  0  2  0  0  0  0  0  0
  184.0430  179.0210  143.3380 C   0  0  0  0  0  0  0  0  0  0  0  0
  183.9950  178.5930  142.0050 C   0  0  0  0  0  3  0  0  0  0  0  0
  182.7660  178.3230  141.3920 C   0  0  0  0  0  0  0  0  0  0  0  0
  181.5780  178.4370  142.1380 C   0  0  0  0  0  0  0  0  0  0  0  0
  182.8560  179.1490  144.0660 C   0  0  0  0  0  3  0  0  0  0  0  0
  180.3800  178.1110  141.5990 F   0  0  0  0  0  0  0  0  0  0  0  0
  181.6290  178.8530  143.4700 C   0  0  0  0  0  3  0  0  0  0  0  0
  182.7570  177.9080  140.0200 N   0  0  0  0  0  2  0  0  0  0  0  0
  181.2420  178.8370  136.7130 C   0  0  0  0  0  3  0  0  0  0  0  0
  181.5760  180.8340  138.0370 C   0  0  0  0  0  0  0  0  0  0  0  0
  182.1330  180.0660  139.0620 C   0  0  0  0  0  3  0  0  0  0  0  0
  181.1310  180.2210  136.8630 C   0  0  0  0  0  3  0  0  0  0  0  0
  182.2530  178.6800  138.9190 C   0  0  0  0  0  0  0  0  0  0  0  0
  181.4350  182.2360  138.2040 N   0  0  0  0  0  1  0  0  0  0  0  0
  181.7940  178.0670  137.7410 C   0  0  0  0  0  3  0  0  0  0  0  0
  188.7660  178.3790  140.3960 C   0  0  2  0  0  3  0  0  0  0  0  0
  187.9400  179.4960  140.5680 O   0  0  0  0  0  1  0  0  0  0  0  0
  185.7760  175.7790  135.4010 C   0  0  0  0  0  0  0  0  0  0  0  0
  187.1840  177.9990  138.5550 N   0  0  0  0  0  0  0  0  0  0  0  0
  188.7820  175.8500  137.6480 C   0  0  0  0  0  0  0  0  0  0  0  0
  187.7670  176.4850  136.7280 C   0  0  1  0  0  3  0  0  0  0  0  0
  183.8690  177.3210  135.2800 F   0  0  0  0  0  0  0  0  0  0  0  0
  185.5550  177.7780  136.8120 C   0  0  0  0  0  3  0  0  0  0  0  0
  187.0110  175.5100  135.8620 C   0  0  0  0  0  3  0  0  0  0  0  0
  185.0670  177.0070  135.8330 C   0  0  0  0  0  0  0  0  0  0  0  0
  189.1030  176.4640  138.7880 C   0  0  0  0  0  3  0  0  0  0  0  0
  186.8380  177.4470  137.4330 C   0  0  0  0  0  0  0  0  0  0  0  0
  188.3630  177.6170  139.2200 N   0  0  0  0  0  0  0  0  0  0  0  0
  185.1120  174.9100  134.5250 O   0  0  0  0  0  0  0  0  0  0  0  0
  184.0260  173.6700  135.0340 P   0  0  0  0  0  0  0  0  0  0  0  0
  182.4820  173.9920  134.4260 O   0  0  0  0  0  0  0  0  0  0  0  0
  183.9690  173.6420  136.7260 O   0  0  0  0  0  1  0  0  0  0  0  0
  184.5000  172.3300  134.5230 O   0  0  0  0  0  1  0  0  0  0  0  0
  189.6070  174.6780  137.2160 C   0  0  0  0  0  2  0  0  0  0  0  0
  192.5170  176.1100  135.2300 C   0  0  0  0  0  3  0  0  0  0  0  0
  191.2220  175.7080  135.5760 C   0  0  0  0  0  3  0  0  0  0  0  0
  190.9890  175.0740  136.8030 C   0  0  0  0  0  0  0  0  0  0  0  0
  193.5800  175.8910  136.1160 C   0  0  0  0  0  3  0  0  0  0  0  0
  192.0540  174.8740  137.6950 C   0  0  0  0  0  3  0  0  0  0  0  0
  193.3480  175.2780  137.3500 C   0  0  0  0  0  3  0  0  0  0  0  0
  189.5380  178.1410  142.6950 O   0  0  0  0  0  0  0  0  0  0  0  0
  190.8640  178.1210  142.2480 C   0  0  2  0  0  3  0  0  0  0  0  0
  191.0190  177.0990  141.3110 O   0  0  0  0  0  1  0  0  0  0  0  0
  191.7890  177.8520  143.4260 C   0  0  0  0  0  2  0  0  0  0  0  0
  191.3290  176.6950  144.1810 N   0  0  0  0  0  0  0  0  0  0  0  0
  189.8210  177.5470  147.4320 C   0  0  0  0  0  0  0  0  0  0  0  0
  191.2190  176.8610  148.0590 S   0  0  0  0  0  0  0  0  0  0  0  0
  191.0310  176.8360  145.5820 C   0  0  0  0  0  0  0  0  0  0  0  0
  191.9140  176.4320  146.5880 C   0  0  0  0  0  3  0  0  0  0  0  0
  189.8580  177.4600  146.0500 C   0  0  0  0  0  3  0  0  0  0  0  0
  188.7520  178.2100  148.2300 C   0  0  0  0  0  2  0  0  0  0  0  0
  187.9650  177.2580  148.8540 F   0  0  0  0  0  0  0  0  0  0  0  0
  191.6080  175.3720  143.6210 C   0  0  0  0  0  2  0  0  0  0  0  0
  190.4230  174.7920  143.1530 O   0  0  0  0  0  1  0  0  0  0  0  0
  1  4  1  1  0  0  0
  1 47  1  0  0  0  0
  2  5  2  0  0  0  0
  4  2  2  0  0  0  0
  5  3  1  0  0  0  0
  6  5  1  0  0  0  0
  7  6  1  0  0  0  0
  7 11  1  0  0  0  0
  8  7  2  0  0  0  0
  9  8  1  0  0  0  0
  9 10  2  0  0  0  0
 10 13  1  0  0  0  0
 12 10  1  0  0  0  0
 13 11  2  0  0  0  0
 14  9  1  0  0  0  0
 15 18  2  0  0  0  0
 15 21  1  0  0  0  0
 16 20  1  0  0  0  0
 16 17  2  0  0  0  0
 18 16  1  0  0  0  0
 19 17  1  0  0  0  0
 19 14  1  0  0  0  0
 21 19  2  0  0  0  0
 22 23  1  1  0  0  0
 22  1  1  0  0  0  0
 24 31  1  0  0  0  0
 24 30  2  0  0  0  0
 25 34  1  0  0  0  0
 26 32  2  0  0  0  0
 27 30  1  1  0  0  0
 27 33  1  0  0  0  0
 27 26  1  0  0  0  0
 28 31  1  0  0  0  0
 29 33  1  0  0  0  0
 31 29  2  0  0  0  0
 32 34  1  0  0  0  0
 33 25  2  0  0  0  0
 34 22  1  0  0  0  0
 35 36  1  0  0  0  0
 35 24  1  0  0  0  0
 36 38  1  0  0  0  0
 37 36  2  0  0  0  0
 39 36  1  0  0  0  0
 40 26  1  0  0  0  0
 41 42  2  0  0  0  0
 41 44  1  0  0  0  0
 42 43  1  0  0  0  0
 43 40  1  0  0  0  0
 43 45  2  0  0  0  0
 44 46  2  0  0  0  0
 46 45  1  0  0  0  0
 48 49  1  6  0  0  0
 48 47  1  0  0  0  0
 48 50  1  0  0  0  0
 50 51  1  0  0  0  0
 51 54  1  0  0  0  0
 52 53  1  0  0  0  0
 52 57  1  0  0  0  0
 54 56  1  0  0  0  0
 54 55  2  0  0  0  0
 55 53  1  0  0  0  0
 56 52  2  0  0  0  0
 57 58  1  0  0  0  0
 59 51  1  0  0  0  0
 60 59  1  0  0  0  0
M  END
>  <MODEL>
4

>  <REMARK>
 VINA RESULT:      -7.6      3.240      6.635
  Name = 
  18 active torsions:
  status: ('A' for Active; 'I' for Inactive)
    1  A    between atoms: C_2  and  O_38
    2  A    between atoms: C_6  and  C_9
    3  A    between atoms: C_10  and  C_55
    4  A    between atoms: C_12  and  C_47
    5  A    between atoms: C_13  and  C_44
    6  A    between atoms: C_13  and  O_54
    7  A    between atoms: C_14  and  C_29
    8  A    between atoms: P_15  and  O_38
    9  A    between atoms: C_17  and  C_55
   10  A    between atoms: C_17  and  N_60
   11  A    between atoms: C_23  and  C_29
   12  A    between atoms: N_24  and  C_26
   13  A    between atoms: N_24  and  C_34
   14  A    between atoms: N_24  and  C_44
   15  A    between atoms: C_28  and  N_59
   16  A    between atoms: C_31  and  C_47
   17  A    between atoms: C_36  and  N_59
   18  A    between atoms: O_54  and  C_55
                            x       y       z     vdW  Elec       q    Type
                         _______ _______ _______ _____ _____    ______ ____

>  <TORSDO>
F 18

$$$$
=
 OpenBabel10232409223D

 60 65  0  0  1  0  0  0  0  0999 V2000
  186.8800  178.5320  141.2260 C   0  0  1  0  0  3  0  0  0  0  0  0
  188.3520  177.8920  139.3470 C   0  0  0  0  0  0  0  0  0  0  0  0
  189.2100  178.8480  137.3070 C   0  0  0  0  0  1  0  0  0  0  0  0
  187.3100  177.6370  140.0970 C   0  0  0  0  0  3  0  0  0  0  0  0
  189.3900  178.1390  138.5980 C   0  0  0  0  0  0  0  0  0  0  0  0
  190.7350  177.5940  138.9540 C   0  0  0  0  0  2  0  0  0  0  0  0
  191.1410  176.4790  138.0460 C   0  0  0  0  0  0  0  0  0  0  0  0
  192.3120  176.5540  137.2820 C   0  0  0  0  0  3  0  0  0  0  0  0
  192.6440  175.5250  136.3920 C   0  0  0  0  0  0  0  0  0  0  0  0
  191.8170  174.3890  136.3050 C   0  0  0  0  0  0  0  0  0  0  0  0
  190.3160  175.3550  137.9400 C   0  0  0  0  0  3  0  0  0  0  0  0
  192.1470  173.3420  135.5120 F   0  0  0  0  0  0  0  0  0  0  0  0
  190.6550  174.3110  137.0780 C   0  0  0  0  0  3  0  0  0  0  0  0
  193.8390  175.6480  135.6110 N   0  0  0  0  0  2  0  0  0  0  0  0
  197.5650  175.2110  135.7210 C   0  0  0  0  0  3  0  0  0  0  0  0
  196.5900  174.3370  137.7560 C   0  0  0  0  0  0  0  0  0  0  0  0
  195.3140  174.6600  137.2870 C   0  0  0  0  0  3  0  0  0  0  0  0
  197.7160  174.6120  136.9740 C   0  0  0  0  0  3  0  0  0  0  0  0
  195.1540  175.2560  136.0320 C   0  0  0  0  0  0  0  0  0  0  0  0
  196.7420  173.7580  139.0420 N   0  0  0  0  0  1  0  0  0  0  0  0
  196.2890  175.5400  135.2550 C   0  0  0  0  0  3  0  0  0  0  0  0
  185.5530  179.2320  140.9140 C   0  0  2  0  0  3  0  0  0  0  0  0
  184.8430  179.5170  142.0870 O   0  0  0  0  0  1  0  0  0  0  0  0
  181.4680  175.2670  138.0420 C   0  0  0  0  0  0  0  0  0  0  0  0
  183.6940  177.6770  140.5120 N   0  0  0  0  0  0  0  0  0  0  0  0
  184.1640  177.8610  137.7300 C   0  0  0  0  0  0  0  0  0  0  0  0
  182.8450  177.3380  138.2460 C   0  0  1  0  0  3  0  0  0  0  0  0
  180.2630  174.4870  140.0340 F   0  0  0  0  0  0  0  0  0  0  0  0
  181.8450  176.1690  140.2960 C   0  0  0  0  0  3  0  0  0  0  0  0
  182.2900  176.1680  137.4740 C   0  0  0  0  0  3  0  0  0  0  0  0
  181.1750  175.3330  139.4930 C   0  0  0  0  0  0  0  0  0  0  0  0
  184.9980  178.4710  138.5720 C   0  0  0  0  0  3  0  0  0  0  0  0
  182.8450  177.0780  139.7350 C   0  0  0  0  0  0  0  0  0  0  0  0
  184.7270  178.4720  139.9830 N   0  0  0  0  0  0  0  0  0  0  0  0
  180.8850  174.2320  137.3000 O   0  0  0  0  0  0  0  0  0  0  0  0
  181.7710  172.9250  136.6040 P   0  0  0  0  0  0  0  0  0  0  0  0
  183.3350  172.9030  137.2460 O   0  0  0  0  0  1  0  0  0  0  0  0
  181.8530  173.1400  134.9270 O   0  0  0  0  0  0  0  0  0  0  0  0
  181.0810  171.6160  136.9110 O   0  0  0  0  0  1  0  0  0  0  0  0
  184.4640  177.9220  136.2650 C   0  0  0  0  0  2  0  0  0  0  0  0
  187.1590  175.2420  136.1230 C   0  0  0  0  0  3  0  0  0  0  0  0
  186.0120  175.9450  136.5070 C   0  0  0  0  0  3  0  0  0  0  0  0
  185.7090  177.1740  135.9060 C   0  0  0  0  0  0  0  0  0  0  0  0
  187.9990  175.7590  135.1270 C   0  0  0  0  0  3  0  0  0  0  0  0
  186.5430  177.6790  134.8960 C   0  0  0  0  0  3  0  0  0  0  0  0
  187.6880  176.9740  134.5110 C   0  0  0  0  0  3  0  0  0  0  0  0
  186.8400  177.8590  142.4610 O   0  0  0  0  0  0  0  0  0  0  0  0
  188.0380  177.1370  142.5070 C   0  0  2  0  0  3  0  0  0  0  0  0
  187.8490  175.9770  143.2600 O   0  0  0  0  0  1  0  0  0  0  0  0
  189.1120  177.9860  143.1720 C   0  0  0  0  0  2  0  0  0  0  0  0
  190.1270  177.1370  143.7810 N   0  0  0  0  0  0  0  0  0  0  0  0
  189.6030  177.5050  147.4090 C   0  0  0  0  0  0  0  0  0  0  0  0
  191.1180  176.7910  147.5200 S   0  0  0  0  0  0  0  0  0  0  0  0
  190.2380  177.0840  145.2150 C   0  0  0  0  0  0  0  0  0  0  0  0
  191.3680  176.5820  145.8680 C   0  0  0  0  0  3  0  0  0  0  0  0
  189.2480  177.6010  146.0740 C   0  0  0  0  0  3  0  0  0  0  0  0
  188.8060  178.0220  148.5570 C   0  0  0  0  0  2  0  0  0  0  0  0
  187.6920  178.6990  148.0940 F   0  0  0  0  0  0  0  0  0  0  0  0
  191.2560  176.7310  142.9440 C   0  0  0  0  0  2  0  0  0  0  0  0
  191.8420  177.8570  142.3520 O   0  0  0  0  0  1  0  0  0  0  0  0
  1  4  1  6  0  0  0
  1 47  1  0  0  0  0
  2  4  2  0  0  0  0
  3  5  1  0  0  0  0
  5  6  1  0  0  0  0
  5  2  2  0  0  0  0
  7  6  1  0  0  0  0
  8  7  2  0  0  0  0
  9  8  1  0  0  0  0
 10  9  2  0  0  0  0
 10 13  1  0  0  0  0
 11  7  1  0  0  0  0
 12 10  1  0  0  0  0
 13 11  2  0  0  0  0
 14 19  1  0  0  0  0
 14  9  1  0  0  0  0
 15 18  1  0  0  0  0
 16 20  1  0  0  0  0
 17 16  1  0  0  0  0
 18 16  2  0  0  0  0
 19 17  2  0  0  0  0
 21 15  2  0  0  0  0
 21 19  1  0  0  0  0
 22  1  1  0  0  0  0
 22 23  1  1  0  0  0
 24 31  1  0  0  0  0
 26 27  1  0  0  0  0
 26 32  2  0  0  0  0
 27 30  1  6  0  0  0
 27 33  1  0  0  0  0
 30 24  2  0  0  0  0
 31 28  1  0  0  0  0
 31 29  2  0  0  0  0
 32 34  1  0  0  0  0
 33 29  1  0  0  0  0
 33 25  2  0  0  0  0
 34 25  1  0  0  0  0
 34 22  1  0  0  0  0
 35 24  1  0  0  0  0
 36 39  1  0  0  0  0
 36 37  1  0  0  0  0
 36 35  1  0  0  0  0
 38 36  2  0  0  0  0
 40 26  1  0  0  0  0
 41 42  1  0  0  0  0
 43 40  1  0  0  0  0
 43 42  2  0  0  0  0
 44 41  2  0  0  0  0
 45 43  1  0  0  0  0
 46 45  2  0  0  0  0
 46 44  1  0  0  0  0
 47 48  1  0  0  0  0
 48 50  1  0  0  0  0
 48 49  1  1  0  0  0
 50 51  1  0  0  0  0
 51 54  1  0  0  0  0
 52 53  1  0  0  0  0
 52 57  1  0  0  0  0
 54 55  2  0  0  0  0
 54 56  1  0  0  0  0
 55 53  1  0  0  0  0
 56 52  2  0  0  0  0
 58 57  1  0  0  0  0
 59 51  1  0  0  0  0
 60 59  1  0  0  0  0
M  END
>  <MODEL>
5

>  <REMARK>
 VINA RESULT:      -7.3      2.837      8.428
  Name = 
  18 active torsions:
  status: ('A' for Active; 'I' for Inactive)
    1  A    between atoms: C_2  and  O_38
    2  A    between atoms: C_6  and  C_9
    3  A    between atoms: C_10  and  C_55
    4  A    between atoms: C_12  and  C_47
    5  A    between atoms: C_13  and  C_44
    6  A    between atoms: C_13  and  O_54
    7  A    between atoms: C_14  and  C_29
    8  A    between atoms: P_15  and  O_38
    9  A    between atoms: C_17  and  C_55
   10  A    between atoms: C_17  and  N_60
   11  A    between atoms: C_23  and  C_29
   12  A    between atoms: N_24  and  C_26
   13  A    between atoms: N_24  and  C_34
   14  A    between atoms: N_24  and  C_44
   15  A    between atoms: C_28  and  N_59
   16  A    between atoms: C_31  and  C_47
   17  A    between atoms: C_36  and  N_59
   18  A    between atoms: O_54  and  C_55
                            x       y       z     vdW  Elec       q    Type
                         _______ _______ _______ _____ _____    ______ ____

>  <TORSDO>
F 18

$$$$
=
 OpenBabel10232409223D

 60 65  0  0  1  0  0  0  0  0999 V2000
  189.5690  177.7950  138.4170 C   0  0  1  0  0  3  0  0  0  0  0  0
  189.3410  175.4450  137.6880 C   0  0  0  0  0  0  0  0  0  0  0  0
  188.5840  174.2070  135.7630 C   0  0  0  0  0  1  0  0  0  0  0  0
  189.0920  176.3770  138.5720 C   0  0  0  0  0  3  0  0  0  0  0  0
  189.5880  174.5110  136.8120 C   0  0  0  0  0  0  0  0  0  0  0  0
  190.8020  173.6490  136.9370 C   0  0  0  0  0  2  0  0  0  0  0  0
  192.0460  174.3840  136.5580 C   0  0  0  0  0  0  0  0  0  0  0  0
  193.1950  174.3280  137.3580 C   0  0  0  0  0  3  0  0  0  0  0  0
  194.3320  175.0710  137.0170 C   0  0  0  0  0  0  0  0  0  0  0  0
  194.3310  175.8390  135.8380 C   0  0  0  0  0  0  0  0  0  0  0  0
  192.0480  175.1630  135.3980 C   0  0  0  0  0  3  0  0  0  0  0  0
  195.4380  176.5090  135.4390 F   0  0  0  0  0  0  0  0  0  0  0  0
  193.1880  175.8840  135.0360 C   0  0  0  0  0  3  0  0  0  0  0  0
  195.4800  175.0050  137.8720 N   0  0  0  0  0  2  0  0  0  0  0  0
  197.6560  171.9920  137.3460 C   0  0  0  0  0  3  0  0  0  0  0  0
  198.9850  173.9990  137.1020 C   0  0  0  0  0  0  0  0  0  0  0  0
  197.8630  174.7810  137.3880 C   0  0  0  0  0  3  0  0  0  0  0  0
  198.8820  172.6050  137.0810 C   0  0  0  0  0  3  0  0  0  0  0  0
  196.6320  174.1750  137.6590 C   0  0  0  0  0  0  0  0  0  0  0  0
  200.2220  174.6250  136.8020 N   0  0  0  0  0  1  0  0  0  0  0  0
  196.5320  172.7740  137.6260 C   0  0  0  0  0  3  0  0  0  0  0  0
  188.7700  178.5410  137.3410 C   0  0  2  0  0  3  0  0  0  0  0  0
  188.9570  179.9240  137.4420 O   0  0  0  0  0  1  0  0  0  0  0  0
  182.6060  177.7250  138.7520 C   0  0  0  0  0  0  0  0  0  0  0  0
  186.5560  178.7830  138.3760 N   0  0  0  0  0  0  0  0  0  0  0  0
  185.4680  177.0620  136.4150 C   0  0  0  0  0  0  0  0  0  0  0  0
  184.5650  177.9610  137.2240 C   0  0  1  0  0  3  0  0  0  0  0  0
  182.4840  179.2120  140.7020 F   0  0  0  0  0  0  0  0  0  0  0  0
  184.4680  179.1450  139.4960 C   0  0  0  0  0  3  0  0  0  0  0  0
  183.2670  177.3240  137.6510 C   0  0  0  0  0  3  0  0  0  0  0  0
  183.2030  178.7380  139.6550 C   0  0  0  0  0  0  0  0  0  0  0  0
  186.7860  177.2650  136.4440 C   0  0  0  0  0  3  0  0  0  0  0  0
  185.2670  178.6310  138.3820 C   0  0  0  0  0  0  0  0  0  0  0  0
  187.3510  178.2080  137.3690 N   0  0  0  0  0  0  0  0  0  0  0  0
  181.3580  177.1910  139.0960 O   0  0  0  0  0  0  0  0  0  0  0  0
  180.9330  175.5290  138.9080 P   0  0  0  0  0  0  0  0  0  0  0  0
  182.3400  174.6010  138.7920 O   0  0  0  0  0  1  0  0  0  0  0  0
  180.0190  175.3460  137.4950 O   0  0  0  0  0  0  0  0  0  0  0  0
  180.1220  175.0690  140.0970 O   0  0  0  0  0  1  0  0  0  0  0  0
  184.9210  176.1020  135.4060 C   0  0  0  0  0  2  0  0  0  0  0  0
  183.7660  172.5050  135.8470 C   0  0  0  0  0  3  0  0  0  0  0  0
  183.9060  173.7940  135.3220 C   0  0  0  0  0  3  0  0  0  0  0  0
  184.7170  174.7330  135.9730 C   0  0  0  0  0  0  0  0  0  0  0  0
  184.4470  172.1460  137.0180 C   0  0  0  0  0  3  0  0  0  0  0  0
  185.4110  174.3630  137.1360 C   0  0  0  0  0  3  0  0  0  0  0  0
  185.2720  173.0740  137.6590 C   0  0  0  0  0  3  0  0  0  0  0  0
  189.5830  178.4940  139.6370 O   0  0  0  0  0  0  0  0  0  0  0  0
  189.1670  177.5540  140.5870 C   0  0  2  0  0  3  0  0  0  0  0  0
  187.7720  177.5330  140.6340 O   0  0  0  0  0  1  0  0  0  0  0  0
  189.7000  177.9500  141.9560 C   0  0  0  0  0  2  0  0  0  0  0  0
  189.3760  176.9300  142.9430 N   0  0  0  0  0  0  0  0  0  0  0  0
  188.0270  177.6270  146.3000 C   0  0  0  0  0  0  0  0  0  0  0  0
  186.5610  177.7490  145.4910 S   0  0  0  0  0  0  0  0  0  0  0  0
  188.5370  177.2700  144.0620 C   0  0  0  0  0  0  0  0  0  0  0  0
  187.1570  177.4650  143.9420 C   0  0  0  0  0  3  0  0  0  0  0  0
  189.0270  177.3600  145.3800 C   0  0  0  0  0  3  0  0  0  0  0  0
  188.2080  177.7150  147.7760 C   0  0  0  0  0  2  0  0  0  0  0  0
  188.3290  176.4460  148.3150 F   0  0  0  0  0  0  0  0  0  0  0  0
  190.2470  175.7570  143.0100 C   0  0  0  0  0  2  0  0  0  0  0  0
  191.5860  176.1590  143.0760 O   0  0  0  0  0  1  0  0  0  0  0  0
  1  4  1  1  0  0  0
  1 47  1  0  0  0  0
  2  4  2  0  0  0  0
  3  5  1  0  0  0  0
  5  6  1  0  0  0  0
  5  2  2  0  0  0  0
  7  6  1  0  0  0  0
  7  8  1  0  0  0  0
  9  8  2  0  0  0  0
  9 14  1  0  0  0  0
 10  9  1  0  0  0  0
 11  7  2  0  0  0  0
 12 10  1  0  0  0  0
 13 11  1  0  0  0  0
 13 10  2  0  0  0  0
 15 21  1  0  0  0  0
 16 17  2  0  0  0  0
 17 19  1  0  0  0  0
 18 16  1  0  0  0  0
 18 15  2  0  0  0  0
 19 14  1  0  0  0  0
 20 16  1  0  0  0  0
 21 19  2  0  0  0  0
 22 34  1  0  0  0  0
 22 23  1  1  0  0  0
 22  1  1  0  0  0  0
 24 35  1  0  0  0  0
 24 31  1  0  0  0  0
 25 33  2  0  0  0  0
 26 32  2  0  0  0  0
 26 27  1  0  0  0  0
 27 30  1  1  0  0  0
 27 33  1  0  0  0  0
 29 31  2  0  0  0  0
 30 24  2  0  0  0  0
 31 28  1  0  0  0  0
 32 34  1  0  0  0  0
 33 29  1  0  0  0  0
 34 25  1  0  0  0  0
 36 35  1  0  0  0  0
 36 39  1  0  0  0  0
 37 36  1  0  0  0  0
 38 36  2  0  0  0  0
 40 43  1  0  0  0  0
 40 26  1  0  0  0  0
 41 44  1  0  0  0  0
 42 41  2  0  0  0  0
 42 43  1  0  0  0  0
 43 45  2  0  0  0  0
 44 46  2  0  0  0  0
 45 46  1  0  0  0  0
 47 48  1  0  0  0  0
 48 49  1  1  0  0  0
 48 50  1  0  0  0  0
 50 51  1  0  0  0  0
 51 59  1  0  0  0  0
 51 54  1  0  0  0  0
 52 57  1  0  0  0  0
 53 52  1  0  0  0  0
 54 56  1  0  0  0  0
 55 54  2  0  0  0  0
 55 53  1  0  0  0  0
 56 52  2  0  0  0  0
 57 58  1  0  0  0  0
 59 60  1  0  0  0  0
M  END
>  <MODEL>
6

>  <REMARK>
 VINA RESULT:      -7.1      2.818      8.817
  Name = 
  18 active torsions:
  status: ('A' for Active; 'I' for Inactive)
    1  A    between atoms: C_2  and  O_38
    2  A    between atoms: C_6  and  C_9
    3  A    between atoms: C_10  and  C_55
    4  A    between atoms: C_12  and  C_47
    5  A    between atoms: C_13  and  C_44
    6  A    between atoms: C_13  and  O_54
    7  A    between atoms: C_14  and  C_29
    8  A    between atoms: P_15  and  O_38
    9  A    between atoms: C_17  and  C_55
   10  A    between atoms: C_17  and  N_60
   11  A    between atoms: C_23  and  C_29
   12  A    between atoms: N_24  and  C_26
   13  A    between atoms: N_24  and  C_34
   14  A    between atoms: N_24  and  C_44
   15  A    between atoms: C_28  and  N_59
   16  A    between atoms: C_31  and  C_47
   17  A    between atoms: C_36  and  N_59
   18  A    between atoms: O_54  and  C_55
                            x       y       z     vdW  Elec       q    Type
                         _______ _______ _______ _____ _____    ______ ____

>  <TORSDO>
F 18

$$$$
=
 OpenBabel10232409223D

 60 65  0  0  1  0  0  0  0  0999 V2000
  188.7800  177.1270  135.9440 C   0  0  1  0  0  3  0  0  0  0  0  0
  189.5120  177.7860  138.2100 C   0  0  0  0  0  0  0  0  0  0  0  0
  188.5370  178.4910  140.2990 C   0  0  0  0  0  1  0  0  0  0  0  0
  189.5860  177.9470  136.9130 C   0  0  0  0  0  3  0  0  0  0  0  0
  189.4460  177.6290  139.5030 C   0  0  0  0  0  0  0  0  0  0  0  0
  190.3740  176.6940  140.2070 C   0  0  0  0  0  2  0  0  0  0  0  0
  190.4300  176.9680  141.6750 C   0  0  0  0  0  0  0  0  0  0  0  0
  189.3800  176.5960  142.5240 C   0  0  0  0  0  3  0  0  0  0  0  0
  189.4250  176.9150  143.8870 C   0  0  0  0  0  0  0  0  0  0  0  0
  190.5560  177.5700  144.4090 C   0  0  0  0  0  0  0  0  0  0  0  0
  191.5420  177.6340  142.1990 C   0  0  0  0  0  3  0  0  0  0  0  0
  190.6660  177.8250  145.7340 F   0  0  0  0  0  0  0  0  0  0  0  0
  191.6070  177.9290  143.5620 C   0  0  0  0  0  3  0  0  0  0  0  0
  188.3220  176.5370  144.7200 N   0  0  0  0  0  2  0  0  0  0  0  0
  185.9200  178.6920  146.6380 C   0  0  0  0  0  3  0  0  0  0  0  0
  185.3120  178.6940  144.2960 C   0  0  0  0  0  0  0  0  0  0  0  0
  186.3660  177.8200  144.0180 C   0  0  0  0  0  3  0  0  0  0  0  0
  185.0880  179.1300  145.6050 C   0  0  0  0  0  3  0  0  0  0  0  0
  187.2010  177.3720  145.0470 C   0  0  0  0  0  0  0  0  0  0  0  0
  184.4890  179.1620  143.2390 N   0  0  0  0  0  1  0  0  0  0  0  0
  186.9780  177.8220  146.3590 C   0  0  0  0  0  3  0  0  0  0  0  0
  187.3990  177.7470  135.6960 C   0  0  2  0  0  3  0  0  0  0  0  0
  187.2040  178.8800  136.4940 O   0  0  0  0  0  1  0  0  0  0  0  0
  183.6270  172.6170  136.0340 C   0  0  0  0  0  0  0  0  0  0  0  0
  186.6190  175.4190  135.7960 N   0  0  0  0  0  0  0  0  0  0  0  0
  184.0090  176.3360  136.3760 C   0  0  0  0  0  0  0  0  0  0  0  0
  184.3950  174.9060  136.6660 C   0  0  1  0  0  3  0  0  0  0  0  0
  185.3350  170.8900  135.6740 F   0  0  0  0  0  0  0  0  0  0  0  0
  186.0320  173.0980  135.8760 C   0  0  0  0  0  3  0  0  0  0  0  0
  183.3270  173.8910  136.3450 C   0  0  0  0  0  3  0  0  0  0  0  0
  185.0400  172.1970  135.8810 C   0  0  0  0  0  0  0  0  0  0  0  0
  184.9620  177.2240  136.0920 C   0  0  0  0  0  3  0  0  0  0  0  0
  185.7330  174.5160  136.0810 C   0  0  0  0  0  0  0  0  0  0  0  0
  186.3160  176.7890  135.8880 N   0  0  0  0  0  0  0  0  0  0  0  0
  182.6290  171.6570  135.8220 O   0  0  0  0  0  0  0  0  0  0  0  0
  181.0120  171.8010  136.4040 P   0  0  0  0  0  0  0  0  0  0  0  0
  180.2840  173.1590  135.7080 O   0  0  0  0  0  0  0  0  0  0  0  0
  181.0410  171.9780  138.0870 O   0  0  0  0  0  1  0  0  0  0  0  0
  180.2230  170.5650  136.0410 O   0  0  0  0  0  1  0  0  0  0  0  0
  182.6210  176.8390  136.6230 C   0  0  0  0  0  2  0  0  0  0  0  0
  182.8770  177.5670  140.3470 C   0  0  0  0  0  3  0  0  0  0  0  0
  182.9760  176.9040  139.1190 C   0  0  0  0  0  3  0  0  0  0  0  0
  182.4840  177.5070  137.9540 C   0  0  0  0  0  0  0  0  0  0  0  0
  182.2990  178.8430  140.4110 C   0  0  0  0  0  3  0  0  0  0  0  0
  181.9240  178.7920  138.0200 C   0  0  0  0  0  3  0  0  0  0  0  0
  181.8270  179.4560  139.2480 C   0  0  0  0  0  3  0  0  0  0  0  0
  189.4690  176.8850  134.7420 O   0  0  0  0  0  0  0  0  0  0  0  0
  190.6050  176.1640  135.1260 C   0  0  2  0  0  3  0  0  0  0  0  0
  191.6910  176.5640  134.3460 O   0  0  0  0  0  1  0  0  0  0  0  0
  190.3600  174.6790  134.9020 C   0  0  0  0  0  2  0  0  0  0  0  0
  190.9850  173.8950  135.9580 N   0  0  0  0  0  0  0  0  0  0  0  0
  194.6260  173.4560  135.6130 C   0  0  0  0  0  0  0  0  0  0  0  0
  194.2130  171.9020  135.1310 S   0  0  0  0  0  0  0  0  0  0  0  0
  192.3100  173.3700  135.7600 C   0  0  0  0  0  0  0  0  0  0  0  0
  192.5480  172.0670  135.3110 C   0  0  0  0  0  3  0  0  0  0  0  0
  193.4710  174.1500  135.9300 C   0  0  0  0  0  3  0  0  0  0  0  0
  196.0060  174.0190  135.6230 C   0  0  0  0  0  2  0  0  0  0  0  0
  196.9360  172.9940  135.6270 F   0  0  0  0  0  0  0  0  0  0  0  0
  190.1070  173.3040  136.9680 C   0  0  0  0  0  2  0  0  0  0  0  0
  189.4640  174.3140  137.6940 O   0  0  0  0  0  1  0  0  0  0  0  0
  1  4  1  1  0  0  0
  2  5  2  0  0  0  0
  4  2  2  0  0  0  0
  5  6  1  0  0  0  0
  5  3  1  0  0  0  0
  6  7  1  0  0  0  0
  7 11  2  0  0  0  0
  7  8  1  0  0  0  0
  8  9  2  0  0  0  0
  9 10  1  0  0  0  0
  9 14  1  0  0  0  0
 10 12  1  0  0  0  0
 11 13  1  0  0  0  0
 13 10  2  0  0  0  0
 14 19  1  0  0  0  0
 16 18  1  0  0  0  0
 17 16  2  0  0  0  0
 17 19  1  0  0  0  0
 18 15  2  0  0  0  0
 19 21  2  0  0  0  0
 20 16  1  0  0  0  0
 21 15  1  0  0  0  0
 22 34  1  0  0  0  0
 22  1  1  0  0  0  0
 22 23  1  1  0  0  0
 24 30  2  0  0  0  0
 25 34  1  0  0  0  0
 25 33  2  0  0  0  0
 26 40  1  0  0  0  0
 26 27  1  0  0  0  0
 27 30  1  6  0  0  0
 28 31  1  0  0  0  0
 29 31  2  0  0  0  0
 29 33  1  0  0  0  0
 31 24  1  0  0  0  0
 32 26  2  0  0  0  0
 33 27  1  0  0  0  0
 34 32  1  0  0  0  0
 35 24  1  0  0  0  0
 35 36  1  0  0  0  0
 36 38  1  0  0  0  0
 37 36  2  0  0  0  0
 39 36  1  0  0  0  0
 40 43  1  0  0  0  0
 41 44  1  0  0  0  0
 42 41  2  0  0  0  0
 43 45  2  0  0  0  0
 43 42  1  0  0  0  0
 45 46  1  0  0  0  0
 46 44  2  0  0  0  0
 47 48  1  0  0  0  0
 47  1  1  0  0  0  0
 48 49  1  6  0  0  0
 50 48  1  0  0  0  0
 50 51  1  0  0  0  0
 51 59  1  0  0  0  0
 52 57  1  0  0  0  0
 52 56  2  0  0  0  0
 53 55  1  0  0  0  0
 53 52  1  0  0  0  0
 54 56  1  0  0  0  0
 54 51  1  0  0  0  0
 55 54  2  0  0  0  0
 57 58  1  0  0  0  0
 59 60  1  0  0  0  0
M  END
>  <MODEL>
7

>  <REMARK>
 VINA RESULT:      -7.0      2.587      4.694
  Name = 
  18 active torsions:
  status: ('A' for Active; 'I' for Inactive)
    1  A    between atoms: C_2  and  O_38
    2  A    between atoms: C_6  and  C_9
    3  A    between atoms: C_10  and  C_55
    4  A    between atoms: C_12  and  C_47
    5  A    between atoms: C_13  and  C_44
    6  A    between atoms: C_13  and  O_54
    7  A    between atoms: C_14  and  C_29
    8  A    between atoms: P_15  and  O_38
    9  A    between atoms: C_17  and  C_55
   10  A    between atoms: C_17  and  N_60
   11  A    between atoms: C_23  and  C_29
   12  A    between atoms: N_24  and  C_26
   13  A    between atoms: N_24  and  C_34
   14  A    between atoms: N_24  and  C_44
   15  A    between atoms: C_28  and  N_59
   16  A    between atoms: C_31  and  C_47
   17  A    between atoms: C_36  and  N_59
   18  A    between atoms: O_54  and  C_55
                            x       y       z     vdW  Elec       q    Type
                         _______ _______ _______ _____ _____    ______ ____

>  <TORSDO>
F 18

$$$$
=
 OpenBabel10232409223D

 60 65  0  0  1  0  0  0  0  0999 V2000
  189.2850  176.9640  138.4760 C   0  0  1  0  0  3  0  0  0  0  0  0
  187.4770  176.6420  136.8220 C   0  0  0  0  0  0  0  0  0  0  0  0
  186.5260  177.7880  134.9260 C   0  0  0  0  0  1  0  0  0  0  0  0
  187.8600  176.6990  138.0720 C   0  0  0  0  0  3  0  0  0  0  0  0
  187.0890  176.5800  135.5790 C   0  0  0  0  0  0  0  0  0  0  0  0
  187.0720  175.2770  134.8480 C   0  0  0  0  0  2  0  0  0  0  0  0
  186.1500  174.2920  135.4910 C   0  0  0  0  0  0  0  0  0  0  0  0
  184.7720  174.5300  135.5690 C   0  0  0  0  0  3  0  0  0  0  0  0
  183.9330  173.6240  136.2280 C   0  0  0  0  0  0  0  0  0  0  0  0
  184.4760  172.4440  136.7710 C   0  0  0  0  0  0  0  0  0  0  0  0
  186.6830  173.1270  136.0480 C   0  0  0  0  0  3  0  0  0  0  0  0
  183.6830  171.5100  137.3480 F   0  0  0  0  0  0  0  0  0  0  0  0
  185.8490  172.2030  136.6810 C   0  0  0  0  0  3  0  0  0  0  0  0
  182.5310  173.9130  136.3070 N   0  0  0  0  0  2  0  0  0  0  0  0
  180.5690  175.7290  138.9410 C   0  0  0  0  0  3  0  0  0  0  0  0
  181.8060  177.3280  137.6110 C   0  0  0  0  0  0  0  0  0  0  0  0
  182.3070  176.2890  136.8220 C   0  0  0  0  0  3  0  0  0  0  0  0
  180.9370  177.0490  138.6700 C   0  0  0  0  0  3  0  0  0  0  0  0
  181.9400  174.9650  137.0840 C   0  0  0  0  0  0  0  0  0  0  0  0
  182.2060  178.6640  137.3530 N   0  0  0  0  0  1  0  0  0  0  0  0
  181.0750  174.6890  138.1560 C   0  0  0  0  0  3  0  0  0  0  0  0
  189.3770  178.1030  139.4980 C   0  0  2  0  0  3  0  0  0  0  0  0
  190.5760  178.0400  140.2170 O   0  0  0  0  0  1  0  0  0  0  0  0
  183.7410  178.9280  142.3650 C   0  0  0  0  0  0  0  0  0  0  0  0
  186.9870  178.5250  139.8820 N   0  0  0  0  0  0  0  0  0  0  0  0
  187.3050  177.7680  142.5870 C   0  0  0  0  0  0  0  0  0  0  0  0
  185.9310  177.8010  141.9620 C   0  0  1  0  0  3  0  0  0  0  0  0
  182.4460  179.6530  140.4100 F   0  0  0  0  0  0  0  0  0  0  0  0
  184.6400  178.9640  140.0780 C   0  0  0  0  0  3  0  0  0  0  0  0
  184.8480  178.3440  142.8600 C   0  0  0  0  0  3  0  0  0  0  0  0
  183.6080  179.1630  140.9080 C   0  0  0  0  0  0  0  0  0  0  0  0
  188.3810  177.8440  141.8020 C   0  0  0  0  0  3  0  0  0  0  0  0
  185.9080  178.4510  140.5990 C   0  0  0  0  0  0  0  0  0  0  0  0
  188.2330  178.1340  140.4020 N   0  0  0  0  0  0  0  0  0  0  0  0
  182.6980  179.3510  143.1980 O   0  0  0  0  0  0  0  0  0  0  0  0
  181.0390  178.9520  142.9460 P   0  0  0  0  0  0  0  0  0  0  0  0
  180.2220  180.3030  142.3410 O   0  0  0  0  0  1  0  0  0  0  0  0
  180.3490  178.4910  144.4220 O   0  0  0  0  0  1  0  0  0  0  0  0
  180.9290  177.8130  141.9600 O   0  0  0  0  0  0  0  0  0  0  0  0
  187.5030  177.4230  144.0300 C   0  0  0  0  0  2  0  0  0  0  0  0
  190.8280  177.2860  145.8710 C   0  0  0  0  0  3  0  0  0  0  0  0
  189.4980  177.5930  145.5640 C   0  0  0  0  0  3  0  0  0  0  0  0
  188.9360  177.1490  144.3600 C   0  0  0  0  0  0  0  0  0  0  0  0
  191.5960  176.5230  144.9820 C   0  0  0  0  0  3  0  0  0  0  0  0
  189.7040  176.3700  143.4800 C   0  0  0  0  0  3  0  0  0  0  0  0
  191.0330  176.0620  143.7890 C   0  0  0  0  0  3  0  0  0  0  0  0
  189.9400  175.8030  138.9240 O   0  0  0  0  0  0  0  0  0  0  0  0
  190.7010  175.3820  137.8270 C   0  0  2  0  0  3  0  0  0  0  0  0
  190.5000  174.0170  137.6220 O   0  0  0  0  0  1  0  0  0  0  0  0
  192.1760  175.6250  138.1140 C   0  0  0  0  0  2  0  0  0  0  0  0
  192.9950  175.1470  137.0090 N   0  0  0  0  0  0  0  0  0  0  0  0
  194.5030  171.7880  136.8830 C   0  0  0  0  0  0  0  0  0  0  0  0
  195.5060  172.3890  138.0880 S   0  0  0  0  0  0  0  0  0  0  0  0
  193.8290  173.9890  137.1940 C   0  0  0  0  0  0  0  0  0  0  0  0
  194.8560  173.9400  138.1420 C   0  0  0  0  0  3  0  0  0  0  0  0
  193.6280  172.7870  136.4870 C   0  0  0  0  0  3  0  0  0  0  0  0
  194.5030  170.3870  136.3790 C   0  0  0  0  0  2  0  0  0  0  0  0
  195.6440  170.1520  135.6300 F   0  0  0  0  0  0  0  0  0  0  0  0
  193.2800  176.0890  135.9270 C   0  0  0  0  0  2  0  0  0  0  0  0
  194.3410  176.9280  136.2900 O   0  0  0  0  0  1  0  0  0  0  0  0
  1  4  1  1  0  0  0
  1 47  1  0  0  0  0
  1 22  1  0  0  0  0
  2  4  2  0  0  0  0
  3  5  1  0  0  0  0
  5  2  2  0  0  0  0
  6  7  1  0  0  0  0
  6  5  1  0  0  0  0
  7  8  2  0  0  0  0
  7 11  1  0  0  0  0
  8  9  1  0  0  0  0
  9 14  1  0  0  0  0
  9 10  2  0  0  0  0
 10 12  1  0  0  0  0
 11 13  2  0  0  0  0
 13 10  1  0  0  0  0
 14 19  1  0  0  0  0
 16 18  2  0  0  0  0
 17 19  2  0  0  0  0
 17 16  1  0  0  0  0
 18 15  1  0  0  0  0
 19 21  1  0  0  0  0
 20 16  1  0  0  0  0
 21 15  2  0  0  0  0
 22 23  1  1  0  0  0
 22 34  1  0  0  0  0
 24 30  2  0  0  0  0
 24 35  1  0  0  0  0
 25 34  1  0  0  0  0
 25 33  2  0  0  0  0
 26 40  1  0  0  0  0
 27 26  1  0  0  0  0
 27 30  1  1  0  0  0
 28 31  1  0  0  0  0
 29 33  1  0  0  0  0
 29 31  2  0  0  0  0
 31 24  1  0  0  0  0
 32 26  2  0  0  0  0
 33 27  1  0  0  0  0
 34 32  1  0  0  0  0
 36 35  1  0  0  0  0
 36 38  1  0  0  0  0
 37 36  1  0  0  0  0
 39 36  2  0  0  0  0
 40 43  1  0  0  0  0
 42 41  1  0  0  0  0
 43 42  2  0  0  0  0
 44 41  2  0  0  0  0
 45 46  2  0  0  0  0
 45 43  1  0  0  0  0
 46 44  1  0  0  0  0
 48 49  1  1  0  0  0
 48 50  1  0  0  0  0
 48 47  1  0  0  0  0
 51 54  1  0  0  0  0
 51 50  1  0  0  0  0
 52 53  1  0  0  0  0
 53 55  1  0  0  0  0
 54 55  2  0  0  0  0
 56 52  2  0  0  0  0
 56 54  1  0  0  0  0
 57 52  1  0  0  0  0
 58 57  1  0  0  0  0
 59 60  1  0  0  0  0
 59 51  1  0  0  0  0
M  END
>  <MODEL>
8

>  <REMARK>
 VINA RESULT:      -6.6      2.759      7.070
  Name = 
  18 active torsions:
  status: ('A' for Active; 'I' for Inactive)
    1  A    between atoms: C_2  and  O_38
    2  A    between atoms: C_6  and  C_9
    3  A    between atoms: C_10  and  C_55
    4  A    between atoms: C_12  and  C_47
    5  A    between atoms: C_13  and  C_44
    6  A    between atoms: C_13  and  O_54
    7  A    between atoms: C_14  and  C_29
    8  A    between atoms: P_15  and  O_38
    9  A    between atoms: C_17  and  C_55
   10  A    between atoms: C_17  and  N_60
   11  A    between atoms: C_23  and  C_29
   12  A    between atoms: N_24  and  C_26
   13  A    between atoms: N_24  and  C_34
   14  A    between atoms: N_24  and  C_44
   15  A    between atoms: C_28  and  N_59
   16  A    between atoms: C_31  and  C_47
   17  A    between atoms: C_36  and  N_59
   18  A    between atoms: O_54  and  C_55
                            x       y       z     vdW  Elec       q    Type
                         _______ _______ _______ _____ _____    ______ ____

>  <TORSDO>
F 18

$$$$
=
 OpenBabel10232409223D

 60 65  0  0  1  0  0  0  0  0999 V2000
  190.1500  174.3780  135.8500 C   0  0  1  0  0  3  0  0  0  0  0  0
  191.0970  175.4520  137.8630 C   0  0  0  0  0  0  0  0  0  0  0  0
  193.0430  176.7270  138.4950 C   0  0  0  0  0  1  0  0  0  0  0  0
  190.6150  174.3840  137.2800 C   0  0  0  0  0  3  0  0  0  0  0  0
  191.5750  176.5130  138.4520 C   0  0  0  0  0  0  0  0  0  0  0  0
  190.6760  177.4390  139.2040 C   0  0  0  0  0  2  0  0  0  0  0  0
  190.6730  177.1430  140.6680 C   0  0  0  0  0  0  0  0  0  0  0  0
  189.5000  176.7560  141.3290 C   0  0  0  0  0  3  0  0  0  0  0  0
  189.5050  176.5400  142.7120 C   0  0  0  0  0  0  0  0  0  0  0  0
  190.7090  176.6680  143.4310 C   0  0  0  0  0  0  0  0  0  0  0  0
  191.8600  177.2840  141.3930 C   0  0  0  0  0  3  0  0  0  0  0  0
  190.7650  176.3930  144.7550 F   0  0  0  0  0  0  0  0  0  0  0  0
  191.8800  177.0420  142.7670 C   0  0  0  0  0  3  0  0  0  0  0  0
  188.2800  176.1670  143.3560 N   0  0  0  0  0  2  0  0  0  0  0  0
  185.3880  178.4710  144.0030 C   0  0  0  0  0  3  0  0  0  0  0  0
  186.6050  178.1070  146.0620 C   0  0  0  0  0  0  0  0  0  0  0  0
  187.5170  177.2940  145.3830 C   0  0  0  0  0  3  0  0  0  0  0  0
  185.5410  178.6950  145.3730 C   0  0  0  0  0  3  0  0  0  0  0  0
  187.3740  177.0680  144.0100 C   0  0  0  0  0  0  0  0  0  0  0  0
  186.7450  178.3070  147.4590 N   0  0  0  0  0  1  0  0  0  0  0  0
  186.2960  177.6540  143.3250 C   0  0  0  0  0  3  0  0  0  0  0  0
  189.7060  175.7740  135.3970 C   0  0  2  0  0  3  0  0  0  0  0  0
  190.5900  176.7580  135.8550 O   0  0  0  0  0  1  0  0  0  0  0  0
  184.3690  177.7150  138.2970 C   0  0  0  0  0  0  0  0  0  0  0  0
  188.1480  176.9700  136.8730 N   0  0  0  0  0  0  0  0  0  0  0  0
  185.9720  175.8250  135.4770 C   0  0  0  0  0  0  0  0  0  0  0  0
  185.7650  177.0470  136.3390 C   0  0  1  0  0  3  0  0  0  0  0  0
  185.3890  179.1660  139.9940 F   0  0  0  0  0  0  0  0  0  0  0  0
  186.7720  178.2220  138.3830 C   0  0  0  0  0  3  0  0  0  0  0  0
  184.4870  177.0380  137.1390 C   0  0  0  0  0  3  0  0  0  0  0  0
  185.5430  178.4000  138.8860 C   0  0  0  0  0  0  0  0  0  0  0  0
  187.2140  175.4460  135.1710 C   0  0  0  0  0  3  0  0  0  0  0  0
  186.9620  177.3850  137.1970 C   0  0  0  0  0  0  0  0  0  0  0  0
  188.3380  176.0820  135.8000 N   0  0  0  0  0  0  0  0  0  0  0  0
  183.1540  177.7760  138.9920 O   0  0  0  0  0  0  0  0  0  0  0  0
  181.9920  179.0360  138.7940 P   0  0  0  0  0  0  0  0  0  0  0  0
  180.9400  179.0420  140.1170 O   0  0  0  0  0  1  0  0  0  0  0  0
  181.1100  178.7600  137.3750 O   0  0  0  0  0  0  0  0  0  0  0  0
  182.6920  180.3710  138.7000 O   0  0  0  0  0  1  0  0  0  0  0  0
  184.8330  175.1630  134.7670 C   0  0  0  0  0  2  0  0  0  0  0  0
  184.4360  172.4060  137.3550 C   0  0  0  0  0  3  0  0  0  0  0  0
  184.9310  173.5300  136.6860 C   0  0  0  0  0  3  0  0  0  0  0  0
  184.3530  173.9370  135.4760 C   0  0  0  0  0  0  0  0  0  0  0  0
  183.3520  171.6930  136.8240 C   0  0  0  0  0  3  0  0  0  0  0  0
  183.2560  173.2310  134.9570 C   0  0  0  0  0  3  0  0  0  0  0  0
  182.7610  172.1080  135.6280 C   0  0  0  0  0  3  0  0  0  0  0  0
  191.1030  173.8230  134.9770 O   0  0  0  0  0  0  0  0  0  0  0  0
  192.3120  173.9060  135.6760 C   0  0  2  0  0  3  0  0  0  0  0  0
  192.9480  175.1070  135.3570 O   0  0  0  0  0  1  0  0  0  0  0  0
  193.2120  172.7490  135.2680 C   0  0  0  0  0  2  0  0  0  0  0  0
  193.9170  172.2190  136.4260 N   0  0  0  0  0  0  0  0  0  0  0  0
  195.9570  174.2930  138.6880 C   0  0  0  0  0  0  0  0  0  0  0  0
  197.0240  174.3390  137.3940 S   0  0  0  0  0  0  0  0  0  0  0  0
  194.9640  172.9990  137.0350 C   0  0  0  0  0  0  0  0  0  0  0  0
  196.1270  173.3680  136.3530 C   0  0  0  0  0  3  0  0  0  0  0  0
  194.8650  173.5140  138.3430 C   0  0  0  0  0  3  0  0  0  0  0  0
  196.1220  175.0330  139.9700 C   0  0  0  0  0  2  0  0  0  0  0  0
  197.4660  175.1410  140.2860 F   0  0  0  0  0  0  0  0  0  0  0  0
  193.8560  170.7750  136.6500 C   0  0  0  0  0  2  0  0  0  0  0  0
  194.6790  170.1130  135.7310 O   0  0  0  0  0  1  0  0  0  0  0  0
  1  4  1  1  0  0  0
  2  5  2  0  0  0  0
  4  2  2  0  0  0  0
  5  3  1  0  0  0  0
  5  6  1  0  0  0  0
  6  7  1  0  0  0  0
  7  8  2  0  0  0  0
  7 11  1  0  0  0  0
  8  9  1  0  0  0  0
  9 14  1  0  0  0  0
  9 10  2  0  0  0  0
 10 12  1  0  0  0  0
 11 13  2  0  0  0  0
 13 10  1  0  0  0  0
 14 19  1  0  0  0  0
 15 18  1  0  0  0  0
 16 20  1  0  0  0  0
 17 16  1  0  0  0  0
 18 16  2  0  0  0  0
 19 17  2  0  0  0  0
 21 15  2  0  0  0  0
 21 19  1  0  0  0  0
 22 34  1  0  0  0  0
 22  1  1  0  0  0  0
 22 23  1  1  0  0  0
 24 31  1  0  0  0  0
 24 35  1  0  0  0  0
 25 33  2  0  0  0  0
 26 27  1  0  0  0  0
 27 30  1  1  0  0  0
 27 33  1  0  0  0  0
 29 31  2  0  0  0  0
 30 24  2  0  0  0  0
 31 28  1  0  0  0  0
 32 26  2  0  0  0  0
 32 34  1  0  0  0  0
 33 29  1  0  0  0  0
 34 25  1  0  0  0  0
 36 35  1  0  0  0  0
 36 37  1  0  0  0  0
 38 36  2  0  0  0  0
 39 36  1  0  0  0  0
 40 43  1  0  0  0  0
 40 26  1  0  0  0  0
 42 41  2  0  0  0  0
 43 42  1  0  0  0  0
 44 41  1  0  0  0  0
 45 43  2  0  0  0  0
 45 46  1  0  0  0  0
 46 44  2  0  0  0  0
 47 48  1  0  0  0  0
 47  1  1  0  0  0  0
 48 49  1  6  0  0  0
 50 48  1  0  0  0  0
 50 51  1  0  0  0  0
 51 59  1  0  0  0  0
 51 54  1  0  0  0  0
 52 57  1  0  0  0  0
 53 52  1  0  0  0  0
 54 56  1  0  0  0  0
 55 54  2  0  0  0  0
 55 53  1  0  0  0  0
 56 52  2  0  0  0  0
 57 58  1  0  0  0  0
 60 59  1  0  0  0  0
M  END
>  <MODEL>
9

>  <REMARK>
 VINA RESULT:      -6.5      2.616      4.192
  Name = 
  18 active torsions:
  status: ('A' for Active; 'I' for Inactive)
    1  A    between atoms: C_2  and  O_38
    2  A    between atoms: C_6  and  C_9
    3  A    between atoms: C_10  and  C_55
    4  A    between atoms: C_12  and  C_47
    5  A    between atoms: C_13  and  C_44
    6  A    between atoms: C_13  and  O_54
    7  A    between atoms: C_14  and  C_29
    8  A    between atoms: P_15  and  O_38
    9  A    between atoms: C_17  and  C_55
   10  A    between atoms: C_17  and  N_60
   11  A    between atoms: C_23  and  C_29
   12  A    between atoms: N_24  and  C_26
   13  A    between atoms: N_24  and  C_34
   14  A    between atoms: N_24  and  C_44
   15  A    between atoms: C_28  and  N_59
   16  A    between atoms: C_31  and  C_47
   17  A    between atoms: C_36  and  N_59
   18  A    between atoms: O_54  and  C_55
                            x       y       z     vdW  Elec       q    Type
                         _______ _______ _______ _____ _____    ______ ____

>  <TORSDO>
F 18

$$$$
