=
 OpenBabel10232411323D

 27 31  0  0  1  0  0  0  0  0999 V2000
  185.9720  178.1200  144.0970 C   0  0  0  0  0  0  0  0  0  0  0  0
  187.1330  177.8290  144.9630 C   0  0  0  0  0  0  0  0  0  0  0  0
  190.8440  177.8180  145.0590 C   0  0  2  0  0  3  0  0  0  0  0  0
  191.8370  177.5100  145.9860 O   0  0  0  0  0  1  0  0  0  0  0  0
  191.0250  177.6610  142.6490 C   0  0  0  0  0  3  0  0  0  0  0  0
  191.2760  178.5190  143.8220 C   0  0  0  0  0  2  0  0  0  0  0  0
  189.5440  177.5750  145.3420 C   0  0  0  0  0  0  0  0  0  0  0  0
  183.6160  178.6010  143.7480 C   0  0  0  0  0  0  0  0  0  0  0  0
  186.1850  178.1930  142.7220 C   0  0  2  0  0  3  0  0  0  0  0  0
  182.2470  178.8570  144.3060 C   0  0  0  0  0  2  0  0  0  0  0  0
  185.1280  178.4760  141.8530 C   0  0  0  0  0  3  0  0  0  0  0  0
  182.7830  178.9630  141.4920 O   0  0  0  0  0  0  0  0  0  0  0  0
  186.9070  177.5580  146.3170 C   0  0  0  0  0  3  0  0  0  0  0  0
  188.4510  177.7430  144.4170 C   0  0  0  0  0  0  0  0  0  0  0  0
  184.6810  178.3280  144.6120 C   0  0  0  0  0  3  0  0  0  0  0  0
  189.7980  177.2940  142.3080 C   0  0  0  0  0  0  0  0  0  0  0  0
  189.2560  177.2650  146.6820 C   0  0  0  0  0  3  0  0  0  0  0  0
  183.8440  178.6900  142.3620 C   0  0  0  0  0  0  0  0  0  0  0  0
  181.4970  179.3510  141.9770 C   0  0  0  0  0  2  0  0  0  0  0  0
  187.4630  177.9640  142.2230 O   0  0  0  0  0  0  0  0  0  0  0  0
  181.1640  178.5910  143.2590 C   0  0  0  0  0  2  0  0  0  0  0  0
  188.5750  177.7100  143.0460 C   0  0  0  0  0  0  0  0  0  0  0  0
  187.9570  177.2450  147.1650 C   0  0  0  0  0  3  0  0  0  0  0  0
  189.6430  176.5030  141.0520 C   0  0  0  0  0  2  0  0  0  0  0  0
  190.2220  177.2290  139.9360 N   0  0  0  0  0  2  0  0  0  0  0  0
  189.4570  178.1750  139.2450 C   0  0  0  0  0  0  0  0  0  0  0  0
  188.8240  178.9570  138.6750 N   0  0  0  0  0  0  0  0  0  0  0  0
  1 15  1  0  0  0  0
  1  2  2  0  0  0  0
  2 13  1  0  0  0  0
  3  7  1  0  0  0  0
  3  4  1  1  0  0  0
  5  6  1  0  0  0  0
  6  3  1  0  0  0  0
  7 17  2  0  0  0  0
  8 10  1  0  0  0  0
  8 15  2  0  0  0  0
  9 11  1  6  0  0  0
  9  1  1  0  0  0  0
 11 18  2  0  0  0  0
 12 19  1  0  0  0  0
 12 18  1  0  0  0  0
 13 23  2  0  0  0  0
 14  2  1  0  0  0  0
 14  7  1  0  0  0  0
 16  5  2  0  0  0  0
 16 22  1  0  0  0  0
 17 23  1  0  0  0  0
 18  8  1  0  0  0  0
 19 21  1  0  0  0  0
 20  9  1  0  0  0  0
 20 22  1  0  0  0  0
 21 10  1  0  0  0  0
 22 14  2  0  0  0  0
 24 16  1  0  0  0  0
 25 24  1  0  0  0  0
 26 25  1  0  0  0  0
 27 26  3  0  0  0  0
M  END
>  <MODEL>
1

>  <REMARK>
 VINA RESULT:     -10.4      0.000      0.000
  Name = 
  3 active torsions:
  status: ('A' for Active; 'I' for Inactive)
    1  A    between atoms: C_7  and  C_19
    2  A    between atoms: C_7  and  N_25
    3  A    between atoms: C_11  and  N_25
                            x       y       z     vdW  Elec       q    Type
                         _______ _______ _______ _____ _____    ______ ____

>  <TORSDO>
F 3

$$$$
=
 OpenBabel10232411323D

 27 31  0  0  1  0  0  0  0  0999 V2000
  188.4090  177.7440  142.2950 C   0  0  0  0  0  0  0  0  0  0  0  0
  187.0270  177.9420  142.7770 C   0  0  0  0  0  0  0  0  0  0  0  0
  185.0210  178.9250  145.7420 C   0  0  2  0  0  3  0  0  0  0  0  0
  183.6710  179.0760  146.0530 O   0  0  0  0  0  1  0  0  0  0  0  0
  186.8000  178.3540  147.2840 C   0  0  0  0  0  3  0  0  0  0  0  0
  185.9990  179.4600  146.7250 C   0  0  0  0  0  2  0  0  0  0  0  0
  185.3950  178.4090  144.5490 C   0  0  0  0  0  0  0  0  0  0  0  0
  190.0580  177.5120  140.5270 C   0  0  0  0  0  0  0  0  0  0  0  0
  189.4170  177.6000  143.2470 C   0  0  0  0  0  0  0  0  0  0  0  0
  190.4030  177.5020  139.0670 C   0  0  0  0  0  2  0  0  0  0  0  0
  190.7460  177.4210  142.8530 C   0  0  0  0  0  3  0  0  0  0  0  0
  192.4010  177.1950  141.0990 O   0  0  0  0  0  0  0  0  0  0  0  0
  185.9810  177.8910  141.8480 C   0  0  0  0  0  3  0  0  0  0  0  0
  186.7520  178.1000  144.1710 C   0  0  0  0  0  0  0  0  0  0  0  0
  188.7330  177.7010  140.9290 C   0  0  0  0  0  2  0  0  0  0  0  0
  187.5950  177.6190  146.5200 C   0  0  0  0  0  0  0  0  0  0  0  0
  184.3810  178.3010  143.5830 C   0  0  0  0  0  3  0  0  0  0  0  0
  191.0730  177.3850  141.4940 C   0  0  0  0  0  0  0  0  0  0  0  0
  192.8010  177.3190  139.7340 C   0  0  0  0  0  2  0  0  0  0  0  0
  189.0810  177.6230  144.5960 O   0  0  0  0  0  0  0  0  0  0  0  0
  191.7180  176.7630  138.8130 C   0  0  0  0  0  2  0  0  0  0  0  0
  187.7700  177.8340  145.0580 C   0  0  0  0  0  0  0  0  0  0  0  0
  184.6640  178.0360  142.2520 C   0  0  0  0  0  3  0  0  0  0  0  0
  188.4320  176.5860  147.1970 C   0  0  0  0  0  2  0  0  0  0  0  0
  189.5910  177.2120  147.8100 N   0  0  0  0  0  2  0  0  0  0  0  0
  190.8790  176.8370  147.4150 C   0  0  0  0  0  0  0  0  0  0  0  0
  191.9450  176.5280  147.0880 N   0  0  0  0  0  0  0  0  0  0  0  0
  1  2  2  0  0  0  0
  1  9  1  0  0  0  0
  2 14  1  0  0  0  0
  3  4  1  6  0  0  0
  3  6  1  0  0  0  0
  6  5  1  0  0  0  0
  7  3  1  0  0  0  0
  8 15  1  0  0  0  0
  8 18  2  0  0  0  0
  9 20  1  0  0  0  0
 10  8  1  0  0  0  0
 11  9  2  0  0  0  0
 12 18  1  0  0  0  0
 13 23  2  0  0  0  0
 13  2  1  0  0  0  0
 14  7  1  0  0  0  0
 14 22  2  0  0  0  0
 15  1  1  0  0  0  0
 16 24  1  0  0  0  0
 16  5  2  0  0  0  0
 17  7  2  0  0  0  0
 18 11  1  0  0  0  0
 19 12  1  0  0  0  0
 20 22  1  0  0  0  0
 21 10  1  0  0  0  0
 21 19  1  0  0  0  0
 22 16  1  0  0  0  0
 23 17  1  0  0  0  0
 24 25  1  0  0  0  0
 26 25  1  0  0  0  0
 27 26  3  0  0  0  0
M  END
>  <MODEL>
2

>  <REMARK>
 VINA RESULT:      -9.5      2.931      6.801
  Name = 
  3 active torsions:
  status: ('A' for Active; 'I' for Inactive)
    1  A    between atoms: C_7  and  C_19
    2  A    between atoms: C_7  and  N_25
    3  A    between atoms: C_11  and  N_25
                            x       y       z     vdW  Elec       q    Type
                         _______ _______ _______ _____ _____    ______ ____

>  <TORSDO>
F 3

$$$$
=
 OpenBabel10232411323D

 27 31  0  0  1  0  0  0  0  0999 V2000
  184.9970  178.3570  144.2050 C   0  0  0  0  0  0  0  0  0  0  0  0
  185.8180  178.2040  145.4230 C   0  0  0  0  0  0  0  0  0  0  0  0
  189.3150  177.9490  146.6420 C   0  0  2  0  0  3  0  0  0  0  0  0
  189.9570  177.8070  147.8710 O   0  0  0  0  0  1  0  0  0  0  0  0
  190.1360  177.1940  144.4920 C   0  0  0  0  0  3  0  0  0  0  0  0
  190.1700  178.2930  145.4760 C   0  0  0  0  0  2  0  0  0  0  0  0
  187.9670  177.8770  146.5620 C   0  0  0  0  0  0  0  0  0  0  0  0
  182.9250  178.9070  143.0630 C   0  0  0  0  0  0  0  0  0  0  0  0
  185.5930  178.0760  142.9770 C   0  0  2  0  0  3  0  0  0  0  0  0
  181.5050  179.3890  143.1100 C   0  0  0  0  0  2  0  0  0  0  0  0
  184.8710  178.2130  141.7880 C   0  0  0  0  0  3  0  0  0  0  0  0
  182.8120  178.7640  140.6370 O   0  0  0  0  0  0  0  0  0  0  0  0
  185.1880  178.2900  146.6700 C   0  0  0  0  0  3  0  0  0  0  0  0
  187.2100  177.8920  145.3350 C   0  0  0  0  0  0  0  0  0  0  0  0
  183.6570  178.7770  144.2460 C   0  0  0  0  0  3  0  0  0  0  0  0
  189.0140  176.8450  143.8810 C   0  0  0  0  0  0  0  0  0  0  0  0
  187.2770  177.9250  147.7850 C   0  0  0  0  0  3  0  0  0  0  0  0
  183.5400  178.6370  141.8250 C   0  0  0  0  0  0  0  0  0  0  0  0
  181.5110  179.3510  140.6150 C   0  0  0  0  0  2  0  0  0  0  0  0
  186.9140  177.6400  142.9500 O   0  0  0  0  0  0  0  0  0  0  0  0
  180.7300  178.9540  141.8650 C   0  0  0  0  0  2  0  0  0  0  0  0
  187.7050  177.5150  144.1060 C   0  0  0  0  0  0  0  0  0  0  0  0
  185.9050  178.1180  147.8420 C   0  0  0  0  0  3  0  0  0  0  0  0
  189.1040  175.7840  142.8350 C   0  0  0  0  0  2  0  0  0  0  0  0
  190.1880  176.0860  141.9170 N   0  0  0  0  0  2  0  0  0  0  0  0
  189.9520  176.8900  140.7970 C   0  0  0  0  0  0  0  0  0  0  0  0
  189.7580  177.5560  139.8720 N   0  0  0  0  0  0  0  0  0  0  0  0
  1 15  1  0  0  0  0
  1  2  2  0  0  0  0
  2 13  1  0  0  0  0
  3  4  1  1  0  0  0
  5  6  1  0  0  0  0
  6  3  1  0  0  0  0
  7  3  1  0  0  0  0
  7 17  2  0  0  0  0
  8 10  1  0  0  0  0
  8 15  2  0  0  0  0
  9 11  1  1  0  0  0
  9  1  1  0  0  0  0
 11 18  2  0  0  0  0
 12 18  1  0  0  0  0
 13 23  2  0  0  0  0
 14  2  1  0  0  0  0
 14  7  1  0  0  0  0
 16 22  1  0  0  0  0
 16  5  2  0  0  0  0
 17 23  1  0  0  0  0
 18  8  1  0  0  0  0
 19 12  1  0  0  0  0
 19 21  1  0  0  0  0
 20  9  1  0  0  0  0
 20 22  1  0  0  0  0
 21 10  1  0  0  0  0
 22 14  2  0  0  0  0
 24 16  1  0  0  0  0
 25 24  1  0  0  0  0
 26 25  1  0  0  0  0
 27 26  3  0  0  0  0
M  END
>  <MODEL>
3

>  <REMARK>
 VINA RESULT:      -9.5      1.235      1.712
  Name = 
  3 active torsions:
  status: ('A' for Active; 'I' for Inactive)
    1  A    between atoms: C_7  and  C_19
    2  A    between atoms: C_7  and  N_25
    3  A    between atoms: C_11  and  N_25
                            x       y       z     vdW  Elec       q    Type
                         _______ _______ _______ _____ _____    ______ ____

>  <TORSDO>
F 3

$$$$
=
 OpenBabel10232411323D

 27 31  0  0  1  0  0  0  0  0999 V2000
  187.4230  177.6600  144.8810 C   0  0  0  0  0  0  0  0  0  0  0  0
  186.0350  178.1550  144.7750 C   0  0  0  0  0  0  0  0  0  0  0  0
  183.1610  178.4840  142.4490 C   0  0  2  0  0  3  0  0  0  0  0  0
  181.8640  178.9900  142.4990 O   0  0  0  0  0  1  0  0  0  0  0  0
  184.5770  178.3410  140.4890 C   0  0  0  0  0  3  0  0  0  0  0  0
  183.5160  177.6660  141.2590 C   0  0  0  0  0  2  0  0  0  0  0  0
  184.0030  178.6540  143.4940 C   0  0  0  0  0  0  0  0  0  0  0  0
  189.3600  176.9460  146.1600 C   0  0  0  0  0  0  0  0  0  0  0  0
  188.1240  177.4270  143.6990 C   0  0  2  0  0  3  0  0  0  0  0  0
  190.0070  176.6530  147.4810 C   0  0  0  0  0  2  0  0  0  0  0  0
  189.4360  176.9480  143.7330 C   0  0  0  0  0  3  0  0  0  0  0  0
  191.3720  176.2270  144.9970 O   0  0  0  0  0  0  0  0  0  0  0  0
  185.3860  178.5800  145.9400 C   0  0  0  0  0  3  0  0  0  0  0  0
  185.3950  178.2780  143.5030 C   0  0  0  0  0  0  0  0  0  0  0  0
  188.0440  177.4150  146.1160 C   0  0  0  0  0  3  0  0  0  0  0  0
  185.7780  178.5590  141.0060 C   0  0  0  0  0  0  0  0  0  0  0  0
  183.4160  179.1110  144.6850 C   0  0  0  0  0  3  0  0  0  0  0  0
  190.0550  176.6960  144.9610 C   0  0  0  0  0  0  0  0  0  0  0  0
  191.9820  175.8000  146.2160 C   0  0  0  0  0  2  0  0  0  0  0  0
  187.5050  177.6930  142.4820 O   0  0  0  0  0  0  0  0  0  0  0  0
  191.5320  176.6900  147.3720 C   0  0  0  0  0  2  0  0  0  0  0  0
  186.1760  178.1430  142.3780 C   0  0  0  0  0  0  0  0  0  0  0  0
  184.0980  179.0860  145.8920 C   0  0  0  0  0  3  0  0  0  0  0  0
  186.8090  179.1640  140.1130 C   0  0  0  0  0  2  0  0  0  0  0  0
  186.8920  178.4140  138.8730 N   0  0  0  0  0  2  0  0  0  0  0  0
  187.9950  177.5890  138.6270 C   0  0  0  0  0  0  0  0  0  0  0  0
  188.9070  176.9090  138.4230 N   0  0  0  0  0  0  0  0  0  0  0  0
  1 15  1  0  0  0  0
  2  1  2  0  0  0  0
  2 13  1  0  0  0  0
  3  4  1  1  0  0  0
  3  7  1  0  0  0  0
  5 16  2  0  0  0  0
  5  6  1  0  0  0  0
  6  3  1  0  0  0  0
  7 14  1  0  0  0  0
  7 17  2  0  0  0  0
  8 10  1  0  0  0  0
  9 11  1  1  0  0  0
  9  1  1  0  0  0  0
 11 18  2  0  0  0  0
 12 19  1  0  0  0  0
 14  2  1  0  0  0  0
 15  8  2  0  0  0  0
 16 22  1  0  0  0  0
 17 23  1  0  0  0  0
 18 12  1  0  0  0  0
 18  8  1  0  0  0  0
 19 21  1  0  0  0  0
 20  9  1  0  0  0  0
 21 10  1  0  0  0  0
 22 20  1  0  0  0  0
 22 14  2  0  0  0  0
 23 13  2  0  0  0  0
 24 16  1  0  0  0  0
 25 24  1  0  0  0  0
 26 25  1  0  0  0  0
 27 26  3  0  0  0  0
M  END
>  <MODEL>
4

>  <REMARK>
 VINA RESULT:      -9.0      1.456      6.219
  Name = 
  3 active torsions:
  status: ('A' for Active; 'I' for Inactive)
    1  A    between atoms: C_7  and  C_19
    2  A    between atoms: C_7  and  N_25
    3  A    between atoms: C_11  and  N_25
                            x       y       z     vdW  Elec       q    Type
                         _______ _______ _______ _____ _____    ______ ____

>  <TORSDO>
F 3

$$$$
=
 OpenBabel10232411323D

 27 31  0  0  1  0  0  0  0  0999 V2000
  188.7150  178.0530  141.8820 C   0  0  0  0  0  0  0  0  0  0  0  0
  189.4830  177.9150  143.1360 C   0  0  0  0  0  0  0  0  0  0  0  0
  189.1670  177.1130  146.7460 C   0  0  2  0  0  3  0  0  0  0  0  0
  190.0170  177.0150  147.8460 O   0  0  0  0  0  1  0  0  0  0  0  0
  186.8150  177.6910  146.7920 C   0  0  0  0  0  3  0  0  0  0  0  0
  187.7870  176.5890  146.9180 C   0  0  0  0  0  2  0  0  0  0  0  0
  189.6300  177.5690  145.5600 C   0  0  0  0  0  0  0  0  0  0  0  0
  188.5510  178.1640  139.4600 C   0  0  0  0  0  0  0  0  0  0  0  0
  187.3320  178.2040  141.9760 C   0  0  0  0  0  0  0  0  0  0  0  0
  189.2050  178.1050  138.1110 C   0  0  0  0  0  2  0  0  0  0  0  0
  186.5500  178.3280  140.8250 C   0  0  0  0  0  3  0  0  0  0  0  0
  186.3730  178.4340  138.4120 O   0  0  0  0  0  0  0  0  0  0  0  0
  190.8800  177.9600  143.0730 C   0  0  0  0  0  3  0  0  0  0  0  0
  188.8170  177.8220  144.3970 C   0  0  0  0  0  0  0  0  0  0  0  0
  189.3250  178.0310  140.6170 C   0  0  0  0  0  2  0  0  0  0  0  0
  186.6820  178.3710  145.6620 C   0  0  0  0  0  0  0  0  0  0  0  0
  191.0270  177.6680  145.4460 C   0  0  0  0  0  3  0  0  0  0  0  0
  187.1540  178.2990  139.5650 C   0  0  0  0  0  0  0  0  0  0  0  0
  186.9240  178.2430  137.1080 C   0  0  0  0  0  2  0  0  0  0  0  0
  186.7420  178.2460  143.2350 O   0  0  0  0  0  0  0  0  0  0  0  0
  188.3460  178.7930  137.0490 C   0  0  0  0  0  2  0  0  0  0  0  0
  187.4670  178.0920  144.4300 C   0  0  0  0  0  0  0  0  0  0  0  0
  191.6470  177.8720  144.2230 C   0  0  0  0  0  3  0  0  0  0  0  0
  185.6070  179.4050  145.6070 C   0  0  0  0  0  2  0  0  0  0  0  0
  184.3140  178.7890  145.8500 N   0  0  0  0  0  2  0  0  0  0  0  0
  183.3400  178.7890  144.8450 C   0  0  0  0  0  0  0  0  0  0  0  0
  182.5340  178.7880  144.0160 N   0  0  0  0  0  0  0  0  0  0  0  0
  1  9  1  0  0  0  0
  1  2  2  0  0  0  0
  2 14  1  0  0  0  0
  3  6  1  0  0  0  0
  3  4  1  6  0  0  0
  5  6  1  0  0  0  0
  7  3  1  0  0  0  0
  8 18  2  0  0  0  0
  8 15  1  0  0  0  0
  9 20  1  0  0  0  0
 10  8  1  0  0  0  0
 11  9  2  0  0  0  0
 12 18  1  0  0  0  0
 13  2  1  0  0  0  0
 13 23  2  0  0  0  0
 14 22  2  0  0  0  0
 14  7  1  0  0  0  0
 15  1  1  0  0  0  0
 16  5  2  0  0  0  0
 17  7  2  0  0  0  0
 18 11  1  0  0  0  0
 19 12  1  0  0  0  0
 20 22  1  0  0  0  0
 21 19  1  0  0  0  0
 21 10  1  0  0  0  0
 22 16  1  0  0  0  0
 23 17  1  0  0  0  0
 24 16  1  0  0  0  0
 24 25  1  0  0  0  0
 26 25  1  0  0  0  0
 27 26  3  0  0  0  0
M  END
>  <MODEL>
5

>  <REMARK>
 VINA RESULT:      -8.9      2.818      5.410
  Name = 
  3 active torsions:
  status: ('A' for Active; 'I' for Inactive)
    1  A    between atoms: C_7  and  C_19
    2  A    between atoms: C_7  and  N_25
    3  A    between atoms: C_11  and  N_25
                            x       y       z     vdW  Elec       q    Type
                         _______ _______ _______ _____ _____    ______ ____

>  <TORSDO>
F 3

$$$$
=
 OpenBabel10232411323D

 27 31  0  0  1  0  0  0  0  0999 V2000
  185.7130  178.1490  144.4340 C   0  0  0  0  0  0  0  0  0  0  0  0
  184.3510  178.4720  143.9620 C   0  0  0  0  0  0  0  0  0  0  0  0
  182.0880  178.2550  141.0280 C   0  0  2  0  0  3  0  0  0  0  0  0
  180.7760  178.6130  140.7250 O   0  0  0  0  0  1  0  0  0  0  0  0
  183.9320  178.0910  139.4660 C   0  0  0  0  0  3  0  0  0  0  0  0
  182.7840  177.3750  140.0520 C   0  0  0  0  0  2  0  0  0  0  0  0
  182.6420  178.6150  142.2080 C   0  0  0  0  0  0  0  0  0  0  0  0
  187.3510  177.7810  146.1900 C   0  0  0  0  0  0  0  0  0  0  0  0
  186.6910  177.8880  143.4750 C   0  0  2  0  0  3  0  0  0  0  0  0
  187.6920  177.6870  147.6480 C   0  0  0  0  0  2  0  0  0  0  0  0
  187.9950  177.5650  143.8590 C   0  0  0  0  0  3  0  0  0  0  0  0
  189.6350  177.1890  145.6010 O   0  0  0  0  0  0  0  0  0  0  0  0
  183.4110  178.9270  144.8930 C   0  0  0  0  0  3  0  0  0  0  0  0
  184.0200  178.4020  142.5730 C   0  0  0  0  0  0  0  0  0  0  0  0
  186.0460  178.0920  145.7970 C   0  0  0  0  0  3  0  0  0  0  0  0
  184.9540  178.4900  140.2110 C   0  0  0  0  0  0  0  0  0  0  0  0
  181.7520  179.1120  143.1750 C   0  0  0  0  0  3  0  0  0  0  0  0
  188.3270  177.5010  145.2150 C   0  0  0  0  0  0  0  0  0  0  0  0
  189.9760  176.9500  146.9660 C   0  0  0  0  0  2  0  0  0  0  0  0
  186.3540  177.9670  142.1270 O   0  0  0  0  0  0  0  0  0  0  0  0
  189.1900  177.8870  147.8800 C   0  0  0  0  0  2  0  0  0  0  0  0
  185.0530  178.2520  141.6760 C   0  0  0  0  0  0  0  0  0  0  0  0
  182.1310  179.2770  144.4990 C   0  0  0  0  0  3  0  0  0  0  0  0
  186.1080  179.1230  139.5080 C   0  0  0  0  0  2  0  0  0  0  0  0
  186.8400  178.1190  138.7550 N   0  0  0  0  0  2  0  0  0  0  0  0
  188.1880  177.8770  139.0390 C   0  0  0  0  0  0  0  0  0  0  0  0
  189.3020  177.6780  139.2740 N   0  0  0  0  0  0  0  0  0  0  0  0
  1 15  1  0  0  0  0
  2  1  2  0  0  0  0
  2 13  1  0  0  0  0
  3  4  1  1  0  0  0
  3  7  1  0  0  0  0
  5  6  1  0  0  0  0
  5 16  2  0  0  0  0
  6  3  1  0  0  0  0
  7 14  1  0  0  0  0
  7 17  2  0  0  0  0
  8 10  1  0  0  0  0
  9 11  1  6  0  0  0
  9  1  1  0  0  0  0
 10 21  1  0  0  0  0
 11 18  2  0  0  0  0
 12 19  1  0  0  0  0
 14  2  1  0  0  0  0
 15  8  2  0  0  0  0
 16 22  1  0  0  0  0
 17 23  1  0  0  0  0
 18 12  1  0  0  0  0
 18  8  1  0  0  0  0
 19 21  1  0  0  0  0
 20  9  1  0  0  0  0
 22 20  1  0  0  0  0
 22 14  2  0  0  0  0
 23 13  2  0  0  0  0
 24 16  1  0  0  0  0
 25 26  1  0  0  0  0
 25 24  1  0  0  0  0
 26 27  3  0  0  0  0
M  END
>  <MODEL>
6

>  <REMARK>
 VINA RESULT:      -8.8      1.596      6.287
  Name = 
  3 active torsions:
  status: ('A' for Active; 'I' for Inactive)
    1  A    between atoms: C_7  and  C_19
    2  A    between atoms: C_7  and  N_25
    3  A    between atoms: C_11  and  N_25
                            x       y       z     vdW  Elec       q    Type
                         _______ _______ _______ _____ _____    ______ ____

>  <TORSDO>
F 3

$$$$
=
 OpenBabel10232411323D

 27 31  0  0  1  0  0  0  0  0999 V2000
  189.0760  177.3090  143.0510 C   0  0  0  0  0  0  0  0  0  0  0  0
  188.2480  177.4060  144.2710 C   0  0  0  0  0  0  0  0  0  0  0  0
  188.3910  178.0670  147.9210 C   0  0  2  0  0  3  0  0  0  0  0  0
  187.4880  178.1300  148.9800 O   0  0  0  0  0  1  0  0  0  0  0  0
  190.7330  177.4670  148.0590 C   0  0  0  0  0  3  0  0  0  0  0  0
  189.7640  178.5720  148.1810 C   0  0  0  0  0  2  0  0  0  0  0  0
  187.9830  177.6600  146.6970 C   0  0  0  0  0  0  0  0  0  0  0  0
  189.3580  177.2890  140.6390 C   0  0  0  0  0  0  0  0  0  0  0  0
  190.4510  177.1420  143.2080 C   0  0  0  0  0  0  0  0  0  0  0  0
  188.7730  177.4060  139.2620 C   0  0  0  0  0  2  0  0  0  0  0  0
  191.2880  177.0560  142.0930 C   0  0  0  0  0  3  0  0  0  0  0  0
  191.5830  177.0410  139.6890 O   0  0  0  0  0  0  0  0  0  0  0  0
  186.8550  177.3750  144.1380 C   0  0  0  0  0  3  0  0  0  0  0  0
  188.8510  177.4450  145.5660 C   0  0  0  0  0  0  0  0  0  0  0  0
  188.5290  177.3850  141.7600 C   0  0  0  0  0  2  0  0  0  0  0  0
  190.9180  176.8290  146.9120 C   0  0  0  0  0  0  0  0  0  0  0  0
  186.5930  177.5780  146.5100 C   0  0  0  0  0  3  0  0  0  0  0  0
  190.7480  177.1380  140.8070 C   0  0  0  0  0  0  0  0  0  0  0  0
  191.0990  177.2850  138.3680 C   0  0  0  0  0  2  0  0  0  0  0  0
  190.9780  177.0470  144.4920 O   0  0  0  0  0  0  0  0  0  0  0  0
  189.6780  176.7500  138.2180 C   0  0  0  0  0  2  0  0  0  0  0  0
  190.1960  177.1620  145.6550 C   0  0  0  0  0  0  0  0  0  0  0  0
  186.0330  177.4270  145.2510 C   0  0  0  0  0  3  0  0  0  0  0  0
  191.9870  175.7890  146.8700 C   0  0  0  0  0  2  0  0  0  0  0  0
  192.3510  175.3990  148.2210 N   0  0  0  0  0  2  0  0  0  0  0  0
  193.1760  176.2280  148.9900 C   0  0  0  0  0  0  0  0  0  0  0  0
  193.8570  176.9130  149.6260 N   0  0  0  0  0  0  0  0  0  0  0  0
  1  9  1  0  0  0  0
  1  2  2  0  0  0  0
  2 14  1  0  0  0  0
  3  6  1  0  0  0  0
  3  4  1  6  0  0  0
  5  6  1  0  0  0  0
  7  3  1  0  0  0  0
  8 18  2  0  0  0  0
  8 15  1  0  0  0  0
  9 20  1  0  0  0  0
 10  8  1  0  0  0  0
 11  9  2  0  0  0  0
 12 18  1  0  0  0  0
 13  2  1  0  0  0  0
 13 23  2  0  0  0  0
 14 22  2  0  0  0  0
 14  7  1  0  0  0  0
 15  1  1  0  0  0  0
 16  5  2  0  0  0  0
 17  7  2  0  0  0  0
 18 11  1  0  0  0  0
 19 12  1  0  0  0  0
 20 22  1  0  0  0  0
 21 19  1  0  0  0  0
 21 10  1  0  0  0  0
 22 16  1  0  0  0  0
 23 17  1  0  0  0  0
 24 16  1  0  0  0  0
 24 25  1  0  0  0  0
 25 26  1  0  0  0  0
 26 27  3  0  0  0  0
M  END
>  <MODEL>
7

>  <REMARK>
 VINA RESULT:      -8.4      3.976      6.401
  Name = 
  3 active torsions:
  status: ('A' for Active; 'I' for Inactive)
    1  A    between atoms: C_7  and  C_19
    2  A    between atoms: C_7  and  N_25
    3  A    between atoms: C_11  and  N_25
                            x       y       z     vdW  Elec       q    Type
                         _______ _______ _______ _____ _____    ______ ____

>  <TORSDO>
F 3

$$$$
=
 OpenBabel10232411323D

 27 31  0  0  1  0  0  0  0  0999 V2000
  190.0840  177.1880  141.2570 C   0  0  0  0  0  0  0  0  0  0  0  0
  190.0320  177.4050  142.7170 C   0  0  0  0  0  0  0  0  0  0  0  0
  187.7180  177.6390  145.6100 C   0  0  2  0  0  3  0  0  0  0  0  0
  187.8230  177.8500  146.9830 O   0  0  0  0  0  1  0  0  0  0  0  0
  185.8280  178.2070  144.2060 C   0  0  0  0  0  3  0  0  0  0  0  0
  186.3970  177.1830  145.1020 C   0  0  0  0  0  2  0  0  0  0  0  0
  188.8070  177.7470  144.8150 C   0  0  0  0  0  0  0  0  0  0  0  0
  191.2580  176.6210  139.2070 C   0  0  0  0  0  0  0  0  0  0  0  0
  188.9080  177.3600  140.5290 C   0  0  2  0  0  3  0  0  0  0  0  0
  192.5120  176.1890  138.5060 C   0  0  0  0  0  2  0  0  0  0  0  0
  188.8910  177.1580  139.1470 C   0  0  0  0  0  3  0  0  0  0  0  0
  190.0490  176.5880  137.0970 O   0  0  0  0  0  0  0  0  0  0  0  0
  191.2340  177.4310  143.4330 C   0  0  0  0  0  3  0  0  0  0  0  0
  188.7900  177.6660  143.3760 C   0  0  0  0  0  0  0  0  0  0  0  0
  191.2640  176.8150  140.5920 C   0  0  0  0  0  3  0  0  0  0  0  0
  186.4250  178.5450  143.0720 C   0  0  0  0  0  0  0  0  0  0  0  0
  190.0440  177.8100  145.4770 C   0  0  0  0  0  3  0  0  0  0  0  0
  190.0610  176.7800  138.4830 C   0  0  0  0  0  0  0  0  0  0  0  0
  191.1730  176.0430  136.4060 C   0  0  0  0  0  2  0  0  0  0  0  0
  187.7510  177.7500  141.1960 O   0  0  0  0  0  0  0  0  0  0  0  0
  192.4720  176.5550  137.0220 C   0  0  0  0  0  2  0  0  0  0  0  0
  187.6930  177.9350  142.5890 C   0  0  0  0  0  0  0  0  0  0  0  0
  191.2440  177.6650  144.7980 C   0  0  0  0  0  3  0  0  0  0  0  0
  185.7210  179.5230  142.1920 C   0  0  0  0  0  2  0  0  0  0  0  0
  184.7320  178.8360  141.3800 N   0  0  0  0  0  2  0  0  0  0  0  0
  184.5910  179.1590  140.0260 C   0  0  0  0  0  0  0  0  0  0  0  0
  184.4740  179.4260  138.9070 N   0  0  0  0  0  0  0  0  0  0  0  0
  1  2  2  0  0  0  0
  2 14  1  0  0  0  0
  2 13  1  0  0  0  0
  3  4  1  1  0  0  0
  5  6  1  0  0  0  0
  6  3  1  0  0  0  0
  7 17  2  0  0  0  0
  7  3  1  0  0  0  0
  8 15  2  0  0  0  0
  9 11  1  6  0  0  0
  9 20  1  0  0  0  0
  9  1  1  0  0  0  0
 10  8  1  0  0  0  0
 12 18  1  0  0  0  0
 13 23  2  0  0  0  0
 14  7  1  0  0  0  0
 15  1  1  0  0  0  0
 16  5  2  0  0  0  0
 18 11  2  0  0  0  0
 18  8  1  0  0  0  0
 19 21  1  0  0  0  0
 19 12  1  0  0  0  0
 20 22  1  0  0  0  0
 21 10  1  0  0  0  0
 22 16  1  0  0  0  0
 22 14  2  0  0  0  0
 23 17  1  0  0  0  0
 24 16  1  0  0  0  0
 25 24  1  0  0  0  0
 26 25  1  0  0  0  0
 27 26  3  0  0  0  0
M  END
>  <MODEL>
8

>  <REMARK>
 VINA RESULT:      -8.3      2.532      6.269
  Name = 
  3 active torsions:
  status: ('A' for Active; 'I' for Inactive)
    1  A    between atoms: C_7  and  C_19
    2  A    between atoms: C_7  and  N_25
    3  A    between atoms: C_11  and  N_25
                            x       y       z     vdW  Elec       q    Type
                         _______ _______ _______ _____ _____    ______ ____

>  <TORSDO>
F 3

$$$$
=
 OpenBabel10232411323D

 27 31  0  0  1  0  0  0  0  0999 V2000
  186.0440  178.2530  142.3870 C   0  0  0  0  0  0  0  0  0  0  0  0
  187.3280  178.1160  141.6710 C   0  0  0  0  0  0  0  0  0  0  0  0
  190.7820  176.7930  141.9820 C   0  0  2  0  0  3  0  0  0  0  0  0
  191.9250  176.7320  141.1870 O   0  0  0  0  0  1  0  0  0  0  0  0
  190.7140  176.8500  144.4030 C   0  0  0  0  0  3  0  0  0  0  0  0
  190.7840  175.9710  143.2200 C   0  0  0  0  0  2  0  0  0  0  0  0
  189.6990  177.4900  141.5720 C   0  0  0  0  0  0  0  0  0  0  0  0
  183.6480  178.6480  142.4500 C   0  0  0  0  0  0  0  0  0  0  0  0
  186.0490  178.0950  143.7720 C   0  0  0  0  0  0  0  0  0  0  0  0
  182.3550  178.9070  141.7330 C   0  0  0  0  0  2  0  0  0  0  0  0
  184.8630  178.2020  144.5040 C   0  0  0  0  0  3  0  0  0  0  0  0
  182.4730  178.5870  144.5790 O   0  0  0  0  0  0  0  0  0  0  0  0
  187.3800  178.4630  140.3160 C   0  0  0  0  0  3  0  0  0  0  0  0
  188.5140  177.7170  142.3620 C   0  0  0  0  0  0  0  0  0  0  0  0
  184.8360  178.5290  141.7240 C   0  0  0  0  0  2  0  0  0  0  0  0
  189.6660  177.6300  144.6260 C   0  0  0  0  0  0  0  0  0  0  0  0
  189.7050  177.8960  140.2270 C   0  0  0  0  0  3  0  0  0  0  0  0
  183.6590  178.4690  143.8460 C   0  0  0  0  0  0  0  0  0  0  0  0
  181.2030  178.6920  143.9360 C   0  0  0  0  0  2  0  0  0  0  0  0
  187.2540  177.8430  144.4190 O   0  0  0  0  0  0  0  0  0  0  0  0
  181.3200  179.5340  142.6680 C   0  0  0  0  0  2  0  0  0  0  0  0
  188.4740  177.6890  143.7380 C   0  0  0  0  0  0  0  0  0  0  0  0
  188.5660  178.3870  139.6070 C   0  0  0  0  0  3  0  0  0  0  0  0
  189.6520  178.4110  145.8970 C   0  0  0  0  0  2  0  0  0  0  0  0
  189.6010  177.5070  147.0330 N   0  0  0  0  0  2  0  0  0  0  0  0
  188.6350  177.6900  148.0290 C   0  0  0  0  0  0  0  0  0  0  0  0
  187.8370  177.8400  148.8520 N   0  0  0  0  0  0  0  0  0  0  0  0
  1  9  1  0  0  0  0
  2 14  1  0  0  0  0
  2  1  2  0  0  0  0
  3  4  1  6  0  0  0
  3  6  1  0  0  0  0
  5 16  2  0  0  0  0
  6  5  1  0  0  0  0
  7  3  1  0  0  0  0
  7 14  1  0  0  0  0
  8 18  2  0  0  0  0
  9 20  1  0  0  0  0
  9 11  2  0  0  0  0
 10  8  1  0  0  0  0
 10 21  1  0  0  0  0
 13  2  1  0  0  0  0
 14 22  2  0  0  0  0
 15  1  1  0  0  0  0
 15  8  1  0  0  0  0
 16 24  1  0  0  0  0
 17  7  2  0  0  0  0
 18 11  1  0  0  0  0
 18 12  1  0  0  0  0
 19 12  1  0  0  0  0
 21 19  1  0  0  0  0
 22 20  1  0  0  0  0
 22 16  1  0  0  0  0
 23 17  1  0  0  0  0
 23 13  2  0  0  0  0
 24 25  1  0  0  0  0
 25 26  1  0  0  0  0
 26 27  3  0  0  0  0
M  END
>  <MODEL>
9

>  <REMARK>
 VINA RESULT:      -8.2      2.697      4.435
  Name = 
  3 active torsions:
  status: ('A' for Active; 'I' for Inactive)
    1  A    between atoms: C_7  and  C_19
    2  A    between atoms: C_7  and  N_25
    3  A    between atoms: C_11  and  N_25
                            x       y       z     vdW  Elec       q    Type
                         _______ _______ _______ _____ _____    ______ ____

>  <TORSDO>
F 3

$$$$
