=
 OpenBabel10232411563D

 37 40  0  0  1  0  0  0  0  0999 V2000
  190.6270  176.1480  134.9620 O   0  0  0  0  0  0  0  0  0  0  0  0
  191.6200  175.2780  137.0250 C   0  0  0  0  0  0  0  0  0  0  0  0
  188.3990  178.3170  138.1240 C   0  0  0  0  0  3  0  0  0  0  0  0
  189.8550  176.9970  139.5780 C   0  0  0  0  0  0  0  0  0  0  0  0
  188.8260  177.9530  139.4260 C   0  0  0  0  0  0  0  0  0  0  0  0
  188.9670  177.7560  137.0160 N   0  0  0  0  0  0  0  0  0  0  0  0
  189.9500  176.8400  137.1840 C   0  0  0  0  0  0  0  0  0  0  0  0
  190.7160  176.1000  136.2170 C   0  0  0  0  0  0  0  0  0  0  0  0
  192.6270  174.3260  136.4840 C   0  0  0  0  0  1  0  0  0  0  0  0
  191.4450  175.4740  138.3000 N   0  0  0  0  0  0  0  0  0  0  0  0
  190.4030  176.4500  138.4130 C   0  0  0  0  0  0  0  0  0  0  0  0
  190.3310  176.5990  140.9450 C   0  0  1  0  0  3  0  0  0  0  0  0
  191.3200  177.5580  141.4360 N   0  0  0  0  0  2  0  0  0  0  0  0
  191.8960  177.0460  142.6800 C   0  0  0  0  0  2  0  0  0  0  0  0
  189.1580  176.4970  141.9180 C   0  0  0  0  0  2  0  0  0  0  0  0
  190.8260  176.9060  143.7690 C   0  0  2  0  0  3  0  0  0  0  0  0
  189.6600  176.0430  143.2850 C   0  0  0  0  0  2  0  0  0  0  0  0
  190.4870  179.2750  143.6010 O   0  0  0  0  0  0  0  0  0  0  0  0
  190.3650  178.2350  144.3010 C   0  0  0  0  0  0  0  0  0  0  0  0
  189.7630  178.3340  145.5920 N   0  0  0  0  0  2  0  0  0  0  0  0
  189.5740  177.1780  146.4580 C   0  0  0  0  0  2  0  0  0  0  0  0
  187.1490  177.3020  146.2820 N   0  0  0  0  0  2  0  0  0  0  0  0
  186.4210  178.5450  146.5030 C   0  0  1  0  0  3  0  0  0  0  0  0
  188.2210  178.5580  148.0430 C   0  0  0  0  0  2  0  0  0  0  0  0
  188.2620  177.2790  147.2270 C   0  0  2  0  0  0  0  0  0  0  0  0
  184.9290  178.2810  146.4860 C   0  0  0  0  0  1  0  0  0  0  0  0
  186.8310  179.0930  147.8460 C   0  0  0  0  0  2  0  0  0  0  0  0
  188.1210  176.1770  148.0740 O   0  0  0  0  0  1  0  0  0  0  0  0
  188.2420  178.5310  140.5600 O   0  0  0  0  0  0  0  0  0  0  0  0
  186.8900  178.7930  140.6310 N   0  0  0  0  0  2  0  0  0  0  0  0
  186.5040  178.7190  142.0340 C   0  0  0  0  0  2  0  0  0  0  0  0
  185.0040  178.9340  142.1910 C   0  0  2  0  0  3  0  0  0  0  0  0
  184.4840  178.0180  143.0870 F   0  0  0  0  0  0  0  0  0  0  0  0
  184.2820  178.8130  140.8550 C   0  0  0  0  0  2  0  0  0  0  0  0
  181.9560  178.8110  140.9820 C   0  0  0  0  0  1  0  0  0  0  0  0
  183.0470  177.1550  139.7660 C   0  0  0  0  0  1  0  0  0  0  0  0
  183.1210  177.9470  140.9820 N   0  0  0  0  0  0  0  0  0  0  0  0
  1  8  2  0  0  0  0
  2 10  2  0  0  0  0
  3  5  1  0  0  0  0
  5  4  2  0  0  0  0
  5 29  1  0  0  0  0
  6  7  1  0  0  0  0
  6  3  2  0  0  0  0
  7 11  2  0  0  0  0
  8  2  1  0  0  0  0
  8  7  1  0  0  0  0
  9  2  1  0  0  0  0
 10 11  1  0  0  0  0
 11  4  1  0  0  0  0
 12  4  1  6  0  0  0
 12 13  1  0  0  0  0
 12 15  1  0  0  0  0
 13 14  1  0  0  0  0
 14 16  1  0  0  0  0
 15 17  1  0  0  0  0
 16 19  1  6  0  0  0
 17 16  1  0  0  0  0
 18 19  2  0  0  0  0
 19 20  1  0  0  0  0
 20 21  1  0  0  0  0
 21 25  1  0  0  0  0
 22 23  1  0  0  0  0
 22 25  1  0  0  0  0
 23 26  1  1  0  0  0
 23 27  1  0  0  0  0
 25 24  1  0  0  0  0
 25 28  1  1  0  0  0
 27 24  1  0  0  0  0
 29 30  1  0  0  0  0
 30 31  1  0  0  0  0
 31 32  1  0  0  0  0
 32 33  1  1  0  0  0
 34 37  1  0  0  0  0
 34 32  1  0  0  0  0
 36 37  1  0  0  0  0
 37 35  1  0  0  0  0
M  END
>  <MODEL>
1

>  <REMARK>
 VINA RESULT:      -7.9      0.000      0.000
  Name = 
  10 active torsions:
  status: ('A' for Active; 'I' for Inactive)
    1  A    between atoms: C_2  and  C_3
    2  A    between atoms: C_2  and  C_15
    3  A    between atoms: C_3  and  N_30
    4  A    between atoms: C_6  and  C_16
    5  A    between atoms: O_9  and  C_17
    6  A    between atoms: O_9  and  N_30
    7  A    between atoms: C_14  and  C_24
    8  A    between atoms: C_15  and  N_31
    9  A    between atoms: N_19  and  C_25
   10  A    between atoms: C_21  and  C_25
                            x       y       z     vdW  Elec       q    Type
                         _______ _______ _______ _____ _____    ______ ____

>  <TORSDO>
F 10

$$$$
=
 OpenBabel10232411563D

 37 40  0  0  1  0  0  0  0  0999 V2000
  188.6910  178.0570  148.9930 O   0  0  0  0  0  0  0  0  0  0  0  0
  189.8830  177.2390  147.0160 C   0  0  0  0  0  0  0  0  0  0  0  0
  185.6930  178.5370  145.7610 C   0  0  0  0  0  3  0  0  0  0  0  0
  187.5060  177.6110  144.4080 C   0  0  0  0  0  0  0  0  0  0  0  0
  186.1900  178.1140  144.5020 C   0  0  0  0  0  0  0  0  0  0  0  0
  186.4700  178.4670  146.8820 N   0  0  0  0  0  0  0  0  0  0  0  0
  187.7290  177.9840  146.7690 C   0  0  0  0  0  0  0  0  0  0  0  0
  188.7540  177.7970  147.7630 C   0  0  0  0  0  0  0  0  0  0  0  0
  191.1980  176.8650  147.6020 C   0  0  0  0  0  1  0  0  0  0  0  0
  189.6070  177.0990  145.7510 N   0  0  0  0  0  0  0  0  0  0  0  0
  188.2620  177.5610  145.5840 C   0  0  0  0  0  0  0  0  0  0  0  0
  188.0530  177.1490  143.0890 C   0  0  1  0  0  3  0  0  0  0  0  0
  188.5460  178.2890  142.3160 N   0  0  0  0  0  2  0  0  0  0  0  0
  188.9000  177.8310  140.9720 C   0  0  0  0  0  2  0  0  0  0  0  0
  189.1660  176.1230  143.2950 C   0  0  0  0  0  2  0  0  0  0  0  0
  190.0310  176.7970  141.0200 C   0  0  2  0  0  3  0  0  0  0  0  0
  189.6700  175.6310  141.9420 C   0  0  0  0  0  2  0  0  0  0  0  0
  191.6190  177.7150  142.5670 O   0  0  0  0  0  0  0  0  0  0  0  0
  191.3600  177.4080  141.3730 C   0  0  0  0  0  0  0  0  0  0  0  0
  192.3510  177.6260  140.3690 N   0  0  0  0  0  2  0  0  0  0  0  0
  192.1350  177.2870  138.9690 C   0  0  0  0  0  2  0  0  0  0  0  0
  193.8560  176.9820  137.2740 N   0  0  0  0  0  2  0  0  0  0  0  0
  193.6950  176.0440  136.1700 C   0  0  1  0  0  3  0  0  0  0  0  0
  192.6710  175.0260  138.0470 C   0  0  0  0  0  2  0  0  0  0  0  0
  193.2390  176.3740  138.4500 C   0  0  2  0  0  0  0  0  0  0  0  0
  194.9830  175.9520  135.3770 C   0  0  0  0  0  1  0  0  0  0  0  0
  193.3510  174.6960  136.7500 C   0  0  0  0  0  2  0  0  0  0  0  0
  194.2130  176.1970  139.4370 O   0  0  0  0  0  1  0  0  0  0  0  0
  185.3900  178.1860  143.3550 O   0  0  0  0  0  0  0  0  0  0  0  0
  185.1680  179.3770  142.6950 N   0  0  0  0  0  2  0  0  0  0  0  0
  185.2300  179.1010  141.2650 C   0  0  0  0  0  2  0  0  0  0  0  0
  183.8630  178.6870  140.7370 C   0  0  2  0  0  3  0  0  0  0  0  0
  183.6140  177.3630  141.0470 F   0  0  0  0  0  0  0  0  0  0  0  0
  183.7650  178.8900  139.2300 C   0  0  0  0  0  2  0  0  0  0  0  0
  182.2510  180.5630  138.6490 C   0  0  0  0  0  1  0  0  0  0  0  0
  182.2010  178.5220  137.5330 C   0  0  0  0  0  1  0  0  0  0  0  0
  182.3850  179.1310  138.8400 N   0  0  0  0  0  0  0  0  0  0  0  0
  2  9  1  0  0  0  0
  2  8  1  0  0  0  0
  3  6  1  0  0  0  0
  4  5  1  0  0  0  0
  4 11  2  0  0  0  0
  5  3  2  0  0  0  0
  7  6  2  0  0  0  0
  7  8  1  0  0  0  0
  8  1  2  0  0  0  0
 10  2  2  0  0  0  0
 11 10  1  0  0  0  0
 11  7  1  0  0  0  0
 12 15  1  0  0  0  0
 12  4  1  1  0  0  0
 13 12  1  0  0  0  0
 14 16  1  0  0  0  0
 14 13  1  0  0  0  0
 16 19  1  1  0  0  0
 16 17  1  0  0  0  0
 17 15  1  0  0  0  0
 19 18  2  0  0  0  0
 20 19  1  0  0  0  0
 21 20  1  0  0  0  0
 22 25  1  0  0  0  0
 23 26  1  1  0  0  0
 23 27  1  0  0  0  0
 23 22  1  0  0  0  0
 24 25  1  0  0  0  0
 25 21  1  0  0  0  0
 25 28  1  1  0  0  0
 27 24  1  0  0  0  0
 29  5  1  0  0  0  0
 30 29  1  0  0  0  0
 31 30  1  0  0  0  0
 32 33  1  6  0  0  0
 32 31  1  0  0  0  0
 34 32  1  0  0  0  0
 35 37  1  0  0  0  0
 36 37  1  0  0  0  0
 37 34  1  0  0  0  0
M  END
>  <MODEL>
2

>  <REMARK>
 VINA RESULT:      -7.4      2.223      7.887
  Name = 
  10 active torsions:
  status: ('A' for Active; 'I' for Inactive)
    1  A    between atoms: C_2  and  C_3
    2  A    between atoms: C_2  and  C_15
    3  A    between atoms: C_3  and  N_30
    4  A    between atoms: C_6  and  C_16
    5  A    between atoms: O_9  and  C_17
    6  A    between atoms: O_9  and  N_30
    7  A    between atoms: C_14  and  C_24
    8  A    between atoms: C_15  and  N_31
    9  A    between atoms: N_19  and  C_25
   10  A    between atoms: C_21  and  C_25
                            x       y       z     vdW  Elec       q    Type
                         _______ _______ _______ _____ _____    ______ ____

>  <TORSDO>
F 10

$$$$
=
 OpenBabel10232411563D

 37 40  0  0  1  0  0  0  0  0999 V2000
  183.0000  179.4920  144.5770 O   0  0  0  0  0  0  0  0  0  0  0  0
  185.1270  178.4020  145.1110 C   0  0  0  0  0  0  0  0  0  0  0  0
  184.9900  179.2160  140.6240 C   0  0  0  0  0  3  0  0  0  0  0  0
  186.7460  178.1670  141.9620 C   0  0  0  0  0  0  0  0  0  0  0  0
  186.2660  178.6030  140.7080 C   0  0  0  0  0  0  0  0  0  0  0  0
  184.2210  179.3920  141.7380 N   0  0  0  0  0  0  0  0  0  0  0  0
  184.7000  178.9680  142.9310 C   0  0  0  0  0  0  0  0  0  0  0  0
  184.1190  179.0200  144.2470 C   0  0  0  0  0  0  0  0  0  0  0  0
  184.9980  178.2140  146.5810 C   0  0  0  0  0  1  0  0  0  0  0  0
  186.1760  178.0220  144.4390 N   0  0  0  0  0  0  0  0  0  0  0  0
  185.9210  178.3710  143.0740 C   0  0  0  0  0  0  0  0  0  0  0  0
  188.0890  177.5080  142.0780 C   0  0  1  0  0  3  0  0  0  0  0  0
  189.1460  178.4360  141.6790 N   0  0  0  0  0  2  0  0  0  0  0  0
  190.4170  177.7110  141.6260 C   0  0  0  0  0  2  0  0  0  0  0  0
  188.3260  177.0090  143.5020 C   0  0  0  0  0  2  0  0  0  0  0  0
  190.7980  177.1620  143.0050 C   0  0  2  0  0  3  0  0  0  0  0  0
  189.6740  176.2990  143.5810 C   0  0  0  0  0  2  0  0  0  0  0  0
  191.2320  179.4470  143.5940 O   0  0  0  0  0  0  0  0  0  0  0  0
  191.2300  178.2410  143.9590 C   0  0  0  0  0  0  0  0  0  0  0  0
  191.6200  177.9200  145.2940 N   0  0  0  0  0  2  0  0  0  0  0  0
  191.6330  176.5520  145.7980 C   0  0  0  0  0  2  0  0  0  0  0  0
  189.5300  176.5780  147.0240 N   0  0  0  0  0  2  0  0  0  0  0  0
  189.1030  177.7350  147.8020 C   0  0  1  0  0  3  0  0  0  0  0  0
  191.4540  177.6070  148.0570 C   0  0  0  0  0  2  0  0  0  0  0  0
  190.9790  176.4700  147.1720 C   0  0  2  0  0  0  0  0  0  0  0  0
  187.8460  177.4010  148.5780 C   0  0  0  0  0  1  0  0  0  0  0  0
  190.2160  178.0940  148.7530 C   0  0  0  0  0  2  0  0  0  0  0  0
  191.2880  175.2470  147.7730 O   0  0  0  0  0  1  0  0  0  0  0  0
  187.0520  178.4230  139.5630 O   0  0  0  0  0  0  0  0  0  0  0  0
  186.5920  177.7250  138.4650 N   0  0  0  0  0  2  0  0  0  0  0  0
  187.4360  178.0880  137.3340 C   0  0  0  0  0  2  0  0  0  0  0  0
  188.8670  178.3390  137.7890 C   0  0  2  0  0  3  0  0  0  0  0  0
  189.5450  179.0830  136.8410 F   0  0  0  0  0  0  0  0  0  0  0  0
  189.6070  177.0310  138.0410 C   0  0  0  0  0  2  0  0  0  0  0  0
  191.8070  176.2700  137.9500 C   0  0  0  0  0  1  0  0  0  0  0  0
  190.4250  176.0290  136.0950 C   0  0  0  0  0  1  0  0  0  0  0  0
  190.7730  176.9330  137.1780 N   0  0  0  0  0  0  0  0  0  0  0  0
  2  9  1  0  0  0  0
  3  5  2  0  0  0  0
  3  6  1  0  0  0  0
  4 11  2  0  0  0  0
  5  4  1  0  0  0  0
  6  7  2  0  0  0  0
  7 11  1  0  0  0  0
  7  8  1  0  0  0  0
  8  1  2  0  0  0  0
  8  2  1  0  0  0  0
 10  2  2  0  0  0  0
 11 10  1  0  0  0  0
 12  4  1  1  0  0  0
 12 15  1  0  0  0  0
 13 12  1  0  0  0  0
 14 13  1  0  0  0  0
 14 16  1  0  0  0  0
 15 17  1  0  0  0  0
 16 17  1  0  0  0  0
 16 19  1  1  0  0  0
 18 19  2  0  0  0  0
 19 20  1  0  0  0  0
 20 21  1  0  0  0  0
 21 25  1  0  0  0  0
 22 25  1  0  0  0  0
 22 23  1  0  0  0  0
 23 26  1  1  0  0  0
 23 27  1  0  0  0  0
 24 27  1  0  0  0  0
 25 28  1  1  0  0  0
 25 24  1  0  0  0  0
 29  5  1  0  0  0  0
 30 29  1  0  0  0  0
 31 32  1  0  0  0  0
 31 30  1  0  0  0  0
 32 33  1  6  0  0  0
 32 34  1  0  0  0  0
 36 37  1  0  0  0  0
 37 35  1  0  0  0  0
 37 34  1  0  0  0  0
M  END
>  <MODEL>
3

>  <REMARK>
 VINA RESULT:      -7.3      2.356      6.101
  Name = 
  10 active torsions:
  status: ('A' for Active; 'I' for Inactive)
    1  A    between atoms: C_2  and  C_3
    2  A    between atoms: C_2  and  C_15
    3  A    between atoms: C_3  and  N_30
    4  A    between atoms: C_6  and  C_16
    5  A    between atoms: O_9  and  C_17
    6  A    between atoms: O_9  and  N_30
    7  A    between atoms: C_14  and  C_24
    8  A    between atoms: C_15  and  N_31
    9  A    between atoms: N_19  and  C_25
   10  A    between atoms: C_21  and  C_25
                            x       y       z     vdW  Elec       q    Type
                         _______ _______ _______ _____ _____    ______ ____

>  <TORSDO>
F 10

$$$$
=
 OpenBabel10232411563D

 37 40  0  0  1  0  0  0  0  0999 V2000
  189.4150  174.1270  135.4720 O   0  0  0  0  0  0  0  0  0  0  0  0
  190.6970  174.8500  137.4290 C   0  0  0  0  0  0  0  0  0  0  0  0
  186.7360  177.1150  137.3600 C   0  0  0  0  0  3  0  0  0  0  0  0
  188.5760  177.2450  138.9640 C   0  0  0  0  0  0  0  0  0  0  0  0
  187.2980  177.6700  138.5370 C   0  0  0  0  0  0  0  0  0  0  0  0
  187.4110  176.1740  136.6350 N   0  0  0  0  0  0  0  0  0  0  0  0
  188.6330  175.7800  137.0630 C   0  0  0  0  0  0  0  0  0  0  0  0
  189.5570  174.8250  136.5100 C   0  0  0  0  0  0  0  0  0  0  0  0
  191.9290  174.0290  137.2910 C   0  0  0  0  0  1  0  0  0  0  0  0
  190.5130  175.6910  138.4060 N   0  0  0  0  0  0  0  0  0  0  0  0
  189.2260  176.2790  138.1890 C   0  0  0  0  0  0  0  0  0  0  0  0
  189.1970  177.8220  140.2020 C   0  0  1  0  0  3  0  0  0  0  0  0
  188.3350  177.5870  141.3600 N   0  0  0  0  0  2  0  0  0  0  0  0
  188.8750  178.3180  142.5080 C   0  0  0  0  0  2  0  0  0  0  0  0
  190.5830  177.2280  140.4400 C   0  0  0  0  0  2  0  0  0  0  0  0
  190.2730  177.8100  142.8780 C   0  0  2  0  0  3  0  0  0  0  0  0
  191.2140  177.8670  141.6730 C   0  0  0  0  0  2  0  0  0  0  0  0
  190.3210  175.4130  142.7950 O   0  0  0  0  0  0  0  0  0  0  0  0
  190.2460  176.4460  143.5110 C   0  0  0  0  0  0  0  0  0  0  0  0
  190.1580  176.3030  144.9290 N   0  0  0  0  0  2  0  0  0  0  0  0
  190.0790  177.4470  145.8280 C   0  0  0  0  0  2  0  0  0  0  0  0
  187.6690  177.4380  146.1680 N   0  0  0  0  0  2  0  0  0  0  0  0
  186.9770  178.5390  146.8280 C   0  0  1  0  0  3  0  0  0  0  0  0
  189.0570  178.3130  147.9380 C   0  0  0  0  0  2  0  0  0  0  0  0
  188.9540  177.2700  146.8400 C   0  0  2  0  0  0  0  0  0  0  0  0
  185.5210  178.1820  147.0400 C   0  0  0  0  0  1  0  0  0  0  0  0
  187.6470  178.7800  148.1570 C   0  0  0  0  0  2  0  0  0  0  0  0
  189.0150  175.9920  147.4000 O   0  0  0  0  0  1  0  0  0  0  0  0
  186.6040  178.6340  139.2770 O   0  0  0  0  0  0  0  0  0  0  0  0
  185.2710  178.9100  139.0470 N   0  0  0  0  0  2  0  0  0  0  0  0
  184.7000  179.3780  140.3030 C   0  0  0  0  0  2  0  0  0  0  0  0
  184.3490  178.2020  141.2050 C   0  0  2  0  0  3  0  0  0  0  0  0
  183.7480  177.1990  140.4680 F   0  0  0  0  0  0  0  0  0  0  0  0
  183.4260  178.6290  142.3400 C   0  0  0  0  0  2  0  0  0  0  0  0
  185.3340  177.8080  143.3940 C   0  0  0  0  0  1  0  0  0  0  0  0
  184.5730  179.9500  143.8900 C   0  0  0  0  0  1  0  0  0  0  0  0
  184.1330  178.5930  143.6100 N   0  0  0  0  0  0  0  0  0  0  0  0
  1  8  2  0  0  0  0
  2 10  2  0  0  0  0
  3  5  1  0  0  0  0
  5  4  2  0  0  0  0
  5 29  1  0  0  0  0
  6  7  1  0  0  0  0
  6  3  2  0  0  0  0
  7 11  2  0  0  0  0
  8  7  1  0  0  0  0
  8  2  1  0  0  0  0
  9  2  1  0  0  0  0
 11 10  1  0  0  0  0
 11  4  1  0  0  0  0
 12  4  1  6  0  0  0
 12 15  1  0  0  0  0
 12 13  1  0  0  0  0
 13 14  1  0  0  0  0
 14 16  1  0  0  0  0
 15 17  1  0  0  0  0
 16 19  1  6  0  0  0
 17 16  1  0  0  0  0
 18 19  2  0  0  0  0
 19 20  1  0  0  0  0
 20 21  1  0  0  0  0
 21 25  1  0  0  0  0
 22 23  1  0  0  0  0
 22 25  1  0  0  0  0
 23 26  1  1  0  0  0
 23 27  1  0  0  0  0
 24 27  1  0  0  0  0
 25 28  1  1  0  0  0
 25 24  1  0  0  0  0
 30 29  1  0  0  0  0
 30 31  1  0  0  0  0
 31 32  1  0  0  0  0
 32 33  1  6  0  0  0
 32 34  1  0  0  0  0
 34 37  1  0  0  0  0
 35 37  1  0  0  0  0
 37 36  1  0  0  0  0
M  END
>  <MODEL>
4

>  <REMARK>
 VINA RESULT:      -7.3      1.716      2.220
  Name = 
  10 active torsions:
  status: ('A' for Active; 'I' for Inactive)
    1  A    between atoms: C_2  and  C_3
    2  A    between atoms: C_2  and  C_15
    3  A    between atoms: C_3  and  N_30
    4  A    between atoms: C_6  and  C_16
    5  A    between atoms: O_9  and  C_17
    6  A    between atoms: O_9  and  N_30
    7  A    between atoms: C_14  and  C_24
    8  A    between atoms: C_15  and  N_31
    9  A    between atoms: N_19  and  C_25
   10  A    between atoms: C_21  and  C_25
                            x       y       z     vdW  Elec       q    Type
                         _______ _______ _______ _____ _____    ______ ____

>  <TORSDO>
F 10

$$$$
=
 OpenBabel10232411563D

 37 40  0  0  1  0  0  0  0  0999 V2000
  190.0070  174.4440  135.5380 O   0  0  0  0  0  0  0  0  0  0  0  0
  191.2240  175.0520  137.5750 C   0  0  0  0  0  0  0  0  0  0  0  0
  187.2770  177.3400  137.4930 C   0  0  0  0  0  3  0  0  0  0  0  0
  189.0600  177.3730  139.1650 C   0  0  0  0  0  0  0  0  0  0  0  0
  187.8000  177.8270  138.7170 C   0  0  0  0  0  0  0  0  0  0  0  0
  187.9730  176.4370  136.7420 N   0  0  0  0  0  0  0  0  0  0  0  0
  189.1780  176.0120  137.1900 C   0  0  0  0  0  0  0  0  0  0  0  0
  190.1160  175.0830  136.6170 C   0  0  0  0  0  0  0  0  0  0  0  0
  192.4560  174.2320  137.4350 C   0  0  0  0  0  1  0  0  0  0  0  0
  191.0090  175.8390  138.5900 N   0  0  0  0  0  0  0  0  0  0  0  0
  189.7330  176.4460  138.3600 C   0  0  0  0  0  0  0  0  0  0  0  0
  189.6400  177.8780  140.4530 C   0  0  1  0  0  3  0  0  0  0  0  0
  188.7260  177.6100  141.5620 N   0  0  0  0  0  2  0  0  0  0  0  0
  189.2320  178.2740  142.7630 C   0  0  0  0  0  2  0  0  0  0  0  0
  191.0030  177.2420  140.7190 C   0  0  0  0  0  2  0  0  0  0  0  0
  190.6030  177.7190  143.1670 C   0  0  2  0  0  3  0  0  0  0  0  0
  191.5950  177.8100  142.0050 C   0  0  0  0  0  2  0  0  0  0  0  0
  190.5810  175.3280  142.9710 O   0  0  0  0  0  0  0  0  0  0  0  0
  190.5210  176.3280  143.7340 C   0  0  0  0  0  0  0  0  0  0  0  0
  190.3970  176.1210  145.1410 N   0  0  0  0  0  2  0  0  0  0  0  0
  190.3330  177.2240  146.0910 C   0  0  0  0  0  2  0  0  0  0  0  0
  187.8990  177.2410  146.1160 N   0  0  0  0  0  2  0  0  0  0  0  0
  187.1390  178.3890  146.5960 C   0  0  1  0  0  3  0  0  0  0  0  0
  189.0550  178.2480  147.9800 C   0  0  0  0  0  2  0  0  0  0  0  0
  189.0850  177.1250  146.9600 C   0  0  2  0  0  0  0  0  0  0  0  0
  185.6630  178.0490  146.6430 C   0  0  0  0  0  1  0  0  0  0  0  0
  187.6330  178.7300  147.9780 C   0  0  0  0  0  2  0  0  0  0  0  0
  189.0600  175.8930  147.6180 O   0  0  0  0  0  1  0  0  0  0  0  0
  187.0840  178.7550  139.4850 O   0  0  0  0  0  0  0  0  0  0  0  0
  185.7380  178.6010  139.7450 N   0  0  0  0  0  2  0  0  0  0  0  0
  185.5160  178.9820  141.1340 C   0  0  0  0  0  2  0  0  0  0  0  0
  184.1030  178.6210  141.5710 C   0  0  2  0  0  3  0  0  0  0  0  0
  184.1280  178.0240  142.8180 F   0  0  0  0  0  0  0  0  0  0  0  0
  183.4320  177.6900  140.5690 C   0  0  0  0  0  2  0  0  0  0  0  0
  181.5800  178.7990  141.4450 C   0  0  0  0  0  1  0  0  0  0  0  0
  182.2560  179.2290  139.2610 C   0  0  0  0  0  1  0  0  0  0  0  0
  182.0980  178.1710  140.2440 N   0  0  0  0  0  0  0  0  0  0  0  0
  1  8  2  0  0  0  0
  2 10  2  0  0  0  0
  3  5  1  0  0  0  0
  5  4  2  0  0  0  0
  5 29  1  0  0  0  0
  6  7  1  0  0  0  0
  6  3  2  0  0  0  0
  7 11  2  0  0  0  0
  8  7  1  0  0  0  0
  8  2  1  0  0  0  0
  9  2  1  0  0  0  0
 11 10  1  0  0  0  0
 11  4  1  0  0  0  0
 12  4  1  6  0  0  0
 12 15  1  0  0  0  0
 12 13  1  0  0  0  0
 13 14  1  0  0  0  0
 14 16  1  0  0  0  0
 15 17  1  0  0  0  0
 16 19  1  6  0  0  0
 17 16  1  0  0  0  0
 18 19  2  0  0  0  0
 19 20  1  0  0  0  0
 20 21  1  0  0  0  0
 21 25  1  0  0  0  0
 22 23  1  0  0  0  0
 22 25  1  0  0  0  0
 23 26  1  1  0  0  0
 23 27  1  0  0  0  0
 25 28  1  1  0  0  0
 25 24  1  0  0  0  0
 27 24  1  0  0  0  0
 29 30  1  0  0  0  0
 30 31  1  0  0  0  0
 31 32  1  0  0  0  0
 32 33  1  1  0  0  0
 34 32  1  0  0  0  0
 36 37  1  0  0  0  0
 37 34  1  0  0  0  0
 37 35  1  0  0  0  0
M  END
>  <MODEL>
5

>  <REMARK>
 VINA RESULT:      -7.2      1.375      1.629
  Name = 
  10 active torsions:
  status: ('A' for Active; 'I' for Inactive)
    1  A    between atoms: C_2  and  C_3
    2  A    between atoms: C_2  and  C_15
    3  A    between atoms: C_3  and  N_30
    4  A    between atoms: C_6  and  C_16
    5  A    between atoms: O_9  and  C_17
    6  A    between atoms: O_9  and  N_30
    7  A    between atoms: C_14  and  C_24
    8  A    between atoms: C_15  and  N_31
    9  A    between atoms: N_19  and  C_25
   10  A    between atoms: C_21  and  C_25
                            x       y       z     vdW  Elec       q    Type
                         _______ _______ _______ _____ _____    ______ ____

>  <TORSDO>
F 10

$$$$
=
 OpenBabel10232411563D

 37 40  0  0  1  0  0  0  0  0999 V2000
  183.3720  178.8140  142.2690 O   0  0  0  0  0  0  0  0  0  0  0  0
  184.7330  178.9770  140.2390 C   0  0  0  0  0  0  0  0  0  0  0  0
  187.4200  177.7080  143.7020 C   0  0  0  0  0  3  0  0  0  0  0  0
  187.9850  178.0950  141.3550 C   0  0  0  0  0  0  0  0  0  0  0  0
  188.3830  177.7370  142.6620 C   0  0  0  0  0  0  0  0  0  0  0  0
  186.1130  178.0180  143.4580 N   0  0  0  0  0  0  0  0  0  0  0  0
  185.7510  178.3570  142.1980 C   0  0  0  0  0  0  0  0  0  0  0  0
  184.4700  178.7270  141.6590 C   0  0  0  0  0  0  0  0  0  0  0  0
  183.7160  179.3940  139.2390 C   0  0  0  0  0  1  0  0  0  0  0  0
  185.9860  178.7910  139.9390 N   0  0  0  0  0  0  0  0  0  0  0  0
  186.6340  178.4030  141.1560 C   0  0  0  0  0  0  0  0  0  0  0  0
  188.9850  178.1410  140.2380 C   0  0  1  0  0  3  0  0  0  0  0  0
  189.7450  176.8930  140.1840 N   0  0  0  0  0  2  0  0  0  0  0  0
  190.8290  177.0410  139.2120 C   0  0  0  0  0  2  0  0  0  0  0  0
  188.2920  178.4020  138.9020 C   0  0  0  0  0  2  0  0  0  0  0  0
  190.2780  177.2920  137.8040 C   0  0  2  0  0  3  0  0  0  0  0  0
  189.3340  178.4960  137.7910 C   0  0  0  0  0  2  0  0  0  0  0  0
  188.4420  175.7870  137.4570 O   0  0  0  0  0  0  0  0  0  0  0  0
  189.6440  176.0680  137.2030 C   0  0  0  0  0  0  0  0  0  0  0  0
  190.3820  175.2230  136.3210 N   0  0  0  0  0  2  0  0  0  0  0  0
  191.7710  175.4850  135.9670 C   0  0  0  0  0  2  0  0  0  0  0  0
  193.2800  174.7170  137.7160 N   0  0  0  0  0  2  0  0  0  0  0  0
  194.7270  174.6940  137.5340 C   0  0  1  0  0  3  0  0  0  0  0  0
  193.7930  174.1140  135.4360 C   0  0  0  0  0  2  0  0  0  0  0  0
  192.6780  174.3540  136.4360 C   0  0  2  0  0  0  0  0  0  0  0  0
  195.3870  174.0220  138.7200 C   0  0  0  0  0  1  0  0  0  0  0  0
  195.0250  173.9240  136.2730 C   0  0  0  0  0  2  0  0  0  0  0  0
  191.9330  173.1830  136.5980 O   0  0  0  0  0  1  0  0  0  0  0  0
  189.7230  177.4180  142.9160 O   0  0  0  0  0  0  0  0  0  0  0  0
  190.1080  176.7330  144.0500 N   0  0  0  0  0  2  0  0  0  0  0  0
  190.7630  177.6870  144.9350 C   0  0  0  0  0  2  0  0  0  0  0  0
  191.1750  177.0170  146.2390 C   0  0  2  0  0  3  0  0  0  0  0  0
  191.8580  175.8440  145.9750 F   0  0  0  0  0  0  0  0  0  0  0  0
  189.9670  176.7220  147.1190 C   0  0  0  0  0  2  0  0  0  0  0  0
  187.7560  177.4530  147.1760 C   0  0  0  0  0  1  0  0  0  0  0  0
  189.3280  178.4200  148.5920 C   0  0  0  0  0  1  0  0  0  0  0  0
  189.1320  177.9060  147.2470 N   0  0  0  0  0  0  0  0  0  0  0  0
  2  8  1  0  0  0  0
  4  5  1  0  0  0  0
  5 29  1  0  0  0  0
  5  3  2  0  0  0  0
  6  3  1  0  0  0  0
  7  6  2  0  0  0  0
  8  7  1  0  0  0  0
  8  1  2  0  0  0  0
  9  2  1  0  0  0  0
 10  2  2  0  0  0  0
 10 11  1  0  0  0  0
 11  4  2  0  0  0  0
 11  7  1  0  0  0  0
 12  4  1  1  0  0  0
 13 12  1  0  0  0  0
 14 13  1  0  0  0  0
 15 12  1  0  0  0  0
 16 19  1  1  0  0  0
 16 14  1  0  0  0  0
 17 16  1  0  0  0  0
 17 15  1  0  0  0  0
 19 18  2  0  0  0  0
 20 19  1  0  0  0  0
 21 20  1  0  0  0  0
 21 25  1  0  0  0  0
 23 22  1  0  0  0  0
 23 26  1  1  0  0  0
 24 27  1  0  0  0  0
 24 25  1  0  0  0  0
 25 28  1  1  0  0  0
 25 22  1  0  0  0  0
 27 23  1  0  0  0  0
 29 30  1  0  0  0  0
 30 31  1  0  0  0  0
 31 32  1  0  0  0  0
 32 33  1  6  0  0  0
 32 34  1  0  0  0  0
 34 37  1  0  0  0  0
 35 37  1  0  0  0  0
 37 36  1  0  0  0  0
M  END
>  <MODEL>
6

>  <REMARK>
 VINA RESULT:      -7.1      2.445      8.635
  Name = 
  10 active torsions:
  status: ('A' for Active; 'I' for Inactive)
    1  A    between atoms: C_2  and  C_3
    2  A    between atoms: C_2  and  C_15
    3  A    between atoms: C_3  and  N_30
    4  A    between atoms: C_6  and  C_16
    5  A    between atoms: O_9  and  C_17
    6  A    between atoms: O_9  and  N_30
    7  A    between atoms: C_14  and  C_24
    8  A    between atoms: C_15  and  N_31
    9  A    between atoms: N_19  and  C_25
   10  A    between atoms: C_21  and  C_25
                            x       y       z     vdW  Elec       q    Type
                         _______ _______ _______ _____ _____    ______ ____

>  <TORSDO>
F 10

$$$$
=
 OpenBabel10232411563D

 37 40  0  0  1  0  0  0  0  0999 V2000
  188.5480  177.1320  146.9570 O   0  0  0  0  0  0  0  0  0  0  0  0
  190.1890  177.1900  145.1400 C   0  0  0  0  0  0  0  0  0  0  0  0
  186.0640  178.0910  143.4110 C   0  0  0  0  0  3  0  0  0  0  0  0
  188.2290  177.9570  142.2840 C   0  0  0  0  0  0  0  0  0  0  0  0
  186.8350  178.1750  142.2240 C   0  0  0  0  0  0  0  0  0  0  0  0
  186.6510  177.8040  144.6100 N   0  0  0  0  0  0  0  0  0  0  0  0
  187.9890  177.6010  144.6460 C   0  0  0  0  0  0  0  0  0  0  0  0
  188.8600  177.2860  145.7480 C   0  0  0  0  0  0  0  0  0  0  0  0
  191.4460  176.8780  145.8730 C   0  0  0  0  0  1  0  0  0  0  0  0
  190.1540  177.4100  143.8580 N   0  0  0  0  0  0  0  0  0  0  0  0
  188.7830  177.6680  143.5360 C   0  0  0  0  0  0  0  0  0  0  0  0
  189.0670  178.0320  141.0410 C   0  0  1  0  0  3  0  0  0  0  0  0
  189.5270  176.6970  140.6580 N   0  0  0  0  0  2  0  0  0  0  0  0
  190.4850  176.8260  139.5590 C   0  0  0  0  0  2  0  0  0  0  0  0
  188.2830  178.6750  139.8980 C   0  0  0  0  0  2  0  0  0  0  0  0
  189.8280  177.4470  138.3210 C   0  0  2  0  0  3  0  0  0  0  0  0
  189.1720  178.7860  138.6630 C   0  0  0  0  0  2  0  0  0  0  0  0
  187.6480  176.5260  137.9280 O   0  0  0  0  0  0  0  0  0  0  0  0
  188.8740  176.5070  137.6380 C   0  0  0  0  0  0  0  0  0  0  0  0
  189.3360  175.5980  136.6390 N   0  0  0  0  0  2  0  0  0  0  0  0
  190.7350  175.5220  136.2380 C   0  0  0  0  0  2  0  0  0  0  0  0
  192.5920  174.7190  137.5920 N   0  0  0  0  0  2  0  0  0  0  0  0
  193.7410  174.0400  137.0040 C   0  0  1  0  0  3  0  0  0  0  0  0
  191.8550  173.3400  135.7530 C   0  0  0  0  0  2  0  0  0  0  0  0
  191.4110  174.2980  136.8440 C   0  0  2  0  0  0  0  0  0  0  0  0
  194.6480  173.5160  138.0980 C   0  0  0  0  0  1  0  0  0  0  0  0
  193.2270  172.8940  136.1690 C   0  0  0  0  0  2  0  0  0  0  0  0
  190.5290  173.6460  137.7090 O   0  0  0  0  0  1  0  0  0  0  0  0
  186.2300  178.4680  140.9950 O   0  0  0  0  0  0  0  0  0  0  0  0
  185.3600  179.5280  140.8460 N   0  0  0  0  0  2  0  0  0  0  0  0
  184.2260  179.0540  140.0630 C   0  0  0  0  0  2  0  0  0  0  0  0
  184.6990  178.1960  138.8970 C   0  0  2  0  0  3  0  0  0  0  0  0
  185.5430  178.9250  138.0800 F   0  0  0  0  0  0  0  0  0  0  0  0
  183.5240  177.6680  138.0830 C   0  0  0  0  0  2  0  0  0  0  0  0
  182.5420  175.9240  139.2730 C   0  0  0  0  0  1  0  0  0  0  0  0
  182.8030  175.7450  136.9690 C   0  0  0  0  0  1  0  0  0  0  0  0
  183.4490  176.2190  138.1810 N   0  0  0  0  0  0  0  0  0  0  0  0
  2  8  1  0  0  0  0
  2  9  1  0  0  0  0
  3  6  1  0  0  0  0
  4 11  2  0  0  0  0
  5  4  1  0  0  0  0
  5  3  2  0  0  0  0
  6  7  2  0  0  0  0
  7  8  1  0  0  0  0
  8  1  2  0  0  0  0
 10  2  2  0  0  0  0
 11 10  1  0  0  0  0
 11  7  1  0  0  0  0
 12  4  1  1  0  0  0
 13 12  1  0  0  0  0
 14 13  1  0  0  0  0
 15 12  1  0  0  0  0
 16 19  1  1  0  0  0
 16 17  1  0  0  0  0
 16 14  1  0  0  0  0
 17 15  1  0  0  0  0
 19 18  2  0  0  0  0
 20 19  1  0  0  0  0
 21 20  1  0  0  0  0
 21 25  1  0  0  0  0
 23 22  1  0  0  0  0
 23 26  1  1  0  0  0
 24 27  1  0  0  0  0
 24 25  1  0  0  0  0
 25 22  1  0  0  0  0
 25 28  1  1  0  0  0
 27 23  1  0  0  0  0
 29  5  1  0  0  0  0
 30 29  1  0  0  0  0
 31 30  1  0  0  0  0
 32 33  1  6  0  0  0
 32 31  1  0  0  0  0
 34 37  1  0  0  0  0
 34 32  1  0  0  0  0
 36 37  1  0  0  0  0
 37 35  1  0  0  0  0
M  END
>  <MODEL>
7

>  <REMARK>
 VINA RESULT:      -7.0      2.203      7.808
  Name = 
  10 active torsions:
  status: ('A' for Active; 'I' for Inactive)
    1  A    between atoms: C_2  and  C_3
    2  A    between atoms: C_2  and  C_15
    3  A    between atoms: C_3  and  N_30
    4  A    between atoms: C_6  and  C_16
    5  A    between atoms: O_9  and  C_17
    6  A    between atoms: O_9  and  N_30
    7  A    between atoms: C_14  and  C_24
    8  A    between atoms: C_15  and  N_31
    9  A    between atoms: N_19  and  C_25
   10  A    between atoms: C_21  and  C_25
                            x       y       z     vdW  Elec       q    Type
                         _______ _______ _______ _____ _____    ______ ____

>  <TORSDO>
F 10

$$$$
=
 OpenBabel10232411563D

 37 40  0  0  1  0  0  0  0  0999 V2000
  188.7280  176.8920  144.6890 O   0  0  0  0  0  0  0  0  0  0  0  0
  190.5780  176.4580  143.1440 C   0  0  0  0  0  0  0  0  0  0  0  0
  187.1890  178.4640  140.8390 C   0  0  0  0  0  3  0  0  0  0  0  0
  189.3750  177.7090  140.0480 C   0  0  0  0  0  0  0  0  0  0  0  0
  188.1250  178.3110  139.7850 C   0  0  0  0  0  0  0  0  0  0  0  0
  187.4800  178.0400  142.1040 N   0  0  0  0  0  0  0  0  0  0  0  0
  188.6850  177.4680  142.3350 C   0  0  0  0  0  0  0  0  0  0  0  0
  189.2520  176.9350  143.5460 C   0  0  0  0  0  0  0  0  0  0  0  0
  191.5680  175.8150  144.0480 C   0  0  0  0  0  1  0  0  0  0  0  0
  190.8030  176.6620  141.8780 N   0  0  0  0  0  0  0  0  0  0  0  0
  189.6260  177.2920  141.3600 C   0  0  0  0  0  0  0  0  0  0  0  0
  190.3810  177.5260  138.9490 C   0  0  1  0  0  3  0  0  0  0  0  0
  191.6040  176.9220  139.4750 N   0  0  0  0  0  2  0  0  0  0  0  0
  192.6240  176.9280  138.4250 C   0  0  0  0  0  2  0  0  0  0  0  0
  189.8030  176.6690  137.8240 C   0  0  0  0  0  2  0  0  0  0  0  0
  192.1860  176.0830  137.2240 C   0  0  2  0  0  3  0  0  0  0  0  0
  190.8240  176.5410  136.6980 C   0  0  0  0  0  2  0  0  0  0  0  0
  191.1440  173.9880  137.7550 O   0  0  0  0  0  0  0  0  0  0  0  0
  192.2140  174.6070  137.5130 C   0  0  0  0  0  0  0  0  0  0  0  0
  193.4450  173.8850  137.4940 N   0  0  0  0  0  2  0  0  0  0  0  0
  194.7230  174.5240  137.2110 C   0  0  0  0  0  2  0  0  0  0  0  0
  196.5630  174.9630  138.7440 N   0  0  0  0  0  2  0  0  0  0  0  0
  197.9560  174.8860  138.3220 C   0  0  1  0  0  3  0  0  0  0  0  0
  196.8210  173.1660  137.1530 C   0  0  0  0  0  2  0  0  0  0  0  0
  195.8390  173.9050  138.0440 C   0  0  2  0  0  0  0  0  0  0  0  0
  198.8690  175.0480  139.5190 C   0  0  0  0  0  1  0  0  0  0  0  0
  198.1760  173.5370  137.6850 C   0  0  0  0  0  2  0  0  0  0  0  0
  195.3000  173.0210  138.9820 O   0  0  0  0  0  1  0  0  0  0  0  0
  187.8230  178.7460  138.4880 O   0  0  0  0  0  0  0  0  0  0  0  0
  186.5360  178.7230  137.9930 N   0  0  0  0  0  2  0  0  0  0  0  0
  186.2900  177.3810  137.4810 C   0  0  0  0  0  2  0  0  0  0  0  0
  184.7980  177.1470  137.2810 C   0  0  2  0  0  3  0  0  0  0  0  0
  184.4720  177.2740  135.9430 F   0  0  0  0  0  0  0  0  0  0  0  0
  183.9670  178.1200  138.1070 C   0  0  0  0  0  2  0  0  0  0  0  0
  183.5980  178.5130  140.3740 C   0  0  0  0  0  1  0  0  0  0  0  0
  182.1290  177.1580  139.1840 C   0  0  0  0  0  1  0  0  0  0  0  0
  183.5350  177.4920  139.3460 N   0  0  0  0  0  0  0  0  0  0  0  0
  2  8  1  0  0  0  0
  2  9  1  0  0  0  0
  3  6  1  0  0  0  0
  4 11  2  0  0  0  0
  5  4  1  0  0  0  0
  5  3  2  0  0  0  0
  6  7  2  0  0  0  0
  7  8  1  0  0  0  0
  8  1  2  0  0  0  0
 10  2  2  0  0  0  0
 11 10  1  0  0  0  0
 11  7  1  0  0  0  0
 12 13  1  0  0  0  0
 12  4  1  1  0  0  0
 14 13  1  0  0  0  0
 15 12  1  0  0  0  0
 16 19  1  1  0  0  0
 16 14  1  0  0  0  0
 17 16  1  0  0  0  0
 17 15  1  0  0  0  0
 19 18  2  0  0  0  0
 20 19  1  0  0  0  0
 21 20  1  0  0  0  0
 21 25  1  0  0  0  0
 23 22  1  0  0  0  0
 23 26  1  1  0  0  0
 24 27  1  0  0  0  0
 24 25  1  0  0  0  0
 25 22  1  0  0  0  0
 25 28  1  1  0  0  0
 27 23  1  0  0  0  0
 29  5  1  0  0  0  0
 30 29  1  0  0  0  0
 31 30  1  0  0  0  0
 32 33  1  6  0  0  0
 32 31  1  0  0  0  0
 32 34  1  0  0  0  0
 34 37  1  0  0  0  0
 36 37  1  0  0  0  0
 37 35  1  0  0  0  0
M  END
>  <MODEL>
8

>  <REMARK>
 VINA RESULT:      -6.8      3.159      7.977
  Name = 
  10 active torsions:
  status: ('A' for Active; 'I' for Inactive)
    1  A    between atoms: C_2  and  C_3
    2  A    between atoms: C_2  and  C_15
    3  A    between atoms: C_3  and  N_30
    4  A    between atoms: C_6  and  C_16
    5  A    between atoms: O_9  and  C_17
    6  A    between atoms: O_9  and  N_30
    7  A    between atoms: C_14  and  C_24
    8  A    between atoms: C_15  and  N_31
    9  A    between atoms: N_19  and  C_25
   10  A    between atoms: C_21  and  C_25
                            x       y       z     vdW  Elec       q    Type
                         _______ _______ _______ _____ _____    ______ ____

>  <TORSDO>
F 10

$$$$
=
 OpenBabel10232411563D

 37 40  0  0  1  0  0  0  0  0999 V2000
  188.5340  176.9190  144.9780 O   0  0  0  0  0  0  0  0  0  0  0  0
  189.5540  176.7860  142.7550 C   0  0  0  0  0  0  0  0  0  0  0  0
  185.5340  178.9140  142.3930 C   0  0  0  0  0  3  0  0  0  0  0  0
  187.1730  178.3780  140.6600 C   0  0  0  0  0  0  0  0  0  0  0  0
  185.9360  178.9480  141.0340 C   0  0  0  0  0  0  0  0  0  0  0  0
  186.3260  178.3390  143.3460 N   0  0  0  0  0  0  0  0  0  0  0  0
  187.5090  177.8000  142.9670 C   0  0  0  0  0  0  0  0  0  0  0  0
  188.5280  177.1390  143.7390 C   0  0  0  0  0  0  0  0  0  0  0  0
  190.8250  176.0760  143.0600 C   0  0  0  0  0  1  0  0  0  0  0  0
  189.2260  177.1670  141.5550 N   0  0  0  0  0  0  0  0  0  0  0  0
  187.9490  177.8030  141.6730 C   0  0  0  0  0  0  0  0  0  0  0  0
  187.6190  178.3940  139.2280 C   0  0  1  0  0  3  0  0  0  0  0  0
  188.9850  178.9050  139.1260 N   0  0  0  0  0  2  0  0  0  0  0  0
  189.3200  179.0810  137.7120 C   0  0  0  0  0  2  0  0  0  0  0  0
  187.5250  176.9970  138.6170 C   0  0  0  0  0  2  0  0  0  0  0  0
  189.2850  177.7420  136.9660 C   0  0  2  0  0  3  0  0  0  0  0  0
  187.9340  177.0480  137.1480 C   0  0  0  0  0  2  0  0  0  0  0  0
  191.1030  177.0620  138.3750 O   0  0  0  0  0  0  0  0  0  0  0  0
  190.4370  176.8460  137.3290 C   0  0  0  0  0  0  0  0  0  0  0  0
  190.7750  175.7270  136.5090 N   0  0  0  0  0  2  0  0  0  0  0  0
  190.0470  175.4010  135.2900 C   0  0  0  0  0  2  0  0  0  0  0  0
  188.0650  174.0530  134.8660 N   0  0  0  0  0  2  0  0  0  0  0  0
  187.1880  173.6080  135.9420 C   0  0  1  0  0  3  0  0  0  0  0  0
  189.3880  173.5350  136.8170 C   0  0  0  0  0  2  0  0  0  0  0  0
  189.4320  174.0100  135.3760 C   0  0  2  0  0  0  0  0  0  0  0  0
  186.1400  172.6600  135.3970 C   0  0  0  0  0  1  0  0  0  0  0  0
  188.0350  172.9030  136.9710 C   0  0  0  0  0  2  0  0  0  0  0  0
  190.1780  173.1110  134.6100 O   0  0  0  0  0  1  0  0  0  0  0  0
  185.1210  179.5370  140.0600 O   0  0  0  0  0  0  0  0  0  0  0  0
  183.7690  179.2740  139.9840 N   0  0  0  0  0  2  0  0  0  0  0  0
  183.5920  178.1650  139.0540 C   0  0  0  0  0  2  0  0  0  0  0  0
  182.3570  177.3510  139.4170 C   0  0  2  0  0  3  0  0  0  0  0  0
  181.9710  177.6240  140.7160 F   0  0  0  0  0  0  0  0  0  0  0  0
  182.6110  175.8570  139.2590 C   0  0  0  0  0  2  0  0  0  0  0  0
  183.8220  174.6080  137.7100 C   0  0  0  0  0  1  0  0  0  0  0  0
  181.5050  174.7160  137.5460 C   0  0  0  0  0  1  0  0  0  0  0  0
  182.6880  175.5020  137.8510 N   0  0  0  0  0  0  0  0  0  0  0  0
  2  9  1  0  0  0  0
  2  8  1  0  0  0  0
  3  6  1  0  0  0  0
  4  5  1  0  0  0  0
  4 11  2  0  0  0  0
  5  3  2  0  0  0  0
  7  6  2  0  0  0  0
  7  8  1  0  0  0  0
  8  1  2  0  0  0  0
 10 11  1  0  0  0  0
 10  2  2  0  0  0  0
 11  7  1  0  0  0  0
 12  4  1  1  0  0  0
 13 12  1  0  0  0  0
 14 13  1  0  0  0  0
 15 12  1  0  0  0  0
 16 17  1  0  0  0  0
 16 19  1  1  0  0  0
 16 14  1  0  0  0  0
 17 15  1  0  0  0  0
 19 18  2  0  0  0  0
 20 19  1  0  0  0  0
 21 25  1  0  0  0  0
 21 20  1  0  0  0  0
 22 25  1  0  0  0  0
 22 23  1  0  0  0  0
 23 26  1  6  0  0  0
 23 27  1  0  0  0  0
 24 27  1  0  0  0  0
 25 28  1  6  0  0  0
 25 24  1  0  0  0  0
 29  5  1  0  0  0  0
 30 29  1  0  0  0  0
 31 32  1  0  0  0  0
 31 30  1  0  0  0  0
 32 33  1  1  0  0  0
 34 32  1  0  0  0  0
 35 37  1  0  0  0  0
 36 37  1  0  0  0  0
 37 34  1  0  0  0  0
M  END
>  <MODEL>
9

>  <REMARK>
 VINA RESULT:      -6.8      2.635      7.594
  Name = 
  10 active torsions:
  status: ('A' for Active; 'I' for Inactive)
    1  A    between atoms: C_2  and  C_3
    2  A    between atoms: C_2  and  C_15
    3  A    between atoms: C_3  and  N_30
    4  A    between atoms: C_6  and  C_16
    5  A    between atoms: O_9  and  C_17
    6  A    between atoms: O_9  and  N_30
    7  A    between atoms: C_14  and  C_24
    8  A    between atoms: C_15  and  N_31
    9  A    between atoms: N_19  and  C_25
   10  A    between atoms: C_21  and  C_25
                            x       y       z     vdW  Elec       q    Type
                         _______ _______ _______ _____ _____    ______ ____

>  <TORSDO>
F 10

$$$$
