=
 OpenBabel10232409483D

 45 48  0  0  1  0  0  0  0  0999 V2000
  191.2100  175.7180  138.2560 C   0  0  1  0  0  3  0  0  0  0  0  0
  189.9080  177.8840  137.7860 N   0  0  0  0  0  2  0  0  0  0  0  0
  192.6000  175.7510  137.6250 C   0  0  0  0  0  2  0  0  0  0  0  0
  186.6440  175.3750  136.3480 C   0  0  0  0  0  0  0  0  0  0  0  0
  192.0920  173.5540  136.5060 C   0  0  0  0  0  0  0  0  0  0  0  0
  190.7540  177.1050  138.6530 C   0  0  0  0  0  0  0  0  0  0  0  0
  188.6450  178.4460  138.1830 C   0  0  0  0  0  0  0  0  0  0  0  0
  193.0870  174.3260  137.3440 C   0  0  1  0  0  3  0  0  0  0  0  0
  188.4020  173.7170  135.6400 C   0  0  0  0  0  3  0  0  0  0  0  0
  185.7500  174.8150  135.6560 O   0  0  0  0  0  0  0  0  0  0  0  0
  186.4040  176.7400  136.9570 C   0  0  1  0  0  3  0  0  0  0  0  0
  189.7390  173.2970  135.6740 C   0  0  0  0  0  3  0  0  0  0  0  0
  188.2360  178.3890  139.4250 C   0  0  0  0  0  0  0  0  0  0  0  0
  191.0900  177.5600  139.7810 O   0  0  0  0  0  0  0  0  0  0  0  0
  192.4720  172.5560  135.8320 O   0  0  0  0  0  0  0  0  0  0  0  0
  187.9720  174.7490  136.4850 C   0  0  0  0  0  0  0  0  0  0  0  0
  190.6630  173.9290  136.5280 C   0  0  0  0  0  0  0  0  0  0  0  0
  188.8840  175.3250  137.3620 C   0  0  0  0  0  3  0  0  0  0  0  0
  190.2310  174.9720  137.3670 C   0  0  0  0  0  0  0  0  0  0  0  0
  187.6740  178.9300  137.1460 C   0  0  0  0  0  2  0  0  0  0  0  0
  187.2120  177.8060  136.2140 C   0  0  0  0  0  2  0  0  0  0  0  0
  187.8040  178.3180  140.6550 C   0  0  0  0  0  3  0  0  0  0  0  0
  186.3430  178.3960  140.9280 C   0  0  0  0  0  3  0  0  0  0  0  0
  186.0880  179.4620  141.9720 C   0  0  0  0  0  2  0  0  0  0  0  0
  186.0880  178.0000  142.3690 C   0  0  0  0  0  2  0  0  0  0  0  0
  194.4510  174.3440  136.7120 C   0  0  0  0  0  0  0  0  0  0  0  0
  194.6450  175.0330  135.6730 O   0  0  0  0  0  0  0  0  0  0  0  0
  195.5120  173.5290  137.2420 N   0  0  0  0  0  0  0  0  0  0  0  0
  195.2790  171.1880  137.9260 C   0  0  0  0  0  1  0  0  0  0  0  0
  195.2660  172.6420  138.3740 C   0  0  0  0  0  2  0  0  0  0  0  0
  196.7820  173.4120  136.5350 C   0  0  0  0  0  2  0  0  0  0  0  0
  197.8150  174.3410  137.1470 C   0  0  0  0  0  1  0  0  0  0  0  0
  184.9310  177.1120  137.0280 C   0  0  0  0  0  2  0  0  0  0  0  0
  184.4540  176.9220  138.3870 N   0  0  0  0  0  2  0  0  0  0  0  0
  183.0640  177.3610  138.4240 C   0  0  1  0  0  3  0  0  0  0  0  0
  181.2320  176.0080  137.5540 N   0  0  0  0  0  1  0  0  0  0  0  0
  182.1590  176.1620  138.6600 C   0  0  0  0  0  2  0  0  0  0  0  0
  182.8560  178.4480  139.4920 C   0  0  1  0  0  3  0  0  0  0  0  0
  183.1280  179.8280  138.9750 C   0  0  0  0  0  0  0  0  0  0  0  0
  184.2980  180.2910  139.0130 O   0  0  0  0  0  0  0  0  0  0  0  0
  182.0820  180.6010  138.3890 N   0  0  0  0  0  1  0  0  0  0  0  0
  181.5390  178.3740  140.0320 O   0  0  0  0  0  0  0  0  0  0  0  0
  182.4010  178.7770  142.3360 C   0  0  0  0  0  1  0  0  0  0  0  0
  180.1250  178.2890  141.8590 O   0  0  0  0  0  0  0  0  0  0  0  0
  181.2860  178.4680  141.4030 C   0  0  0  0  0  0  0  0  0  0  0  0
  1  3  1  6  0  0  0
  1  6  1  0  0  0  0
  2  7  1  0  0  0  0
  2  6  1  0  0  0  0
  4 16  1  0  0  0  0
  4 11  1  0  0  0  0
  5 17  1  0  0  0  0
  5  8  1  0  0  0  0
  6 14  2  0  0  0  0
  7 13  2  0  0  0  0
  8 26  1  6  0  0  0
  8  3  1  0  0  0  0
  9 12  2  0  0  0  0
  9 16  1  0  0  0  0
 10  4  2  0  0  0  0
 11 33  1  6  0  0  0
 12 17  1  0  0  0  0
 13 22  2  0  0  0  0
 15  5  2  0  0  0  0
 16 18  2  0  0  0  0
 17 19  2  0  0  0  0
 18 19  1  0  0  0  0
 19  1  1  0  0  0  0
 20  7  1  0  0  0  0
 21 11  1  0  0  0  0
 21 20  1  0  0  0  0
 22 23  1  0  0  0  0
 23 24  1  0  0  0  0
 23 25  1  0  0  0  0
 24 25  1  0  0  0  0
 26 28  1  0  0  0  0
 27 26  2  0  0  0  0
 28 30  1  0  0  0  0
 29 30  1  0  0  0  0
 31 32  1  0  0  0  0
 31 28  1  0  0  0  0
 33 34  1  0  0  0  0
 34 35  1  0  0  0  0
 35 37  1  1  0  0  0
 35 38  1  0  0  0  0
 36 37  1  0  0  0  0
 38 39  1  6  0  0  0
 38 42  1  0  0  0  0
 39 40  2  0  0  0  0
 41 39  1  0  0  0  0
 42 45  1  0  0  0  0
 45 44  2  0  0  0  0
 45 43  1  0  0  0  0
M  END
>  <MODEL>
1

>  <REMARK>
 VINA RESULT:      -6.1      0.000      0.000
  Name = 
  12 active torsions:
  status: ('A' for Active; 'I' for Inactive)
    1  A    between atoms: C_2  and  N_45
    2  A    between atoms: C_4  and  N_26
    3  A    between atoms: C_4  and  C_29
    4  A    between atoms: C_6  and  C_14
    5  A    between atoms: C_6  and  C_19
    6  A    between atoms: C_6  and  O_42
    7  A    between atoms: C_10  and  C_44
    8  A    between atoms: C_12  and  C_18
    9  A    between atoms: C_14  and  N_26
   10  A    between atoms: C_14  and  C_27
   11  A    between atoms: C_35  and  N_45
   12  A    between atoms: O_42  and  C_43
                            x       y       z     vdW  Elec       q    Type
                         _______ _______ _______ _____ _____    ______ ____

>  <TORSDO>
F 12

$$$$
=
 OpenBabel10232409483D

 45 48  0  0  1  0  0  0  0  0999 V2000
  191.3310  175.8010  138.3780 C   0  0  1  0  0  3  0  0  0  0  0  0
  190.0610  177.9880  137.9210 N   0  0  0  0  0  2  0  0  0  0  0  0
  192.7700  175.8710  137.8710 C   0  0  0  0  0  2  0  0  0  0  0  0
  186.9460  175.5610  136.0710 C   0  0  0  0  0  0  0  0  0  0  0  0
  192.3710  173.7400  136.5910 C   0  0  0  0  0  0  0  0  0  0  0  0
  190.8350  177.1630  138.8120 C   0  0  0  0  0  0  0  0  0  0  0  0
  188.7660  178.5260  138.2390 C   0  0  0  0  0  0  0  0  0  0  0  0
  193.2870  174.4650  137.5530 C   0  0  1  0  0  3  0  0  0  0  0  0
  188.7680  173.9470  135.4250 C   0  0  0  0  0  3  0  0  0  0  0  0
  186.1170  175.0400  135.2760 O   0  0  0  0  0  0  0  0  0  0  0  0
  186.6470  176.8890  136.7340 C   0  0  1  0  0  3  0  0  0  0  0  0
  190.0990  173.5270  135.5490 C   0  0  0  0  0  3  0  0  0  0  0  0
  188.2530  178.3990  139.4370 C   0  0  0  0  0  0  0  0  0  0  0  0
  191.0710  177.5540  139.9880 O   0  0  0  0  0  0  0  0  0  0  0  0
  192.8130  172.7820  135.8970 O   0  0  0  0  0  0  0  0  0  0  0  0
  188.2610  174.9300  136.2860 C   0  0  0  0  0  0  0  0  0  0  0  0
  190.9440  174.1110  136.5130 C   0  0  0  0  0  0  0  0  0  0  0  0
  189.0920  175.4570  137.2690 C   0  0  0  0  0  3  0  0  0  0  0  0
  190.4350  175.1050  137.3690 C   0  0  0  0  0  0  0  0  0  0  0  0
  187.8840  179.0670  137.1520 C   0  0  0  0  0  2  0  0  0  0  0  0
  187.5090  177.9970  136.1230 C   0  0  0  0  0  2  0  0  0  0  0  0
  187.7180  178.2580  140.6200 C   0  0  0  0  0  3  0  0  0  0  0  0
  186.2390  178.3190  140.7710 C   0  0  0  0  0  3  0  0  0  0  0  0
  185.8810  179.4520  141.7100 C   0  0  0  0  0  2  0  0  0  0  0  0
  185.8770  178.0240  142.2130 C   0  0  0  0  0  2  0  0  0  0  0  0
  194.7000  174.5190  137.0420 C   0  0  0  0  0  0  0  0  0  0  0  0
  194.9970  175.3330  136.1240 O   0  0  0  0  0  0  0  0  0  0  0  0
  195.6930  173.6050  137.5400 N   0  0  0  0  0  0  0  0  0  0  0  0
  195.3590  171.2020  137.8840 C   0  0  0  0  0  1  0  0  0  0  0  0
  195.3310  172.5850  138.5190 C   0  0  0  0  0  2  0  0  0  0  0  0
  197.0150  173.5400  136.9290 C   0  0  0  0  0  2  0  0  0  0  0  0
  198.0120  174.3480  137.7400 C   0  0  0  0  0  1  0  0  0  0  0  0
  185.1720  177.2550  136.6990 C   0  0  0  0  0  2  0  0  0  0  0  0
  184.5050  176.6680  137.8490 N   0  0  0  0  0  2  0  0  0  0  0  0
  183.1490  176.3260  137.4370 C   0  0  1  0  0  3  0  0  0  0  0  0
  181.7910  177.3110  135.6680 N   0  0  0  0  0  1  0  0  0  0  0  0
  183.0000  176.5550  135.9410 C   0  0  0  0  0  2  0  0  0  0  0  0
  182.8000  174.8800  137.8270 C   0  0  1  0  0  3  0  0  0  0  0  0
  181.3270  174.6670  138.0010 C   0  0  0  0  0  0  0  0  0  0  0  0
  180.7560  175.0630  139.0510 O   0  0  0  0  0  0  0  0  0  0  0  0
  180.5550  174.0660  136.9630 N   0  0  0  0  0  1  0  0  0  0  0  0
  183.3220  173.9630  136.8690 O   0  0  0  0  0  0  0  0  0  0  0  0
  185.3660  172.9030  137.8220 C   0  0  0  0  0  1  0  0  0  0  0  0
  183.4790  171.6660  137.0780 O   0  0  0  0  0  0  0  0  0  0  0  0
  184.0030  172.8010  137.2390 C   0  0  0  0  0  0  0  0  0  0  0  0
  1  3  1  6  0  0  0
  1  6  1  0  0  0  0
  2  7  1  0  0  0  0
  2  6  1  0  0  0  0
  4 16  1  0  0  0  0
  4 11  1  0  0  0  0
  5  8  1  0  0  0  0
  6 14  2  0  0  0  0
  7 13  2  0  0  0  0
  8 26  1  6  0  0  0
  8  3  1  0  0  0  0
  9 12  2  0  0  0  0
  9 16  1  0  0  0  0
 10  4  2  0  0  0  0
 11 33  1  6  0  0  0
 12 17  1  0  0  0  0
 13 22  2  0  0  0  0
 15  5  2  0  0  0  0
 16 18  2  0  0  0  0
 17  5  1  0  0  0  0
 17 19  2  0  0  0  0
 18 19  1  0  0  0  0
 19  1  1  0  0  0  0
 20  7  1  0  0  0  0
 21 11  1  0  0  0  0
 21 20  1  0  0  0  0
 22 23  1  0  0  0  0
 23 24  1  0  0  0  0
 23 25  1  0  0  0  0
 24 25  1  0  0  0  0
 26 28  1  0  0  0  0
 27 26  2  0  0  0  0
 28 30  1  0  0  0  0
 29 30  1  0  0  0  0
 31 28  1  0  0  0  0
 31 32  1  0  0  0  0
 33 34  1  0  0  0  0
 35 37  1  6  0  0  0
 35 38  1  0  0  0  0
 35 34  1  0  0  0  0
 36 37  1  0  0  0  0
 38 42  1  6  0  0  0
 38 39  1  0  0  0  0
 39 40  2  0  0  0  0
 41 39  1  0  0  0  0
 42 45  1  0  0  0  0
 44 45  2  0  0  0  0
 45 43  1  0  0  0  0
M  END
>  <MODEL>
2

>  <REMARK>
 VINA RESULT:      -5.8      1.892      2.924
  Name = 
  12 active torsions:
  status: ('A' for Active; 'I' for Inactive)
    1  A    between atoms: C_2  and  N_45
    2  A    between atoms: C_4  and  N_26
    3  A    between atoms: C_4  and  C_29
    4  A    between atoms: C_6  and  C_14
    5  A    between atoms: C_6  and  C_19
    6  A    between atoms: C_6  and  O_42
    7  A    between atoms: C_10  and  C_44
    8  A    between atoms: C_12  and  C_18
    9  A    between atoms: C_14  and  N_26
   10  A    between atoms: C_14  and  C_27
   11  A    between atoms: C_35  and  N_45
   12  A    between atoms: O_42  and  C_43
                            x       y       z     vdW  Elec       q    Type
                         _______ _______ _______ _____ _____    ______ ____

>  <TORSDO>
F 12

$$$$
=
 OpenBabel10232409483D

 45 48  0  0  1  0  0  0  0  0999 V2000
  191.2090  175.7470  138.3200 C   0  0  1  0  0  3  0  0  0  0  0  0
  189.7970  177.8360  137.8230 N   0  0  0  0  0  2  0  0  0  0  0  0
  192.5740  175.8180  137.6390 C   0  0  0  0  0  2  0  0  0  0  0  0
  186.6000  175.1400  136.5890 C   0  0  0  0  0  0  0  0  0  0  0  0
  192.1250  173.5620  136.6140 C   0  0  0  0  0  0  0  0  0  0  0  0
  190.7060  177.1270  138.6850 C   0  0  0  0  0  0  0  0  0  0  0  0
  188.5250  178.3580  138.2450 C   0  0  0  0  0  0  0  0  0  0  0  0
  193.1140  174.4060  137.3890 C   0  0  1  0  0  3  0  0  0  0  0  0
  188.4050  173.5340  135.8770 C   0  0  0  0  0  3  0  0  0  0  0  0
  185.7080  174.5170  135.9500 O   0  0  0  0  0  0  0  0  0  0  0  0
  186.3210  176.5140  137.1600 C   0  0  1  0  0  3  0  0  0  0  0  0
  189.7590  173.1740  135.8770 C   0  0  0  0  0  3  0  0  0  0  0  0
  188.1610  178.3280  139.5020 C   0  0  0  0  0  0  0  0  0  0  0  0
  191.0600  177.6360  139.7840 O   0  0  0  0  0  0  0  0  0  0  0  0
  192.5260  172.5580  135.9620 O   0  0  0  0  0  0  0  0  0  0  0  0
  187.9590  174.5770  136.7000 C   0  0  0  0  0  0  0  0  0  0  0  0
  190.6830  173.8750  136.6750 C   0  0  0  0  0  0  0  0  0  0  0  0
  188.8740  175.2230  137.5240 C   0  0  0  0  0  3  0  0  0  0  0  0
  190.2340  174.9280  137.4930 C   0  0  0  0  0  0  0  0  0  0  0  0
  187.4980  178.7620  137.2280 C   0  0  0  0  0  2  0  0  0  0  0  0
  187.0550  177.5870  136.3520 C   0  0  0  0  0  2  0  0  0  0  0  0
  187.7750  178.2820  140.7490 C   0  0  0  0  0  3  0  0  0  0  0  0
  186.3230  178.3060  141.0710 C   0  0  0  0  0  3  0  0  0  0  0  0
  186.0460  179.4370  142.0400 C   0  0  0  0  0  2  0  0  0  0  0  0
  186.1380  178.0130  142.5470 C   0  0  0  0  0  2  0  0  0  0  0  0
  194.4530  174.4600  136.7090 C   0  0  0  0  0  0  0  0  0  0  0  0
  194.5870  175.1400  135.6550 O   0  0  0  0  0  0  0  0  0  0  0  0
  195.5590  173.6880  137.2110 N   0  0  0  0  0  0  0  0  0  0  0  0
  195.4250  171.3500  137.9340 C   0  0  0  0  0  1  0  0  0  0  0  0
  195.3830  172.8100  138.3630 C   0  0  0  0  0  2  0  0  0  0  0  0
  196.8070  173.6030  136.4610 C   0  0  0  0  0  2  0  0  0  0  0  0
  197.8150  174.6030  136.9980 C   0  0  0  0  0  1  0  0  0  0  0  0
  184.8370  176.8240  137.2700 C   0  0  0  0  0  2  0  0  0  0  0  0
  184.6610  178.0820  137.9760 N   0  0  0  0  0  2  0  0  0  0  0  0
  183.4360  177.9740  138.7590 C   0  0  1  0  0  3  0  0  0  0  0  0
  184.1310  180.2930  139.0390 N   0  0  0  0  0  1  0  0  0  0  0  0
  183.1580  179.2990  139.4520 C   0  0  0  0  0  2  0  0  0  0  0  0
  182.2540  177.5360  137.8780 C   0  0  1  0  0  3  0  0  0  0  0  0
  181.4760  176.4020  138.4750 C   0  0  0  0  0  0  0  0  0  0  0  0
  180.3870  176.0470  137.9530 O   0  0  0  0  0  0  0  0  0  0  0  0
  181.9850  175.6860  139.5990 N   0  0  0  0  0  1  0  0  0  0  0  0
  181.3920  178.6390  137.6110 O   0  0  0  0  0  0  0  0  0  0  0  0
  180.7920  180.5710  136.1550 C   0  0  0  0  0  1  0  0  0  0  0  0
  181.4030  178.4380  135.3080 O   0  0  0  0  0  0  0  0  0  0  0  0
  181.2150  179.1560  136.3250 C   0  0  0  0  0  0  0  0  0  0  0  0
  1  3  1  6  0  0  0
  1  6  1  0  0  0  0
  2  7  1  0  0  0  0
  2  6  1  0  0  0  0
  4 16  1  0  0  0  0
  4 11  1  0  0  0  0
  5 17  1  0  0  0  0
  5  8  1  0  0  0  0
  6 14  2  0  0  0  0
  7 13  2  0  0  0  0
  8 26  1  6  0  0  0
  8  3  1  0  0  0  0
  9 12  2  0  0  0  0
  9 16  1  0  0  0  0
 10  4  2  0  0  0  0
 11 33  1  6  0  0  0
 12 17  1  0  0  0  0
 13 22  2  0  0  0  0
 15  5  2  0  0  0  0
 16 18  2  0  0  0  0
 17 19  2  0  0  0  0
 19 18  1  0  0  0  0
 19  1  1  0  0  0  0
 20  7  1  0  0  0  0
 21 11  1  0  0  0  0
 21 20  1  0  0  0  0
 22 23  1  0  0  0  0
 23 24  1  0  0  0  0
 23 25  1  0  0  0  0
 24 25  1  0  0  0  0
 26 28  1  0  0  0  0
 27 26  2  0  0  0  0
 28 30  1  0  0  0  0
 29 30  1  0  0  0  0
 31 32  1  0  0  0  0
 31 28  1  0  0  0  0
 33 34  1  0  0  0  0
 34 35  1  0  0  0  0
 35 37  1  6  0  0  0
 36 37  1  0  0  0  0
 38 42  1  1  0  0  0
 38 39  1  0  0  0  0
 38 35  1  0  0  0  0
 39 41  1  0  0  0  0
 40 39  2  0  0  0  0
 43 45  1  0  0  0  0
 44 45  2  0  0  0  0
 45 42  1  0  0  0  0
M  END
>  <MODEL>
3

>  <REMARK>
 VINA RESULT:      -5.8      1.330      2.326
  Name = 
  12 active torsions:
  status: ('A' for Active; 'I' for Inactive)
    1  A    between atoms: C_2  and  N_45
    2  A    between atoms: C_4  and  N_26
    3  A    between atoms: C_4  and  C_29
    4  A    between atoms: C_6  and  C_14
    5  A    between atoms: C_6  and  C_19
    6  A    between atoms: C_6  and  O_42
    7  A    between atoms: C_10  and  C_44
    8  A    between atoms: C_12  and  C_18
    9  A    between atoms: C_14  and  N_26
   10  A    between atoms: C_14  and  C_27
   11  A    between atoms: C_35  and  N_45
   12  A    between atoms: O_42  and  C_43
                            x       y       z     vdW  Elec       q    Type
                         _______ _______ _______ _____ _____    ______ ____

>  <TORSDO>
F 12

$$$$
=
 OpenBabel10232409483D

 45 48  0  0  1  0  0  0  0  0999 V2000
  190.9870  176.0210  138.1530 C   0  0  1  0  0  3  0  0  0  0  0  0
  189.5110  177.9880  137.4080 N   0  0  0  0  0  2  0  0  0  0  0  0
  192.4470  176.2330  137.7560 C   0  0  0  0  0  2  0  0  0  0  0  0
  186.8830  175.0520  135.5400 C   0  0  0  0  0  0  0  0  0  0  0  0
  192.4200  173.9760  136.6400 C   0  0  0  0  0  0  0  0  0  0  0  0
  190.2960  177.3390  138.4260 C   0  0  0  0  0  0  0  0  0  0  0  0
  188.1380  178.3820  137.5760 C   0  0  0  0  0  0  0  0  0  0  0  0
  193.1550  174.8830  137.6040 C   0  0  1  0  0  3  0  0  0  0  0  0
  188.9350  173.6360  135.1820 C   0  0  0  0  0  3  0  0  0  0  0  0
  186.1960  174.3700  134.7310 O   0  0  0  0  0  0  0  0  0  0  0  0
  186.3710  176.3780  136.0590 C   0  0  1  0  0  3  0  0  0  0  0  0
  190.2910  173.3980  135.4460 C   0  0  0  0  0  3  0  0  0  0  0  0
  187.5390  178.2830  138.7360 C   0  0  0  0  0  0  0  0  0  0  0  0
  190.3790  177.8460  139.5780 O   0  0  0  0  0  0  0  0  0  0  0  0
  193.0330  173.0310  136.0700 O   0  0  0  0  0  0  0  0  0  0  0  0
  188.2410  174.6100  135.9120 C   0  0  0  0  0  0  0  0  0  0  0  0
  190.9710  174.1570  136.4180 C   0  0  0  0  0  0  0  0  0  0  0  0
  188.9130  175.3120  136.9070 C   0  0  0  0  0  3  0  0  0  0  0  0
  190.2740  175.1420  137.1420 C   0  0  0  0  0  0  0  0  0  0  0  0
  187.2960  178.7210  136.3810 C   0  0  0  0  0  2  0  0  0  0  0  0
  187.1450  177.5360  135.4230 C   0  0  0  0  0  2  0  0  0  0  0  0
  186.9230  178.1680  139.8820 C   0  0  0  0  0  3  0  0  0  0  0  0
  185.4390  178.0520  139.9110 C   0  0  0  0  0  3  0  0  0  0  0  0
  184.8290  179.4170  139.6720 C   0  0  0  0  0  2  0  0  0  0  0  0
  184.9040  178.8590  141.0780 C   0  0  0  0  0  2  0  0  0  0  0  0
  194.5900  175.0760  137.2020 C   0  0  0  0  0  0  0  0  0  0  0  0
  194.8830  175.9620  136.3530 O   0  0  0  0  0  0  0  0  0  0  0  0
  195.6170  174.2130  137.7230 N   0  0  0  0  0  0  0  0  0  0  0  0
  195.6420  171.7770  137.9880 C   0  0  0  0  0  1  0  0  0  0  0  0
  195.2720  173.1130  138.6180 C   0  0  0  0  0  2  0  0  0  0  0  0
  196.9800  174.2860  137.2090 C   0  0  0  0  0  2  0  0  0  0  0  0
  197.9430  174.6690  138.3180 C   0  0  0  0  0  1  0  0  0  0  0  0
  184.8710  176.5510  135.8770 C   0  0  0  0  0  2  0  0  0  0  0  0
  184.2770  176.9440  137.1430 N   0  0  0  0  0  2  0  0  0  0  0  0
  183.0490  177.6700  136.8400 C   0  0  1  0  0  3  0  0  0  0  0  0
  181.3080  177.0460  135.2520 N   0  0  0  0  0  1  0  0  0  0  0  0
  182.6910  177.4710  135.3750 C   0  0  0  0  0  2  0  0  0  0  0  0
  181.9050  177.2320  137.7690 C   0  0  1  0  0  3  0  0  0  0  0  0
  182.2530  176.0250  138.5870 C   0  0  0  0  0  0  0  0  0  0  0  0
  182.6080  176.1640  139.7870 O   0  0  0  0  0  0  0  0  0  0  0  0
  182.1340  174.7160  138.0340 N   0  0  0  0  0  1  0  0  0  0  0  0
  181.5090  178.3060  138.6170 O   0  0  0  0  0  0  0  0  0  0  0  0
  181.6400  180.7920  138.4870 C   0  0  0  0  0  1  0  0  0  0  0  0
  179.9870  179.5100  137.3610 O   0  0  0  0  0  0  0  0  0  0  0  0
  180.9950  179.5050  138.1170 C   0  0  0  0  0  0  0  0  0  0  0  0
  1  3  1  6  0  0  0
  1  6  1  0  0  0  0
  2  7  1  0  0  0  0
  2  6  1  0  0  0  0
  4 16  1  0  0  0  0
  4 11  1  0  0  0  0
  5  8  1  0  0  0  0
  6 14  2  0  0  0  0
  7 13  2  0  0  0  0
  8 26  1  6  0  0  0
  8  3  1  0  0  0  0
  9 12  2  0  0  0  0
  9 16  1  0  0  0  0
 10  4  2  0  0  0  0
 11 33  1  6  0  0  0
 12 17  1  0  0  0  0
 13 22  2  0  0  0  0
 15  5  2  0  0  0  0
 16 18  2  0  0  0  0
 17  5  1  0  0  0  0
 17 19  2  0  0  0  0
 18 19  1  0  0  0  0
 19  1  1  0  0  0  0
 20  7  1  0  0  0  0
 21 11  1  0  0  0  0
 21 20  1  0  0  0  0
 22 23  1  0  0  0  0
 23 25  1  0  0  0  0
 24 23  1  0  0  0  0
 24 25  1  0  0  0  0
 26 28  1  0  0  0  0
 27 26  2  0  0  0  0
 28 30  1  0  0  0  0
 29 30  1  0  0  0  0
 31 28  1  0  0  0  0
 31 32  1  0  0  0  0
 33 34  1  0  0  0  0
 35 37  1  6  0  0  0
 35 34  1  0  0  0  0
 35 38  1  0  0  0  0
 36 37  1  0  0  0  0
 38 39  1  1  0  0  0
 38 42  1  0  0  0  0
 39 40  2  0  0  0  0
 41 39  1  0  0  0  0
 44 45  2  0  0  0  0
 45 43  1  0  0  0  0
 45 42  1  0  0  0  0
M  END
>  <MODEL>
4

>  <REMARK>
 VINA RESULT:      -5.0      1.545      2.041
  Name = 
  12 active torsions:
  status: ('A' for Active; 'I' for Inactive)
    1  A    between atoms: C_2  and  N_45
    2  A    between atoms: C_4  and  N_26
    3  A    between atoms: C_4  and  C_29
    4  A    between atoms: C_6  and  C_14
    5  A    between atoms: C_6  and  C_19
    6  A    between atoms: C_6  and  O_42
    7  A    between atoms: C_10  and  C_44
    8  A    between atoms: C_12  and  C_18
    9  A    between atoms: C_14  and  N_26
   10  A    between atoms: C_14  and  C_27
   11  A    between atoms: C_35  and  N_45
   12  A    between atoms: O_42  and  C_43
                            x       y       z     vdW  Elec       q    Type
                         _______ _______ _______ _____ _____    ______ ____

>  <TORSDO>
F 12

$$$$
=
 OpenBabel10232409483D

 45 48  0  0  1  0  0  0  0  0999 V2000
  185.3770  177.2410  137.5620 C   0  0  1  0  0  3  0  0  0  0  0  0
  187.0110  177.3850  135.5830 N   0  0  0  0  0  2  0  0  0  0  0  0
  184.4100  178.4230  137.5780 C   0  0  0  0  0  2  0  0  0  0  0  0
  190.2380  176.8410  138.4650 C   0  0  0  0  0  0  0  0  0  0  0  0
  185.0760  178.8700  139.9650 C   0  0  0  0  0  0  0  0  0  0  0  0
  185.7840  176.8850  136.1490 C   0  0  0  0  0  0  0  0  0  0  0  0
  188.0380  176.5520  135.0180 C   0  0  0  0  0  0  0  0  0  0  0  0
  183.9200  178.6840  139.0060 C   0  0  1  0  0  3  0  0  0  0  0  0
  188.7670  178.0120  140.1390 C   0  0  0  0  0  3  0  0  0  0  0  0
  191.2660  176.9720  139.1840 O   0  0  0  0  0  0  0  0  0  0  0  0
  190.3580  176.3910  137.0250 C   0  0  1  0  0  3  0  0  0  0  0  0
  187.5050  178.5190  140.4820 C   0  0  0  0  0  3  0  0  0  0  0  0
  187.8610  175.2640  134.8660 C   0  0  0  0  0  0  0  0  0  0  0  0
  185.0540  176.1040  135.4790 O   0  0  0  0  0  0  0  0  0  0  0  0
  184.9030  179.4920  141.0510 O   0  0  0  0  0  0  0  0  0  0  0  0
  188.9140  177.2220  138.9910 C   0  0  0  0  0  0  0  0  0  0  0  0
  186.3890  178.2670  139.6610 C   0  0  0  0  0  0  0  0  0  0  0  0
  187.7920  176.9370  138.2220 C   0  0  0  0  0  3  0  0  0  0  0  0
  186.5430  177.4820  138.5040 C   0  0  0  0  0  0  0  0  0  0  0  0
  189.4130  177.1040  134.7790 C   0  0  0  0  0  2  0  0  0  0  0  0
  190.0880  177.5610  136.0750 C   0  0  0  0  0  2  0  0  0  0  0  0
  187.7080  173.9740  134.7310 C   0  0  0  0  0  3  0  0  0  0  0  0
  188.9060  173.0920  134.6740 C   0  0  0  0  0  3  0  0  0  0  0  0
  188.5500  171.7320  135.2370 C   0  0  0  0  0  2  0  0  0  0  0  0
  189.3170  172.7240  136.0860 C   0  0  0  0  0  2  0  0  0  0  0  0
  182.9760  179.8530  139.0400 C   0  0  0  0  0  0  0  0  0  0  0  0
  183.4210  181.0170  138.8430 O   0  0  0  0  0  0  0  0  0  0  0  0
  181.5870  179.6610  139.3630 N   0  0  0  0  0  0  0  0  0  0  0  0
  180.6840  178.2740  141.1710 C   0  0  0  0  0  1  0  0  0  0  0  0
  181.0860  178.3330  139.7030 C   0  0  0  0  0  2  0  0  0  0  0  0
  180.7060  180.8060  139.5640 C   0  0  0  0  0  2  0  0  0  0  0  0
  180.5860  181.6110  138.2820 C   0  0  0  0  0  1  0  0  0  0  0  0
  191.6900  175.7250  136.7160 C   0  0  0  0  0  2  0  0  0  0  0  0
  191.9550  174.7000  137.7110 N   0  0  0  0  0  2  0  0  0  0  0  0
  193.1570  173.9880  137.2920 C   0  0  1  0  0  3  0  0  0  0  0  0
  193.3250  172.1870  135.6560 N   0  0  0  0  0  1  0  0  0  0  0  0
  193.0310  173.5990  135.8260 C   0  0  0  0  0  2  0  0  0  0  0  0
  194.4170  174.8310  137.5490 C   0  0  1  0  0  3  0  0  0  0  0  0
  195.2820  174.2630  138.6330 C   0  0  0  0  0  0  0  0  0  0  0  0
  195.8910  175.0360  139.4170 O   0  0  0  0  0  0  0  0  0  0  0  0
  195.3780  172.8520  138.8190 N   0  0  0  0  0  1  0  0  0  0  0  0
  195.1690  174.9860  136.3480 O   0  0  0  0  0  0  0  0  0  0  0  0
  197.1840  173.6420  135.7650 C   0  0  0  0  0  1  0  0  0  0  0  0
  197.2950  175.7970  136.7570 O   0  0  0  0  0  0  0  0  0  0  0  0
  196.5610  174.8730  136.3170 C   0  0  0  0  0  0  0  0  0  0  0  0
  1  3  1  6  0  0  0
  1 19  1  0  0  0  0
  2  6  1  0  0  0  0
  3  8  1  0  0  0  0
  4 16  1  0  0  0  0
  4 10  2  0  0  0  0
  5 15  2  0  0  0  0
  6  1  1  0  0  0  0
  7  2  1  0  0  0  0
  8 26  1  6  0  0  0
  8  5  1  0  0  0  0
  9 12  1  0  0  0  0
 11 33  1  1  0  0  0
 11  4  1  0  0  0  0
 13  7  2  0  0  0  0
 14  6  2  0  0  0  0
 16  9  2  0  0  0  0
 17  5  1  0  0  0  0
 17 12  2  0  0  0  0
 18 19  2  0  0  0  0
 18 16  1  0  0  0  0
 19 17  1  0  0  0  0
 20  7  1  0  0  0  0
 20 21  1  0  0  0  0
 21 11  1  0  0  0  0
 22 13  2  0  0  0  0
 23 22  1  0  0  0  0
 23 24  1  0  0  0  0
 23 25  1  0  0  0  0
 24 25  1  0  0  0  0
 26 28  1  0  0  0  0
 27 26  2  0  0  0  0
 28 31  1  0  0  0  0
 28 30  1  0  0  0  0
 30 29  1  0  0  0  0
 32 31  1  0  0  0  0
 33 34  1  0  0  0  0
 35 37  1  6  0  0  0
 35 38  1  0  0  0  0
 35 34  1  0  0  0  0
 36 37  1  0  0  0  0
 38 42  1  6  0  0  0
 38 39  1  0  0  0  0
 39 41  1  0  0  0  0
 39 40  2  0  0  0  0
 43 45  1  0  0  0  0
 45 42  1  0  0  0  0
 45 44  2  0  0  0  0
M  END
>  <MODEL>
5

>  <REMARK>
 VINA RESULT:      -4.8      2.036     10.843
  Name = 
  12 active torsions:
  status: ('A' for Active; 'I' for Inactive)
    1  A    between atoms: C_2  and  N_45
    2  A    between atoms: C_4  and  N_26
    3  A    between atoms: C_4  and  C_29
    4  A    between atoms: C_6  and  C_14
    5  A    between atoms: C_6  and  C_19
    6  A    between atoms: C_6  and  O_42
    7  A    between atoms: C_10  and  C_44
    8  A    between atoms: C_12  and  C_18
    9  A    between atoms: C_14  and  N_26
   10  A    between atoms: C_14  and  C_27
   11  A    between atoms: C_35  and  N_45
   12  A    between atoms: O_42  and  C_43
                            x       y       z     vdW  Elec       q    Type
                         _______ _______ _______ _____ _____    ______ ____

>  <TORSDO>
F 12

$$$$
=
 OpenBabel10232409483D

 45 48  0  0  1  0  0  0  0  0999 V2000
  189.2450  173.0730  135.5220 C   0  0  1  0  0  3  0  0  0  0  0  0
  187.2000  172.7950  137.0540 N   0  0  0  0  0  2  0  0  0  0  0  0
  190.5500  172.9960  136.3110 C   0  0  0  0  0  2  0  0  0  0  0  0
  185.6310  176.4630  135.2920 C   0  0  0  0  0  0  0  0  0  0  0  0
  191.2360  175.1950  135.2930 C   0  0  0  0  0  0  0  0  0  0  0  0
  188.1690  172.2190  136.1590 C   0  0  0  0  0  0  0  0  0  0  0  0
  185.7760  172.6860  136.8810 C   0  0  0  0  0  0  0  0  0  0  0  0
  191.6540  173.7700  135.5820 C   0  0  1  0  0  3  0  0  0  0  0  0
  188.0230  177.1910  134.9970 C   0  0  0  0  0  3  0  0  0  0  0  0
  185.1870  177.6260  135.0910 O   0  0  0  0  0  0  0  0  0  0  0  0
  184.7260  175.3760  135.8340 C   0  0  1  0  0  3  0  0  0  0  0  0
  189.3880  176.8690  135.0200 C   0  0  0  0  0  3  0  0  0  0  0  0
  185.2610  171.9320  135.9430 C   0  0  0  0  0  0  0  0  0  0  0  0
  188.1030  170.9950  135.8600 O   0  0  0  0  0  0  0  0  0  0  0  0
  192.1110  176.0840  135.0960 O   0  0  0  0  0  0  0  0  0  0  0  0
  187.0640  176.1740  135.0980 C   0  0  0  0  0  0  0  0  0  0  0  0
  189.8030  175.5330  135.1780 C   0  0  0  0  0  0  0  0  0  0  0  0
  187.4900  174.8540  135.1970 C   0  0  0  0  0  3  0  0  0  0  0  0
  188.8370  174.5160  135.2890 C   0  0  0  0  0  0  0  0  0  0  0  0
  184.8500  173.5930  137.6370 C   0  0  0  0  0  2  0  0  0  0  0  0
  185.0740  175.0680  137.2920 C   0  0  0  0  0  2  0  0  0  0  0  0
  184.7350  171.2020  134.9960 C   0  0  0  0  0  3  0  0  0  0  0  0
  183.3690  171.5180  134.4970 C   0  0  0  0  0  3  0  0  0  0  0  0
  182.3850  171.4230  135.6440 C   0  0  0  0  0  2  0  0  0  0  0  0
  182.4920  170.2910  134.6440 C   0  0  0  0  0  2  0  0  0  0  0  0
  192.9430  173.7130  136.3530 C   0  0  0  0  0  0  0  0  0  0  0  0
  193.0050  174.2400  137.4980 O   0  0  0  0  0  0  0  0  0  0  0  0
  194.1190  173.1280  135.7660 N   0  0  0  0  0  0  0  0  0  0  0  0
  194.1860  171.1000  134.3930 C   0  0  0  0  0  1  0  0  0  0  0  0
  194.0870  172.6190  134.3990 C   0  0  0  0  0  2  0  0  0  0  0  0
  195.4100  173.2230  136.4390 C   0  0  0  0  0  2  0  0  0  0  0  0
  196.1630  174.4540  135.9660 C   0  0  0  0  0  1  0  0  0  0  0  0
  183.2480  175.6960  135.6740 C   0  0  0  0  0  2  0  0  0  0  0  0
  182.7320  176.2140  136.9290 N   0  0  0  0  0  2  0  0  0  0  0  0
  182.0360  177.4610  136.6320 C   0  0  1  0  0  3  0  0  0  0  0  0
  180.0130  177.2090  135.2950 N   0  0  0  0  0  1  0  0  0  0  0  0
  180.5340  177.2210  136.6500 C   0  0  0  0  0  2  0  0  0  0  0  0
  182.4450  178.5700  137.6150 C   0  0  1  0  0  3  0  0  0  0  0  0
  181.2810  179.1250  138.3780 C   0  0  0  0  0  0  0  0  0  0  0  0
  180.8730  178.5350  139.4130 O   0  0  0  0  0  0  0  0  0  0  0  0
  180.6640  180.3460  137.9730 N   0  0  0  0  0  1  0  0  0  0  0  0
  183.4460  178.0990  138.5140 O   0  0  0  0  0  0  0  0  0  0  0  0
  185.9160  178.3930  138.3660 C   0  0  0  0  0  1  0  0  0  0  0  0
  184.4870  179.9060  139.5110 O   0  0  0  0  0  0  0  0  0  0  0  0
  184.5800  178.8500  138.8310 C   0  0  0  0  0  0  0  0  0  0  0  0
  1  6  1  0  0  0  0
  1  3  1  1  0  0  0
  4 11  1  0  0  0  0
  5  8  1  0  0  0  0
  6  2  1  0  0  0  0
  7  2  1  0  0  0  0
  7 20  1  0  0  0  0
  8  3  1  0  0  0  0
  8 26  1  1  0  0  0
  9 12  2  0  0  0  0
  9 16  1  0  0  0  0
 10  4  2  0  0  0  0
 11 33  1  1  0  0  0
 11 21  1  0  0  0  0
 12 17  1  0  0  0  0
 13  7  2  0  0  0  0
 14  6  2  0  0  0  0
 15  5  2  0  0  0  0
 16 18  2  0  0  0  0
 16  4  1  0  0  0  0
 17 19  2  0  0  0  0
 17  5  1  0  0  0  0
 18 19  1  0  0  0  0
 19  1  1  0  0  0  0
 21 20  1  0  0  0  0
 22 13  2  0  0  0  0
 23 25  1  0  0  0  0
 23 22  1  0  0  0  0
 23 24  1  0  0  0  0
 25 24  1  0  0  0  0
 26 27  2  0  0  0  0
 28 26  1  0  0  0  0
 28 31  1  0  0  0  0
 29 30  1  0  0  0  0
 30 28  1  0  0  0  0
 32 31  1  0  0  0  0
 33 34  1  0  0  0  0
 35 37  1  1  0  0  0
 35 34  1  0  0  0  0
 35 38  1  0  0  0  0
 36 37  1  0  0  0  0
 38 39  1  1  0  0  0
 38 42  1  0  0  0  0
 39 40  2  0  0  0  0
 41 39  1  0  0  0  0
 42 45  1  0  0  0  0
 43 45  1  0  0  0  0
 45 44  2  0  0  0  0
M  END
>  <MODEL>
6

>  <REMARK>
 VINA RESULT:      -4.1      2.781      4.815
  Name = 
  12 active torsions:
  status: ('A' for Active; 'I' for Inactive)
    1  A    between atoms: C_2  and  N_45
    2  A    between atoms: C_4  and  N_26
    3  A    between atoms: C_4  and  C_29
    4  A    between atoms: C_6  and  C_14
    5  A    between atoms: C_6  and  C_19
    6  A    between atoms: C_6  and  O_42
    7  A    between atoms: C_10  and  C_44
    8  A    between atoms: C_12  and  C_18
    9  A    between atoms: C_14  and  N_26
   10  A    between atoms: C_14  and  C_27
   11  A    between atoms: C_35  and  N_45
   12  A    between atoms: O_42  and  C_43
                            x       y       z     vdW  Elec       q    Type
                         _______ _______ _______ _____ _____    ______ ____

>  <TORSDO>
F 12

$$$$
=
 OpenBabel10232409483D

 45 48  0  0  1  0  0  0  0  0999 V2000
  185.4110  178.7200  141.6900 C   0  0  1  0  0  3  0  0  0  0  0  0
  187.1690  176.9850  142.3990 N   0  0  0  0  0  2  0  0  0  0  0  0
  184.0030  178.1270  141.6970 C   0  0  0  0  0  2  0  0  0  0  0  0
  189.3590  178.0150  138.7710 C   0  0  0  0  0  0  0  0  0  0  0  0
  183.7110  178.9200  139.3250 C   0  0  0  0  0  0  0  0  0  0  0  0
  186.2850  178.0690  142.7400 C   0  0  0  0  0  0  0  0  0  0  0  0
  188.5830  176.9830  142.6620 C   0  0  0  0  0  0  0  0  0  0  0  0
  183.1070  178.8830  140.7120 C   0  0  1  0  0  3  0  0  0  0  0  0
  187.1260  178.5210  137.7230 C   0  0  0  0  0  3  0  0  0  0  0  0
  189.9480  177.9980  137.6560 O   0  0  0  0  0  0  0  0  0  0  0  0
  190.0550  177.5110  140.0180 C   0  0  1  0  0  3  0  0  0  0  0  0
  185.7470  178.7200  137.8730 C   0  0  0  0  0  3  0  0  0  0  0  0
  189.1460  177.9380  143.3580 C   0  0  0  0  0  0  0  0  0  0  0  0
  186.2640  178.5180  143.9190 O   0  0  0  0  0  0  0  0  0  0  0  0
  182.9740  179.1090  138.3180 O   0  0  0  0  0  0  0  0  0  0  0  0
  187.9470  178.4330  138.8550 C   0  0  0  0  0  0  0  0  0  0  0  0
  185.1740  178.8000  139.1560 C   0  0  0  0  0  0  0  0  0  0  0  0
  187.3740  178.5690  140.1140 C   0  0  0  0  0  3  0  0  0  0  0  0
  185.9990  178.7010  140.2910 C   0  0  0  0  0  0  0  0  0  0  0  0
  189.4800  175.9970  141.9730 C   0  0  0  0  0  2  0  0  0  0  0  0
  189.4670  176.1660  140.4510 C   0  0  0  0  0  2  0  0  0  0  0  0
  189.7250  178.8980  144.0300 C   0  0  0  0  0  3  0  0  0  0  0  0
  191.1750  179.1660  143.8290 C   0  0  0  0  0  3  0  0  0  0  0  0
  191.8700  177.8790  143.4350 C   0  0  0  0  0  2  0  0  0  0  0  0
  191.9700  178.3880  144.8580 C   0  0  0  0  0  2  0  0  0  0  0  0
  181.7200  178.3030  140.6990 C   0  0  0  0  0  0  0  0  0  0  0  0
  180.7640  178.9690  141.1830 O   0  0  0  0  0  0  0  0  0  0  0  0
  181.4910  176.9710  140.2050 N   0  0  0  0  0  0  0  0  0  0  0  0
  182.4500  175.8060  138.2740 C   0  0  0  0  0  1  0  0  0  0  0  0
  182.6080  176.1510  139.7490 C   0  0  0  0  0  2  0  0  0  0  0  0
  180.1830  176.3410  140.3470 C   0  0  0  0  0  2  0  0  0  0  0  0
  180.3240  174.8300  140.3700 C   0  0  0  0  0  1  0  0  0  0  0  0
  191.5660  177.4310  139.8670 C   0  0  0  0  0  2  0  0  0  0  0  0
  191.9120  176.2120  139.1570 N   0  0  0  0  0  2  0  0  0  0  0  0
  193.1190  176.4870  138.3850 C   0  0  1  0  0  3  0  0  0  0  0  0
  194.9350  176.1280  139.9720 N   0  0  0  0  0  1  0  0  0  0  0  0
  194.2330  175.5560  138.8370 C   0  0  0  0  0  2  0  0  0  0  0  0
  192.8510  176.3620  136.8760 C   0  0  1  0  0  3  0  0  0  0  0  0
  194.1060  176.1650  136.0800 C   0  0  0  0  0  0  0  0  0  0  0  0
  194.3670  175.0340  135.5920 O   0  0  0  0  0  0  0  0  0  0  0  0
  194.9800  177.2630  135.8240 N   0  0  0  0  0  1  0  0  0  0  0  0
  191.9320  175.3040  136.6170 O   0  0  0  0  0  0  0  0  0  0  0  0
  189.5520  174.7500  136.1240 C   0  0  0  0  0  1  0  0  0  0  0  0
  190.8560  176.2160  134.7850 O   0  0  0  0  0  0  0  0  0  0  0  0
  190.8120  175.4690  135.7990 C   0  0  0  0  0  0  0  0  0  0  0  0
  1  3  1  6  0  0  0
  1  6  1  0  0  0  0
  2  7  1  0  0  0  0
  2  6  1  0  0  0  0
  4 16  1  0  0  0  0
  4 11  1  0  0  0  0
  5  8  1  0  0  0  0
  6 14  2  0  0  0  0
  7 13  2  0  0  0  0
  8 26  1  6  0  0  0
  8  3  1  0  0  0  0
  9 12  2  0  0  0  0
  9 16  1  0  0  0  0
 10  4  2  0  0  0  0
 11 33  1  6  0  0  0
 11 21  1  0  0  0  0
 12 17  1  0  0  0  0
 13 22  2  0  0  0  0
 15  5  2  0  0  0  0
 16 18  2  0  0  0  0
 17  5  1  0  0  0  0
 17 19  2  0  0  0  0
 18 19  1  0  0  0  0
 19  1  1  0  0  0  0
 20  7  1  0  0  0  0
 21 20  1  0  0  0  0
 23 22  1  0  0  0  0
 23 25  1  0  0  0  0
 24 23  1  0  0  0  0
 24 25  1  0  0  0  0
 26 27  2  0  0  0  0
 28 31  1  0  0  0  0
 28 26  1  0  0  0  0
 29 30  1  0  0  0  0
 30 28  1  0  0  0  0
 31 32  1  0  0  0  0
 34 33  1  0  0  0  0
 35 37  1  1  0  0  0
 35 34  1  0  0  0  0
 37 36  1  0  0  0  0
 38 39  1  6  0  0  0
 38 35  1  0  0  0  0
 40 39  2  0  0  0  0
 41 39  1  0  0  0  0
 42 38  1  0  0  0  0
 44 45  2  0  0  0  0
 45 43  1  0  0  0  0
 45 42  1  0  0  0  0
M  END
>  <MODEL>
7

>  <REMARK>
 VINA RESULT:      -3.7      2.680      9.942
  Name = 
  12 active torsions:
  status: ('A' for Active; 'I' for Inactive)
    1  A    between atoms: C_2  and  N_45
    2  A    between atoms: C_4  and  N_26
    3  A    between atoms: C_4  and  C_29
    4  A    between atoms: C_6  and  C_14
    5  A    between atoms: C_6  and  C_19
    6  A    between atoms: C_6  and  O_42
    7  A    between atoms: C_10  and  C_44
    8  A    between atoms: C_12  and  C_18
    9  A    between atoms: C_14  and  N_26
   10  A    between atoms: C_14  and  C_27
   11  A    between atoms: C_35  and  N_45
   12  A    between atoms: O_42  and  C_43
                            x       y       z     vdW  Elec       q    Type
                         _______ _______ _______ _____ _____    ______ ____

>  <TORSDO>
F 12

$$$$
=
 OpenBabel10232409483D

 45 48  0  0  1  0  0  0  0  0999 V2000
  193.1570  174.2250  135.9590 C   0  0  1  0  0  3  0  0  0  0  0  0
  190.7010  174.2090  136.7170 N   0  0  0  0  0  2  0  0  0  0  0  0
  193.7540  172.8190  135.9610 C   0  0  0  0  0  2  0  0  0  0  0  0
  191.7730  177.3110  139.5890 C   0  0  0  0  0  0  0  0  0  0  0  0
  195.6430  173.6760  137.3880 C   0  0  0  0  0  0  0  0  0  0  0  0
  191.6750  174.1920  135.6560 C   0  0  0  0  0  0  0  0  0  0  0  0
  189.6370  175.1700  136.8210 C   0  0  0  0  0  0  0  0  0  0  0  0
  195.2730  172.8900  136.1490 C   0  0  1  0  0  3  0  0  0  0  0  0
  194.0630  176.2660  139.6660 C   0  0  0  0  0  3  0  0  0  0  0  0
  191.9790  177.9870  140.6340 O   0  0  0  0  0  0  0  0  0  0  0  0
  190.3810  177.1960  139.0070 C   0  0  1  0  0  3  0  0  0  0  0  0
  194.9890  175.3610  139.1280 C   0  0  0  0  0  3  0  0  0  0  0  0
  189.4070  176.0350  135.8650 C   0  0  0  0  0  0  0  0  0  0  0  0
  191.2960  174.1920  134.4530 O   0  0  0  0  0  0  0  0  0  0  0  0
  196.7660  173.4990  137.9370 O   0  0  0  0  0  0  0  0  0  0  0  0
  192.8730  176.5390  138.9790 C   0  0  0  0  0  0  0  0  0  0  0  0
  194.7150  174.6970  137.9170 C   0  0  0  0  0  0  0  0  0  0  0  0
  192.6430  175.9180  137.7570 C   0  0  0  0  0  3  0  0  0  0  0  0
  193.5150  174.9660  137.2350 C   0  0  0  0  0  0  0  0  0  0  0  0
  188.8950  175.3410  138.1130 C   0  0  0  0  0  2  0  0  0  0  0  0
  189.8110  175.7970  139.2530 C   0  0  0  0  0  2  0  0  0  0  0  0
  189.1830  176.9200  134.9310 C   0  0  0  0  0  3  0  0  0  0  0  0
  188.4890  178.1920  135.2720 C   0  0  0  0  0  3  0  0  0  0  0  0
  187.5530  177.9510  136.4390 C   0  0  0  0  0  2  0  0  0  0  0  0
  187.0020  178.0250  135.0300 C   0  0  0  0  0  2  0  0  0  0  0  0
  195.8730  171.5130  136.1640 C   0  0  0  0  0  0  0  0  0  0  0  0
  195.2990  170.5920  136.8080 O   0  0  0  0  0  0  0  0  0  0  0  0
  197.1290  171.2560  135.5100 N   0  0  0  0  0  0  0  0  0  0  0  0
  199.3030  172.3720  135.3320 C   0  0  0  0  0  1  0  0  0  0  0  0
  197.8560  172.3410  134.8590 C   0  0  0  0  0  2  0  0  0  0  0  0
  197.7970  169.9690  135.6650 C   0  0  0  0  0  2  0  0  0  0  0  0
  197.8000  169.2140  134.3480 C   0  0  0  0  0  1  0  0  0  0  0  0
  189.4330  178.2740  139.5100 C   0  0  0  0  0  2  0  0  0  0  0  0
  188.3430  177.6510  140.2400 N   0  0  0  0  0  2  0  0  0  0  0  0
  188.1810  178.3870  141.4890 C   0  0  1  0  0  3  0  0  0  0  0  0
  186.0830  178.7670  140.3060 N   0  0  0  0  0  1  0  0  0  0  0  0
  186.8830  179.1790  141.4460 C   0  0  0  0  0  2  0  0  0  0  0  0
  188.2270  177.4390  142.6990 C   0  0  1  0  0  3  0  0  0  0  0  0
  189.5850  176.8450  142.9180 C   0  0  0  0  0  0  0  0  0  0  0  0
  189.8060  175.6490  142.5920 O   0  0  0  0  0  0  0  0  0  0  0  0
  190.6470  177.6400  143.4430 N   0  0  0  0  0  1  0  0  0  0  0  0
  187.7860  178.1090  143.8770 O   0  0  0  0  0  0  0  0  0  0  0  0
  186.5520  177.5480  145.9690 C   0  0  0  0  0  1  0  0  0  0  0  0
  185.5050  177.7310  143.8440 O   0  0  0  0  0  0  0  0  0  0  0  0
  186.5760  177.8020  144.5040 C   0  0  0  0  0  0  0  0  0  0  0  0
  1  3  1  1  0  0  0
  1 19  1  0  0  0  0
  2  7  1  0  0  0  0
  3  8  1  0  0  0  0
  4 10  2  0  0  0  0
  5 17  1  0  0  0  0
  5 15  2  0  0  0  0
  6  1  1  0  0  0  0
  6  2  1  0  0  0  0
  7 20  1  0  0  0  0
  8 26  1  1  0  0  0
  8  5  1  0  0  0  0
 11 21  1  0  0  0  0
 11 33  1  1  0  0  0
 11  4  1  0  0  0  0
 12  9  1  0  0  0  0
 13  7  2  0  0  0  0
 14  6  2  0  0  0  0
 16  4  1  0  0  0  0
 16  9  2  0  0  0  0
 17 12  2  0  0  0  0
 18 16  1  0  0  0  0
 19 18  2  0  0  0  0
 19 17  1  0  0  0  0
 20 21  1  0  0  0  0
 22 23  1  0  0  0  0
 22 13  2  0  0  0  0
 23 24  1  0  0  0  0
 25 23  1  0  0  0  0
 25 24  1  0  0  0  0
 26 27  2  0  0  0  0
 28 31  1  0  0  0  0
 28 26  1  0  0  0  0
 30 29  1  0  0  0  0
 30 28  1  0  0  0  0
 32 31  1  0  0  0  0
 33 34  1  0  0  0  0
 34 35  1  0  0  0  0
 35 37  1  6  0  0  0
 35 38  1  0  0  0  0
 36 37  1  0  0  0  0
 38 39  1  1  0  0  0
 38 42  1  0  0  0  0
 39 41  1  0  0  0  0
 40 39  2  0  0  0  0
 42 45  1  0  0  0  0
 44 45  2  0  0  0  0
 45 43  1  0  0  0  0
M  END
>  <MODEL>
8

>  <REMARK>
 VINA RESULT:      -3.6      3.193      5.609
  Name = 
  12 active torsions:
  status: ('A' for Active; 'I' for Inactive)
    1  A    between atoms: C_2  and  N_45
    2  A    between atoms: C_4  and  N_26
    3  A    between atoms: C_4  and  C_29
    4  A    between atoms: C_6  and  C_14
    5  A    between atoms: C_6  and  C_19
    6  A    between atoms: C_6  and  O_42
    7  A    between atoms: C_10  and  C_44
    8  A    between atoms: C_12  and  C_18
    9  A    between atoms: C_14  and  N_26
   10  A    between atoms: C_14  and  C_27
   11  A    between atoms: C_35  and  N_45
   12  A    between atoms: O_42  and  C_43
                            x       y       z     vdW  Elec       q    Type
                         _______ _______ _______ _____ _____    ______ ____

>  <TORSDO>
F 12

$$$$
=
 OpenBabel10232409483D

 45 48  0  0  1  0  0  0  0  0999 V2000
  187.4790  177.3170  142.0710 C   0  0  1  0  0  3  0  0  0  0  0  0
  186.5040  178.9080  140.3030 N   0  0  0  0  0  2  0  0  0  0  0  0
  187.9320  178.0750  143.3170 C   0  0  0  0  0  2  0  0  0  0  0  0
  189.2360  177.0780  137.4380 C   0  0  0  0  0  0  0  0  0  0  0  0
  190.1870  176.9750  143.1050 C   0  0  0  0  0  0  0  0  0  0  0  0
  186.3050  178.0060  141.4070 C   0  0  0  0  0  0  0  0  0  0  0  0
  185.8580  178.7740  139.0250 C   0  0  0  0  0  0  0  0  0  0  0  0
  189.0380  177.2950  144.0360 C   0  0  1  0  0  3  0  0  0  0  0  0
  190.8050  176.7010  139.3720 C   0  0  0  0  0  3  0  0  0  0  0  0
  190.1370  176.8540  136.5840 O   0  0  0  0  0  0  0  0  0  0  0  0
  187.9090  177.6750  137.0200 C   0  0  1  0  0  3  0  0  0  0  0  0
  191.0250  176.6990  140.7560 C   0  0  0  0  0  3  0  0  0  0  0  0
  184.9310  177.8720  138.8230 C   0  0  0  0  0  0  0  0  0  0  0  0
  185.1370  177.7460  141.8070 O   0  0  0  0  0  0  0  0  0  0  0  0
  191.3330  176.7290  143.5750 O   0  0  0  0  0  0  0  0  0  0  0  0
  189.5050  176.8560  138.8710 C   0  0  0  0  0  0  0  0  0  0  0  0
  189.9520  176.8860  141.6490 C   0  0  0  0  0  0  0  0  0  0  0  0
  188.4490  176.9840  139.7670 C   0  0  0  0  0  3  0  0  0  0  0  0
  188.6500  177.0520  141.1430 C   0  0  0  0  0  0  0  0  0  0  0  0
  186.3740  179.5260  137.8330 C   0  0  0  0  0  2  0  0  0  0  0  0
  187.8110  179.1320  137.4770 C   0  0  0  0  0  2  0  0  0  0  0  0
  184.0220  176.9610  138.6010 C   0  0  0  0  0  3  0  0  0  0  0  0
  183.7780  176.4880  137.2110 C   0  0  0  0  0  3  0  0  0  0  0  0
  182.4040  176.9420  136.7640 C   0  0  0  0  0  2  0  0  0  0  0  0
  182.6180  175.5130  137.2170 C   0  0  0  0  0  2  0  0  0  0  0  0
  189.5020  178.0340  145.2590 C   0  0  0  0  0  0  0  0  0  0  0  0
  190.5220  178.7740  145.1880 O   0  0  0  0  0  0  0  0  0  0  0  0
  188.8360  177.8490  146.5210 N   0  0  0  0  0  0  0  0  0  0  0  0
  186.4040  177.6070  146.3510 C   0  0  0  0  0  1  0  0  0  0  0  0
  187.7260  176.9090  146.6380 C   0  0  0  0  0  2  0  0  0  0  0  0
  189.3840  178.4290  147.7420 C   0  0  0  0  0  2  0  0  0  0  0  0
  188.4490  178.1780  148.9120 C   0  0  0  0  0  1  0  0  0  0  0  0
  187.6390  177.5430  135.5290 C   0  0  0  0  0  2  0  0  0  0  0  0
  187.9780  176.1980  135.0980 N   0  0  0  0  0  2  0  0  0  0  0  0
  186.9120  175.3140  135.5540 C   0  0  1  0  0  3  0  0  0  0  0  0
  184.8000  175.5010  134.3510 N   0  0  0  0  0  1  0  0  0  0  0  0
  186.0950  174.8460  134.3590 C   0  0  0  0  0  2  0  0  0  0  0  0
  187.4800  174.1290  136.3520 C   0  0  1  0  0  3  0  0  0  0  0  0
  186.4300  173.1280  136.7280 C   0  0  0  0  0  0  0  0  0  0  0  0
  185.5670  173.4220  137.5970 O   0  0  0  0  0  0  0  0  0  0  0  0
  186.3670  171.8630  136.0720 N   0  0  0  0  0  1  0  0  0  0  0  0
  188.5300  173.4940  135.6270 O   0  0  0  0  0  0  0  0  0  0  0  0
  190.8470  172.6140  135.3620 C   0  0  0  0  0  1  0  0  0  0  0  0
  190.0500  173.6150  137.3640 O   0  0  0  0  0  0  0  0  0  0  0  0
  189.7930  173.2710  136.1790 C   0  0  0  0  0  0  0  0  0  0  0  0
  1  3  1  1  0  0  0
  2  6  1  0  0  0  0
  3  8  1  0  0  0  0
  4 16  1  0  0  0  0
  5 15  2  0  0  0  0
  5  8  1  0  0  0  0
  6 14  2  0  0  0  0
  6  1  1  0  0  0  0
  7  2  1  0  0  0  0
  8 26  1  1  0  0  0
  9 12  1  0  0  0  0
 10  4  2  0  0  0  0
 11 33  1  6  0  0  0
 11  4  1  0  0  0  0
 11 21  1  0  0  0  0
 12 17  2  0  0  0  0
 13  7  2  0  0  0  0
 16  9  2  0  0  0  0
 16 18  1  0  0  0  0
 17  5  1  0  0  0  0
 18 19  2  0  0  0  0
 19 17  1  0  0  0  0
 19  1  1  0  0  0  0
 20  7  1  0  0  0  0
 21 20  1  0  0  0  0
 22 13  2  0  0  0  0
 23 25  1  0  0  0  0
 23 22  1  0  0  0  0
 24 23  1  0  0  0  0
 24 25  1  0  0  0  0
 26 28  1  0  0  0  0
 27 26  2  0  0  0  0
 28 30  1  0  0  0  0
 28 31  1  0  0  0  0
 29 30  1  0  0  0  0
 31 32  1  0  0  0  0
 34 33  1  0  0  0  0
 34 35  1  0  0  0  0
 35 37  1  6  0  0  0
 35 38  1  0  0  0  0
 36 37  1  0  0  0  0
 38 42  1  6  0  0  0
 38 39  1  0  0  0  0
 39 40  2  0  0  0  0
 41 39  1  0  0  0  0
 42 45  1  0  0  0  0
 43 45  1  0  0  0  0
 45 44  2  0  0  0  0
M  END
>  <MODEL>
9

>  <REMARK>
 VINA RESULT:      -3.4      3.405      7.877
  Name = 
  12 active torsions:
  status: ('A' for Active; 'I' for Inactive)
    1  A    between atoms: C_2  and  N_45
    2  A    between atoms: C_4  and  N_26
    3  A    between atoms: C_4  and  C_29
    4  A    between atoms: C_6  and  C_14
    5  A    between atoms: C_6  and  C_19
    6  A    between atoms: C_6  and  O_42
    7  A    between atoms: C_10  and  C_44
    8  A    between atoms: C_12  and  C_18
    9  A    between atoms: C_14  and  N_26
   10  A    between atoms: C_14  and  C_27
   11  A    between atoms: C_35  and  N_45
   12  A    between atoms: O_42  and  C_43
                            x       y       z     vdW  Elec       q    Type
                         _______ _______ _______ _____ _____    ______ ____

>  <TORSDO>
F 12

$$$$
