=
 OpenBabel10232408403D

 28 31  0  0  1  0  0  0  0  0999 V2000
  189.0430  178.1330  141.8840 N   0  0  0  0  0  0  0  0  0  0  0  0
  190.2380  177.2440  138.7720 C   0  0  0  0  0  0  0  0  0  0  0  0
  190.6290  177.5620  140.0110 C   0  0  0  0  0  3  0  0  0  0  0  0
  188.7900  177.5800  138.4860 C   0  0  1  0  0  3  0  0  0  0  0  0
  188.4300  178.2030  139.7810 C   0  0  0  0  0  0  0  0  0  0  0  0
  187.6880  178.1140  141.7570 C   0  0  0  0  0  0  0  0  0  0  0  0
  189.4780  178.1990  140.6190 C   0  0  0  0  0  0  0  0  0  0  0  0
  188.6940  178.6150  137.3770 C   0  0  0  0  0  1  0  0  0  0  0  0
  187.2740  178.0930  140.4640 N   0  0  0  0  0  0  0  0  0  0  0  0
  190.8940  176.5850  145.4850 C   0  0  2  0  0  3  0  0  0  0  0  0
  189.4270  175.3720  142.8400 C   0  0  0  0  0  1  0  0  0  0  0  0
  190.5010  176.4380  142.9630 C   0  0  1  0  0  3  0  0  0  0  0  0
  191.0670  178.0580  145.7060 C   0  0  1  0  0  3  0  0  0  0  0  0
  189.8590  177.8370  143.0620 C   0  0  1  0  0  3  0  0  0  0  0  0
  191.9600  177.1090  146.2420 O   0  0  0  0  0  0  0  0  0  0  0  0
  191.4240  176.0830  144.1350 C   0  0  0  0  0  2  0  0  0  0  0  0
  191.7500  178.7950  144.5500 C   0  0  0  0  0  2  0  0  0  0  0  0
  190.8290  178.9990  143.3430 C   0  0  0  0  0  2  0  0  0  0  0  0
  191.0960  176.5590  137.8430 C   0  0  0  0  0  0  0  0  0  0  0  0
  191.7860  176.0090  137.0950 N   0  0  0  0  0  0  0  0  0  0  0  0
  186.7370  177.9620  142.9010 C   0  0  0  0  0  2  0  0  0  0  0  0
  185.4090  178.6660  142.6270 C   0  0  2  0  0  3  0  0  0  0  0  0
  185.6230  179.7280  141.7460 O   0  0  0  0  0  0  0  0  0  0  0  0
  184.6930  179.5880  140.8240 O   0  0  0  0  0  1  0  0  0  0  0  0
  183.2120  178.8370  143.9040 C   0  0  0  0  0  1  0  0  0  0  0  0
  184.6930  179.1780  143.8860 C   0  0  1  0  0  3  0  0  0  0  0  0
  184.4910  178.8370  146.2700 O   0  0  0  0  0  1  0  0  0  0  0  0
  185.3890  178.8250  145.2010 C   0  0  0  0  0  2  0  0  0  0  0  0
  2  3  2  0  0  0  0
  3  7  1  0  0  0  0
  4  8  1  6  0  0  0
  4  2  1  0  0  0  0
  4  5  1  0  0  0  0
  5  9  1  0  0  0  0
  5  7  2  0  0  0  0
  6  1  1  0  0  0  0
  6 21  1  0  0  0  0
  7  1  1  0  0  0  0
  9  6  2  0  0  0  0
 10 16  1  6  0  0  0
 10 13  1  0  0  0  0
 10 15  1  0  0  0  0
 12 11  1  1  0  0  0
 12 14  1  0  0  0  0
 12 16  1  0  0  0  0
 13 17  1  6  0  0  0
 13 15  1  0  0  0  0
 14  1  1  6  0  0  0
 14 18  1  0  0  0  0
 18 17  1  0  0  0  0
 19  2  1  0  0  0  0
 20 19  3  0  0  0  0
 22 21  1  1  0  0  0
 22 26  1  0  0  0  0
 23 22  1  0  0  0  0
 24 23  1  0  0  0  0
 26 25  1  1  0  0  0
 26 28  1  0  0  0  0
 28 27  1  0  0  0  0
M  END
>  <MODEL>
1

>  <REMARK>
 VINA RESULT:      -7.4      0.000      0.000
  Name = 
  7 active torsions:
  status: ('A' for Active; 'I' for Inactive)
    1  A    between atoms: C_1  and  C_4
    2  A    between atoms: O_2  and  C_26
    3  A    between atoms: N_3  and  C_20
    4  A    between atoms: C_5  and  C_15
    5  A    between atoms: C_5  and  C_26
    6  A    between atoms: C_14  and  C_23
    7  A    between atoms: C_14  and  C_26
                            x       y       z     vdW  Elec       q    Type
                         _______ _______ _______ _____ _____    ______ ____

>  <TORSDO>
F 7

$$$$
=
 OpenBabel10232408403D

 28 31  0  0  1  0  0  0  0  0999 V2000
  187.9860  177.8460  142.2180 N   0  0  0  0  0  0  0  0  0  0  0  0
  184.8800  178.5970  143.5220 C   0  0  0  0  0  0  0  0  0  0  0  0
  186.0520  178.0270  143.8250 C   0  0  0  0  0  3  0  0  0  0  0  0
  184.6790  178.8220  142.0380 C   0  0  1  0  0  3  0  0  0  0  0  0
  185.9380  178.2270  141.5340 C   0  0  0  0  0  0  0  0  0  0  0  0
  187.9660  178.3530  140.9560 C   0  0  0  0  0  0  0  0  0  0  0  0
  186.6900  177.7710  142.5490 C   0  0  0  0  0  0  0  0  0  0  0  0
  183.4940  178.0150  141.5340 C   0  0  0  0  0  1  0  0  0  0  0  0
  186.7160  178.6590  140.5230 N   0  0  0  0  0  0  0  0  0  0  0  0
  190.9700  176.6500  145.1260 C   0  0  2  0  0  3  0  0  0  0  0  0
  189.1570  175.2120  142.8310 C   0  0  0  0  0  1  0  0  0  0  0  0
  189.9860  176.4840  142.7720 C   0  0  1  0  0  3  0  0  0  0  0  0
  190.8880  178.1190  145.4140 C   0  0  1  0  0  3  0  0  0  0  0  0
  189.1180  177.7060  143.1340 C   0  0  1  0  0  3  0  0  0  0  0  0
  192.0630  177.3750  145.6400 O   0  0  0  0  0  0  0  0  0  0  0  0
  191.2290  176.3090  143.6530 C   0  0  0  0  0  2  0  0  0  0  0  0
  191.0880  179.0160  144.1880 C   0  0  0  0  0  2  0  0  0  0  0  0
  189.8690  179.0440  143.2610 C   0  0  0  0  0  2  0  0  0  0  0  0
  183.9510  179.0340  144.5280 C   0  0  0  0  0  0  0  0  0  0  0  0
  183.2030  179.3860  145.3370 N   0  0  0  0  0  0  0  0  0  0  0  0
  189.1890  178.7010  140.1690 C   0  0  0  0  0  2  0  0  0  0  0  0
  189.6350  177.5440  139.2760 C   0  0  2  0  0  3  0  0  0  0  0  0
  191.0040  177.3330  139.4450 O   0  0  0  0  0  0  0  0  0  0  0  0
  191.1550  176.0280  139.3390 O   0  0  0  0  0  1  0  0  0  0  0  0
  188.2890  176.7580  137.2620 C   0  0  0  0  0  1  0  0  0  0  0  0
  189.3230  177.7410  137.7850 C   0  0  1  0  0  3  0  0  0  0  0  0
  187.6870  179.3200  136.9690 O   0  0  0  0  0  1  0  0  0  0  0  0
  189.0130  179.1830  137.3850 C   0  0  0  0  0  2  0  0  0  0  0  0
  1  7  1  0  0  0  0
  2  3  2  0  0  0  0
  2 19  1  0  0  0  0
  4  8  1  6  0  0  0
  4  2  1  0  0  0  0
  5  4  1  0  0  0  0
  5  7  2  0  0  0  0
  6  1  1  0  0  0  0
  7  3  1  0  0  0  0
  9  6  2  0  0  0  0
  9  5  1  0  0  0  0
 10 16  1  6  0  0  0
 10 13  1  0  0  0  0
 10 15  1  0  0  0  0
 12 11  1  1  0  0  0
 12 14  1  0  0  0  0
 12 16  1  0  0  0  0
 13 17  1  6  0  0  0
 13 15  1  0  0  0  0
 14  1  1  6  0  0  0
 14 18  1  0  0  0  0
 18 17  1  0  0  0  0
 19 20  3  0  0  0  0
 21  6  1  0  0  0  0
 22 23  1  0  0  0  0
 22 21  1  1  0  0  0
 24 23  1  0  0  0  0
 26 25  1  1  0  0  0
 26 22  1  0  0  0  0
 27 28  1  0  0  0  0
 28 26  1  0  0  0  0
M  END
>  <MODEL>
2

>  <REMARK>
 VINA RESULT:      -7.0      2.517      5.650
  Name = 
  7 active torsions:
  status: ('A' for Active; 'I' for Inactive)
    1  A    between atoms: C_1  and  C_4
    2  A    between atoms: O_2  and  C_26
    3  A    between atoms: N_3  and  C_20
    4  A    between atoms: C_5  and  C_15
    5  A    between atoms: C_5  and  C_26
    6  A    between atoms: C_14  and  C_23
    7  A    between atoms: C_14  and  C_26
                            x       y       z     vdW  Elec       q    Type
                         _______ _______ _______ _____ _____    ______ ____

>  <TORSDO>
F 7

$$$$
=
 OpenBabel10232408403D

 28 31  0  0  1  0  0  0  0  0999 V2000
  189.3280  177.9270  141.4590 N   0  0  0  0  0  0  0  0  0  0  0  0
  190.2360  177.1480  138.2220 C   0  0  0  0  0  0  0  0  0  0  0  0
  190.7070  177.2150  139.4730 C   0  0  0  0  0  3  0  0  0  0  0  0
  188.9120  177.8570  138.0320 C   0  0  1  0  0  3  0  0  0  0  0  0
  188.7290  178.3910  139.4020 C   0  0  0  0  0  0  0  0  0  0  0  0
  188.0080  178.2510  141.3830 C   0  0  0  0  0  0  0  0  0  0  0  0
  189.7530  178.0340  140.1930 C   0  0  0  0  0  0  0  0  0  0  0  0
  189.0600  179.0070  137.0510 C   0  0  0  0  0  1  0  0  0  0  0  0
  187.5890  178.4840  140.1130 N   0  0  0  0  0  0  0  0  0  0  0  0
  191.9350  176.8560  144.7510 C   0  0  2  0  0  3  0  0  0  0  0  0
  190.3940  179.5260  143.6930 C   0  0  0  0  0  1  0  0  0  0  0  0
  189.8860  178.1060  143.8710 C   0  0  1  0  0  3  0  0  0  0  0  0
  191.8510  175.5400  144.0370 C   0  0  1  0  0  3  0  0  0  0  0  0
  190.0590  177.3060  142.5630 C   0  0  1  0  0  3  0  0  0  0  0  0
  192.0700  175.6270  145.4260 O   0  0  0  0  0  0  0  0  0  0  0  0
  190.5740  177.4790  145.0900 C   0  0  0  0  0  2  0  0  0  0  0  0
  190.4220  175.0500  143.7810 C   0  0  0  0  0  2  0  0  0  0  0  0
  189.7230  175.8070  142.6480 C   0  0  0  0  0  2  0  0  0  0  0  0
  190.8910  176.3920  137.1900 C   0  0  0  0  0  0  0  0  0  0  0  0
  191.4180  175.7820  136.3600 N   0  0  0  0  0  0  0  0  0  0  0  0
  187.0610  178.2000  142.5380 C   0  0  0  0  0  2  0  0  0  0  0  0
  185.6200  178.4560  142.0980 C   0  0  2  0  0  3  0  0  0  0  0  0
  185.5040  179.7710  141.6430 O   0  0  0  0  0  0  0  0  0  0  0  0
  184.9700  179.6620  140.4440 O   0  0  0  0  0  1  0  0  0  0  0  0
  185.1120  178.4000  144.5930 C   0  0  0  0  0  1  0  0  0  0  0  0
  184.5700  178.1930  143.1890 C   0  0  1  0  0  3  0  0  0  0  0  0
  182.4040  178.7790  144.0850 O   0  0  0  0  0  1  0  0  0  0  0  0
  183.2340  178.9020  142.9680 C   0  0  0  0  0  2  0  0  0  0  0  0
  2  3  2  0  0  0  0
  3  7  1  0  0  0  0
  4  8  1  6  0  0  0
  4  2  1  0  0  0  0
  4  5  1  0  0  0  0
  5  9  1  0  0  0  0
  5  7  2  0  0  0  0
  6  1  1  0  0  0  0
  6 21  1  0  0  0  0
  7  1  1  0  0  0  0
  9  6  2  0  0  0  0
 10 16  1  1  0  0  0
 10 15  1  0  0  0  0
 12 11  1  6  0  0  0
 12 16  1  0  0  0  0
 13 17  1  1  0  0  0
 13 10  1  0  0  0  0
 13 15  1  0  0  0  0
 14  1  1  6  0  0  0
 14 18  1  0  0  0  0
 14 12  1  0  0  0  0
 18 17  1  0  0  0  0
 19  2  1  0  0  0  0
 20 19  3  0  0  0  0
 22 21  1  1  0  0  0
 22 26  1  0  0  0  0
 23 22  1  0  0  0  0
 24 23  1  0  0  0  0
 26 25  1  1  0  0  0
 28 26  1  0  0  0  0
 28 27  1  0  0  0  0
M  END
>  <MODEL>
3

>  <REMARK>
 VINA RESULT:      -6.7      1.001      1.882
  Name = 
  7 active torsions:
  status: ('A' for Active; 'I' for Inactive)
    1  A    between atoms: C_1  and  C_4
    2  A    between atoms: O_2  and  C_26
    3  A    between atoms: N_3  and  C_20
    4  A    between atoms: C_5  and  C_15
    5  A    between atoms: C_5  and  C_26
    6  A    between atoms: C_14  and  C_23
    7  A    between atoms: C_14  and  C_26
                            x       y       z     vdW  Elec       q    Type
                         _______ _______ _______ _____ _____    ______ ____

>  <TORSDO>
F 7

$$$$
=
 OpenBabel10232408403D

 28 31  0  0  1  0  0  0  0  0999 V2000
  190.3210  177.1030  138.7130 N   0  0  0  0  0  0  0  0  0  0  0  0
  189.4770  177.0480  142.0590 C   0  0  0  0  0  0  0  0  0  0  0  0
  188.9640  177.2150  140.8340 C   0  0  0  0  0  3  0  0  0  0  0  0
  190.9890  177.1240  142.1000 C   0  0  1  0  0  3  0  0  0  0  0  0
  191.2520  177.4180  140.6720 C   0  0  0  0  0  0  0  0  0  0  0  0
  191.6530  176.8270  138.6840 C   0  0  0  0  0  0  0  0  0  0  0  0
  190.1040  177.4810  139.9790 C   0  0  0  0  0  0  0  0  0  0  0  0
  191.4390  178.2970  142.9550 C   0  0  0  0  0  1  0  0  0  0  0  0
  192.2490  176.9520  139.8970 N   0  0  0  0  0  0  0  0  0  0  0  0
  186.9480  176.9310  135.9960 C   0  0  2  0  0  3  0  0  0  0  0  0
  189.0180  179.1950  137.0970 C   0  0  0  0  0  1  0  0  0  0  0  0
  189.2850  177.7970  136.5660 C   0  0  1  0  0  3  0  0  0  0  0  0
  187.0100  175.5000  136.4370 C   0  0  1  0  0  3  0  0  0  0  0  0
  189.2940  176.7770  137.7230 C   0  0  1  0  0  3  0  0  0  0  0  0
  186.5110  175.8750  135.1740 O   0  0  0  0  0  0  0  0  0  0  0  0
  188.2740  177.4840  135.4560 C   0  0  0  0  0  2  0  0  0  0  0  0
  188.3830  174.8430  136.2610 C   0  0  0  0  0  2  0  0  0  0  0  0
  189.4030  175.2990  137.3090 C   0  0  0  0  0  2  0  0  0  0  0  0
  188.6630  176.7320  143.2010 C   0  0  0  0  0  0  0  0  0  0  0  0
  188.0080  176.4790  144.1200 N   0  0  0  0  0  0  0  0  0  0  0  0
  192.3740  176.2810  137.4930 C   0  0  0  0  0  2  0  0  0  0  0  0
  193.5900  175.4510  137.9020 C   0  0  2  0  0  3  0  0  0  0  0  0
  194.7270  175.9570  137.2710 O   0  0  0  0  0  0  0  0  0  0  0  0
  194.2680  176.8710  136.4410 O   0  0  0  0  0  1  0  0  0  0  0  0
  192.6610  173.6650  136.3420 C   0  0  0  0  0  1  0  0  0  0  0  0
  193.4600  173.9490  137.6040 C   0  0  1  0  0  3  0  0  0  0  0  0
  195.2730  173.0910  138.9500 O   0  0  0  0  0  1  0  0  0  0  0  0
  194.7780  173.1760  137.6470 C   0  0  0  0  0  2  0  0  0  0  0  0
  1  7  1  0  0  0  0
  2  4  1  0  0  0  0
  2 19  1  0  0  0  0
  3  2  2  0  0  0  0
  4  8  1  1  0  0  0
  5  4  1  0  0  0  0
  6  1  1  0  0  0  0
  6  9  2  0  0  0  0
  7  5  2  0  0  0  0
  7  3  1  0  0  0  0
  9  5  1  0  0  0  0
 10 16  1  6  0  0  0
 10 13  1  0  0  0  0
 12 11  1  1  0  0  0
 12 14  1  0  0  0  0
 13 17  1  6  0  0  0
 14 18  1  6  0  0  0
 14  1  1  0  0  0  0
 15 10  1  0  0  0  0
 15 13  1  0  0  0  0
 16 12  1  0  0  0  0
 17 18  1  0  0  0  0
 19 20  3  0  0  0  0
 21  6  1  0  0  0  0
 22 21  1  6  0  0  0
 23 22  1  0  0  0  0
 24 23  1  0  0  0  0
 26 25  1  6  0  0  0
 26 28  1  0  0  0  0
 26 22  1  0  0  0  0
 28 27  1  0  0  0  0
M  END
>  <MODEL>
4

>  <REMARK>
 VINA RESULT:      -6.7      4.194      8.594
  Name = 
  7 active torsions:
  status: ('A' for Active; 'I' for Inactive)
    1  A    between atoms: C_1  and  C_4
    2  A    between atoms: O_2  and  C_26
    3  A    between atoms: N_3  and  C_20
    4  A    between atoms: C_5  and  C_15
    5  A    between atoms: C_5  and  C_26
    6  A    between atoms: C_14  and  C_23
    7  A    between atoms: C_14  and  C_26
                            x       y       z     vdW  Elec       q    Type
                         _______ _______ _______ _____ _____    ______ ____

>  <TORSDO>
F 7

$$$$
=
 OpenBabel10232408403D

 28 31  0  0  1  0  0  0  0  0999 V2000
  188.9850  177.3300  141.4580 N   0  0  0  0  0  0  0  0  0  0  0  0
  189.6090  177.2910  138.0640 C   0  0  0  0  0  0  0  0  0  0  0  0
  188.6260  177.1900  138.9670 C   0  0  0  0  0  3  0  0  0  0  0  0
  190.9950  177.1560  138.6570 C   0  0  1  0  0  3  0  0  0  0  0  0
  190.6270  176.9060  140.0700 C   0  0  0  0  0  0  0  0  0  0  0  0
  190.1970  177.5560  142.0340 C   0  0  0  0  0  0  0  0  0  0  0  0
  189.2940  176.9130  140.2230 C   0  0  0  0  0  0  0  0  0  0  0  0
  191.6990  175.9350  138.0880 C   0  0  0  0  0  1  0  0  0  0  0  0
  191.2360  177.3630  141.1810 N   0  0  0  0  0  0  0  0  0  0  0  0
  184.9660  177.6630  143.0470 C   0  0  2  0  0  3  0  0  0  0  0  0
  187.6700  175.9740  143.7210 C   0  0  0  0  0  1  0  0  0  0  0  0
  187.4840  177.4540  143.4320 C   0  0  1  0  0  3  0  0  0  0  0  0
  184.8860  178.6370  141.9090 C   0  0  1  0  0  3  0  0  0  0  0  0
  187.6580  177.7320  141.9250 C   0  0  1  0  0  3  0  0  0  0  0  0
  184.0990  178.7730  143.0700 O   0  0  0  0  0  0  0  0  0  0  0  0
  186.1370  177.9090  144.0070 C   0  0  0  0  0  2  0  0  0  0  0  0
  185.9830  179.7070  141.9150 C   0  0  0  0  0  2  0  0  0  0  0  0
  187.3460  179.1690  141.4710 C   0  0  0  0  0  2  0  0  0  0  0  0
  189.3580  177.5940  136.6810 C   0  0  0  0  0  0  0  0  0  0  0  0
  189.1570  177.8370  135.5690 N   0  0  0  0  0  0  0  0  0  0  0  0
  190.3860  178.1180  143.4060 C   0  0  0  0  0  2  0  0  0  0  0  0
  191.1820  177.1680  144.3000 C   0  0  2  0  0  3  0  0  0  0  0  0
  190.8350  175.8510  143.9960 O   0  0  0  0  0  0  0  0  0  0  0  0
  191.9860  175.2400  143.8030 O   0  0  0  0  0  1  0  0  0  0  0  0
  189.5520  177.6770  146.1900 C   0  0  0  0  0  1  0  0  0  0  0  0
  190.9990  177.4160  145.8060 C   0  0  1  0  0  3  0  0  0  0  0  0
  191.9820  176.9130  147.9550 O   0  0  0  0  0  1  0  0  0  0  0  0
  191.6640  176.3750  146.7060 C   0  0  0  0  0  2  0  0  0  0  0  0
  1  6  1  0  0  0  0
  2  4  1  0  0  0  0
  2  3  2  0  0  0  0
  3  7  1  0  0  0  0
  4  8  1  6  0  0  0
  4  5  1  0  0  0  0
  5  7  2  0  0  0  0
  5  9  1  0  0  0  0
  6 21  1  0  0  0  0
  7  1  1  0  0  0  0
  9  6  2  0  0  0  0
 10 15  1  0  0  0  0
 10 16  1  1  0  0  0
 12 11  1  6  0  0  0
 12 16  1  0  0  0  0
 13 17  1  1  0  0  0
 13 10  1  0  0  0  0
 13 15  1  0  0  0  0
 14  1  1  1  0  0  0
 14 12  1  0  0  0  0
 18 17  1  0  0  0  0
 18 14  1  0  0  0  0
 19  2  1  0  0  0  0
 20 19  3  0  0  0  0
 22 21  1  6  0  0  0
 22 26  1  0  0  0  0
 23 22  1  0  0  0  0
 24 23  1  0  0  0  0
 26 25  1  6  0  0  0
 26 28  1  0  0  0  0
 28 27  1  0  0  0  0
M  END
>  <MODEL>
5

>  <REMARK>
 VINA RESULT:      -6.5      1.655      5.144
  Name = 
  7 active torsions:
  status: ('A' for Active; 'I' for Inactive)
    1  A    between atoms: C_1  and  C_4
    2  A    between atoms: O_2  and  C_26
    3  A    between atoms: N_3  and  C_20
    4  A    between atoms: C_5  and  C_15
    5  A    between atoms: C_5  and  C_26
    6  A    between atoms: C_14  and  C_23
    7  A    between atoms: C_14  and  C_26
                            x       y       z     vdW  Elec       q    Type
                         _______ _______ _______ _____ _____    ______ ____

>  <TORSDO>
F 7

$$$$
=
 OpenBabel10232408403D

 28 31  0  0  1  0  0  0  0  0999 V2000
  189.7370  176.6400  138.5470 N   0  0  0  0  0  0  0  0  0  0  0  0
  192.5160  176.1620  136.5580 C   0  0  0  0  0  0  0  0  0  0  0  0
  191.1870  176.0040  136.5860 C   0  0  0  0  0  3  0  0  0  0  0  0
  193.1250  176.4350  137.9160 C   0  0  1  0  0  3  0  0  0  0  0  0
  191.9010  176.3540  138.7470 C   0  0  0  0  0  0  0  0  0  0  0  0
  190.2150  177.2190  139.6820 C   0  0  0  0  0  0  0  0  0  0  0  0
  190.8250  176.0960  137.9860 C   0  0  0  0  0  0  0  0  0  0  0  0
  194.0800  175.3190  138.3040 C   0  0  0  0  0  1  0  0  0  0  0  0
  191.5630  177.1150  139.8060 N   0  0  0  0  0  0  0  0  0  0  0  0
  185.9550  177.9990  136.9220 C   0  0  2  0  0  3  0  0  0  0  0  0
  188.9590  179.2020  137.3160 C   0  0  0  0  0  1  0  0  0  0  0  0
  188.5040  177.8590  136.7710 C   0  0  1  0  0  3  0  0  0  0  0  0
  185.5750  176.6190  137.3670 C   0  0  1  0  0  3  0  0  0  0  0  0
  188.4340  176.8160  137.9050 C   0  0  1  0  0  3  0  0  0  0  0  0
  184.9340  177.2630  136.2910 O   0  0  0  0  0  0  0  0  0  0  0  0
  187.1870  178.0510  136.0080 C   0  0  0  0  0  2  0  0  0  0  0  0
  186.4790  175.5080  136.8220 C   0  0  0  0  0  2  0  0  0  0  0  0
  187.8420  175.4490  137.5190 C   0  0  0  0  0  2  0  0  0  0  0  0
  193.2670  176.1640  135.3320 C   0  0  0  0  0  0  0  0  0  0  0  0
  193.8710  176.1650  134.3460 N   0  0  0  0  0  0  0  0  0  0  0  0
  189.3880  178.0330  140.6240 C   0  0  0  0  0  2  0  0  0  0  0  0
  189.3060  177.3860  142.0060 C   0  0  2  0  0  3  0  0  0  0  0  0
  188.1850  177.8770  142.6780 O   0  0  0  0  0  0  0  0  0  0  0  0
  187.5100  176.8020  143.0300 O   0  0  0  0  0  1  0  0  0  0  0  0
  190.3430  178.5900  143.9960 C   0  0  0  0  0  1  0  0  0  0  0  0
  190.5570  177.5880  142.8740 C   0  0  1  0  0  3  0  0  0  0  0  0
  190.4730  175.1750  142.9610 O   0  0  0  0  0  1  0  0  0  0  0  0
  191.2060  176.2930  143.3640 C   0  0  0  0  0  2  0  0  0  0  0  0
  1  6  1  0  0  0  0
  2  3  2  0  0  0  0
  2  4  1  0  0  0  0
  3  7  1  0  0  0  0
  4  8  1  1  0  0  0
  4  5  1  0  0  0  0
  5  9  1  0  0  0  0
  6  9  2  0  0  0  0
  6 21  1  0  0  0  0
  7  1  1  0  0  0  0
  7  5  2  0  0  0  0
 10 16  1  6  0  0  0
 10 13  1  0  0  0  0
 12 11  1  1  0  0  0
 12 14  1  0  0  0  0
 13 17  1  6  0  0  0
 14 18  1  6  0  0  0
 14  1  1  0  0  0  0
 15 10  1  0  0  0  0
 15 13  1  0  0  0  0
 16 12  1  0  0  0  0
 17 18  1  0  0  0  0
 19  2  1  0  0  0  0
 20 19  3  0  0  0  0
 22 21  1  6  0  0  0
 22 23  1  0  0  0  0
 22 26  1  0  0  0  0
 23 24  1  0  0  0  0
 26 28  1  0  0  0  0
 26 25  1  1  0  0  0
 27 28  1  0  0  0  0
M  END
>  <MODEL>
6

>  <REMARK>
 VINA RESULT:      -6.3      2.974      6.407
  Name = 
  7 active torsions:
  status: ('A' for Active; 'I' for Inactive)
    1  A    between atoms: C_1  and  C_4
    2  A    between atoms: O_2  and  C_26
    3  A    between atoms: N_3  and  C_20
    4  A    between atoms: C_5  and  C_15
    5  A    between atoms: C_5  and  C_26
    6  A    between atoms: C_14  and  C_23
    7  A    between atoms: C_14  and  C_26
                            x       y       z     vdW  Elec       q    Type
                         _______ _______ _______ _____ _____    ______ ____

>  <TORSDO>
F 7

$$$$
=
 OpenBabel10232408403D

 28 31  0  0  1  0  0  0  0  0999 V2000
  185.6970  178.1740  142.3430 N   0  0  0  0  0  0  0  0  0  0  0  0
  182.4270  178.8460  141.4680 C   0  0  0  0  0  0  0  0  0  0  0  0
  183.1870  178.3670  142.4600 C   0  0  0  0  0  3  0  0  0  0  0  0
  183.1520  178.9480  140.1430 C   0  0  1  0  0  3  0  0  0  0  0  0
  184.4630  178.3880  140.5440 C   0  0  0  0  0  0  0  0  0  0  0  0
  186.4350  178.5830  141.2760 C   0  0  0  0  0  0  0  0  0  0  0  0
  184.4600  178.0520  141.8440 C   0  0  0  0  0  0  0  0  0  0  0  0
  182.5030  178.0420  139.1110 C   0  0  0  0  0  1  0  0  0  0  0  0
  185.6910  178.7860  140.1590 N   0  0  0  0  0  0  0  0  0  0  0  0
  186.5900  179.0170  146.5000 C   0  0  2  0  0  3  0  0  0  0  0  0
  184.4460  180.0270  144.2630 C   0  0  0  0  0  1  0  0  0  0  0  0
  184.8780  178.6220  144.6440 C   0  0  1  0  0  3  0  0  0  0  0  0
  187.6420  177.9900  146.2030 C   0  0  1  0  0  3  0  0  0  0  0  0
  186.0580  178.1660  143.7610 C   0  0  1  0  0  3  0  0  0  0  0  0
  187.1110  178.1680  147.4960 O   0  0  0  0  0  0  0  0  0  0  0  0
  185.1620  178.5780  146.1500 C   0  0  0  0  0  2  0  0  0  0  0  0
  187.1010  176.6840  145.6120 C   0  0  0  0  0  2  0  0  0  0  0  0
  186.6930  176.8160  144.1410 C   0  0  0  0  0  2  0  0  0  0  0  0
  181.0810  179.3060  141.6790 C   0  0  0  0  0  0  0  0  0  0  0  0
  179.9990  179.6760  141.8480 N   0  0  0  0  0  0  0  0  0  0  0  0
  187.8860  178.9390  141.3430 C   0  0  0  0  0  2  0  0  0  0  0  0
  188.7750  177.7560  140.9640 C   0  0  2  0  0  3  0  0  0  0  0  0
  189.5090  177.3540  142.0810 O   0  0  0  0  0  0  0  0  0  0  0  0
  189.5940  178.4340  142.8300 O   0  0  0  0  0  1  0  0  0  0  0  0
  190.8960  177.0600  139.7380 C   0  0  0  0  0  1  0  0  0  0  0  0
  189.7300  178.0330  139.7920 C   0  0  1  0  0  3  0  0  0  0  0  0
  188.9820  179.5400  138.0590 O   0  0  0  0  0  1  0  0  0  0  0  0
  189.0430  178.1970  138.4370 C   0  0  0  0  0  2  0  0  0  0  0  0
  2 19  1  0  0  0  0
  2  3  2  0  0  0  0
  4  8  1  6  0  0  0
  4  5  1  0  0  0  0
  4  2  1  0  0  0  0
  5  7  2  0  0  0  0
  6 21  1  0  0  0  0
  6  1  1  0  0  0  0
  7  1  1  0  0  0  0
  7  3  1  0  0  0  0
  9  5  1  0  0  0  0
  9  6  2  0  0  0  0
 10 16  1  6  0  0  0
 10 15  1  0  0  0  0
 12 11  1  6  0  0  0
 12 16  1  0  0  0  0
 13 17  1  6  0  0  0
 13 10  1  0  0  0  0
 13 15  1  0  0  0  0
 14  1  1  6  0  0  0
 14 18  1  0  0  0  0
 14 12  1  0  0  0  0
 18 17  1  0  0  0  0
 19 20  3  0  0  0  0
 22 21  1  1  0  0  0
 22 23  1  0  0  0  0
 23 24  1  0  0  0  0
 26 25  1  6  0  0  0
 26 22  1  0  0  0  0
 27 28  1  0  0  0  0
 28 26  1  0  0  0  0
M  END
>  <MODEL>
7

>  <REMARK>
 VINA RESULT:      -6.2      3.045      6.475
  Name = 
  7 active torsions:
  status: ('A' for Active; 'I' for Inactive)
    1  A    between atoms: C_1  and  C_4
    2  A    between atoms: O_2  and  C_26
    3  A    between atoms: N_3  and  C_20
    4  A    between atoms: C_5  and  C_15
    5  A    between atoms: C_5  and  C_26
    6  A    between atoms: C_14  and  C_23
    7  A    between atoms: C_14  and  C_26
                            x       y       z     vdW  Elec       q    Type
                         _______ _______ _______ _____ _____    ______ ____

>  <TORSDO>
F 7

$$$$
=
 OpenBabel10232408403D

 28 31  0  0  1  0  0  0  0  0999 V2000
  188.5620  177.5850  142.8380 N   0  0  0  0  0  0  0  0  0  0  0  0
  188.4890  177.9410  139.4060 C   0  0  0  0  0  0  0  0  0  0  0  0
  187.7050  177.7500  140.4730 C   0  0  0  0  0  3  0  0  0  0  0  0
  189.9590  177.7110  139.6830 C   0  0  1  0  0  3  0  0  0  0  0  0
  189.8730  177.3010  141.1040 C   0  0  0  0  0  0  0  0  0  0  0  0
  189.8740  177.7190  143.1750 C   0  0  0  0  0  0  0  0  0  0  0  0
  188.5990  177.3130  141.5270 C   0  0  0  0  0  0  0  0  0  0  0  0
  190.4830  176.5550  138.8480 C   0  0  0  0  0  1  0  0  0  0  0  0
  190.7110  177.6110  142.1110 N   0  0  0  0  0  0  0  0  0  0  0  0
  185.0450  179.3960  144.6100 C   0  0  2  0  0  3  0  0  0  0  0  0
  186.3780  179.1640  141.6450 C   0  0  0  0  0  1  0  0  0  0  0  0
  186.1370  178.0960  142.6980 C   0  0  1  0  0  3  0  0  0  0  0  0
  185.6730  178.7830  145.8260 C   0  0  1  0  0  3  0  0  0  0  0  0
  187.3740  177.9520  143.6080 C   0  0  1  0  0  3  0  0  0  0  0  0
  184.2820  178.9770  145.7170 O   0  0  0  0  0  0  0  0  0  0  0  0
  184.8370  178.4180  143.4460 C   0  0  0  0  0  2  0  0  0  0  0  0
  185.9850  177.2890  145.6910 C   0  0  0  0  0  2  0  0  0  0  0  0
  187.2090  177.0100  144.8140 C   0  0  0  0  0  2  0  0  0  0  0  0
  187.9780  178.4110  138.1470 C   0  0  0  0  0  0  0  0  0  0  0  0
  187.5680  178.7900  137.1340 N   0  0  0  0  0  0  0  0  0  0  0  0
  190.3580  178.1100  144.5340 C   0  0  0  0  0  2  0  0  0  0  0  0
  191.2420  177.0270  145.1510 C   0  0  2  0  0  3  0  0  0  0  0  0
  190.8770  175.7830  144.6320 O   0  0  0  0  0  0  0  0  0  0  0  0
  191.9820  175.3090  144.0960 O   0  0  0  0  0  1  0  0  0  0  0  0
  189.7980  177.1440  147.2460 C   0  0  0  0  0  1  0  0  0  0  0  0
  191.2010  176.9770  146.6860 C   0  0  1  0  0  3  0  0  0  0  0  0
  192.8330  176.2040  148.2910 O   0  0  0  0  0  1  0  0  0  0  0  0
  191.9380  175.7880  147.3030 C   0  0  0  0  0  2  0  0  0  0  0  0
  1  6  1  0  0  0  0
  2  4  1  0  0  0  0
  2  3  2  0  0  0  0
  3  7  1  0  0  0  0
  4  8  1  6  0  0  0
  4  5  1  0  0  0  0
  5  7  2  0  0  0  0
  5  9  1  0  0  0  0
  6 21  1  0  0  0  0
  7  1  1  0  0  0  0
  9  6  2  0  0  0  0
 10 16  1  6  0  0  0
 10 15  1  0  0  0  0
 10 13  1  0  0  0  0
 12 11  1  6  0  0  0
 12 16  1  0  0  0  0
 12 14  1  0  0  0  0
 13 17  1  6  0  0  0
 14  1  1  6  0  0  0
 14 18  1  0  0  0  0
 15 13  1  0  0  0  0
 18 17  1  0  0  0  0
 19  2  1  0  0  0  0
 20 19  3  0  0  0  0
 22 21  1  6  0  0  0
 22 26  1  0  0  0  0
 23 22  1  0  0  0  0
 24 23  1  0  0  0  0
 26 25  1  6  0  0  0
 26 28  1  0  0  0  0
 28 27  1  0  0  0  0
M  END
>  <MODEL>
8

>  <REMARK>
 VINA RESULT:      -6.2      2.006      5.445
  Name = 
  7 active torsions:
  status: ('A' for Active; 'I' for Inactive)
    1  A    between atoms: C_1  and  C_4
    2  A    between atoms: O_2  and  C_26
    3  A    between atoms: N_3  and  C_20
    4  A    between atoms: C_5  and  C_15
    5  A    between atoms: C_5  and  C_26
    6  A    between atoms: C_14  and  C_23
    7  A    between atoms: C_14  and  C_26
                            x       y       z     vdW  Elec       q    Type
                         _______ _______ _______ _____ _____    ______ ____

>  <TORSDO>
F 7

$$$$
=
 OpenBabel10232408403D

 28 31  0  0  1  0  0  0  0  0999 V2000
  189.7310  176.9210  139.2470 N   0  0  0  0  0  0  0  0  0  0  0  0
  190.2170  177.2100  142.6510 C   0  0  0  0  0  0  0  0  0  0  0  0
  190.4820  176.4240  141.6010 C   0  0  0  0  0  3  0  0  0  0  0  0
  189.1450  178.2440  142.3820 C   0  0  1  0  0  3  0  0  0  0  0  0
  188.8020  177.8740  140.9890 C   0  0  0  0  0  0  0  0  0  0  0  0
  189.0420  178.0410  138.8960 C   0  0  0  0  0  0  0  0  0  0  0  0
  189.5510  176.8410  140.5720 C   0  0  0  0  0  0  0  0  0  0  0  0
  187.9440  178.0120  143.2830 C   0  0  0  0  0  1  0  0  0  0  0  0
  188.5060  178.6920  139.9600 N   0  0  0  0  0  0  0  0  0  0  0  0
  191.9940  173.9950  136.9880 C   0  0  2  0  0  3  0  0  0  0  0  0
  188.8660  174.8330  137.3550 C   0  0  0  0  0  1  0  0  0  0  0  0
  190.0920  175.6980  137.1170 C   0  0  1  0  0  3  0  0  0  0  0  0
  193.1050  174.6850  137.7210 C   0  0  1  0  0  3  0  0  0  0  0  0
  190.6960  176.1530  138.4610 C   0  0  1  0  0  3  0  0  0  0  0  0
  193.2990  174.0800  136.4640 O   0  0  0  0  0  0  0  0  0  0  0  0
  191.0680  174.9390  136.2100 C   0  0  0  0  0  2  0  0  0  0  0  0
  193.1220  176.2080  137.5540 C   0  0  0  0  0  2  0  0  0  0  0  0
  192.0320  176.9120  138.3690 C   0  0  0  0  0  2  0  0  0  0  0  0
  190.9570  177.1290  143.8820 C   0  0  0  0  0  0  0  0  0  0  0  0
  191.5520  177.0640  144.8710 N   0  0  0  0  0  0  0  0  0  0  0  0
  189.0050  178.6080  137.5140 C   0  0  0  0  0  2  0  0  0  0  0  0
  187.5860  178.6220  136.9470 C   0  0  2  0  0  3  0  0  0  0  0  0
  186.7380  177.9280  137.8130 O   0  0  0  0  0  0  0  0  0  0  0  0
  185.7820  178.7870  138.1010 O   0  0  0  0  0  1  0  0  0  0  0  0
  188.8140  177.7380  134.8990 C   0  0  0  0  0  1  0  0  0  0  0  0
  187.4650  178.0390  135.5300 C   0  0  1  0  0  3  0  0  0  0  0  0
  185.2870  177.2760  134.8180 O   0  0  0  0  0  1  0  0  0  0  0  0
  186.4880  176.8710  135.4050 C   0  0  0  0  0  2  0  0  0  0  0  0
  1  7  1  0  0  0  0
  2 19  1  0  0  0  0
  3  2  2  0  0  0  0
  4  2  1  0  0  0  0
  4  8  1  1  0  0  0
  5  4  1  0  0  0  0
  6  1  1  0  0  0  0
  6  9  2  0  0  0  0
  7  5  2  0  0  0  0
  7  3  1  0  0  0  0
  9  5  1  0  0  0  0
 10 16  1  6  0  0  0
 10 13  1  0  0  0  0
 12 11  1  1  0  0  0
 12 14  1  0  0  0  0
 13 17  1  6  0  0  0
 14 18  1  6  0  0  0
 14  1  1  0  0  0  0
 15 10  1  0  0  0  0
 15 13  1  0  0  0  0
 16 12  1  0  0  0  0
 17 18  1  0  0  0  0
 19 20  3  0  0  0  0
 21  6  1  0  0  0  0
 22 21  1  1  0  0  0
 22 23  1  0  0  0  0
 23 24  1  0  0  0  0
 26 25  1  1  0  0  0
 26 22  1  0  0  0  0
 27 28  1  0  0  0  0
 28 26  1  0  0  0  0
M  END
>  <MODEL>
9

>  <REMARK>
 VINA RESULT:      -6.1      3.231      6.629
  Name = 
  7 active torsions:
  status: ('A' for Active; 'I' for Inactive)
    1  A    between atoms: C_1  and  C_4
    2  A    between atoms: O_2  and  C_26
    3  A    between atoms: N_3  and  C_20
    4  A    between atoms: C_5  and  C_15
    5  A    between atoms: C_5  and  C_26
    6  A    between atoms: C_14  and  C_23
    7  A    between atoms: C_14  and  C_26
                            x       y       z     vdW  Elec       q    Type
                         _______ _______ _______ _____ _____    ______ ____

>  <TORSDO>
F 7

$$$$
