=
 OpenBabel10232410163D

 41 45  0  0  1  0  0  0  0  0999 V2000
  189.4140  177.9050  138.9810 C   0  0  1  0  0  3  0  0  0  0  0  0
  191.3370  176.2890  139.3750 N   0  0  0  0  0  0  0  0  0  0  0  0
  188.0120  178.3760  141.0660 C   0  0  0  0  0  0  0  0  0  0  0  0
  190.5080  176.6150  137.1650 C   0  0  0  0  0  0  0  0  0  0  0  0
  186.5970  178.0350  137.5660 N   0  0  0  0  0  0  0  0  0  0  0  0
  191.4240  176.0650  138.1240 N   0  0  0  0  0  0  0  0  0  0  0  0
  189.0300  177.9420  141.8250 C   0  0  0  0  0  3  0  0  0  0  0  0
  190.1610  177.2020  141.2380 C   0  0  0  0  0  3  0  0  0  0  0  0
  186.8640  178.1640  138.9680 C   0  0  0  0  0  3  0  0  0  0  0  0
  188.7940  178.1980  136.5090 C   0  0  0  0  0  3  0  0  0  0  0  0
  189.5150  177.4500  137.5440 C   0  0  0  0  0  0  0  0  0  0  0  0
  188.0440  178.1410  139.6010 C   0  0  0  0  0  0  0  0  0  0  0  0
  190.3050  177.1130  139.9140 C   0  0  0  0  0  0  0  0  0  0  0  0
  190.7150  176.2460  135.7290 C   0  0  0  0  0  1  0  0  0  0  0  0
  187.4970  178.4680  136.5330 C   0  0  0  0  0  3  0  0  0  0  0  0
  184.2870  178.1420  138.3770 C   0  0  0  0  0  0  0  0  0  0  0  0
  185.0140  175.6240  135.7580 C   0  0  0  0  0  2  0  0  0  0  0  0
  185.1830  177.8170  137.2420 C   0  0  2  0  0  3  0  0  0  0  0  0
  183.7450  175.9100  137.9920 N   0  0  0  0  0  0  0  0  0  0  0  0
  185.9290  175.3150  136.9370 C   0  0  0  0  0  2  0  0  0  0  0  0
  184.8200  176.3380  137.0840 C   0  0  0  0  0  0  0  0  0  0  0  0
  183.5490  177.0370  138.7680 O   0  0  0  0  0  0  0  0  0  0  0  0
  184.1680  179.3350  138.9390 C   0  0  0  0  0  2  0  0  0  0  0  0
  182.5120  175.7280  137.2290 C   0  0  0  0  0  2  0  0  0  0  0  0
  181.9250  174.3510  137.4910 C   0  0  0  0  0  2  0  0  0  0  0  0
  181.9650  173.5070  136.2300 C   0  0  0  0  0  2  0  0  0  0  0  0
  182.4650  172.1150  136.5670 C   0  0  0  0  0  2  0  0  0  0  0  0
  184.8750  171.6950  136.1200 C   0  0  0  0  0  1  0  0  0  0  0  0
  183.8660  172.1880  137.1410 C   0  0  0  0  0  2  0  0  0  0  0  0
  186.9120  179.0340  141.6370 O   0  0  0  0  0  0  0  0  0  0  0  0
  185.7460  178.3670  142.1060 C   0  0  0  0  0  2  0  0  0  0  0  0
  185.9910  177.7590  143.4810 C   0  0  0  0  0  2  0  0  0  0  0  0
  185.6080  178.6980  144.5280 N   0  0  0  0  0  2  0  0  0  0  0  0
  186.0350  178.5750  145.8880 C   0  0  0  0  0  0  0  0  0  0  0  0
  185.7270  179.4720  146.7150 O   0  0  0  0  0  0  0  0  0  0  0  0
  186.8120  177.3860  146.3540 C   0  0  0  0  0  2  0  0  0  0  0  0
  188.7270  177.8100  147.8180 C   0  0  0  0  0  2  0  0  0  0  0  0
  188.2480  177.7440  146.5770 C   0  0  0  0  0  0  0  0  0  0  0  0
  189.1720  177.9380  145.4140 C   0  0  0  0  0  2  0  0  0  0  0  0
  191.1930  176.5770  145.0540 C   0  0  0  0  0  2  0  0  0  0  0  0
  190.5700  177.5220  145.7570 C   0  0  0  0  0  3  0  0  0  0  0  0
  1 11  1  6  0  0  0
  1 12  1  0  0  0  0
  1 13  1  0  0  0  0
  2 13  1  0  0  0  0
  3 30  1  0  0  0  0
  3  7  2  0  0  0  0
  4 11  2  0  0  0  0
  4  6  1  0  0  0  0
  5  9  1  0  0  0  0
  6  2  2  0  0  0  0
  8  7  1  0  0  0  0
  9 12  2  0  0  0  0
 10 15  2  0  0  0  0
 10 11  1  0  0  0  0
 12  3  1  0  0  0  0
 13  8  2  0  0  0  0
 14  4  1  0  0  0  0
 15  5  1  0  0  0  0
 16 22  1  0  0  0  0
 16 23  2  0  0  0  0
 17 20  1  0  0  0  0
 17 21  1  0  0  0  0
 18  5  1  1  0  0  0
 18 16  1  0  0  0  0
 19 22  1  0  0  0  0
 20 21  1  0  0  0  0
 21 18  1  0  0  0  0
 21 19  1  0  0  0  0
 24 25  1  0  0  0  0
 24 19  1  0  0  0  0
 26 27  1  0  0  0  0
 26 25  1  0  0  0  0
 27 29  1  0  0  0  0
 28 29  1  0  0  0  0
 30 31  1  0  0  0  0
 31 32  1  0  0  0  0
 32 33  1  0  0  0  0
 33 34  1  0  0  0  0
 34 36  1  0  0  0  0
 34 35  2  0  0  0  0
 36 38  1  0  0  0  0
 38 37  2  0  0  0  0
 39 41  1  0  0  0  0
 39 38  1  0  0  0  0
 40 41  2  0  0  0  0
M  END
>  <MODEL>
1

>  <REMARK>
 VINA RESULT:      -7.5      0.000      0.000
  Name = 
  14 active torsions:
  status: ('A' for Active; 'I' for Inactive)
    1  A    between atoms: C_6  and  N_15
    2  A    between atoms: C_7  and  O_16
    3  A    between atoms: N_8  and  C_13
    4  A    between atoms: C_10  and  O_16
    5  A    between atoms: C_10  and  C_27
    6  A    between atoms: C_13  and  C_32
    7  A    between atoms: N_14  and  C_27
    8  A    between atoms: C_17  and  C_20
    9  A    between atoms: C_17  and  C_23
   10  A    between atoms: C_20  and  C_22
   11  A    between atoms: C_21  and  C_32
   12  A    between atoms: C_21  and  C_33
   13  A    between atoms: C_23  and  C_40
   14  A    between atoms: C_33  and  C_39
                            x       y       z     vdW  Elec       q    Type
                         _______ _______ _______ _____ _____    ______ ____

>  <TORSDO>
F 14

$$$$
=
 OpenBabel10232410163D

 41 45  0  0  1  0  0  0  0  0999 V2000
  189.1690  178.0530  139.1130 C   0  0  1  0  0  3  0  0  0  0  0  0
  191.2430  176.9230  140.0540 N   0  0  0  0  0  0  0  0  0  0  0  0
  187.3270  178.4430  140.8410 C   0  0  0  0  0  0  0  0  0  0  0  0
  190.8140  176.8310  137.7120 C   0  0  0  0  0  0  0  0  0  0  0  0
  186.7060  177.4430  137.2380 N   0  0  0  0  0  0  0  0  0  0  0  0
  191.6110  176.5890  138.8810 N   0  0  0  0  0  0  0  0  0  0  0  0
  188.2410  178.3140  141.8160 C   0  0  0  0  0  3  0  0  0  0  0  0
  189.5800  177.7660  141.5400 C   0  0  0  0  0  3  0  0  0  0  0  0
  186.6670  177.7740  138.6320 C   0  0  0  0  0  3  0  0  0  0  0  0
  188.9980  177.9440  136.5550 C   0  0  0  0  0  3  0  0  0  0  0  0
  189.6290  177.4770  137.7930 C   0  0  0  0  0  0  0  0  0  0  0  0
  187.6850  178.0650  139.4520 C   0  0  0  0  0  0  0  0  0  0  0  0
  189.9920  177.5680  140.2860 C   0  0  0  0  0  0  0  0  0  0  0  0
  191.3590  176.3610  136.4000 C   0  0  0  0  0  1  0  0  0  0  0  0
  187.6930  177.9410  136.3220 C   0  0  0  0  0  3  0  0  0  0  0  0
  184.3110  177.1190  137.6430 C   0  0  0  0  0  0  0  0  0  0  0  0
  185.9860  174.6140  135.4890 C   0  0  0  0  0  2  0  0  0  0  0  0
  185.4460  176.9030  136.7150 C   0  0  2  0  0  3  0  0  0  0  0  0
  184.2970  174.8000  137.4360 N   0  0  0  0  0  0  0  0  0  0  0  0
  186.7110  174.6030  136.8290 C   0  0  0  0  0  2  0  0  0  0  0  0
  185.4160  175.3730  136.6730 C   0  0  0  0  0  0  0  0  0  0  0  0
  183.7440  175.9170  138.0340 O   0  0  0  0  0  0  0  0  0  0  0  0
  183.8580  178.3000  138.0350 C   0  0  0  0  0  2  0  0  0  0  0  0
  183.2850  174.2980  136.5080 C   0  0  0  0  0  2  0  0  0  0  0  0
  182.7430  172.9620  136.9870 C   0  0  0  0  0  2  0  0  0  0  0  0
  183.8680  171.9520  137.1300 C   0  0  0  0  0  2  0  0  0  0  0  0
  184.1180  171.2790  135.7950 C   0  0  0  0  0  2  0  0  0  0  0  0
  183.8520  168.8110  135.9520 C   0  0  0  0  0  1  0  0  0  0  0  0
  183.1610  170.1180  135.6080 C   0  0  0  0  0  2  0  0  0  0  0  0
  186.0360  178.9170  141.1180 O   0  0  0  0  0  0  0  0  0  0  0  0
  185.6710  179.5540  142.3380 C   0  0  0  0  0  2  0  0  0  0  0  0
  185.0400  178.5550  143.2990 C   0  0  0  0  0  2  0  0  0  0  0  0
  184.8740  179.1540  144.6180 N   0  0  0  0  0  2  0  0  0  0  0  0
  185.5630  178.6900  145.7830 C   0  0  0  0  0  0  0  0  0  0  0  0
  185.4260  179.3110  146.8690 O   0  0  0  0  0  0  0  0  0  0  0  0
  186.4140  177.4620  145.7450 C   0  0  0  0  0  2  0  0  0  0  0  0
  188.0130  177.6500  147.5880 C   0  0  0  0  0  2  0  0  0  0  0  0
  187.7820  177.7470  146.2800 C   0  0  0  0  0  0  0  0  0  0  0  0
  188.9150  178.0490  145.3480 C   0  0  0  0  0  2  0  0  0  0  0  0
  191.1600  177.1830  144.8280 C   0  0  0  0  0  2  0  0  0  0  0  0
  189.9950  177.0170  145.4520 C   0  0  0  0  0  3  0  0  0  0  0  0
  1 11  1  6  0  0  0
  1 12  1  0  0  0  0
  1 13  1  0  0  0  0
  2 13  1  0  0  0  0
  3 30  1  0  0  0  0
  3  7  2  0  0  0  0
  4 11  2  0  0  0  0
  4  6  1  0  0  0  0
  5  9  1  0  0  0  0
  6  2  2  0  0  0  0
  8  7  1  0  0  0  0
  9 12  2  0  0  0  0
 10 11  1  0  0  0  0
 12  3  1  0  0  0  0
 13  8  2  0  0  0  0
 14  4  1  0  0  0  0
 15 10  2  0  0  0  0
 15  5  1  0  0  0  0
 16 22  1  0  0  0  0
 16 23  2  0  0  0  0
 17 21  1  0  0  0  0
 17 20  1  0  0  0  0
 18  5  1  1  0  0  0
 18 16  1  0  0  0  0
 19 22  1  0  0  0  0
 21 18  1  0  0  0  0
 21 20  1  0  0  0  0
 21 19  1  0  0  0  0
 24 25  1  0  0  0  0
 24 19  1  0  0  0  0
 25 26  1  0  0  0  0
 27 26  1  0  0  0  0
 29 27  1  0  0  0  0
 29 28  1  0  0  0  0
 30 31  1  0  0  0  0
 31 32  1  0  0  0  0
 32 33  1  0  0  0  0
 33 34  1  0  0  0  0
 34 35  2  0  0  0  0
 36 34  1  0  0  0  0
 36 38  1  0  0  0  0
 38 37  2  0  0  0  0
 39 41  1  0  0  0  0
 39 38  1  0  0  0  0
 40 41  2  0  0  0  0
M  END
>  <MODEL>
2

>  <REMARK>
 VINA RESULT:      -7.4      1.020      1.224
  Name = 
  14 active torsions:
  status: ('A' for Active; 'I' for Inactive)
    1  A    between atoms: C_6  and  N_15
    2  A    between atoms: C_7  and  O_16
    3  A    between atoms: N_8  and  C_13
    4  A    between atoms: C_10  and  O_16
    5  A    between atoms: C_10  and  C_27
    6  A    between atoms: C_13  and  C_32
    7  A    between atoms: N_14  and  C_27
    8  A    between atoms: C_17  and  C_20
    9  A    between atoms: C_17  and  C_23
   10  A    between atoms: C_20  and  C_22
   11  A    between atoms: C_21  and  C_32
   12  A    between atoms: C_21  and  C_33
   13  A    between atoms: C_23  and  C_40
   14  A    between atoms: C_33  and  C_39
                            x       y       z     vdW  Elec       q    Type
                         _______ _______ _______ _____ _____    ______ ____

>  <TORSDO>
F 14

$$$$
=
 OpenBabel10232410163D

 41 45  0  0  1  0  0  0  0  0999 V2000
  186.2970  176.4680  137.0600 C   0  0  0  0  0  0  0  0  0  0  0  0
  185.6940  174.1380  136.2400 N   0  0  0  0  0  2  0  0  0  0  0  0
  188.6990  176.6800  137.9050 C   0  0  0  0  0  0  0  0  0  0  0  0
  183.9630  175.6410  136.8890 C   0  0  0  0  0  0  0  0  0  0  0  0
  185.7180  178.4250  139.4660 N   0  0  0  0  0  0  0  0  0  0  0  0
  184.4530  174.4060  136.3460 N   0  0  0  0  0  0  0  0  0  0  0  0
  189.0170  175.5680  137.2240 C   0  0  0  0  0  3  0  0  0  0  0  0
  187.9740  174.6850  136.6740 C   0  0  0  0  0  3  0  0  0  0  0  0
  186.9830  177.8590  139.1010 C   0  0  0  0  0  3  0  0  0  0  0  0
  184.2630  177.9500  137.5620 C   0  0  0  0  0  3  0  0  0  0  0  0
  184.8090  176.6180  137.2840 C   0  0  0  0  0  0  0  0  0  0  0  0
  187.2720  177.0490  138.0740 C   0  0  0  0  0  0  0  0  0  0  0  0
  186.6940  175.0620  136.6650 C   0  0  0  0  0  0  0  0  0  0  0  0
  182.4780  175.8100  136.9780 C   0  0  0  0  0  1  0  0  0  0  0  0
  184.6840  178.7560  138.5260 C   0  0  0  0  0  3  0  0  0  0  0  0
  186.8910  178.6740  141.6040 C   0  0  0  0  0  0  0  0  0  0  0  0
  183.1980  178.9570  141.6910 C   0  0  0  0  0  2  0  0  0  0  0  0
  185.6960  179.0310  140.8020 C   0  0  2  0  0  3  0  0  0  0  0  0
  185.1750  177.8850  142.9660 N   0  0  0  0  0  0  0  0  0  0  0  0
  183.5250  177.5840  141.1160 C   0  0  0  0  0  2  0  0  0  0  0  0
  184.6230  178.4360  141.7180 C   0  0  0  0  0  0  0  0  0  0  0  0
  186.5370  178.0100  142.7660 O   0  0  0  0  0  0  0  0  0  0  0  0
  188.1410  178.9710  141.2850 C   0  0  0  0  0  2  0  0  0  0  0  0
  184.8470  178.7780  144.0750 C   0  0  0  0  0  2  0  0  0  0  0  0
  185.0100  178.0550  145.4020 C   0  0  0  0  0  2  0  0  0  0  0  0
  186.1110  178.6980  146.2260 C   0  0  0  0  0  2  0  0  0  0  0  0
  187.2940  177.7540  146.3160 C   0  0  0  0  0  2  0  0  0  0  0  0
  187.9590  177.5960  148.7080 C   0  0  0  0  0  1  0  0  0  0  0  0
  188.2710  178.2400  147.3690 C   0  0  0  0  0  2  0  0  0  0  0  0
  189.6950  177.4910  138.4720 O   0  0  0  0  0  0  0  0  0  0  0  0
  191.0000  177.0280  138.8030 C   0  0  0  0  0  2  0  0  0  0  0  0
  191.2530  177.1590  140.2990 C   0  0  0  0  0  2  0  0  0  0  0  0
  190.2320  176.4410  141.0520 N   0  0  0  0  0  2  0  0  0  0  0  0
  190.3390  176.1640  142.4510 C   0  0  0  0  0  0  0  0  0  0  0  0
  189.3780  175.6090  143.0460 O   0  0  0  0  0  0  0  0  0  0  0  0
  191.5820  176.4880  143.2150 C   0  0  0  0  0  2  0  0  0  0  0  0
  191.3570  178.8340  143.8760 C   0  0  0  0  0  2  0  0  0  0  0  0
  191.3170  177.5510  144.2340 C   0  0  0  0  0  0  0  0  0  0  0  0
  190.9160  177.1840  145.6290 C   0  0  0  0  0  2  0  0  0  0  0  0
  192.0140  176.0850  147.5390 C   0  0  0  0  0  2  0  0  0  0  0  0
  191.8580  176.1810  146.2200 C   0  0  0  0  0  3  0  0  0  0  0  0
  1 11  2  0  0  0  0
  1 12  1  0  0  0  0
  2  6  1  0  0  0  0
  2 13  1  0  0  0  0
  3 12  1  0  0  0  0
  3 30  1  0  0  0  0
  4 14  1  0  0  0  0
  4 11  1  0  0  0  0
  6  4  2  0  0  0  0
  7  3  2  0  0  0  0
  8  7  1  0  0  0  0
  9  5  1  0  0  0  0
 10 15  2  0  0  0  0
 11 10  1  0  0  0  0
 12  9  2  0  0  0  0
 13  8  2  0  0  0  0
 13  1  1  0  0  0  0
 15  5  1  0  0  0  0
 16 22  1  0  0  0  0
 17 21  1  0  0  0  0
 18  5  1  6  0  0  0
 18 16  1  0  0  0  0
 18 21  1  0  0  0  0
 19 24  1  0  0  0  0
 20 17  1  0  0  0  0
 20 21  1  0  0  0  0
 21 19  1  0  0  0  0
 22 19  1  0  0  0  0
 23 16  2  0  0  0  0
 24 25  1  0  0  0  0
 25 26  1  0  0  0  0
 26 27  1  0  0  0  0
 27 29  1  0  0  0  0
 29 28  1  0  0  0  0
 30 31  1  0  0  0  0
 31 32  1  0  0  0  0
 32 33  1  0  0  0  0
 33 34  1  0  0  0  0
 34 35  2  0  0  0  0
 34 36  1  0  0  0  0
 36 38  1  0  0  0  0
 37 38  2  0  0  0  0
 38 39  1  0  0  0  0
 39 41  1  0  0  0  0
 41 40  2  0  0  0  0
M  END
>  <MODEL>
3

>  <REMARK>
 VINA RESULT:      -7.3      2.032      6.468
  Name = 
  14 active torsions:
  status: ('A' for Active; 'I' for Inactive)
    1  A    between atoms: C_6  and  N_15
    2  A    between atoms: C_7  and  O_16
    3  A    between atoms: N_8  and  C_13
    4  A    between atoms: C_10  and  O_16
    5  A    between atoms: C_10  and  C_27
    6  A    between atoms: C_13  and  C_32
    7  A    between atoms: N_14  and  C_27
    8  A    between atoms: C_17  and  C_20
    9  A    between atoms: C_17  and  C_23
   10  A    between atoms: C_20  and  C_22
   11  A    between atoms: C_21  and  C_32
   12  A    between atoms: C_21  and  C_33
   13  A    between atoms: C_23  and  C_40
   14  A    between atoms: C_33  and  C_39
                            x       y       z     vdW  Elec       q    Type
                         _______ _______ _______ _____ _____    ______ ____

>  <TORSDO>
F 14

$$$$
=
 OpenBabel10232410163D

 41 45  0  0  1  0  0  0  0  0999 V2000
  187.3430  178.5010  146.0690 C   0  0  1  0  0  3  0  0  0  0  0  0
  186.9780  177.8250  148.4930 N   0  0  0  0  0  0  0  0  0  0  0  0
  185.2140  178.4810  144.6560 C   0  0  0  0  0  0  0  0  0  0  0  0
  189.1570  177.6640  147.5420 C   0  0  0  0  0  0  0  0  0  0  0  0
  188.6250  177.4030  143.4040 N   0  0  0  0  0  0  0  0  0  0  0  0
  188.2220  177.5850  148.6280 N   0  0  0  0  0  0  0  0  0  0  0  0
  184.4870  178.5380  145.7840 C   0  0  0  0  0  3  0  0  0  0  0  0
  185.0990  178.2870  147.1000 C   0  0  0  0  0  3  0  0  0  0  0  0
  187.2440  177.7070  143.6350 C   0  0  0  0  0  3  0  0  0  0  0  0
  189.7920  178.3810  145.3150 C   0  0  0  0  0  3  0  0  0  0  0  0
  188.7650  178.0460  146.3060 C   0  0  0  0  0  0  0  0  0  0  0  0
  186.6680  178.1990  144.7390 C   0  0  0  0  0  0  0  0  0  0  0  0
  186.4240  178.1900  147.2310 C   0  0  0  0  0  0  0  0  0  0  0  0
  190.5850  177.3310  147.8400 C   0  0  0  0  0  1  0  0  0  0  0  0
  189.7160  178.1050  144.0210 C   0  0  0  0  0  3  0  0  0  0  0  0
  190.2420  176.0520  142.1530 C   0  0  0  0  0  0  0  0  0  0  0  0
  187.6820  177.8430  140.1630 C   0  0  0  0  0  2  0  0  0  0  0  0
  188.8710  176.6150  142.1910 C   0  0  2  0  0  3  0  0  0  0  0  0
  190.2110  177.3090  140.1930 N   0  0  0  0  0  0  0  0  0  0  0  0
  188.4420  178.8960  140.9590 C   0  0  0  0  0  2  0  0  0  0  0  0
  188.9420  177.4660  140.9210 C   0  0  0  0  0  0  0  0  0  0  0  0
  190.9420  176.5040  141.0470 O   0  0  0  0  0  0  0  0  0  0  0  0
  190.7430  175.2000  143.0350 C   0  0  0  0  0  2  0  0  0  0  0  0
  189.9810  176.5140  138.9890 C   0  0  0  0  0  2  0  0  0  0  0  0
  190.5560  177.2190  137.7710 C   0  0  0  0  0  2  0  0  0  0  0  0
  189.4840  177.4110  136.7130 C   0  0  0  0  0  2  0  0  0  0  0  0
  188.9140  178.8130  136.8180 C   0  0  0  0  0  2  0  0  0  0  0  0
  186.9360  177.3510  136.4490 C   0  0  0  0  0  1  0  0  0  0  0  0
  187.4130  178.7830  136.6050 C   0  0  0  0  0  2  0  0  0  0  0  0
  184.6160  178.6700  143.4000 O   0  0  0  0  0  0  0  0  0  0  0  0
  183.2180  178.8550  143.2090 C   0  0  0  0  0  2  0  0  0  0  0  0
  182.8260  178.5400  141.7710 C   0  0  0  0  0  2  0  0  0  0  0  0
  183.9300  178.8370  140.8670 N   0  0  0  0  0  2  0  0  0  0  0  0
  183.7560  179.4780  139.6000 C   0  0  0  0  0  0  0  0  0  0  0  0
  184.7690  179.7720  138.9120 O   0  0  0  0  0  0  0  0  0  0  0  0
  182.3950  179.7760  139.0600 C   0  0  0  0  0  2  0  0  0  0  0  0
  181.4970  179.1610  136.8680 C   0  0  0  0  0  2  0  0  0  0  0  0
  181.9950  178.7610  138.0370 C   0  0  0  0  0  0  0  0  0  0  0  0
  182.2370  177.3020  138.2790 C   0  0  0  0  0  2  0  0  0  0  0  0
  183.8240  175.5610  137.5640 C   0  0  0  0  0  2  0  0  0  0  0  0
  183.2940  176.7670  137.3640 C   0  0  0  0  0  3  0  0  0  0  0  0
  1 12  1  6  0  0  0
  1 11  1  0  0  0  0
  1 13  1  0  0  0  0
  2  6  2  0  0  0  0
  3 12  1  0  0  0  0
  3  7  2  0  0  0  0
  4 14  1  0  0  0  0
  4  6  1  0  0  0  0
  5  9  1  0  0  0  0
  5 15  1  0  0  0  0
  7  8  1  0  0  0  0
  8 13  2  0  0  0  0
  9 12  2  0  0  0  0
 10 11  1  0  0  0  0
 11  4  2  0  0  0  0
 13  2  1  0  0  0  0
 15 10  2  0  0  0  0
 16 18  1  0  0  0  0
 16 23  2  0  0  0  0
 17 21  1  0  0  0  0
 17 20  1  0  0  0  0
 18  5  1  1  0  0  0
 19 21  1  0  0  0  0
 19 22  1  0  0  0  0
 21 20  1  0  0  0  0
 21 18  1  0  0  0  0
 22 16  1  0  0  0  0
 24 19  1  0  0  0  0
 25 24  1  0  0  0  0
 26 27  1  0  0  0  0
 26 25  1  0  0  0  0
 28 29  1  0  0  0  0
 29 27  1  0  0  0  0
 30  3  1  0  0  0  0
 31 30  1  0  0  0  0
 32 31  1  0  0  0  0
 33 32  1  0  0  0  0
 34 33  1  0  0  0  0
 35 34  2  0  0  0  0
 36 34  1  0  0  0  0
 37 38  2  0  0  0  0
 38 39  1  0  0  0  0
 38 36  1  0  0  0  0
 41 40  2  0  0  0  0
 41 39  1  0  0  0  0
M  END
>  <MODEL>
4

>  <REMARK>
 VINA RESULT:      -7.1      2.218      8.058
  Name = 
  14 active torsions:
  status: ('A' for Active; 'I' for Inactive)
    1  A    between atoms: C_6  and  N_15
    2  A    between atoms: C_7  and  O_16
    3  A    between atoms: N_8  and  C_13
    4  A    between atoms: C_10  and  O_16
    5  A    between atoms: C_10  and  C_27
    6  A    between atoms: C_13  and  C_32
    7  A    between atoms: N_14  and  C_27
    8  A    between atoms: C_17  and  C_20
    9  A    between atoms: C_17  and  C_23
   10  A    between atoms: C_20  and  C_22
   11  A    between atoms: C_21  and  C_32
   12  A    between atoms: C_21  and  C_33
   13  A    between atoms: C_23  and  C_40
   14  A    between atoms: C_33  and  C_39
                            x       y       z     vdW  Elec       q    Type
                         _______ _______ _______ _____ _____    ______ ____

>  <TORSDO>
F 14

$$$$
=
 OpenBabel10232410163D

 41 45  0  0  1  0  0  0  0  0999 V2000
  189.1160  177.9710  138.6430 C   0  0  1  0  0  3  0  0  0  0  0  0
  191.2110  176.6660  139.2530 N   0  0  0  0  0  0  0  0  0  0  0  0
  187.5270  178.3570  140.6070 C   0  0  0  0  0  0  0  0  0  0  0  0
  190.4950  176.7480  136.9820 C   0  0  0  0  0  0  0  0  0  0  0  0
  186.4090  177.6250  137.0600 N   0  0  0  0  0  0  0  0  0  0  0  0
  191.4110  176.3860  138.0260 N   0  0  0  0  0  0  0  0  0  0  0  0
  188.5410  178.1130  141.4520 C   0  0  0  0  0  3  0  0  0  0  0  0
  189.7990  177.5080  140.9800 C   0  0  0  0  0  3  0  0  0  0  0  0
  186.5610  177.8690  138.4640 C   0  0  0  0  0  3  0  0  0  0  0  0
  188.6290  178.0350  136.1250 C   0  0  0  0  0  3  0  0  0  0  0  0
  189.3740  177.4550  137.2460 C   0  0  0  0  0  0  0  0  0  0  0  0
  187.6880  178.0480  139.1650 C   0  0  0  0  0  0  0  0  0  0  0  0
  190.0420  177.3660  139.6760 C   0  0  0  0  0  0  0  0  0  0  0  0
  190.8460  176.3320  135.5880 C   0  0  0  0  0  1  0  0  0  0  0  0
  187.3080  178.1220  136.0560 C   0  0  0  0  0  3  0  0  0  0  0  0
  184.0660  177.4060  137.7450 C   0  0  0  0  0  0  0  0  0  0  0  0
  185.3010  174.9680  135.2440 C   0  0  0  0  0  2  0  0  0  0  0  0
  185.0630  177.1930  136.6680 C   0  0  2  0  0  3  0  0  0  0  0  0
  183.8800  175.1110  137.3990 N   0  0  0  0  0  0  0  0  0  0  0  0
  186.1830  174.8240  136.4790 C   0  0  0  0  0  2  0  0  0  0  0  0
  184.9300  175.6730  136.5360 C   0  0  0  0  0  0  0  0  0  0  0  0
  183.4770  176.2130  138.1300 O   0  0  0  0  0  0  0  0  0  0  0  0
  183.7410  178.5800  138.2640 C   0  0  0  0  0  2  0  0  0  0  0  0
  182.7320  174.7320  136.5780 C   0  0  0  0  0  2  0  0  0  0  0  0
  181.7670  173.8750  137.3810 C   0  0  0  0  0  2  0  0  0  0  0  0
  180.5010  174.6520  137.6950 C   0  0  0  0  0  2  0  0  0  0  0  0
  180.4060  174.8820  139.1910 C   0  0  0  0  0  2  0  0  0  0  0  0
  180.0600  177.1280  138.1790 C   0  0  0  0  0  1  0  0  0  0  0  0
  180.1650  176.3510  139.4790 C   0  0  0  0  0  2  0  0  0  0  0  0
  186.3120  178.8860  141.0690 O   0  0  0  0  0  0  0  0  0  0  0  0
  186.1320  179.4360  142.3700 C   0  0  0  0  0  2  0  0  0  0  0  0
  185.4550  178.4300  143.2910 C   0  0  0  0  0  2  0  0  0  0  0  0
  185.1260  179.0500  144.5680 N   0  0  0  0  0  2  0  0  0  0  0  0
  185.6650  178.6080  145.8170 C   0  0  0  0  0  0  0  0  0  0  0  0
  185.3950  179.2470  146.8680 O   0  0  0  0  0  0  0  0  0  0  0  0
  186.5150  177.3820  145.9060 C   0  0  0  0  0  2  0  0  0  0  0  0
  188.3890  177.7180  147.4440 C   0  0  0  0  0  2  0  0  0  0  0  0
  187.9390  177.7420  146.1900 C   0  0  0  0  0  0  0  0  0  0  0  0
  188.8860  178.0390  145.0680 C   0  0  0  0  0  2  0  0  0  0  0  0
  191.0760  176.9170  144.9710 C   0  0  0  0  0  2  0  0  0  0  0  0
  189.7610  176.8600  144.7690 C   0  0  0  0  0  3  0  0  0  0  0  0
  1 11  1  6  0  0  0
  1 12  1  0  0  0  0
  1 13  1  0  0  0  0
  2 13  1  0  0  0  0
  3 30  1  0  0  0  0
  3  7  2  0  0  0  0
  4 11  2  0  0  0  0
  4  6  1  0  0  0  0
  5  9  1  0  0  0  0
  6  2  2  0  0  0  0
  8  7  1  0  0  0  0
  9 12  2  0  0  0  0
 10 11  1  0  0  0  0
 12  3  1  0  0  0  0
 13  8  2  0  0  0  0
 14  4  1  0  0  0  0
 15 10  2  0  0  0  0
 15  5  1  0  0  0  0
 16 22  1  0  0  0  0
 16 23  2  0  0  0  0
 17 20  1  0  0  0  0
 17 21  1  0  0  0  0
 18  5  1  1  0  0  0
 18 16  1  0  0  0  0
 19 22  1  0  0  0  0
 20 21  1  0  0  0  0
 21 18  1  0  0  0  0
 21 19  1  0  0  0  0
 24 25  1  0  0  0  0
 24 19  1  0  0  0  0
 25 26  1  0  0  0  0
 26 27  1  0  0  0  0
 27 29  1  0  0  0  0
 28 29  1  0  0  0  0
 30 31  1  0  0  0  0
 31 32  1  0  0  0  0
 32 33  1  0  0  0  0
 33 34  1  0  0  0  0
 34 36  1  0  0  0  0
 34 35  2  0  0  0  0
 36 38  1  0  0  0  0
 38 37  2  0  0  0  0
 39 38  1  0  0  0  0
 41 40  2  0  0  0  0
 41 39  1  0  0  0  0
M  END
>  <MODEL>
5

>  <REMARK>
 VINA RESULT:      -6.9      1.058      1.829
  Name = 
  14 active torsions:
  status: ('A' for Active; 'I' for Inactive)
    1  A    between atoms: C_6  and  N_15
    2  A    between atoms: C_7  and  O_16
    3  A    between atoms: N_8  and  C_13
    4  A    between atoms: C_10  and  O_16
    5  A    between atoms: C_10  and  C_27
    6  A    between atoms: C_13  and  C_32
    7  A    between atoms: N_14  and  C_27
    8  A    between atoms: C_17  and  C_20
    9  A    between atoms: C_17  and  C_23
   10  A    between atoms: C_20  and  C_22
   11  A    between atoms: C_21  and  C_32
   12  A    between atoms: C_21  and  C_33
   13  A    between atoms: C_23  and  C_40
   14  A    between atoms: C_33  and  C_39
                            x       y       z     vdW  Elec       q    Type
                         _______ _______ _______ _____ _____    ______ ____

>  <TORSDO>
F 14

$$$$
=
 OpenBabel10232410163D

 41 45  0  0  1  0  0  0  0  0999 V2000
  187.3980  178.4400  146.0120 C   0  0  1  0  0  3  0  0  0  0  0  0
  187.0680  177.6340  148.4000 N   0  0  0  0  0  0  0  0  0  0  0  0
  185.2560  178.4580  144.6190 C   0  0  0  0  0  0  0  0  0  0  0  0
  189.2400  177.5590  147.4230 C   0  0  0  0  0  0  0  0  0  0  0  0
  188.6710  177.5020  143.2820 N   0  0  0  0  0  0  0  0  0  0  0  0
  188.3180  177.4080  148.5120 N   0  0  0  0  0  0  0  0  0  0  0  0
  184.5400  178.4450  145.7540 C   0  0  0  0  0  3  0  0  0  0  0  0
  185.1680  178.1370  147.0500 C   0  0  0  0  0  3  0  0  0  0  0  0
  187.2880  177.7700  143.5410 C   0  0  0  0  0  3  0  0  0  0  0  0
  189.8420  178.3990  145.2300 C   0  0  0  0  0  3  0  0  0  0  0  0
  188.8290  177.9970  146.2120 C   0  0  0  0  0  0  0  0  0  0  0  0
  186.7150  178.1950  144.6740 C   0  0  0  0  0  0  0  0  0  0  0  0
  186.4960  178.0550  147.1640 C   0  0  0  0  0  0  0  0  0  0  0  0
  190.6760  177.2340  147.6900 C   0  0  0  0  0  1  0  0  0  0  0  0
  189.7570  178.1890  143.9240 C   0  0  0  0  0  3  0  0  0  0  0  0
  190.3120  176.2840  141.9290 C   0  0  0  0  0  0  0  0  0  0  0  0
  187.6180  178.0430  140.0900 C   0  0  0  0  0  2  0  0  0  0  0  0
  188.9190  176.7810  142.0280 C   0  0  2  0  0  3  0  0  0  0  0  0
  190.1690  177.6240  140.0300 N   0  0  0  0  0  0  0  0  0  0  0  0
  188.3530  179.0930  140.9140 C   0  0  0  0  0  2  0  0  0  0  0  0
  188.9150  177.6910  140.7970 C   0  0  0  0  0  0  0  0  0  0  0  0
  190.9590  176.8170  140.8260 O   0  0  0  0  0  0  0  0  0  0  0  0
  190.8740  175.4160  142.7560 C   0  0  0  0  0  2  0  0  0  0  0  0
  189.9410  176.8740  138.7960 C   0  0  0  0  0  2  0  0  0  0  0  0
  191.1210  175.9610  138.5070 C   0  0  0  0  0  2  0  0  0  0  0  0
  191.9280  176.4910  137.3350 C   0  0  0  0  0  2  0  0  0  0  0  0
  193.3890  176.1270  137.5200 C   0  0  0  0  0  2  0  0  0  0  0  0
  194.9960  174.2640  137.8840 C   0  0  0  0  0  1  0  0  0  0  0  0
  193.5320  174.6310  137.7210 C   0  0  0  0  0  2  0  0  0  0  0  0
  184.6430  178.7010  143.3800 O   0  0  0  0  0  0  0  0  0  0  0  0
  183.2340  178.7780  143.1950 C   0  0  0  0  0  2  0  0  0  0  0  0
  182.8640  178.4820  141.7470 C   0  0  0  0  0  2  0  0  0  0  0  0
  183.9790  178.7990  140.8630 N   0  0  0  0  0  2  0  0  0  0  0  0
  183.8330  179.5480  139.6530 C   0  0  0  0  0  0  0  0  0  0  0  0
  184.8570  179.8480  138.9860 O   0  0  0  0  0  0  0  0  0  0  0  0
  182.4860  179.9530  139.1480 C   0  0  0  0  0  2  0  0  0  0  0  0
  180.9080  179.2850  137.4000 C   0  0  0  0  0  2  0  0  0  0  0  0
  182.0010  178.9960  138.1050 C   0  0  0  0  0  0  0  0  0  0  0  0
  182.7860  177.7620  137.7820 C   0  0  0  0  0  2  0  0  0  0  0  0
  182.5950  175.7700  139.2170 C   0  0  0  0  0  2  0  0  0  0  0  0
  182.0770  176.5290  138.2530 C   0  0  0  0  0  3  0  0  0  0  0  0
  1 12  1  6  0  0  0
  1 11  1  0  0  0  0
  1 13  1  0  0  0  0
  2  6  2  0  0  0  0
  3 12  1  0  0  0  0
  3  7  2  0  0  0  0
  4 14  1  0  0  0  0
  4  6  1  0  0  0  0
  5  9  1  0  0  0  0
  5 15  1  0  0  0  0
  7  8  1  0  0  0  0
  8 13  2  0  0  0  0
  9 12  2  0  0  0  0
 10 11  1  0  0  0  0
 11  4  2  0  0  0  0
 13  2  1  0  0  0  0
 15 10  2  0  0  0  0
 16 18  1  0  0  0  0
 16 23  2  0  0  0  0
 17 21  1  0  0  0  0
 17 20  1  0  0  0  0
 18  5  1  1  0  0  0
 19 21  1  0  0  0  0
 19 22  1  0  0  0  0
 21 20  1  0  0  0  0
 21 18  1  0  0  0  0
 22 16  1  0  0  0  0
 24 19  1  0  0  0  0
 25 24  1  0  0  0  0
 26 27  1  0  0  0  0
 26 25  1  0  0  0  0
 27 29  1  0  0  0  0
 29 28  1  0  0  0  0
 30  3  1  0  0  0  0
 31 30  1  0  0  0  0
 32 31  1  0  0  0  0
 33 32  1  0  0  0  0
 34 33  1  0  0  0  0
 35 34  2  0  0  0  0
 36 34  1  0  0  0  0
 37 38  2  0  0  0  0
 38 36  1  0  0  0  0
 39 38  1  0  0  0  0
 39 41  1  0  0  0  0
 41 40  2  0  0  0  0
M  END
>  <MODEL>
6

>  <REMARK>
 VINA RESULT:      -6.7      2.624      8.316
  Name = 
  14 active torsions:
  status: ('A' for Active; 'I' for Inactive)
    1  A    between atoms: C_6  and  N_15
    2  A    between atoms: C_7  and  O_16
    3  A    between atoms: N_8  and  C_13
    4  A    between atoms: C_10  and  O_16
    5  A    between atoms: C_10  and  C_27
    6  A    between atoms: C_13  and  C_32
    7  A    between atoms: N_14  and  C_27
    8  A    between atoms: C_17  and  C_20
    9  A    between atoms: C_17  and  C_23
   10  A    between atoms: C_20  and  C_22
   11  A    between atoms: C_21  and  C_32
   12  A    between atoms: C_21  and  C_33
   13  A    between atoms: C_23  and  C_40
   14  A    between atoms: C_33  and  C_39
                            x       y       z     vdW  Elec       q    Type
                         _______ _______ _______ _____ _____    ______ ____

>  <TORSDO>
F 14

$$$$
=
 OpenBabel10232410163D

 41 45  0  0  1  0  0  0  0  0999 V2000
  186.3630  178.6690  144.7690 C   0  0  1  0  0  3  0  0  0  0  0  0
  184.8420  178.0640  146.7150 N   0  0  0  0  0  0  0  0  0  0  0  0
  185.1670  178.7820  142.5140 C   0  0  0  0  0  0  0  0  0  0  0  0
  187.1930  177.7260  146.9100 C   0  0  0  0  0  0  0  0  0  0  0  0
  188.6740  177.4320  143.0120 N   0  0  0  0  0  0  0  0  0  0  0  0
  185.8510  177.7350  147.4200 N   0  0  0  0  0  0  0  0  0  0  0  0
  183.9980  178.9120  143.1620 C   0  0  0  0  0  3  0  0  0  0  0  0
  183.8900  178.6400  144.6050 C   0  0  0  0  0  3  0  0  0  0  0  0
  187.3750  177.8410  142.5650 C   0  0  0  0  0  3  0  0  0  0  0  0
  188.8610  178.3540  145.2670 C   0  0  0  0  0  3  0  0  0  0  0  0
  187.4640  178.1140  145.6440 C   0  0  0  0  0  0  0  0  0  0  0  0
  186.3820  178.3940  143.2730 C   0  0  0  0  0  0  0  0  0  0  0  0
  184.9830  178.4470  145.3480 C   0  0  0  0  0  0  0  0  0  0  0  0
  188.2790  177.2930  147.8450 C   0  0  0  0  0  1  0  0  0  0  0  0
  189.3880  178.0620  144.0880 C   0  0  0  0  0  3  0  0  0  0  0  0
  190.8210  176.3960  142.4450 C   0  0  0  0  0  0  0  0  0  0  0  0
  188.6070  177.2880  139.6120 C   0  0  0  0  0  2  0  0  0  0  0  0
  189.4080  176.6070  142.0470 C   0  0  2  0  0  3  0  0  0  0  0  0
  191.0790  177.3960  140.3580 N   0  0  0  0  0  0  0  0  0  0  0  0
  188.8770  178.5730  140.3860 C   0  0  0  0  0  2  0  0  0  0  0  0
  189.6540  177.3130  140.7110 C   0  0  0  0  0  0  0  0  0  0  0  0
  191.6930  176.8880  141.4880 O   0  0  0  0  0  0  0  0  0  0  0  0
  191.2200  175.7880  143.5520 C   0  0  0  0  0  2  0  0  0  0  0  0
  191.3670  176.4480  139.2840 C   0  0  0  0  0  2  0  0  0  0  0  0
  192.8230  176.5530  138.8610 C   0  0  0  0  0  2  0  0  0  0  0  0
  192.9980  176.0720  137.4320 C   0  0  0  0  0  2  0  0  0  0  0  0
  192.6100  174.6090  137.3380 C   0  0  0  0  0  2  0  0  0  0  0  0
  192.6470  173.7630  134.9990 C   0  0  0  0  0  1  0  0  0  0  0  0
  193.4460  173.9150  136.2800 C   0  0  0  0  0  2  0  0  0  0  0  0
  185.2540  178.9920  141.1290 O   0  0  0  0  0  0  0  0  0  0  0  0
  184.1450  178.8930  140.2420 C   0  0  0  0  0  2  0  0  0  0  0  0
  184.5530  178.2020  138.9470 C   0  0  0  0  0  2  0  0  0  0  0  0
  185.7810  178.7870  138.4240 N   0  0  0  0  0  2  0  0  0  0  0  0
  186.3560  178.4140  137.1690 C   0  0  0  0  0  0  0  0  0  0  0  0
  187.3760  179.0230  136.7510 O   0  0  0  0  0  0  0  0  0  0  0  0
  185.7920  177.2920  136.3590 C   0  0  0  0  0  2  0  0  0  0  0  0
  186.4660  175.1560  137.3460 C   0  0  0  0  0  2  0  0  0  0  0  0
  186.6830  176.0910  136.4220 C   0  0  0  0  0  0  0  0  0  0  0  0
  187.7560  175.8860  135.3980 C   0  0  0  0  0  2  0  0  0  0  0  0
  189.9750  176.9130  135.6860 C   0  0  0  0  0  2  0  0  0  0  0  0
  189.1180  175.9490  136.0180 C   0  0  0  0  0  3  0  0  0  0  0  0
  1 12  1  6  0  0  0
  1 13  1  0  0  0  0
  1 11  1  0  0  0  0
  2  6  2  0  0  0  0
  3  7  2  0  0  0  0
  3 12  1  0  0  0  0
  4  6  1  0  0  0  0
  4 14  1  0  0  0  0
  5 15  1  0  0  0  0
  7  8  1  0  0  0  0
  8 13  2  0  0  0  0
  9  5  1  0  0  0  0
  9 12  2  0  0  0  0
 10 11  1  0  0  0  0
 11  4  2  0  0  0  0
 13  2  1  0  0  0  0
 15 10  2  0  0  0  0
 16 23  2  0  0  0  0
 17 20  1  0  0  0  0
 17 21  1  0  0  0  0
 18 16  1  0  0  0  0
 18  5  1  1  0  0  0
 19 21  1  0  0  0  0
 19 22  1  0  0  0  0
 20 21  1  0  0  0  0
 21 18  1  0  0  0  0
 22 16  1  0  0  0  0
 24 19  1  0  0  0  0
 25 24  1  0  0  0  0
 26 25  1  0  0  0  0
 27 26  1  0  0  0  0
 28 29  1  0  0  0  0
 29 27  1  0  0  0  0
 30  3  1  0  0  0  0
 31 30  1  0  0  0  0
 32 31  1  0  0  0  0
 33 32  1  0  0  0  0
 34 33  1  0  0  0  0
 35 34  2  0  0  0  0
 36 38  1  0  0  0  0
 36 34  1  0  0  0  0
 38 37  2  0  0  0  0
 39 41  1  0  0  0  0
 39 38  1  0  0  0  0
 40 41  2  0  0  0  0
M  END
>  <MODEL>
7

>  <REMARK>
 VINA RESULT:      -6.6      2.410      8.342
  Name = 
  14 active torsions:
  status: ('A' for Active; 'I' for Inactive)
    1  A    between atoms: C_6  and  N_15
    2  A    between atoms: C_7  and  O_16
    3  A    between atoms: N_8  and  C_13
    4  A    between atoms: C_10  and  O_16
    5  A    between atoms: C_10  and  C_27
    6  A    between atoms: C_13  and  C_32
    7  A    between atoms: N_14  and  C_27
    8  A    between atoms: C_17  and  C_20
    9  A    between atoms: C_17  and  C_23
   10  A    between atoms: C_20  and  C_22
   11  A    between atoms: C_21  and  C_32
   12  A    between atoms: C_21  and  C_33
   13  A    between atoms: C_23  and  C_40
   14  A    between atoms: C_33  and  C_39
                            x       y       z     vdW  Elec       q    Type
                         _______ _______ _______ _____ _____    ______ ____

>  <TORSDO>
F 14

$$$$
=
 OpenBabel10232410163D

 41 45  0  0  1  0  0  0  0  0999 V2000
  185.2930  176.0000  136.1350 C   0  0  0  0  0  0  0  0  0  0  0  0
  185.7880  173.5400  135.7290 N   0  0  0  0  0  2  0  0  0  0  0  0
  187.0280  177.1800  137.5930 C   0  0  0  0  0  0  0  0  0  0  0  0
  183.5640  174.3520  135.4620 C   0  0  0  0  0  0  0  0  0  0  0  0
  183.3000  177.8490  137.7370 N   0  0  0  0  0  0  0  0  0  0  0  0
  184.5760  173.3370  135.3910 N   0  0  0  0  0  0  0  0  0  0  0  0
  187.9020  176.2000  137.3140 C   0  0  0  0  0  3  0  0  0  0  0  0
  187.4610  174.9390  136.6940 C   0  0  0  0  0  3  0  0  0  0  0  0
  184.7190  177.7570  137.9100 C   0  0  0  0  0  3  0  0  0  0  0  0
  182.8630  176.6650  135.6450 C   0  0  0  0  0  3  0  0  0  0  0  0
  183.8590  175.6100  135.8580 C   0  0  0  0  0  0  0  0  0  0  0  0
  185.5990  177.0080  137.2340 C   0  0  0  0  0  0  0  0  0  0  0  0
  186.2230  174.8100  136.2120 C   0  0  0  0  0  0  0  0  0  0  0  0
  182.1760  173.9650  135.0570 C   0  0  0  0  0  1  0  0  0  0  0  0
  182.6310  177.6680  136.4790 C   0  0  0  0  0  3  0  0  0  0  0  0
  183.4440  179.5950  139.4500 C   0  0  0  0  0  0  0  0  0  0  0  0
  181.1850  176.7470  140.1660 C   0  0  0  0  0  2  0  0  0  0  0  0
  182.6060  178.5430  138.8270 C   0  0  2  0  0  3  0  0  0  0  0  0
  182.9780  178.2370  141.2840 N   0  0  0  0  0  0  0  0  0  0  0  0
  182.5760  176.1660  139.9470 C   0  0  0  0  0  2  0  0  0  0  0  0
  182.3890  177.6660  140.0620 C   0  0  0  0  0  0  0  0  0  0  0  0
  183.6440  179.3470  140.7980 O   0  0  0  0  0  0  0  0  0  0  0  0
  183.9230  180.6600  138.8260 C   0  0  0  0  0  2  0  0  0  0  0  0
  181.9100  178.7510  142.1390 C   0  0  0  0  0  2  0  0  0  0  0  0
  182.2350  178.4940  143.6020 C   0  0  0  0  0  2  0  0  0  0  0  0
  183.2680  179.4880  144.1000 C   0  0  0  0  0  2  0  0  0  0  0  0
  184.5680  178.7640  144.3920 C   0  0  0  0  0  2  0  0  0  0  0  0
  185.6250  179.1730  146.6060 C   0  0  0  0  0  1  0  0  0  0  0  0
  184.6130  178.3360  145.8460 C   0  0  0  0  0  2  0  0  0  0  0  0
  187.4440  178.3590  138.2310 O   0  0  0  0  0  0  0  0  0  0  0  0
  188.6930  178.5000  138.8990 C   0  0  0  0  0  2  0  0  0  0  0  0
  188.5190  178.3440  140.4040 C   0  0  0  0  0  2  0  0  0  0  0  0
  189.1300  177.1030  140.8610 N   0  0  0  0  0  2  0  0  0  0  0  0
  189.6680  176.9300  142.1750 C   0  0  0  0  0  0  0  0  0  0  0  0
  190.1080  175.8010  142.5190 O   0  0  0  0  0  0  0  0  0  0  0  0
  189.7510  178.0700  143.1370 C   0  0  0  0  0  2  0  0  0  0  0  0
  191.1740  177.4670  145.0350 C   0  0  0  0  0  2  0  0  0  0  0  0
  189.9440  177.5730  144.5350 C   0  0  0  0  0  0  0  0  0  0  0  0
  188.7620  177.2820  145.4080 C   0  0  0  0  0  2  0  0  0  0  0  0
  188.8300  178.0370  147.7510 C   0  0  0  0  0  2  0  0  0  0  0  0
  189.1710  177.1260  146.8410 C   0  0  0  0  0  3  0  0  0  0  0  0
  1 13  1  0  0  0  0
  1 12  1  0  0  0  0
  2 13  1  0  0  0  0
  3 30  1  0  0  0  0
  4 11  1  0  0  0  0
  5  9  1  0  0  0  0
  6  4  2  0  0  0  0
  6  2  1  0  0  0  0
  7  3  2  0  0  0  0
  8  7  1  0  0  0  0
 10 11  1  0  0  0  0
 10 15  2  0  0  0  0
 11  1  2  0  0  0  0
 12  3  1  0  0  0  0
 12  9  2  0  0  0  0
 13  8  2  0  0  0  0
 14  4  1  0  0  0  0
 15  5  1  0  0  0  0
 16 22  1  0  0  0  0
 18  5  1  6  0  0  0
 18 16  1  0  0  0  0
 18 21  1  0  0  0  0
 19 24  1  0  0  0  0
 20 21  1  0  0  0  0
 20 17  1  0  0  0  0
 21 17  1  0  0  0  0
 21 19  1  0  0  0  0
 22 19  1  0  0  0  0
 23 16  2  0  0  0  0
 24 25  1  0  0  0  0
 25 26  1  0  0  0  0
 26 27  1  0  0  0  0
 27 29  1  0  0  0  0
 29 28  1  0  0  0  0
 30 31  1  0  0  0  0
 31 32  1  0  0  0  0
 32 33  1  0  0  0  0
 33 34  1  0  0  0  0
 34 35  2  0  0  0  0
 34 36  1  0  0  0  0
 36 38  1  0  0  0  0
 38 37  2  0  0  0  0
 38 39  1  0  0  0  0
 39 41  1  0  0  0  0
 41 40  2  0  0  0  0
M  END
>  <MODEL>
8

>  <REMARK>
 VINA RESULT:      -6.6      2.294      5.892
  Name = 
  14 active torsions:
  status: ('A' for Active; 'I' for Inactive)
    1  A    between atoms: C_6  and  N_15
    2  A    between atoms: C_7  and  O_16
    3  A    between atoms: N_8  and  C_13
    4  A    between atoms: C_10  and  O_16
    5  A    between atoms: C_10  and  C_27
    6  A    between atoms: C_13  and  C_32
    7  A    between atoms: N_14  and  C_27
    8  A    between atoms: C_17  and  C_20
    9  A    between atoms: C_17  and  C_23
   10  A    between atoms: C_20  and  C_22
   11  A    between atoms: C_21  and  C_32
   12  A    between atoms: C_21  and  C_33
   13  A    between atoms: C_23  and  C_40
   14  A    between atoms: C_33  and  C_39
                            x       y       z     vdW  Elec       q    Type
                         _______ _______ _______ _____ _____    ______ ____

>  <TORSDO>
F 14

$$$$
=
 OpenBabel10232410163D

 41 45  0  0  1  0  0  0  0  0999 V2000
  189.1850  177.0730  142.3500 C   0  0  1  0  0  3  0  0  0  0  0  0
  191.6390  177.3340  142.9590 N   0  0  0  0  0  0  0  0  0  0  0  0
  188.5970  177.9440  140.0200 C   0  0  0  0  0  0  0  0  0  0  0  0
  190.0190  177.0830  144.6870 C   0  0  0  0  0  0  0  0  0  0  0  0
  186.3600  178.2830  143.0610 N   0  0  0  0  0  0  0  0  0  0  0  0
  191.3620  177.1970  144.1950 N   0  0  0  0  0  0  0  0  0  0  0  0
  189.8940  177.8650  139.6840 C   0  0  0  0  0  3  0  0  0  0  0  0
  190.9380  177.6790  140.7060 C   0  0  0  0  0  3  0  0  0  0  0  0
  187.0200  178.3250  141.7910 C   0  0  0  0  0  3  0  0  0  0  0  0
  187.6510  176.6720  144.3670 C   0  0  0  0  0  3  0  0  0  0  0  0
  188.9620  177.0710  143.8450 C   0  0  0  0  0  0  0  0  0  0  0  0
  188.2030  177.8010  141.4440 C   0  0  0  0  0  0  0  0  0  0  0  0
  190.6150  177.3870  141.9680 C   0  0  0  0  0  0  0  0  0  0  0  0
  189.8390  176.9530  146.1680 C   0  0  0  0  0  1  0  0  0  0  0  0
  186.4950  177.2050  144.0020 C   0  0  0  0  0  3  0  0  0  0  0  0
  184.6060  179.1710  144.5250 C   0  0  0  0  0  0  0  0  0  0  0  0
  183.8620  179.0970  140.8960 C   0  0  0  0  0  2  0  0  0  0  0  0
  185.2170  179.1970  143.1750 C   0  0  2  0  0  3  0  0  0  0  0  0
  182.7920  178.5770  143.1910 N   0  0  0  0  0  0  0  0  0  0  0  0
  184.1660  177.6640  141.3170 C   0  0  0  0  0  2  0  0  0  0  0  0
  183.9980  178.7440  142.3660 C   0  0  0  0  0  0  0  0  0  0  0  0
  183.2770  178.7840  144.4690 O   0  0  0  0  0  0  0  0  0  0  0  0
  185.2220  179.5030  145.6490 C   0  0  0  0  0  2  0  0  0  0  0  0
  181.8700  179.6800  142.9270 C   0  0  0  0  0  2  0  0  0  0  0  0
  180.4330  179.1880  142.9590 C   0  0  0  0  0  2  0  0  0  0  0  0
  180.1960  178.1660  141.8630 C   0  0  0  0  0  2  0  0  0  0  0  0
  180.1420  178.8670  140.5190 C   0  0  0  0  0  2  0  0  0  0  0  0
  180.7880  176.5260  139.9830 C   0  0  0  0  0  1  0  0  0  0  0  0
  180.4200  177.8790  139.4030 C   0  0  0  0  0  2  0  0  0  0  0  0
  187.6100  178.1730  139.0490 O   0  0  0  0  0  0  0  0  0  0  0  0
  187.8930  178.4100  137.6740 C   0  0  0  0  0  2  0  0  0  0  0  0
  186.7120  178.0010  136.8040 C   0  0  0  0  0  2  0  0  0  0  0  0
  187.1470  177.0880  135.7540 N   0  0  0  0  0  2  0  0  0  0  0  0
  187.1350  175.6640  135.8980 C   0  0  0  0  0  0  0  0  0  0  0  0
  187.4510  174.9420  134.9160 O   0  0  0  0  0  0  0  0  0  0  0  0
  186.7890  175.0170  137.2000 C   0  0  0  0  0  2  0  0  0  0  0  0
  185.2800  173.1600  137.7150 C   0  0  0  0  0  2  0  0  0  0  0  0
  185.4580  174.3370  137.1170 C   0  0  0  0  0  0  0  0  0  0  0  0
  184.3000  175.0120  136.4490 C   0  0  0  0  0  2  0  0  0  0  0  0
  183.4020  177.1500  137.2780 C   0  0  0  0  0  2  0  0  0  0  0  0
  183.5110  175.8300  137.4240 C   0  0  0  0  0  3  0  0  0  0  0  0
  1 12  1  6  0  0  0
  1 11  1  0  0  0  0
  2  6  2  0  0  0  0
  3 12  1  0  0  0  0
  4 14  1  0  0  0  0
  5 15  1  0  0  0  0
  6  4  1  0  0  0  0
  7  3  2  0  0  0  0
  7  8  1  0  0  0  0
  8 13  2  0  0  0  0
  9  5  1  0  0  0  0
 11 10  1  0  0  0  0
 11  4  2  0  0  0  0
 12  9  2  0  0  0  0
 13  1  1  0  0  0  0
 13  2  1  0  0  0  0
 15 10  2  0  0  0  0
 16 23  2  0  0  0  0
 17 20  1  0  0  0  0
 17 21  1  0  0  0  0
 18  5  1  1  0  0  0
 18 16  1  0  0  0  0
 19 22  1  0  0  0  0
 20 21  1  0  0  0  0
 21 18  1  0  0  0  0
 21 19  1  0  0  0  0
 22 16  1  0  0  0  0
 24 25  1  0  0  0  0
 24 19  1  0  0  0  0
 26 25  1  0  0  0  0
 27 26  1  0  0  0  0
 29 28  1  0  0  0  0
 29 27  1  0  0  0  0
 30  3  1  0  0  0  0
 31 30  1  0  0  0  0
 32 31  1  0  0  0  0
 33 34  1  0  0  0  0
 33 32  1  0  0  0  0
 34 36  1  0  0  0  0
 35 34  2  0  0  0  0
 38 36  1  0  0  0  0
 38 37  2  0  0  0  0
 39 38  1  0  0  0  0
 39 41  1  0  0  0  0
 40 41  2  0  0  0  0
M  END
>  <MODEL>
9

>  <REMARK>
 VINA RESULT:      -6.6      2.602      7.322
  Name = 
  14 active torsions:
  status: ('A' for Active; 'I' for Inactive)
    1  A    between atoms: C_6  and  N_15
    2  A    between atoms: C_7  and  O_16
    3  A    between atoms: N_8  and  C_13
    4  A    between atoms: C_10  and  O_16
    5  A    between atoms: C_10  and  C_27
    6  A    between atoms: C_13  and  C_32
    7  A    between atoms: N_14  and  C_27
    8  A    between atoms: C_17  and  C_20
    9  A    between atoms: C_17  and  C_23
   10  A    between atoms: C_20  and  C_22
   11  A    between atoms: C_21  and  C_32
   12  A    between atoms: C_21  and  C_33
   13  A    between atoms: C_23  and  C_40
   14  A    between atoms: C_33  and  C_39
                            x       y       z     vdW  Elec       q    Type
                         _______ _______ _______ _____ _____    ______ ____

>  <TORSDO>
F 14

$$$$
