=
 OpenBabel10232408183D

 32 37  0  0  1  0  0  0  0  0999 V2000
  189.2480  178.4960  148.5770 C   0  0  0  0  0  1  0  0  0  0  0  0
  188.9750  177.3520  145.4070 C   0  0  0  0  0  0  0  0  0  0  0  0
  190.8320  176.6450  141.0100 C   0  0  0  0  0  1  0  0  0  0  0  0
  184.9800  178.2070  143.5780 C   0  0  0  0  0  0  0  0  0  0  0  0
  189.7430  177.2960  146.5480 O   0  0  0  0  0  0  0  0  0  0  0  0
  186.4090  177.4550  137.7460 C   0  0  0  0  0  0  0  0  0  0  0  0
  183.6650  178.6770  143.2720 N   0  0  0  0  0  2  0  0  0  0  0  0
  188.5720  176.2360  137.3650 C   0  0  0  0  0  3  0  0  0  0  0  0
  189.4870  177.1630  140.8300 N   0  0  0  0  0  0  0  0  0  0  0  0
  185.9730  177.8000  142.5180 C   0  0  1  0  0  3  0  0  0  0  0  0
  188.4840  177.5750  143.0480 C   0  0  0  0  0  0  0  0  0  0  0  0
  187.7170  178.6800  140.9460 N   0  0  0  0  0  0  0  0  0  0  0  0
  187.0430  178.5990  138.4660 C   0  0  0  0  0  2  0  0  0  0  0  0
  189.4380  177.4790  144.0850 C   0  0  0  0  0  3  0  0  0  0  0  0
  185.3700  177.9650  144.7970 N   0  0  0  0  0  0  0  0  0  0  0  0
  187.6400  177.3910  145.7150 C   0  0  0  0  0  0  0  0  0  0  0  0
  188.8380  177.2720  139.5720 C   0  0  0  0  0  0  0  0  0  0  0  0
  187.8390  178.1330  139.6350 C   0  0  0  0  0  0  0  0  0  0  0  0
  189.2900  176.5900  138.3930 N   0  0  0  0  0  0  0  0  0  0  0  0
  186.7030  177.4900  144.6920 C   0  0  0  0  0  0  0  0  0  0  0  0
  188.8700  178.1510  141.7060 C   0  0  2  0  0  3  0  0  0  0  0  0
  186.4150  178.8410  141.5380 C   0  0  0  0  0  0  0  0  0  0  0  0
  185.6280  179.7340  141.1270 O   0  0  0  0  0  0  0  0  0  0  0  0
  187.4550  177.4360  147.1860 C   0  0  0  0  0  2  0  0  0  0  0  0
  188.9050  177.3040  147.7050 C   0  0  2  0  0  3  0  0  0  0  0  0
  187.1220  177.4690  143.3860 C   0  0  0  0  0  0  0  0  0  0  0  0
  187.1190  176.4610  137.2080 C   0  0  0  0  0  3  0  0  0  0  0  0
  184.9950  177.5010  137.5050 C   0  0  0  0  0  0  0  0  0  0  0  0
  183.8540  177.5380  137.3120 N   0  0  0  0  0  0  0  0  0  0  0  0
  182.7020  179.0360  144.3030 C   0  0  0  0  0  2  0  0  0  0  0  0
  181.3530  178.7940  143.8200 N   0  0  0  0  0  2  0  0  0  0  0  0
  181.4130  178.8540  142.3700 C   0  0  0  0  0  1  0  0  0  0  0  0
  2 16  1  0  0  0  0
  2  5  1  0  0  0  0
  4 15  2  0  0  0  0
  5 25  1  0  0  0  0
  6 13  1  0  0  0  0
  7  4  1  0  0  0  0
  7 30  1  0  0  0  0
  8 19  2  0  0  0  0
  9  3  1  0  0  0  0
  9 21  1  0  0  0  0
 10 22  1  6  0  0  0
 10 26  1  0  0  0  0
 10  4  1  0  0  0  0
 11 26  2  0  0  0  0
 11 14  1  0  0  0  0
 12 22  1  0  0  0  0
 12 21  1  0  0  0  0
 13 18  1  0  0  0  0
 14  2  2  0  0  0  0
 16 24  1  0  0  0  0
 17 18  2  0  0  0  0
 17  9  1  0  0  0  0
 18 12  1  0  0  0  0
 19 17  1  0  0  0  0
 20 15  1  0  0  0  0
 20 16  2  0  0  0  0
 21 11  1  1  0  0  0
 23 22  2  0  0  0  0
 24 25  1  0  0  0  0
 25  1  1  1  0  0  0
 26 20  1  0  0  0  0
 27  8  1  0  0  0  0
 27  6  2  0  0  0  0
 28  6  1  0  0  0  0
 29 28  3  0  0  0  0
 31 30  1  0  0  0  0
 32 31  1  0  0  0  0
M  END
>  <MODEL>
1

>  <REMARK>
 VINA RESULT:     -10.2      0.000      0.000
  Name = 
  3 active torsions:
  status: ('A' for Active; 'I' for Inactive)
    1  A    between atoms: C_4  and  C_8
    2  A    between atoms: N_7  and  C_25
    3  A    between atoms: N_9  and  C_25
                            x       y       z     vdW  Elec       q    Type
                         _______ _______ _______ _____ _____    ______ ____

>  <TORSDO>
F 3

$$$$
=
 OpenBabel10232408183D

 32 37  0  0  1  0  0  0  0  0999 V2000
  190.0970  176.1710  136.1430 C   0  0  0  0  0  1  0  0  0  0  0  0
  190.3250  177.0320  139.4050 C   0  0  0  0  0  0  0  0  0  0  0  0
  191.8310  176.1420  143.9010 C   0  0  0  0  0  1  0  0  0  0  0  0
  186.5290  178.7660  141.0230 C   0  0  0  0  0  0  0  0  0  0  0  0
  191.0550  176.6640  138.2970 O   0  0  0  0  0  0  0  0  0  0  0  0
  187.6070  178.0900  146.9390 C   0  0  0  0  0  0  0  0  0  0  0  0
  185.1870  179.2080  141.2430 N   0  0  0  0  0  2  0  0  0  0  0  0
  190.0150  177.6520  147.5030 C   0  0  0  0  0  3  0  0  0  0  0  0
  190.4480  176.5740  143.9890 N   0  0  0  0  0  0  0  0  0  0  0  0
  187.4630  178.3920  142.1470 C   0  0  1  0  0  3  0  0  0  0  0  0
  189.6020  177.0220  141.7130 C   0  0  0  0  0  0  0  0  0  0  0  0
  188.1360  176.5160  143.6690 N   0  0  0  0  0  0  0  0  0  0  0  0
  187.4490  176.8490  146.1250 C   0  0  0  0  0  2  0  0  0  0  0  0
  190.4930  176.5610  140.7180 C   0  0  0  0  0  3  0  0  0  0  0  0
  187.0880  178.7840  139.8470 N   0  0  0  0  0  0  0  0  0  0  0  0
  189.2890  177.8610  139.0560 C   0  0  0  0  0  0  0  0  0  0  0  0
  189.7670  176.8190  145.2100 C   0  0  0  0  0  0  0  0  0  0  0  0
  188.4590  176.7830  145.0320 C   0  0  0  0  0  0  0  0  0  0  0  0
  190.4420  176.9910  146.4660 N   0  0  0  0  0  0  0  0  0  0  0  0
  188.4110  178.3090  140.0370 C   0  0  0  0  0  0  0  0  0  0  0  0
  189.4280  176.2500  142.9990 C   0  0  2  0  0  3  0  0  0  0  0  0
  187.0750  177.2460  143.0270 C   0  0  0  0  0  0  0  0  0  0  0  0
  185.8710  177.0230  143.3220 O   0  0  0  0  0  0  0  0  0  0  0  0
  189.2440  178.0330  137.5840 C   0  0  0  0  0  2  0  0  0  0  0  0
  190.4980  177.2560  137.1220 C   0  0  2  0  0  3  0  0  0  0  0  0
  188.6380  177.9810  141.3500 C   0  0  0  0  0  0  0  0  0  0  0  0
  188.7320  178.3810  147.5960 C   0  0  0  0  0  3  0  0  0  0  0  0
  186.4580  178.9270  147.1340 C   0  0  0  0  0  0  0  0  0  0  0  0
  185.5320  179.6040  147.2910 N   0  0  0  0  0  0  0  0  0  0  0  0
  184.3030  179.5980  140.1540 C   0  0  0  0  0  2  0  0  0  0  0  0
  183.0480  178.8760  140.2590 N   0  0  0  0  0  2  0  0  0  0  0  0
  182.8710  178.5490  141.6620 C   0  0  0  0  0  1  0  0  0  0  0  0
  2 14  1  0  0  0  0
  3  9  1  0  0  0  0
  4  7  1  0  0  0  0
  5  2  1  0  0  0  0
  6 28  1  0  0  0  0
  6 27  2  0  0  0  0
  8 27  1  0  0  0  0
  9 17  1  0  0  0  0
 10  4  1  6  0  0  0
 10 22  1  0  0  0  0
 12 18  1  0  0  0  0
 13  6  1  0  0  0  0
 14 11  2  0  0  0  0
 15 20  1  0  0  0  0
 15  4  2  0  0  0  0
 16  2  2  0  0  0  0
 16 20  1  0  0  0  0
 17 19  1  0  0  0  0
 18 17  2  0  0  0  0
 18 13  1  0  0  0  0
 19  8  2  0  0  0  0
 20 26  2  0  0  0  0
 21 11  1  6  0  0  0
 21 12  1  0  0  0  0
 21  9  1  0  0  0  0
 22 23  2  0  0  0  0
 22 12  1  0  0  0  0
 24 16  1  0  0  0  0
 25  1  1  6  0  0  0
 25 24  1  0  0  0  0
 25  5  1  0  0  0  0
 26 11  1  0  0  0  0
 26 10  1  0  0  0  0
 28 29  3  0  0  0  0
 30 31  1  0  0  0  0
 30  7  1  0  0  0  0
 31 32  1  0  0  0  0
M  END
>  <MODEL>
2

>  <REMARK>
 VINA RESULT:      -8.5      2.408      6.662
  Name = 
  3 active torsions:
  status: ('A' for Active; 'I' for Inactive)
    1  A    between atoms: C_4  and  C_8
    2  A    between atoms: N_7  and  C_25
    3  A    between atoms: N_9  and  C_25
                            x       y       z     vdW  Elec       q    Type
                         _______ _______ _______ _____ _____    ______ ____

>  <TORSDO>
F 3

$$$$
=
 OpenBabel10232408183D

 32 37  0  0  1  0  0  0  0  0999 V2000
  190.5250  176.3560  143.6970 C   0  0  0  0  0  1  0  0  0  0  0  0
  187.6230  178.0410  143.2830 C   0  0  0  0  0  0  0  0  0  0  0  0
  183.0840  178.9990  144.6080 C   0  0  0  0  0  1  0  0  0  0  0  0
  186.4590  178.4870  138.9840 C   0  0  0  0  0  0  0  0  0  0  0  0
  188.6040  177.7210  144.1950 O   0  0  0  0  0  0  0  0  0  0  0  0
  180.6030  179.8280  139.7060 C   0  0  0  0  0  0  0  0  0  0  0  0
  186.3410  178.4030  137.5620 N   0  0  0  0  0  2  0  0  0  0  0  0
  179.9880  180.5370  142.0360 C   0  0  0  0  0  3  0  0  0  0  0  0
  183.0890  178.8570  143.1630 N   0  0  0  0  0  0  0  0  0  0  0  0
  185.2940  178.8120  139.8860 C   0  0  1  0  0  3  0  0  0  0  0  0
  185.3840  178.3360  142.4160 C   0  0  0  0  0  0  0  0  0  0  0  0
  183.3350  177.8120  141.0900 N   0  0  0  0  0  0  0  0  0  0  0  0
  181.0480  178.4620  140.1120 C   0  0  0  0  0  2  0  0  0  0  0  0
  186.2340  178.0270  143.5010 C   0  0  0  0  0  3  0  0  0  0  0  0
  187.6070  178.4220  139.5960 N   0  0  0  0  0  0  0  0  0  0  0  0
  188.1620  178.2740  142.0450 C   0  0  0  0  0  0  0  0  0  0  0  0
  181.9650  179.1170  142.3340 C   0  0  0  0  0  0  0  0  0  0  0  0
  182.1020  178.5230  141.1630 C   0  0  0  0  0  0  0  0  0  0  0  0
  180.8170  179.8560  142.7760 N   0  0  0  0  0  0  0  0  0  0  0  0
  187.3210  178.5740  140.9780 C   0  0  0  0  0  0  0  0  0  0  0  0
  183.9330  177.9150  142.4390 C   0  0  2  0  0  3  0  0  0  0  0  0
  184.1300  177.8730  139.8920 C   0  0  0  0  0  0  0  0  0  0  0  0
  183.7620  177.2760  138.8450 O   0  0  0  0  0  0  0  0  0  0  0  0
  189.6240  178.0320  142.0680 C   0  0  0  0  0  2  0  0  0  0  0  0
  189.8840  177.7230  143.5600 C   0  0  2  0  0  3  0  0  0  0  0  0
  185.9730  178.7100  141.1940 C   0  0  0  0  0  0  0  0  0  0  0  0
  180.0710  180.6970  140.5690 C   0  0  0  0  0  3  0  0  0  0  0  0
  180.6180  180.1630  138.3110 C   0  0  0  0  0  0  0  0  0  0  0  0
  180.6290  180.4330  137.1850 N   0  0  0  0  0  0  0  0  0  0  0  0
  187.4770  178.1200  136.6970 C   0  0  0  0  0  2  0  0  0  0  0  0
  187.3560  176.7800  136.1510 N   0  0  0  0  0  2  0  0  0  0  0  0
  188.2240  175.9280  136.9450 C   0  0  0  0  0  1  0  0  0  0  0  0
  2 14  1  0  0  0  0
  2  5  1  0  0  0  0
  4 15  2  0  0  0  0
  6 13  1  0  0  0  0
  6 27  2  0  0  0  0
  7  4  1  0  0  0  0
  8 19  2  0  0  0  0
  9  3  1  0  0  0  0
 10  4  1  6  0  0  0
 10 22  1  0  0  0  0
 10 26  1  0  0  0  0
 11 14  2  0  0  0  0
 12 18  1  0  0  0  0
 12 21  1  0  0  0  0
 13 18  1  0  0  0  0
 15 20  1  0  0  0  0
 16 24  1  0  0  0  0
 16  2  2  0  0  0  0
 17 19  1  0  0  0  0
 17  9  1  0  0  0  0
 18 17  2  0  0  0  0
 20 26  2  0  0  0  0
 20 16  1  0  0  0  0
 21 11  1  6  0  0  0
 21  9  1  0  0  0  0
 22 12  1  0  0  0  0
 23 22  2  0  0  0  0
 24 25  1  0  0  0  0
 25  1  1  6  0  0  0
 25  5  1  0  0  0  0
 26 11  1  0  0  0  0
 27  8  1  0  0  0  0
 28  6  1  0  0  0  0
 29 28  3  0  0  0  0
 30  7  1  0  0  0  0
 31 30  1  0  0  0  0
 31 32  1  0  0  0  0
M  END
>  <MODEL>
3

>  <REMARK>
 VINA RESULT:      -7.6      2.223      6.208
  Name = 
  3 active torsions:
  status: ('A' for Active; 'I' for Inactive)
    1  A    between atoms: C_4  and  C_8
    2  A    between atoms: N_7  and  C_25
    3  A    between atoms: N_9  and  C_25
                            x       y       z     vdW  Elec       q    Type
                         _______ _______ _______ _____ _____    ______ ____

>  <TORSDO>
F 3

$$$$
=
 OpenBabel10232408183D

 32 37  0  0  1  0  0  0  0  0999 V2000
  191.5860  177.6670  148.3150 C   0  0  0  0  0  1  0  0  0  0  0  0
  191.1100  176.8580  145.0660 C   0  0  0  0  0  0  0  0  0  0  0  0
  192.6150  176.7730  140.4830 C   0  0  0  0  0  1  0  0  0  0  0  0
  186.9220  177.6060  143.6740 C   0  0  0  0  0  0  0  0  0  0  0  0
  191.9770  176.7360  146.1280 O   0  0  0  0  0  0  0  0  0  0  0  0
  187.8780  177.6010  137.6990 C   0  0  0  0  0  0  0  0  0  0  0  0
  185.5580  178.0080  143.5300 N   0  0  0  0  0  2  0  0  0  0  0  0
  190.0750  176.5960  137.0080 C   0  0  0  0  0  3  0  0  0  0  0  0
  191.2280  177.2060  140.4720 N   0  0  0  0  0  0  0  0  0  0  0  0
  187.8430  177.3920  142.4980 C   0  0  1  0  0  3  0  0  0  0  0  0
  190.4000  177.2990  142.7960 C   0  0  0  0  0  0  0  0  0  0  0  0
  189.3800  178.5650  140.9020 N   0  0  0  0  0  0  0  0  0  0  0  0
  188.4970  178.7040  138.4910 C   0  0  0  0  0  2  0  0  0  0  0  0
  191.4460  177.1620  143.7350 C   0  0  0  0  0  3  0  0  0  0  0  0
  187.4330  177.2620  144.8210 N   0  0  0  0  0  0  0  0  0  0  0  0
  189.8080  176.7630  145.4830 C   0  0  0  0  0  0  0  0  0  0  0  0
  190.4660  177.4020  139.2910 C   0  0  0  0  0  0  0  0  0  0  0  0
  189.4220  178.1750  139.5320 C   0  0  0  0  0  0  0  0  0  0  0  0
  190.8560  176.8880  138.0090 N   0  0  0  0  0  0  0  0  0  0  0  0
  188.7800  176.9020  144.5570 C   0  0  0  0  0  0  0  0  0  0  0  0
  190.6280  178.0440  141.5020 C   0  0  2  0  0  3  0  0  0  0  0  0
  188.1290  178.5630  141.6110 C   0  0  0  0  0  0  0  0  0  0  0  0
  187.2510  179.4340  141.3700 O   0  0  0  0  0  0  0  0  0  0  0  0
  189.7500  176.6340  146.9590 C   0  0  0  0  0  2  0  0  0  0  0  0
  191.2460  176.5550  147.3420 C   0  0  2  0  0  3  0  0  0  0  0  0
  189.0820  177.0550  143.2270 C   0  0  0  0  0  0  0  0  0  0  0  0
  188.6020  176.7280  136.9950 C   0  0  0  0  0  3  0  0  0  0  0  0
  186.4490  177.5680  137.5790 C   0  0  0  0  0  0  0  0  0  0  0  0
  185.2960  177.5430  137.4810 N   0  0  0  0  0  0  0  0  0  0  0  0
  184.6680  178.1800  144.6690 C   0  0  0  0  0  2  0  0  0  0  0  0
  185.0930  179.3240  145.4560 N   0  0  0  0  0  2  0  0  0  0  0  0
  185.3010  178.8440  146.8100 C   0  0  0  0  0  1  0  0  0  0  0  0
  2 16  1  0  0  0  0
  2  5  1  0  0  0  0
  4 15  2  0  0  0  0
  5 25  1  0  0  0  0
  6 13  1  0  0  0  0
  7  4  1  0  0  0  0
  7 30  1  0  0  0  0
  8 19  2  0  0  0  0
  9  3  1  0  0  0  0
  9 21  1  0  0  0  0
 10 22  1  1  0  0  0
 10 26  1  0  0  0  0
 10  4  1  0  0  0  0
 11 26  2  0  0  0  0
 11 14  1  0  0  0  0
 12 21  1  0  0  0  0
 12 22  1  0  0  0  0
 13 18  1  0  0  0  0
 14  2  2  0  0  0  0
 16 24  1  0  0  0  0
 17 18  2  0  0  0  0
 17  9  1  0  0  0  0
 18 12  1  0  0  0  0
 19 17  1  0  0  0  0
 20 15  1  0  0  0  0
 20 16  2  0  0  0  0
 21 11  1  1  0  0  0
 23 22  2  0  0  0  0
 24 25  1  0  0  0  0
 25  1  1  1  0  0  0
 26 20  1  0  0  0  0
 27  8  1  0  0  0  0
 27  6  2  0  0  0  0
 28  6  1  0  0  0  0
 29 28  3  0  0  0  0
 30 31  1  0  0  0  0
 31 32  1  0  0  0  0
M  END
>  <MODEL>
4

>  <REMARK>
 VINA RESULT:      -7.3      1.781      2.261
  Name = 
  3 active torsions:
  status: ('A' for Active; 'I' for Inactive)
    1  A    between atoms: C_4  and  C_8
    2  A    between atoms: N_7  and  C_25
    3  A    between atoms: N_9  and  C_25
                            x       y       z     vdW  Elec       q    Type
                         _______ _______ _______ _____ _____    ______ ____

>  <TORSDO>
F 3

$$$$
=
 OpenBabel10232408183D

 32 37  0  0  1  0  0  0  0  0999 V2000
  191.8970  179.3990  144.4710 C   0  0  0  0  0  1  0  0  0  0  0  0
  191.1640  177.4930  141.7760 C   0  0  0  0  0  0  0  0  0  0  0  0
  192.4280  175.4540  137.5900 C   0  0  0  0  0  1  0  0  0  0  0  0
  187.0590  178.2530  140.1620 C   0  0  0  0  0  0  0  0  0  0  0  0
  192.0550  177.6600  142.8120 O   0  0  0  0  0  0  0  0  0  0  0  0
  187.7270  175.8370  134.6540 C   0  0  0  0  0  0  0  0  0  0  0  0
  185.7580  178.7630  139.8620 N   0  0  0  0  0  2  0  0  0  0  0  0
  189.7290  174.3390  134.4230 C   0  0  0  0  0  3  0  0  0  0  0  0
  191.1160  176.0460  137.4010 N   0  0  0  0  0  0  0  0  0  0  0  0
  187.8850  177.4770  139.1670 C   0  0  1  0  0  3  0  0  0  0  0  0
  190.4170  177.1350  139.5030 C   0  0  0  0  0  0  0  0  0  0  0  0
  189.4940  177.7190  137.2590 N   0  0  0  0  0  0  0  0  0  0  0  0
  188.5280  177.0570  134.9700 C   0  0  0  0  0  2  0  0  0  0  0  0
  191.4770  177.2160  140.4330 C   0  0  0  0  0  3  0  0  0  0  0  0
  187.5700  178.3020  141.3580 N   0  0  0  0  0  0  0  0  0  0  0  0
  189.8820  177.7530  142.1850 C   0  0  0  0  0  0  0  0  0  0  0  0
  190.3330  175.8860  136.2270 C   0  0  0  0  0  0  0  0  0  0  0  0
  189.4180  176.8350  136.1430 C   0  0  0  0  0  0  0  0  0  0  0  0
  190.5890  174.8730  135.2430 N   0  0  0  0  0  0  0  0  0  0  0  0
  188.8410  177.6770  141.2650 C   0  0  0  0  0  0  0  0  0  0  0  0
  190.6850  177.2900  138.0250 C   0  0  2  0  0  3  0  0  0  0  0  0
  188.2880  178.1680  137.9020 C   0  0  0  0  0  0  0  0  0  0  0  0
  187.5290  178.9990  137.3370 O   0  0  0  0  0  0  0  0  0  0  0  0
  189.8760  178.2050  143.5970 C   0  0  0  0  0  2  0  0  0  0  0  0
  191.3620  178.0630  143.9950 C   0  0  2  0  0  3  0  0  0  0  0  0
  189.1000  177.2670  139.9820 C   0  0  0  0  0  0  0  0  0  0  0  0
  188.2900  174.6670  134.3460 C   0  0  0  0  0  3  0  0  0  0  0  0
  186.3020  175.9680  134.5420 C   0  0  0  0  0  0  0  0  0  0  0  0
  185.1530  176.0730  134.4530 N   0  0  0  0  0  0  0  0  0  0  0  0
  184.9530  179.4820  140.8390 C   0  0  0  0  0  2  0  0  0  0  0  0
  184.0130  178.5700  141.4670 N   0  0  0  0  0  2  0  0  0  0  0  0
  184.2780  178.6170  142.8940 C   0  0  0  0  0  1  0  0  0  0  0  0
  2 16  1  0  0  0  0
  2  5  1  0  0  0  0
  4 15  2  0  0  0  0
  5 25  1  0  0  0  0
  6 13  1  0  0  0  0
  7  4  1  0  0  0  0
  7 30  1  0  0  0  0
  8 19  2  0  0  0  0
  9  3  1  0  0  0  0
  9 21  1  0  0  0  0
 10 22  1  6  0  0  0
 10 26  1  0  0  0  0
 10  4  1  0  0  0  0
 11 26  2  0  0  0  0
 11 14  1  0  0  0  0
 12 22  1  0  0  0  0
 12 21  1  0  0  0  0
 13 18  1  0  0  0  0
 14  2  2  0  0  0  0
 16 24  1  0  0  0  0
 17  9  1  0  0  0  0
 18 17  2  0  0  0  0
 18 12  1  0  0  0  0
 19 17  1  0  0  0  0
 20 15  1  0  0  0  0
 20 16  2  0  0  0  0
 21 11  1  1  0  0  0
 23 22  2  0  0  0  0
 24 25  1  0  0  0  0
 25  1  1  6  0  0  0
 26 20  1  0  0  0  0
 27  8  1  0  0  0  0
 27  6  2  0  0  0  0
 28  6  1  0  0  0  0
 29 28  3  0  0  0  0
 30 31  1  0  0  0  0
 31 32  1  0  0  0  0
M  END
>  <MODEL>
5

>  <REMARK>
 VINA RESULT:      -7.3      2.703      4.024
  Name = 
  3 active torsions:
  status: ('A' for Active; 'I' for Inactive)
    1  A    between atoms: C_4  and  C_8
    2  A    between atoms: N_7  and  C_25
    3  A    between atoms: N_9  and  C_25
                            x       y       z     vdW  Elec       q    Type
                         _______ _______ _______ _____ _____    ______ ____

>  <TORSDO>
F 3

$$$$
