=
 OpenBabel10232410053D

 49 52  0  0  1  0  0  0  0  0999 V2000
  186.7850  177.3290  144.4140 C   0  0  1  0  0  3  0  0  0  0  0  0
  185.1600  177.9590  142.6530 O   0  0  0  0  0  0  0  0  0  0  0  0
  185.5710  178.0350  143.8910 C   0  0  0  0  0  0  0  0  0  0  0  0
  184.7030  178.8500  144.5990 C   0  0  0  0  0  3  0  0  0  0  0  0
  183.7890  179.2520  143.7400 O   0  0  0  0  0  0  0  0  0  0  0  0
  184.0840  178.7070  142.5860 C   0  0  0  0  0  0  0  0  0  0  0  0
  183.3830  178.9030  141.5090 N   0  0  0  0  0  0  0  0  0  0  0  0
  182.7610  177.3490  139.6620 C   0  0  0  0  0  3  0  0  0  0  0  0
  184.7420  178.7300  139.4950 C   0  0  0  0  0  3  0  0  0  0  0  0
  184.1510  177.2190  137.6820 C   0  0  0  0  0  0  0  0  0  0  0  0
  183.6220  178.3100  140.2220 C   0  0  0  0  0  0  0  0  0  0  0  0
  183.0270  176.8050  138.4020 C   0  0  0  0  0  3  0  0  0  0  0  0
  185.0240  178.1860  138.2280 C   0  0  0  0  0  0  0  0  0  0  0  0
  187.6190  176.6150  137.8450 N   0  0  0  0  0  1  0  0  0  0  0  0
  188.3460  178.4720  136.6640 O   0  0  0  0  0  0  0  0  0  0  0  0
  186.1680  178.6130  137.4710 N   0  0  0  0  0  2  0  0  0  0  0  0
  187.4120  177.9170  137.2930 C   0  0  0  0  0  0  0  0  0  0  0  0
  184.4280  176.5960  136.3510 C   0  0  0  0  0  2  0  0  0  0  0  0
  183.3790  174.5240  134.9250 S   0  0  0  0  0  1  0  0  0  0  0  0
  184.2320  175.0930  136.4190 C   0  0  0  0  0  2  0  0  0  0  0  0
  187.6170  176.9250  143.2870 N   0  0  0  0  0  2  0  0  0  0  0  0
  188.6390  177.9520  143.0700 C   0  0  0  0  0  2  0  0  0  0  0  0
  189.8680  177.4120  142.4620 N   0  0  0  0  0  0  0  0  0  0  0  0
  189.9060  177.8620  140.0470 C   0  0  0  0  0  2  0  0  0  0  0  0
  190.9440  176.8050  140.3760 C   0  0  1  0  0  3  0  0  0  0  0  0
  189.6300  176.8390  141.1380 C   0  0  1  0  0  3  0  0  0  0  0  0
  190.8890  175.7410  139.4330 O   0  0  0  0  0  0  0  0  0  0  0  0
  190.4170  175.4700  137.1880 O   0  0  0  0  0  0  0  0  0  0  0  0
  191.1890  175.9220  138.0820 C   0  0  0  0  0  0  0  0  0  0  0  0
  192.4730  176.5330  137.7300 C   0  0  0  0  0  3  0  0  0  0  0  0
  193.6860  175.9610  137.7760 C   0  0  0  0  0  3  0  0  0  0  0  0
  193.9720  174.5800  138.0360 N   0  0  0  0  0  2  0  0  0  0  0  0
  195.2970  174.0140  138.1960 C   0  0  0  0  0  2  0  0  0  0  0  0
  196.1640  174.9820  138.7220 O   0  0  0  0  0  0  0  0  0  0  0  0
  197.3750  174.6660  138.2210 N   0  0  0  0  0  2  0  0  0  0  0  0
  197.3110  174.8770  136.7870 C   0  0  0  0  0  2  0  0  0  0  0  0
  198.3290  174.0290  136.1030 C   0  0  0  0  0  3  0  0  0  0  0  0
  199.6190  174.3660  136.1260 C   0  0  0  0  0  2  0  0  0  0  0  0
  190.3480  176.3420  143.3190 C   0  0  0  0  0  2  0  0  0  0  0  0
  191.3900  176.8910  144.2740 C   0  0  0  0  0  2  0  0  0  0  0  0
  190.7990  176.9720  145.6650 C   0  0  0  0  0  2  0  0  0  0  0  0
  192.3140  175.1940  146.2910 N   0  0  0  0  0  2  0  0  0  0  0  0
  192.0210  176.9250  147.8590 N   0  0  0  0  0  1  0  0  0  0  0  0
  191.6890  176.2770  146.6410 C   0  0  0  0  0  0  0  0  0  0  0  0
  187.5190  178.1630  145.2620 O   0  0  0  0  0  0  0  0  0  0  0  0
  186.5270  178.3530  147.4020 C   0  0  0  0  0  2  0  0  0  0  0  0
  187.4550  177.5510  146.5200 C   0  0  2  0  0  3  0  0  0  0  0  0
  188.4600  177.6760  148.7660 C   0  0  0  0  0  1  0  0  0  0  0  0
  188.0230  178.4890  147.5670 C   0  0  2  0  0  3  0  0  0  0  0  0
  1 21  1  6  0  0  0
  1 45  1  0  0  0  0
  2  3  1  0  0  0  0
  3  1  1  0  0  0  0
  3  4  2  0  0  0  0
  5  4  1  0  0  0  0
  6  2  1  0  0  0  0
  6  5  1  0  0  0  0
  7  6  2  0  0  0  0
  8 11  1  0  0  0  0
  9 11  2  0  0  0  0
 10 13  2  0  0  0  0
 10 12  1  0  0  0  0
 11  7  1  0  0  0  0
 12  8  2  0  0  0  0
 13  9  1  0  0  0  0
 15 17  2  0  0  0  0
 16 13  1  0  0  0  0
 17 16  1  0  0  0  0
 17 14  1  0  0  0  0
 18 20  1  0  0  0  0
 18 10  1  0  0  0  0
 19 20  1  0  0  0  0
 22 21  1  0  0  0  0
 23 22  1  0  0  0  0
 23 39  1  0  0  0  0
 24 25  1  0  0  0  0
 24 26  1  0  0  0  0
 25 27  1  6  0  0  0
 25 26  1  0  0  0  0
 26 23  1  1  0  0  0
 28 29  2  0  0  0  0
 29 27  1  0  0  0  0
 30 31  2  0  0  0  0
 30 29  1  0  0  0  0
 31 32  1  0  0  0  0
 32 33  1  0  0  0  0
 33 34  1  0  0  0  0
 35 34  1  0  0  0  0
 36 35  1  0  0  0  0
 37 38  2  0  0  0  0
 37 36  1  0  0  0  0
 39 40  1  0  0  0  0
 40 41  1  0  0  0  0
 41 44  1  0  0  0  0
 42 44  2  0  0  0  0
 44 43  1  0  0  0  0
 46 49  1  0  0  0  0
 47 45  1  6  0  0  0
 47 46  1  0  0  0  0
 47 49  1  0  0  0  0
 49 48  1  1  0  0  0
M  END
>  <MODEL>
1

>  <REMARK>
 VINA RESULT:      -6.7      0.000      0.000
  Name = 
  24 active torsions:
  status: ('A' for Active; 'I' for Inactive)
    1  A    between atoms: O_1  and  C_22
    2  A    between atoms: O_1  and  C_24
    3  A    between atoms: C_5  and  N_17
    4  A    between atoms: C_5  and  N_42
    5  A    between atoms: N_6  and  C_33
    6  A    between atoms: N_6  and  C_43
    7  A    between atoms: O_10  and  C_12
    8  A    between atoms: O_10  and  C_34
    9  A    between atoms: C_12  and  C_37
   10  A    between atoms: C_13  and  C_19
   11  A    between atoms: C_13  and  C_25
   12  A    between atoms: C_15  and  C_22
   13  A    between atoms: C_16  and  C_35
   14  A    between atoms: N_17  and  C_29
   15  A    between atoms: N_17  and  C_44
   16  A    between atoms: C_19  and  C_29
   17  A    between atoms: C_22  and  N_42
   18  A    between atoms: C_23  and  C_39
   19  A    between atoms: C_23  and  N_49
   20  A    between atoms: C_27  and  N_45
   21  A    between atoms: N_31  and  C_32
   22  A    between atoms: C_33  and  O_46
   23  A    between atoms: C_35  and  C_38
   24  A    between atoms: O_46  and  N_49
                            x       y       z     vdW  Elec       q    Type
                         _______ _______ _______ _____ _____    ______ ____

>  <TORSDO>
F 24

$$$$
=
 OpenBabel10232410053D

 49 52  0  0  1  0  0  0  0  0999 V2000
  190.9150  177.0970  139.3780 C   0  0  1  0  0  3  0  0  0  0  0  0
  188.7210  176.8980  138.2450 O   0  0  0  0  0  0  0  0  0  0  0  0
  189.5550  177.5840  138.9820 C   0  0  0  0  0  0  0  0  0  0  0  0
  188.9630  178.7900  139.3180 C   0  0  0  0  0  3  0  0  0  0  0  0
  187.7750  178.7910  138.7500 O   0  0  0  0  0  0  0  0  0  0  0  0
  187.6550  177.6510  138.1170 C   0  0  0  0  0  0  0  0  0  0  0  0
  186.5950  177.3260  137.4370 N   0  0  0  0  0  0  0  0  0  0  0  0
  187.2690  175.5890  135.7810 C   0  0  0  0  0  3  0  0  0  0  0  0
  185.2450  175.3290  137.0810 C   0  0  0  0  0  3  0  0  0  0  0  0
  185.8870  173.6240  135.4700 C   0  0  0  0  0  0  0  0  0  0  0  0
  186.3770  176.0820  136.7500 C   0  0  0  0  0  0  0  0  0  0  0  0
  187.0240  174.3700  135.1430 C   0  0  0  0  0  3  0  0  0  0  0  0
  184.9820  174.1030  136.4430 C   0  0  0  0  0  0  0  0  0  0  0  0
  182.0720  175.0240  136.2750 N   0  0  0  0  0  1  0  0  0  0  0  0
  181.5600  172.9390  137.1490 O   0  0  0  0  0  0  0  0  0  0  0  0
  183.8260  173.3190  136.7800 N   0  0  0  0  0  2  0  0  0  0  0  0
  182.4490  173.7260  136.7410 C   0  0  0  0  0  0  0  0  0  0  0  0
  185.6320  172.3390  134.7480 C   0  0  0  0  0  2  0  0  0  0  0  0
  187.8720  170.7870  134.7990 S   0  0  0  0  0  1  0  0  0  0  0  0
  186.2490  171.1760  135.5030 C   0  0  0  0  0  2  0  0  0  0  0  0
  191.1560  177.4520  140.7720 N   0  0  0  0  0  2  0  0  0  0  0  0
  190.4560  176.4890  141.6260 C   0  0  0  0  0  2  0  0  0  0  0  0
  190.1100  177.0450  142.9460 N   0  0  0  0  0  0  0  0  0  0  0  0
  187.7720  176.4210  143.3720 C   0  0  0  0  0  2  0  0  0  0  0  0
  188.2250  177.4140  144.4260 C   0  0  1  0  0  3  0  0  0  0  0  0
  188.7350  177.5380  143.0000 C   0  0  1  0  0  3  0  0  0  0  0  0
  187.2300  178.4080  144.6350 O   0  0  0  0  0  0  0  0  0  0  0  0
  186.3870  177.4960  146.5850 O   0  0  0  0  0  0  0  0  0  0  0  0
  186.2290  178.2740  145.5990 C   0  0  0  0  0  0  0  0  0  0  0  0
  184.9510  178.9530  145.3740 C   0  0  0  0  0  3  0  0  0  0  0  0
  184.3060  179.1090  144.2080 C   0  0  0  0  0  3  0  0  0  0  0  0
  184.6540  178.5120  142.9510 N   0  0  0  0  0  2  0  0  0  0  0  0
  185.4870  179.1240  141.9340 C   0  0  0  0  0  2  0  0  0  0  0  0
  185.2180  178.5400  140.6880 O   0  0  0  0  0  0  0  0  0  0  0  0
  184.7130  179.5410  139.9410 N   0  0  0  0  0  2  0  0  0  0  0  0
  183.6950  178.9640  139.0850 C   0  0  0  0  0  2  0  0  0  0  0  0
  183.4010  177.5670  139.5160 C   0  0  0  0  0  3  0  0  0  0  0  0
  182.2090  177.0200  139.2750 C   0  0  0  0  0  2  0  0  0  0  0  0
  190.9870  178.1770  143.1900 C   0  0  0  0  0  2  0  0  0  0  0  0
  191.5500  178.0850  144.5940 C   0  0  0  0  0  2  0  0  0  0  0  0
  191.6060  176.6330  145.0170 C   0  0  0  0  0  2  0  0  0  0  0  0
  192.3470  175.9900  147.2270 N   0  0  0  0  0  1  0  0  0  0  0  0
  190.3290  177.1960  147.1050 N   0  0  0  0  0  2  0  0  0  0  0  0
  191.4170  176.5210  146.4930 C   0  0  0  0  0  0  0  0  0  0  0  0
  191.0130  175.7110  139.2250 O   0  0  0  0  0  0  0  0  0  0  0  0
  191.6600  175.9660  136.9630 C   0  0  0  0  0  2  0  0  0  0  0  0
  192.0820  175.5160  138.3430 C   0  0  2  0  0  3  0  0  0  0  0  0
  192.9490  173.8850  136.7120 C   0  0  0  0  0  1  0  0  0  0  0  0
  191.6920  174.4910  137.2950 C   0  0  2  0  0  3  0  0  0  0  0  0
  1 45  1  1  0  0  0
  1 21  1  0  0  0  0
  2  3  1  0  0  0  0
  3  4  2  0  0  0  0
  3  1  1  0  0  0  0
  5  4  1  0  0  0  0
  6  2  1  0  0  0  0
  6  5  1  0  0  0  0
  7  6  2  0  0  0  0
  8 11  1  0  0  0  0
 10 13  2  0  0  0  0
 11  9  2  0  0  0  0
 11  7  1  0  0  0  0
 12 10  1  0  0  0  0
 12  8  2  0  0  0  0
 13 16  1  0  0  0  0
 13  9  1  0  0  0  0
 14 17  1  0  0  0  0
 17 16  1  0  0  0  0
 17 15  2  0  0  0  0
 18 10  1  0  0  0  0
 18 20  1  0  0  0  0
 19 20  1  0  0  0  0
 21 22  1  0  0  0  0
 22 23  1  0  0  0  0
 23 39  1  0  0  0  0
 24 25  1  0  0  0  0
 25 27  1  6  0  0  0
 26 23  1  1  0  0  0
 26 24  1  0  0  0  0
 26 25  1  0  0  0  0
 27 29  1  0  0  0  0
 29 28  2  0  0  0  0
 30 29  1  0  0  0  0
 31 30  2  0  0  0  0
 32 31  1  0  0  0  0
 33 32  1  0  0  0  0
 34 33  1  0  0  0  0
 35 34  1  0  0  0  0
 36 37  1  0  0  0  0
 36 35  1  0  0  0  0
 38 37  2  0  0  0  0
 39 40  1  0  0  0  0
 40 41  1  0  0  0  0
 41 44  1  0  0  0  0
 44 43  2  0  0  0  0
 44 42  1  0  0  0  0
 46 49  1  0  0  0  0
 46 47  1  0  0  0  0
 47 45  1  1  0  0  0
 49 48  1  6  0  0  0
 49 47  1  0  0  0  0
M  END
>  <MODEL>
2

>  <REMARK>
 VINA RESULT:      -6.4      2.675      8.129
  Name = 
  24 active torsions:
  status: ('A' for Active; 'I' for Inactive)
    1  A    between atoms: O_1  and  C_22
    2  A    between atoms: O_1  and  C_24
    3  A    between atoms: C_5  and  N_17
    4  A    between atoms: C_5  and  N_42
    5  A    between atoms: N_6  and  C_33
    6  A    between atoms: N_6  and  C_43
    7  A    between atoms: O_10  and  C_12
    8  A    between atoms: O_10  and  C_34
    9  A    between atoms: C_12  and  C_37
   10  A    between atoms: C_13  and  C_19
   11  A    between atoms: C_13  and  C_25
   12  A    between atoms: C_15  and  C_22
   13  A    between atoms: C_16  and  C_35
   14  A    between atoms: N_17  and  C_29
   15  A    between atoms: N_17  and  C_44
   16  A    between atoms: C_19  and  C_29
   17  A    between atoms: C_22  and  N_42
   18  A    between atoms: C_23  and  C_39
   19  A    between atoms: C_23  and  N_49
   20  A    between atoms: C_27  and  N_45
   21  A    between atoms: N_31  and  C_32
   22  A    between atoms: C_33  and  O_46
   23  A    between atoms: C_35  and  C_38
   24  A    between atoms: O_46  and  N_49
                            x       y       z     vdW  Elec       q    Type
                         _______ _______ _______ _____ _____    ______ ____

>  <TORSDO>
F 24

$$$$
=
 OpenBabel10232410053D

 49 52  0  0  1  0  0  0  0  0999 V2000
  189.6800  177.5040  140.9480 C   0  0  1  0  0  3  0  0  0  0  0  0
  190.9040  176.6230  138.9820 O   0  0  0  0  0  0  0  0  0  0  0  0
  190.0020  177.4240  139.4870 C   0  0  0  0  0  0  0  0  0  0  0  0
  189.4210  178.1450  138.4570 C   0  0  0  0  0  3  0  0  0  0  0  0
  190.0150  177.7530  137.3490 O   0  0  0  0  0  0  0  0  0  0  0  0
  190.8950  176.8450  137.6890 C   0  0  0  0  0  0  0  0  0  0  0  0
  191.6670  176.2480  136.8290 N   0  0  0  0  0  0  0  0  0  0  0  0
  192.4600  173.8890  136.6940 C   0  0  0  0  0  3  0  0  0  0  0  0
  193.7760  175.5650  137.8400 C   0  0  0  0  0  3  0  0  0  0  0  0
  194.5660  173.2680  137.7180 C   0  0  0  0  0  0  0  0  0  0  0  0
  192.6260  175.2180  137.1220 C   0  0  0  0  0  0  0  0  0  0  0  0
  193.4220  172.9200  136.9930 C   0  0  0  0  0  3  0  0  0  0  0  0
  194.7500  174.5990  138.1530 C   0  0  0  0  0  0  0  0  0  0  0  0
  197.4550  175.3550  136.9440 N   0  0  0  0  0  1  0  0  0  0  0  0
  198.1880  175.4750  139.1400 O   0  0  0  0  0  0  0  0  0  0  0  0
  195.9370  174.9450  138.8850 N   0  0  0  0  0  2  0  0  0  0  0  0
  197.2300  175.2770  138.3540 C   0  0  0  0  0  0  0  0  0  0  0  0
  195.5620  172.2040  138.0510 C   0  0  0  0  0  2  0  0  0  0  0  0
  196.4120  169.9500  136.7760 S   0  0  0  0  0  1  0  0  0  0  0  0
  195.0640  170.8480  137.5890 C   0  0  0  0  0  2  0  0  0  0  0  0
  188.2480  177.2970  141.1270 N   0  0  0  0  0  2  0  0  0  0  0  0
  187.6080  178.6010  141.3120 C   0  0  0  0  0  2  0  0  0  0  0  0
  186.1360  178.5210  141.2930 N   0  0  0  0  0  0  0  0  0  0  0  0
  185.2760  178.0650  139.0370 C   0  0  0  0  0  2  0  0  0  0  0  0
  184.1490  178.5930  139.9060 C   0  0  1  0  0  3  0  0  0  0  0  0
  185.5610  179.1230  140.0920 C   0  0  1  0  0  3  0  0  0  0  0  0
  183.3910  179.5680  139.2010 O   0  0  0  0  0  0  0  0  0  0  0  0
  181.2210  179.1100  139.8500 O   0  0  0  0  0  0  0  0  0  0  0  0
  182.0330  179.4050  138.9250 C   0  0  0  0  0  0  0  0  0  0  0  0
  181.5960  179.4590  137.5290 C   0  0  0  0  0  3  0  0  0  0  0  0
  181.3700  178.4230  136.7070 C   0  0  0  0  0  3  0  0  0  0  0  0
  181.3630  177.0330  137.0620 N   0  0  0  0  0  2  0  0  0  0  0  0
  182.3850  176.3610  137.8400 C   0  0  0  0  0  2  0  0  0  0  0  0
  183.1040  175.4820  137.0170 O   0  0  0  0  0  0  0  0  0  0  0  0
  183.6670  174.6000  137.8670 N   0  0  0  0  0  2  0  0  0  0  0  0
  184.8810  174.1170  137.2380 C   0  0  0  0  0  2  0  0  0  0  0  0
  185.7200  175.2700  136.8020 C   0  0  0  0  0  3  0  0  0  0  0  0
  187.0260  175.2990  137.0730 C   0  0  0  0  0  2  0  0  0  0  0  0
  185.6410  179.2690  142.4350 C   0  0  0  0  0  2  0  0  0  0  0  0
  184.9960  178.3160  143.4210 C   0  0  0  0  0  2  0  0  0  0  0  0
  185.8300  178.2620  144.6830 C   0  0  0  0  0  2  0  0  0  0  0  0
  185.6130  179.0510  146.9590 N   0  0  0  0  0  1  0  0  0  0  0  0
  183.6430  179.0050  145.6700 N   0  0  0  0  0  2  0  0  0  0  0  0
  185.0220  178.7200  145.8510 C   0  0  0  0  0  0  0  0  0  0  0  0
  190.3870  176.5370  141.6680 O   0  0  0  0  0  0  0  0  0  0  0  0
  191.3410  178.0840  143.1830 C   0  0  0  0  0  2  0  0  0  0  0  0
  190.3390  176.9670  142.9990 C   0  0  2  0  0  3  0  0  0  0  0  0
  191.4670  176.6300  145.1650 C   0  0  0  0  0  1  0  0  0  0  0  0
  191.6730  176.6910  143.6670 C   0  0  2  0  0  3  0  0  0  0  0  0
  1 21  1  6  0  0  0
  1 45  1  0  0  0  0
  2  3  1  0  0  0  0
  3  1  1  0  0  0  0
  4  3  2  0  0  0  0
  5  6  1  0  0  0  0
  5  4  1  0  0  0  0
  6  2  1  0  0  0  0
  7 11  1  0  0  0  0
  7  6  2  0  0  0  0
  8 12  2  0  0  0  0
  8 11  1  0  0  0  0
  9 13  1  0  0  0  0
 10 18  1  0  0  0  0
 10 13  2  0  0  0  0
 11  9  2  0  0  0  0
 12 10  1  0  0  0  0
 13 16  1  0  0  0  0
 14 17  1  0  0  0  0
 17 16  1  0  0  0  0
 17 15  2  0  0  0  0
 19 20  1  0  0  0  0
 20 18  1  0  0  0  0
 21 22  1  0  0  0  0
 23 22  1  0  0  0  0
 23 39  1  0  0  0  0
 24 25  1  0  0  0  0
 24 26  1  0  0  0  0
 25 27  1  6  0  0  0
 25 26  1  0  0  0  0
 26 23  1  1  0  0  0
 29 27  1  0  0  0  0
 29 28  2  0  0  0  0
 30 29  1  0  0  0  0
 31 32  1  0  0  0  0
 31 30  2  0  0  0  0
 32 33  1  0  0  0  0
 34 33  1  0  0  0  0
 34 35  1  0  0  0  0
 36 35  1  0  0  0  0
 37 38  2  0  0  0  0
 37 36  1  0  0  0  0
 39 40  1  0  0  0  0
 40 41  1  0  0  0  0
 41 44  1  0  0  0  0
 43 44  2  0  0  0  0
 44 42  1  0  0  0  0
 46 49  1  0  0  0  0
 47 45  1  6  0  0  0
 47 46  1  0  0  0  0
 47 49  1  0  0  0  0
 49 48  1  1  0  0  0
M  END
>  <MODEL>
3

>  <REMARK>
 VINA RESULT:      -5.8      3.269      9.348
  Name = 
  24 active torsions:
  status: ('A' for Active; 'I' for Inactive)
    1  A    between atoms: O_1  and  C_22
    2  A    between atoms: O_1  and  C_24
    3  A    between atoms: C_5  and  N_17
    4  A    between atoms: C_5  and  N_42
    5  A    between atoms: N_6  and  C_33
    6  A    between atoms: N_6  and  C_43
    7  A    between atoms: O_10  and  C_12
    8  A    between atoms: O_10  and  C_34
    9  A    between atoms: C_12  and  C_37
   10  A    between atoms: C_13  and  C_19
   11  A    between atoms: C_13  and  C_25
   12  A    between atoms: C_15  and  C_22
   13  A    between atoms: C_16  and  C_35
   14  A    between atoms: N_17  and  C_29
   15  A    between atoms: N_17  and  C_44
   16  A    between atoms: C_19  and  C_29
   17  A    between atoms: C_22  and  N_42
   18  A    between atoms: C_23  and  C_39
   19  A    between atoms: C_23  and  N_49
   20  A    between atoms: C_27  and  N_45
   21  A    between atoms: N_31  and  C_32
   22  A    between atoms: C_33  and  O_46
   23  A    between atoms: C_35  and  C_38
   24  A    between atoms: O_46  and  N_49
                            x       y       z     vdW  Elec       q    Type
                         _______ _______ _______ _____ _____    ______ ____

>  <TORSDO>
F 24

$$$$
=
 OpenBabel10232410053D

 49 52  0  0  1  0  0  0  0  0999 V2000
  186.1330  177.5280  143.7570 C   0  0  1  0  0  3  0  0  0  0  0  0
  184.2170  177.8500  142.2210 O   0  0  0  0  0  0  0  0  0  0  0  0
  184.8630  178.1820  143.3080 C   0  0  0  0  0  0  0  0  0  0  0  0
  184.1740  179.2030  143.9410 C   0  0  0  0  0  3  0  0  0  0  0  0
  183.1230  179.4620  143.1900 O   0  0  0  0  0  0  0  0  0  0  0  0
  183.1720  178.6420  142.1710 C   0  0  0  0  0  0  0  0  0  0  0  0
  182.2800  178.6340  141.2240 N   0  0  0  0  0  0  0  0  0  0  0  0
  181.4300  176.5960  140.0690 C   0  0  0  0  0  3  0  0  0  0  0  0
  183.0400  178.0420  138.9860 C   0  0  0  0  0  3  0  0  0  0  0  0
  182.2220  176.0570  137.8430 C   0  0  0  0  0  0  0  0  0  0  0  0
  182.2470  177.7400  140.0990 C   0  0  0  0  0  0  0  0  0  0  0  0
  181.4210  175.7580  138.9490 C   0  0  0  0  0  3  0  0  0  0  0  0
  183.0450  177.2050  137.8560 C   0  0  0  0  0  0  0  0  0  0  0  0
  185.8550  176.1370  137.2960 N   0  0  0  0  0  1  0  0  0  0  0  0
  185.7830  177.4780  135.4070 O   0  0  0  0  0  0  0  0  0  0  0  0
  183.8530  177.5080  136.7060 N   0  0  0  0  0  2  0  0  0  0  0  0
  185.1840  177.0500  136.4240 C   0  0  0  0  0  0  0  0  0  0  0  0
  182.2170  175.1260  136.6730 C   0  0  0  0  0  2  0  0  0  0  0  0
  181.0030  174.3230  134.3690 S   0  0  0  0  0  1  0  0  0  0  0  0
  180.8770  175.1730  135.9640 C   0  0  0  0  0  2  0  0  0  0  0  0
  187.0000  177.3350  142.6000 N   0  0  0  0  0  2  0  0  0  0  0  0
  187.6200  178.6190  142.2630 C   0  0  0  0  0  2  0  0  0  0  0  0
  188.8950  178.4630  141.5390 N   0  0  0  0  0  0  0  0  0  0  0  0
  188.5300  177.3150  139.3980 C   0  0  0  0  0  2  0  0  0  0  0  0
  190.0110  177.3020  139.7270 C   0  0  1  0  0  3  0  0  0  0  0  0
  188.9860  177.1810  140.8430 C   0  0  1  0  0  3  0  0  0  0  0  0
  190.5650  176.0160  139.4840 O   0  0  0  0  0  0  0  0  0  0  0  0
  191.1910  174.3600  137.9990 O   0  0  0  0  0  0  0  0  0  0  0  0
  190.8980  175.5740  138.2030 C   0  0  0  0  0  0  0  0  0  0  0  0
  191.0230  176.5680  137.1350 C   0  0  0  0  0  3  0  0  0  0  0  0
  190.2920  176.6530  136.0130 C   0  0  0  0  0  3  0  0  0  0  0  0
  189.1290  175.8790  135.6890 N   0  0  0  0  0  2  0  0  0  0  0  0
  189.0710  174.8300  134.6890 C   0  0  0  0  0  2  0  0  0  0  0  0
  188.6980  173.6210  135.2950 O   0  0  0  0  0  0  0  0  0  0  0  0
  187.5020  173.8760  135.8620 N   0  0  0  0  0  2  0  0  0  0  0  0
  187.0280  172.6320  136.4370 C   0  0  0  0  0  2  0  0  0  0  0  0
  185.5650  172.4840  136.1910 C   0  0  0  0  0  3  0  0  0  0  0  0
  185.0770  171.3640  135.6560 C   0  0  0  0  0  2  0  0  0  0  0  0
  189.9640  178.5030  142.5210 C   0  0  0  0  0  2  0  0  0  0  0  0
  189.9560  177.2190  143.3270 C   0  0  0  0  0  2  0  0  0  0  0  0
  190.4020  177.5150  144.7440 C   0  0  0  0  0  2  0  0  0  0  0  0
  191.9260  175.6870  144.3190 N   0  0  0  0  0  2  0  0  0  0  0  0
  191.9810  176.6200  146.4800 N   0  0  0  0  0  1  0  0  0  0  0  0
  191.4170  176.5130  145.1810 C   0  0  0  0  0  0  0  0  0  0  0  0
  186.7900  178.3150  144.7070 O   0  0  0  0  0  0  0  0  0  0  0  0
  186.2640  178.3650  147.0140 C   0  0  0  0  0  2  0  0  0  0  0  0
  186.8110  177.5390  145.8720 C   0  0  2  0  0  3  0  0  0  0  0  0
  188.2000  177.1020  147.8610 C   0  0  0  0  0  1  0  0  0  0  0  0
  187.7570  178.1650  146.8790 C   0  0  2  0  0  3  0  0  0  0  0  0
  1 21  1  6  0  0  0
  1 45  1  0  0  0  0
  2  3  1  0  0  0  0
  3  1  1  0  0  0  0
  3  4  2  0  0  0  0
  5  4  1  0  0  0  0
  6  2  1  0  0  0  0
  6  5  1  0  0  0  0
  7  6  2  0  0  0  0
  8 11  1  0  0  0  0
  9 11  2  0  0  0  0
 10 13  2  0  0  0  0
 10 12  1  0  0  0  0
 11  7  1  0  0  0  0
 12  8  2  0  0  0  0
 13  9  1  0  0  0  0
 15 17  2  0  0  0  0
 16 13  1  0  0  0  0
 17 16  1  0  0  0  0
 17 14  1  0  0  0  0
 18 10  1  0  0  0  0
 19 20  1  0  0  0  0
 20 18  1  0  0  0  0
 22 21  1  0  0  0  0
 23 22  1  0  0  0  0
 23 39  1  0  0  0  0
 24 25  1  0  0  0  0
 24 26  1  0  0  0  0
 25 27  1  6  0  0  0
 25 26  1  0  0  0  0
 26 23  1  1  0  0  0
 28 29  2  0  0  0  0
 29 27  1  0  0  0  0
 30 29  1  0  0  0  0
 31 30  2  0  0  0  0
 32 31  1  0  0  0  0
 33 34  1  0  0  0  0
 33 32  1  0  0  0  0
 34 35  1  0  0  0  0
 35 36  1  0  0  0  0
 37 36  1  0  0  0  0
 38 37  2  0  0  0  0
 39 40  1  0  0  0  0
 40 41  1  0  0  0  0
 41 44  1  0  0  0  0
 42 44  2  0  0  0  0
 44 43  1  0  0  0  0
 47 45  1  6  0  0  0
 47 49  1  0  0  0  0
 47 46  1  0  0  0  0
 49 46  1  0  0  0  0
 49 48  1  1  0  0  0
M  END
>  <MODEL>
4

>  <REMARK>
 VINA RESULT:      -5.8      2.923      4.253
  Name = 
  24 active torsions:
  status: ('A' for Active; 'I' for Inactive)
    1  A    between atoms: O_1  and  C_22
    2  A    between atoms: O_1  and  C_24
    3  A    between atoms: C_5  and  N_17
    4  A    between atoms: C_5  and  N_42
    5  A    between atoms: N_6  and  C_33
    6  A    between atoms: N_6  and  C_43
    7  A    between atoms: O_10  and  C_12
    8  A    between atoms: O_10  and  C_34
    9  A    between atoms: C_12  and  C_37
   10  A    between atoms: C_13  and  C_19
   11  A    between atoms: C_13  and  C_25
   12  A    between atoms: C_15  and  C_22
   13  A    between atoms: C_16  and  C_35
   14  A    between atoms: N_17  and  C_29
   15  A    between atoms: N_17  and  C_44
   16  A    between atoms: C_19  and  C_29
   17  A    between atoms: C_22  and  N_42
   18  A    between atoms: C_23  and  C_39
   19  A    between atoms: C_23  and  N_49
   20  A    between atoms: C_27  and  N_45
   21  A    between atoms: N_31  and  C_32
   22  A    between atoms: C_33  and  O_46
   23  A    between atoms: C_35  and  C_38
   24  A    between atoms: O_46  and  N_49
                            x       y       z     vdW  Elec       q    Type
                         _______ _______ _______ _____ _____    ______ ____

>  <TORSDO>
F 24

$$$$
=
 OpenBabel10232410053D

 49 52  0  0  1  0  0  0  0  0999 V2000
  188.2420  177.5060  143.0060 C   0  0  1  0  0  3  0  0  0  0  0  0
  185.9270  178.1390  143.6190 O   0  0  0  0  0  0  0  0  0  0  0  0
  187.1590  177.8780  143.9710 C   0  0  0  0  0  0  0  0  0  0  0  0
  187.2630  177.9980  145.3470 C   0  0  0  0  0  3  0  0  0  0  0  0
  186.0700  178.3460  145.7810 O   0  0  0  0  0  0  0  0  0  0  0  0
  185.2910  178.4230  144.7310 C   0  0  0  0  0  0  0  0  0  0  0  0
  184.0350  178.7520  144.8030 N   0  0  0  0  0  0  0  0  0  0  0  0
  181.8050  179.3200  143.8450 C   0  0  0  0  0  3  0  0  0  0  0  0
  183.5470  178.3950  142.4430 C   0  0  0  0  0  3  0  0  0  0  0  0
  181.3770  178.9420  141.4910 C   0  0  0  0  0  0  0  0  0  0  0  0
  183.1120  178.8200  143.7030 C   0  0  0  0  0  0  0  0  0  0  0  0
  180.9420  179.3770  142.7460 C   0  0  0  0  0  3  0  0  0  0  0  0
  182.6870  178.4410  141.3300 C   0  0  0  0  0  0  0  0  0  0  0  0
  184.5930  179.9560  139.4790 N   0  0  0  0  0  1  0  0  0  0  0  0
  184.2120  178.2260  137.9840 O   0  0  0  0  0  0  0  0  0  0  0  0
  183.1250  178.0120  140.0300 N   0  0  0  0  0  2  0  0  0  0  0  0
  183.9940  178.7070  139.1230 C   0  0  0  0  0  0  0  0  0  0  0  0
  180.4220  178.9840  140.3400 C   0  0  0  0  0  2  0  0  0  0  0  0
  180.0190  180.3420  138.0120 S   0  0  0  0  0  1  0  0  0  0  0  0
  180.3040  180.3960  139.8000 C   0  0  0  0  0  2  0  0  0  0  0  0
  187.8230  177.8790  141.6600 N   0  0  0  0  0  2  0  0  0  0  0  0
  189.0100  178.2630  140.8920 C   0  0  0  0  0  2  0  0  0  0  0  0
  189.3530  177.2850  139.8450 N   0  0  0  0  0  0  0  0  0  0  0  0
  191.7930  177.3280  140.1230 C   0  0  0  0  0  2  0  0  0  0  0  0
  191.4290  176.3100  139.0580 C   0  0  1  0  0  3  0  0  0  0  0  0
  190.6230  177.5920  139.1890 C   0  0  1  0  0  3  0  0  0  0  0  0
  192.2900  176.4340  137.9340 O   0  0  0  0  0  0  0  0  0  0  0  0
  192.6970  174.2020  137.4930 O   0  0  0  0  0  0  0  0  0  0  0  0
  192.5310  175.3780  137.0550 C   0  0  0  0  0  0  0  0  0  0  0  0
  192.7120  175.6820  135.6330 C   0  0  0  0  0  3  0  0  0  0  0  0
  193.7570  176.2970  135.0600 C   0  0  0  0  0  3  0  0  0  0  0  0
  194.9930  176.6560  135.6930 N   0  0  0  0  0  2  0  0  0  0  0  0
  196.2180  177.0100  135.0030 C   0  0  0  0  0  2  0  0  0  0  0  0
  197.1130  175.9310  135.0450 O   0  0  0  0  0  0  0  0  0  0  0  0
  197.5720  175.9160  136.3130 N   0  0  0  0  0  2  0  0  0  0  0  0
  197.8030  174.5290  136.6670 C   0  0  0  0  0  2  0  0  0  0  0  0
  199.2460  174.3170  136.9740 C   0  0  0  0  0  3  0  0  0  0  0  0
  200.1570  174.3330  136.0000 C   0  0  0  0  0  2  0  0  0  0  0  0
  188.3140  177.3450  138.8320 C   0  0  0  0  0  2  0  0  0  0  0  0
  188.8870  177.9290  137.5560 C   0  0  0  0  0  2  0  0  0  0  0  0
  187.7840  178.6220  136.7840 C   0  0  0  0  0  2  0  0  0  0  0  0
  186.1960  177.5400  135.3160 N   0  0  0  0  0  1  0  0  0  0  0  0
  188.4320  177.6050  134.5810 N   0  0  0  0  0  2  0  0  0  0  0  0
  187.4360  177.8330  135.5670 C   0  0  0  0  0  0  0  0  0  0  0  0
  189.4370  178.1590  143.3220 O   0  0  0  0  0  0  0  0  0  0  0  0
  191.4310  177.9150  144.5730 C   0  0  0  0  0  2  0  0  0  0  0  0
  190.1180  177.2810  144.1740 C   0  0  2  0  0  3  0  0  0  0  0  0
  191.8530  175.5300  144.1340 C   0  0  0  0  0  1  0  0  0  0  0  0
  191.4100  176.8370  143.5130 C   0  0  2  0  0  3  0  0  0  0  0  0
  1 21  1  6  0  0  0
  1 45  1  0  0  0  0
  1  3  1  0  0  0  0
  2  3  1  0  0  0  0
  2  6  1  0  0  0  0
  3  4  2  0  0  0  0
  4  5  1  0  0  0  0
  6  7  2  0  0  0  0
  6  5  1  0  0  0  0
  9 11  2  0  0  0  0
 10 12  1  0  0  0  0
 11  8  1  0  0  0  0
 11  7  1  0  0  0  0
 12  8  2  0  0  0  0
 13 10  2  0  0  0  0
 13  9  1  0  0  0  0
 15 17  2  0  0  0  0
 16 13  1  0  0  0  0
 17 14  1  0  0  0  0
 17 16  1  0  0  0  0
 18 10  1  0  0  0  0
 19 20  1  0  0  0  0
 20 18  1  0  0  0  0
 22 21  1  0  0  0  0
 23 22  1  0  0  0  0
 25 27  1  6  0  0  0
 25 26  1  0  0  0  0
 25 24  1  0  0  0  0
 26 23  1  1  0  0  0
 26 24  1  0  0  0  0
 29 28  2  0  0  0  0
 29 27  1  0  0  0  0
 30 29  1  0  0  0  0
 31 30  2  0  0  0  0
 31 32  1  0  0  0  0
 33 34  1  0  0  0  0
 33 32  1  0  0  0  0
 34 35  1  0  0  0  0
 35 36  1  0  0  0  0
 36 37  1  0  0  0  0
 38 37  2  0  0  0  0
 39 23  1  0  0  0  0
 40 39  1  0  0  0  0
 41 40  1  0  0  0  0
 42 44  1  0  0  0  0
 43 44  2  0  0  0  0
 44 41  1  0  0  0  0
 47 45  1  6  0  0  0
 47 46  1  0  0  0  0
 49 48  1  1  0  0  0
 49 47  1  0  0  0  0
 49 46  1  0  0  0  0
M  END
>  <MODEL>
5

>  <REMARK>
 VINA RESULT:      -5.7      2.718      5.098
  Name = 
  24 active torsions:
  status: ('A' for Active; 'I' for Inactive)
    1  A    between atoms: O_1  and  C_22
    2  A    between atoms: O_1  and  C_24
    3  A    between atoms: C_5  and  N_17
    4  A    between atoms: C_5  and  N_42
    5  A    between atoms: N_6  and  C_33
    6  A    between atoms: N_6  and  C_43
    7  A    between atoms: O_10  and  C_12
    8  A    between atoms: O_10  and  C_34
    9  A    between atoms: C_12  and  C_37
   10  A    between atoms: C_13  and  C_19
   11  A    between atoms: C_13  and  C_25
   12  A    between atoms: C_15  and  C_22
   13  A    between atoms: C_16  and  C_35
   14  A    between atoms: N_17  and  C_29
   15  A    between atoms: N_17  and  C_44
   16  A    between atoms: C_19  and  C_29
   17  A    between atoms: C_22  and  N_42
   18  A    between atoms: C_23  and  C_39
   19  A    between atoms: C_23  and  N_49
   20  A    between atoms: C_27  and  N_45
   21  A    between atoms: N_31  and  C_32
   22  A    between atoms: C_33  and  O_46
   23  A    between atoms: C_35  and  C_38
   24  A    between atoms: O_46  and  N_49
                            x       y       z     vdW  Elec       q    Type
                         _______ _______ _______ _____ _____    ______ ____

>  <TORSDO>
F 24

$$$$
=
 OpenBabel10232410053D

 49 52  0  0  1  0  0  0  0  0999 V2000
  186.0970  177.7590  143.5350 C   0  0  1  0  0  3  0  0  0  0  0  0
  184.9840  177.8570  141.3240 O   0  0  0  0  0  0  0  0  0  0  0  0
  185.7210  178.4200  142.2450 C   0  0  0  0  0  0  0  0  0  0  0  0
  186.0670  179.6930  141.8200 C   0  0  0  0  0  3  0  0  0  0  0  0
  185.5230  179.8470  140.6300 O   0  0  0  0  0  0  0  0  0  0  0  0
  184.8820  178.7380  140.3580 C   0  0  0  0  0  0  0  0  0  0  0  0
  184.2330  178.5490  139.2470 N   0  0  0  0  0  0  0  0  0  0  0  0
  182.2530  177.0590  139.5080 C   0  0  0  0  0  3  0  0  0  0  0  0
  183.9740  176.5440  137.8870 C   0  0  0  0  0  3  0  0  0  0  0  0
  182.0480  175.0780  138.1280 C   0  0  0  0  0  0  0  0  0  0  0  0
  183.4770  177.3780  138.8950 C   0  0  0  0  0  0  0  0  0  0  0  0
  181.5450  175.9140  139.1290 C   0  0  0  0  0  3  0  0  0  0  0  0
  183.2760  175.3860  137.5000 C   0  0  0  0  0  0  0  0  0  0  0  0
  185.1720  173.0180  137.8810 N   0  0  0  0  0  1  0  0  0  0  0  0
  185.0880  172.8230  135.5730 O   0  0  0  0  0  0  0  0  0  0  0  0
  183.7740  174.5250  136.4630 N   0  0  0  0  0  2  0  0  0  0  0  0
  184.6860  173.4240  136.6000 C   0  0  0  0  0  0  0  0  0  0  0  0
  181.2870  173.8420  137.7660 C   0  0  0  0  0  2  0  0  0  0  0  0
  180.2390  174.3080  135.2940 S   0  0  0  0  0  1  0  0  0  0  0  0
  179.9820  174.2060  137.0840 C   0  0  0  0  0  2  0  0  0  0  0  0
  187.5490  177.7820  143.6720 N   0  0  0  0  0  2  0  0  0  0  0  0
  188.1170  176.7660  142.7830 C   0  0  0  0  0  2  0  0  0  0  0  0
  189.2740  177.2630  142.0170 N   0  0  0  0  0  0  0  0  0  0  0  0
  189.0970  178.3730  139.8320 C   0  0  0  0  0  2  0  0  0  0  0  0
  190.3730  177.5530  139.8750 C   0  0  1  0  0  3  0  0  0  0  0  0
  189.1240  177.0490  140.5790 C   0  0  1  0  0  3  0  0  0  0  0  0
  190.5360  176.8200  138.6680 O   0  0  0  0  0  0  0  0  0  0  0  0
  192.8410  176.7550  138.8100 O   0  0  0  0  0  0  0  0  0  0  0  0
  191.7850  176.4030  138.2080 C   0  0  0  0  0  0  0  0  0  0  0  0
  191.8500  175.6590  136.9480 C   0  0  0  0  0  3  0  0  0  0  0  0
  192.8370  175.6830  136.0390 C   0  0  0  0  0  3  0  0  0  0  0  0
  194.1110  176.3270  136.1750 N   0  0  0  0  0  2  0  0  0  0  0  0
  195.3990  175.6710  136.0610 C   0  0  0  0  0  2  0  0  0  0  0  0
  195.8260  175.2450  137.3260 O   0  0  0  0  0  0  0  0  0  0  0  0
  196.1640  173.9510  137.1560 N   0  0  0  0  0  2  0  0  0  0  0  0
  197.0980  173.6120  138.2130 C   0  0  0  0  0  2  0  0  0  0  0  0
  198.4960  173.8320  137.7450 C   0  0  0  0  0  3  0  0  0  0  0  0
  198.7720  173.9020  136.4410 C   0  0  0  0  0  2  0  0  0  0  0  0
  190.4410  176.5140  142.4490 C   0  0  0  0  0  2  0  0  0  0  0  0
  191.0340  177.1720  143.6790 C   0  0  0  0  0  2  0  0  0  0  0  0
  191.4910  176.1010  144.6470 C   0  0  0  0  0  2  0  0  0  0  0  0
  191.9130  176.3820  147.0120 N   0  0  0  0  0  1  0  0  0  0  0  0
  189.7960  177.0590  146.2340 N   0  0  0  0  0  2  0  0  0  0  0  0
  191.0620  176.4470  146.0340 C   0  0  0  0  0  0  0  0  0  0  0  0
  185.5140  178.4200  144.6210 O   0  0  0  0  0  0  0  0  0  0  0  0
  185.1420  177.9700  146.9140 C   0  0  0  0  0  2  0  0  0  0  0  0
  186.1030  177.8470  145.7540 C   0  0  2  0  0  3  0  0  0  0  0  0
  187.4020  178.4600  147.7580 C   0  0  0  0  0  1  0  0  0  0  0  0
  186.3160  178.9170  146.8080 C   0  0  2  0  0  3  0  0  0  0  0  0
  1 21  1  1  0  0  0
  1 45  1  0  0  0  0
  2  3  1  0  0  0  0
  3  1  1  0  0  0  0
  4  3  2  0  0  0  0
  5  4  1  0  0  0  0
  6  5  1  0  0  0  0
  6  2  1  0  0  0  0
  7  6  2  0  0  0  0
  9 11  1  0  0  0  0
 10 12  2  0  0  0  0
 11  7  1  0  0  0  0
 11  8  2  0  0  0  0
 12  8  1  0  0  0  0
 13  9  2  0  0  0  0
 13 10  1  0  0  0  0
 15 17  2  0  0  0  0
 16 17  1  0  0  0  0
 16 13  1  0  0  0  0
 17 14  1  0  0  0  0
 18 10  1  0  0  0  0
 19 20  1  0  0  0  0
 20 18  1  0  0  0  0
 22 21  1  0  0  0  0
 23 39  1  0  0  0  0
 23 22  1  0  0  0  0
 24 25  1  0  0  0  0
 24 26  1  0  0  0  0
 25 27  1  6  0  0  0
 25 26  1  0  0  0  0
 26 23  1  1  0  0  0
 29 27  1  0  0  0  0
 29 28  2  0  0  0  0
 30 29  1  0  0  0  0
 31 32  1  0  0  0  0
 31 30  2  0  0  0  0
 33 32  1  0  0  0  0
 33 34  1  0  0  0  0
 35 34  1  0  0  0  0
 35 36  1  0  0  0  0
 37 36  1  0  0  0  0
 38 37  2  0  0  0  0
 39 40  1  0  0  0  0
 40 41  1  0  0  0  0
 41 44  1  0  0  0  0
 44 43  2  0  0  0  0
 44 42  1  0  0  0  0
 47 45  1  6  0  0  0
 47 49  1  0  0  0  0
 47 46  1  0  0  0  0
 49 46  1  0  0  0  0
 49 48  1  1  0  0  0
M  END
>  <MODEL>
6

>  <REMARK>
 VINA RESULT:      -5.4      2.120      2.554
  Name = 
  24 active torsions:
  status: ('A' for Active; 'I' for Inactive)
    1  A    between atoms: O_1  and  C_22
    2  A    between atoms: O_1  and  C_24
    3  A    between atoms: C_5  and  N_17
    4  A    between atoms: C_5  and  N_42
    5  A    between atoms: N_6  and  C_33
    6  A    between atoms: N_6  and  C_43
    7  A    between atoms: O_10  and  C_12
    8  A    between atoms: O_10  and  C_34
    9  A    between atoms: C_12  and  C_37
   10  A    between atoms: C_13  and  C_19
   11  A    between atoms: C_13  and  C_25
   12  A    between atoms: C_15  and  C_22
   13  A    between atoms: C_16  and  C_35
   14  A    between atoms: N_17  and  C_29
   15  A    between atoms: N_17  and  C_44
   16  A    between atoms: C_19  and  C_29
   17  A    between atoms: C_22  and  N_42
   18  A    between atoms: C_23  and  C_39
   19  A    between atoms: C_23  and  N_49
   20  A    between atoms: C_27  and  N_45
   21  A    between atoms: N_31  and  C_32
   22  A    between atoms: C_33  and  O_46
   23  A    between atoms: C_35  and  C_38
   24  A    between atoms: O_46  and  N_49
                            x       y       z     vdW  Elec       q    Type
                         _______ _______ _______ _____ _____    ______ ____

>  <TORSDO>
F 24

$$$$
=
 OpenBabel10232410053D

 49 52  0  0  1  0  0  0  0  0999 V2000
  188.4580  178.2210  140.0930 C   0  0  1  0  0  3  0  0  0  0  0  0
  189.8590  177.3120  138.2640 O   0  0  0  0  0  0  0  0  0  0  0  0
  188.8060  177.9790  138.6570 C   0  0  0  0  0  0  0  0  0  0  0  0
  188.1010  178.3940  137.5390 C   0  0  0  0  0  3  0  0  0  0  0  0
  188.7760  177.9630  136.4940 O   0  0  0  0  0  0  0  0  0  0  0  0
  189.8200  177.3200  136.9530 C   0  0  0  0  0  0  0  0  0  0  0  0
  190.7080  176.7670  136.1810 N   0  0  0  0  0  0  0  0  0  0  0  0
  191.8060  175.1190  137.6930 C   0  0  0  0  0  3  0  0  0  0  0  0
  193.0530  176.1680  135.9050 C   0  0  0  0  0  3  0  0  0  0  0  0
  194.1420  174.5620  137.3710 C   0  0  0  0  0  0  0  0  0  0  0  0
  191.8550  176.0150  136.6110 C   0  0  0  0  0  0  0  0  0  0  0  0
  192.9440  174.4000  138.0730 C   0  0  0  0  0  3  0  0  0  0  0  0
  194.2070  175.4560  136.2790 C   0  0  0  0  0  0  0  0  0  0  0  0
  195.4440  178.0900  135.3410 N   0  0  0  0  0  1  0  0  0  0  0  0
  197.0860  176.7600  134.3880 O   0  0  0  0  0  0  0  0  0  0  0  0
  195.4420  175.6020  135.5580 N   0  0  0  0  0  2  0  0  0  0  0  0
  196.0380  176.8170  135.0770 C   0  0  0  0  0  0  0  0  0  0  0  0
  195.3520  173.8050  137.8190 C   0  0  0  0  0  2  0  0  0  0  0  0
  197.0240  171.9350  136.7550 S   0  0  0  0  0  1  0  0  0  0  0  0
  195.3430  172.4030  137.2420 C   0  0  0  0  0  2  0  0  0  0  0  0
  187.0170  178.4180  140.2020 N   0  0  0  0  0  2  0  0  0  0  0  0
  186.7170  178.9280  141.5420 C   0  0  0  0  0  2  0  0  0  0  0  0
  185.3560  178.5800  141.9920 N   0  0  0  0  0  0  0  0  0  0  0  0
  183.6090  177.6750  140.5210 C   0  0  0  0  0  2  0  0  0  0  0  0
  182.9700  178.5740  141.5640 C   0  0  1  0  0  3  0  0  0  0  0  0
  184.3380  178.9210  141.0000 C   0  0  1  0  0  3  0  0  0  0  0  0
  182.0060  179.4290  140.9620 O   0  0  0  0  0  0  0  0  0  0  0  0
  180.1760  178.0380  140.7230 O   0  0  0  0  0  0  0  0  0  0  0  0
  180.9200  178.9390  140.2360 C   0  0  0  0  0  0  0  0  0  0  0  0
  180.7410  179.3980  138.8570 C   0  0  0  0  0  3  0  0  0  0  0  0
  181.0770  178.7470  137.7320 C   0  0  0  0  0  3  0  0  0  0  0  0
  181.5470  177.3960  137.6330 N   0  0  0  0  0  2  0  0  0  0  0  0
  182.7080  176.9650  136.8790 C   0  0  0  0  0  2  0  0  0  0  0  0
  183.2890  175.8520  137.5020 O   0  0  0  0  0  0  0  0  0  0  0  0
  183.3080  174.8970  136.5510 N   0  0  0  0  0  2  0  0  0  0  0  0
  183.6510  173.6490  137.2050 C   0  0  0  0  0  2  0  0  0  0  0  0
  185.0160  173.2160  136.7900 C   0  0  0  0  0  3  0  0  0  0  0  0
  185.9160  172.8440  137.7020 C   0  0  0  0  0  2  0  0  0  0  0  0
  185.0770  179.3560  143.1870 C   0  0  0  0  0  2  0  0  0  0  0  0
  184.9160  178.4210  144.3690 C   0  0  0  0  0  2  0  0  0  0  0  0
  186.2830  178.0710  144.9190 C   0  0  0  0  0  2  0  0  0  0  0  0
  185.3480  178.9990  146.9470 N   0  0  0  0  0  2  0  0  0  0  0  0
  187.4470  177.9490  147.1410 N   0  0  0  0  0  1  0  0  0  0  0  0
  186.3610  178.4320  146.3650 C   0  0  0  0  0  0  0  0  0  0  0  0
  188.8440  177.1390  140.8880 O   0  0  0  0  0  0  0  0  0  0  0  0
  190.4970  176.4700  142.4440 C   0  0  0  0  0  2  0  0  0  0  0  0
  189.8840  177.6270  141.6890 C   0  0  2  0  0  3  0  0  0  0  0  0
  190.3410  178.3770  143.9910 C   0  0  0  0  0  1  0  0  0  0  0  0
  189.5430  177.4050  143.1500 C   0  0  2  0  0  3  0  0  0  0  0  0
  1 21  1  6  0  0  0
  1 45  1  0  0  0  0
  2  3  1  0  0  0  0
  3  1  1  0  0  0  0
  4  3  2  0  0  0  0
  5  6  1  0  0  0  0
  5  4  1  0  0  0  0
  6  2  1  0  0  0  0
  7 11  1  0  0  0  0
  7  6  2  0  0  0  0
  8 12  1  0  0  0  0
  9 13  2  0  0  0  0
  9 11  1  0  0  0  0
 10 18  1  0  0  0  0
 10 12  2  0  0  0  0
 11  8  2  0  0  0  0
 13 10  1  0  0  0  0
 15 17  2  0  0  0  0
 16 13  1  0  0  0  0
 17 14  1  0  0  0  0
 17 16  1  0  0  0  0
 19 20  1  0  0  0  0
 20 18  1  0  0  0  0
 21 22  1  0  0  0  0
 22 23  1  0  0  0  0
 23 39  1  0  0  0  0
 24 26  1  0  0  0  0
 24 25  1  0  0  0  0
 25 27  1  6  0  0  0
 26 25  1  0  0  0  0
 26 23  1  1  0  0  0
 29 28  2  0  0  0  0
 29 27  1  0  0  0  0
 30 29  1  0  0  0  0
 31 30  2  0  0  0  0
 32 31  1  0  0  0  0
 33 34  1  0  0  0  0
 33 32  1  0  0  0  0
 35 36  1  0  0  0  0
 35 34  1  0  0  0  0
 37 36  1  0  0  0  0
 37 38  2  0  0  0  0
 39 40  1  0  0  0  0
 40 41  1  0  0  0  0
 41 44  1  0  0  0  0
 44 42  2  0  0  0  0
 44 43  1  0  0  0  0
 46 49  1  0  0  0  0
 47 45  1  6  0  0  0
 47 46  1  0  0  0  0
 47 49  1  0  0  0  0
 49 48  1  1  0  0  0
M  END
>  <MODEL>
7

>  <REMARK>
 VINA RESULT:      -5.4      3.323      9.278
  Name = 
  24 active torsions:
  status: ('A' for Active; 'I' for Inactive)
    1  A    between atoms: O_1  and  C_22
    2  A    between atoms: O_1  and  C_24
    3  A    between atoms: C_5  and  N_17
    4  A    between atoms: C_5  and  N_42
    5  A    between atoms: N_6  and  C_33
    6  A    between atoms: N_6  and  C_43
    7  A    between atoms: O_10  and  C_12
    8  A    between atoms: O_10  and  C_34
    9  A    between atoms: C_12  and  C_37
   10  A    between atoms: C_13  and  C_19
   11  A    between atoms: C_13  and  C_25
   12  A    between atoms: C_15  and  C_22
   13  A    between atoms: C_16  and  C_35
   14  A    between atoms: N_17  and  C_29
   15  A    between atoms: N_17  and  C_44
   16  A    between atoms: C_19  and  C_29
   17  A    between atoms: C_22  and  N_42
   18  A    between atoms: C_23  and  C_39
   19  A    between atoms: C_23  and  N_49
   20  A    between atoms: C_27  and  N_45
   21  A    between atoms: N_31  and  C_32
   22  A    between atoms: C_33  and  O_46
   23  A    between atoms: C_35  and  C_38
   24  A    between atoms: O_46  and  N_49
                            x       y       z     vdW  Elec       q    Type
                         _______ _______ _______ _____ _____    ______ ____

>  <TORSDO>
F 24

$$$$
=
 OpenBabel10232410053D

 49 52  0  0  1  0  0  0  0  0999 V2000
  185.6550  178.2020  137.9730 C   0  0  1  0  0  3  0  0  0  0  0  0
  184.9690  178.4370  140.3410 O   0  0  0  0  0  0  0  0  0  0  0  0
  184.6810  178.5110  139.0680 C   0  0  0  0  0  0  0  0  0  0  0  0
  183.3650  178.9200  138.9320 C   0  0  0  0  0  3  0  0  0  0  0  0
  182.8950  179.0690  140.1540 O   0  0  0  0  0  0  0  0  0  0  0  0
  183.8710  178.7750  140.9760 C   0  0  0  0  0  0  0  0  0  0  0  0
  183.7430  178.8120  142.2690 N   0  0  0  0  0  0  0  0  0  0  0  0
  184.7730  179.1020  144.5200 C   0  0  0  0  0  3  0  0  0  0  0  0
  185.8070  177.6660  142.8710 C   0  0  0  0  0  3  0  0  0  0  0  0
  186.8260  177.9370  145.0630 C   0  0  0  0  0  0  0  0  0  0  0  0
  184.7770  178.5410  143.2310 C   0  0  0  0  0  0  0  0  0  0  0  0
  185.7930  178.8050  145.4290 C   0  0  0  0  0  3  0  0  0  0  0  0
  186.8440  177.3620  143.7720 C   0  0  0  0  0  0  0  0  0  0  0  0
  189.3190  178.0590  142.1190 N   0  0  0  0  0  1  0  0  0  0  0  0
  189.8580  175.8140  142.3290 O   0  0  0  0  0  0  0  0  0  0  0  0
  187.9040  176.4600  143.4150 N   0  0  0  0  0  2  0  0  0  0  0  0
  189.0650  176.7440  142.6170 C   0  0  0  0  0  0  0  0  0  0  0  0
  187.9220  177.6620  146.0430 C   0  0  0  0  0  2  0  0  0  0  0  0
  188.9150  178.0340  148.5530 S   0  0  0  0  0  1  0  0  0  0  0  0
  187.4810  178.0270  147.4470 C   0  0  0  0  0  2  0  0  0  0  0  0
  186.9940  178.1150  138.5430 N   0  0  0  0  0  2  0  0  0  0  0  0
  187.9710  178.3430  137.4750 C   0  0  0  0  0  2  0  0  0  0  0  0
  188.8830  177.2000  137.2840 N   0  0  0  0  0  0  0  0  0  0  0  0
  190.4340  176.3490  138.9870 C   0  0  0  0  0  2  0  0  0  0  0  0
  191.0750  176.2210  137.6180 C   0  0  1  0  0  3  0  0  0  0  0  0
  190.1790  177.4080  137.9270 C   0  0  1  0  0  3  0  0  0  0  0  0
  192.4280  176.6560  137.6570 O   0  0  0  0  0  0  0  0  0  0  0  0
  194.5130  176.6370  136.6610 O   0  0  0  0  0  0  0  0  0  0  0  0
  193.4390  176.0250  136.9310 C   0  0  0  0  0  0  0  0  0  0  0  0
  193.1750  174.6930  136.3830 C   0  0  0  0  0  3  0  0  0  0  0  0
  193.9820  173.6210  136.4260 C   0  0  0  0  0  3  0  0  0  0  0  0
  195.2150  173.5060  137.1490 N   0  0  0  0  0  2  0  0  0  0  0  0
  195.3530  172.9840  138.4940 C   0  0  0  0  0  2  0  0  0  0  0  0
  196.1090  171.8030  138.4670 O   0  0  0  0  0  0  0  0  0  0  0  0
  195.2900  170.8840  137.9190 N   0  0  0  0  0  2  0  0  0  0  0  0
  196.1310  169.8660  137.3190 C   0  0  0  0  0  2  0  0  0  0  0  0
  196.0040  169.9130  135.8340 C   0  0  0  0  0  3  0  0  0  0  0  0
  194.8140  170.0940  135.2600 C   0  0  0  0  0  2  0  0  0  0  0  0
  189.1210  177.0630  135.8580 C   0  0  0  0  0  2  0  0  0  0  0  0
  188.1340  176.0710  135.2750 C   0  0  0  0  0  2  0  0  0  0  0  0
  188.7530  174.6890  135.2800 C   0  0  0  0  0  2  0  0  0  0  0  0
  186.7050  174.1260  136.4360 N   0  0  0  0  0  1  0  0  0  0  0  0
  188.1900  172.3510  136.0030 N   0  0  0  0  0  2  0  0  0  0  0  0
  187.8630  173.7320  136.0010 C   0  0  0  0  0  0  0  0  0  0  0  0
  185.3330  176.9950  137.3460 O   0  0  0  0  0  0  0  0  0  0  0  0
  183.3970  175.6770  137.0090 C   0  0  0  0  0  2  0  0  0  0  0  0
  183.9620  177.0780  137.0780 C   0  0  2  0  0  3  0  0  0  0  0  0
  182.3660  176.9920  135.2010 C   0  0  0  0  0  1  0  0  0  0  0  0
  183.6710  176.4390  135.7330 C   0  0  2  0  0  3  0  0  0  0  0  0
  1 45  1  1  0  0  0
  1 21  1  0  0  0  0
  1  3  1  0  0  0  0
  2  6  1  0  0  0  0
  3  2  1  0  0  0  0
  4  3  2  0  0  0  0
  4  5  1  0  0  0  0
  5  6  1  0  0  0  0
  6  7  2  0  0  0  0
  7 11  1  0  0  0  0
  8 12  1  0  0  0  0
  9 11  1  0  0  0  0
  9 13  2  0  0  0  0
 10 12  2  0  0  0  0
 10 18  1  0  0  0  0
 11  8  2  0  0  0  0
 13 10  1  0  0  0  0
 14 17  1  0  0  0  0
 15 17  2  0  0  0  0
 16 13  1  0  0  0  0
 17 16  1  0  0  0  0
 18 20  1  0  0  0  0
 20 19  1  0  0  0  0
 22 21  1  0  0  0  0
 23 22  1  0  0  0  0
 25 27  1  1  0  0  0
 25 26  1  0  0  0  0
 25 24  1  0  0  0  0
 26 23  1  6  0  0  0
 26 24  1  0  0  0  0
 28 29  2  0  0  0  0
 29 27  1  0  0  0  0
 30 31  2  0  0  0  0
 30 29  1  0  0  0  0
 31 32  1  0  0  0  0
 32 33  1  0  0  0  0
 34 33  1  0  0  0  0
 35 34  1  0  0  0  0
 36 35  1  0  0  0  0
 37 36  1  0  0  0  0
 38 37  2  0  0  0  0
 39 23  1  0  0  0  0
 40 41  1  0  0  0  0
 40 39  1  0  0  0  0
 41 44  1  0  0  0  0
 44 43  2  0  0  0  0
 44 42  1  0  0  0  0
 46 47  1  0  0  0  0
 47 45  1  6  0  0  0
 49 48  1  1  0  0  0
 49 46  1  0  0  0  0
 49 47  1  0  0  0  0
M  END
>  <MODEL>
8

>  <REMARK>
 VINA RESULT:      -5.4      3.209      7.308
  Name = 
  24 active torsions:
  status: ('A' for Active; 'I' for Inactive)
    1  A    between atoms: O_1  and  C_22
    2  A    between atoms: O_1  and  C_24
    3  A    between atoms: C_5  and  N_17
    4  A    between atoms: C_5  and  N_42
    5  A    between atoms: N_6  and  C_33
    6  A    between atoms: N_6  and  C_43
    7  A    between atoms: O_10  and  C_12
    8  A    between atoms: O_10  and  C_34
    9  A    between atoms: C_12  and  C_37
   10  A    between atoms: C_13  and  C_19
   11  A    between atoms: C_13  and  C_25
   12  A    between atoms: C_15  and  C_22
   13  A    between atoms: C_16  and  C_35
   14  A    between atoms: N_17  and  C_29
   15  A    between atoms: N_17  and  C_44
   16  A    between atoms: C_19  and  C_29
   17  A    between atoms: C_22  and  N_42
   18  A    between atoms: C_23  and  C_39
   19  A    between atoms: C_23  and  N_49
   20  A    between atoms: C_27  and  N_45
   21  A    between atoms: N_31  and  C_32
   22  A    between atoms: C_33  and  O_46
   23  A    between atoms: C_35  and  C_38
   24  A    between atoms: O_46  and  N_49
                            x       y       z     vdW  Elec       q    Type
                         _______ _______ _______ _____ _____    ______ ____

>  <TORSDO>
F 24

$$$$
=
 OpenBabel10232410053D

 49 52  0  0  1  0  0  0  0  0999 V2000
  188.1630  178.3500  139.1540 C   0  0  1  0  0  3  0  0  0  0  0  0
  189.4310  177.5980  141.1450 O   0  0  0  0  0  0  0  0  0  0  0  0
  189.3350  177.7250  139.8480 C   0  0  0  0  0  0  0  0  0  0  0  0
  190.4690  177.1870  139.2630 C   0  0  0  0  0  3  0  0  0  0  0  0
  191.2280  176.7590  140.2500 O   0  0  0  0  0  0  0  0  0  0  0  0
  190.5860  177.0150  141.3620 C   0  0  0  0  0  0  0  0  0  0  0  0
  191.0610  176.7240  142.5370 N   0  0  0  0  0  0  0  0  0  0  0  0
  189.0120  177.1440  143.8930 C   0  0  0  0  0  3  0  0  0  0  0  0
  191.1700  176.9160  144.9640 C   0  0  0  0  0  3  0  0  0  0  0  0
  189.1820  177.3270  146.3030 C   0  0  0  0  0  0  0  0  0  0  0  0
  190.4000  176.9390  143.7960 C   0  0  0  0  0  0  0  0  0  0  0  0
  188.4080  177.3410  145.1390 C   0  0  0  0  0  3  0  0  0  0  0  0
  190.5770  177.1180  146.2230 C   0  0  0  0  0  0  0  0  0  0  0  0
  192.7020  175.0430  146.9480 N   0  0  0  0  0  1  0  0  0  0  0  0
  192.8760  176.2000  148.9490 O   0  0  0  0  0  0  0  0  0  0  0  0
  191.3580  177.0920  147.4290 N   0  0  0  0  0  2  0  0  0  0  0  0
  192.3410  176.1200  147.8170 C   0  0  0  0  0  0  0  0  0  0  0  0
  188.5140  177.5720  147.6190 C   0  0  0  0  0  2  0  0  0  0  0  0
  185.8910  178.1610  147.1720 S   0  0  0  0  0  1  0  0  0  0  0  0
  187.5680  178.7530  147.5200 C   0  0  0  0  0  2  0  0  0  0  0  0
  187.2700  177.2930  138.6930 N   0  0  0  0  0  2  0  0  0  0  0  0
  187.5910  176.9890  137.2960 C   0  0  0  0  0  2  0  0  0  0  0  0
  186.3930  176.9110  136.4410 N   0  0  0  0  0  0  0  0  0  0  0  0
  184.1780  177.3860  137.3910 C   0  0  0  0  0  2  0  0  0  0  0  0
  184.0290  176.4140  136.2350 C   0  0  1  0  0  3  0  0  0  0  0  0
  185.2460  176.3340  137.1410 C   0  0  1  0  0  3  0  0  0  0  0  0
  183.1400  175.3600  136.5810 O   0  0  0  0  0  0  0  0  0  0  0  0
  181.2320  176.3430  135.7260 O   0  0  0  0  0  0  0  0  0  0  0  0
  181.7530  175.4950  136.5070 C   0  0  0  0  0  0  0  0  0  0  0  0
  180.9280  174.7250  137.4410 C   0  0  0  0  0  3  0  0  0  0  0  0
  180.8810  174.8470  138.7760 C   0  0  0  0  0  3  0  0  0  0  0  0
  181.5160  175.8610  139.5660 N   0  0  0  0  0  2  0  0  0  0  0  0
  181.0510  177.2270  139.7090 C   0  0  0  0  0  2  0  0  0  0  0  0
  181.8310  177.8940  140.6650 O   0  0  0  0  0  0  0  0  0  0  0  0
  181.4030  179.1710  140.6270 N   0  0  0  0  0  2  0  0  0  0  0  0
  180.8590  179.3990  139.3020 C   0  0  0  0  0  2  0  0  0  0  0  0
  181.6590  180.4410  138.5960 C   0  0  0  0  0  3  0  0  0  0  0  0
  181.1240  181.6290  138.3100 C   0  0  0  0  0  2  0  0  0  0  0  0
  186.7070  176.0360  135.3250 C   0  0  0  0  0  2  0  0  0  0  0  0
  188.1720  175.6520  135.3830 C   0  0  0  0  0  2  0  0  0  0  0  0
  188.2990  174.1480  135.2530 C   0  0  0  0  0  2  0  0  0  0  0  0
  188.0230  172.5510  137.0470 N   0  0  0  0  0  2  0  0  0  0  0  0
  189.9240  173.9350  137.1570 N   0  0  0  0  0  1  0  0  0  0  0  0
  188.6920  173.5530  136.5640 C   0  0  0  0  0  0  0  0  0  0  0  0
  187.4710  179.2040  140.0170 O   0  0  0  0  0  0  0  0  0  0  0  0
  185.1530  179.1180  140.4870 C   0  0  0  0  0  2  0  0  0  0  0  0
  186.4810  178.4050  140.6030 C   0  0  2  0  0  3  0  0  0  0  0  0
  185.2680  178.1060  142.7280 C   0  0  0  0  0  1  0  0  0  0  0  0
  185.8960  179.1260  141.8040 C   0  0  2  0  0  3  0  0  0  0  0  0
  1 21  1  1  0  0  0
  1  3  1  0  0  0  0
  1 45  1  0  0  0  0
  2  6  1  0  0  0  0
  3  2  1  0  0  0  0
  4  3  2  0  0  0  0
  4  5  1  0  0  0  0
  5  6  1  0  0  0  0
  6  7  2  0  0  0  0
  7 11  1  0  0  0  0
  8 12  1  0  0  0  0
  9 13  2  0  0  0  0
 10 18  1  0  0  0  0
 11  8  2  0  0  0  0
 11  9  1  0  0  0  0
 12 10  2  0  0  0  0
 13 10  1  0  0  0  0
 13 16  1  0  0  0  0
 14 17  1  0  0  0  0
 16 17  1  0  0  0  0
 17 15  2  0  0  0  0
 19 20  1  0  0  0  0
 20 18  1  0  0  0  0
 22 21  1  0  0  0  0
 23 22  1  0  0  0  0
 25 27  1  1  0  0  0
 25 26  1  0  0  0  0
 25 24  1  0  0  0  0
 26 23  1  6  0  0  0
 26 24  1  0  0  0  0
 28 29  2  0  0  0  0
 29 27  1  0  0  0  0
 29 30  1  0  0  0  0
 30 31  2  0  0  0  0
 31 32  1  0  0  0  0
 32 33  1  0  0  0  0
 33 34  1  0  0  0  0
 35 34  1  0  0  0  0
 36 35  1  0  0  0  0
 37 36  1  0  0  0  0
 38 37  2  0  0  0  0
 39 40  1  0  0  0  0
 39 23  1  0  0  0  0
 41 40  1  0  0  0  0
 41 44  1  0  0  0  0
 44 42  2  0  0  0  0
 44 43  1  0  0  0  0
 46 47  1  0  0  0  0
 46 49  1  0  0  0  0
 47 45  1  6  0  0  0
 47 49  1  0  0  0  0
 49 48  1  1  0  0  0
M  END
>  <MODEL>
9

>  <REMARK>
 VINA RESULT:      -5.4      3.819     10.449
  Name = 
  24 active torsions:
  status: ('A' for Active; 'I' for Inactive)
    1  A    between atoms: O_1  and  C_22
    2  A    between atoms: O_1  and  C_24
    3  A    between atoms: C_5  and  N_17
    4  A    between atoms: C_5  and  N_42
    5  A    between atoms: N_6  and  C_33
    6  A    between atoms: N_6  and  C_43
    7  A    between atoms: O_10  and  C_12
    8  A    between atoms: O_10  and  C_34
    9  A    between atoms: C_12  and  C_37
   10  A    between atoms: C_13  and  C_19
   11  A    between atoms: C_13  and  C_25
   12  A    between atoms: C_15  and  C_22
   13  A    between atoms: C_16  and  C_35
   14  A    between atoms: N_17  and  C_29
   15  A    between atoms: N_17  and  C_44
   16  A    between atoms: C_19  and  C_29
   17  A    between atoms: C_22  and  N_42
   18  A    between atoms: C_23  and  C_39
   19  A    between atoms: C_23  and  N_49
   20  A    between atoms: C_27  and  N_45
   21  A    between atoms: N_31  and  C_32
   22  A    between atoms: C_33  and  O_46
   23  A    between atoms: C_35  and  C_38
   24  A    between atoms: O_46  and  N_49
                            x       y       z     vdW  Elec       q    Type
                         _______ _______ _______ _____ _____    ______ ____

>  <TORSDO>
F 24

$$$$
