=
 OpenBabel10222421353D

 43 47  0  0  1  0  0  0  0  0999 V2000
  191.1160  176.1180  135.7310 N   0  0  0  0  0  0  0  0  0  0  0  0
  191.6370  174.1660  134.3460 C   0  0  0  0  0  1  0  0  0  0  0  0
  192.1630  175.4690  134.9230 C   0  0  2  0  0  3  0  0  0  0  0  0
  191.5050  176.1670  137.1210 C   0  0  1  0  0  3  0  0  0  0  0  0
  193.7270  175.3810  138.2350 C   0  0  0  0  0  3  0  0  0  0  0  0
  195.3960  174.1080  134.7480 S   0  0  0  0  0  1  0  0  0  0  0  0
  192.7030  175.6220  137.2290 C   0  0  0  0  0  0  0  0  0  0  0  0
  194.7460  174.8260  137.5480 C   0  0  1  0  0  3  0  0  0  0  0  0
  193.1640  175.1860  135.9810 C   0  0  0  0  0  0  0  0  0  0  0  0
  194.3850  174.7100  136.1010 C   0  0  0  0  0  0  0  0  0  0  0  0
  188.4850  178.3090  141.3670 N   0  0  0  0  0  0  0  0  0  0  0  0
  190.7460  176.1830  139.5070 C   0  0  0  0  0  3  0  0  0  0  0  0
  189.1310  178.4560  139.0270 C   0  0  0  0  0  3  0  0  0  0  0  0
  189.8990  177.8940  137.9950 C   0  0  0  0  0  3  0  0  0  0  0  0
  188.7420  177.5290  142.4480 C   0  0  0  0  0  0  0  0  0  0  0  0
  190.7080  176.7560  138.2220 C   0  0  0  0  0  0  0  0  0  0  0  0
  189.8310  176.2780  142.1150 S   0  0  0  0  0  0  0  0  0  0  0  0
  189.9770  176.7560  140.5140 C   0  0  0  0  0  0  0  0  0  0  0  0
  189.1810  177.8680  140.2890 C   0  0  0  0  0  0  0  0  0  0  0  0
  187.2350  176.9670  144.2040 C   0  0  0  0  0  3  0  0  0  0  0  0
  188.1580  177.7420  143.7350 N   0  0  0  0  0  0  0  0  0  0  0  0
  186.7310  179.1640  147.0210 C   0  0  0  0  0  2  0  0  0  0  0  0
  185.3530  178.0140  145.3990 C   0  0  0  0  0  2  0  0  0  0  0  0
  186.6430  177.2270  145.5480 C   0  0  2  0  0  3  0  0  0  0  0  0
  185.5680  179.3560  146.0760 C   0  0  0  0  0  2  0  0  0  0  0  0
  187.5840  178.0870  146.3780 C   0  0  2  0  0  3  0  0  0  0  0  0
  188.7150  178.0350  148.6530 C   0  0  0  0  0  1  0  0  0  0  0  0
  188.3830  177.2530  147.3910 C   0  0  2  0  0  3  0  0  0  0  0  0
  189.6590  176.7090  146.7720 C   0  0  0  0  0  2  0  0  0  0  0  0
  190.8640  177.1250  147.5950 C   0  0  0  0  0  1  0  0  0  0  0  0
  196.0350  174.4110  138.1560 C   0  0  0  0  0  0  0  0  0  0  0  0
  197.4000  175.8830  136.7530 O   0  0  0  0  0  1  0  0  0  0  0  0
  196.0390  173.5400  139.1100 N   0  0  0  0  0  2  0  0  0  0  0  0
  197.2910  174.9520  137.7290 N   0  0  0  0  0  2  0  0  0  0  0  0
  189.9210  176.5280  135.2350 O   0  0  0  0  0  0  0  0  0  0  0  0
  189.0190  175.5050  135.5510 C   0  0  0  0  0  2  0  0  0  0  0  0
  187.7150  175.7160  134.8040 C   0  0  0  0  0  2  0  0  0  0  0  0
  186.5520  175.7520  135.7770 C   0  0  0  0  0  2  0  0  0  0  0  0
  184.4790  176.7270  137.4500 O   0  0  0  0  0  0  0  0  0  0  0  0
  185.5500  177.3910  137.4050 C   0  0  0  0  0  0  0  0  0  0  0  0
  184.6280  179.0780  139.0330 C   0  0  0  0  0  1  0  0  0  0  0  0
  186.6320  176.9600  136.5800 N   0  0  0  0  0  2  0  0  0  0  0  0
  185.6930  178.5820  138.1790 N   0  0  0  0  0  2  0  0  0  0  0  0
  1  4  1  0  0  0  0
  3  2  1  1  0  0  0
  3  1  1  0  0  0  0
  3  9  1  0  0  0  0
  4  7  1  0  0  0  0
  4 16  1  6  0  0  0
  6 10  1  0  0  0  0
  7  5  2  0  0  0  0
  8 31  1  6  0  0  0
  8  5  1  0  0  0  0
  9 10  2  0  0  0  0
  9  7  1  0  0  0  0
 10  8  1  0  0  0  0
 11 15  2  0  0  0  0
 12 18  1  0  0  0  0
 13 19  1  0  0  0  0
 14 16  1  0  0  0  0
 14 13  2  0  0  0  0
 15 21  1  0  0  0  0
 16 12  2  0  0  0  0
 17 15  1  0  0  0  0
 18 17  1  0  0  0  0
 19 18  2  0  0  0  0
 19 11  1  0  0  0  0
 21 20  2  0  0  0  0
 23 24  1  0  0  0  0
 23 25  1  0  0  0  0
 24 20  1  6  0  0  0
 24 26  1  0  0  0  0
 25 22  1  0  0  0  0
 26 22  1  0  0  0  0
 26 28  1  1  0  0  0
 28 27  1  1  0  0  0
 29 28  1  0  0  0  0
 29 30  1  0  0  0  0
 31 33  2  0  0  0  0
 32 34  1  0  0  0  0
 34 31  1  0  0  0  0
 35 36  1  0  0  0  0
 35  1  1  0  0  0  0
 37 36  1  0  0  0  0
 37 38  1  0  0  0  0
 38 42  1  0  0  0  0
 40 39  2  0  0  0  0
 40 43  1  0  0  0  0
 42 40  1  0  0  0  0
 43 41  1  0  0  0  0
M  END
>  <MODEL>
1

>  <REMARK>
 VINA RESULT:      -8.6      0.000      0.000
  Name = 
  11 active torsions:
  status: ('A' for Active; 'I' for Inactive)
    1  A    between atoms: N_3  and  O_19
    2  A    between atoms: C_4  and  C_26
    3  A    between atoms: C_8  and  C_31
    4  A    between atoms: C_11  and  C_27
    5  A    between atoms: O_19  and  C_36
    6  A    between atoms: C_21  and  C_30
    7  A    between atoms: C_23  and  N_43
    8  A    between atoms: N_24  and  C_41
    9  A    between atoms: C_26  and  C_29
   10  A    between atoms: C_33  and  C_36
   11  A    between atoms: C_33  and  C_41
                            x       y       z     vdW  Elec       q    Type
                         _______ _______ _______ _____ _____    ______ ____

>  <TORSDO>
F 11

$$$$
=
 OpenBabel10222421353D

 43 47  0  0  1  0  0  0  0  0999 V2000
  188.6000  177.3490  142.0160 N   0  0  0  0  0  0  0  0  0  0  0  0
  190.0720  175.6150  142.9260 C   0  0  0  0  0  1  0  0  0  0  0  0
  189.6660  177.0770  142.9970 C   0  0  2  0  0  3  0  0  0  0  0  0
  187.3720  177.7070  142.6870 C   0  0  1  0  0  3  0  0  0  0  0  0
  186.9160  177.9950  145.2380 C   0  0  0  0  0  3  0  0  0  0  0  0
  190.7260  177.0910  146.3450 S   0  0  0  0  0  1  0  0  0  0  0  0
  187.5990  177.6950  143.9880 C   0  0  0  0  0  0  0  0  0  0  0  0
  187.8570  177.8120  146.1850 C   0  0  1  0  0  3  0  0  0  0  0  0
  188.9250  177.3350  144.2580 C   0  0  0  0  0  0  0  0  0  0  0  0
  189.1470  177.3970  145.5530 C   0  0  0  0  0  0  0  0  0  0  0  0
  182.5710  179.0710  140.0740 N   0  0  0  0  0  0  0  0  0  0  0  0
  186.0520  178.2550  140.6310 C   0  0  0  0  0  3  0  0  0  0  0  0
  183.6910  178.5370  142.1660 C   0  0  0  0  0  3  0  0  0  0  0  0
  184.9070  178.1970  142.7800 C   0  0  0  0  0  3  0  0  0  0  0  0
  182.8760  179.1920  138.7570 C   0  0  0  0  0  0  0  0  0  0  0  0
  186.0950  178.0560  142.0240 C   0  0  0  0  0  0  0  0  0  0  0  0
  184.5080  178.8880  138.4270 S   0  0  0  0  0  0  0  0  0  0  0  0
  184.8370  178.5920  140.0450 C   0  0  0  0  0  0  0  0  0  0  0  0
  183.6760  178.7350  140.7860 C   0  0  0  0  0  0  0  0  0  0  0  0
  181.2250  180.6250  137.8120 C   0  0  0  0  0  3  0  0  0  0  0  0
  181.9210  179.5370  137.7520 N   0  0  0  0  0  0  0  0  0  0  0  0
  180.4900  181.5630  134.4070 C   0  0  0  0  0  2  0  0  0  0  0  0
  179.9830  179.7180  135.8870 C   0  0  0  0  0  2  0  0  0  0  0  0
  180.2310  180.9450  136.7480 C   0  0  2  0  0  3  0  0  0  0  0  0
  180.4560  180.0550  134.4850 C   0  0  0  0  0  2  0  0  0  0  0  0
  180.7800  182.0210  135.8240 C   0  0  2  0  0  3  0  0  0  0  0  0
  180.6270  184.4640  135.1380 C   0  0  0  0  0  1  0  0  0  0  0  0
  180.2040  183.4080  136.1490 C   0  0  2  0  0  3  0  0  0  0  0  0
  180.5920  183.8510  137.5490 C   0  0  0  0  0  2  0  0  0  0  0  0
  181.7520  184.8270  137.4910 C   0  0  0  0  0  1  0  0  0  0  0  0
  187.6280  178.0120  147.6380 C   0  0  0  0  0  0  0  0  0  0  0  0
  185.7810  179.5910  147.3320 O   0  0  0  0  0  1  0  0  0  0  0  0
  188.3560  177.3730  148.4930 N   0  0  0  0  0  2  0  0  0  0  0  0
  186.6120  178.8890  148.1390 N   0  0  0  0  0  2  0  0  0  0  0  0
  188.7470  177.1940  140.6760 O   0  0  0  0  0  0  0  0  0  0  0  0
  189.7850  178.0620  140.3160 C   0  0  0  0  0  2  0  0  0  0  0  0
  190.8060  177.3250  139.4690 C   0  0  0  0  0  2  0  0  0  0  0  0
  190.1230  176.2670  138.6250 C   0  0  0  0  0  2  0  0  0  0  0  0
  187.6110  176.8600  137.4470 O   0  0  0  0  0  0  0  0  0  0  0  0
  188.6420  177.0540  136.7470 C   0  0  0  0  0  0  0  0  0  0  0  0
  187.2370  177.8590  134.8170 C   0  0  0  0  0  1  0  0  0  0  0  0
  189.9370  176.7720  137.2750 N   0  0  0  0  0  2  0  0  0  0  0  0
  188.5260  177.5590  135.4160 N   0  0  0  0  0  2  0  0  0  0  0  0
  1  4  1  0  0  0  0
  1  3  1  0  0  0  0
  3  2  1  1  0  0  0
  3  9  1  0  0  0  0
  4 16  1  6  0  0  0
  4  7  1  0  0  0  0
  5  8  1  0  0  0  0
  7  9  1  0  0  0  0
  7  5  2  0  0  0  0
  8 31  1  6  0  0  0
  9 10  2  0  0  0  0
 10  8  1  0  0  0  0
 10  6  1  0  0  0  0
 11 19  1  0  0  0  0
 12 16  1  0  0  0  0
 13 14  1  0  0  0  0
 15 11  2  0  0  0  0
 16 14  2  0  0  0  0
 17 15  1  0  0  0  0
 17 18  1  0  0  0  0
 18 12  2  0  0  0  0
 18 19  1  0  0  0  0
 19 13  2  0  0  0  0
 21 20  2  0  0  0  0
 21 15  1  0  0  0  0
 22 25  1  0  0  0  0
 22 26  1  0  0  0  0
 23 24  1  0  0  0  0
 24 20  1  1  0  0  0
 25 23  1  0  0  0  0
 26 28  1  1  0  0  0
 26 24  1  0  0  0  0
 28 27  1  6  0  0  0
 28 29  1  0  0  0  0
 30 29  1  0  0  0  0
 31 34  1  0  0  0  0
 31 33  2  0  0  0  0
 32 34  1  0  0  0  0
 35  1  1  0  0  0  0
 36 35  1  0  0  0  0
 37 36  1  0  0  0  0
 38 37  1  0  0  0  0
 40 42  1  0  0  0  0
 40 39  2  0  0  0  0
 41 43  1  0  0  0  0
 42 38  1  0  0  0  0
 43 40  1  0  0  0  0
M  END
>  <MODEL>
2

>  <REMARK>
 VINA RESULT:      -8.2      4.182      9.952
  Name = 
  11 active torsions:
  status: ('A' for Active; 'I' for Inactive)
    1  A    between atoms: N_3  and  O_19
    2  A    between atoms: C_4  and  C_26
    3  A    between atoms: C_8  and  C_31
    4  A    between atoms: C_11  and  C_27
    5  A    between atoms: O_19  and  C_36
    6  A    between atoms: C_21  and  C_30
    7  A    between atoms: C_23  and  N_43
    8  A    between atoms: N_24  and  C_41
    9  A    between atoms: C_26  and  C_29
   10  A    between atoms: C_33  and  C_36
   11  A    between atoms: C_33  and  C_41
                            x       y       z     vdW  Elec       q    Type
                         _______ _______ _______ _____ _____    ______ ____

>  <TORSDO>
F 11

$$$$
=
 OpenBabel10222421353D

 43 47  0  0  1  0  0  0  0  0999 V2000
  188.4690  177.4500  142.0550 N   0  0  0  0  0  0  0  0  0  0  0  0
  190.0050  175.7470  142.9140 C   0  0  0  0  0  1  0  0  0  0  0  0
  189.5600  177.1960  143.0110 C   0  0  2  0  0  3  0  0  0  0  0  0
  187.2450  177.7660  142.7520 C   0  0  1  0  0  3  0  0  0  0  0  0
  186.8290  178.0090  145.3140 C   0  0  0  0  0  3  0  0  0  0  0  0
  190.6830  177.1980  146.3400 S   0  0  0  0  0  1  0  0  0  0  0  0
  187.4960  177.7440  144.0490 C   0  0  0  0  0  0  0  0  0  0  0  0
  187.7920  177.8410  146.2420 C   0  0  1  0  0  3  0  0  0  0  0  0
  188.8370  177.4180  144.2890 C   0  0  0  0  0  0  0  0  0  0  0  0
  189.0810  177.4690  145.5810 C   0  0  0  0  0  0  0  0  0  0  0  0
  182.3600  179.0360  140.2490 N   0  0  0  0  0  0  0  0  0  0  0  0
  185.8850  178.3840  140.7430 C   0  0  0  0  0  3  0  0  0  0  0  0
  183.5200  178.4180  142.2960 C   0  0  0  0  0  3  0  0  0  0  0  0
  184.7560  178.1050  142.8830 C   0  0  0  0  0  3  0  0  0  0  0  0
  182.6500  179.2690  138.9440 C   0  0  0  0  0  0  0  0  0  0  0  0
  185.9460  178.0880  142.1170 C   0  0  0  0  0  0  0  0  0  0  0  0
  184.2960  179.0850  138.5920 S   0  0  0  0  0  0  0  0  0  0  0  0
  184.6490  178.6910  140.1830 C   0  0  0  0  0  0  0  0  0  0  0  0
  183.4860  178.7130  140.9340 C   0  0  0  0  0  0  0  0  0  0  0  0
  181.3570  180.8620  137.7370 C   0  0  0  0  0  3  0  0  0  0  0  0
  181.6720  179.6300  137.9670 N   0  0  0  0  0  0  0  0  0  0  0  0
  180.4950  181.8670  134.3800 C   0  0  0  0  0  2  0  0  0  0  0  0
  180.0520  179.9880  135.8390 C   0  0  0  0  0  2  0  0  0  0  0  0
  180.3230  181.1980  136.7160 C   0  0  2  0  0  3  0  0  0  0  0  0
  180.4720  180.3570  134.4280 C   0  0  0  0  0  2  0  0  0  0  0  0
  180.8320  182.2970  135.7960 C   0  0  2  0  0  3  0  0  0  0  0  0
  180.7210  184.7710  135.2240 C   0  0  0  0  0  1  0  0  0  0  0  0
  180.2600  183.6730  136.1700 C   0  0  2  0  0  3  0  0  0  0  0  0
  180.6120  184.0440  137.6000 C   0  0  0  0  0  2  0  0  0  0  0  0
  182.0000  184.6560  137.6610 C   0  0  0  0  0  1  0  0  0  0  0  0
  187.5850  178.0160  147.7020 C   0  0  0  0  0  0  0  0  0  0  0  0
  185.9480  179.8210  147.4540 O   0  0  0  0  0  1  0  0  0  0  0  0
  188.2260  177.2620  148.5320 N   0  0  0  0  0  2  0  0  0  0  0  0
  186.6840  178.9940  148.2340 N   0  0  0  0  0  2  0  0  0  0  0  0
  188.5950  177.3170  140.7100 O   0  0  0  0  0  0  0  0  0  0  0  0
  189.7610  178.0180  140.3770 C   0  0  0  0  0  2  0  0  0  0  0  0
  190.1810  177.6780  138.9590 C   0  0  0  0  0  2  0  0  0  0  0  0
  191.3240  176.6810  138.9740 C   0  0  0  0  0  2  0  0  0  0  0  0
  193.9330  176.3990  137.8970 O   0  0  0  0  0  0  0  0  0  0  0  0
  192.9600  176.1410  137.1380 C   0  0  0  0  0  0  0  0  0  0  0  0
  194.5240  175.5780  135.2450 C   0  0  0  0  0  1  0  0  0  0  0  0
  191.6200  176.2670  137.6130 N   0  0  0  0  0  2  0  0  0  0  0  0
  193.1870  175.7190  135.7930 N   0  0  0  0  0  2  0  0  0  0  0  0
  1  4  1  0  0  0  0
  1  3  1  0  0  0  0
  3  2  1  1  0  0  0
  3  9  1  0  0  0  0
  4 16  1  6  0  0  0
  4  7  1  0  0  0  0
  5  8  1  0  0  0  0
  7  9  1  0  0  0  0
  7  5  2  0  0  0  0
  8 31  1  6  0  0  0
  9 10  2  0  0  0  0
 10  8  1  0  0  0  0
 10  6  1  0  0  0  0
 11 19  1  0  0  0  0
 12 16  1  0  0  0  0
 13 14  1  0  0  0  0
 15 11  2  0  0  0  0
 16 14  2  0  0  0  0
 17 15  1  0  0  0  0
 17 18  1  0  0  0  0
 18 12  2  0  0  0  0
 18 19  1  0  0  0  0
 19 13  2  0  0  0  0
 20 21  2  0  0  0  0
 21 15  1  0  0  0  0
 22 25  1  0  0  0  0
 22 26  1  0  0  0  0
 23 24  1  0  0  0  0
 24 20  1  1  0  0  0
 25 23  1  0  0  0  0
 26 28  1  1  0  0  0
 26 24  1  0  0  0  0
 28 27  1  6  0  0  0
 28 29  1  0  0  0  0
 29 30  1  0  0  0  0
 31 34  1  0  0  0  0
 31 33  2  0  0  0  0
 32 34  1  0  0  0  0
 35  1  1  0  0  0  0
 36 35  1  0  0  0  0
 37 38  1  0  0  0  0
 37 36  1  0  0  0  0
 40 42  1  0  0  0  0
 40 39  2  0  0  0  0
 41 43  1  0  0  0  0
 42 38  1  0  0  0  0
 43 40  1  0  0  0  0
M  END
>  <MODEL>
3

>  <REMARK>
 VINA RESULT:      -8.1      4.223     10.347
  Name = 
  11 active torsions:
  status: ('A' for Active; 'I' for Inactive)
    1  A    between atoms: N_3  and  O_19
    2  A    between atoms: C_4  and  C_26
    3  A    between atoms: C_8  and  C_31
    4  A    between atoms: C_11  and  C_27
    5  A    between atoms: O_19  and  C_36
    6  A    between atoms: C_21  and  C_30
    7  A    between atoms: C_23  and  N_43
    8  A    between atoms: N_24  and  C_41
    9  A    between atoms: C_26  and  C_29
   10  A    between atoms: C_33  and  C_36
   11  A    between atoms: C_33  and  C_41
                            x       y       z     vdW  Elec       q    Type
                         _______ _______ _______ _____ _____    ______ ____

>  <TORSDO>
F 11

$$$$
=
 OpenBabel10222421353D

 43 47  0  0  1  0  0  0  0  0999 V2000
  191.1470  174.4600  135.7890 N   0  0  0  0  0  0  0  0  0  0  0  0
  191.9100  172.2440  135.0780 C   0  0  0  0  0  1  0  0  0  0  0  0
  192.1760  173.7390  135.0210 C   0  0  2  0  0  3  0  0  0  0  0  0
  191.7340  175.1160  136.9340 C   0  0  1  0  0  3  0  0  0  0  0  0
  194.2360  175.2260  137.6610 C   0  0  0  0  0  3  0  0  0  0  0  0
  195.5740  173.0000  134.5280 S   0  0  0  0  0  1  0  0  0  0  0  0
  193.0330  174.8730  136.9220 C   0  0  0  0  0  0  0  0  0  0  0  0
  195.2340  174.6330  136.9760 C   0  0  1  0  0  3  0  0  0  0  0  0
  193.3770  174.0700  135.8280 C   0  0  0  0  0  0  0  0  0  0  0  0
  194.6810  173.8980  135.7970 C   0  0  0  0  0  0  0  0  0  0  0  0
  188.9940  178.1790  140.7880 N   0  0  0  0  0  0  0  0  0  0  0  0
  191.2310  175.7530  139.3030 C   0  0  0  0  0  3  0  0  0  0  0  0
  189.3750  177.7050  138.4330 C   0  0  0  0  0  3  0  0  0  0  0  0
  190.0790  176.9220  137.5030 C   0  0  0  0  0  3  0  0  0  0  0  0
  189.4320  177.7480  141.9980 C   0  0  0  0  0  0  0  0  0  0  0  0
  191.0070  175.9410  137.9260 C   0  0  0  0  0  0  0  0  0  0  0  0
  190.5890  176.5180  141.8810 S   0  0  0  0  0  0  0  0  0  0  0  0
  190.5220  176.5390  140.2050 C   0  0  0  0  0  0  0  0  0  0  0  0
  189.6100  177.4950  139.7910 C   0  0  0  0  0  0  0  0  0  0  0  0
  189.0760  177.6170  144.3490 C   0  0  0  0  0  3  0  0  0  0  0  0
  188.9690  178.2760  143.2420 N   0  0  0  0  0  0  0  0  0  0  0  0
  187.2430  177.2550  147.4360 C   0  0  0  0  0  2  0  0  0  0  0  0
  189.4990  177.8190  146.7670 C   0  0  0  0  0  2  0  0  0  0  0  0
  188.5720  178.1980  145.6260 C   0  0  2  0  0  3  0  0  0  0  0  0
  188.6960  176.9600  147.7270 C   0  0  0  0  0  2  0  0  0  0  0  0
  187.2070  177.6190  145.9630 C   0  0  2  0  0  3  0  0  0  0  0  0
  185.0690  178.7570  146.7350 C   0  0  0  0  0  1  0  0  0  0  0  0
  186.0670  178.5820  145.6000 C   0  0  2  0  0  3  0  0  0  0  0  0
  185.3430  178.1290  144.3440 C   0  0  0  0  0  2  0  0  0  0  0  0
  184.8450  179.3290  143.5580 C   0  0  0  0  0  1  0  0  0  0  0  0
  196.6680  174.7190  137.3500 C   0  0  0  0  0  0  0  0  0  0  0  0
  197.1750  176.5230  135.7730 O   0  0  0  0  0  1  0  0  0  0  0  0
  197.1360  173.9410  138.2690 N   0  0  0  0  0  2  0  0  0  0  0  0
  197.5650  175.6490  136.7310 N   0  0  0  0  0  2  0  0  0  0  0  0
  189.8220  174.4300  135.4960 O   0  0  0  0  0  0  0  0  0  0  0  0
  189.6800  175.2160  134.3460 C   0  0  0  0  0  2  0  0  0  0  0  0
  188.3960  176.0200  134.4230 C   0  0  0  0  0  2  0  0  0  0  0  0
  187.2760  175.1680  134.9890 C   0  0  0  0  0  2  0  0  0  0  0  0
  185.2000  175.4300  136.9040 O   0  0  0  0  0  0  0  0  0  0  0  0
  185.0020  175.9250  135.7610 C   0  0  0  0  0  0  0  0  0  0  0  0
  182.7130  176.7210  136.4500 C   0  0  0  0  0  1  0  0  0  0  0  0
  186.0020  175.8250  134.7480 N   0  0  0  0  0  2  0  0  0  0  0  0
  183.7740  176.5920  135.4670 N   0  0  0  0  0  2  0  0  0  0  0  0
  1  4  1  0  0  0  0
  3  2  1  1  0  0  0
  3  1  1  0  0  0  0
  3  9  1  0  0  0  0
  4 16  1  6  0  0  0
  6 10  1  0  0  0  0
  7  4  1  0  0  0  0
  7  5  2  0  0  0  0
  8 31  1  6  0  0  0
  8  5  1  0  0  0  0
  9  7  1  0  0  0  0
 10  9  2  0  0  0  0
 10  8  1  0  0  0  0
 11 15  2  0  0  0  0
 12 18  1  0  0  0  0
 13 19  1  0  0  0  0
 14 16  1  0  0  0  0
 14 13  2  0  0  0  0
 15 21  1  0  0  0  0
 16 12  2  0  0  0  0
 17 15  1  0  0  0  0
 18 17  1  0  0  0  0
 19 18  2  0  0  0  0
 19 11  1  0  0  0  0
 21 20  2  0  0  0  0
 22 25  1  0  0  0  0
 23 25  1  0  0  0  0
 24 20  1  6  0  0  0
 24 26  1  0  0  0  0
 24 23  1  0  0  0  0
 26 28  1  1  0  0  0
 26 22  1  0  0  0  0
 28 27  1  1  0  0  0
 29 28  1  0  0  0  0
 30 29  1  0  0  0  0
 31 33  2  0  0  0  0
 32 34  1  0  0  0  0
 34 31  1  0  0  0  0
 35  1  1  0  0  0  0
 36 37  1  0  0  0  0
 36 35  1  0  0  0  0
 37 38  1  0  0  0  0
 40 39  2  0  0  0  0
 42 38  1  0  0  0  0
 42 40  1  0  0  0  0
 43 40  1  0  0  0  0
 43 41  1  0  0  0  0
M  END
>  <MODEL>
4

>  <REMARK>
 VINA RESULT:      -7.8      1.475      2.387
  Name = 
  11 active torsions:
  status: ('A' for Active; 'I' for Inactive)
    1  A    between atoms: N_3  and  O_19
    2  A    between atoms: C_4  and  C_26
    3  A    between atoms: C_8  and  C_31
    4  A    between atoms: C_11  and  C_27
    5  A    between atoms: O_19  and  C_36
    6  A    between atoms: C_21  and  C_30
    7  A    between atoms: C_23  and  N_43
    8  A    between atoms: N_24  and  C_41
    9  A    between atoms: C_26  and  C_29
   10  A    between atoms: C_33  and  C_36
   11  A    between atoms: C_33  and  C_41
                            x       y       z     vdW  Elec       q    Type
                         _______ _______ _______ _____ _____    ______ ____

>  <TORSDO>
F 11

$$$$
=
 OpenBabel10222421353D

 43 47  0  0  1  0  0  0  0  0999 V2000
  181.3520  178.0330  138.0300 N   0  0  0  0  0  0  0  0  0  0  0  0
  181.8130  178.1070  135.6260 C   0  0  0  0  0  1  0  0  0  0  0  0
  180.8750  178.5490  136.7350 C   0  0  2  0  0  3  0  0  0  0  0  0
  181.7470  179.1190  138.8950 C   0  0  0  0  0  0  0  0  0  0  0  0
  181.6200  181.6880  138.4720 C   0  0  0  0  0  3  0  0  0  0  0  0
  180.0180  181.3170  134.7500 S   0  0  0  0  0  1  0  0  0  0  0  0
  181.5380  180.2520  138.2510 C   0  0  0  0  0  0  0  0  0  0  0  0
  181.1480  182.2300  137.3320 C   0  0  0  0  0  0  0  0  0  0  0  0
  181.0240  180.0080  136.9710 C   0  0  0  0  0  0  0  0  0  0  0  0
  180.7590  181.1490  136.3740 C   0  0  0  0  0  0  0  0  0  0  0  0
  183.8090  178.5290  144.1050 N   0  0  0  0  0  0  0  0  0  0  0  0
  183.6060  178.6070  140.4940 C   0  0  0  0  0  3  0  0  0  0  0  0
  181.9000  179.0760  142.7020 C   0  0  0  0  0  3  0  0  0  0  0  0
  181.4230  179.2140  141.3880 C   0  0  0  0  0  3  0  0  0  0  0  0
  185.1080  178.1630  143.9610 C   0  0  0  0  0  0  0  0  0  0  0  0
  182.2660  178.9790  140.2760 C   0  0  0  0  0  0  0  0  0  0  0  0
  185.5830  178.0430  142.3410 S   0  0  0  0  0  0  0  0  0  0  0  0
  184.0550  178.4760  141.8030 C   0  0  0  0  0  0  0  0  0  0  0  0
  183.2280  178.7010  142.8910 C   0  0  0  0  0  0  0  0  0  0  0  0
  187.1110  177.2910  144.9080 C   0  0  0  0  0  3  0  0  0  0  0  0
  185.9850  177.9090  145.0600 N   0  0  0  0  0  0  0  0  0  0  0  0
  189.5690  178.4580  147.2770 C   0  0  0  0  0  2  0  0  0  0  0  0
  187.3300  177.5430  147.3490 C   0  0  0  0  0  2  0  0  0  0  0  0
  187.9950  177.0350  146.0810 C   0  0  2  0  0  3  0  0  0  0  0  0
  188.2050  178.6560  147.8960 C   0  0  0  0  0  2  0  0  0  0  0  0
  189.2970  177.8060  145.9340 C   0  0  2  0  0  3  0  0  0  0  0  0
  191.5070  176.6920  146.5130 C   0  0  0  0  0  1  0  0  0  0  0  0
  190.4450  176.9110  145.4450 C   0  0  2  0  0  3  0  0  0  0  0  0
  191.0880  177.4750  144.1900 C   0  0  0  0  0  2  0  0  0  0  0  0
  190.3700  178.7390  143.7520 C   0  0  0  0  0  1  0  0  0  0  0  0
  181.0280  183.6890  137.0880 C   0  0  0  0  0  0  0  0  0  0  0  0
  183.1880  184.2370  138.1050 O   0  0  0  0  0  1  0  0  0  0  0  0
  179.9820  184.1530  136.4880 N   0  0  0  0  0  2  0  0  0  0  0  0
  182.0440  184.6170  137.4880 N   0  0  0  0  0  2  0  0  0  0  0  0
  181.4760  176.7120  138.3190 O   0  0  0  0  0  0  0  0  0  0  0  0
  180.1670  176.2470  138.4920 C   0  0  0  0  0  2  0  0  0  0  0  0
  180.1240  174.7410  138.3110 C   0  0  0  0  0  2  0  0  0  0  0  0
  180.4530  174.3750  136.8770 C   0  0  0  0  0  2  0  0  0  0  0  0
  180.9150  171.7770  135.8370 O   0  0  0  0  0  0  0  0  0  0  0  0
  181.9090  172.4070  136.2890 C   0  0  0  0  0  0  0  0  0  0  0  0
  183.4410  170.4860  135.7320 C   0  0  0  0  0  1  0  0  0  0  0  0
  181.7470  173.7170  136.8320 N   0  0  0  0  0  2  0  0  0  0  0  0
  183.2100  171.8180  136.2630 N   0  0  0  0  0  2  0  0  0  0  0  0
  1 35  1  0  0  0  0
  1  4  1  0  0  0  0
  3  2  1  6  0  0  0
  3  9  1  0  0  0  0
  3  1  1  0  0  0  0
  4 16  1  0  0  0  0
  6 10  1  0  0  0  0
  7  5  1  0  0  0  0
  7  4  2  0  0  0  0
  8  5  2  0  0  0  0
  9  7  1  0  0  0  0
 10  9  2  0  0  0  0
 10  8  1  0  0  0  0
 12 18  1  0  0  0  0
 13 19  1  0  0  0  0
 14 13  2  0  0  0  0
 15 11  2  0  0  0  0
 15 21  1  0  0  0  0
 16 12  2  0  0  0  0
 16 14  1  0  0  0  0
 17 15  1  0  0  0  0
 18 17  1  0  0  0  0
 18 19  2  0  0  0  0
 19 11  1  0  0  0  0
 20 21  2  0  0  0  0
 22 25  1  0  0  0  0
 23 25  1  0  0  0  0
 24 20  1  6  0  0  0
 24 23  1  0  0  0  0
 26 28  1  1  0  0  0
 26 24  1  0  0  0  0
 26 22  1  0  0  0  0
 28 27  1  1  0  0  0
 29 28  1  0  0  0  0
 30 29  1  0  0  0  0
 31  8  1  0  0  0  0
 31 34  1  0  0  0  0
 33 31  2  0  0  0  0
 34 32  1  0  0  0  0
 35 36  1  0  0  0  0
 37 36  1  0  0  0  0
 38 37  1  0  0  0  0
 39 40  2  0  0  0  0
 40 42  1  0  0  0  0
 41 43  1  0  0  0  0
 42 38  1  0  0  0  0
 43 40  1  0  0  0  0
M  END
>  <MODEL>
5

>  <REMARK>
 VINA RESULT:      -7.6      6.785      9.738
  Name = 
  11 active torsions:
  status: ('A' for Active; 'I' for Inactive)
    1  A    between atoms: N_3  and  O_19
    2  A    between atoms: C_4  and  C_26
    3  A    between atoms: C_8  and  C_31
    4  A    between atoms: C_11  and  C_27
    5  A    between atoms: O_19  and  C_36
    6  A    between atoms: C_21  and  C_30
    7  A    between atoms: C_23  and  N_43
    8  A    between atoms: N_24  and  C_41
    9  A    between atoms: C_26  and  C_29
   10  A    between atoms: C_33  and  C_36
   11  A    between atoms: C_33  and  C_41
                            x       y       z     vdW  Elec       q    Type
                         _______ _______ _______ _____ _____    ______ ____

>  <TORSDO>
F 11

$$$$
=
 OpenBabel10222421353D

 43 47  0  0  1  0  0  0  0  0999 V2000
  186.1900  177.8920  144.5500 N   0  0  0  0  0  0  0  0  0  0  0  0
  185.7580  179.1650  146.5970 C   0  0  0  0  0  1  0  0  0  0  0  0
  186.2120  177.8350  146.0220 C   0  0  2  0  0  3  0  0  0  0  0  0
  187.5270  177.7740  144.0180 C   0  0  1  0  0  3  0  0  0  0  0  0
  189.7750  177.4010  145.2850 C   0  0  0  0  0  3  0  0  0  0  0  0
  188.0500  177.3180  148.9700 S   0  0  0  0  0  1  0  0  0  0  0  0
  188.3610  177.6330  145.0330 C   0  0  0  0  0  0  0  0  0  0  0  0
  189.8610  177.2890  146.6260 C   0  0  1  0  0  3  0  0  0  0  0  0
  187.6690  177.6560  146.2500 C   0  0  0  0  0  0  0  0  0  0  0  0
  188.5070  177.4450  147.2410 C   0  0  0  0  0  0  0  0  0  0  0  0
  189.0140  177.7720  138.5830 N   0  0  0  0  0  0  0  0  0  0  0  0
  189.0860  177.1750  142.1510 C   0  0  0  0  0  3  0  0  0  0  0  0
  187.3800  178.4160  140.2650 C   0  0  0  0  0  3  0  0  0  0  0  0
  187.0430  178.3940  141.6280 C   0  0  0  0  0  3  0  0  0  0  0  0
  190.2040  177.1230  138.5140 C   0  0  0  0  0  0  0  0  0  0  0  0
  187.8900  177.7800  142.5810 C   0  0  0  0  0  0  0  0  0  0  0  0
  190.7470  176.5800  140.0230 S   0  0  0  0  0  0  0  0  0  0  0  0
  189.3990  177.2090  140.7970 C   0  0  0  0  0  0  0  0  0  0  0  0
  188.5720  177.8160  139.8650 C   0  0  0  0  0  0  0  0  0  0  0  0
  191.7290  175.9150  137.1410 C   0  0  0  0  0  3  0  0  0  0  0  0
  190.9230  176.9140  137.2980 N   0  0  0  0  0  0  0  0  0  0  0  0
  193.5510  173.7990  134.8560 C   0  0  0  0  0  2  0  0  0  0  0  0
  191.5440  175.1500  134.8070 C   0  0  0  0  0  2  0  0  0  0  0  0
  192.4690  175.7370  135.8590 C   0  0  2  0  0  3  0  0  0  0  0  0
  192.1010  173.7870  134.4350 C   0  0  0  0  0  2  0  0  0  0  0  0
  193.6050  174.7440  136.0430 C   0  0  2  0  0  3  0  0  0  0  0  0
  195.5790  175.8350  134.8710 C   0  0  0  0  0  1  0  0  0  0  0  0
  194.9630  175.4440  136.2060 C   0  0  2  0  0  3  0  0  0  0  0  0
  195.9370  174.5820  136.9890 C   0  0  0  0  0  2  0  0  0  0  0  0
  195.3400  174.1950  138.3300 C   0  0  0  0  0  1  0  0  0  0  0  0
  191.1250  177.0350  147.3620 C   0  0  0  0  0  0  0  0  0  0  0  0
  191.9810  175.4180  145.7340 O   0  0  0  0  0  1  0  0  0  0  0  0
  191.3580  177.6640  148.4660 N   0  0  0  0  0  2  0  0  0  0  0  0
  192.1150  176.1150  146.8870 N   0  0  0  0  0  2  0  0  0  0  0  0
  185.0700  178.1120  143.8170 O   0  0  0  0  0  0  0  0  0  0  0  0
  184.8780  179.4990  143.8420 C   0  0  0  0  0  2  0  0  0  0  0  0
  183.4160  179.8160  144.0950 C   0  0  0  0  0  2  0  0  0  0  0  0
  182.5510  178.6210  143.7460 C   0  0  0  0  0  2  0  0  0  0  0  0
  182.9150  178.2540  140.9560 O   0  0  0  0  0  0  0  0  0  0  0  0
  181.8360  178.7850  141.3370 C   0  0  0  0  0  0  0  0  0  0  0  0
  181.0390  178.9860  138.9550 C   0  0  0  0  0  1  0  0  0  0  0  0
  181.5900  179.0030  142.7260 N   0  0  0  0  0  2  0  0  0  0  0  0
  180.8470  179.1730  140.3830 N   0  0  0  0  0  2  0  0  0  0  0  0
  1  3  1  0  0  0  0
  3  9  1  0  0  0  0
  3  2  1  1  0  0  0
  4 16  1  6  0  0  0
  4  1  1  0  0  0  0
  4  7  1  0  0  0  0
  5  8  1  0  0  0  0
  7  5  2  0  0  0  0
  7  9  1  0  0  0  0
  8 10  1  0  0  0  0
  8 31  1  6  0  0  0
  9 10  2  0  0  0  0
 10  6  1  0  0  0  0
 11 19  1  0  0  0  0
 12 16  1  0  0  0  0
 13 14  1  0  0  0  0
 14 16  2  0  0  0  0
 15 11  2  0  0  0  0
 15 17  1  0  0  0  0
 17 18  1  0  0  0  0
 18 12  2  0  0  0  0
 19 13  2  0  0  0  0
 19 18  1  0  0  0  0
 20 21  2  0  0  0  0
 21 15  1  0  0  0  0
 22 26  1  0  0  0  0
 23 24  1  0  0  0  0
 24 26  1  0  0  0  0
 24 20  1  1  0  0  0
 25 23  1  0  0  0  0
 25 22  1  0  0  0  0
 26 28  1  6  0  0  0
 28 27  1  6  0  0  0
 28 29  1  0  0  0  0
 29 30  1  0  0  0  0
 31 33  2  0  0  0  0
 32 34  1  0  0  0  0
 34 31  1  0  0  0  0
 35 36  1  0  0  0  0
 35  1  1  0  0  0  0
 36 37  1  0  0  0  0
 38 37  1  0  0  0  0
 39 40  2  0  0  0  0
 40 42  1  0  0  0  0
 41 43  1  0  0  0  0
 42 38  1  0  0  0  0
 43 40  1  0  0  0  0
M  END
>  <MODEL>
6

>  <REMARK>
 VINA RESULT:      -7.6      3.363      9.858
  Name = 
  11 active torsions:
  status: ('A' for Active; 'I' for Inactive)
    1  A    between atoms: N_3  and  O_19
    2  A    between atoms: C_4  and  C_26
    3  A    between atoms: C_8  and  C_31
    4  A    between atoms: C_11  and  C_27
    5  A    between atoms: O_19  and  C_36
    6  A    between atoms: C_21  and  C_30
    7  A    between atoms: C_23  and  N_43
    8  A    between atoms: N_24  and  C_41
    9  A    between atoms: C_26  and  C_29
   10  A    between atoms: C_33  and  C_36
   11  A    between atoms: C_33  and  C_41
                            x       y       z     vdW  Elec       q    Type
                         _______ _______ _______ _____ _____    ______ ____

>  <TORSDO>
F 11

$$$$
=
 OpenBabel10222421353D

 43 47  0  0  1  0  0  0  0  0999 V2000
  191.7380  174.0860  134.9560 N   0  0  0  0  0  0  0  0  0  0  0  0
  192.5330  171.8190  134.4820 C   0  0  0  0  0  1  0  0  0  0  0  0
  192.8370  173.3020  134.3670 C   0  0  2  0  0  3  0  0  0  0  0  0
  192.1950  174.8040  136.1230 C   0  0  1  0  0  3  0  0  0  0  0  0
  194.5890  174.9220  137.1480 C   0  0  0  0  0  3  0  0  0  0  0  0
  196.2530  172.4840  134.3460 S   0  0  0  0  0  1  0  0  0  0  0  0
  193.4790  174.5410  136.2880 C   0  0  0  0  0  0  0  0  0  0  0  0
  195.6500  174.2720  136.6300 C   0  0  1  0  0  3  0  0  0  0  0  0
  193.9370  173.6660  135.2960 C   0  0  0  0  0  0  0  0  0  0  0  0
  195.2310  173.4730  135.4380 C   0  0  0  0  0  0  0  0  0  0  0  0
  189.0700  178.1430  139.4140 N   0  0  0  0  0  0  0  0  0  0  0  0
  191.4220  175.6000  138.3680 C   0  0  0  0  0  3  0  0  0  0  0  0
  189.7230  177.5120  137.1580 C   0  0  0  0  0  3  0  0  0  0  0  0
  190.5180  176.6630  136.3720 C   0  0  0  0  0  3  0  0  0  0  0  0
  189.3500  177.7870  140.6930 C   0  0  0  0  0  0  0  0  0  0  0  0
  191.3690  175.7000  136.9650 C   0  0  0  0  0  0  0  0  0  0  0  0
  190.4890  176.5390  140.7950 S   0  0  0  0  0  0  0  0  0  0  0  0
  190.6250  176.4510  139.1260 C   0  0  0  0  0  0  0  0  0  0  0  0
  189.7880  177.3890  138.5440 C   0  0  0  0  0  0  0  0  0  0  0  0
  188.2010  177.7060  142.7770 C   0  0  0  0  0  3  0  0  0  0  0  0
  188.7510  178.4010  141.8360 N   0  0  0  0  0  0  0  0  0  0  0  0
  186.1600  177.5570  145.7480 C   0  0  0  0  0  2  0  0  0  0  0  0
  188.4320  178.1670  145.1860 C   0  0  0  0  0  2  0  0  0  0  0  0
  187.5770  178.3840  143.9490 C   0  0  2  0  0  3  0  0  0  0  0  0
  187.5990  177.3670  146.1700 C   0  0  0  0  0  2  0  0  0  0  0  0
  186.2180  177.7720  144.2470 C   0  0  2  0  0  3  0  0  0  0  0  0
  183.9810  178.8690  144.7480 C   0  0  0  0  0  1  0  0  0  0  0  0
  185.0670  178.6340  143.7090 C   0  0  2  0  0  3  0  0  0  0  0  0
  184.4590  178.0220  142.4590 C   0  0  0  0  0  2  0  0  0  0  0  0
  184.6970  178.9210  141.2600 C   0  0  0  0  0  1  0  0  0  0  0  0
  197.0290  174.3600  137.1730 C   0  0  0  0  0  0  0  0  0  0  0  0
  197.4810  176.5660  136.2100 O   0  0  0  0  0  1  0  0  0  0  0  0
  197.4940  173.3950  137.8950 N   0  0  0  0  0  2  0  0  0  0  0  0
  197.8740  175.4930  136.9350 N   0  0  0  0  0  2  0  0  0  0  0  0
  190.4590  174.0570  134.5030 O   0  0  0  0  0  0  0  0  0  0  0  0
  189.6820  173.6980  135.6100 C   0  0  0  0  0  2  0  0  0  0  0  0
  188.2260  173.5700  135.2020 C   0  0  0  0  0  2  0  0  0  0  0  0
  187.8690  172.1150  134.9740 C   0  0  0  0  0  2  0  0  0  0  0  0
  186.4860  169.6540  134.6930 O   0  0  0  0  0  0  0  0  0  0  0  0
  185.8540  170.6220  135.1990 C   0  0  0  0  0  0  0  0  0  0  0  0
  183.7920  169.1990  135.4640 C   0  0  0  0  0  1  0  0  0  0  0  0
  186.4880  171.8900  135.3640 N   0  0  0  0  0  2  0  0  0  0  0  0
  184.4970  170.4600  135.6120 N   0  0  0  0  0  2  0  0  0  0  0  0
  1  4  1  0  0  0  0
  3  2  1  1  0  0  0
  3  1  1  0  0  0  0
  3  9  1  0  0  0  0
  4  7  1  0  0  0  0
  4 16  1  6  0  0  0
  6 10  1  0  0  0  0
  7  5  2  0  0  0  0
  8  5  1  0  0  0  0
  8 31  1  6  0  0  0
  9 10  2  0  0  0  0
  9  7  1  0  0  0  0
 10  8  1  0  0  0  0
 11 15  2  0  0  0  0
 12 18  1  0  0  0  0
 13 19  1  0  0  0  0
 14 16  1  0  0  0  0
 14 13  2  0  0  0  0
 15 17  1  0  0  0  0
 15 21  1  0  0  0  0
 16 12  2  0  0  0  0
 18 17  1  0  0  0  0
 19 18  2  0  0  0  0
 19 11  1  0  0  0  0
 21 20  2  0  0  0  0
 22 25  1  0  0  0  0
 23 25  1  0  0  0  0
 24 20  1  6  0  0  0
 24 26  1  0  0  0  0
 24 23  1  0  0  0  0
 26 28  1  1  0  0  0
 26 22  1  0  0  0  0
 28 27  1  1  0  0  0
 29 28  1  0  0  0  0
 30 29  1  0  0  0  0
 31 33  2  0  0  0  0
 32 34  1  0  0  0  0
 34 31  1  0  0  0  0
 35  1  1  0  0  0  0
 35 36  1  0  0  0  0
 37 36  1  0  0  0  0
 38 37  1  0  0  0  0
 38 42  1  0  0  0  0
 39 40  2  0  0  0  0
 40 42  1  0  0  0  0
 40 43  1  0  0  0  0
 41 43  1  0  0  0  0
M  END
>  <MODEL>
7

>  <REMARK>
 VINA RESULT:      -6.9      2.699      3.934
  Name = 
  11 active torsions:
  status: ('A' for Active; 'I' for Inactive)
    1  A    between atoms: N_3  and  O_19
    2  A    between atoms: C_4  and  C_26
    3  A    between atoms: C_8  and  C_31
    4  A    between atoms: C_11  and  C_27
    5  A    between atoms: O_19  and  C_36
    6  A    between atoms: C_21  and  C_30
    7  A    between atoms: C_23  and  N_43
    8  A    between atoms: N_24  and  C_41
    9  A    between atoms: C_26  and  C_29
   10  A    between atoms: C_33  and  C_36
   11  A    between atoms: C_33  and  C_41
                            x       y       z     vdW  Elec       q    Type
                         _______ _______ _______ _____ _____    ______ ____

>  <TORSDO>
F 11

$$$$
=
 OpenBabel10222421353D

 43 47  0  0  1  0  0  0  0  0999 V2000
  186.0480  178.9090  140.3900 N   0  0  0  0  0  0  0  0  0  0  0  0
  184.5850  178.2490  142.2400 C   0  0  0  0  0  1  0  0  0  0  0  0
  184.7390  179.1450  141.0220 C   0  0  2  0  0  3  0  0  0  0  0  0
  185.8810  178.3420  139.0720 C   0  0  0  0  0  0  0  0  0  0  0  0
  183.6810  177.8280  137.7700 C   0  0  0  0  0  3  0  0  0  0  0  0
  181.2380  179.1650  140.7380 S   0  0  0  0  0  1  0  0  0  0  0  0
  184.5860  178.2270  138.8380 C   0  0  0  0  0  0  0  0  0  0  0  0
  182.4510  178.0660  138.2690 C   0  0  0  0  0  0  0  0  0  0  0  0
  183.8410  178.6780  139.9350 C   0  0  0  0  0  0  0  0  0  0  0  0
  182.5580  178.6180  139.6540 C   0  0  0  0  0  0  0  0  0  0  0  0
  190.0940  176.9270  135.6100 N   0  0  0  0  0  0  0  0  0  0  0  0
  187.8790  176.9580  138.4710 C   0  0  0  0  0  3  0  0  0  0  0  0
  188.1620  178.3460  136.0210 C   0  0  0  0  0  3  0  0  0  0  0  0
  187.1240  178.6690  136.9100 C   0  0  0  0  0  3  0  0  0  0  0  0
  190.7700  175.9230  136.2240 C   0  0  0  0  0  0  0  0  0  0  0  0
  186.9740  177.9840  138.1390 C   0  0  0  0  0  0  0  0  0  0  0  0
  190.1050  175.4990  137.7210 S   0  0  0  0  0  0  0  0  0  0  0  0
  188.8990  176.6560  137.5760 C   0  0  0  0  0  0  0  0  0  0  0  0
  189.0490  177.3310  136.3750 C   0  0  0  0  0  0  0  0  0  0  0  0
  192.9320  174.9390  136.3940 C   0  0  0  0  0  3  0  0  0  0  0  0
  191.9210  175.2870  135.6660 N   0  0  0  0  0  0  0  0  0  0  0  0
  196.4000  173.9590  136.5620 C   0  0  0  0  0  2  0  0  0  0  0  0
  194.2590  172.8660  136.2950 C   0  0  0  0  0  2  0  0  0  0  0  0
  194.1190  174.2850  135.7730 C   0  0  2  0  0  3  0  0  0  0  0  0
  195.5710  172.7970  137.0550 C   0  0  0  0  0  2  0  0  0  0  0  0
  195.3890  175.0210  136.1690 C   0  0  2  0  0  3  0  0  0  0  0  0
  197.4010  176.0930  135.0430 C   0  0  0  0  0  1  0  0  0  0  0  0
  195.8860  175.9540  135.0540 C   0  0  2  0  0  3  0  0  0  0  0  0
  195.2440  177.3270  135.1600 C   0  0  0  0  0  2  0  0  0  0  0  0
  196.1300  178.3750  134.5120 C   0  0  0  0  0  1  0  0  0  0  0  0
  181.1880  177.8200  137.5270 C   0  0  0  0  0  0  0  0  0  0  0  0
  180.9670  180.1300  136.7430 O   0  0  0  0  0  1  0  0  0  0  0  0
  180.6780  176.6340  137.5130 N   0  0  0  0  0  2  0  0  0  0  0  0
  180.5090  178.8570  136.8090 N   0  0  0  0  0  2  0  0  0  0  0  0
  187.2370  179.1220  141.0080 O   0  0  0  0  0  0  0  0  0  0  0  0
  187.3830  178.0560  141.9040 C   0  0  0  0  0  2  0  0  0  0  0  0
  188.8480  177.6760  142.0220 C   0  0  0  0  0  2  0  0  0  0  0  0
  189.0090  176.4840  142.9460 C   0  0  0  0  0  2  0  0  0  0  0  0
  190.2660  177.4730  145.2890 O   0  0  0  0  0  0  0  0  0  0  0  0
  189.0240  177.2550  145.3430 C   0  0  0  0  0  0  0  0  0  0  0  0
  188.9470  178.0130  147.7440 C   0  0  0  0  0  1  0  0  0  0  0  0
  188.3300  176.7520  144.2020 N   0  0  0  0  0  2  0  0  0  0  0  0
  188.2990  177.5090  146.5460 N   0  0  0  0  0  2  0  0  0  0  0  0
  1 35  1  0  0  0  0
  1  3  1  0  0  0  0
  3  2  1  1  0  0  0
  4  1  1  0  0  0  0
  5  8  2  0  0  0  0
  5  7  1  0  0  0  0
  7  4  2  0  0  0  0
  7  9  1  0  0  0  0
  8 10  1  0  0  0  0
  9  3  1  0  0  0  0
 10  9  2  0  0  0  0
 10  6  1  0  0  0  0
 11 15  2  0  0  0  0
 11 19  1  0  0  0  0
 13 19  2  0  0  0  0
 13 14  1  0  0  0  0
 14 16  2  0  0  0  0
 15 17  1  0  0  0  0
 16 12  1  0  0  0  0
 16  4  1  0  0  0  0
 18 17  1  0  0  0  0
 18 12  2  0  0  0  0
 19 18  1  0  0  0  0
 21 15  1  0  0  0  0
 21 20  2  0  0  0  0
 22 25  1  0  0  0  0
 23 25  1  0  0  0  0
 24 26  1  0  0  0  0
 24 23  1  0  0  0  0
 24 20  1  1  0  0  0
 26 28  1  6  0  0  0
 26 22  1  0  0  0  0
 28 27  1  1  0  0  0
 28 29  1  0  0  0  0
 30 29  1  0  0  0  0
 31  8  1  0  0  0  0
 32 34  1  0  0  0  0
 33 31  2  0  0  0  0
 34 31  1  0  0  0  0
 35 36  1  0  0  0  0
 36 37  1  0  0  0  0
 37 38  1  0  0  0  0
 38 42  1  0  0  0  0
 39 40  2  0  0  0  0
 40 43  1  0  0  0  0
 42 40  1  0  0  0  0
 43 41  1  0  0  0  0
M  END
>  <MODEL>
8

>  <REMARK>
 VINA RESULT:      -6.8      3.332     10.867
  Name = 
  11 active torsions:
  status: ('A' for Active; 'I' for Inactive)
    1  A    between atoms: N_3  and  O_19
    2  A    between atoms: C_4  and  C_26
    3  A    between atoms: C_8  and  C_31
    4  A    between atoms: C_11  and  C_27
    5  A    between atoms: O_19  and  C_36
    6  A    between atoms: C_21  and  C_30
    7  A    between atoms: C_23  and  N_43
    8  A    between atoms: N_24  and  C_41
    9  A    between atoms: C_26  and  C_29
   10  A    between atoms: C_33  and  C_36
   11  A    between atoms: C_33  and  C_41
                            x       y       z     vdW  Elec       q    Type
                         _______ _______ _______ _____ _____    ______ ____

>  <TORSDO>
F 11

$$$$
=
 OpenBabel10222421353D

 43 47  0  0  1  0  0  0  0  0999 V2000
  186.2950  178.8000  140.1620 N   0  0  0  0  0  0  0  0  0  0  0  0
  184.6190  178.2980  141.8770 C   0  0  0  0  0  1  0  0  0  0  0  0
  184.9390  179.1220  140.6410 C   0  0  2  0  0  3  0  0  0  0  0  0
  186.2390  178.1720  138.8630 C   0  0  0  0  0  0  0  0  0  0  0  0
  184.1640  177.6810  137.3630 C   0  0  0  0  0  3  0  0  0  0  0  0
  181.4910  179.2690  139.9880 S   0  0  0  0  0  1  0  0  0  0  0  0
  184.9710  178.0970  138.5000 C   0  0  0  0  0  0  0  0  0  0  0  0
  182.9020  177.9940  137.7160 C   0  0  0  0  0  0  0  0  0  0  0  0
  184.1390  178.6350  139.4890 C   0  0  0  0  0  0  0  0  0  0  0  0
  182.8900  178.6130  139.0770 C   0  0  0  0  0  0  0  0  0  0  0  0
  190.6770  176.3610  135.9030 N   0  0  0  0  0  0  0  0  0  0  0  0
  187.7570  176.3590  138.0400 C   0  0  0  0  0  3  0  0  0  0  0  0
  189.2940  178.2400  136.5880 C   0  0  0  0  0  3  0  0  0  0  0  0
  188.1800  178.6520  137.3370 C   0  0  0  0  0  3  0  0  0  0  0  0
  190.7380  175.0180  136.0920 C   0  0  0  0  0  0  0  0  0  0  0  0
  187.4050  177.7210  138.0700 C   0  0  0  0  0  0  0  0  0  0  0  0
  189.5030  174.4360  137.0920 S   0  0  0  0  0  0  0  0  0  0  0  0
  188.8650  175.9740  137.2930 C   0  0  0  0  0  0  0  0  0  0  0  0
  189.6250  176.8870  136.5800 C   0  0  0  0  0  0  0  0  0  0  0  0
  192.4500  173.3670  136.2160 C   0  0  0  0  0  3  0  0  0  0  0  0
  191.7370  174.1810  135.5080 N   0  0  0  0  0  0  0  0  0  0  0  0
  194.9150  170.7420  136.4380 C   0  0  0  0  0  2  0  0  0  0  0  0
  192.8920  171.1740  135.1840 C   0  0  0  0  0  2  0  0  0  0  0  0
  193.4900  172.5160  135.5700 C   0  0  2  0  0  3  0  0  0  0  0  0
  193.6150  170.1140  135.9950 C   0  0  0  0  0  2  0  0  0  0  0  0
  194.6140  172.2260  136.5520 C   0  0  2  0  0  3  0  0  0  0  0  0
  196.8920  172.4390  135.4460 C   0  0  0  0  0  1  0  0  0  0  0  0
  195.8380  173.1190  136.3080 C   0  0  2  0  0  3  0  0  0  0  0  0
  196.4590  173.5720  137.6180 C   0  0  0  0  0  2  0  0  0  0  0  0
  195.4110  173.6110  138.7140 C   0  0  0  0  0  1  0  0  0  0  0  0
  181.7130  177.7610  136.8580 C   0  0  0  0  0  0  0  0  0  0  0  0
  181.0140  175.7300  138.0360 O   0  0  0  0  0  1  0  0  0  0  0  0
  181.4420  178.5880  135.9040 N   0  0  0  0  0  2  0  0  0  0  0  0
  180.8350  176.6460  137.0550 N   0  0  0  0  0  2  0  0  0  0  0  0
  187.4220  178.9970  140.8920 O   0  0  0  0  0  0  0  0  0  0  0  0
  187.7780  177.7300  141.3690 C   0  0  0  0  0  2  0  0  0  0  0  0
  188.3430  177.8450  142.7730 C   0  0  0  0  0  2  0  0  0  0  0  0
  187.7650  176.7610  143.6620 C   0  0  0  0  0  2  0  0  0  0  0  0
  189.1450  176.9170  146.1360 O   0  0  0  0  0  0  0  0  0  0  0  0
  187.9870  177.4120  146.0850 C   0  0  0  0  0  0  0  0  0  0  0  0
  188.1240  178.1020  148.5040 C   0  0  0  0  0  1  0  0  0  0  0  0
  187.2340  177.3640  144.8730 N   0  0  0  0  0  2  0  0  0  0  0  0
  187.4140  178.0270  147.2390 N   0  0  0  0  0  2  0  0  0  0  0  0
  1  3  1  0  0  0  0
  1 35  1  0  0  0  0
  3  2  1  1  0  0  0
  4  1  1  0  0  0  0
  5  8  2  0  0  0  0
  5  7  1  0  0  0  0
  7  4  2  0  0  0  0
  7  9  1  0  0  0  0
  8 10  1  0  0  0  0
  9  3  1  0  0  0  0
 10  9  2  0  0  0  0
 10  6  1  0  0  0  0
 11 15  2  0  0  0  0
 11 19  1  0  0  0  0
 12 16  1  0  0  0  0
 13 14  1  0  0  0  0
 14 16  2  0  0  0  0
 15 17  1  0  0  0  0
 16  4  1  0  0  0  0
 17 18  1  0  0  0  0
 18 12  2  0  0  0  0
 19 13  2  0  0  0  0
 19 18  1  0  0  0  0
 21 15  1  0  0  0  0
 21 20  2  0  0  0  0
 22 26  1  0  0  0  0
 23 24  1  0  0  0  0
 23 25  1  0  0  0  0
 24 20  1  1  0  0  0
 24 26  1  0  0  0  0
 25 22  1  0  0  0  0
 26 28  1  6  0  0  0
 28 27  1  6  0  0  0
 28 29  1  0  0  0  0
 29 30  1  0  0  0  0
 31 34  1  0  0  0  0
 31  8  1  0  0  0  0
 33 31  2  0  0  0  0
 34 32  1  0  0  0  0
 35 36  1  0  0  0  0
 36 37  1  0  0  0  0
 37 38  1  0  0  0  0
 38 42  1  0  0  0  0
 40 39  2  0  0  0  0
 40 43  1  0  0  0  0
 42 40  1  0  0  0  0
 43 41  1  0  0  0  0
M  END
>  <MODEL>
9

>  <REMARK>
 VINA RESULT:      -6.7      3.345     10.729
  Name = 
  11 active torsions:
  status: ('A' for Active; 'I' for Inactive)
    1  A    between atoms: N_3  and  O_19
    2  A    between atoms: C_4  and  C_26
    3  A    between atoms: C_8  and  C_31
    4  A    between atoms: C_11  and  C_27
    5  A    between atoms: O_19  and  C_36
    6  A    between atoms: C_21  and  C_30
    7  A    between atoms: C_23  and  N_43
    8  A    between atoms: N_24  and  C_41
    9  A    between atoms: C_26  and  C_29
   10  A    between atoms: C_33  and  C_36
   11  A    between atoms: C_33  and  C_41
                            x       y       z     vdW  Elec       q    Type
                         _______ _______ _______ _____ _____    ______ ____

>  <TORSDO>
F 11

$$$$
