=
 OpenBabel10232407543D

 26 29  0  0  1  0  0  0  0  0999 V2000
  186.5670  178.3950  141.8620 C   0  0  1  0  0  3  0  0  0  0  0  0
  189.5610  177.0830  144.5730 C   0  0  0  0  0  0  0  0  0  0  0  0
  191.7480  176.2940  145.5040 C   0  0  0  0  0  3  0  0  0  0  0  0
  188.7210  177.3740  143.5250 N   0  0  0  0  0  0  0  0  0  0  0  0
  189.2780  177.1960  147.1260 C   0  0  0  0  0  0  0  0  0  0  0  0
  188.9830  177.1700  141.7740 S   0  0  0  0  0  0  0  0  0  0  0  0
  186.6900  178.1480  146.3340 C   0  0  0  0  0  3  0  0  0  0  0  0
  190.8890  176.6150  144.4540 C   0  0  0  0  0  0  0  0  0  0  0  0
  188.9010  177.3170  145.7120 C   0  0  0  0  0  0  0  0  0  0  0  0
  190.4960  176.7460  147.5990 C   0  0  0  0  0  3  0  0  0  0  0  0
  191.5230  176.4230  143.1210 C   0  0  0  0  0  1  0  0  0  0  0  0
  187.0380  178.0400  147.6850 C   0  0  0  0  0  3  0  0  0  0  0  0
  187.5550  177.8060  144.0660 C   0  0  0  0  0  0  0  0  0  0  0  0
  187.9820  178.6240  141.3390 C   0  0  0  0  0  2  0  0  0  0  0  0
  188.3080  177.5700  148.0670 C   0  0  0  0  0  3  0  0  0  0  0  0
  191.6180  176.3300  146.8980 C   0  0  0  0  0  0  0  0  0  0  0  0
  187.6030  177.7830  145.4030 N   0  0  0  0  0  0  0  0  0  0  0  0
  186.5340  178.3070  143.3600 C   0  0  0  0  0  3  0  0  0  0  0  0
  185.6660  179.3950  141.3840 O   0  0  0  0  0  0  0  0  0  0  0  0
  182.6600  177.7400  139.7890 C   0  0  0  0  0  1  0  0  0  0  0  0
  183.7530  178.0500  140.6950 N   0  0  0  0  0  2  0  0  0  0  0  0
  184.6330  179.1510  140.4700 C   0  0  0  0  0  0  0  0  0  0  0  0
  184.4770  179.8920  139.4600 O   0  0  0  0  0  0  0  0  0  0  0  0
  192.7000  175.9220  147.6900 O   0  0  0  0  0  0  0  0  0  0  0  0
  193.1230  176.6030  148.8030 C   0  0  0  0  0  0  0  0  0  0  0  0
  193.4810  177.1780  149.7420 N   0  0  0  0  0  0  0  0  0  0  0  0
  1 19  1  1  0  0  0
  1 18  1  0  0  0  0
  2  9  2  0  0  0  0
  3 16  1  0  0  0  0
  4 13  1  0  0  0  0
  4  2  1  0  0  0  0
  5 10  1  0  0  0  0
  5 15  2  0  0  0  0
  6  4  1  0  0  0  0
  7 12  2  0  0  0  0
  8  2  1  0  0  0  0
  8  3  2  0  0  0  0
  9  5  1  0  0  0  0
 11  8  1  0  0  0  0
 12 15  1  0  0  0  0
 13 17  1  0  0  0  0
 14  6  1  0  0  0  0
 14  1  1  0  0  0  0
 16 10  2  0  0  0  0
 16 24  1  0  0  0  0
 17  9  1  0  0  0  0
 17  7  1  0  0  0  0
 18 13  2  0  0  0  0
 20 21  1  0  0  0  0
 22 21  1  0  0  0  0
 22 19  1  0  0  0  0
 23 22  2  0  0  0  0
 24 25  1  0  0  0  0
 25 26  3  0  0  0  0
M  END
>  <MODEL>
1

>  <REMARK>
 VINA RESULT:      -9.1      0.000      0.000
  Name = 
  4 active torsions:
  status: ('A' for Active; 'I' for Inactive)
    1  A    between atoms: C_1  and  O_10
    2  A    between atoms: C_7  and  O_23
    3  A    between atoms: O_10  and  C_21
    4  A    between atoms: C_22  and  O_23
                            x       y       z     vdW  Elec       q    Type
                         _______ _______ _______ _____ _____    ______ ____

>  <TORSDO>
F 4

$$$$
=
 OpenBabel10232407543D

 26 29  0  0  1  0  0  0  0  0999 V2000
  187.2920  178.0250  139.8470 C   0  0  1  0  0  3  0  0  0  0  0  0
  189.1820  177.3860  143.5960 C   0  0  0  0  0  0  0  0  0  0  0  0
  190.9330  176.9870  145.3410 C   0  0  0  0  0  3  0  0  0  0  0  0
  188.7640  177.4620  142.2890 N   0  0  0  0  0  0  0  0  0  0  0  0
  187.9690  177.7020  145.8420 C   0  0  0  0  0  0  0  0  0  0  0  0
  189.6700  177.1300  140.7900 S   0  0  0  0  0  0  0  0  0  0  0  0
  185.7810  178.2220  144.0610 C   0  0  0  0  0  3  0  0  0  0  0  0
  190.4960  177.0900  144.0220 C   0  0  0  0  0  0  0  0  0  0  0  0
  188.1310  177.6370  144.3830 C   0  0  0  0  0  0  0  0  0  0  0  0
  188.9620  177.4640  146.7730 C   0  0  0  0  0  3  0  0  0  0  0  0
  191.5900  176.8580  143.0400 C   0  0  0  0  0  1  0  0  0  0  0  0
  185.6150  178.2890  145.4480 C   0  0  0  0  0  3  0  0  0  0  0  0
  187.4470  177.7850  142.3170 C   0  0  0  0  0  0  0  0  0  0  0  0
  188.7740  178.3900  139.8340 C   0  0  0  0  0  2  0  0  0  0  0  0
  186.6920  178.0300  146.3160 C   0  0  0  0  0  3  0  0  0  0  0  0
  190.2960  177.1370  146.5800 C   0  0  0  0  0  0  0  0  0  0  0  0
  187.0010  177.8940  143.5730 N   0  0  0  0  0  0  0  0  0  0  0  0
  186.7180  178.0760  141.2330 C   0  0  0  0  0  3  0  0  0  0  0  0
  186.5450  178.8460  138.9490 O   0  0  0  0  0  0  0  0  0  0  0  0
  182.9120  179.9060  138.9760 C   0  0  0  0  0  1  0  0  0  0  0  0
  184.3580  179.9110  139.1190 N   0  0  0  0  0  2  0  0  0  0  0  0
  185.1550  178.7740  138.7880 C   0  0  0  0  0  0  0  0  0  0  0  0
  184.6100  177.7210  138.3550 O   0  0  0  0  0  0  0  0  0  0  0  0
  191.0420  176.9530  147.7510 O   0  0  0  0  0  0  0  0  0  0  0  0
  192.1320  176.1240  147.8340 C   0  0  0  0  0  0  0  0  0  0  0  0
  193.0510  175.4240  147.9030 N   0  0  0  0  0  0  0  0  0  0  0  0
  1 19  1  6  0  0  0
  1 18  1  0  0  0  0
  2  8  1  0  0  0  0
  2  9  2  0  0  0  0
  3 16  1  0  0  0  0
  4 13  1  0  0  0  0
  4  2  1  0  0  0  0
  5 15  2  0  0  0  0
  5 10  1  0  0  0  0
  6  4  1  0  0  0  0
  7 12  2  0  0  0  0
  8  3  2  0  0  0  0
  9  5  1  0  0  0  0
 11  8  1  0  0  0  0
 12 15  1  0  0  0  0
 13 17  1  0  0  0  0
 14  1  1  0  0  0  0
 14  6  1  0  0  0  0
 16 10  2  0  0  0  0
 16 24  1  0  0  0  0
 17  7  1  0  0  0  0
 17  9  1  0  0  0  0
 18 13  2  0  0  0  0
 20 21  1  0  0  0  0
 22 19  1  0  0  0  0
 22 21  1  0  0  0  0
 23 22  2  0  0  0  0
 24 25  1  0  0  0  0
 25 26  3  0  0  0  0
M  END
>  <MODEL>
2

>  <REMARK>
 VINA RESULT:      -8.9      1.542      1.930
  Name = 
  4 active torsions:
  status: ('A' for Active; 'I' for Inactive)
    1  A    between atoms: C_1  and  O_10
    2  A    between atoms: C_7  and  O_23
    3  A    between atoms: O_10  and  C_21
    4  A    between atoms: C_22  and  O_23
                            x       y       z     vdW  Elec       q    Type
                         _______ _______ _______ _____ _____    ______ ____

>  <TORSDO>
F 4

$$$$
=
 OpenBabel10232407543D

 26 29  0  0  1  0  0  0  0  0999 V2000
  184.6450  179.0090  141.2970 C   0  0  1  0  0  3  0  0  0  0  0  0
  187.3380  177.9710  144.4130 C   0  0  0  0  0  0  0  0  0  0  0  0
  188.2590  177.3960  146.6690 C   0  0  0  0  0  3  0  0  0  0  0  0
  186.3340  178.4160  143.5870 N   0  0  0  0  0  0  0  0  0  0  0  0
  189.7530  177.2040  143.9720 C   0  0  0  0  0  0  0  0  0  0  0  0
  184.7090  179.0190  144.0070 S   0  0  0  0  0  0  0  0  0  0  0  0
  188.9520  177.7730  141.2770 C   0  0  0  0  0  3  0  0  0  0  0  0
  187.2440  177.8250  145.8150 C   0  0  0  0  0  0  0  0  0  0  0  0
  188.4090  177.7070  143.6570 C   0  0  0  0  0  0  0  0  0  0  0  0
  190.2260  176.9080  145.2360 C   0  0  0  0  0  3  0  0  0  0  0  0
  185.9790  178.1260  146.5390 C   0  0  0  0  0  1  0  0  0  0  0  0
  190.2340  177.2930  141.5640 C   0  0  0  0  0  3  0  0  0  0  0  0
  186.8230  178.3910  142.3240 C   0  0  0  0  0  0  0  0  0  0  0  0
  183.9500  178.3620  142.4910 C   0  0  0  0  0  2  0  0  0  0  0  0
  190.6220  177.0190  142.8880 C   0  0  0  0  0  3  0  0  0  0  0  0
  189.5830  176.9890  146.4630 C   0  0  0  0  0  0  0  0  0  0  0  0
  188.0950  177.9740  142.3050 N   0  0  0  0  0  0  0  0  0  0  0  0
  186.0970  178.6320  141.2260 C   0  0  0  0  0  3  0  0  0  0  0  0
  183.9730  178.7050  140.0740 O   0  0  0  0  0  0  0  0  0  0  0  0
  181.4490  180.4710  137.8760 C   0  0  0  0  0  1  0  0  0  0  0  0
  182.0810  179.5100  138.7650 N   0  0  0  0  0  2  0  0  0  0  0  0
  183.4260  179.6680  139.2170 C   0  0  0  0  0  0  0  0  0  0  0  0
  184.1070  180.6630  138.8460 O   0  0  0  0  0  0  0  0  0  0  0  0
  190.3570  176.6160  147.5690 O   0  0  0  0  0  0  0  0  0  0  0  0
  191.6450  176.1540  147.4710 C   0  0  0  0  0  0  0  0  0  0  0  0
  192.7320  175.7630  147.3890 N   0  0  0  0  0  0  0  0  0  0  0  0
  1 19  1  6  0  0  0
  1 14  1  0  0  0  0
  2  8  1  0  0  0  0
  4  6  1  0  0  0  0
  4  2  1  0  0  0  0
  5 10  1  0  0  0  0
  7 12  2  0  0  0  0
  7 17  1  0  0  0  0
  8 11  1  0  0  0  0
  8  3  2  0  0  0  0
  9  5  1  0  0  0  0
  9  2  2  0  0  0  0
 10 16  2  0  0  0  0
 12 15  1  0  0  0  0
 13  4  1  0  0  0  0
 14  6  1  0  0  0  0
 15  5  2  0  0  0  0
 16  3  1  0  0  0  0
 16 24  1  0  0  0  0
 17 13  1  0  0  0  0
 17  9  1  0  0  0  0
 18  1  1  0  0  0  0
 18 13  2  0  0  0  0
 20 21  1  0  0  0  0
 21 22  1  0  0  0  0
 22 19  1  0  0  0  0
 23 22  2  0  0  0  0
 25 24  1  0  0  0  0
 26 25  3  0  0  0  0
M  END
>  <MODEL>
3

>  <REMARK>
 VINA RESULT:      -8.7      1.926      3.628
  Name = 
  4 active torsions:
  status: ('A' for Active; 'I' for Inactive)
    1  A    between atoms: C_1  and  O_10
    2  A    between atoms: C_7  and  O_23
    3  A    between atoms: O_10  and  C_21
    4  A    between atoms: C_22  and  O_23
                            x       y       z     vdW  Elec       q    Type
                         _______ _______ _______ _____ _____    ______ ____

>  <TORSDO>
F 4

$$$$
=
 OpenBabel10232407543D

 26 29  0  0  1  0  0  0  0  0999 V2000
  184.4160  178.9160  142.0690 C   0  0  1  0  0  3  0  0  0  0  0  0
  187.4340  177.9690  144.9030 C   0  0  0  0  0  0  0  0  0  0  0  0
  188.6080  177.5170  147.0680 C   0  0  0  0  0  3  0  0  0  0  0  0
  186.3540  178.4060  144.1740 N   0  0  0  0  0  0  0  0  0  0  0  0
  189.7350  177.0360  144.2320 C   0  0  0  0  0  0  0  0  0  0  0  0
  184.8260  179.1300  144.7390 S   0  0  0  0  0  0  0  0  0  0  0  0
  188.6230  177.4410  141.6180 C   0  0  0  0  0  3  0  0  0  0  0  0
  187.5140  177.9370  146.3120 C   0  0  0  0  0  0  0  0  0  0  0  0
  188.3860  177.5880  144.0450 C   0  0  0  0  0  0  0  0  0  0  0  0
  190.3510  176.8100  145.4480 C   0  0  0  0  0  3  0  0  0  0  0  0
  186.3670  178.3630  147.1600 C   0  0  0  0  0  1  0  0  0  0  0  0
  189.9080  176.9120  141.7830 C   0  0  0  0  0  3  0  0  0  0  0  0
  186.6770  178.2560  142.8660 C   0  0  0  0  0  0  0  0  0  0  0  0
  183.8500  178.4030  143.3890 C   0  0  0  0  0  2  0  0  0  0  0  0
  190.4480  176.7190  143.0680 C   0  0  0  0  0  3  0  0  0  0  0  0
  189.8740  177.0210  146.7340 C   0  0  0  0  0  0  0  0  0  0  0  0
  187.9150  177.7680  142.7250 N   0  0  0  0  0  0  0  0  0  0  0  0
  185.8280  178.4530  141.8500 C   0  0  0  0  0  3  0  0  0  0  0  0
  183.5800  178.5580  140.9680 O   0  0  0  0  0  0  0  0  0  0  0  0
  184.2180  177.6660  137.3460 C   0  0  0  0  0  1  0  0  0  0  0  0
  183.8600  177.5810  138.7520 N   0  0  0  0  0  2  0  0  0  0  0  0
  183.9420  178.7090  139.6230 C   0  0  0  0  0  0  0  0  0  0  0  0
  184.3350  179.8240  139.1810 O   0  0  0  0  0  0  0  0  0  0  0  0
  190.7660  176.6910  147.7620 O   0  0  0  0  0  0  0  0  0  0  0  0
  191.9280  175.9910  147.5620 C   0  0  0  0  0  0  0  0  0  0  0  0
  192.9100  175.4000  147.3930 N   0  0  0  0  0  0  0  0  0  0  0  0
  1 19  1  6  0  0  0
  1 14  1  0  0  0  0
  2  8  1  0  0  0  0
  4  6  1  0  0  0  0
  4  2  1  0  0  0  0
  5 10  1  0  0  0  0
  7 12  2  0  0  0  0
  7 17  1  0  0  0  0
  8  3  2  0  0  0  0
  8 11  1  0  0  0  0
  9  5  1  0  0  0  0
  9  2  2  0  0  0  0
 10 16  2  0  0  0  0
 12 15  1  0  0  0  0
 13  4  1  0  0  0  0
 14  6  1  0  0  0  0
 15  5  2  0  0  0  0
 16  3  1  0  0  0  0
 16 24  1  0  0  0  0
 17 13  1  0  0  0  0
 17  9  1  0  0  0  0
 18  1  1  0  0  0  0
 18 13  2  0  0  0  0
 20 21  1  0  0  0  0
 21 22  1  0  0  0  0
 22 19  1  0  0  0  0
 23 22  2  0  0  0  0
 25 24  1  0  0  0  0
 26 25  3  0  0  0  0
M  END
>  <MODEL>
4

>  <REMARK>
 VINA RESULT:      -8.5      1.877      3.481
  Name = 
  4 active torsions:
  status: ('A' for Active; 'I' for Inactive)
    1  A    between atoms: C_1  and  O_10
    2  A    between atoms: C_7  and  O_23
    3  A    between atoms: O_10  and  C_21
    4  A    between atoms: C_22  and  O_23
                            x       y       z     vdW  Elec       q    Type
                         _______ _______ _______ _____ _____    ______ ____

>  <TORSDO>
F 4

$$$$
=
 OpenBabel10232407543D

 26 29  0  0  1  0  0  0  0  0999 V2000
  183.7780  179.1130  141.1760 C   0  0  1  0  0  3  0  0  0  0  0  0
  186.4970  178.1640  144.2980 C   0  0  0  0  0  0  0  0  0  0  0  0
  187.4340  177.6340  146.5590 C   0  0  0  0  0  3  0  0  0  0  0  0
  185.4830  178.5810  143.4700 N   0  0  0  0  0  0  0  0  0  0  0  0
  188.9260  177.4400  143.8610 C   0  0  0  0  0  0  0  0  0  0  0  0
  183.8470  179.1570  143.8850 S   0  0  0  0  0  0  0  0  0  0  0  0
  188.1090  177.9610  141.1610 C   0  0  0  0  0  3  0  0  0  0  0  0
  186.4090  178.0330  145.7020 C   0  0  0  0  0  0  0  0  0  0  0  0
  187.5720  177.9120  143.5430 C   0  0  0  0  0  0  0  0  0  0  0  0
  189.4070  177.1680  145.1280 C   0  0  0  0  0  3  0  0  0  0  0  0
  185.1400  178.3180  146.4250 C   0  0  0  0  0  1  0  0  0  0  0  0
  189.4010  177.5100  141.4510 C   0  0  0  0  0  3  0  0  0  0  0  0
  185.9700  178.5500  142.2060 C   0  0  0  0  0  0  0  0  0  0  0  0
  183.0980  178.4670  142.3800 C   0  0  0  0  0  2  0  0  0  0  0  0
  189.7960  177.2590  142.7770 C   0  0  0  0  0  3  0  0  0  0  0  0
  188.7650  177.2510  146.3550 C   0  0  0  0  0  0  0  0  0  0  0  0
  187.2500  178.1580  142.1890 N   0  0  0  0  0  0  0  0  0  0  0  0
  185.2370  178.7630  141.1070 C   0  0  0  0  0  3  0  0  0  0  0  0
  183.1100  178.7820  139.9590 O   0  0  0  0  0  0  0  0  0  0  0  0
  184.3660  176.5450  137.1770 C   0  0  0  0  0  1  0  0  0  0  0  0
  184.0780  177.7120  137.9940 N   0  0  0  0  0  2  0  0  0  0  0  0
  183.3530  177.6170  139.2190 C   0  0  0  0  0  0  0  0  0  0  0  0
  182.9390  176.4960  139.6270 O   0  0  0  0  0  0  0  0  0  0  0  0
  189.5490  176.9060  147.4630 O   0  0  0  0  0  0  0  0  0  0  0  0
  190.8990  176.6740  147.3940 C   0  0  0  0  0  0  0  0  0  0  0  0
  192.0390  176.4780  147.3360 N   0  0  0  0  0  0  0  0  0  0  0  0
  1 19  1  6  0  0  0
  1 14  1  0  0  0  0
  2  8  1  0  0  0  0
  4  6  1  0  0  0  0
  4  2  1  0  0  0  0
  5 10  1  0  0  0  0
  7 12  2  0  0  0  0
  7 17  1  0  0  0  0
  8 11  1  0  0  0  0
  8  3  2  0  0  0  0
  9  5  1  0  0  0  0
  9  2  2  0  0  0  0
 10 16  2  0  0  0  0
 12 15  1  0  0  0  0
 13  4  1  0  0  0  0
 14  6  1  0  0  0  0
 15  5  2  0  0  0  0
 16  3  1  0  0  0  0
 16 24  1  0  0  0  0
 17 13  1  0  0  0  0
 17  9  1  0  0  0  0
 18  1  1  0  0  0  0
 18 13  2  0  0  0  0
 20 21  1  0  0  0  0
 21 22  1  0  0  0  0
 22 23  2  0  0  0  0
 22 19  1  0  0  0  0
 25 24  1  0  0  0  0
 26 25  3  0  0  0  0
M  END
>  <MODEL>
5

>  <REMARK>
 VINA RESULT:      -8.3      2.214      4.053
  Name = 
  4 active torsions:
  status: ('A' for Active; 'I' for Inactive)
    1  A    between atoms: C_1  and  O_10
    2  A    between atoms: C_7  and  O_23
    3  A    between atoms: O_10  and  C_21
    4  A    between atoms: C_22  and  O_23
                            x       y       z     vdW  Elec       q    Type
                         _______ _______ _______ _____ _____    ______ ____

>  <TORSDO>
F 4

$$$$
=
 OpenBabel10232407543D

 26 29  0  0  1  0  0  0  0  0999 V2000
  190.2940  177.4560  142.6270 C   0  0  1  0  0  3  0  0  0  0  0  0
  186.1600  178.3600  142.9930 C   0  0  0  0  0  0  0  0  0  0  0  0
  183.7600  178.7940  142.4270 C   0  0  0  0  0  3  0  0  0  0  0  0
  187.4750  178.1650  142.6440 N   0  0  0  0  0  0  0  0  0  0  0  0
  184.9460  178.4450  145.2580 C   0  0  0  0  0  0  0  0  0  0  0  0
  188.2380  178.2190  141.0340 S   0  0  0  0  0  0  0  0  0  0  0  0
  187.6120  177.9300  146.1850 C   0  0  0  0  0  3  0  0  0  0  0  0
  185.0950  178.5740  142.0910 C   0  0  0  0  0  0  0  0  0  0  0  0
  186.0740  178.3140  144.3260 C   0  0  0  0  0  0  0  0  0  0  0  0
  183.6340  178.6950  144.9040 C   0  0  0  0  0  3  0  0  0  0  0  0
  185.3180  178.5730  140.6190 C   0  0  0  0  0  1  0  0  0  0  0  0
  186.5450  178.0510  147.0820 C   0  0  0  0  0  3  0  0  0  0  0  0
  188.1640  177.9820  143.7970 C   0  0  0  0  0  0  0  0  0  0  0  0
  189.4680  176.9470  141.4490 C   0  0  0  0  0  2  0  0  0  0  0  0
  185.2410  178.3060  146.6220 C   0  0  0  0  0  3  0  0  0  0  0  0
  183.0740  178.8620  143.6460 C   0  0  0  0  0  0  0  0  0  0  0  0
  187.3590  178.0720  144.8620 N   0  0  0  0  0  0  0  0  0  0  0  0
  189.4550  177.6340  143.8590 C   0  0  0  0  0  3  0  0  0  0  0  0
  191.4150  176.6090  142.8840 O   0  0  0  0  0  0  0  0  0  0  0  0
  191.8980  176.2540  146.6200 C   0  0  0  0  0  1  0  0  0  0  0  0
  191.6330  176.8090  145.3040 N   0  0  0  0  0  2  0  0  0  0  0  0
  191.6810  176.0100  144.1220 C   0  0  0  0  0  0  0  0  0  0  0  0
  191.9590  174.7810  144.1980 O   0  0  0  0  0  0  0  0  0  0  0  0
  181.6960  179.1130  143.6340 O   0  0  0  0  0  0  0  0  0  0  0  0
  180.9780  179.3490  142.4890 C   0  0  0  0  0  0  0  0  0  0  0  0
  180.3720  179.5480  141.5230 N   0  0  0  0  0  0  0  0  0  0  0  0
  1 19  1  1  0  0  0
  1 18  1  0  0  0  0
  2  9  2  0  0  0  0
  3 16  1  0  0  0  0
  4  2  1  0  0  0  0
  4 13  1  0  0  0  0
  5 15  2  0  0  0  0
  6 14  1  0  0  0  0
  6  4  1  0  0  0  0
  7 12  2  0  0  0  0
  8  3  2  0  0  0  0
  8  2  1  0  0  0  0
  9 17  1  0  0  0  0
  9  5  1  0  0  0  0
 10  5  1  0  0  0  0
 11  8  1  0  0  0  0
 13 18  2  0  0  0  0
 13 17  1  0  0  0  0
 14  1  1  0  0  0  0
 15 12  1  0  0  0  0
 16 10  2  0  0  0  0
 17  7  1  0  0  0  0
 19 22  1  0  0  0  0
 21 20  1  0  0  0  0
 22 23  2  0  0  0  0
 22 21  1  0  0  0  0
 24 16  1  0  0  0  0
 25 24  1  0  0  0  0
 26 25  3  0  0  0  0
M  END
>  <MODEL>
6

>  <REMARK>
 VINA RESULT:      -8.3      2.448      7.460
  Name = 
  4 active torsions:
  status: ('A' for Active; 'I' for Inactive)
    1  A    between atoms: C_1  and  O_10
    2  A    between atoms: C_7  and  O_23
    3  A    between atoms: O_10  and  C_21
    4  A    between atoms: C_22  and  O_23
                            x       y       z     vdW  Elec       q    Type
                         _______ _______ _______ _____ _____    ______ ____

>  <TORSDO>
F 4

$$$$
=
 OpenBabel10232407543D

 26 29  0  0  1  0  0  0  0  0999 V2000
  190.6460  177.1730  139.5420 C   0  0  1  0  0  3  0  0  0  0  0  0
  187.3460  178.1050  142.0480 C   0  0  0  0  0  0  0  0  0  0  0  0
  185.0430  178.7080  142.8230 C   0  0  0  0  0  3  0  0  0  0  0  0
  188.2950  177.9450  141.0660 N   0  0  0  0  0  0  0  0  0  0  0  0
  187.3970  177.7880  144.5990 C   0  0  0  0  0  0  0  0  0  0  0  0
  188.1850  178.2850  139.3200 S   0  0  0  0  0  0  0  0  0  0  0  0
  190.0960  177.0300  143.9870 C   0  0  0  0  0  3  0  0  0  0  0  0
  186.0110  178.5190  141.8390 C   0  0  0  0  0  0  0  0  0  0  0  0
  187.9100  177.8070  143.2220 C   0  0  0  0  0  0  0  0  0  0  0  0
  186.1180  178.1380  144.9870 C   0  0  0  0  0  3  0  0  0  0  0  0
  185.4940  178.7940  140.4710 C   0  0  0  0  0  1  0  0  0  0  0  0
  189.6190  177.0060  145.3020 C   0  0  0  0  0  3  0  0  0  0  0  0
  189.4270  177.5240  141.6800 C   0  0  0  0  0  0  0  0  0  0  0  0
  189.3000  176.9230  138.8680 C   0  0  0  0  0  2  0  0  0  0  0  0
  188.2960  177.3820  145.5960 C   0  0  0  0  0  3  0  0  0  0  0  0
  185.0440  178.5590  144.2160 C   0  0  0  0  0  0  0  0  0  0  0  0
  189.2550  177.4310  143.0040 N   0  0  0  0  0  0  0  0  0  0  0  0
  190.5350  177.1340  141.0390 C   0  0  0  0  0  3  0  0  0  0  0  0
  191.6410  176.2610  139.0750 O   0  0  0  0  0  0  0  0  0  0  0  0
  190.9860  173.5700  136.4970 C   0  0  0  0  0  1  0  0  0  0  0  0
  191.0630  174.2960  137.7530 N   0  0  0  0  0  2  0  0  0  0  0  0
  191.5970  175.6170  137.8320 C   0  0  0  0  0  0  0  0  0  0  0  0
  192.0220  176.1930  136.7920 O   0  0  0  0  0  0  0  0  0  0  0  0
  183.8730  178.8470  144.9290 O   0  0  0  0  0  0  0  0  0  0  0  0
  182.6200  178.8170  144.3720 C   0  0  0  0  0  0  0  0  0  0  0  0
  181.5620  178.7910  143.9020 N   0  0  0  0  0  0  0  0  0  0  0  0
  1 19  1  6  0  0  0
  1 18  1  0  0  0  0
  2  9  2  0  0  0  0
  3 16  1  0  0  0  0
  4 13  1  0  0  0  0
  4  2  1  0  0  0  0
  5 10  1  0  0  0  0
  5 15  2  0  0  0  0
  6  4  1  0  0  0  0
  7 12  2  0  0  0  0
  8  2  1  0  0  0  0
  8  3  2  0  0  0  0
  9  5  1  0  0  0  0
 11  8  1  0  0  0  0
 12 15  1  0  0  0  0
 13 17  1  0  0  0  0
 14  6  1  0  0  0  0
 14  1  1  0  0  0  0
 16 24  1  0  0  0  0
 16 10  2  0  0  0  0
 17  9  1  0  0  0  0
 17  7  1  0  0  0  0
 18 13  2  0  0  0  0
 20 21  1  0  0  0  0
 21 22  1  0  0  0  0
 22 19  1  0  0  0  0
 23 22  2  0  0  0  0
 25 24  1  0  0  0  0
 26 25  3  0  0  0  0
M  END
>  <MODEL>
7

>  <REMARK>
 VINA RESULT:      -8.3      3.721      6.679
  Name = 
  4 active torsions:
  status: ('A' for Active; 'I' for Inactive)
    1  A    between atoms: C_1  and  O_10
    2  A    between atoms: C_7  and  O_23
    3  A    between atoms: O_10  and  C_21
    4  A    between atoms: C_22  and  O_23
                            x       y       z     vdW  Elec       q    Type
                         _______ _______ _______ _____ _____    ______ ____

>  <TORSDO>
F 4

$$$$
=
 OpenBabel10232407543D

 26 29  0  0  1  0  0  0  0  0999 V2000
  189.9900  177.5240  138.3990 C   0  0  1  0  0  3  0  0  0  0  0  0
  188.0350  177.7430  142.1630 C   0  0  0  0  0  0  0  0  0  0  0  0
  186.2520  177.9230  143.9110 C   0  0  0  0  0  3  0  0  0  0  0  0
  188.4720  177.8060  140.8610 N   0  0  0  0  0  0  0  0  0  0  0  0
  189.2270  177.2440  144.3860 C   0  0  0  0  0  0  0  0  0  0  0  0
  187.5760  178.2580  139.3880 S   0  0  0  0  0  0  0  0  0  0  0  0
  191.4520  176.9600  142.5970 C   0  0  0  0  0  3  0  0  0  0  0  0
  186.7080  177.9610  142.5940 C   0  0  0  0  0  0  0  0  0  0  0  0
  189.0830  177.4460  142.9380 C   0  0  0  0  0  0  0  0  0  0  0  0
  188.2160  177.3620  145.3200 C   0  0  0  0  0  3  0  0  0  0  0  0
  185.6200  178.2570  141.6230 C   0  0  0  0  0  1  0  0  0  0  0  0
  191.6020  176.7620  143.9730 C   0  0  0  0  0  3  0  0  0  0  0  0
  189.7970  177.5190  140.8770 C   0  0  0  0  0  0  0  0  0  0  0  0
  188.5200  177.1220  138.3280 C   0  0  0  0  0  2  0  0  0  0  0  0
  190.5080  176.9060  144.8460 C   0  0  0  0  0  3  0  0  0  0  0  0
  186.8760  177.6700  145.1390 C   0  0  0  0  0  0  0  0  0  0  0  0
  190.2300  177.3000  142.1240 N   0  0  0  0  0  0  0  0  0  0  0  0
  190.5480  177.3550  139.7830 C   0  0  0  0  0  3  0  0  0  0  0  0
  190.7730  176.8150  137.4370 O   0  0  0  0  0  0  0  0  0  0  0  0
  194.0740  175.0520  137.9930 C   0  0  0  0  0  1  0  0  0  0  0  0
  193.0790  176.0620  137.6760 N   0  0  0  0  0  2  0  0  0  0  0  0
  191.6790  175.7960  137.7570 C   0  0  0  0  0  0  0  0  0  0  0  0
  191.2690  174.6570  138.1130 O   0  0  0  0  0  0  0  0  0  0  0  0
  186.1100  177.7180  146.3110 O   0  0  0  0  0  0  0  0  0  0  0  0
  185.9480  178.8540  147.0640 C   0  0  0  0  0  0  0  0  0  0  0  0
  185.8110  179.8110  147.7000 N   0  0  0  0  0  0  0  0  0  0  0  0
  1 19  1  6  0  0  0
  1 18  1  0  0  0  0
  2  8  1  0  0  0  0
  2  9  2  0  0  0  0
  3 16  1  0  0  0  0
  4 13  1  0  0  0  0
  4  2  1  0  0  0  0
  5 15  2  0  0  0  0
  5 10  1  0  0  0  0
  6  4  1  0  0  0  0
  7 12  2  0  0  0  0
  8  3  2  0  0  0  0
  9  5  1  0  0  0  0
 11  8  1  0  0  0  0
 12 15  1  0  0  0  0
 13 17  1  0  0  0  0
 14  1  1  0  0  0  0
 14  6  1  0  0  0  0
 16 10  2  0  0  0  0
 16 24  1  0  0  0  0
 17  7  1  0  0  0  0
 17  9  1  0  0  0  0
 18 13  2  0  0  0  0
 19 22  1  0  0  0  0
 21 22  1  0  0  0  0
 21 20  1  0  0  0  0
 22 23  2  0  0  0  0
 24 25  1  0  0  0  0
 25 26  3  0  0  0  0
M  END
>  <MODEL>
8

>  <REMARK>
 VINA RESULT:      -8.2      3.644      6.129
  Name = 
  4 active torsions:
  status: ('A' for Active; 'I' for Inactive)
    1  A    between atoms: C_1  and  O_10
    2  A    between atoms: C_7  and  O_23
    3  A    between atoms: O_10  and  C_21
    4  A    between atoms: C_22  and  O_23
                            x       y       z     vdW  Elec       q    Type
                         _______ _______ _______ _____ _____    ______ ____

>  <TORSDO>
F 4

$$$$
=
 OpenBabel10232407543D

 26 29  0  0  1  0  0  0  0  0999 V2000
  184.4050  179.0690  141.1160 C   0  0  1  0  0  3  0  0  0  0  0  0
  187.8940  177.7760  143.1650 C   0  0  0  0  0  0  0  0  0  0  0  0
  189.4290  176.9490  144.9610 C   0  0  0  0  0  3  0  0  0  0  0  0
  186.6870  178.2690  142.7290 N   0  0  0  0  0  0  0  0  0  0  0  0
  190.1000  177.2350  141.9590 C   0  0  0  0  0  0  0  0  0  0  0  0
  185.2360  178.7010  143.6700 S   0  0  0  0  0  0  0  0  0  0  0  0
  188.5540  178.1250  139.7120 C   0  0  0  0  0  3  0  0  0  0  0  0
  188.2050  177.4290  144.4980 C   0  0  0  0  0  0  0  0  0  0  0  0
  188.7110  177.6900  142.1100 C   0  0  0  0  0  0  0  0  0  0  0  0
  190.9190  176.7940  142.9810 C   0  0  0  0  0  3  0  0  0  0  0  0
  187.1920  177.5430  145.5820 C   0  0  0  0  0  1  0  0  0  0  0  0
  189.8750  177.6930  139.5550 C   0  0  0  0  0  3  0  0  0  0  0  0
  186.7980  178.4530  141.3910 C   0  0  0  0  0  0  0  0  0  0  0  0
  184.0910  178.2170  142.3430 C   0  0  0  0  0  2  0  0  0  0  0  0
  190.6290  177.2600  140.6610 C   0  0  0  0  0  3  0  0  0  0  0  0
  190.6490  176.6610  144.3350 C   0  0  0  0  0  0  0  0  0  0  0  0
  188.0200  178.1250  140.9560 N   0  0  0  0  0  0  0  0  0  0  0  0
  185.7850  178.7990  140.5880 C   0  0  0  0  0  3  0  0  0  0  0  0
  183.4200  178.8980  140.0960 O   0  0  0  0  0  0  0  0  0  0  0  0
  183.0100  175.4970  138.4890 C   0  0  0  0  0  1  0  0  0  0  0  0
  182.9960  176.5860  139.4510 N   0  0  0  0  0  2  0  0  0  0  0  0
  183.4630  177.8940  139.1210 C   0  0  0  0  0  0  0  0  0  0  0  0
  183.9060  178.1350  137.9640 O   0  0  0  0  0  0  0  0  0  0  0  0
  191.7130  176.1860  145.1120 O   0  0  0  0  0  0  0  0  0  0  0  0
  191.8270  176.4120  146.4610 C   0  0  0  0  0  0  0  0  0  0  0  0
  191.9230  176.6020  147.5990 N   0  0  0  0  0  0  0  0  0  0  0  0
  1 19  1  6  0  0  0
  1 14  1  0  0  0  0
  2  8  1  0  0  0  0
  4  2  1  0  0  0  0
  4  6  1  0  0  0  0
  5  9  1  0  0  0  0
  5 10  1  0  0  0  0
  7 17  1  0  0  0  0
  8  3  2  0  0  0  0
  8 11  1  0  0  0  0
  9  2  2  0  0  0  0
 10 16  2  0  0  0  0
 12  7  2  0  0  0  0
 12 15  1  0  0  0  0
 13  4  1  0  0  0  0
 14  6  1  0  0  0  0
 15  5  2  0  0  0  0
 16  3  1  0  0  0  0
 16 24  1  0  0  0  0
 17 13  1  0  0  0  0
 17  9  1  0  0  0  0
 18  1  1  0  0  0  0
 18 13  2  0  0  0  0
 20 21  1  0  0  0  0
 22 21  1  0  0  0  0
 22 19  1  0  0  0  0
 23 22  2  0  0  0  0
 24 25  1  0  0  0  0
 25 26  3  0  0  0  0
M  END
>  <MODEL>
9

>  <REMARK>
 VINA RESULT:      -8.2      1.998      4.075
  Name = 
  4 active torsions:
  status: ('A' for Active; 'I' for Inactive)
    1  A    between atoms: C_1  and  O_10
    2  A    between atoms: C_7  and  O_23
    3  A    between atoms: O_10  and  C_21
    4  A    between atoms: C_22  and  O_23
                            x       y       z     vdW  Elec       q    Type
                         _______ _______ _______ _____ _____    ______ ____

>  <TORSDO>
F 4

$$$$
