=
 OpenBabel10232410513D

 49 54  0  0  1  0  0  0  0  0999 V2000
  185.2030  178.1220  137.4890 N   0  0  0  0  0  0  0  0  0  0  0  0
  187.0890  175.6590  135.5460 F   0  0  0  0  0  0  0  0  0  0  0  0
  186.7440  176.5620  136.4980 C   0  0  0  0  0  0  0  0  0  0  0  0
  185.5720  177.2100  136.4380 C   0  0  0  0  0  0  0  0  0  0  0  0
  188.1660  179.1760  141.8410 O   0  0  0  0  0  0  0  0  0  0  0  0
  185.8730  178.2270  138.5960 C   0  0  0  0  0  0  0  0  0  0  0  0
  185.4160  179.1210  139.6090 N   0  0  0  0  0  2  0  0  0  0  0  0
  187.7350  176.9090  137.5690 C   0  0  0  0  0  2  0  0  0  0  0  0
  185.9930  179.1270  140.9510 C   0  0  2  0  0  3  0  0  0  0  0  0
  188.0670  177.9390  139.8260 C   0  0  2  0  0  3  0  0  0  0  0  0
  187.4540  178.7620  140.9410 C   0  0  0  0  0  0  0  0  0  0  0  0
  187.0400  177.3100  138.8740 C   0  0  1  0  0  3  0  0  0  0  0  0
  183.3290  177.3080  135.6740 C   0  0  0  0  0  2  0  0  0  0  0  0
  184.4210  173.2220  135.8640 S   0  0  0  0  0  0  0  0  0  0  0  0
  180.9630  172.1180  137.0480 F   0  0  0  0  0  0  0  0  0  0  0  0
  183.2770  172.0940  136.3640 C   0  0  0  0  0  0  0  0  0  0  0  0
  184.6090  176.9300  135.3210 C   0  0  2  0  0  3  0  0  0  0  0  0
  183.3280  174.4940  135.9860 C   0  0  0  0  0  0  0  0  0  0  0  0
  182.0790  172.7510  136.6140 C   0  0  0  0  0  0  0  0  0  0  0  0
  183.5250  170.6370  136.5320 C   0  0  0  0  0  1  0  0  0  0  0  0
  182.1090  174.0940  136.4060 N   0  0  0  0  0  0  0  0  0  0  0  0
  183.6540  175.8540  135.7220 N   0  0  0  0  0  0  0  0  0  0  0  0
  185.1710  178.3010  141.9490 C   0  0  2  0  0  3  0  0  0  0  0  0
  182.7200  178.7030  141.7410 C   0  0  0  0  0  1  0  0  0  0  0  0
  183.8640  177.7860  141.3590 C   0  0  0  0  0  2  0  0  0  0  0  0
  184.8880  179.1380  143.1880 C   0  0  0  0  0  2  0  0  0  0  0  0
  184.7700  178.2660  144.4280 C   0  0  0  0  0  2  0  0  0  0  0  0
  185.4700  178.9130  145.6120 C   0  0  0  0  0  2  0  0  0  0  0  0
  186.2210  177.9080  146.3530 N   0  0  0  0  0  2  0  0  0  0  0  0
  191.7540  177.8450  144.6190 C   0  0  0  0  0  3  0  0  0  0  0  0
  189.6100  177.3570  144.8670 C   0  0  1  0  0  3  0  0  0  0  0  0
  191.7210  177.2120  145.7490 N   0  0  0  0  0  0  0  0  0  0  0  0
  190.4210  177.9810  144.0360 C   0  0  0  0  0  2  0  0  0  0  0  0
  188.5110  177.6610  147.4010 C   0  0  0  0  0  0  0  0  0  0  0  0
  190.3590  176.7770  146.0100 C   0  0  1  0  0  3  0  0  0  0  0  0
  189.8070  177.3120  147.3050 C   0  0  0  0  0  3  0  0  0  0  0  0
  188.1680  177.5870  144.9620 C   0  0  0  0  0  3  0  0  0  0  0  0
  187.9890  178.1100  148.7210 C   0  0  0  0  0  1  0  0  0  0  0  0
  187.6270  177.6830  146.1920 C   0  0  0  0  0  0  0  0  0  0  0  0
  188.9040  176.8860  140.3850 N   0  0  0  0  0  2  0  0  0  0  0  0
  190.2340  177.1980  140.0680 N   0  0  0  0  0  2  0  0  0  0  0  0
  190.7400  176.1280  139.3180 N   0  0  0  0  0  2  0  0  0  0  0  0
  191.4290  176.6990  138.1750 C   0  0  0  0  0  2  0  0  0  0  0  0
  192.0330  175.5860  137.3390 C   0  0  0  0  0  2  0  0  0  0  0  0
  193.5080  175.4060  137.6570 C   0  0  0  0  0  2  0  0  0  0  0  0
  193.9900  173.5720  136.2060 O   0  0  0  0  0  1  0  0  0  0  0  0
  193.9250  173.9460  137.5490 C   0  0  1  0  0  3  0  0  0  0  0  0
  195.2870  173.7660  138.1900 C   0  0  0  0  0  2  0  0  0  0  0  0
  195.2490  172.7060  139.0980 O   0  0  0  0  0  1  0  0  0  0  0  0
  1  6  2  0  0  0  0
  2  3  1  0  0  0  0
  3  8  1  0  0  0  0
  4  3  2  0  0  0  0
  4  1  1  0  0  0  0
  6 12  1  0  0  0  0
  6  7  1  0  0  0  0
  7  9  1  0  0  0  0
  9 23  1  1  0  0  0
 10 40  1  1  0  0  0
 10 11  1  0  0  0  0
 11  9  1  0  0  0  0
 11  5  2  0  0  0  0
 12  8  1  6  0  0  0
 12 10  1  0  0  0  0
 13 22  1  0  0  0  0
 14 18  1  0  0  0  0
 14 16  1  0  0  0  0
 16 20  1  0  0  0  0
 16 19  2  0  0  0  0
 17 13  1  0  0  0  0
 17 22  1  0  0  0  0
 17  4  1  1  0  0  0
 18 21  2  0  0  0  0
 19 15  1  0  0  0  0
 21 19  1  0  0  0  0
 22 18  1  0  0  0  0
 23 25  1  6  0  0  0
 23 26  1  0  0  0  0
 25 24  1  0  0  0  0
 26 27  1  0  0  0  0
 27 28  1  0  0  0  0
 28 29  1  0  0  0  0
 30 32  2  0  0  0  0
 31 33  1  1  0  0  0
 31 37  1  0  0  0  0
 31 35  1  0  0  0  0
 32 35  1  0  0  0  0
 33 30  1  0  0  0  0
 34 38  1  0  0  0  0
 35 36  1  1  0  0  0
 36 34  2  0  0  0  0
 37 39  2  0  0  0  0
 39 29  1  0  0  0  0
 39 34  1  0  0  0  0
 41 40  1  0  0  0  0
 42 41  1  0  0  0  0
 43 42  1  0  0  0  0
 44 45  1  0  0  0  0
 44 43  1  0  0  0  0
 47 46  1  6  0  0  0
 47 45  1  0  0  0  0
 47 48  1  0  0  0  0
 48 49  1  0  0  0  0
M  END
>  <MODEL>
1

>  <REMARK>
 VINA RESULT:      -8.0      0.000      0.000
  Name = 
  16 active torsions:
  status: ('A' for Active; 'I' for Inactive)
    1  A    between atoms: N_2  and  N_38
    2  A    between atoms: N_2  and  C_42
    3  A    between atoms: C_6  and  C_19
    4  A    between atoms: C_9  and  C_22
    5  A    between atoms: C_9  and  C_39
    6  A    between atoms: C_11  and  N_30
    7  A    between atoms: C_11  and  C_43
    8  A    between atoms: C_14  and  C_31
    9  A    between atoms: C_19  and  C_26
   10  A    between atoms: C_22  and  C_47
   11  A    between atoms: N_24  and  C_39
   12  A    between atoms: N_24  and  C_48
   13  A    between atoms: C_26  and  C_43
   14  A    between atoms: N_30  and  N_38
   15  A    between atoms: C_32  and  C_47
   16  A    between atoms: C_45  and  C_47
                            x       y       z     vdW  Elec       q    Type
                         _______ _______ _______ _____ _____    ______ ____

>  <TORSDO>
F 16

$$$$
=
 OpenBabel10232410513D

 49 54  0  0  1  0  0  0  0  0999 V2000
  186.2710  176.5740  136.6090 N   0  0  0  0  0  0  0  0  0  0  0  0
  185.5670  173.0520  135.8990 F   0  0  0  0  0  0  0  0  0  0  0  0
  186.2230  174.2080  136.1710 C   0  0  0  0  0  0  0  0  0  0  0  0
  185.5610  175.3690  136.2640 C   0  0  0  0  0  0  0  0  0  0  0  0
  191.5280  176.8600  137.6670 O   0  0  0  0  0  0  0  0  0  0  0  0
  187.5060  176.5700  137.0100 C   0  0  0  0  0  0  0  0  0  0  0  0
  188.1240  177.8020  137.3790 N   0  0  0  0  0  2  0  0  0  0  0  0
  187.7200  174.1910  136.2660 C   0  0  0  0  0  2  0  0  0  0  0  0
  189.4270  177.8440  138.0390 C   0  0  2  0  0  3  0  0  0  0  0  0
  189.7570  175.4120  137.0590 C   0  0  2  0  0  3  0  0  0  0  0  0
  190.3180  176.7090  137.6060 C   0  0  0  0  0  0  0  0  0  0  0  0
  188.2380  175.2680  137.2260 C   0  0  1  0  0  3  0  0  0  0  0  0
  183.7050  176.4470  135.2560 C   0  0  0  0  0  2  0  0  0  0  0  0
  183.2970  176.8880  139.4470 S   0  0  0  0  0  0  0  0  0  0  0  0
  181.8660  180.4170  139.1660 F   0  0  0  0  0  0  0  0  0  0  0  0
  182.6850  178.3300  140.0590 C   0  0  0  0  0  0  0  0  0  0  0  0
  184.0700  175.4070  136.0860 C   0  0  2  0  0  3  0  0  0  0  0  0
  183.1240  177.4050  137.8560 C   0  0  0  0  0  0  0  0  0  0  0  0
  182.3690  179.1700  138.9990 C   0  0  0  0  0  0  0  0  0  0  0  0
  182.5340  178.6530  141.5030 C   0  0  0  0  0  1  0  0  0  0  0  0
  182.6190  178.6540  137.7670 N   0  0  0  0  0  0  0  0  0  0  0  0
  183.5070  176.6370  136.7210 N   0  0  0  0  0  0  0  0  0  0  0  0
  189.3110  177.9720  139.5630 C   0  0  2  0  0  3  0  0  0  0  0  0
  191.0330  177.1850  141.1840 C   0  0  0  0  0  1  0  0  0  0  0  0
  189.8730  176.7650  140.3050 C   0  0  0  0  0  2  0  0  0  0  0  0
  187.8530  178.1840  139.9450 C   0  0  0  0  0  2  0  0  0  0  0  0
  187.7260  178.7190  141.3620 C   0  0  0  0  0  2  0  0  0  0  0  0
  186.2660  178.9370  141.7290 C   0  0  0  0  0  2  0  0  0  0  0  0
  185.8490  177.9450  142.7100 N   0  0  0  0  0  2  0  0  0  0  0  0
  188.9010  178.1110  147.6390 C   0  0  0  0  0  3  0  0  0  0  0  0
  187.8870  177.4080  145.8020 C   0  0  1  0  0  3  0  0  0  0  0  0
  187.6530  178.0640  147.9860 N   0  0  0  0  0  0  0  0  0  0  0  0
  189.0890  177.7240  146.2420 C   0  0  0  0  0  2  0  0  0  0  0  0
  185.4810  178.6200  145.1220 C   0  0  0  0  0  0  0  0  0  0  0  0
  186.8700  177.5540  146.8730 C   0  0  1  0  0  3  0  0  0  0  0  0
  185.7930  178.5070  146.4250 C   0  0  0  0  0  3  0  0  0  0  0  0
  187.4880  177.3900  144.3940 C   0  0  0  0  0  3  0  0  0  0  0  0
  184.3560  179.5150  144.7320 C   0  0  0  0  0  1  0  0  0  0  0  0
  186.2970  177.9310  144.0720 C   0  0  0  0  0  0  0  0  0  0  0  0
  190.4150  174.2770  137.6910 N   0  0  0  0  0  2  0  0  0  0  0  0
  191.0390  173.5390  136.6750 N   0  0  0  0  0  2  0  0  0  0  0  0
  192.4200  173.7400  136.8100 N   0  0  0  0  0  2  0  0  0  0  0  0
  192.9010  174.2500  135.5400 C   0  0  0  0  0  2  0  0  0  0  0  0
  194.3140  174.7770  135.7070 C   0  0  0  0  0  2  0  0  0  0  0  0
  194.6230  175.0520  137.1690 C   0  0  0  0  0  2  0  0  0  0  0  0
  197.0070  175.1840  137.1910 O   0  0  0  0  0  1  0  0  0  0  0  0
  195.9280  174.3960  137.5950 C   0  0  1  0  0  3  0  0  0  0  0  0
  195.9460  174.2490  139.1040 C   0  0  0  0  0  2  0  0  0  0  0  0
  195.4340  175.4020  139.7000 O   0  0  0  0  0  1  0  0  0  0  0  0
  1  6  2  0  0  0  0
  2  3  1  0  0  0  0
  3  4  2  0  0  0  0
  3  8  1  0  0  0  0
  4  1  1  0  0  0  0
  6 12  1  0  0  0  0
  6  7  1  0  0  0  0
  7  9  1  0  0  0  0
  9 23  1  1  0  0  0
 10 12  1  0  0  0  0
 10 11  1  0  0  0  0
 10 40  1  1  0  0  0
 11  5  2  0  0  0  0
 11  9  1  0  0  0  0
 12  8  1  6  0  0  0
 13 17  1  0  0  0  0
 13 22  1  0  0  0  0
 14 16  1  0  0  0  0
 16 20  1  0  0  0  0
 17  4  1  1  0  0  0
 17 22  1  0  0  0  0
 18 14  1  0  0  0  0
 19 15  1  0  0  0  0
 19 16  2  0  0  0  0
 21 18  2  0  0  0  0
 21 19  1  0  0  0  0
 22 18  1  0  0  0  0
 23 26  1  6  0  0  0
 23 25  1  0  0  0  0
 25 24  1  0  0  0  0
 26 27  1  0  0  0  0
 27 28  1  0  0  0  0
 28 29  1  0  0  0  0
 29 39  1  0  0  0  0
 30 32  2  0  0  0  0
 31 37  1  6  0  0  0
 31 33  1  0  0  0  0
 31 35  1  0  0  0  0
 33 30  1  0  0  0  0
 34 36  2  0  0  0  0
 35 36  1  6  0  0  0
 35 32  1  0  0  0  0
 38 34  1  0  0  0  0
 39 37  2  0  0  0  0
 39 34  1  0  0  0  0
 41 42  1  0  0  0  0
 41 40  1  0  0  0  0
 43 44  1  0  0  0  0
 43 42  1  0  0  0  0
 44 45  1  0  0  0  0
 45 47  1  0  0  0  0
 47 46  1  1  0  0  0
 47 48  1  0  0  0  0
 48 49  1  0  0  0  0
M  END
>  <MODEL>
2

>  <REMARK>
 VINA RESULT:      -7.7      2.483      4.369
  Name = 
  16 active torsions:
  status: ('A' for Active; 'I' for Inactive)
    1  A    between atoms: N_2  and  N_38
    2  A    between atoms: N_2  and  C_42
    3  A    between atoms: C_6  and  C_19
    4  A    between atoms: C_9  and  C_22
    5  A    between atoms: C_9  and  C_39
    6  A    between atoms: C_11  and  N_30
    7  A    between atoms: C_11  and  C_43
    8  A    between atoms: C_14  and  C_31
    9  A    between atoms: C_19  and  C_26
   10  A    between atoms: C_22  and  C_47
   11  A    between atoms: N_24  and  C_39
   12  A    between atoms: N_24  and  C_48
   13  A    between atoms: C_26  and  C_43
   14  A    between atoms: N_30  and  N_38
   15  A    between atoms: C_32  and  C_47
   16  A    between atoms: C_45  and  C_47
                            x       y       z     vdW  Elec       q    Type
                         _______ _______ _______ _____ _____    ______ ____

>  <TORSDO>
F 16

$$$$
=
 OpenBabel10232410513D

 49 54  0  0  1  0  0  0  0  0999 V2000
  185.0870  177.3230  137.6570 N   0  0  0  0  0  0  0  0  0  0  0  0
  184.6690  174.6240  135.2200 F   0  0  0  0  0  0  0  0  0  0  0  0
  185.2260  175.5860  135.9970 C   0  0  0  0  0  0  0  0  0  0  0  0
  184.4680  176.3460  136.8000 C   0  0  0  0  0  0  0  0  0  0  0  0
  190.3720  178.2090  138.0090 O   0  0  0  0  0  0  0  0  0  0  0  0
  186.3730  177.3940  137.8260 C   0  0  0  0  0  0  0  0  0  0  0  0
  186.9070  178.3610  138.7290 N   0  0  0  0  0  2  0  0  0  0  0  0
  186.6950  175.8640  135.8730 C   0  0  0  0  0  2  0  0  0  0  0  0
  188.3120  178.3510  139.1290 C   0  0  2  0  0  3  0  0  0  0  0  0
  188.6970  176.9250  136.9380 C   0  0  2  0  0  3  0  0  0  0  0  0
  189.2090  177.8400  138.0320 C   0  0  0  0  0  0  0  0  0  0  0  0
  187.2870  176.3740  137.1920 C   0  0  1  0  0  3  0  0  0  0  0  0
  182.3170  177.1030  136.1470 C   0  0  0  0  0  2  0  0  0  0  0  0
  182.5410  177.4150  140.3640 S   0  0  0  0  0  0  0  0  0  0  0  0
  180.5150  180.6500  140.4600 F   0  0  0  0  0  0  0  0  0  0  0  0
  181.8070  178.7230  141.1250 C   0  0  0  0  0  0  0  0  0  0  0  0
  182.9840  176.1300  136.8660 C   0  0  2  0  0  3  0  0  0  0  0  0
  182.0230  177.9150  138.8440 C   0  0  0  0  0  0  0  0  0  0  0  0
  181.1850  179.5100  140.1640 C   0  0  0  0  0  0  0  0  0  0  0  0
  181.8450  178.9980  142.5860 C   0  0  0  0  0  1  0  0  0  0  0  0
  181.3090  179.0590  138.8880 N   0  0  0  0  0  0  0  0  0  0  0  0
  182.3360  177.2380  137.6320 N   0  0  0  0  0  0  0  0  0  0  0  0
  188.5380  177.6430  140.4710 C   0  0  2  0  0  3  0  0  0  0  0  0
  186.8710  178.0530  142.2790 C   0  0  0  0  0  1  0  0  0  0  0  0
  188.1790  178.5150  141.6690 C   0  0  0  0  0  2  0  0  0  0  0  0
  189.9890  177.1960  140.5710 C   0  0  0  0  0  2  0  0  0  0  0  0
  190.2540  176.4730  141.8820 C   0  0  0  0  0  2  0  0  0  0  0  0
  191.3990  177.1290  142.6390 C   0  0  0  0  0  2  0  0  0  0  0  0
  191.5170  176.5400  143.9660 N   0  0  0  0  0  2  0  0  0  0  0  0
  187.1720  177.6820  147.6330 C   0  0  0  0  0  3  0  0  0  0  0  0
  188.7220  177.8740  146.0650 C   0  0  1  0  0  3  0  0  0  0  0  0
  188.2670  177.8260  148.3110 N   0  0  0  0  0  0  0  0  0  0  0  0
  187.4240  177.6810  146.1930 C   0  0  0  0  0  2  0  0  0  0  0  0
  191.1230  176.5350  146.4660 C   0  0  0  0  0  0  0  0  0  0  0  0
  189.3730  178.0240  147.3900 C   0  0  1  0  0  3  0  0  0  0  0  0
  190.4590  176.9910  147.5430 C   0  0  0  0  0  3  0  0  0  0  0  0
  189.5090  177.5170  144.8840 C   0  0  0  0  0  3  0  0  0  0  0  0
  192.2420  175.5740  146.6710 C   0  0  0  0  0  1  0  0  0  0  0  0
  190.6980  176.9150  145.0810 C   0  0  0  0  0  0  0  0  0  0  0  0
  189.6160  175.8110  136.7480 N   0  0  0  0  0  2  0  0  0  0  0  0
  189.3270  174.8600  137.7380 N   0  0  0  0  0  2  0  0  0  0  0  0
  190.1810  173.7700  137.5220 N   0  0  0  0  0  2  0  0  0  0  0  0
  190.8570  174.0040  136.2590 C   0  0  0  0  0  2  0  0  0  0  0  0
  192.2870  173.5070  136.3500 C   0  0  0  0  0  2  0  0  0  0  0  0
  193.2700  174.6650  136.3050 C   0  0  0  0  0  2  0  0  0  0  0  0
  195.0840  175.1210  137.7900 O   0  0  0  0  0  1  0  0  0  0  0  0
  193.6910  175.0910  137.7050 C   0  0  1  0  0  3  0  0  0  0  0  0
  193.1360  176.4720  137.9950 C   0  0  0  0  0  2  0  0  0  0  0  0
  193.6120  176.9260  139.2260 O   0  0  0  0  0  1  0  0  0  0  0  0
  1  6  2  0  0  0  0
  2  3  1  0  0  0  0
  3  4  2  0  0  0  0
  4  1  1  0  0  0  0
  5 11  2  0  0  0  0
  6  7  1  0  0  0  0
  7  9  1  0  0  0  0
  8  3  1  0  0  0  0
  9 23  1  1  0  0  0
 10 40  1  1  0  0  0
 10 12  1  0  0  0  0
 10 11  1  0  0  0  0
 11  9  1  0  0  0  0
 12  8  1  6  0  0  0
 12  6  1  0  0  0  0
 13 17  1  0  0  0  0
 13 22  1  0  0  0  0
 14 16  1  0  0  0  0
 16 20  1  0  0  0  0
 17  4  1  6  0  0  0
 17 22  1  0  0  0  0
 18 21  2  0  0  0  0
 18 14  1  0  0  0  0
 19 15  1  0  0  0  0
 19 16  2  0  0  0  0
 21 19  1  0  0  0  0
 22 18  1  0  0  0  0
 23 26  1  1  0  0  0
 23 25  1  0  0  0  0
 25 24  1  0  0  0  0
 26 27  1  0  0  0  0
 27 28  1  0  0  0  0
 28 29  1  0  0  0  0
 29 39  1  0  0  0  0
 30 32  2  0  0  0  0
 31 37  1  1  0  0  0
 31 33  1  0  0  0  0
 31 35  1  0  0  0  0
 33 30  1  0  0  0  0
 34 38  1  0  0  0  0
 34 36  2  0  0  0  0
 35 36  1  1  0  0  0
 35 32  1  0  0  0  0
 37 39  2  0  0  0  0
 39 34  1  0  0  0  0
 40 41  1  0  0  0  0
 42 41  1  0  0  0  0
 43 44  1  0  0  0  0
 43 42  1  0  0  0  0
 45 44  1  0  0  0  0
 45 47  1  0  0  0  0
 47 46  1  6  0  0  0
 47 48  1  0  0  0  0
 48 49  1  0  0  0  0
M  END
>  <MODEL>
3

>  <REMARK>
 VINA RESULT:      -7.6      2.571      4.370
  Name = 
  16 active torsions:
  status: ('A' for Active; 'I' for Inactive)
    1  A    between atoms: N_2  and  N_38
    2  A    between atoms: N_2  and  C_42
    3  A    between atoms: C_6  and  C_19
    4  A    between atoms: C_9  and  C_22
    5  A    between atoms: C_9  and  C_39
    6  A    between atoms: C_11  and  N_30
    7  A    between atoms: C_11  and  C_43
    8  A    between atoms: C_14  and  C_31
    9  A    between atoms: C_19  and  C_26
   10  A    between atoms: C_22  and  C_47
   11  A    between atoms: N_24  and  C_39
   12  A    between atoms: N_24  and  C_48
   13  A    between atoms: C_26  and  C_43
   14  A    between atoms: N_30  and  N_38
   15  A    between atoms: C_32  and  C_47
   16  A    between atoms: C_45  and  C_47
                            x       y       z     vdW  Elec       q    Type
                         _______ _______ _______ _____ _____    ______ ____

>  <TORSDO>
F 16

$$$$
=
 OpenBabel10232410513D

 49 54  0  0  1  0  0  0  0  0999 V2000
  185.7650  177.2760  136.8130 N   0  0  0  0  0  0  0  0  0  0  0  0
  185.1820  173.8540  135.6540 F   0  0  0  0  0  0  0  0  0  0  0  0
  185.7940  174.9750  136.1120 C   0  0  0  0  0  0  0  0  0  0  0  0
  185.1080  176.1150  136.2720 C   0  0  0  0  0  0  0  0  0  0  0  0
  190.8980  177.4680  138.3780 O   0  0  0  0  0  0  0  0  0  0  0  0
  186.9580  177.2340  137.3240 C   0  0  0  0  0  0  0  0  0  0  0  0
  187.5210  178.4190  137.8830 N   0  0  0  0  0  2  0  0  0  0  0  0
  187.2760  174.9550  136.3430 C   0  0  0  0  0  2  0  0  0  0  0  0
  188.7570  178.3940  138.6610 C   0  0  2  0  0  3  0  0  0  0  0  0
  189.2120  176.0890  137.4520 C   0  0  2  0  0  3  0  0  0  0  0  0
  189.7020  177.3190  138.1900 C   0  0  0  0  0  0  0  0  0  0  0  0
  187.6870  175.9190  137.4610 C   0  0  1  0  0  3  0  0  0  0  0  0
  183.3310  177.3040  135.2450 C   0  0  0  0  0  2  0  0  0  0  0  0
  182.5330  177.1800  139.4010 S   0  0  0  0  0  0  0  0  0  0  0  0
  181.0640  180.7050  139.4550 F   0  0  0  0  0  0  0  0  0  0  0  0
  181.8380  178.5230  140.1390 C   0  0  0  0  0  0  0  0  0  0  0  0
  183.6400  176.1650  135.9620 C   0  0  2  0  0  3  0  0  0  0  0  0
  182.4960  177.9030  137.8830 C   0  0  0  0  0  0  0  0  0  0  0  0
  181.6050  179.4950  139.1730 C   0  0  0  0  0  0  0  0  0  0  0  0
  181.5490  178.6510  141.5920 C   0  0  0  0  0  1  0  0  0  0  0  0
  181.9760  179.1490  137.9120 N   0  0  0  0  0  0  0  0  0  0  0  0
  182.9970  177.2950  136.6980 N   0  0  0  0  0  0  0  0  0  0  0  0
  188.5000  178.3500  140.1730 C   0  0  2  0  0  3  0  0  0  0  0  0
  190.2530  177.6660  141.8080 C   0  0  0  0  0  1  0  0  0  0  0  0
  189.1820  177.1710  140.8570 C   0  0  0  0  0  2  0  0  0  0  0  0
  187.0010  178.3040  140.4320 C   0  0  0  0  0  2  0  0  0  0  0  0
  186.6520  178.9380  141.7690 C   0  0  0  0  0  2  0  0  0  0  0  0
  186.0300  177.9150  142.7060 C   0  0  0  0  0  2  0  0  0  0  0  0
  186.1110  178.3890  144.0810 N   0  0  0  0  0  2  0  0  0  0  0  0
  191.0040  177.1670  146.9420 C   0  0  0  0  0  3  0  0  0  0  0  0
  189.2540  177.0370  145.5950 C   0  0  1  0  0  3  0  0  0  0  0  0
  190.0310  176.8710  147.7450 N   0  0  0  0  0  0  0  0  0  0  0  0
  190.5440  177.3070  145.5620 C   0  0  0  0  0  2  0  0  0  0  0  0
  186.8680  178.1480  146.4840 C   0  0  0  0  0  0  0  0  0  0  0  0
  188.8140  176.6970  146.9710 C   0  0  1  0  0  3  0  0  0  0  0  0
  187.7070  177.6260  147.3960 C   0  0  0  0  0  3  0  0  0  0  0  0
  188.2830  177.4640  144.5870 C   0  0  0  0  0  3  0  0  0  0  0  0
  185.7390  178.9980  146.9560 C   0  0  0  0  0  1  0  0  0  0  0  0
  187.1040  177.9540  145.0180 C   0  0  0  0  0  0  0  0  0  0  0  0
  189.8270  174.8930  138.0120 N   0  0  0  0  0  2  0  0  0  0  0  0
  190.6060  174.3130  137.0010 N   0  0  0  0  0  2  0  0  0  0  0  0
  191.8900  174.1200  137.5300 N   0  0  0  0  0  2  0  0  0  0  0  0
  192.8260  174.7380  136.6080 C   0  0  0  0  0  2  0  0  0  0  0  0
  193.9220  175.4360  137.3900 C   0  0  0  0  0  2  0  0  0  0  0  0
  195.1740  174.5780  137.4580 C   0  0  0  0  0  2  0  0  0  0  0  0
  195.5420  172.5620  138.6850 O   0  0  0  0  0  1  0  0  0  0  0  0
  195.3350  173.9350  138.8280 C   0  0  1  0  0  3  0  0  0  0  0  0
  196.5240  174.5550  139.5350 C   0  0  0  0  0  2  0  0  0  0  0  0
  197.6670  174.4280  138.7450 O   0  0  0  0  0  1  0  0  0  0  0  0
  1  6  2  0  0  0  0
  2  3  1  0  0  0  0
  3  4  2  0  0  0  0
  3  8  1  0  0  0  0
  4  1  1  0  0  0  0
  6 12  1  0  0  0  0
  6  7  1  0  0  0  0
  7  9  1  0  0  0  0
  9 23  1  1  0  0  0
 10 12  1  0  0  0  0
 10 40  1  1  0  0  0
 10 11  1  0  0  0  0
 11  5  2  0  0  0  0
 11  9  1  0  0  0  0
 12  8  1  6  0  0  0
 13 17  1  0  0  0  0
 13 22  1  0  0  0  0
 14 16  1  0  0  0  0
 16 20  1  0  0  0  0
 17  4  1  1  0  0  0
 17 22  1  0  0  0  0
 18 21  2  0  0  0  0
 18 14  1  0  0  0  0
 19 15  1  0  0  0  0
 19 16  2  0  0  0  0
 21 19  1  0  0  0  0
 22 18  1  0  0  0  0
 23 26  1  6  0  0  0
 23 25  1  0  0  0  0
 25 24  1  0  0  0  0
 26 27  1  0  0  0  0
 27 28  1  0  0  0  0
 28 29  1  0  0  0  0
 29 39  1  0  0  0  0
 30 32  2  0  0  0  0
 31 37  1  1  0  0  0
 31 35  1  0  0  0  0
 33 31  1  0  0  0  0
 33 30  1  0  0  0  0
 34 38  1  0  0  0  0
 34 36  2  0  0  0  0
 35 36  1  1  0  0  0
 35 32  1  0  0  0  0
 37 39  2  0  0  0  0
 39 34  1  0  0  0  0
 41 42  1  0  0  0  0
 41 40  1  0  0  0  0
 43 44  1  0  0  0  0
 43 42  1  0  0  0  0
 44 45  1  0  0  0  0
 45 47  1  0  0  0  0
 47 46  1  6  0  0  0
 47 48  1  0  0  0  0
 49 48  1  0  0  0  0
M  END
>  <MODEL>
4

>  <REMARK>
 VINA RESULT:      -7.4      2.348      3.827
  Name = 
  16 active torsions:
  status: ('A' for Active; 'I' for Inactive)
    1  A    between atoms: N_2  and  N_38
    2  A    between atoms: N_2  and  C_42
    3  A    between atoms: C_6  and  C_19
    4  A    between atoms: C_9  and  C_22
    5  A    between atoms: C_9  and  C_39
    6  A    between atoms: C_11  and  N_30
    7  A    between atoms: C_11  and  C_43
    8  A    between atoms: C_14  and  C_31
    9  A    between atoms: C_19  and  C_26
   10  A    between atoms: C_22  and  C_47
   11  A    between atoms: N_24  and  C_39
   12  A    between atoms: N_24  and  C_48
   13  A    between atoms: C_26  and  C_43
   14  A    between atoms: N_30  and  N_38
   15  A    between atoms: C_32  and  C_47
   16  A    between atoms: C_45  and  C_47
                            x       y       z     vdW  Elec       q    Type
                         _______ _______ _______ _____ _____    ______ ____

>  <TORSDO>
F 16

$$$$
=
 OpenBabel10232410513D

 49 54  0  0  1  0  0  0  0  0999 V2000
  190.5510  175.5990  137.4440 N   0  0  0  0  0  0  0  0  0  0  0  0
  188.7550  176.9870  134.5720 F   0  0  0  0  0  0  0  0  0  0  0  0
  189.1050  176.6640  135.8420 C   0  0  0  0  0  0  0  0  0  0  0  0
  190.1670  175.8830  136.0860 C   0  0  0  0  0  0  0  0  0  0  0  0
  188.0730  177.4990  141.8130 O   0  0  0  0  0  0  0  0  0  0  0  0
  190.0230  176.2050  138.4650 C   0  0  0  0  0  0  0  0  0  0  0  0
  190.4920  175.9010  139.7770 N   0  0  0  0  0  2  0  0  0  0  0  0
  188.2260  177.1050  136.9750 C   0  0  0  0  0  2  0  0  0  0  0  0
  190.1000  176.6930  140.9390 C   0  0  2  0  0  3  0  0  0  0  0  0
  188.0640  177.4720  139.4460 C   0  0  2  0  0  3  0  0  0  0  0  0
  188.7080  177.2530  140.8000 C   0  0  0  0  0  0  0  0  0  0  0  0
  189.0290  177.3230  138.2620 C   0  0  1  0  0  3  0  0  0  0  0  0
  190.6290  174.0810  134.6150 C   0  0  0  0  0  2  0  0  0  0  0  0
  194.0830  174.6960  136.9860 S   0  0  0  0  0  0  0  0  0  0  0  0
  194.8660  170.9650  137.2180 F   0  0  0  0  0  0  0  0  0  0  0  0
  194.9730  173.3610  137.4920 C   0  0  0  0  0  0  0  0  0  0  0  0
  191.0030  175.3670  134.9500 C   0  0  2  0  0  3  0  0  0  0  0  0
  192.9980  173.7390  136.1280 C   0  0  0  0  0  0  0  0  0  0  0  0
  194.3890  172.2110  136.9770 C   0  0  0  0  0  0  0  0  0  0  0  0
  196.1730  173.4120  138.3700 C   0  0  0  0  0  1  0  0  0  0  0  0
  193.2820  172.4220  136.2170 N   0  0  0  0  0  0  0  0  0  0  0  0
  191.8730  174.2470  135.4200 N   0  0  0  0  0  0  0  0  0  0  0  0
  191.1430  177.7570  141.3070 C   0  0  2  0  0  3  0  0  0  0  0  0
  193.1520  177.5490  139.8460 C   0  0  0  0  0  1  0  0  0  0  0  0
  192.5750  177.2410  141.2120 C   0  0  0  0  0  2  0  0  0  0  0  0
  190.8690  178.2720  142.7130 C   0  0  0  0  0  2  0  0  0  0  0  0
  190.8520  177.1360  143.7230 C   0  0  0  0  0  2  0  0  0  0  0  0
  190.5300  177.6550  145.1150 C   0  0  0  0  0  2  0  0  0  0  0  0
  189.3520  176.9750  145.6360 N   0  0  0  0  0  2  0  0  0  0  0  0
  183.8480  178.5680  144.7400 C   0  0  0  0  0  3  0  0  0  0  0  0
  186.0580  178.4680  144.6780 C   0  0  1  0  0  3  0  0  0  0  0  0
  184.2040  179.1060  145.8640 N   0  0  0  0  0  0  0  0  0  0  0  0
  185.0040  178.1230  143.9640 C   0  0  0  0  0  2  0  0  0  0  0  0
  187.3750  177.7480  147.0150 C   0  0  0  0  0  0  0  0  0  0  0  0
  185.6540  179.1580  145.9280 C   0  0  1  0  0  3  0  0  0  0  0  0
  186.2180  178.4260  147.1180 C   0  0  0  0  0  3  0  0  0  0  0  0
  187.3870  177.8670  144.5540 C   0  0  0  0  0  3  0  0  0  0  0  0
  187.9370  177.1070  148.2360 C   0  0  0  0  0  1  0  0  0  0  0  0
  188.0470  177.5660  145.6890 C   0  0  0  0  0  0  0  0  0  0  0  0
  187.4480  178.7920  139.3940 N   0  0  0  0  0  2  0  0  0  0  0  0
  186.1090  178.6420  139.7820 N   0  0  0  0  0  2  0  0  0  0  0  0
  185.3190  179.0340  138.6920 N   0  0  0  0  0  2  0  0  0  0  0  0
  184.0140  179.3870  139.2200 C   0  0  0  0  0  2  0  0  0  0  0  0
  183.8060  178.7030  140.5580 C   0  0  0  0  0  2  0  0  0  0  0  0
  182.4180  178.0910  140.6470 C   0  0  0  0  0  2  0  0  0  0  0  0
  180.4610  178.9890  139.6130 O   0  0  0  0  0  1  0  0  0  0  0  0
  181.3390  179.1640  140.6850 C   0  0  1  0  0  3  0  0  0  0  0  0
  180.5730  179.0580  141.9880 C   0  0  0  0  0  2  0  0  0  0  0  0
  181.0990  179.9500  142.9240 O   0  0  0  0  0  1  0  0  0  0  0  0
  1  6  2  0  0  0  0
  2  3  1  0  0  0  0
  3  4  2  0  0  0  0
  3  8  1  0  0  0  0
  4  1  1  0  0  0  0
  6  7  1  0  0  0  0
  7  9  1  0  0  0  0
  9 23  1  6  0  0  0
 10 40  1  1  0  0  0
 10 11  1  0  0  0  0
 11  9  1  0  0  0  0
 11  5  2  0  0  0  0
 12  8  1  6  0  0  0
 12  6  1  0  0  0  0
 12 10  1  0  0  0  0
 13 17  1  0  0  0  0
 13 22  1  0  0  0  0
 14 16  1  0  0  0  0
 16 20  1  0  0  0  0
 17 22  1  0  0  0  0
 17  4  1  1  0  0  0
 18 21  2  0  0  0  0
 18 14  1  0  0  0  0
 19 15  1  0  0  0  0
 19 16  2  0  0  0  0
 21 19  1  0  0  0  0
 22 18  1  0  0  0  0
 23 25  1  1  0  0  0
 23 26  1  0  0  0  0
 24 25  1  0  0  0  0
 26 27  1  0  0  0  0
 27 28  1  0  0  0  0
 28 29  1  0  0  0  0
 29 39  1  0  0  0  0
 30 32  2  0  0  0  0
 31 33  1  1  0  0  0
 31 35  1  0  0  0  0
 32 35  1  0  0  0  0
 33 30  1  0  0  0  0
 34 36  2  0  0  0  0
 34 38  1  0  0  0  0
 35 36  1  1  0  0  0
 37 31  1  0  0  0  0
 37 39  2  0  0  0  0
 39 34  1  0  0  0  0
 40 41  1  0  0  0  0
 42 43  1  0  0  0  0
 42 41  1  0  0  0  0
 43 44  1  0  0  0  0
 44 45  1  0  0  0  0
 45 47  1  0  0  0  0
 47 46  1  6  0  0  0
 47 48  1  0  0  0  0
 48 49  1  0  0  0  0
M  END
>  <MODEL>
5

>  <REMARK>
 VINA RESULT:      -7.2      3.859      8.042
  Name = 
  16 active torsions:
  status: ('A' for Active; 'I' for Inactive)
    1  A    between atoms: N_2  and  N_38
    2  A    between atoms: N_2  and  C_42
    3  A    between atoms: C_6  and  C_19
    4  A    between atoms: C_9  and  C_22
    5  A    between atoms: C_9  and  C_39
    6  A    between atoms: C_11  and  N_30
    7  A    between atoms: C_11  and  C_43
    8  A    between atoms: C_14  and  C_31
    9  A    between atoms: C_19  and  C_26
   10  A    between atoms: C_22  and  C_47
   11  A    between atoms: N_24  and  C_39
   12  A    between atoms: N_24  and  C_48
   13  A    between atoms: C_26  and  C_43
   14  A    between atoms: N_30  and  N_38
   15  A    between atoms: C_32  and  C_47
   16  A    between atoms: C_45  and  C_47
                            x       y       z     vdW  Elec       q    Type
                         _______ _______ _______ _____ _____    ______ ____

>  <TORSDO>
F 16

$$$$
=
 OpenBabel10232410513D

 49 54  0  0  1  0  0  0  0  0999 V2000
  187.6120  178.2640  139.1470 N   0  0  0  0  0  0  0  0  0  0  0  0
  188.5750  176.7320  135.9650 F   0  0  0  0  0  0  0  0  0  0  0  0
  188.6320  177.2550  137.2150 C   0  0  0  0  0  0  0  0  0  0  0  0
  187.5380  177.7640  137.7990 C   0  0  0  0  0  0  0  0  0  0  0  0
  192.0180  178.2220  142.2160 O   0  0  0  0  0  0  0  0  0  0  0  0
  188.6520  178.0900  139.9050 C   0  0  0  0  0  0  0  0  0  0  0  0
  188.6280  178.5740  141.2460 N   0  0  0  0  0  2  0  0  0  0  0  0
  189.9620  177.3540  137.9040 C   0  0  0  0  0  2  0  0  0  0  0  0
  189.6680  178.2250  142.2110 C   0  0  2  0  0  3  0  0  0  0  0  0
  191.1410  177.6650  140.0900 C   0  0  2  0  0  3  0  0  0  0  0  0
  191.0100  178.0340  141.5540 C   0  0  0  0  0  0  0  0  0  0  0  0
  189.8180  177.2580  139.4270 C   0  0  1  0  0  3  0  0  0  0  0  0
  185.1760  177.6660  137.9810 C   0  0  0  0  0  2  0  0  0  0  0  0
  186.4320  174.1790  135.9330 S   0  0  0  0  0  0  0  0  0  0  0  0
  183.7980  171.9750  137.6030 F   0  0  0  0  0  0  0  0  0  0  0  0
  185.6380  172.7270  136.2340 C   0  0  0  0  0  0  0  0  0  0  0  0
  186.2200  177.7460  137.0810 C   0  0  2  0  0  3  0  0  0  0  0  0
  185.4250  175.0300  136.9790 C   0  0  0  0  0  0  0  0  0  0  0  0
  184.6150  172.9550  137.1450 C   0  0  0  0  0  0  0  0  0  0  0  0
  185.9970  171.4130  135.6360 C   0  0  0  0  0  1  0  0  0  0  0  0
  184.4990  174.2420  137.5650 N   0  0  0  0  0  0  0  0  0  0  0  0
  185.5560  176.4190  137.2580 N   0  0  0  0  0  0  0  0  0  0  0  0
  189.2660  177.0500  143.1120 C   0  0  2  0  0  3  0  0  0  0  0  0
  190.8230  175.1670  143.6050 C   0  0  0  0  0  1  0  0  0  0  0  0
  189.8080  175.7130  142.6210 C   0  0  0  0  0  2  0  0  0  0  0  0
  187.7480  176.9880  143.2160 C   0  0  0  0  0  2  0  0  0  0  0  0
  187.2620  177.5750  144.5310 C   0  0  0  0  0  2  0  0  0  0  0  0
  185.7500  177.7370  144.5240 C   0  0  0  0  0  2  0  0  0  0  0  0
  185.3560  178.6630  143.4710 N   0  0  0  0  0  2  0  0  0  0  0  0
  181.0530  177.0210  139.9460 C   0  0  0  0  0  3  0  0  0  0  0  0
  182.8940  177.9550  140.7440 C   0  0  1  0  0  3  0  0  0  0  0  0
  180.6070  178.0380  140.6150 N   0  0  0  0  0  0  0  0  0  0  0  0
  182.5090  176.9180  140.0260 C   0  0  0  0  0  2  0  0  0  0  0  0
  182.8350  178.8690  143.3670 C   0  0  0  0  0  0  0  0  0  0  0  0
  181.7320  178.7840  141.1510 C   0  0  1  0  0  3  0  0  0  0  0  0
  181.6960  178.9070  142.6520 C   0  0  0  0  0  3  0  0  0  0  0  0
  184.1660  178.0510  141.4610 C   0  0  0  0  0  3  0  0  0  0  0  0
  182.7600  179.0740  144.8400 C   0  0  0  0  0  1  0  0  0  0  0  0
  184.1440  178.5430  142.7150 C   0  0  0  0  0  0  0  0  0  0  0  0
  192.1040  176.5830  139.9320 N   0  0  0  0  0  2  0  0  0  0  0  0
  193.3180  177.1610  139.5340 N   0  0  0  0  0  2  0  0  0  0  0  0
  193.5900  176.6940  138.2410 N   0  0  0  0  0  2  0  0  0  0  0  0
  193.0840  175.3360  138.1640 C   0  0  0  0  0  2  0  0  0  0  0  0
  193.4240  174.7440  136.8090 C   0  0  0  0  0  2  0  0  0  0  0  0
  194.4200  173.6050  136.9460 C   0  0  0  0  0  2  0  0  0  0  0  0
  195.3270  172.4860  138.8510 O   0  0  0  0  0  1  0  0  0  0  0  0
  195.2360  173.7310  138.2260 C   0  0  1  0  0  3  0  0  0  0  0  0
  196.6270  174.2290  137.8850 C   0  0  0  0  0  2  0  0  0  0  0  0
  196.8330  174.1610  136.5070 O   0  0  0  0  0  1  0  0  0  0  0  0
  1  6  2  0  0  0  0
  2  3  1  0  0  0  0
  3  4  2  0  0  0  0
  3  8  1  0  0  0  0
  4  1  1  0  0  0  0
  6  7  1  0  0  0  0
  7  9  1  0  0  0  0
  9 23  1  6  0  0  0
 10 40  1  1  0  0  0
 10 11  1  0  0  0  0
 11  9  1  0  0  0  0
 11  5  2  0  0  0  0
 12  8  1  6  0  0  0
 12  6  1  0  0  0  0
 12 10  1  0  0  0  0
 14 16  1  0  0  0  0
 14 18  1  0  0  0  0
 16 19  2  0  0  0  0
 17 22  1  0  0  0  0
 17  4  1  1  0  0  0
 17 13  1  0  0  0  0
 18 22  1  0  0  0  0
 18 21  2  0  0  0  0
 19 21  1  0  0  0  0
 19 15  1  0  0  0  0
 20 16  1  0  0  0  0
 22 13  1  0  0  0  0
 23 25  1  6  0  0  0
 23 26  1  0  0  0  0
 25 24  1  0  0  0  0
 26 27  1  0  0  0  0
 28 27  1  0  0  0  0
 29 28  1  0  0  0  0
 30 33  1  0  0  0  0
 30 32  2  0  0  0  0
 31 33  1  1  0  0  0
 31 35  1  0  0  0  0
 31 37  1  0  0  0  0
 32 35  1  0  0  0  0
 34 38  1  0  0  0  0
 35 36  1  1  0  0  0
 36 34  2  0  0  0  0
 37 39  2  0  0  0  0
 39 34  1  0  0  0  0
 39 29  1  0  0  0  0
 41 40  1  0  0  0  0
 42 41  1  0  0  0  0
 43 42  1  0  0  0  0
 44 45  1  0  0  0  0
 44 43  1  0  0  0  0
 45 47  1  0  0  0  0
 47 46  1  6  0  0  0
 48 47  1  0  0  0  0
 49 48  1  0  0  0  0
M  END
>  <MODEL>
6

>  <REMARK>
 VINA RESULT:      -7.2      2.264      4.933
  Name = 
  16 active torsions:
  status: ('A' for Active; 'I' for Inactive)
    1  A    between atoms: N_2  and  N_38
    2  A    between atoms: N_2  and  C_42
    3  A    between atoms: C_6  and  C_19
    4  A    between atoms: C_9  and  C_22
    5  A    between atoms: C_9  and  C_39
    6  A    between atoms: C_11  and  N_30
    7  A    between atoms: C_11  and  C_43
    8  A    between atoms: C_14  and  C_31
    9  A    between atoms: C_19  and  C_26
   10  A    between atoms: C_22  and  C_47
   11  A    between atoms: N_24  and  C_39
   12  A    between atoms: N_24  and  C_48
   13  A    between atoms: C_26  and  C_43
   14  A    between atoms: N_30  and  N_38
   15  A    between atoms: C_32  and  C_47
   16  A    between atoms: C_45  and  C_47
                            x       y       z     vdW  Elec       q    Type
                         _______ _______ _______ _____ _____    ______ ____

>  <TORSDO>
F 16

$$$$
=
 OpenBabel10232410513D

 49 54  0  0  1  0  0  0  0  0999 V2000
  186.5720  177.4710  136.9830 N   0  0  0  0  0  0  0  0  0  0  0  0
  186.6880  174.6330  134.6730 F   0  0  0  0  0  0  0  0  0  0  0  0
  187.0460  175.5650  135.5920 C   0  0  0  0  0  0  0  0  0  0  0  0
  186.1890  176.5260  135.9660 C   0  0  0  0  0  0  0  0  0  0  0  0
  191.2740  177.4780  139.5760 O   0  0  0  0  0  0  0  0  0  0  0  0
  187.6510  177.3400  137.6930 C   0  0  0  0  0  0  0  0  0  0  0  0
  187.9360  178.2940  138.7140 N   0  0  0  0  0  2  0  0  0  0  0  0
  188.4530  175.5740  136.1120 C   0  0  0  0  0  2  0  0  0  0  0  0
  189.0080  178.0890  139.6850 C   0  0  2  0  0  3  0  0  0  0  0  0
  189.9870  176.3900  137.9140 C   0  0  2  0  0  3  0  0  0  0  0  0
  190.1620  177.3170  139.0990 C   0  0  0  0  0  0  0  0  0  0  0  0
  188.5230  176.1160  137.5440 C   0  0  1  0  0  3  0  0  0  0  0  0
  183.8890  176.9610  136.3420 C   0  0  0  0  0  2  0  0  0  0  0  0
  184.2520  172.8620  135.3470 S   0  0  0  0  0  0  0  0  0  0  0  0
  181.5180  171.7930  137.7890 F   0  0  0  0  0  0  0  0  0  0  0  0
  183.2660  171.7430  136.1260 C   0  0  0  0  0  0  0  0  0  0  0  0
  184.8060  176.5740  135.3850 C   0  0  2  0  0  3  0  0  0  0  0  0
  183.5510  174.1570  136.1600 C   0  0  0  0  0  0  0  0  0  0  0  0
  182.4250  172.4190  137.0000 C   0  0  0  0  0  0  0  0  0  0  0  0
  183.3140  170.2710  135.9240 C   0  0  0  0  0  1  0  0  0  0  0  0
  182.5860  173.7690  137.0220 N   0  0  0  0  0  0  0  0  0  0  0  0
  183.9530  175.5120  136.0000 N   0  0  0  0  0  0  0  0  0  0  0  0
  188.5000  177.5030  141.0080 C   0  0  2  0  0  3  0  0  0  0  0  0
  186.7070  177.8770  142.6990 C   0  0  0  0  0  1  0  0  0  0  0  0
  187.8020  178.5360  141.8850 C   0  0  0  0  0  2  0  0  0  0  0  0
  189.6640  176.8800  141.7670 C   0  0  0  0  0  2  0  0  0  0  0  0
  190.4220  177.9250  142.5690 C   0  0  0  0  0  2  0  0  0  0  0  0
  191.6700  177.3250  143.1960 C   0  0  0  0  0  2  0  0  0  0  0  0
  191.2990  176.4500  144.2990 N   0  0  0  0  0  2  0  0  0  0  0  0
  187.2120  177.7590  148.2000 C   0  0  0  0  0  3  0  0  0  0  0  0
  188.6390  177.8730  146.5130 C   0  0  1  0  0  3  0  0  0  0  0  0
  188.3510  177.9610  148.7850 N   0  0  0  0  0  0  0  0  0  0  0  0
  187.3580  177.6700  146.7480 C   0  0  0  0  0  2  0  0  0  0  0  0
  191.0890  176.5980  146.8170 C   0  0  0  0  0  0  0  0  0  0  0  0
  189.3830  178.1160  147.7740 C   0  0  1  0  0  3  0  0  0  0  0  0
  190.4970  177.1110  147.9100 C   0  0  0  0  0  3  0  0  0  0  0  0
  189.3450  177.4540  145.3010 C   0  0  0  0  0  3  0  0  0  0  0  0
  192.2380  175.6680  146.9980 C   0  0  0  0  0  1  0  0  0  0  0  0
  190.5570  176.8830  145.4460 C   0  0  0  0  0  0  0  0  0  0  0  0
  190.6570  175.1210  138.1700 N   0  0  0  0  0  2  0  0  0  0  0  0
  191.5700  174.9150  137.1260 N   0  0  0  0  0  2  0  0  0  0  0  0
  192.7440  175.6010  137.4640 N   0  0  0  0  0  2  0  0  0  0  0  0
  193.8240  174.9920  136.7100 C   0  0  0  0  0  2  0  0  0  0  0  0
  193.9070  173.5150  137.0460 C   0  0  0  0  0  2  0  0  0  0  0  0
  194.8970  173.2680  138.1720 C   0  0  0  0  0  2  0  0  0  0  0  0
  195.7890  174.9770  139.5820 O   0  0  0  0  0  1  0  0  0  0  0  0
  195.8850  174.4180  138.3070 C   0  0  1  0  0  3  0  0  0  0  0  0
  197.2920  173.8970  138.0880 C   0  0  0  0  0  2  0  0  0  0  0  0
  197.4230  173.4130  136.7860 O   0  0  0  0  0  1  0  0  0  0  0  0
  1  6  2  0  0  0  0
  2  3  1  0  0  0  0
  3  4  2  0  0  0  0
  3  8  1  0  0  0  0
  4  1  1  0  0  0  0
  6  7  1  0  0  0  0
  7  9  1  0  0  0  0
  9 23  1  1  0  0  0
 10 40  1  1  0  0  0
 10 11  1  0  0  0  0
 11  5  2  0  0  0  0
 11  9  1  0  0  0  0
 12  8  1  6  0  0  0
 12  6  1  0  0  0  0
 12 10  1  0  0  0  0
 14 16  1  0  0  0  0
 14 18  1  0  0  0  0
 16 19  2  0  0  0  0
 17  4  1  1  0  0  0
 17 22  1  0  0  0  0
 17 13  1  0  0  0  0
 18 21  2  0  0  0  0
 19 21  1  0  0  0  0
 19 15  1  0  0  0  0
 20 16  1  0  0  0  0
 22 18  1  0  0  0  0
 22 13  1  0  0  0  0
 23 26  1  1  0  0  0
 23 25  1  0  0  0  0
 25 24  1  0  0  0  0
 26 27  1  0  0  0  0
 27 28  1  0  0  0  0
 28 29  1  0  0  0  0
 29 39  1  0  0  0  0
 30 32  2  0  0  0  0
 31 37  1  1  0  0  0
 31 33  1  0  0  0  0
 31 35  1  0  0  0  0
 33 30  1  0  0  0  0
 34 38  1  0  0  0  0
 34 36  2  0  0  0  0
 35 36  1  1  0  0  0
 35 32  1  0  0  0  0
 37 39  2  0  0  0  0
 39 34  1  0  0  0  0
 41 42  1  0  0  0  0
 41 40  1  0  0  0  0
 43 44  1  0  0  0  0
 43 42  1  0  0  0  0
 44 45  1  0  0  0  0
 45 47  1  0  0  0  0
 47 46  1  1  0  0  0
 48 47  1  0  0  0  0
 49 48  1  0  0  0  0
M  END
>  <MODEL>
7

>  <REMARK>
 VINA RESULT:      -7.2      1.828      3.200
  Name = 
  16 active torsions:
  status: ('A' for Active; 'I' for Inactive)
    1  A    between atoms: N_2  and  N_38
    2  A    between atoms: N_2  and  C_42
    3  A    between atoms: C_6  and  C_19
    4  A    between atoms: C_9  and  C_22
    5  A    between atoms: C_9  and  C_39
    6  A    between atoms: C_11  and  N_30
    7  A    between atoms: C_11  and  C_43
    8  A    between atoms: C_14  and  C_31
    9  A    between atoms: C_19  and  C_26
   10  A    between atoms: C_22  and  C_47
   11  A    between atoms: N_24  and  C_39
   12  A    between atoms: N_24  and  C_48
   13  A    between atoms: C_26  and  C_43
   14  A    between atoms: N_30  and  N_38
   15  A    between atoms: C_32  and  C_47
   16  A    between atoms: C_45  and  C_47
                            x       y       z     vdW  Elec       q    Type
                         _______ _______ _______ _____ _____    ______ ____

>  <TORSDO>
F 16

$$$$
=
 OpenBabel10232410513D

 49 54  0  0  1  0  0  0  0  0999 V2000
  185.8940  176.9660  137.0640 N   0  0  0  0  0  0  0  0  0  0  0  0
  185.3850  173.9260  135.0900 F   0  0  0  0  0  0  0  0  0  0  0  0
  185.9780  174.9370  135.7730 C   0  0  0  0  0  0  0  0  0  0  0  0
  185.2490  175.9330  136.2950 C   0  0  0  0  0  0  0  0  0  0  0  0
  191.1500  177.1820  138.1440 O   0  0  0  0  0  0  0  0  0  0  0  0
  187.1370  176.8940  137.4330 C   0  0  0  0  0  0  0  0  0  0  0  0
  187.6890  177.9370  138.2350 N   0  0  0  0  0  2  0  0  0  0  0  0
  187.4750  174.9840  135.8530 C   0  0  0  0  0  2  0  0  0  0  0  0
  189.0040  177.8150  138.8600 C   0  0  2  0  0  3  0  0  0  0  0  0
  189.4540  175.9520  137.0410 C   0  0  2  0  0  3  0  0  0  0  0  0
  189.9500  176.9850  138.0330 C   0  0  0  0  0  0  0  0  0  0  0  0
  187.9520  175.6560  137.1450 C   0  0  1  0  0  3  0  0  0  0  0  0
  183.3420  177.0180  135.3940 C   0  0  0  0  0  2  0  0  0  0  0  0
  183.0050  177.1660  139.6120 S   0  0  0  0  0  0  0  0  0  0  0  0
  181.4640  180.6610  139.5920 F   0  0  0  0  0  0  0  0  0  0  0  0
  182.3620  178.5450  140.3300 C   0  0  0  0  0  0  0  0  0  0  0  0
  183.7550  175.9360  136.1470 C   0  0  2  0  0  3  0  0  0  0  0  0
  182.7850  177.7820  138.0620 C   0  0  0  0  0  0  0  0  0  0  0  0
  182.0010  179.4430  139.3340 C   0  0  0  0  0  0  0  0  0  0  0  0
  182.2300  178.7670  141.7950 C   0  0  0  0  0  1  0  0  0  0  0  0
  182.2410  179.0180  138.0660 N   0  0  0  0  0  0  0  0  0  0  0  0
  183.1680  177.1030  136.8720 N   0  0  0  0  0  0  0  0  0  0  0  0
  188.9200  177.3580  140.3220 C   0  0  2  0  0  3  0  0  0  0  0  0
  187.1690  178.4750  141.7000 C   0  0  0  0  0  1  0  0  0  0  0  0
  188.6260  178.5010  141.2860 C   0  0  0  0  0  2  0  0  0  0  0  0
  190.2200  176.6700  140.7140 C   0  0  0  0  0  2  0  0  0  0  0  0
  190.7120  177.1520  142.0690 C   0  0  0  0  0  2  0  0  0  0  0  0
  190.7540  176.0060  143.0680 C   0  0  0  0  0  2  0  0  0  0  0  0
  191.0230  176.5220  144.4030 N   0  0  0  0  0  2  0  0  0  0  0  0
  186.0710  177.9730  147.0490 C   0  0  0  0  0  3  0  0  0  0  0  0
  187.8580  177.9990  145.7440 C   0  0  1  0  0  3  0  0  0  0  0  0
  187.0270  178.3100  147.8580 N   0  0  0  0  0  0  0  0  0  0  0  0
  186.5660  177.7400  145.6940 C   0  0  0  0  0  2  0  0  0  0  0  0
  190.2070  176.9240  146.7650 C   0  0  0  0  0  0  0  0  0  0  0  0
  188.2650  178.4220  147.1070 C   0  0  1  0  0  3  0  0  0  0  0  0
  189.3500  177.5110  147.6190 C   0  0  0  0  0  3  0  0  0  0  0  0
  188.8500  177.5000  144.7910 C   0  0  0  0  0  3  0  0  0  0  0  0
  191.3130  176.0950  147.3210 C   0  0  0  0  0  1  0  0  0  0  0  0
  190.0110  177.0260  145.2840 C   0  0  0  0  0  0  0  0  0  0  0  0
  190.1960  174.7090  137.2020 N   0  0  0  0  0  2  0  0  0  0  0  0
  191.2110  174.7020  136.2340 N   0  0  0  0  0  2  0  0  0  0  0  0
  191.9690  173.5420  136.4420 N   0  0  0  0  0  2  0  0  0  0  0  0
  192.6780  173.2710  135.2050 C   0  0  0  0  0  2  0  0  0  0  0  0
  194.1400  173.0020  135.5060 C   0  0  0  0  0  2  0  0  0  0  0  0
  194.4230  173.1380  136.9930 C   0  0  0  0  0  2  0  0  0  0  0  0
  194.7270  175.4630  137.4500 O   0  0  0  0  0  1  0  0  0  0  0  0
  195.4140  174.2610  137.2690 C   0  0  1  0  0  3  0  0  0  0  0  0
  196.2020  173.9360  138.5230 C   0  0  0  0  0  2  0  0  0  0  0  0
  195.8990  174.8570  139.5270 O   0  0  0  0  0  1  0  0  0  0  0  0
  1  6  2  0  0  0  0
  2  3  1  0  0  0  0
  3  8  1  0  0  0  0
  3  4  2  0  0  0  0
  4  1  1  0  0  0  0
  6  7  1  0  0  0  0
  7  9  1  0  0  0  0
  9 23  1  1  0  0  0
 10 12  1  0  0  0  0
 10 40  1  1  0  0  0
 10 11  1  0  0  0  0
 11  5  2  0  0  0  0
 11  9  1  0  0  0  0
 12  8  1  6  0  0  0
 12  6  1  0  0  0  0
 13 17  1  0  0  0  0
 13 22  1  0  0  0  0
 14 16  1  0  0  0  0
 16 20  1  0  0  0  0
 17  4  1  1  0  0  0
 17 22  1  0  0  0  0
 18 21  2  0  0  0  0
 18 14  1  0  0  0  0
 19 15  1  0  0  0  0
 19 16  2  0  0  0  0
 21 19  1  0  0  0  0
 22 18  1  0  0  0  0
 23 26  1  1  0  0  0
 23 25  1  0  0  0  0
 25 24  1  0  0  0  0
 26 27  1  0  0  0  0
 27 28  1  0  0  0  0
 28 29  1  0  0  0  0
 29 39  1  0  0  0  0
 30 32  2  0  0  0  0
 31 37  1  1  0  0  0
 31 35  1  0  0  0  0
 33 31  1  0  0  0  0
 33 30  1  0  0  0  0
 34 38  1  0  0  0  0
 34 36  2  0  0  0  0
 35 36  1  1  0  0  0
 35 32  1  0  0  0  0
 37 39  2  0  0  0  0
 39 34  1  0  0  0  0
 41 42  1  0  0  0  0
 41 40  1  0  0  0  0
 43 44  1  0  0  0  0
 43 42  1  0  0  0  0
 44 45  1  0  0  0  0
 45 47  1  0  0  0  0
 47 46  1  1  0  0  0
 47 48  1  0  0  0  0
 48 49  1  0  0  0  0
M  END
>  <MODEL>
8

>  <REMARK>
 VINA RESULT:      -7.0      2.447      4.358
  Name = 
  16 active torsions:
  status: ('A' for Active; 'I' for Inactive)
    1  A    between atoms: N_2  and  N_38
    2  A    between atoms: N_2  and  C_42
    3  A    between atoms: C_6  and  C_19
    4  A    between atoms: C_9  and  C_22
    5  A    between atoms: C_9  and  C_39
    6  A    between atoms: C_11  and  N_30
    7  A    between atoms: C_11  and  C_43
    8  A    between atoms: C_14  and  C_31
    9  A    between atoms: C_19  and  C_26
   10  A    between atoms: C_22  and  C_47
   11  A    between atoms: N_24  and  C_39
   12  A    between atoms: N_24  and  C_48
   13  A    between atoms: C_26  and  C_43
   14  A    between atoms: N_30  and  N_38
   15  A    between atoms: C_32  and  C_47
   16  A    between atoms: C_45  and  C_47
                            x       y       z     vdW  Elec       q    Type
                         _______ _______ _______ _____ _____    ______ ____

>  <TORSDO>
F 16

$$$$
=
 OpenBabel10232410513D

 49 54  0  0  1  0  0  0  0  0999 V2000
  186.6040  174.9890  137.0080 N   0  0  0  0  0  0  0  0  0  0  0  0
  186.9760  171.4680  136.0800 F   0  0  0  0  0  0  0  0  0  0  0  0
  187.2590  172.7590  136.3870 C   0  0  0  0  0  0  0  0  0  0  0  0
  186.2780  173.6390  136.6290 C   0  0  0  0  0  0  0  0  0  0  0  0
  191.5840  176.9020  137.6290 O   0  0  0  0  0  0  0  0  0  0  0  0
  187.8130  175.3650  137.2990 C   0  0  0  0  0  0  0  0  0  0  0  0
  188.0470  176.7100  137.7110 N   0  0  0  0  0  2  0  0  0  0  0  0
  188.6860  173.2200  136.3510 C   0  0  0  0  0  2  0  0  0  0  0  0
  189.3320  177.1380  138.2580 C   0  0  2  0  0  3  0  0  0  0  0  0
  190.3060  174.9920  137.0610 C   0  0  2  0  0  3  0  0  0  0  0  0
  190.4840  176.3720  137.6610 C   0  0  0  0  0  0  0  0  0  0  0  0
  188.9370  174.3580  137.3470 C   0  0  1  0  0  3  0  0  0  0  0  0
  184.3730  173.2040  135.2850 C   0  0  0  0  0  2  0  0  0  0  0  0
  183.3990  176.4270  137.8530 S   0  0  0  0  0  0  0  0  0  0  0  0
  181.3270  178.2170  135.1910 F   0  0  0  0  0  0  0  0  0  0  0  0
  182.4400  177.6770  137.2630 C   0  0  0  0  0  0  0  0  0  0  0  0
  184.8420  173.2030  136.5840 C   0  0  2  0  0  3  0  0  0  0  0  0
  183.3120  175.5780  136.4020 C   0  0  0  0  0  0  0  0  0  0  0  0
  182.0880  177.3920  135.9500 C   0  0  0  0  0  0  0  0  0  0  0  0
  182.0600  178.8980  138.0230 C   0  0  0  0  0  1  0  0  0  0  0  0
  182.5780  176.2200  135.4680 N   0  0  0  0  0  0  0  0  0  0  0  0
  183.9720  174.3410  136.1610 N   0  0  0  0  0  0  0  0  0  0  0  0
  189.3460  177.1480  139.7920 C   0  0  2  0  0  3  0  0  0  0  0  0
  187.6360  178.4120  141.0930 C   0  0  0  0  0  1  0  0  0  0  0  0
  188.9690  178.5030  140.3800 C   0  0  0  0  0  2  0  0  0  0  0  0
  190.7220  176.7300  140.2900 C   0  0  0  0  0  2  0  0  0  0  0  0
  191.0000  177.2910  141.6750 C   0  0  0  0  0  2  0  0  0  0  0  0
  190.9370  176.1930  142.7260 C   0  0  0  0  0  2  0  0  0  0  0  0
  191.3700  176.7150  144.0140 N   0  0  0  0  0  2  0  0  0  0  0  0
  186.7780  177.6640  147.4260 C   0  0  0  0  0  3  0  0  0  0  0  0
  188.4030  177.9230  145.9480 C   0  0  1  0  0  3  0  0  0  0  0  0
  187.8250  177.8580  148.1650 N   0  0  0  0  0  0  0  0  0  0  0  0
  187.1100  177.6720  146.0030 C   0  0  0  0  0  2  0  0  0  0  0  0
  190.8360  176.6960  146.4880 C   0  0  0  0  0  0  0  0  0  0  0  0
  188.9710  178.1040  147.3070 C   0  0  1  0  0  3  0  0  0  0  0  0
  190.0920  177.1220  147.5250 C   0  0  0  0  0  3  0  0  0  0  0  0
  189.2710  177.6010  144.8140 C   0  0  0  0  0  3  0  0  0  0  0  0
  191.9840  175.7870  146.7600 C   0  0  0  0  0  1  0  0  0  0  0  0
  190.4730  177.0540  145.0800 C   0  0  0  0  0  0  0  0  0  0  0  0
  191.3530  174.1000  137.5410 N   0  0  0  0  0  2  0  0  0  0  0  0
  192.0340  173.6150  136.4160 N   0  0  0  0  0  2  0  0  0  0  0  0
  193.3860  173.9480  136.5790 N   0  0  0  0  0  2  0  0  0  0  0  0
  193.6780  175.0110  135.6350 C   0  0  0  0  0  2  0  0  0  0  0  0
  195.1650  175.3100  135.6520 C   0  0  0  0  0  2  0  0  0  0  0  0
  195.8700  174.5030  136.7300 C   0  0  0  0  0  2  0  0  0  0  0  0
  197.6060  176.1280  136.5010 O   0  0  0  0  0  1  0  0  0  0  0  0
  197.3690  174.7720  136.7350 C   0  0  1  0  0  3  0  0  0  0  0  0
  197.9420  174.3840  138.0830 C   0  0  0  0  0  2  0  0  0  0  0  0
  198.3620  175.5250  138.7680 O   0  0  0  0  0  1  0  0  0  0  0  0
  1  6  2  0  0  0  0
  2  3  1  0  0  0  0
  3  4  2  0  0  0  0
  4  1  1  0  0  0  0
  5 11  2  0  0  0  0
  6 12  1  0  0  0  0
  6  7  1  0  0  0  0
  7  9  1  0  0  0  0
  8  3  1  0  0  0  0
  9 23  1  1  0  0  0
 10 12  1  0  0  0  0
 10 40  1  1  0  0  0
 10 11  1  0  0  0  0
 11  9  1  0  0  0  0
 12  8  1  6  0  0  0
 13 22  1  0  0  0  0
 13 17  1  0  0  0  0
 15 19  1  0  0  0  0
 16 14  1  0  0  0  0
 16 20  1  0  0  0  0
 17  4  1  6  0  0  0
 18 14  1  0  0  0  0
 19 16  2  0  0  0  0
 21 19  1  0  0  0  0
 21 18  2  0  0  0  0
 22 18  1  0  0  0  0
 22 17  1  0  0  0  0
 23 26  1  6  0  0  0
 23 25  1  0  0  0  0
 25 24  1  0  0  0  0
 26 27  1  0  0  0  0
 27 28  1  0  0  0  0
 28 29  1  0  0  0  0
 29 39  1  0  0  0  0
 30 32  2  0  0  0  0
 31 37  1  1  0  0  0
 31 33  1  0  0  0  0
 31 35  1  0  0  0  0
 33 30  1  0  0  0  0
 34 38  1  0  0  0  0
 34 36  2  0  0  0  0
 35 36  1  1  0  0  0
 35 32  1  0  0  0  0
 37 39  2  0  0  0  0
 39 34  1  0  0  0  0
 41 42  1  0  0  0  0
 41 40  1  0  0  0  0
 43 44  1  0  0  0  0
 43 42  1  0  0  0  0
 44 45  1  0  0  0  0
 45 47  1  0  0  0  0
 47 46  1  1  0  0  0
 47 48  1  0  0  0  0
 48 49  1  0  0  0  0
M  END
>  <MODEL>
9

>  <REMARK>
 VINA RESULT:      -7.0      2.697      4.479
  Name = 
  16 active torsions:
  status: ('A' for Active; 'I' for Inactive)
    1  A    between atoms: N_2  and  N_38
    2  A    between atoms: N_2  and  C_42
    3  A    between atoms: C_6  and  C_19
    4  A    between atoms: C_9  and  C_22
    5  A    between atoms: C_9  and  C_39
    6  A    between atoms: C_11  and  N_30
    7  A    between atoms: C_11  and  C_43
    8  A    between atoms: C_14  and  C_31
    9  A    between atoms: C_19  and  C_26
   10  A    between atoms: C_22  and  C_47
   11  A    between atoms: N_24  and  C_39
   12  A    between atoms: N_24  and  C_48
   13  A    between atoms: C_26  and  C_43
   14  A    between atoms: N_30  and  N_38
   15  A    between atoms: C_32  and  C_47
   16  A    between atoms: C_45  and  C_47
                            x       y       z     vdW  Elec       q    Type
                         _______ _______ _______ _____ _____    ______ ____

>  <TORSDO>
F 16

$$$$
