=
 OpenBabel10232410553D

 49 53  0  0  1  0  0  0  0  0999 V2000
  185.1060  178.3270  138.2830 S   0  0  0  0  0  0  0  0  0  0  0  0
  189.4820  176.6080  138.5140 C   0  0  0  0  0  3  0  0  0  0  0  0
  190.7790  174.5310  135.8790 C   0  0  0  0  0  0  0  0  0  0  0  0
  192.8220  173.1000  136.1220 N   0  0  0  0  0  2  0  0  0  0  0  0
  185.7160  175.2870  134.8950 O   0  0  0  0  0  0  0  0  0  0  0  0
  190.8790  172.1280  135.2460 N   0  0  0  0  0  0  0  0  0  0  0  0
  186.7460  178.0760  138.5250 C   0  0  0  0  0  0  0  0  0  0  0  0
  188.5720  172.3810  135.8570 C   0  0  2  0  0  3  0  0  0  0  0  0
  186.1370  176.5260  136.8790 C   0  0  0  0  0  0  0  0  0  0  0  0
  189.0580  176.1680  136.2170 N   0  0  0  0  0  2  0  0  0  0  0  0
  187.1170  174.2590  136.4470 N   0  0  0  0  0  2  0  0  0  0  0  0
  191.7270  175.6840  136.0410 C   0  0  0  0  0  1  0  0  0  0  0  0
  187.3070  171.5570  135.6740 C   0  0  0  0  0  1  0  0  0  0  0  0
  189.4460  174.8070  135.9750 C   0  0  0  0  0  0  0  0  0  0  0  0
  191.4470  173.1950  135.7250 C   0  0  0  0  0  0  0  0  0  0  0  0
  187.1940  177.0640  137.6540 C   0  0  0  0  0  0  0  0  0  0  0  0
  188.2900  173.8610  135.6750 C   0  0  1  0  0  3  0  0  0  0  0  0
  188.8510  178.5710  139.7850 C   0  0  0  0  0  2  0  0  0  0  0  0
  189.5240  172.0000  134.7620 C   0  0  0  0  0  2  0  0  0  0  0  0
  186.2870  175.3400  136.0170 C   0  0  0  0  0  0  0  0  0  0  0  0
  184.9130  177.1610  137.0890 C   0  0  0  0  0  0  0  0  0  0  0  0
  187.4730  178.7710  139.5010 O   0  0  0  0  0  0  0  0  0  0  0  0
  188.6080  176.6110  137.5040 C   0  0  0  0  0  0  0  0  0  0  0  0
  189.1680  177.0920  139.8850 C   0  0  2  0  0  3  0  0  0  0  0  0
  193.5900  171.8680  136.0260 C   0  0  0  0  0  1  0  0  0  0  0  0
  183.6040  176.7750  136.4820 C   0  0  0  0  0  2  0  0  0  0  0  0
  182.1190  174.7380  136.6560 N   0  0  0  0  0  2  0  0  0  0  0  0
  182.9350  175.7210  137.2970 C   0  0  0  0  0  0  0  0  0  0  0  0
  183.0700  175.7270  138.5510 O   0  0  0  0  0  0  0  0  0  0  0  0
  180.0580  174.1090  137.5560 O   0  0  0  0  0  1  0  0  0  0  0  0
  181.3920  173.7210  137.4050 C   0  0  1  0  0  3  0  0  0  0  0  0
  181.4910  172.3550  136.7130 C   0  0  2  0  0  3  0  0  0  0  0  0
  182.9120  172.1510  136.1210 C   0  0  0  0  0  3  0  0  0  0  0  0
  183.5150  170.8010  136.4730 C   0  0  0  0  0  2  0  0  0  0  0  0
  183.9990  172.0550  137.1770 C   0  0  0  0  0  2  0  0  0  0  0  0
  180.6100  172.5570  134.3650 C   0  0  0  0  0  1  0  0  0  0  0  0
  179.9820  170.7240  135.7220 O   0  0  0  0  0  1  0  0  0  0  0  0
  180.2920  172.0860  135.7730 C   0  0  1  0  0  3  0  0  0  0  0  0
  190.2810  176.9090  140.7080 O   0  0  0  0  0  0  0  0  0  0  0  0
  189.7560  176.5340  141.9480 C   0  0  1  0  0  3  0  0  0  0  0  0
  190.5170  175.4960  142.4920 O   0  0  0  0  0  1  0  0  0  0  0  0
  189.7050  177.7270  142.9020 C   0  0  0  0  0  2  0  0  0  0  0  0
  188.7970  177.4460  145.2800 N   0  0  0  0  0  0  0  0  0  0  0  0
  187.3850  177.7280  143.4170 O   0  0  0  0  0  0  0  0  0  0  0  0
  188.5580  177.6430  143.8680 C   0  0  0  0  0  0  0  0  0  0  0  0
  190.1360  177.1220  145.7460 C   0  0  0  0  0  1  0  0  0  0  0  0
  187.7710  177.5060  146.2480 N   0  0  0  0  0  2  0  0  0  0  0  0
  188.1610  178.0100  148.7840 C   0  0  0  0  0  3  0  0  0  0  0  0
  187.9820  177.7800  147.6100 C   0  0  0  0  0  0  0  0  0  0  0  0
  1  7  1  0  0  0  0
  2 24  1  0  0  0  0
  3 14  2  0  0  0  0
  3 12  1  0  0  0  0
  5 20  2  0  0  0  0
  6 15  2  0  0  0  0
  7 22  1  0  0  0  0
  8 13  1  6  0  0  0
  9 21  2  0  0  0  0
  9 16  1  0  0  0  0
 10 23  1  0  0  0  0
 14 10  1  0  0  0  0
 15  3  1  0  0  0  0
 15  4  1  0  0  0  0
 16  7  2  0  0  0  0
 17  8  1  0  0  0  0
 17 14  1  1  0  0  0
 17 11  1  0  0  0  0
 18 24  1  0  0  0  0
 19  6  1  0  0  0  0
 19  8  1  0  0  0  0
 20 11  1  0  0  0  0
 20  9  1  0  0  0  0
 21  1  1  0  0  0  0
 22 18  1  0  0  0  0
 23 16  1  0  0  0  0
 23  2  2  0  0  0  0
 24 39  1  1  0  0  0
 25  4  1  0  0  0  0
 26 21  1  0  0  0  0
 26 28  1  0  0  0  0
 27 28  1  0  0  0  0
 27 31  1  0  0  0  0
 28 29  2  0  0  0  0
 31 30  1  6  0  0  0
 32 38  1  6  0  0  0
 32 31  1  0  0  0  0
 33 34  1  0  0  0  0
 33 32  1  0  0  0  0
 33 35  1  0  0  0  0
 34 35  1  0  0  0  0
 37 38  1  0  0  0  0
 38 36  1  6  0  0  0
 39 40  1  0  0  0  0
 40 41  1  1  0  0  0
 40 42  1  0  0  0  0
 42 45  1  0  0  0  0
 43 46  1  0  0  0  0
 43 47  1  0  0  0  0
 44 45  2  0  0  0  0
 45 43  1  0  0  0  0
 47 49  1  0  0  0  0
 49 48  3  0  0  0  0
M  END
>  <MODEL>
1

>  <REMARK>
 VINA RESULT:      -7.2      0.000      0.000
  Name = 
  12 active torsions:
  status: ('A' for Active; 'I' for Inactive)
    1  A    between atoms: C_2  and  O_42
    2  A    between atoms: C_2  and  C_43
    3  A    between atoms: C_5  and  C_12
    4  A    between atoms: C_5  and  C_34
    5  A    between atoms: C_5  and  C_35
    6  A    between atoms: N_11  and  C_34
    7  A    between atoms: C_13  and  C_36
    8  A    between atoms: N_16  and  N_22
    9  A    between atoms: N_22  and  C_45
   10  A    between atoms: C_36  and  C_39
   11  A    between atoms: O_42  and  C_48
   12  A    between atoms: C_43  and  C_46
                            x       y       z     vdW  Elec       q    Type
                         _______ _______ _______ _____ _____    ______ ____

>  <TORSDO>
F 12

$$$$
=
 OpenBabel10232410553D

 49 53  0  0  1  0  0  0  0  0999 V2000
  185.9400  178.3800  138.3920 S   0  0  0  0  0  0  0  0  0  0  0  0
  190.2600  176.8800  139.5100 C   0  0  0  0  0  3  0  0  0  0  0  0
  192.3680  175.3470  137.0310 C   0  0  0  0  0  0  0  0  0  0  0  0
  194.4110  174.0050  137.5880 N   0  0  0  0  0  2  0  0  0  0  0  0
  187.6670  175.9900  134.8720 O   0  0  0  0  0  0  0  0  0  0  0  0
  192.8520  173.0940  136.0960 N   0  0  0  0  0  0  0  0  0  0  0  0
  187.4830  178.1780  139.0180 C   0  0  0  0  0  0  0  0  0  0  0  0
  190.4510  173.1190  136.1080 C   0  0  2  0  0  3  0  0  0  0  0  0
  187.4570  176.8970  137.0570 C   0  0  0  0  0  0  0  0  0  0  0  0
  190.4700  176.8100  137.1430 N   0  0  0  0  0  2  0  0  0  0  0  0
  188.7240  174.7900  136.5660 N   0  0  0  0  0  2  0  0  0  0  0  0
  193.1310  176.5040  137.6070 C   0  0  0  0  0  1  0  0  0  0  0  0
  189.3570  172.2710  135.4780 C   0  0  0  0  0  1  0  0  0  0  0  0
  191.0340  175.5320  136.8120 C   0  0  0  0  0  0  0  0  0  0  0  0
  193.1770  174.0930  136.8610 C   0  0  0  0  0  0  0  0  0  0  0  0
  188.2290  177.3520  138.1560 C   0  0  0  0  0  0  0  0  0  0  0  0
  190.0860  174.5910  136.0810 C   0  0  1  0  0  3  0  0  0  0  0  0
  189.1460  178.5640  140.8480 C   0  0  0  0  0  2  0  0  0  0  0  0
  191.6800  172.9780  135.2580 C   0  0  0  0  0  2  0  0  0  0  0  0
  187.9310  175.8830  136.0990 C   0  0  0  0  0  0  0  0  0  0  0  0
  186.1650  177.4230  137.0300 C   0  0  0  0  0  0  0  0  0  0  0  0
  187.8720  178.7360  140.2430 O   0  0  0  0  0  0  0  0  0  0  0  0
  189.6710  177.0060  138.3170 C   0  0  0  0  0  0  0  0  0  0  0  0
  189.5670  177.1080  140.8060 C   0  0  2  0  0  3  0  0  0  0  0  0
  195.2910  172.8490  137.5150 C   0  0  0  0  0  1  0  0  0  0  0  0
  185.0930  177.0760  136.0490 C   0  0  0  0  0  2  0  0  0  0  0  0
  183.4700  177.3990  137.9580 N   0  0  0  0  0  2  0  0  0  0  0  0
  183.8290  176.7190  136.7530 C   0  0  0  0  0  0  0  0  0  0  0  0
  183.1030  175.7950  136.2960 O   0  0  0  0  0  0  0  0  0  0  0  0
  182.5400  175.9390  139.5260 O   0  0  0  0  0  1  0  0  0  0  0  0
  182.2790  177.0520  138.7230 C   0  0  1  0  0  3  0  0  0  0  0  0
  181.8060  178.2420  139.5710 C   0  0  2  0  0  3  0  0  0  0  0  0
  182.1900  179.5810  138.8840 C   0  0  0  0  0  3  0  0  0  0  0  0
  181.0960  180.6320  138.9750 C   0  0  0  0  0  2  0  0  0  0  0  0
  181.3420  179.9020  137.6670 C   0  0  0  0  0  2  0  0  0  0  0  0
  183.5360  178.7100  141.3360 C   0  0  0  0  0  1  0  0  0  0  0  0
  181.2360  178.6970  141.8920 O   0  0  0  0  0  1  0  0  0  0  0  0
  182.1800  178.0830  141.0640 C   0  0  1  0  0  3  0  0  0  0  0  0
  190.4490  176.8480  141.8570 O   0  0  0  0  0  0  0  0  0  0  0  0
  189.7000  176.1190  142.7850 C   0  0  1  0  0  3  0  0  0  0  0  0
  190.3100  174.8850  143.0240 O   0  0  0  0  0  1  0  0  0  0  0  0
  189.5340  176.9020  144.0870 C   0  0  0  0  0  2  0  0  0  0  0  0
  187.7590  177.4800  145.8400 N   0  0  0  0  0  0  0  0  0  0  0  0
  187.2020  176.6450  143.7100 O   0  0  0  0  0  0  0  0  0  0  0  0
  188.0990  177.0030  144.5190 C   0  0  0  0  0  0  0  0  0  0  0  0
  188.8070  177.6690  146.8300 C   0  0  0  0  0  1  0  0  0  0  0  0
  186.4310  177.7340  146.2460 N   0  0  0  0  0  2  0  0  0  0  0  0
  184.7500  179.2390  144.9250 C   0  0  0  0  0  3  0  0  0  0  0  0
  185.5250  178.5410  145.5370 C   0  0  0  0  0  0  0  0  0  0  0  0
  1  7  1  0  0  0  0
  2 24  1  0  0  0  0
  3 12  1  0  0  0  0
  5 20  2  0  0  0  0
  6 15  2  0  0  0  0
  7 22  1  0  0  0  0
  8 13  1  6  0  0  0
  9 16  1  0  0  0  0
 10 23  1  0  0  0  0
 14  3  2  0  0  0  0
 14 10  1  0  0  0  0
 15  3  1  0  0  0  0
 15  4  1  0  0  0  0
 16 23  1  0  0  0  0
 16  7  2  0  0  0  0
 17  8  1  0  0  0  0
 17 11  1  1  0  0  0
 17 14  1  0  0  0  0
 19  6  1  0  0  0  0
 19  8  1  0  0  0  0
 20 11  1  0  0  0  0
 20  9  1  0  0  0  0
 21  9  2  0  0  0  0
 21  1  1  0  0  0  0
 22 18  1  0  0  0  0
 23  2  2  0  0  0  0
 24 18  1  0  0  0  0
 24 39  1  1  0  0  0
 25  4  1  0  0  0  0
 26 28  1  0  0  0  0
 26 21  1  0  0  0  0
 27 31  1  0  0  0  0
 28 27  1  0  0  0  0
 29 28  2  0  0  0  0
 31 30  1  1  0  0  0
 32 31  1  6  0  0  0
 32 38  1  0  0  0  0
 33 34  1  0  0  0  0
 33 32  1  0  0  0  0
 35 33  1  0  0  0  0
 35 34  1  0  0  0  0
 38 36  1  6  0  0  0
 38 37  1  0  0  0  0
 39 40  1  0  0  0  0
 40 41  1  1  0  0  0
 40 42  1  0  0  0  0
 42 45  1  0  0  0  0
 43 47  1  0  0  0  0
 43 46  1  0  0  0  0
 44 45  2  0  0  0  0
 45 43  1  0  0  0  0
 48 49  3  0  0  0  0
 49 47  1  0  0  0  0
M  END
>  <MODEL>
2

>  <REMARK>
 VINA RESULT:      -7.1      2.518      3.861
  Name = 
  12 active torsions:
  status: ('A' for Active; 'I' for Inactive)
    1  A    between atoms: C_2  and  O_42
    2  A    between atoms: C_2  and  C_43
    3  A    between atoms: C_5  and  C_12
    4  A    between atoms: C_5  and  C_34
    5  A    between atoms: C_5  and  C_35
    6  A    between atoms: N_11  and  C_34
    7  A    between atoms: C_13  and  C_36
    8  A    between atoms: N_16  and  N_22
    9  A    between atoms: N_22  and  C_45
   10  A    between atoms: C_36  and  C_39
   11  A    between atoms: O_42  and  C_48
   12  A    between atoms: C_43  and  C_46
                            x       y       z     vdW  Elec       q    Type
                         _______ _______ _______ _____ _____    ______ ____

>  <TORSDO>
F 12

$$$$
=
 OpenBabel10232410553D

 49 53  0  0  1  0  0  0  0  0999 V2000
  186.0310  178.0110  137.7730 S   0  0  0  0  0  0  0  0  0  0  0  0
  190.2440  176.9890  139.6080 C   0  0  0  0  0  3  0  0  0  0  0  0
  192.9080  175.7720  137.5200 C   0  0  0  0  0  0  0  0  0  0  0  0
  194.9700  174.6600  138.4130 N   0  0  0  0  0  2  0  0  0  0  0  0
  188.6010  175.9260  134.5890 O   0  0  0  0  0  0  0  0  0  0  0  0
  193.8050  173.6130  136.6710 N   0  0  0  0  0  0  0  0  0  0  0  0
  187.4580  177.9720  138.6540 C   0  0  0  0  0  0  0  0  0  0  0  0
  191.4510  173.3620  136.2700 C   0  0  2  0  0  3  0  0  0  0  0  0
  187.9160  176.7470  136.7110 C   0  0  0  0  0  0  0  0  0  0  0  0
  190.8610  177.0050  137.3130 N   0  0  0  0  0  2  0  0  0  0  0  0
  189.4870  174.8130  136.4340 N   0  0  0  0  0  2  0  0  0  0  0  0
  193.4210  176.9940  138.2250 C   0  0  0  0  0  1  0  0  0  0  0  0
  190.5880  172.4110  135.4570 C   0  0  0  0  0  1  0  0  0  0  0  0
  191.6190  175.8080  137.0770 C   0  0  0  0  0  0  0  0  0  0  0  0
  193.8760  174.6240  137.4860 C   0  0  0  0  0  0  0  0  0  0  0  0
  188.4320  177.2590  137.9280 C   0  0  0  0  0  0  0  0  0  0  0  0
  190.9260  174.7830  136.1880 C   0  0  1  0  0  3  0  0  0  0  0  0
  188.7290  178.4990  140.7440 C   0  0  0  0  0  2  0  0  0  0  0  0
  192.8140  173.3850  135.6430 C   0  0  0  0  0  2  0  0  0  0  0  0
  188.6620  175.8190  135.8430 C   0  0  0  0  0  0  0  0  0  0  0  0
  186.5960  177.1220  136.4650 C   0  0  0  0  0  0  0  0  0  0  0  0
  187.5650  178.5400  139.9310 O   0  0  0  0  0  0  0  0  0  0  0  0
  189.8560  177.0780  138.3330 C   0  0  0  0  0  0  0  0  0  0  0  0
  189.3190  177.1030  140.7680 C   0  0  2  0  0  3  0  0  0  0  0  0
  195.9790  173.6140  138.4860 C   0  0  0  0  0  1  0  0  0  0  0  0
  185.7550  176.6790  135.3130 C   0  0  0  0  0  2  0  0  0  0  0  0
  184.2490  175.1630  136.6630 N   0  0  0  0  0  2  0  0  0  0  0  0
  185.1620  175.3370  135.5770 C   0  0  0  0  0  0  0  0  0  0  0  0
  185.4990  174.3570  134.8580 O   0  0  0  0  0  0  0  0  0  0  0  0
  184.5630  173.1770  137.8510 O   0  0  0  0  0  1  0  0  0  0  0  0
  183.6860  173.8640  137.0070 C   0  0  1  0  0  3  0  0  0  0  0  0
  182.3060  174.0210  137.6610 C   0  0  2  0  0  3  0  0  0  0  0  0
  181.2110  173.3640  136.7750 C   0  0  0  0  0  3  0  0  0  0  0  0
  180.5830  172.1380  137.4170 C   0  0  0  0  0  2  0  0  0  0  0  0
  181.5820  171.9760  136.2860 C   0  0  0  0  0  2  0  0  0  0  0  0
  180.5550  175.7430  138.2050 C   0  0  0  0  0  1  0  0  0  0  0  0
  182.5870  175.6840  139.4140 O   0  0  0  0  0  1  0  0  0  0  0  0
  182.0470  175.4680  138.1430 C   0  0  1  0  0  3  0  0  0  0  0  0
  190.0340  176.9190  141.9530 O   0  0  0  0  0  0  0  0  0  0  0  0
  189.0620  176.6810  142.9280 C   0  0  1  0  0  3  0  0  0  0  0  0
  188.6860  175.3360  142.9060 O   0  0  0  0  0  1  0  0  0  0  0  0
  189.5710  177.0780  144.3140 C   0  0  0  0  0  2  0  0  0  0  0  0
  188.7290  177.3720  146.7140 N   0  0  0  0  0  0  0  0  0  0  0  0
  187.2770  177.3740  144.8610 O   0  0  0  0  0  0  0  0  0  0  0  0
  188.4560  177.2900  145.2980 C   0  0  0  0  0  0  0  0  0  0  0  0
  190.0560  177.0440  147.2130 C   0  0  0  0  0  1  0  0  0  0  0  0
  187.7460  177.7150  147.6670 N   0  0  0  0  0  2  0  0  0  0  0  0
  185.6020  179.1160  147.1440 C   0  0  0  0  0  3  0  0  0  0  0  0
  186.5950  178.4700  147.3830 C   0  0  0  0  0  0  0  0  0  0  0  0
  1  7  1  0  0  0  0
  2 24  1  0  0  0  0
  3 12  1  0  0  0  0
  4 25  1  0  0  0  0
  5 20  2  0  0  0  0
  6 15  2  0  0  0  0
  7 22  1  0  0  0  0
  8 13  1  6  0  0  0
  9 16  1  0  0  0  0
 10 23  1  0  0  0  0
 14 10  1  0  0  0  0
 14  3  2  0  0  0  0
 15  3  1  0  0  0  0
 15  4  1  0  0  0  0
 16 23  1  0  0  0  0
 16  7  2  0  0  0  0
 17  8  1  0  0  0  0
 17 11  1  1  0  0  0
 17 14  1  0  0  0  0
 18 24  1  0  0  0  0
 19  8  1  0  0  0  0
 19  6  1  0  0  0  0
 20 11  1  0  0  0  0
 20  9  1  0  0  0  0
 21  9  2  0  0  0  0
 21  1  1  0  0  0  0
 22 18  1  0  0  0  0
 23  2  2  0  0  0  0
 24 39  1  1  0  0  0
 26 28  1  0  0  0  0
 26 21  1  0  0  0  0
 27 31  1  0  0  0  0
 28 27  1  0  0  0  0
 29 28  2  0  0  0  0
 31 30  1  1  0  0  0
 32 31  1  6  0  0  0
 32 38  1  0  0  0  0
 33 34  1  0  0  0  0
 33 32  1  0  0  0  0
 35 33  1  0  0  0  0
 35 34  1  0  0  0  0
 38 36  1  1  0  0  0
 38 37  1  0  0  0  0
 39 40  1  0  0  0  0
 40 41  1  1  0  0  0
 40 42  1  0  0  0  0
 42 45  1  0  0  0  0
 43 46  1  0  0  0  0
 43 47  1  0  0  0  0
 44 45  2  0  0  0  0
 45 43  1  0  0  0  0
 48 49  3  0  0  0  0
 49 47  1  0  0  0  0
M  END
>  <MODEL>
3

>  <REMARK>
 VINA RESULT:      -7.0      1.799      2.775
  Name = 
  12 active torsions:
  status: ('A' for Active; 'I' for Inactive)
    1  A    between atoms: C_2  and  O_42
    2  A    between atoms: C_2  and  C_43
    3  A    between atoms: C_5  and  C_12
    4  A    between atoms: C_5  and  C_34
    5  A    between atoms: C_5  and  C_35
    6  A    between atoms: N_11  and  C_34
    7  A    between atoms: C_13  and  C_36
    8  A    between atoms: N_16  and  N_22
    9  A    between atoms: N_22  and  C_45
   10  A    between atoms: C_36  and  C_39
   11  A    between atoms: O_42  and  C_48
   12  A    between atoms: C_43  and  C_46
                            x       y       z     vdW  Elec       q    Type
                         _______ _______ _______ _____ _____    ______ ____

>  <TORSDO>
F 12

$$$$
=
 OpenBabel10232410553D

 49 53  0  0  1  0  0  0  0  0999 V2000
  185.7840  177.9190  137.4950 S   0  0  0  0  0  0  0  0  0  0  0  0
  190.0040  176.8600  139.2940 C   0  0  0  0  0  3  0  0  0  0  0  0
  192.6000  175.5020  137.2070 C   0  0  0  0  0  0  0  0  0  0  0  0
  194.6490  174.3730  138.1040 N   0  0  0  0  0  2  0  0  0  0  0  0
  188.2450  175.6560  134.3460 O   0  0  0  0  0  0  0  0  0  0  0  0
  193.4280  173.2920  136.4220 N   0  0  0  0  0  0  0  0  0  0  0  0
  187.2260  177.8770  138.3510 C   0  0  0  0  0  0  0  0  0  0  0  0
  191.0620  173.0850  136.0710 C   0  0  2  0  0  3  0  0  0  0  0  0
  187.6190  176.5710  136.4480 C   0  0  0  0  0  0  0  0  0  0  0  0
  190.5790  176.7770  136.9890 N   0  0  0  0  0  2  0  0  0  0  0  0
  189.1370  174.5890  136.2150 N   0  0  0  0  0  2  0  0  0  0  0  0
  193.1540  176.7360  137.8570 C   0  0  0  0  0  1  0  0  0  0  0  0
  190.1610  172.1270  135.3090 C   0  0  0  0  0  1  0  0  0  0  0  0
  191.3040  175.5540  136.7850 C   0  0  0  0  0  0  0  0  0  0  0  0
  193.5380  174.3300  137.1980 C   0  0  0  0  0  0  0  0  0  0  0  0
  188.1690  177.1140  137.6360 C   0  0  0  0  0  0  0  0  0  0  0  0
  190.5700  174.5150  135.9470 C   0  0  1  0  0  3  0  0  0  0  0  0
  188.5470  178.4490  140.3990 C   0  0  0  0  0  2  0  0  0  0  0  0
  192.4140  173.0510  135.4210 C   0  0  0  0  0  2  0  0  0  0  0  0
  188.3260  175.5930  135.6020 C   0  0  0  0  0  0  0  0  0  0  0  0
  186.3030  176.9690  136.2110 C   0  0  0  0  0  0  0  0  0  0  0  0
  187.3690  178.4880  139.6040 O   0  0  0  0  0  0  0  0  0  0  0  0
  189.5950  176.9120  138.0230 C   0  0  0  0  0  0  0  0  0  0  0  0
  189.1020  177.0400  140.4640 C   0  0  2  0  0  3  0  0  0  0  0  0
  195.6340  173.3050  138.1990 C   0  0  0  0  0  1  0  0  0  0  0  0
  185.4310  176.5050  135.0900 C   0  0  0  0  0  2  0  0  0  0  0  0
  183.2650  176.2100  136.3590 N   0  0  0  0  0  2  0  0  0  0  0  0
  184.0100  176.8800  135.3380 C   0  0  0  0  0  0  0  0  0  0  0  0
  183.4660  177.7630  134.6210 O   0  0  0  0  0  0  0  0  0  0  0  0
  181.1120  175.3140  136.4770 O   0  0  0  0  0  1  0  0  0  0  0  0
  181.8570  176.4890  136.6060 C   0  0  1  0  0  3  0  0  0  0  0  0
  181.6580  177.1160  137.9930 C   0  0  2  0  0  3  0  0  0  0  0  0
  181.9200  178.6460  137.9370 C   0  0  0  0  0  3  0  0  0  0  0  0
  180.6670  179.4730  138.1730 C   0  0  0  0  0  2  0  0  0  0  0  0
  181.2320  179.3350  136.7720 C   0  0  0  0  0  2  0  0  0  0  0  0
  183.0420  177.2670  140.0870 C   0  0  0  0  0  1  0  0  0  0  0  0
  181.4830  175.5090  139.8120 O   0  0  0  0  0  1  0  0  0  0  0  0
  182.3780  176.3180  139.1060 C   0  0  1  0  0  3  0  0  0  0  0  0
  189.8340  176.8820  141.6430 O   0  0  0  0  0  0  0  0  0  0  0  0
  189.1600  177.6540  142.5930 C   0  0  1  0  0  3  0  0  0  0  0  0
  188.2230  176.8680  143.2670 O   0  0  0  0  0  1  0  0  0  0  0  0
  190.1440  178.2880  143.5770 C   0  0  0  0  0  2  0  0  0  0  0  0
  190.7880  176.7480  145.5180 N   0  0  0  0  0  0  0  0  0  0  0  0
  189.0290  178.3050  145.6750 O   0  0  0  0  0  0  0  0  0  0  0  0
  189.9500  177.7960  144.9820 C   0  0  0  0  0  0  0  0  0  0  0  0
  191.6860  176.0200  144.6340 C   0  0  0  0  0  1  0  0  0  0  0  0
  190.7490  176.3490  146.8710 N   0  0  0  0  0  2  0  0  0  0  0  0
  192.8690  175.8750  148.3260 C   0  0  0  0  0  3  0  0  0  0  0  0
  191.8860  176.0950  147.6560 C   0  0  0  0  0  0  0  0  0  0  0  0
  1  7  1  0  0  0  0
  2 24  1  0  0  0  0
  3 12  1  0  0  0  0
  4 25  1  0  0  0  0
  5 20  2  0  0  0  0
  6 15  2  0  0  0  0
  7 22  1  0  0  0  0
  8 13  1  6  0  0  0
  9 16  1  0  0  0  0
 10 23  1  0  0  0  0
 14 10  1  0  0  0  0
 14  3  2  0  0  0  0
 15  3  1  0  0  0  0
 15  4  1  0  0  0  0
 16 23  1  0  0  0  0
 16  7  2  0  0  0  0
 17  8  1  0  0  0  0
 17 11  1  1  0  0  0
 17 14  1  0  0  0  0
 18 24  1  0  0  0  0
 19  8  1  0  0  0  0
 19  6  1  0  0  0  0
 20 11  1  0  0  0  0
 20  9  1  0  0  0  0
 21  9  2  0  0  0  0
 21  1  1  0  0  0  0
 22 18  1  0  0  0  0
 23  2  2  0  0  0  0
 24 39  1  1  0  0  0
 26 28  1  0  0  0  0
 26 21  1  0  0  0  0
 27 31  1  0  0  0  0
 28 27  1  0  0  0  0
 29 28  2  0  0  0  0
 31 30  1  1  0  0  0
 32 31  1  6  0  0  0
 32 38  1  0  0  0  0
 33 32  1  0  0  0  0
 33 34  1  0  0  0  0
 35 33  1  0  0  0  0
 35 34  1  0  0  0  0
 38 37  1  0  0  0  0
 38 36  1  1  0  0  0
 39 40  1  0  0  0  0
 40 41  1  1  0  0  0
 40 42  1  0  0  0  0
 42 45  1  0  0  0  0
 43 47  1  0  0  0  0
 45 43  1  0  0  0  0
 45 44  2  0  0  0  0
 46 43  1  0  0  0  0
 47 49  1  0  0  0  0
 49 48  3  0  0  0  0
M  END
>  <MODEL>
4

>  <REMARK>
 VINA RESULT:      -7.0      2.462      3.511
  Name = 
  12 active torsions:
  status: ('A' for Active; 'I' for Inactive)
    1  A    between atoms: C_2  and  O_42
    2  A    between atoms: C_2  and  C_43
    3  A    between atoms: C_5  and  C_12
    4  A    between atoms: C_5  and  C_34
    5  A    between atoms: C_5  and  C_35
    6  A    between atoms: N_11  and  C_34
    7  A    between atoms: C_13  and  C_36
    8  A    between atoms: N_16  and  N_22
    9  A    between atoms: N_22  and  C_45
   10  A    between atoms: C_36  and  C_39
   11  A    between atoms: O_42  and  C_48
   12  A    between atoms: C_43  and  C_46
                            x       y       z     vdW  Elec       q    Type
                         _______ _______ _______ _____ _____    ______ ____

>  <TORSDO>
F 12

$$$$
=
 OpenBabel10232410553D

 49 53  0  0  1  0  0  0  0  0999 V2000
  191.4220  176.1830  136.0910 S   0  0  0  0  0  0  0  0  0  0  0  0
  187.2790  176.8000  138.2380 C   0  0  0  0  0  3  0  0  0  0  0  0
  187.0990  178.4090  141.4500 C   0  0  0  0  0  0  0  0  0  0  0  0
  185.0920  178.2930  142.9470 N   0  0  0  0  0  2  0  0  0  0  0  0
  192.1470  177.6890  140.3680 O   0  0  0  0  0  0  0  0  0  0  0  0
  187.1940  177.8200  143.8650 N   0  0  0  0  0  0  0  0  0  0  0  0
  189.8170  176.4750  136.4810 C   0  0  0  0  0  0  0  0  0  0  0  0
  189.0650  176.6000  142.9840 C   0  0  2  0  0  3  0  0  0  0  0  0
  190.9960  176.8380  138.4720 C   0  0  0  0  0  0  0  0  0  0  0  0
  188.5820  178.2760  139.5690 N   0  0  0  0  0  2  0  0  0  0  0  0
  190.2100  176.4770  140.8250 N   0  0  0  0  0  2  0  0  0  0  0  0
  186.1990  179.1720  140.5220 C   0  0  0  0  0  1  0  0  0  0  0  0
  190.2720  175.8920  143.5790 C   0  0  0  0  0  1  0  0  0  0  0  0
  188.2860  177.9710  140.9410 C   0  0  0  0  0  0  0  0  0  0  0  0
  186.5120  178.1490  142.8080 C   0  0  0  0  0  0  0  0  0  0  0  0
  189.7310  176.8600  137.8320 C   0  0  0  0  0  0  0  0  0  0  0  0
  189.4380  177.3400  141.7130 C   0  0  1  0  0  3  0  0  0  0  0  0
  187.3980  176.4730  135.8410 C   0  0  0  0  0  2  0  0  0  0  0  0
  188.6260  177.6490  143.9640 C   0  0  0  0  0  2  0  0  0  0  0  0
  191.1730  177.0250  139.9230 C   0  0  0  0  0  0  0  0  0  0  0  0
  192.0470  176.5190  137.6130 C   0  0  0  0  0  0  0  0  0  0  0  0
  188.7780  176.2890  135.5590 O   0  0  0  0  0  0  0  0  0  0  0  0
  188.4860  177.2880  138.5350 C   0  0  0  0  0  0  0  0  0  0  0  0
  187.0260  175.8130  137.1540 C   0  0  2  0  0  3  0  0  0  0  0  0
  184.3940  178.0710  144.2040 C   0  0  0  0  0  1  0  0  0  0  0  0
  193.4790  176.3410  138.0020 C   0  0  0  0  0  2  0  0  0  0  0  0
  195.1140  175.1820  136.4620 N   0  0  0  0  0  2  0  0  0  0  0  0
  194.0380  175.0970  137.4010 C   0  0  0  0  0  0  0  0  0  0  0  0
  193.5340  173.9810  137.7010 O   0  0  0  0  0  0  0  0  0  0  0  0
  195.7720  174.2510  134.4240 O   0  0  0  0  0  1  0  0  0  0  0  0
  195.6600  174.0070  135.7960 C   0  0  1  0  0  3  0  0  0  0  0  0
  197.0180  173.6180  136.3970 C   0  0  2  0  0  3  0  0  0  0  0  0
  196.8570  172.4070  137.3560 C   0  0  0  0  0  3  0  0  0  0  0  0
  197.6800  171.2010  136.9350 C   0  0  0  0  0  2  0  0  0  0  0  0
  196.1790  171.2110  136.7130 C   0  0  0  0  0  2  0  0  0  0  0  0
  198.1060  174.6650  138.4090 C   0  0  0  0  0  1  0  0  0  0  0  0
  198.9980  175.0240  136.2480 O   0  0  0  0  0  1  0  0  0  0  0  0
  197.7940  174.8440  136.9340 C   0  0  1  0  0  3  0  0  0  0  0  0
  185.6700  175.4770  137.1380 O   0  0  0  0  0  0  0  0  0  0  0  0
  185.4650  174.8610  135.9010 C   0  0  1  0  0  3  0  0  0  0  0  0
  185.7720  173.5010  135.9900 O   0  0  0  0  0  1  0  0  0  0  0  0
  184.0260  175.0610  135.4240 C   0  0  0  0  0  2  0  0  0  0  0  0
  182.3450  175.4130  137.3230 N   0  0  0  0  0  0  0  0  0  0  0  0
  183.3630  177.2100  136.1930 O   0  0  0  0  0  0  0  0  0  0  0  0
  183.2390  175.9630  136.3300 C   0  0  0  0  0  0  0  0  0  0  0  0
  182.0440  173.9890  137.3120 C   0  0  0  0  0  1  0  0  0  0  0  0
  181.6950  176.2030  138.2950 N   0  0  0  0  0  2  0  0  0  0  0  0
  182.9000  177.3140  140.3320 C   0  0  0  0  0  3  0  0  0  0  0  0
  182.3400  176.8010  139.3910 C   0  0  0  0  0  0  0  0  0  0  0  0
  1  7  1  0  0  0  0
  1 21  1  0  0  0  0
  2 23  2  0  0  0  0
  3 15  1  0  0  0  0
  4 25  1  0  0  0  0
  6 19  1  0  0  0  0
  7 16  2  0  0  0  0
  8 13  1  1  0  0  0
  8 19  1  0  0  0  0
  9 20  1  0  0  0  0
 10 14  1  0  0  0  0
 12  3  1  0  0  0  0
 14  3  2  0  0  0  0
 14 17  1  0  0  0  0
 15  4  1  0  0  0  0
 15  6  2  0  0  0  0
 16  9  1  0  0  0  0
 16 23  1  0  0  0  0
 17 11  1  6  0  0  0
 17  8  1  0  0  0  0
 18 24  1  0  0  0  0
 20  5  2  0  0  0  0
 20 11  1  0  0  0  0
 21 26  1  0  0  0  0
 21  9  2  0  0  0  0
 22 18  1  0  0  0  0
 22  7  1  0  0  0  0
 23 10  1  0  0  0  0
 24 39  1  6  0  0  0
 24  2  1  0  0  0  0
 27 28  1  0  0  0  0
 28 29  2  0  0  0  0
 28 26  1  0  0  0  0
 31 30  1  6  0  0  0
 31 27  1  0  0  0  0
 32 31  1  1  0  0  0
 32 38  1  0  0  0  0
 32 33  1  0  0  0  0
 34 33  1  0  0  0  0
 35 34  1  0  0  0  0
 35 33  1  0  0  0  0
 37 38  1  0  0  0  0
 38 36  1  1  0  0  0
 40 41  1  1  0  0  0
 40 39  1  0  0  0  0
 42 40  1  0  0  0  0
 42 45  1  0  0  0  0
 43 47  1  0  0  0  0
 44 45  2  0  0  0  0
 45 43  1  0  0  0  0
 46 43  1  0  0  0  0
 47 49  1  0  0  0  0
 49 48  3  0  0  0  0
M  END
>  <MODEL>
5

>  <REMARK>
 VINA RESULT:      -6.6      3.461     10.266
  Name = 
  12 active torsions:
  status: ('A' for Active; 'I' for Inactive)
    1  A    between atoms: C_2  and  O_42
    2  A    between atoms: C_2  and  C_43
    3  A    between atoms: C_5  and  C_12
    4  A    between atoms: C_5  and  C_34
    5  A    between atoms: C_5  and  C_35
    6  A    between atoms: N_11  and  C_34
    7  A    between atoms: C_13  and  C_36
    8  A    between atoms: N_16  and  N_22
    9  A    between atoms: N_22  and  C_45
   10  A    between atoms: C_36  and  C_39
   11  A    between atoms: O_42  and  C_48
   12  A    between atoms: C_43  and  C_46
                            x       y       z     vdW  Elec       q    Type
                         _______ _______ _______ _____ _____    ______ ____

>  <TORSDO>
F 12

$$$$
=
 OpenBabel10232410553D

 49 53  0  0  1  0  0  0  0  0999 V2000
  185.8790  178.3010  138.2260 S   0  0  0  0  0  0  0  0  0  0  0  0
  190.1840  177.0410  139.6540 C   0  0  0  0  0  3  0  0  0  0  0  0
  192.5230  175.5690  137.3520 C   0  0  0  0  0  0  0  0  0  0  0  0
  194.5870  174.3420  138.0700 N   0  0  0  0  0  2  0  0  0  0  0  0
  187.9480  175.9340  134.8790 O   0  0  0  0  0  0  0  0  0  0  0  0
  193.1760  173.3250  136.5010 N   0  0  0  0  0  0  0  0  0  0  0  0
  187.3850  178.1890  138.9550 C   0  0  0  0  0  0  0  0  0  0  0  0
  190.7820  173.2300  136.3570 C   0  0  2  0  0  3  0  0  0  0  0  0
  187.5500  176.8710  137.0260 C   0  0  0  0  0  0  0  0  0  0  0  0
  190.5530  176.9370  137.3090 N   0  0  0  0  0  2  0  0  0  0  0  0
  188.9480  174.8220  136.6650 N   0  0  0  0  0  2  0  0  0  0  0  0
  193.1890  176.7740  137.9500 C   0  0  0  0  0  1  0  0  0  0  0  0
  189.7740  172.3170  135.6770 C   0  0  0  0  0  1  0  0  0  0  0  0
  191.1990  175.6830  137.0440 C   0  0  0  0  0  0  0  0  0  0  0  0
  193.4010  174.3540  137.2630 C   0  0  0  0  0  0  0  0  0  0  0  0
  188.2260  177.3850  138.1610 C   0  0  0  0  0  0  0  0  0  0  0  0
  190.3470  174.6810  136.2740 C   0  0  1  0  0  3  0  0  0  0  0  0
  188.9040  178.6930  140.8790 C   0  0  0  0  0  2  0  0  0  0  0  0
  192.0690  173.1340  135.5920 C   0  0  0  0  0  2  0  0  0  0  0  0
  188.1350  175.8640  136.1230 C   0  0  0  0  0  0  0  0  0  0  0  0
  186.2400  177.3310  136.9030 C   0  0  0  0  0  0  0  0  0  0  0  0
  187.6650  178.7900  140.1900 O   0  0  0  0  0  0  0  0  0  0  0  0
  189.6700  177.1150  138.4230 C   0  0  0  0  0  0  0  0  0  0  0  0
  189.3970  177.2600  140.8980 C   0  0  2  0  0  3  0  0  0  0  0  0
  195.5250  173.2300  138.0810 C   0  0  0  0  0  1  0  0  0  0  0  0
  185.2530  176.9120  135.8630 C   0  0  0  0  0  2  0  0  0  0  0  0
  184.1440  174.6560  135.6020 N   0  0  0  0  0  2  0  0  0  0  0  0
  184.3640  175.8330  136.3830 C   0  0  0  0  0  0  0  0  0  0  0  0
  183.7880  175.9850  137.4930 O   0  0  0  0  0  0  0  0  0  0  0  0
  182.0810  173.6200  135.2460 O   0  0  0  0  0  1  0  0  0  0  0  0
  183.2390  173.5970  136.0290 C   0  0  1  0  0  3  0  0  0  0  0  0
  183.9260  172.2260  135.9530 C   0  0  2  0  0  3  0  0  0  0  0  0
  184.9140  172.1830  134.7550 C   0  0  0  0  0  3  0  0  0  0  0  0
  186.1340  171.3160  135.0210 C   0  0  0  0  0  2  0  0  0  0  0  0
  186.2550  172.8280  135.0530 C   0  0  0  0  0  2  0  0  0  0  0  0
  183.6570  169.7400  136.2280 C   0  0  0  0  0  1  0  0  0  0  0  0
  182.0840  171.2240  137.1860 O   0  0  0  0  0  1  0  0  0  0  0  0
  182.9180  171.0580  136.0780 C   0  0  1  0  0  3  0  0  0  0  0  0
  190.2200  177.0640  142.0090 O   0  0  0  0  0  0  0  0  0  0  0  0
  189.4930  176.2200  142.8520 C   0  0  1  0  0  3  0  0  0  0  0  0
  190.1490  174.9930  142.9780 O   0  0  0  0  0  1  0  0  0  0  0  0
  189.2840  176.8660  144.2230 C   0  0  0  0  0  2  0  0  0  0  0  0
  187.4260  177.6860  145.7820 N   0  0  0  0  0  0  0  0  0  0  0  0
  187.0150  177.0660  143.5480 O   0  0  0  0  0  0  0  0  0  0  0  0
  187.8470  177.2140  144.4820 C   0  0  0  0  0  0  0  0  0  0  0  0
  188.3510  177.6300  146.9030 C   0  0  0  0  0  1  0  0  0  0  0  0
  186.1240  178.1650  146.0400 N   0  0  0  0  0  2  0  0  0  0  0  0
  184.6150  179.3740  144.2790 C   0  0  0  0  0  3  0  0  0  0  0  0
  185.3140  178.8130  145.0910 C   0  0  0  0  0  0  0  0  0  0  0  0
  1  7  1  0  0  0  0
  2 24  1  0  0  0  0
  3 12  1  0  0  0  0
  4 25  1  0  0  0  0
  5 20  2  0  0  0  0
  6 15  2  0  0  0  0
  7 22  1  0  0  0  0
  8 13  1  6  0  0  0
  9 16  1  0  0  0  0
 10 23  1  0  0  0  0
 14 10  1  0  0  0  0
 14  3  2  0  0  0  0
 15  3  1  0  0  0  0
 15  4  1  0  0  0  0
 16 23  1  0  0  0  0
 16  7  2  0  0  0  0
 17  8  1  0  0  0  0
 17 11  1  1  0  0  0
 17 14  1  0  0  0  0
 18 24  1  0  0  0  0
 19  8  1  0  0  0  0
 19  6  1  0  0  0  0
 20 11  1  0  0  0  0
 20  9  1  0  0  0  0
 21  9  2  0  0  0  0
 21  1  1  0  0  0  0
 22 18  1  0  0  0  0
 23  2  2  0  0  0  0
 24 39  1  1  0  0  0
 26 28  1  0  0  0  0
 26 21  1  0  0  0  0
 27 31  1  0  0  0  0
 27 28  1  0  0  0  0
 28 29  2  0  0  0  0
 31 30  1  6  0  0  0
 32 31  1  6  0  0  0
 32 38  1  0  0  0  0
 33 34  1  0  0  0  0
 33 35  1  0  0  0  0
 33 32  1  0  0  0  0
 34 35  1  0  0  0  0
 38 36  1  1  0  0  0
 38 37  1  0  0  0  0
 39 40  1  0  0  0  0
 40 41  1  1  0  0  0
 40 42  1  0  0  0  0
 42 45  1  0  0  0  0
 43 47  1  0  0  0  0
 43 46  1  0  0  0  0
 44 45  2  0  0  0  0
 45 43  1  0  0  0  0
 48 49  3  0  0  0  0
 49 47  1  0  0  0  0
M  END
>  <MODEL>
6

>  <REMARK>
 VINA RESULT:      -6.6      1.720      2.353
  Name = 
  12 active torsions:
  status: ('A' for Active; 'I' for Inactive)
    1  A    between atoms: C_2  and  O_42
    2  A    between atoms: C_2  and  C_43
    3  A    between atoms: C_5  and  C_12
    4  A    between atoms: C_5  and  C_34
    5  A    between atoms: C_5  and  C_35
    6  A    between atoms: N_11  and  C_34
    7  A    between atoms: C_13  and  C_36
    8  A    between atoms: N_16  and  N_22
    9  A    between atoms: N_22  and  C_45
   10  A    between atoms: C_36  and  C_39
   11  A    between atoms: O_42  and  C_48
   12  A    between atoms: C_43  and  C_46
                            x       y       z     vdW  Elec       q    Type
                         _______ _______ _______ _____ _____    ______ ____

>  <TORSDO>
F 12

$$$$
=
 OpenBabel10232410553D

 49 53  0  0  1  0  0  0  0  0999 V2000
  186.3280  177.9360  136.2750 S   0  0  0  0  0  0  0  0  0  0  0  0
  183.9910  178.0070  140.3610 C   0  0  0  0  0  3  0  0  0  0  0  0
  185.6470  178.9760  143.4040 C   0  0  0  0  0  0  0  0  0  0  0  0
  184.7250  178.5160  145.6890 N   0  0  0  0  0  2  0  0  0  0  0  0
  189.3020  178.6300  139.7040 O   0  0  0  0  0  0  0  0  0  0  0  0
  186.9540  177.9450  145.2520 N   0  0  0  0  0  0  0  0  0  0  0  0
  185.1950  178.0990  137.5010 C   0  0  0  0  0  0  0  0  0  0  0  0
  187.9860  176.9720  143.3160 C   0  0  2  0  0  3  0  0  0  0  0  0
  187.2670  178.1170  138.5910 C   0  0  0  0  0  0  0  0  0  0  0  0
  185.9050  179.2460  141.0340 N   0  0  0  0  0  2  0  0  0  0  0  0
  187.8120  177.2940  140.8960 N   0  0  0  0  0  2  0  0  0  0  0  0
  184.4530  179.8720  143.2450 C   0  0  0  0  0  1  0  0  0  0  0  0
  189.2690  176.2030  143.0450 C   0  0  0  0  0  1  0  0  0  0  0  0
  186.3530  178.6790  142.2750 C   0  0  0  0  0  0  0  0  0  0  0  0
  185.8440  178.4460  144.7960 C   0  0  0  0  0  0  0  0  0  0  0  0
  185.8600  178.2200  138.7350 C   0  0  0  0  0  0  0  0  0  0  0  0
  187.6880  177.9500  142.1940 C   0  0  1  0  0  3  0  0  0  0  0  0
  182.8080  178.1430  138.2520 C   0  0  0  0  0  2  0  0  0  0  0  0
  188.2060  177.8030  144.5460 C   0  0  0  0  0  2  0  0  0  0  0  0
  188.1940  178.0330  139.7340 C   0  0  0  0  0  0  0  0  0  0  0  0
  187.6830  177.9980  137.2650 C   0  0  0  0  0  0  0  0  0  0  0  0
  183.8150  178.0580  137.2540 O   0  0  0  0  0  0  0  0  0  0  0  0
  185.2070  178.4690  140.0530 C   0  0  0  0  0  0  0  0  0  0  0  0
  183.1340  177.2360  139.4220 C   0  0  2  0  0  3  0  0  0  0  0  0
  184.7780  178.0400  147.0630 C   0  0  0  0  0  1  0  0  0  0  0  0
  189.0870  177.7950  136.7980 C   0  0  0  0  0  2  0  0  0  0  0  0
  188.9440  175.2830  137.0380 N   0  0  0  0  0  2  0  0  0  0  0  0
  189.2630  176.4240  136.2390 C   0  0  0  0  0  0  0  0  0  0  0  0
  189.7260  176.2840  135.0740 O   0  0  0  0  0  0  0  0  0  0  0  0
  190.1140  173.2880  137.3630 O   0  0  0  0  0  1  0  0  0  0  0  0
  189.1530  173.9200  136.5690 C   0  0  1  0  0  3  0  0  0  0  0  0
  187.8360  173.1320  136.5700 C   0  0  2  0  0  3  0  0  0  0  0  0
  187.6520  172.3860  135.2190 C   0  0  0  0  0  3  0  0  0  0  0  0
  187.1430  170.9640  135.3890 C   0  0  0  0  0  2  0  0  0  0  0  0
  188.5990  171.2140  135.0410 C   0  0  0  0  0  2  0  0  0  0  0  0
  185.7760  174.4140  135.9070 C   0  0  0  0  0  1  0  0  0  0  0  0
  185.8510  173.2600  137.9710 O   0  0  0  0  0  1  0  0  0  0  0  0
  186.6450  173.9810  137.0740 C   0  0  1  0  0  3  0  0  0  0  0  0
  181.9520  176.8660  140.0680 O   0  0  0  0  0  0  0  0  0  0  0  0
  181.6410  175.6040  139.5580 C   0  0  1  0  0  3  0  0  0  0  0  0
  180.6570  175.0010  140.3460 O   0  0  0  0  0  1  0  0  0  0  0  0
  181.1830  175.7020  138.1020 C   0  0  0  0  0  2  0  0  0  0  0  0
  181.8760  174.2570  136.1050 N   0  0  0  0  0  0  0  0  0  0  0  0
  180.6800  173.3860  137.9360 O   0  0  0  0  0  0  0  0  0  0  0  0
  181.2310  174.3800  137.3920 C   0  0  0  0  0  0  0  0  0  0  0  0
  182.3000  175.4540  135.3950 C   0  0  0  0  0  1  0  0  0  0  0  0
  182.0800  173.0170  135.4630 N   0  0  0  0  0  2  0  0  0  0  0  0
  183.5900  171.1030  136.4070 C   0  0  0  0  0  3  0  0  0  0  0  0
  182.8900  171.9860  135.9680 C   0  0  0  0  0  0  0  0  0  0  0  0
  1 21  1  0  0  0  0
  1  7  1  0  0  0  0
  3 15  1  0  0  0  0
  4 25  1  0  0  0  0
  5 20  2  0  0  0  0
  7 16  2  0  0  0  0
  8 13  1  6  0  0  0
  8 19  1  0  0  0  0
  9 16  1  0  0  0  0
  9 20  1  0  0  0  0
 10 14  1  0  0  0  0
 12  3  1  0  0  0  0
 14  3  2  0  0  0  0
 15  6  2  0  0  0  0
 15  4  1  0  0  0  0
 16 23  1  0  0  0  0
 17 11  1  6  0  0  0
 17 14  1  0  0  0  0
 17  8  1  0  0  0  0
 18 24  1  0  0  0  0
 19  6  1  0  0  0  0
 20 11  1  0  0  0  0
 21  9  2  0  0  0  0
 22  7  1  0  0  0  0
 22 18  1  0  0  0  0
 23  2  2  0  0  0  0
 23 10  1  0  0  0  0
 24 39  1  1  0  0  0
 24  2  1  0  0  0  0
 26 21  1  0  0  0  0
 28 26  1  0  0  0  0
 28 27  1  0  0  0  0
 29 28  2  0  0  0  0
 31 27  1  0  0  0  0
 31 30  1  1  0  0  0
 32 31  1  6  0  0  0
 32 38  1  0  0  0  0
 33 34  1  0  0  0  0
 33 32  1  0  0  0  0
 35 33  1  0  0  0  0
 35 34  1  0  0  0  0
 38 36  1  6  0  0  0
 38 37  1  0  0  0  0
 40 39  1  0  0  0  0
 40 41  1  1  0  0  0
 42 40  1  0  0  0  0
 43 45  1  0  0  0  0
 45 44  2  0  0  0  0
 45 42  1  0  0  0  0
 46 43  1  0  0  0  0
 47 49  1  0  0  0  0
 47 43  1  0  0  0  0
 49 48  3  0  0  0  0
M  END
>  <MODEL>
7

>  <REMARK>
 VINA RESULT:      -6.5      2.411      8.675
  Name = 
  12 active torsions:
  status: ('A' for Active; 'I' for Inactive)
    1  A    between atoms: C_2  and  O_42
    2  A    between atoms: C_2  and  C_43
    3  A    between atoms: C_5  and  C_12
    4  A    between atoms: C_5  and  C_34
    5  A    between atoms: C_5  and  C_35
    6  A    between atoms: N_11  and  C_34
    7  A    between atoms: C_13  and  C_36
    8  A    between atoms: N_16  and  N_22
    9  A    between atoms: N_22  and  C_45
   10  A    between atoms: C_36  and  C_39
   11  A    between atoms: O_42  and  C_48
   12  A    between atoms: C_43  and  C_46
                            x       y       z     vdW  Elec       q    Type
                         _______ _______ _______ _____ _____    ______ ____

>  <TORSDO>
F 12

$$$$
=
 OpenBabel10232410553D

 49 53  0  0  1  0  0  0  0  0999 V2000
  190.1050  176.5800  135.7770 S   0  0  0  0  0  0  0  0  0  0  0  0
  186.1680  177.3010  138.2550 C   0  0  0  0  0  3  0  0  0  0  0  0
  186.3140  178.7020  141.5650 C   0  0  0  0  0  0  0  0  0  0  0  0
  184.4110  178.6070  143.1940 N   0  0  0  0  0  2  0  0  0  0  0  0
  191.2180  177.7520  140.0760 O   0  0  0  0  0  0  0  0  0  0  0  0
  186.5370  177.9500  143.9250 N   0  0  0  0  0  0  0  0  0  0  0  0
  188.5530  176.9420  136.3010 C   0  0  0  0  0  0  0  0  0  0  0  0
  188.2600  176.6800  142.8370 C   0  0  2  0  0  3  0  0  0  0  0  0
  189.8870  177.1010  138.2190 C   0  0  0  0  0  0  0  0  0  0  0  0
  187.6520  178.6050  139.5760 N   0  0  0  0  0  2  0  0  0  0  0  0
  189.2430  176.6320  140.5960 N   0  0  0  0  0  2  0  0  0  0  0  0
  185.4030  179.5780  140.7540 C   0  0  0  0  0  1  0  0  0  0  0  0
  189.4560  175.8630  143.2970 C   0  0  0  0  0  1  0  0  0  0  0  0
  187.4320  178.2280  140.9440 C   0  0  0  0  0  0  0  0  0  0  0  0
  185.8060  178.3880  142.9430 C   0  0  0  0  0  0  0  0  0  0  0  0
  188.5850  177.2410  137.6760 C   0  0  0  0  0  0  0  0  0  0  0  0
  188.5910  177.4790  141.5900 C   0  0  1  0  0  3  0  0  0  0  0  0
  186.1000  177.1280  135.8400 C   0  0  0  0  0  2  0  0  0  0  0  0
  187.9580  177.6860  143.9090 C   0  0  0  0  0  2  0  0  0  0  0  0
  190.1750  177.1800  139.6620 C   0  0  0  0  0  0  0  0  0  0  0  0
  190.8540  176.7760  137.2680 C   0  0  0  0  0  0  0  0  0  0  0  0
  187.4430  176.8800  135.4470 O   0  0  0  0  0  0  0  0  0  0  0  0
  187.4220  177.6960  138.4930 C   0  0  0  0  0  0  0  0  0  0  0  0
  185.7770  176.4060  137.1330 C   0  0  2  0  0  3  0  0  0  0  0  0
  183.7880  178.3450  144.4830 C   0  0  0  0  0  1  0  0  0  0  0  0
  192.2940  176.4870  137.5400 C   0  0  0  0  0  2  0  0  0  0  0  0
  193.7420  174.6660  136.5520 N   0  0  0  0  0  2  0  0  0  0  0  0
  192.5930  175.0440  137.3160 C   0  0  0  0  0  0  0  0  0  0  0  0
  191.8110  174.1690  137.7740 O   0  0  0  0  0  0  0  0  0  0  0  0
  194.0660  173.0850  134.8640 O   0  0  0  0  0  1  0  0  0  0  0  0
  194.0520  173.2760  136.2480 C   0  0  1  0  0  3  0  0  0  0  0  0
  195.3930  172.8640  136.8720 C   0  0  2  0  0  3  0  0  0  0  0  0
  195.2130  171.5990  137.7550 C   0  0  0  0  0  3  0  0  0  0  0  0
  195.9450  170.3840  137.2090 C   0  0  0  0  0  2  0  0  0  0  0  0
  194.4380  170.4890  137.0690 C   0  0  0  0  0  2  0  0  0  0  0  0
  196.0410  174.0060  139.0180 C   0  0  0  0  0  1  0  0  0  0  0  0
  197.4900  174.0660  137.1490 O   0  0  0  0  0  1  0  0  0  0  0  0
  196.1380  174.0640  137.5040 C   0  0  1  0  0  3  0  0  0  0  0  0
  184.4050  176.1540  137.1960 O   0  0  0  0  0  0  0  0  0  0  0  0
  184.2630  174.8250  136.7890 C   0  0  1  0  0  3  0  0  0  0  0  0
  183.9330  174.7750  135.4320 O   0  0  0  0  0  1  0  0  0  0  0  0
  185.5410  174.0310  137.0650 C   0  0  0  0  0  2  0  0  0  0  0  0
  186.4370  172.3880  135.3170 N   0  0  0  0  0  0  0  0  0  0  0  0
  184.7100  171.8190  136.8120 O   0  0  0  0  0  0  0  0  0  0  0  0
  185.5340  172.6820  136.4060 C   0  0  0  0  0  0  0  0  0  0  0  0
  187.2140  173.4620  134.7160 C   0  0  0  0  0  1  0  0  0  0  0  0
  186.5770  171.0990  134.7610 N   0  0  0  0  0  2  0  0  0  0  0  0
  188.3230  169.3280  135.5670 C   0  0  0  0  0  3  0  0  0  0  0  0
  187.5170  170.1470  135.1910 C   0  0  0  0  0  0  0  0  0  0  0  0
  1  7  1  0  0  0  0
  1 21  1  0  0  0  0
  2 23  2  0  0  0  0
  3 15  1  0  0  0  0
  4 25  1  0  0  0  0
  7 16  2  0  0  0  0
  8 13  1  1  0  0  0
  8 19  1  0  0  0  0
  9 20  1  0  0  0  0
 10 14  1  0  0  0  0
 12  3  1  0  0  0  0
 14  3  2  0  0  0  0
 14 17  1  0  0  0  0
 15  4  1  0  0  0  0
 15  6  2  0  0  0  0
 16  9  1  0  0  0  0
 16 23  1  0  0  0  0
 17 11  1  6  0  0  0
 17  8  1  0  0  0  0
 18 24  1  0  0  0  0
 19  6  1  0  0  0  0
 20  5  2  0  0  0  0
 20 11  1  0  0  0  0
 21 26  1  0  0  0  0
 21  9  2  0  0  0  0
 22 18  1  0  0  0  0
 22  7  1  0  0  0  0
 23 10  1  0  0  0  0
 24 39  1  6  0  0  0
 24  2  1  0  0  0  0
 27 28  1  0  0  0  0
 28 26  1  0  0  0  0
 28 29  2  0  0  0  0
 31 30  1  6  0  0  0
 31 27  1  0  0  0  0
 32 31  1  1  0  0  0
 32 38  1  0  0  0  0
 32 33  1  0  0  0  0
 34 33  1  0  0  0  0
 35 34  1  0  0  0  0
 35 33  1  0  0  0  0
 37 38  1  0  0  0  0
 38 36  1  1  0  0  0
 40 41  1  6  0  0  0
 40 42  1  0  0  0  0
 40 39  1  0  0  0  0
 43 45  1  0  0  0  0
 45 44  2  0  0  0  0
 45 42  1  0  0  0  0
 46 43  1  0  0  0  0
 47 49  1  0  0  0  0
 47 43  1  0  0  0  0
 49 48  3  0  0  0  0
M  END
>  <MODEL>
8

>  <REMARK>
 VINA RESULT:      -6.3      3.087     10.080
  Name = 
  12 active torsions:
  status: ('A' for Active; 'I' for Inactive)
    1  A    between atoms: C_2  and  O_42
    2  A    between atoms: C_2  and  C_43
    3  A    between atoms: C_5  and  C_12
    4  A    between atoms: C_5  and  C_34
    5  A    between atoms: C_5  and  C_35
    6  A    between atoms: N_11  and  C_34
    7  A    between atoms: C_13  and  C_36
    8  A    between atoms: N_16  and  N_22
    9  A    between atoms: N_22  and  C_45
   10  A    between atoms: C_36  and  C_39
   11  A    between atoms: O_42  and  C_48
   12  A    between atoms: C_43  and  C_46
                            x       y       z     vdW  Elec       q    Type
                         _______ _______ _______ _____ _____    ______ ____

>  <TORSDO>
F 12

$$$$
=
 OpenBabel10232410553D

 49 53  0  0  1  0  0  0  0  0999 V2000
  191.4110  175.6770  138.1450 S   0  0  0  0  0  0  0  0  0  0  0  0
  187.3130  174.8000  136.0020 C   0  0  0  0  0  3  0  0  0  0  0  0
  184.7560  177.3250  135.8280 C   0  0  0  0  0  0  0  0  0  0  0  0
  182.3660  176.8380  135.2520 N   0  0  0  0  0  2  0  0  0  0  0  0
  188.5140  179.1480  138.9470 O   0  0  0  0  0  0  0  0  0  0  0  0
  182.8120  178.1370  137.1500 N   0  0  0  0  0  0  0  0  0  0  0  0
  190.1850  175.1610  137.1240 C   0  0  0  0  0  0  0  0  0  0  0  0
  184.5080  177.9390  138.8370 C   0  0  2  0  0  3  0  0  0  0  0  0
  189.2980  177.0210  138.2380 C   0  0  0  0  0  0  0  0  0  0  0  0
  187.1290  177.1650  136.1470 N   0  0  0  0  0  2  0  0  0  0  0  0
  186.9090  177.4630  138.8540 N   0  0  0  0  0  2  0  0  0  0  0  0
  185.0470  176.8920  134.4200 C   0  0  0  0  0  1  0  0  0  0  0  0
  184.6710  178.4210  140.2700 C   0  0  0  0  0  1  0  0  0  0  0  0
  185.8220  177.4500  136.6700 C   0  0  0  0  0  0  0  0  0  0  0  0
  183.2950  177.4700  136.1430 C   0  0  0  0  0  0  0  0  0  0  0  0
  189.0780  176.0200  137.2580 C   0  0  0  0  0  0  0  0  0  0  0  0
  185.8160  178.0390  138.0750 C   0  0  1  0  0  3  0  0  0  0  0  0
  189.2880  173.4980  135.4820 C   0  0  0  0  0  2  0  0  0  0  0  0
  183.5530  178.8700  138.1500 C   0  0  0  0  0  2  0  0  0  0  0  0
  188.2470  177.9410  138.7060 C   0  0  0  0  0  0  0  0  0  0  0  0
  190.5770  176.9830  138.7920 C   0  0  0  0  0  0  0  0  0  0  0  0
  190.3060  174.0120  136.3310 O   0  0  0  0  0  0  0  0  0  0  0  0
  187.8210  175.9490  136.4560 C   0  0  0  0  0  0  0  0  0  0  0  0
  187.9540  173.4720  136.2000 C   0  0  2  0  0  3  0  0  0  0  0  0
  180.9240  176.8990  135.4390 C   0  0  0  0  0  1  0  0  0  0  0  0
  191.0840  177.8510  139.8980 C   0  0  0  0  0  2  0  0  0  0  0  0
  189.9690  176.5680  141.7680 N   0  0  0  0  0  2  0  0  0  0  0  0
  191.1620  177.0860  141.1750 C   0  0  0  0  0  0  0  0  0  0  0  0
  192.2790  176.9330  141.7390 O   0  0  0  0  0  0  0  0  0  0  0  0
  191.2440  175.3330  143.2860 O   0  0  0  0  0  1  0  0  0  0  0  0
  189.9750  175.8670  143.0450 C   0  0  1  0  0  3  0  0  0  0  0  0
  189.5470  176.8020  144.1850 C   0  0  2  0  0  3  0  0  0  0  0  0
  188.3420  177.6760  143.7430 C   0  0  0  0  0  3  0  0  0  0  0  0
  187.2120  177.6890  144.7590 C   0  0  0  0  0  2  0  0  0  0  0  0
  187.0780  176.8780  143.4840 C   0  0  0  0  0  2  0  0  0  0  0  0
  190.8740  178.9370  144.2630 C   0  0  0  0  0  1  0  0  0  0  0  0
  190.6080  177.6260  146.2140 O   0  0  0  0  0  1  0  0  0  0  0  0
  190.7500  177.5330  144.8260 C   0  0  1  0  0  3  0  0  0  0  0  0
  187.1450  172.4780  135.6450 O   0  0  0  0  0  0  0  0  0  0  0  0
  185.8360  172.9330  135.8290 C   0  0  1  0  0  3  0  0  0  0  0  0
  185.1220  172.8210  134.6330 O   0  0  0  0  0  1  0  0  0  0  0  0
  185.1430  172.1580  136.9500 C   0  0  0  0  0  2  0  0  0  0  0  0
  182.9190  173.3950  137.2360 N   0  0  0  0  0  0  0  0  0  0  0  0
  183.0380  171.1880  136.4240 O   0  0  0  0  0  0  0  0  0  0  0  0
  183.6460  172.2090  136.8440 C   0  0  0  0  0  0  0  0  0  0  0  0
  183.6140  174.4700  137.9290 C   0  0  0  0  0  1  0  0  0  0  0  0
  181.5330  173.5530  137.0220 N   0  0  0  0  0  2  0  0  0  0  0  0
  180.2950  172.8570  134.8270 C   0  0  0  0  0  3  0  0  0  0  0  0
  180.8660  173.1820  135.8420 C   0  0  0  0  0  0  0  0  0  0  0  0
  1 21  1  0  0  0  0
  2 24  1  0  0  0  0
  2 23  2  0  0  0  0
  3 15  1  0  0  0  0
  3 14  2  0  0  0  0
  4 25  1  0  0  0  0
  4 15  1  0  0  0  0
  6 19  1  0  0  0  0
  7 16  2  0  0  0  0
  7  1  1  0  0  0  0
  8 13  1  1  0  0  0
  9 20  1  0  0  0  0
  9 21  2  0  0  0  0
 10 23  1  0  0  0  0
 10 14  1  0  0  0  0
 12  3  1  0  0  0  0
 15  6  2  0  0  0  0
 16  9  1  0  0  0  0
 17 14  1  6  0  0  0
 17  8  1  0  0  0  0
 17 11  1  0  0  0  0
 18 24  1  0  0  0  0
 18 22  1  0  0  0  0
 19  8  1  0  0  0  0
 20 11  1  0  0  0  0
 20  5  2  0  0  0  0
 21 26  1  0  0  0  0
 22  7  1  0  0  0  0
 23 16  1  0  0  0  0
 24 39  1  6  0  0  0
 26 28  1  0  0  0  0
 27 31  1  0  0  0  0
 28 29  2  0  0  0  0
 28 27  1  0  0  0  0
 31 30  1  1  0  0  0
 32 31  1  6  0  0  0
 32 38  1  0  0  0  0
 33 32  1  0  0  0  0
 33 34  1  0  0  0  0
 35 33  1  0  0  0  0
 35 34  1  0  0  0  0
 38 36  1  6  0  0  0
 38 37  1  0  0  0  0
 39 40  1  0  0  0  0
 40 41  1  6  0  0  0
 40 42  1  0  0  0  0
 43 46  1  0  0  0  0
 44 45  2  0  0  0  0
 45 42  1  0  0  0  0
 45 43  1  0  0  0  0
 47 43  1  0  0  0  0
 48 49  3  0  0  0  0
 49 47  1  0  0  0  0
M  END
>  <MODEL>
9

>  <REMARK>
 VINA RESULT:      -6.1      2.782      9.458
  Name = 
  12 active torsions:
  status: ('A' for Active; 'I' for Inactive)
    1  A    between atoms: C_2  and  O_42
    2  A    between atoms: C_2  and  C_43
    3  A    between atoms: C_5  and  C_12
    4  A    between atoms: C_5  and  C_34
    5  A    between atoms: C_5  and  C_35
    6  A    between atoms: N_11  and  C_34
    7  A    between atoms: C_13  and  C_36
    8  A    between atoms: N_16  and  N_22
    9  A    between atoms: N_22  and  C_45
   10  A    between atoms: C_36  and  C_39
   11  A    between atoms: O_42  and  C_48
   12  A    between atoms: C_43  and  C_46
                            x       y       z     vdW  Elec       q    Type
                         _______ _______ _______ _____ _____    ______ ____

>  <TORSDO>
F 12

$$$$
