=
 OpenBabel10222421423D

 47 55  0  0  1  0  0  0  0  0999 V2000
  191.3980  176.2350  145.5200 C   0  0  0  0  0  3  0  0  0  0  0  0
  183.5980  179.2990  145.1510 N   0  0  0  0  0  0  0  0  0  0  0  0
  191.8310  176.5920  147.6470 N   0  0  0  0  0  0  0  0  0  0  0  0
  186.3060  177.7240  143.4090 C   0  0  0  0  0  2  0  0  0  0  0  0
  188.4480  177.9200  147.8250 C   0  0  0  0  0  3  0  0  0  0  0  0
  184.8760  178.7430  145.0620 N   0  0  0  0  0  0  0  0  0  0  0  0
  187.2480  177.5770  144.4310 C   0  0  0  0  0  0  0  0  0  0  0  0
  189.6890  177.5460  148.2960 N   0  0  0  0  0  0  0  0  0  0  0  0
  183.9140  178.6210  143.0130 C   0  0  0  0  0  0  0  0  0  0  0  0
  185.1020  178.3320  143.7920 C   0  0  0  0  0  0  0  0  0  0  0  0
  189.0570  177.1230  145.6330 N   0  0  0  0  0  0  0  0  0  0  0  0
  183.7380  178.4090  141.7080 C   0  0  0  0  0  2  0  0  0  0  0  0
  190.5720  176.9770  147.4240 C   0  0  0  0  0  0  0  0  0  0  0  0
  192.5570  176.6690  148.9050 C   0  0  0  0  0  1  0  0  0  0  0  0
  188.5250  177.0400  144.3910 C   0  0  0  0  0  0  0  0  0  0  0  0
  187.0030  177.9990  145.7350 C   0  0  0  0  0  0  0  0  0  0  0  0
  190.2740  176.7670  146.1180 C   0  0  0  0  0  0  0  0  0  0  0  0
  185.7850  178.6030  146.0690 C   0  0  0  0  0  0  0  0  0  0  0  0
  182.9750  179.2410  143.8920 N   0  0  0  0  0  0  0  0  0  0  0  0
  188.1450  177.7000  146.4590 C   0  0  0  0  0  0  0  0  0  0  0  0
  192.3400  176.1410  146.5020 N   0  0  0  0  0  0  0  0  0  0  0  0
  185.5340  179.0020  147.2360 O   0  0  0  0  0  0  0  0  0  0  0  0
  182.4990  178.6670  141.0360 N   0  0  0  0  0  2  0  0  0  0  0  0
  182.0510  177.9890  139.8550 C   0  0  0  0  0  0  0  0  0  0  0  0
  180.8590  178.1520  139.4640 O   0  0  0  0  0  0  0  0  0  0  0  0
  183.7270  177.1190  136.6560 C   0  0  0  0  0  3  0  0  0  0  0  0
  183.1050  177.8070  137.6180 C   0  0  0  0  0  3  0  0  0  0  0  0
  184.3020  175.7650  136.9830 C   0  0  0  0  0  2  0  0  0  0  0  0
  183.0110  177.2160  139.0040 C   0  0  2  0  0  3  0  0  0  0  0  0
  183.2680  174.9490  137.7690 C   0  0  0  0  0  2  0  0  0  0  0  0
  182.7040  175.7020  138.9960 C   0  0  0  0  0  2  0  0  0  0  0  0
  189.1780  176.4080  143.2000 C   0  0  0  0  0  2  0  0  0  0  0  0
  190.0530  177.4340  142.5020 C   0  0  2  0  0  3  0  0  0  0  0  0
  190.0180  178.7650  143.2290 C   0  0  0  0  0  1  0  0  0  0  0  0
  188.2580  177.9060  138.8890 S   0  0  0  0  0  0  0  0  0  0  0  0
  190.1530  176.0910  137.8610 N   0  0  0  0  0  2  0  0  0  0  0  0
  190.2710  176.7940  140.1290 N   0  0  0  0  0  0  0  0  0  0  0  0
  188.4330  178.2510  140.6830 C   0  0  0  0  0  2  0  0  0  0  0  0
  189.6930  176.8480  138.9840 C   0  0  0  0  0  0  0  0  0  0  0  0
  189.6600  177.5770  141.1080 N   0  0  0  0  0  0  0  0  0  0  0  0
  191.7250  174.6660  136.5560 C   0  0  2  0  0  0  0  0  0  0  0  0
  191.2890  175.1810  137.9380 C   0  0  1  0  0  0  0  0  0  0  0  0
  192.6910  176.0640  137.2380 S   0  0  0  0  0  0  0  0  0  0  0  0
  190.8420  173.9110  137.4390 N   0  0  0  0  0  2  0  0  0  0  0  0
  192.7720  173.7590  136.3770 O   0  0  0  0  0  0  0  0  0  0  0  0
  192.2500  172.7550  135.5620 C   0  0  0  0  0  2  0  0  0  0  0  0
  193.0970  171.5060  135.7000 C   0  0  0  0  0  1  0  0  0  0  0  0
  1 17  1  0  0  0  0
  1 21  2  0  0  0  0
  3 14  1  0  0  0  0
  4 10  1  0  0  0  0
  4  7  1  0  0  0  0
  5  8  2  0  0  0  0
  6  2  1  0  0  0  0
  6 18  1  0  0  0  0
  7 16  1  0  0  0  0
  9 10  2  0  0  0  0
  9 19  1  0  0  0  0
 10  6  1  0  0  0  0
 11 17  1  0  0  0  0
 11 20  1  0  0  0  0
 12  9  1  0  0  0  0
 13  3  1  0  0  0  0
 13  8  1  0  0  0  0
 15  7  2  0  0  0  0
 15 11  1  0  0  0  0
 16 18  1  0  0  0  0
 16 20  2  0  0  0  0
 17 13  2  0  0  0  0
 18 22  2  0  0  0  0
 19  2  2  0  0  0  0
 20  5  1  0  0  0  0
 21  3  1  0  0  0  0
 23 12  1  0  0  0  0
 24 23  1  0  0  0  0
 25 24  2  0  0  0  0
 26 28  1  0  0  0  0
 26 27  2  0  0  0  0
 27 29  1  0  0  0  0
 28 30  1  0  0  0  0
 29 24  1  1  0  0  0
 30 31  1  0  0  0  0
 31 29  1  0  0  0  0
 32 15  1  0  0  0  0
 33 32  1  0  0  0  0
 33 34  1  1  0  0  0
 35 39  1  0  0  0  0
 35 38  1  0  0  0  0
 36 39  1  0  0  0  0
 37 40  1  0  0  0  0
 38 40  1  0  0  0  0
 39 37  2  0  0  0  0
 40 33  1  0  0  0  0
 41 45  1  1  0  0  0
 41 43  1  0  0  0  0
 41 44  1  0  0  0  0
 41 42  1  0  0  0  0
 42 36  1  6  0  0  0
 43 42  1  0  0  0  0
 44 42  1  0  0  0  0
 46 47  1  0  0  0  0
 46 45  1  0  0  0  0
M  END
>  <MODEL>
1

>  <REMARK>
 VINA RESULT:     -10.8      0.000      0.000
  Name = 
  8 active torsions:
  status: ('A' for Active; 'I' for Inactive)
    1  A    between atoms: C_1  and  O_21
    2  A    between atoms: N_2  and  C_25
    3  A    between atoms: C_3  and  N_10
    4  A    between atoms: C_9  and  C_28
    5  A    between atoms: C_13  and  C_32
    6  A    between atoms: C_13  and  C_40
    7  A    between atoms: C_15  and  O_21
    8  A    between atoms: C_40  and  N_41
                            x       y       z     vdW  Elec       q    Type
                         _______ _______ _______ _____ _____    ______ ____

>  <TORSDO>
F 8

$$$$
=
 OpenBabel10222421423D

 47 55  0  0  1  0  0  0  0  0999 V2000
  191.0420  176.3750  144.9440 C   0  0  0  0  0  3  0  0  0  0  0  0
  183.1390  179.1760  145.1600 N   0  0  0  0  0  0  0  0  0  0  0  0
  191.5510  176.5480  147.0770 N   0  0  0  0  0  0  0  0  0  0  0  0
  185.8220  177.8680  143.1770 C   0  0  0  0  0  2  0  0  0  0  0  0
  188.1360  177.7310  147.5070 C   0  0  0  0  0  3  0  0  0  0  0  0
  184.4290  178.6770  144.9710 N   0  0  0  0  0  0  0  0  0  0  0  0
  186.8100  177.6610  144.1440 C   0  0  0  0  0  0  0  0  0  0  0  0
  189.4070  177.3610  147.8930 N   0  0  0  0  0  0  0  0  0  0  0  0
  183.3880  178.7110  142.9580 C   0  0  0  0  0  0  0  0  0  0  0  0
  184.6150  178.3940  143.6610 C   0  0  0  0  0  0  0  0  0  0  0  0
  188.6810  177.1630  145.2280 N   0  0  0  0  0  0  0  0  0  0  0  0
  183.1650  178.6140  141.6460 C   0  0  0  0  0  2  0  0  0  0  0  0
  190.2720  176.9070  146.9380 C   0  0  0  0  0  0  0  0  0  0  0  0
  192.3250  176.5350  148.3080 C   0  0  0  0  0  1  0  0  0  0  0  0
  188.1000  177.1760  144.0050 C   0  0  0  0  0  0  0  0  0  0  0  0
  186.6050  177.9510  145.4900 C   0  0  0  0  0  0  0  0  0  0  0  0
  189.9270  176.8070  145.6310 C   0  0  0  0  0  0  0  0  0  0  0  0
  185.3820  178.4780  145.9250 C   0  0  0  0  0  0  0  0  0  0  0  0
  182.4670  179.2120  143.9260 N   0  0  0  0  0  0  0  0  0  0  0  0
  187.7850  177.6280  146.1390 C   0  0  0  0  0  0  0  0  0  0  0  0
  192.0260  176.2250  145.8750 N   0  0  0  0  0  0  0  0  0  0  0  0
  185.1680  178.7570  147.1330 O   0  0  0  0  0  0  0  0  0  0  0  0
  181.8920  178.8880  141.0490 N   0  0  0  0  0  2  0  0  0  0  0  0
  181.2060  178.0130  140.1440 C   0  0  0  0  0  0  0  0  0  0  0  0
  180.0040  178.2600  139.8380 O   0  0  0  0  0  0  0  0  0  0  0  0
  183.3670  176.5910  137.4770 C   0  0  0  0  0  3  0  0  0  0  0  0
  182.8230  177.4420  138.3530 C   0  0  0  0  0  3  0  0  0  0  0  0
  183.0610  175.1210  137.6030 C   0  0  0  0  0  2  0  0  0  0  0  0
  181.9350  176.9040  139.4500 C   0  0  2  0  0  3  0  0  0  0  0  0
  181.5540  174.9300  137.8110 C   0  0  0  0  0  2  0  0  0  0  0  0
  180.9840  175.7880  138.9640 C   0  0  0  0  0  2  0  0  0  0  0  0
  188.7240  176.6810  142.7360 C   0  0  0  0  0  2  0  0  0  0  0  0
  189.4150  177.8350  142.0300 C   0  0  2  0  0  3  0  0  0  0  0  0
  188.4070  178.7220  141.3220 C   0  0  0  0  0  1  0  0  0  0  0  0
  192.6660  177.0050  139.7420 S   0  0  0  0  0  0  0  0  0  0  0  0
  190.8720  176.2770  137.6950 N   0  0  0  0  0  2  0  0  0  0  0  0
  190.0570  176.9020  139.8390 N   0  0  0  0  0  0  0  0  0  0  0  0
  191.8610  177.5660  141.2930 C   0  0  0  0  0  2  0  0  0  0  0  0
  191.0500  176.6990  139.0500 C   0  0  0  0  0  0  0  0  0  0  0  0
  190.4280  177.3390  141.1110 N   0  0  0  0  0  0  0  0  0  0  0  0
  189.5380  176.3940  135.5950 C   0  0  2  0  0  0  0  0  0  0  0  0
  189.5570  176.0760  137.0990 C   0  0  1  0  0  0  0  0  0  0  0  0
  189.6980  174.6270  136.0440 S   0  0  0  0  0  0  0  0  0  0  0  0
  189.1190  177.3540  136.6120 N   0  0  0  0  0  2  0  0  0  0  0  0
  188.3840  176.3050  134.8120 O   0  0  0  0  0  0  0  0  0  0  0  0
  187.8150  177.5770  134.8570 C   0  0  0  0  0  2  0  0  0  0  0  0
  186.3770  177.5000  134.3830 C   0  0  0  0  0  1  0  0  0  0  0  0
  1 17  1  0  0  0  0
  1 21  2  0  0  0  0
  3 14  1  0  0  0  0
  4 10  1  0  0  0  0
  4  7  1  0  0  0  0
  5  8  2  0  0  0  0
  6  2  1  0  0  0  0
  6 18  1  0  0  0  0
  7 16  1  0  0  0  0
  9 10  2  0  0  0  0
  9 19  1  0  0  0  0
 10  6  1  0  0  0  0
 11 17  1  0  0  0  0
 11 20  1  0  0  0  0
 12  9  1  0  0  0  0
 13  3  1  0  0  0  0
 13  8  1  0  0  0  0
 15  7  2  0  0  0  0
 15 11  1  0  0  0  0
 16 18  1  0  0  0  0
 16 20  2  0  0  0  0
 17 13  2  0  0  0  0
 18 22  2  0  0  0  0
 19  2  2  0  0  0  0
 20  5  1  0  0  0  0
 21  3  1  0  0  0  0
 23 12  1  0  0  0  0
 24 23  1  0  0  0  0
 25 24  2  0  0  0  0
 26 28  1  0  0  0  0
 26 27  2  0  0  0  0
 27 29  1  0  0  0  0
 28 30  1  0  0  0  0
 29 24  1  6  0  0  0
 30 31  1  0  0  0  0
 31 29  1  0  0  0  0
 32 15  1  0  0  0  0
 33 34  1  6  0  0  0
 33 32  1  0  0  0  0
 35 38  1  0  0  0  0
 36 39  1  0  0  0  0
 37 40  1  0  0  0  0
 39 35  1  0  0  0  0
 39 37  2  0  0  0  0
 40 38  1  0  0  0  0
 40 33  1  0  0  0  0
 41 45  1  1  0  0  0
 41 43  1  0  0  0  0
 41 44  1  0  0  0  0
 41 42  1  0  0  0  0
 42 36  1  1  0  0  0
 43 42  1  0  0  0  0
 44 42  1  0  0  0  0
 45 46  1  0  0  0  0
 47 46  1  0  0  0  0
M  END
>  <MODEL>
2

>  <REMARK>
 VINA RESULT:     -10.4      1.796      2.353
  Name = 
  8 active torsions:
  status: ('A' for Active; 'I' for Inactive)
    1  A    between atoms: C_1  and  O_21
    2  A    between atoms: N_2  and  C_25
    3  A    between atoms: C_3  and  N_10
    4  A    between atoms: C_9  and  C_28
    5  A    between atoms: C_13  and  C_32
    6  A    between atoms: C_13  and  C_40
    7  A    between atoms: C_15  and  O_21
    8  A    between atoms: C_40  and  N_41
                            x       y       z     vdW  Elec       q    Type
                         _______ _______ _______ _____ _____    ______ ____

>  <TORSDO>
F 8

$$$$
=
 OpenBabel10222421423D

 47 55  0  0  1  0  0  0  0  0999 V2000
  190.7730  177.7700  143.3810 C   0  0  0  0  0  3  0  0  0  0  0  0
  182.5280  178.7760  142.2130 N   0  0  0  0  0  0  0  0  0  0  0  0
  190.7750  177.2050  145.5070 N   0  0  0  0  0  0  0  0  0  0  0  0
  185.8080  178.8410  140.7720 C   0  0  0  0  0  2  0  0  0  0  0  0
  187.1530  177.4860  145.2980 C   0  0  0  0  0  3  0  0  0  0  0  0
  183.9160  178.6330  142.2510 N   0  0  0  0  0  0  0  0  0  0  0  0
  186.6000  178.4650  141.8610 C   0  0  0  0  0  0  0  0  0  0  0  0
  188.3720  177.2360  145.8900 N   0  0  0  0  0  0  0  0  0  0  0  0
  183.3320  179.2420  140.1480 C   0  0  0  0  0  0  0  0  0  0  0  0
  184.4320  178.9110  141.0320 C   0  0  0  0  0  0  0  0  0  0  0  0
  188.2790  177.9430  143.2140 N   0  0  0  0  0  0  0  0  0  0  0  0
  183.4120  179.6150  138.8700 C   0  0  0  0  0  2  0  0  0  0  0  0
  189.5020  177.3480  145.1310 C   0  0  0  0  0  0  0  0  0  0  0  0
  191.2600  176.8640  146.8350 C   0  0  0  0  0  1  0  0  0  0  0  0
  187.9750  178.3150  141.9490 C   0  0  0  0  0  0  0  0  0  0  0  0
  186.0580  178.1760  143.1100 C   0  0  0  0  0  0  0  0  0  0  0  0
  189.4670  177.6950  143.8210 C   0  0  0  0  0  0  0  0  0  0  0  0
  184.6760  178.2620  143.3220 C   0  0  0  0  0  0  0  0  0  0  0  0
  182.1330  179.1580  140.9190 N   0  0  0  0  0  0  0  0  0  0  0  0
  187.1260  177.8510  143.9290 C   0  0  0  0  0  0  0  0  0  0  0  0
  191.5530  177.4580  144.4550 N   0  0  0  0  0  0  0  0  0  0  0  0
  184.1550  178.0150  144.4400 O   0  0  0  0  0  0  0  0  0  0  0  0
  182.2600  179.8580  138.0540 N   0  0  0  0  0  2  0  0  0  0  0  0
  181.4160  178.8390  137.5040 C   0  0  0  0  0  0  0  0  0  0  0  0
  180.3170  179.1680  136.9710 O   0  0  0  0  0  0  0  0  0  0  0  0
  182.8160  175.8800  135.7470 C   0  0  0  0  0  3  0  0  0  0  0  0
  182.5480  177.1430  136.0920 C   0  0  0  0  0  3  0  0  0  0  0  0
  182.4310  174.7690  136.6880 C   0  0  0  0  0  2  0  0  0  0  0  0
  181.8840  177.4190  137.4200 C   0  0  2  0  0  3  0  0  0  0  0  0
  180.9960  174.9930  137.1810 C   0  0  0  0  0  2  0  0  0  0  0  0
  180.7640  176.4090  137.7570 C   0  0  0  0  0  2  0  0  0  0  0  0
  188.9520  178.4660  140.8230 C   0  0  0  0  0  2  0  0  0  0  0  0
  189.0850  177.1430  140.0910 C   0  0  2  0  0  3  0  0  0  0  0  0
  190.5070  176.6190  140.1670 C   0  0  0  0  0  1  0  0  0  0  0  0
  187.5480  178.1670  136.4730 S   0  0  0  0  0  0  0  0  0  0  0  0
  187.0300  175.4270  136.0680 N   0  0  0  0  0  2  0  0  0  0  0  0
  188.1690  176.1570  138.0230 N   0  0  0  0  0  0  0  0  0  0  0  0
  188.3340  178.5610  138.0840 C   0  0  0  0  0  2  0  0  0  0  0  0
  187.6020  176.4360  136.9050 C   0  0  0  0  0  0  0  0  0  0  0  0
  188.6390  177.2760  138.7120 N   0  0  0  0  0  0  0  0  0  0  0  0
  185.7980  173.2720  135.8630 C   0  0  2  0  0  0  0  0  0  0  0  0
  187.0170  174.0160  136.4330 C   0  0  1  0  0  0  0  0  0  0  0  0
  187.3600  173.1020  134.9230 S   0  0  0  0  0  0  0  0  0  0  0  0
  185.8380  173.7990  137.2240 N   0  0  0  0  0  2  0  0  0  0  0  0
  185.5520  171.9180  136.1030 O   0  0  0  0  0  0  0  0  0  0  0  0
  184.2530  171.6970  135.6460 C   0  0  0  0  0  2  0  0  0  0  0  0
  183.4150  171.1290  136.7750 C   0  0  0  0  0  1  0  0  0  0  0  0
  1 17  1  0  0  0  0
  1 21  2  0  0  0  0
  2  6  1  0  0  0  0
  3 14  1  0  0  0  0
  4 10  1  0  0  0  0
  4  7  1  0  0  0  0
  5  8  2  0  0  0  0
  6 18  1  0  0  0  0
  7 15  2  0  0  0  0
  7 16  1  0  0  0  0
  9 19  1  0  0  0  0
  9 10  2  0  0  0  0
 10  6  1  0  0  0  0
 11 17  1  0  0  0  0
 11 20  1  0  0  0  0
 12  9  1  0  0  0  0
 13  3  1  0  0  0  0
 13  8  1  0  0  0  0
 15 11  1  0  0  0  0
 16 18  1  0  0  0  0
 16 20  2  0  0  0  0
 17 13  2  0  0  0  0
 18 22  2  0  0  0  0
 19  2  2  0  0  0  0
 20  5  1  0  0  0  0
 21  3  1  0  0  0  0
 23 12  1  0  0  0  0
 24 23  1  0  0  0  0
 25 24  2  0  0  0  0
 26 27  2  0  0  0  0
 26 28  1  0  0  0  0
 27 29  1  0  0  0  0
 28 30  1  0  0  0  0
 29 24  1  6  0  0  0
 29 31  1  0  0  0  0
 30 31  1  0  0  0  0
 32 15  1  0  0  0  0
 33 34  1  6  0  0  0
 33 32  1  0  0  0  0
 35 39  1  0  0  0  0
 35 38  1  0  0  0  0
 36 39  1  0  0  0  0
 37 40  1  0  0  0  0
 38 40  1  0  0  0  0
 39 37  2  0  0  0  0
 40 33  1  0  0  0  0
 41 45  1  1  0  0  0
 41 42  1  0  0  0  0
 41 44  1  0  0  0  0
 42 36  1  6  0  0  0
 42 44  1  0  0  0  0
 43 41  1  0  0  0  0
 43 42  1  0  0  0  0
 46 45  1  0  0  0  0
 46 47  1  0  0  0  0
M  END
>  <MODEL>
3

>  <REMARK>
 VINA RESULT:      -9.1      2.683      3.727
  Name = 
  8 active torsions:
  status: ('A' for Active; 'I' for Inactive)
    1  A    between atoms: C_1  and  O_21
    2  A    between atoms: N_2  and  C_25
    3  A    between atoms: C_3  and  N_10
    4  A    between atoms: C_9  and  C_28
    5  A    between atoms: C_13  and  C_32
    6  A    between atoms: C_13  and  C_40
    7  A    between atoms: C_15  and  O_21
    8  A    between atoms: C_40  and  N_41
                            x       y       z     vdW  Elec       q    Type
                         _______ _______ _______ _____ _____    ______ ____

>  <TORSDO>
F 8

$$$$
=
 OpenBabel10222421423D

 47 55  0  0  1  0  0  0  0  0999 V2000
  188.5210  176.9130  146.5260 C   0  0  0  0  0  3  0  0  0  0  0  0
  190.1100  177.8940  138.3480 N   0  0  0  0  0  0  0  0  0  0  0  0
  190.5800  176.8850  147.2980 N   0  0  0  0  0  0  0  0  0  0  0  0
  187.6380  177.5680  140.9220 C   0  0  0  0  0  2  0  0  0  0  0  0
  191.5870  177.3870  143.8370 C   0  0  0  0  0  3  0  0  0  0  0  0
  189.6920  177.7460  139.6720 N   0  0  0  0  0  0  0  0  0  0  0  0
  188.4360  177.4790  142.0670 C   0  0  0  0  0  0  0  0  0  0  0  0
  191.7580  177.2270  145.1960 N   0  0  0  0  0  0  0  0  0  0  0  0
  187.8460  177.8410  138.3600 C   0  0  0  0  0  0  0  0  0  0  0  0
  188.3400  177.7040  139.7160 C   0  0  0  0  0  0  0  0  0  0  0  0
  189.1970  177.2850  144.1420 N   0  0  0  0  0  0  0  0  0  0  0  0
  186.5730  177.8100  137.9620 C   0  0  0  0  0  2  0  0  0  0  0  0
  190.6480  177.0990  145.9820 C   0  0  0  0  0  0  0  0  0  0  0  0
  191.6970  176.7610  148.2210 C   0  0  0  0  0  1  0  0  0  0  0  0
  188.0690  177.3270  143.3950 C   0  0  0  0  0  0  0  0  0  0  0  0
  189.8260  177.5290  142.0100 C   0  0  0  0  0  0  0  0  0  0  0  0
  189.3900  177.1250  145.4760 C   0  0  0  0  0  0  0  0  0  0  0  0
  190.4820  177.6630  140.7800 C   0  0  0  0  0  0  0  0  0  0  0  0
  188.9850  177.9530  137.5070 N   0  0  0  0  0  0  0  0  0  0  0  0
  190.2710  177.4090  143.3160 C   0  0  0  0  0  0  0  0  0  0  0  0
  189.2970  176.7710  147.6380 N   0  0  0  0  0  0  0  0  0  0  0  0
  191.7370  177.7040  140.6940 O   0  0  0  0  0  0  0  0  0  0  0  0
  186.1760  178.0230  136.6020 N   0  0  0  0  0  2  0  0  0  0  0  0
  185.8480  176.9830  135.6720 C   0  0  0  0  0  0  0  0  0  0  0  0
  185.3180  177.2890  134.5650 O   0  0  0  0  0  0  0  0  0  0  0  0
  188.0540  174.0180  135.2890 C   0  0  0  0  0  3  0  0  0  0  0  0
  187.6250  175.2820  135.3600 C   0  0  0  0  0  3  0  0  0  0  0  0
  187.1470  172.9130  135.7660 C   0  0  0  0  0  2  0  0  0  0  0  0
  186.2570  175.5660  135.9310 C   0  0  2  0  0  3  0  0  0  0  0  0
  185.7380  173.1310  135.2020 C   0  0  0  0  0  2  0  0  0  0  0  0
  185.1880  174.5510  135.4700 C   0  0  0  0  0  2  0  0  0  0  0  0
  186.6680  177.2890  143.9240 C   0  0  0  0  0  2  0  0  0  0  0  0
  186.2460  178.6900  144.3330 C   0  0  2  0  0  3  0  0  0  0  0  0
  186.4250  178.8970  145.8250 C   0  0  0  0  0  1  0  0  0  0  0  0
  182.2400  179.1520  143.8510 S   0  0  0  0  0  0  0  0  0  0  0  0
  182.6260  178.4930  141.1390 N   0  0  0  0  0  2  0  0  0  0  0  0
  184.4890  178.6970  142.6020 N   0  0  0  0  0  0  0  0  0  0  0  0
  183.7750  179.1560  144.8570 C   0  0  0  0  0  2  0  0  0  0  0  0
  183.2200  178.7540  142.4140 C   0  0  0  0  0  0  0  0  0  0  0  0
  184.8770  178.9520  143.9170 N   0  0  0  0  0  0  0  0  0  0  0  0
  182.5330  177.8820  138.7260 C   0  0  2  0  0  0  0  0  0  0  0  0
  183.4080  178.1130  139.9690 C   0  0  1  0  0  0  0  0  0  0  0  0
  183.3490  179.5160  138.8460 S   0  0  0  0  0  0  0  0  0  0  0  0
  182.9820  176.7950  139.5920 N   0  0  0  0  0  2  0  0  0  0  0  0
  183.0530  177.4800  137.4930 O   0  0  0  0  0  0  0  0  0  0  0  0
  182.2610  176.4030  137.0970 C   0  0  0  0  0  2  0  0  0  0  0  0
  181.9980  176.4950  135.6070 C   0  0  0  0  0  1  0  0  0  0  0  0
  1 21  2  0  0  0  0
  2  6  1  0  0  0  0
  3 21  1  0  0  0  0
  3 14  1  0  0  0  0
  4  7  1  0  0  0  0
  5  8  2  0  0  0  0
  6 10  1  0  0  0  0
  6 18  1  0  0  0  0
  7 15  2  0  0  0  0
  8 13  1  0  0  0  0
  9 10  2  0  0  0  0
 10  4  1  0  0  0  0
 11 17  1  0  0  0  0
 12  9  1  0  0  0  0
 13  3  1  0  0  0  0
 15 32  1  0  0  0  0
 15 11  1  0  0  0  0
 16  7  1  0  0  0  0
 16 20  2  0  0  0  0
 17 13  2  0  0  0  0
 17  1  1  0  0  0  0
 18 16  1  0  0  0  0
 19  2  2  0  0  0  0
 19  9  1  0  0  0  0
 20  5  1  0  0  0  0
 20 11  1  0  0  0  0
 22 18  2  0  0  0  0
 23 12  1  0  0  0  0
 24 23  1  0  0  0  0
 25 24  2  0  0  0  0
 26 27  2  0  0  0  0
 26 28  1  0  0  0  0
 27 29  1  0  0  0  0
 29 24  1  6  0  0  0
 30 31  1  0  0  0  0
 30 28  1  0  0  0  0
 31 29  1  0  0  0  0
 32 33  1  0  0  0  0
 33 34  1  1  0  0  0
 35 38  1  0  0  0  0
 36 39  1  0  0  0  0
 37 40  1  0  0  0  0
 39 37  2  0  0  0  0
 39 35  1  0  0  0  0
 40 33  1  0  0  0  0
 40 38  1  0  0  0  0
 41 45  1  6  0  0  0
 41 43  1  0  0  0  0
 41 44  1  0  0  0  0
 41 42  1  0  0  0  0
 42 36  1  1  0  0  0
 43 42  1  0  0  0  0
 44 42  1  0  0  0  0
 46 45  1  0  0  0  0
 47 46  1  0  0  0  0
M  END
>  <MODEL>
4

>  <REMARK>
 VINA RESULT:      -8.8      2.998      6.350
  Name = 
  8 active torsions:
  status: ('A' for Active; 'I' for Inactive)
    1  A    between atoms: C_1  and  O_21
    2  A    between atoms: N_2  and  C_25
    3  A    between atoms: C_3  and  N_10
    4  A    between atoms: C_9  and  C_28
    5  A    between atoms: C_13  and  C_32
    6  A    between atoms: C_13  and  C_40
    7  A    between atoms: C_15  and  O_21
    8  A    between atoms: C_40  and  N_41
                            x       y       z     vdW  Elec       q    Type
                         _______ _______ _______ _____ _____    ______ ____

>  <TORSDO>
F 8

$$$$
=
 OpenBabel10222421423D

 47 55  0  0  1  0  0  0  0  0999 V2000
  190.0690  177.9900  144.3790 C   0  0  0  0  0  3  0  0  0  0  0  0
  182.0170  178.8350  142.1860 N   0  0  0  0  0  0  0  0  0  0  0  0
  189.8210  177.5490  146.5200 N   0  0  0  0  0  0  0  0  0  0  0  0
  185.4450  178.8530  141.1420 C   0  0  0  0  0  2  0  0  0  0  0  0
  186.2480  177.7770  145.8670 C   0  0  0  0  0  3  0  0  0  0  0  0
  183.3910  178.7100  142.3970 N   0  0  0  0  0  0  0  0  0  0  0  0
  186.1040  178.5500  142.3380 C   0  0  0  0  0  0  0  0  0  0  0  0
  187.3890  177.5750  146.6140 N   0  0  0  0  0  0  0  0  0  0  0  0
  183.0590  179.1900  140.2070 C   0  0  0  0  0  0  0  0  0  0  0  0
  184.0480  178.9230  141.2330 C   0  0  0  0  0  0  0  0  0  0  0  0
  187.6120  178.1250  143.9080 N   0  0  0  0  0  0  0  0  0  0  0  0
  183.2890  179.4900  138.9280 C   0  0  0  0  0  2  0  0  0  0  0  0
  188.6010  177.6560  145.9880 C   0  0  0  0  0  0  0  0  0  0  0  0
  190.1460  177.2900  147.9140 C   0  0  0  0  0  1  0  0  0  0  0  0
  187.4590  178.4210  142.5960 C   0  0  0  0  0  0  0  0  0  0  0  0
  185.4180  178.3270  143.5280 C   0  0  0  0  0  0  0  0  0  0  0  0
  188.7210  177.9260  144.6650 C   0  0  0  0  0  0  0  0  0  0  0  0
  184.0200  178.4100  143.5690 C   0  0  0  0  0  0  0  0  0  0  0  0
  181.7780  179.1370  140.8340 N   0  0  0  0  0  0  0  0  0  0  0  0
  186.3820  178.0620  144.4860 C   0  0  0  0  0  0  0  0  0  0  0  0
  190.7170  177.7490  145.5550 N   0  0  0  0  0  0  0  0  0  0  0  0
  183.3710  178.2220  144.6310 O   0  0  0  0  0  0  0  0  0  0  0  0
  182.2410  179.6730  137.9680 N   0  0  0  0  0  2  0  0  0  0  0  0
  181.7150  178.6420  137.1230 C   0  0  0  0  0  0  0  0  0  0  0  0
  180.6600  178.8640  136.4610 O   0  0  0  0  0  0  0  0  0  0  0  0
  183.1790  175.9460  135.0260 C   0  0  0  0  0  3  0  0  0  0  0  0
  182.7240  177.1370  135.4290 C   0  0  0  0  0  3  0  0  0  0  0  0
  183.4120  174.8690  136.0520 C   0  0  0  0  0  2  0  0  0  0  0  0
  182.4760  177.3710  136.9000 C   0  0  2  0  0  3  0  0  0  0  0  0
  182.2050  174.7930  136.9950 C   0  0  0  0  0  2  0  0  0  0  0  0
  181.8190  176.1610  137.6020 C   0  0  0  0  0  2  0  0  0  0  0  0
  188.5620  178.5180  141.5880 C   0  0  0  0  0  2  0  0  0  0  0  0
  188.7800  177.1580  140.9470 C   0  0  2  0  0  3  0  0  0  0  0  0
  189.9540  176.4390  141.5830 C   0  0  0  0  0  1  0  0  0  0  0  0
  188.5110  177.5210  136.9100 S   0  0  0  0  0  0  0  0  0  0  0  0
  190.8540  175.9640  136.7490 N   0  0  0  0  0  2  0  0  0  0  0  0
  189.9870  176.6130  138.8660 N   0  0  0  0  0  0  0  0  0  0  0  0
  187.9230  177.8340  138.6200 C   0  0  0  0  0  2  0  0  0  0  0  0
  189.9040  176.6320  137.5840 C   0  0  0  0  0  0  0  0  0  0  0  0
  188.9530  177.2940  139.5080 N   0  0  0  0  0  0  0  0  0  0  0  0
  192.8650  174.6090  136.1820 C   0  0  2  0  0  0  0  0  0  0  0  0
  191.9650  175.1880  137.2850 C   0  0  1  0  0  0  0  0  0  0  0  0
  193.4500  176.1530  136.9730 S   0  0  0  0  0  0  0  0  0  0  0  0
  191.7990  173.8410  136.8170 N   0  0  0  0  0  2  0  0  0  0  0  0
  193.9760  173.8050  136.4490 O   0  0  0  0  0  0  0  0  0  0  0  0
  194.1010  172.9750  135.3360 C   0  0  0  0  0  2  0  0  0  0  0  0
  194.3460  171.5520  135.7970 C   0  0  0  0  0  1  0  0  0  0  0  0
  1 17  1  0  0  0  0
  1 21  2  0  0  0  0
  2  6  1  0  0  0  0
  3 14  1  0  0  0  0
  4 10  1  0  0  0  0
  4  7  1  0  0  0  0
  5  8  2  0  0  0  0
  6 18  1  0  0  0  0
  7 15  2  0  0  0  0
  7 16  1  0  0  0  0
  9 19  1  0  0  0  0
  9 10  2  0  0  0  0
 10  6  1  0  0  0  0
 11 20  1  0  0  0  0
 11 17  1  0  0  0  0
 12  9  1  0  0  0  0
 13  3  1  0  0  0  0
 13  8  1  0  0  0  0
 15 11  1  0  0  0  0
 16 18  1  0  0  0  0
 16 20  2  0  0  0  0
 17 13  2  0  0  0  0
 18 22  2  0  0  0  0
 19  2  2  0  0  0  0
 20  5  1  0  0  0  0
 21  3  1  0  0  0  0
 23 12  1  0  0  0  0
 24 23  1  0  0  0  0
 25 24  2  0  0  0  0
 26 27  2  0  0  0  0
 26 28  1  0  0  0  0
 27 29  1  0  0  0  0
 28 30  1  0  0  0  0
 29 24  1  6  0  0  0
 29 31  1  0  0  0  0
 30 31  1  0  0  0  0
 32 15  1  0  0  0  0
 33 34  1  1  0  0  0
 33 32  1  0  0  0  0
 35 39  1  0  0  0  0
 35 38  1  0  0  0  0
 36 39  1  0  0  0  0
 37 40  1  0  0  0  0
 38 40  1  0  0  0  0
 39 37  2  0  0  0  0
 40 33  1  0  0  0  0
 41 45  1  1  0  0  0
 41 44  1  0  0  0  0
 41 43  1  0  0  0  0
 41 42  1  0  0  0  0
 42 36  1  6  0  0  0
 43 42  1  0  0  0  0
 44 42  1  0  0  0  0
 46 47  1  0  0  0  0
 46 45  1  0  0  0  0
M  END
>  <MODEL>
5

>  <REMARK>
 VINA RESULT:      -8.4      1.687      2.407
  Name = 
  8 active torsions:
  status: ('A' for Active; 'I' for Inactive)
    1  A    between atoms: C_1  and  O_21
    2  A    between atoms: N_2  and  C_25
    3  A    between atoms: C_3  and  N_10
    4  A    between atoms: C_9  and  C_28
    5  A    between atoms: C_13  and  C_32
    6  A    between atoms: C_13  and  C_40
    7  A    between atoms: C_15  and  O_21
    8  A    between atoms: C_40  and  N_41
                            x       y       z     vdW  Elec       q    Type
                         _______ _______ _______ _____ _____    ______ ____

>  <TORSDO>
F 8

$$$$
=
 OpenBabel10222421423D

 47 55  0  0  1  0  0  0  0  0999 V2000
  183.1550  177.7150  136.9640 C   0  0  0  0  0  3  0  0  0  0  0  0
  183.2510  179.2910  145.2020 N   0  0  0  0  0  0  0  0  0  0  0  0
  181.1750  178.5290  136.4590 N   0  0  0  0  0  0  0  0  0  0  0  0
  184.9950  177.9720  142.3630 C   0  0  0  0  0  2  0  0  0  0  0  0
  180.9480  179.4120  139.9810 C   0  0  0  0  0  3  0  0  0  0  0  0
  183.3850  178.9800  143.8480 N   0  0  0  0  0  0  0  0  0  0  0  0
  184.0800  178.2130  141.3350 C   0  0  0  0  0  0  0  0  0  0  0  0
  180.5410  179.3310  138.6670 N   0  0  0  0  0  0  0  0  0  0  0  0
  185.2730  178.3160  144.9100 C   0  0  0  0  0  0  0  0  0  0  0  0
  184.5830  178.3880  143.6380 C   0  0  0  0  0  0  0  0  0  0  0  0
  183.0250  178.3400  139.3870 N   0  0  0  0  0  0  0  0  0  0  0  0
  186.4670  177.7680  145.1470 C   0  0  0  0  0  2  0  0  0  0  0  0
  181.3840  178.7570  137.7570 C   0  0  0  0  0  0  0  0  0  0  0  0
  179.9870  178.8690  135.6920 C   0  0  0  0  0  1  0  0  0  0  0  0
  184.1650  177.9190  139.9840 C   0  0  0  0  0  0  0  0  0  0  0  0
  182.8520  178.8280  141.5620 C   0  0  0  0  0  0  0  0  0  0  0  0
  182.6010  178.2680  138.1000 C   0  0  0  0  0  0  0  0  0  0  0  0
  182.4830  179.2240  142.8540 C   0  0  0  0  0  0  0  0  0  0  0  0
  184.4080  178.8880  145.8910 N   0  0  0  0  0  0  0  0  0  0  0  0
  182.2200  178.8960  140.3310 C   0  0  0  0  0  0  0  0  0  0  0  0
  182.2410  177.8980  135.9690 N   0  0  0  0  0  0  0  0  0  0  0  0
  181.3780  179.7750  143.0940 O   0  0  0  0  0  0  0  0  0  0  0  0
  187.1000  177.8050  146.4320 N   0  0  0  0  0  2  0  0  0  0  0  0
  188.5170  177.7830  146.6480 C   0  0  0  0  0  0  0  0  0  0  0  0
  188.9700  178.0220  147.8040 O   0  0  0  0  0  0  0  0  0  0  0  0
  191.6720  176.3080  145.3520 C   0  0  0  0  0  3  0  0  0  0  0  0
  190.6240  176.5780  146.1370 C   0  0  0  0  0  3  0  0  0  0  0  0
  191.6550  176.7860  143.9240 C   0  0  0  0  0  2  0  0  0  0  0  0
  189.4500  177.3370  145.5640 C   0  0  2  0  0  3  0  0  0  0  0  0
  191.2010  178.2500  143.8810 C   0  0  0  0  0  2  0  0  0  0  0  0
  189.8760  178.4980  144.6390 C   0  0  0  0  0  2  0  0  0  0  0  0
  185.3420  177.3090  139.2870 C   0  0  0  0  0  2  0  0  0  0  0  0
  186.4120  178.3680  139.0830 C   0  0  2  0  0  3  0  0  0  0  0  0
  186.4160  178.8700  137.6520 C   0  0  0  0  0  1  0  0  0  0  0  0
  190.1190  177.5870  140.5490 S   0  0  0  0  0  0  0  0  0  0  0  0
  190.6590  176.2770  138.1140 N   0  0  0  0  0  2  0  0  0  0  0  0
  188.4930  177.1560  138.5490 N   0  0  0  0  0  0  0  0  0  0  0  0
  188.4320  178.3000  140.6700 C   0  0  0  0  0  2  0  0  0  0  0  0
  189.7010  176.9510  138.9340 C   0  0  0  0  0  0  0  0  0  0  0  0
  187.7170  177.8560  139.4730 N   0  0  0  0  0  0  0  0  0  0  0  0
  191.2600  174.6430  136.3320 C   0  0  2  0  0  0  0  0  0  0  0  0
  190.3480  175.8010  136.7710 C   0  0  1  0  0  0  0  0  0  0  0  0
  189.6110  174.1730  136.9720 S   0  0  0  0  0  0  0  0  0  0  0  0
  191.5130  176.0340  135.9650 N   0  0  0  0  0  2  0  0  0  0  0  0
  191.1740  174.0420  135.0740 O   0  0  0  0  0  0  0  0  0  0  0  0
  192.4400  173.5060  134.8390 C   0  0  0  0  0  2  0  0  0  0  0  0
  192.7020  172.3860  135.8260 C   0  0  0  0  0  1  0  0  0  0  0  0
  1 17  1  0  0  0  0
  2 19  2  0  0  0  0
  3 13  1  0  0  0  0
  4 10  1  0  0  0  0
  5 20  1  0  0  0  0
  6  2  1  0  0  0  0
  7 16  1  0  0  0  0
  7  4  1  0  0  0  0
  8  5  2  0  0  0  0
  9 12  1  0  0  0  0
  9 19  1  0  0  0  0
 10  6  1  0  0  0  0
 10  9  2  0  0  0  0
 11 15  1  0  0  0  0
 11 20  1  0  0  0  0
 12 23  1  0  0  0  0
 13 17  2  0  0  0  0
 13  8  1  0  0  0  0
 14  3  1  0  0  0  0
 15  7  2  0  0  0  0
 16 18  1  0  0  0  0
 17 11  1  0  0  0  0
 18 22  2  0  0  0  0
 18  6  1  0  0  0  0
 20 16  2  0  0  0  0
 21  3  1  0  0  0  0
 21  1  2  0  0  0  0
 23 24  1  0  0  0  0
 24 25  2  0  0  0  0
 26 27  2  0  0  0  0
 28 26  1  0  0  0  0
 29 27  1  0  0  0  0
 29 24  1  1  0  0  0
 30 28  1  0  0  0  0
 30 31  1  0  0  0  0
 31 29  1  0  0  0  0
 32 15  1  0  0  0  0
 33 34  1  6  0  0  0
 33 32  1  0  0  0  0
 33 40  1  0  0  0  0
 35 38  1  0  0  0  0
 36 39  1  0  0  0  0
 37 39  2  0  0  0  0
 37 40  1  0  0  0  0
 39 35  1  0  0  0  0
 40 38  1  0  0  0  0
 41 45  1  6  0  0  0
 41 42  1  0  0  0  0
 41 43  1  0  0  0  0
 42 43  1  0  0  0  0
 42 36  1  1  0  0  0
 44 41  1  0  0  0  0
 44 42  1  0  0  0  0
 46 45  1  0  0  0  0
 46 47  1  0  0  0  0
M  END
>  <MODEL>
6

>  <REMARK>
 VINA RESULT:      -8.4      2.128      7.949
  Name = 
  8 active torsions:
  status: ('A' for Active; 'I' for Inactive)
    1  A    between atoms: C_1  and  O_21
    2  A    between atoms: N_2  and  C_25
    3  A    between atoms: C_3  and  N_10
    4  A    between atoms: C_9  and  C_28
    5  A    between atoms: C_13  and  C_32
    6  A    between atoms: C_13  and  C_40
    7  A    between atoms: C_15  and  O_21
    8  A    between atoms: C_40  and  N_41
                            x       y       z     vdW  Elec       q    Type
                         _______ _______ _______ _____ _____    ______ ____

>  <TORSDO>
F 8

$$$$
=
 OpenBabel10222421423D

 47 55  0  0  1  0  0  0  0  0999 V2000
  190.5300  175.9090  135.7900 C   0  0  0  0  0  3  0  0  0  0  0  0
  190.8510  178.0740  143.8880 N   0  0  0  0  0  0  0  0  0  0  0  0
  192.6790  175.9230  135.3220 N   0  0  0  0  0  0  0  0  0  0  0  0
  188.8080  177.1610  141.0890 C   0  0  0  0  0  2  0  0  0  0  0  0
  193.1510  176.8000  138.8220 C   0  0  0  0  0  3  0  0  0  0  0  0
  190.6420  177.6930  142.5620 N   0  0  0  0  0  0  0  0  0  0  0  0
  189.7710  176.9410  140.1000 C   0  0  0  0  0  0  0  0  0  0  0  0
  193.5250  176.4920  137.5320 N   0  0  0  0  0  0  0  0  0  0  0  0
  188.6210  177.8340  143.5780 C   0  0  0  0  0  0  0  0  0  0  0  0
  189.3150  177.5470  142.3380 C   0  0  0  0  0  0  0  0  0  0  0  0
  190.8400  176.4880  138.2090 N   0  0  0  0  0  0  0  0  0  0  0  0
  187.3020  177.8420  143.7770 C   0  0  0  0  0  3  0  0  0  0  0  0
  192.5500  176.1950  136.6230 C   0  0  0  0  0  0  0  0  0  0  0  0
  193.9180  175.8540  134.5640 C   0  0  0  0  0  1  0  0  0  0  0  0
  189.6120  176.5700  138.7740 C   0  0  0  0  0  0  0  0  0  0  0  0
  191.1340  177.0890  140.3420 C   0  0  0  0  0  0  0  0  0  0  0  0
  191.2320  176.1910  136.9440 C   0  0  0  0  0  0  0  0  0  0  0  0
  191.5920  177.4790  141.6070 C   0  0  0  0  0  0  0  0  0  0  0  0
  189.6130  178.1730  144.5460 N   0  0  0  0  0  0  0  0  0  0  0  0
  191.7730  176.7970  139.1480 C   0  0  0  0  0  0  0  0  0  0  0  0
  191.4620  175.7480  134.8090 N   0  0  0  0  0  0  0  0  0  0  0  0
  192.8160  177.6300  141.8570 O   0  0  0  0  0  0  0  0  0  0  0  0
  186.7080  178.0730  145.0600 N   0  0  0  0  0  0  0  0  0  0  0  0
  185.3210  178.3580  145.2820 C   0  0  0  0  0  0  0  0  0  0  0  0
  184.8690  178.3450  146.4630 O   0  0  0  0  0  0  0  0  0  0  0  0
  182.0480  178.9360  143.6220 C   0  0  0  0  0  3  0  0  0  0  0  0
  182.9880  178.7890  144.5610 C   0  0  0  0  0  3  0  0  0  0  0  0
  182.4710  179.1040  142.1860 C   0  0  0  0  0  2  0  0  0  0  0  0
  184.4430  178.8130  144.1570 C   0  0  2  0  0  3  0  0  0  0  0  0
  183.5410  178.0600  141.8450 C   0  0  0  0  0  2  0  0  0  0  0  0
  184.7190  178.0450  142.8460 C   0  0  0  0  0  2  0  0  0  0  0  0
  188.3160  176.2420  138.0990 C   0  0  0  0  0  2  0  0  0  0  0  0
  187.8140  177.4660  137.3520 C   0  0  2  0  0  3  0  0  0  0  0  0
  188.4230  178.7360  137.9160 C   0  0  0  0  0  1  0  0  0  0  0  0
  183.8440  177.8880  138.1050 S   0  0  0  0  0  0  0  0  0  0  0  0
  183.4480  175.5320  136.6100 N   0  0  0  0  0  2  0  0  0  0  0  0
  185.6200  176.4790  136.8040 N   0  0  0  0  0  0  0  0  0  0  0  0
  185.5970  178.4140  138.2410 C   0  0  0  0  0  2  0  0  0  0  0  0
  184.3660  176.5240  137.0780 C   0  0  0  0  0  0  0  0  0  0  0  0
  186.3590  177.5160  137.3740 N   0  0  0  0  0  0  0  0  0  0  0  0
  182.9500  173.1650  136.0150 C   0  0  2  0  0  0  0  0  0  0  0  0
  183.8680  174.3830  135.8180 C   0  0  1  0  0  0  0  0  0  0  0  0
  182.6310  174.1830  134.5270 S   0  0  0  0  0  0  0  0  0  0  0  0
  184.2040  173.3370  136.7430 N   0  0  0  0  0  2  0  0  0  0  0  0
  183.1670  171.9380  135.3850 O   0  0  0  0  0  0  0  0  0  0  0  0
  182.9660  170.9780  136.3760 C   0  0  0  0  0  2  0  0  0  0  0  0
  183.7350  169.7200  136.0190 C   0  0  0  0  0  1  0  0  0  0  0  0
  1 17  1  0  0  0  0
  2 19  2  0  0  0  0
  3 13  1  0  0  0  0
  4 10  1  0  0  0  0
  5 20  1  0  0  0  0
  6  2  1  0  0  0  0
  7 16  1  0  0  0  0
  7  4  1  0  0  0  0
  8  5  2  0  0  0  0
  9 12  1  0  0  0  0
  9 19  1  0  0  0  0
 10  6  1  0  0  0  0
 10  9  2  0  0  0  0
 11 15  1  0  0  0  0
 11 20  1  0  0  0  0
 12 23  2  0  0  0  0
 13 17  2  0  0  0  0
 13  8  1  0  0  0  0
 14  3  1  0  0  0  0
 15  7  2  0  0  0  0
 16 18  1  0  0  0  0
 17 11  1  0  0  0  0
 18 22  2  0  0  0  0
 18  6  1  0  0  0  0
 20 16  2  0  0  0  0
 21  3  1  0  0  0  0
 21  1  2  0  0  0  0
 23 24  1  0  0  0  0
 24 25  2  0  0  0  0
 26 27  2  0  0  0  0
 28 26  1  0  0  0  0
 29 27  1  0  0  0  0
 29 24  1  1  0  0  0
 30 28  1  0  0  0  0
 30 31  1  0  0  0  0
 31 29  1  0  0  0  0
 32 15  1  0  0  0  0
 33 40  1  0  0  0  0
 33 34  1  1  0  0  0
 33 32  1  0  0  0  0
 35 38  1  0  0  0  0
 36 39  1  0  0  0  0
 37 39  2  0  0  0  0
 37 40  1  0  0  0  0
 39 35  1  0  0  0  0
 40 38  1  0  0  0  0
 41 45  1  6  0  0  0
 41 44  1  0  0  0  0
 42 41  1  0  0  0  0
 42 36  1  1  0  0  0
 42 44  1  0  0  0  0
 43 42  1  0  0  0  0
 43 41  1  0  0  0  0
 45 46  1  0  0  0  0
 47 46  1  0  0  0  0
M  END
>  <MODEL>
7

>  <REMARK>
 VINA RESULT:      -8.0      3.356      7.750
  Name = 
  8 active torsions:
  status: ('A' for Active; 'I' for Inactive)
    1  A    between atoms: C_1  and  O_21
    2  A    between atoms: N_2  and  C_25
    3  A    between atoms: C_3  and  N_10
    4  A    between atoms: C_9  and  C_28
    5  A    between atoms: C_13  and  C_32
    6  A    between atoms: C_13  and  C_40
    7  A    between atoms: C_15  and  O_21
    8  A    between atoms: C_40  and  N_41
                            x       y       z     vdW  Elec       q    Type
                         _______ _______ _______ _____ _____    ______ ____

>  <TORSDO>
F 8

$$$$
=
 OpenBabel10222421423D

 47 55  0  0  1  0  0  0  0  0999 V2000
  189.3030  178.1020  145.4000 C   0  0  0  0  0  3  0  0  0  0  0  0
  181.7650  178.8620  141.8010 N   0  0  0  0  0  0  0  0  0  0  0  0
  188.6880  177.9300  147.5050 N   0  0  0  0  0  0  0  0  0  0  0  0
  185.3150  178.6730  141.3540 C   0  0  0  0  0  2  0  0  0  0  0  0
  185.2840  178.1610  146.2380 C   0  0  0  0  0  3  0  0  0  0  0  0
  183.0790  178.7320  142.2530 N   0  0  0  0  0  0  0  0  0  0  0  0
  185.7550  178.5020  142.6700 C   0  0  0  0  0  0  0  0  0  0  0  0
  186.2780  178.0250  147.1850 N   0  0  0  0  0  0  0  0  0  0  0  0
  183.1310  178.9500  139.9980 C   0  0  0  0  0  0  0  0  0  0  0  0
  183.9260  178.7860  141.1990 C   0  0  0  0  0  0  0  0  0  0  0  0
  186.9640  178.2370  144.5100 N   0  0  0  0  0  0  0  0  0  0  0  0
  183.5810  179.0860  138.7490 C   0  0  0  0  0  2  0  0  0  0  0  0
  187.5780  178.0000  146.7670 C   0  0  0  0  0  0  0  0  0  0  0  0
  188.7680  177.8360  148.9540 C   0  0  0  0  0  1  0  0  0  0  0  0
  187.0420  178.3740  143.1660 C   0  0  0  0  0  0  0  0  0  0  0  0
  184.8730  178.4420  143.7460 C   0  0  0  0  0  0  0  0  0  0  0  0
  187.9250  178.1050  145.4600 C   0  0  0  0  0  0  0  0  0  0  0  0
  183.4930  178.5620  143.5410 C   0  0  0  0  0  0  0  0  0  0  0  0
  181.7640  179.0030  140.4030 N   0  0  0  0  0  0  0  0  0  0  0  0
  185.6550  178.2730  144.8760 C   0  0  0  0  0  0  0  0  0  0  0  0
  189.7380  177.9910  146.6880 N   0  0  0  0  0  0  0  0  0  0  0  0
  182.6710  178.5190  144.4930 O   0  0  0  0  0  0  0  0  0  0  0  0
  182.7130  179.1760  137.6130 N   0  0  0  0  0  2  0  0  0  0  0  0
  182.1110  178.0560  136.9520 C   0  0  0  0  0  0  0  0  0  0  0  0
  181.2070  178.2590  136.0910 O   0  0  0  0  0  0  0  0  0  0  0  0
  183.4240  174.7740  135.8070 C   0  0  0  0  0  3  0  0  0  0  0  0
  183.1370  176.0790  135.8630 C   0  0  0  0  0  3  0  0  0  0  0  0
  183.2230  173.9300  137.0390 C   0  0  0  0  0  2  0  0  0  0  0  0
  182.6380  176.6690  137.1600 C   0  0  2  0  0  3  0  0  0  0  0  0
  181.8550  174.2460  137.6550 C   0  0  0  0  0  2  0  0  0  0  0  0
  181.6260  175.7570  137.8880 C   0  0  0  0  0  2  0  0  0  0  0  0
  188.2990  178.3220  142.3530 C   0  0  0  0  0  2  0  0  0  0  0  0
  188.5020  176.9110  141.8280 C   0  0  2  0  0  3  0  0  0  0  0  0
  188.5950  175.9150  142.9680 C   0  0  0  0  0  1  0  0  0  0  0  0
  192.0420  177.2880  139.8710 S   0  0  0  0  0  0  0  0  0  0  0  0
  190.6340  176.7230  137.4960 N   0  0  0  0  0  2  0  0  0  0  0  0
  189.5200  176.6580  139.5960 N   0  0  0  0  0  0  0  0  0  0  0  0
  191.0020  177.3020  141.3840 C   0  0  0  0  0  2  0  0  0  0  0  0
  190.5970  176.8430  138.9210 C   0  0  0  0  0  0  0  0  0  0  0  0
  189.6750  176.8500  140.9690 N   0  0  0  0  0  0  0  0  0  0  0  0
  189.3560  177.2760  135.4310 C   0  0  2  0  0  0  0  0  0  0  0  0
  189.4520  176.4150  136.7020 C   0  0  1  0  0  0  0  0  0  0  0  0
  190.0440  175.5930  135.2160 S   0  0  0  0  0  0  0  0  0  0  0  0
  188.6500  177.6050  136.6660 N   0  0  0  0  0  2  0  0  0  0  0  0
  188.2960  177.1840  134.5270 O   0  0  0  0  0  0  0  0  0  0  0  0
  187.2790  177.9630  135.0770 C   0  0  0  0  0  2  0  0  0  0  0  0
  185.9790  177.6780  134.3500 C   0  0  0  0  0  1  0  0  0  0  0  0
  1 17  1  0  0  0  0
  1 21  2  0  0  0  0
  2  6  1  0  0  0  0
  3 14  1  0  0  0  0
  4  7  1  0  0  0  0
  5  8  2  0  0  0  0
  6 18  1  0  0  0  0
  7 15  2  0  0  0  0
  7 16  1  0  0  0  0
  9 19  1  0  0  0  0
  9 10  2  0  0  0  0
 10  4  1  0  0  0  0
 10  6  1  0  0  0  0
 11 20  1  0  0  0  0
 11 17  1  0  0  0  0
 12  9  1  0  0  0  0
 13  8  1  0  0  0  0
 13  3  1  0  0  0  0
 15 11  1  0  0  0  0
 16 20  2  0  0  0  0
 17 13  2  0  0  0  0
 18 16  1  0  0  0  0
 18 22  2  0  0  0  0
 19  2  2  0  0  0  0
 20  5  1  0  0  0  0
 21  3  1  0  0  0  0
 23 12  1  0  0  0  0
 24 23  1  0  0  0  0
 25 24  2  0  0  0  0
 26 27  2  0  0  0  0
 26 28  1  0  0  0  0
 27 29  1  0  0  0  0
 28 30  1  0  0  0  0
 29 24  1  6  0  0  0
 29 31  1  0  0  0  0
 30 31  1  0  0  0  0
 32 15  1  0  0  0  0
 33 32  1  0  0  0  0
 33 34  1  1  0  0  0
 35 38  1  0  0  0  0
 36 39  1  0  0  0  0
 37 40  1  0  0  0  0
 39 37  2  0  0  0  0
 39 35  1  0  0  0  0
 40 38  1  0  0  0  0
 40 33  1  0  0  0  0
 41 45  1  6  0  0  0
 41 44  1  0  0  0  0
 41 42  1  0  0  0  0
 42 36  1  1  0  0  0
 43 41  1  0  0  0  0
 43 42  1  0  0  0  0
 44 42  1  0  0  0  0
 45 46  1  0  0  0  0
 47 46  1  0  0  0  0
M  END
>  <MODEL>
8

>  <REMARK>
 VINA RESULT:      -8.0      2.437      3.444
  Name = 
  8 active torsions:
  status: ('A' for Active; 'I' for Inactive)
    1  A    between atoms: C_1  and  O_21
    2  A    between atoms: N_2  and  C_25
    3  A    between atoms: C_3  and  N_10
    4  A    between atoms: C_9  and  C_28
    5  A    between atoms: C_13  and  C_32
    6  A    between atoms: C_13  and  C_40
    7  A    between atoms: C_15  and  O_21
    8  A    between atoms: C_40  and  N_41
                            x       y       z     vdW  Elec       q    Type
                         _______ _______ _______ _____ _____    ______ ____

>  <TORSDO>
F 8

$$$$
=
 OpenBabel10222421423D

 47 55  0  0  1  0  0  0  0  0999 V2000
  192.5320  176.9130  138.9660 C   0  0  0  0  0  3  0  0  0  0  0  0
  184.8130  176.4000  135.7230 N   0  0  0  0  0  0  0  0  0  0  0  0
  193.6360  175.7360  137.4710 N   0  0  0  0  0  0  0  0  0  0  0  0
  186.9100  177.6870  138.3280 C   0  0  0  0  0  2  0  0  0  0  0  0
  190.4310  175.3960  135.7810 C   0  0  0  0  0  3  0  0  0  0  0  0
  186.0360  176.5840  136.3700 N   0  0  0  0  0  0  0  0  0  0  0  0
  188.1650  177.2080  137.9390 C   0  0  0  0  0  0  0  0  0  0  0  0
  191.7870  175.2330  135.9710 N   0  0  0  0  0  0  0  0  0  0  0  0
  184.4410  177.6660  137.5630 C   0  0  0  0  0  0  0  0  0  0  0  0
  185.8500  177.3340  137.4810 C   0  0  0  0  0  0  0  0  0  0  0  0
  190.3230  176.7100  137.8010 N   0  0  0  0  0  0  0  0  0  0  0  0
  183.8340  178.3580  138.5280 C   0  0  0  0  0  2  0  0  0  0  0  0
  192.3650  175.8090  137.0660 C   0  0  0  0  0  0  0  0  0  0  0  0
  194.7240  175.0330  136.8090 C   0  0  0  0  0  1  0  0  0  0  0  0
  189.4000  177.3600  138.5480 C   0  0  0  0  0  0  0  0  0  0  0  0
  188.3460  176.4430  136.7910 C   0  0  0  0  0  0  0  0  0  0  0  0
  191.6580  176.5320  137.9690 C   0  0  0  0  0  0  0  0  0  0  0  0
  187.2540  176.1140  135.9770 C   0  0  0  0  0  0  0  0  0  0  0  0
  183.8000  177.0580  136.4420 N   0  0  0  0  0  0  0  0  0  0  0  0
  189.6980  176.1510  136.7300 C   0  0  0  0  0  0  0  0  0  0  0  0
  193.7470  176.4010  138.6200 N   0  0  0  0  0  0  0  0  0  0  0  0
  187.3830  175.4170  134.9370 O   0  0  0  0  0  0  0  0  0  0  0  0
  182.4420  178.6950  138.4880 N   0  0  0  0  0  2  0  0  0  0  0  0
  181.6310  178.9650  139.6380 C   0  0  0  0  0  0  0  0  0  0  0  0
  180.4720  179.4480  139.4780 O   0  0  0  0  0  0  0  0  0  0  0  0
  181.5870  179.0910  143.3510 C   0  0  0  0  0  3  0  0  0  0  0  0
  181.2020  179.1600  142.0730 C   0  0  0  0  0  3  0  0  0  0  0  0
  182.8920  178.4160  143.6840 C   0  0  0  0  0  2  0  0  0  0  0  0
  182.0760  178.5470  141.0060 C   0  0  2  0  0  3  0  0  0  0  0  0
  183.9820  178.9140  142.7270 C   0  0  0  0  0  2  0  0  0  0  0  0
  183.5820  178.8020  141.2380 C   0  0  0  0  0  2  0  0  0  0  0  0
  189.6830  178.1650  139.7800 C   0  0  0  0  0  2  0  0  0  0  0  0
  188.9100  177.5830  140.9510 C   0  0  2  0  0  3  0  0  0  0  0  0
  187.8400  178.5470  141.4290 C   0  0  0  0  0  1  0  0  0  0  0  0
  191.4870  175.8940  143.5970 S   0  0  0  0  0  0  0  0  0  0  0  0
  190.1350  177.3200  145.6170 N   0  0  0  0  0  2  0  0  0  0  0  0
  189.5440  177.6220  143.3340 N   0  0  0  0  0  0  0  0  0  0  0  0
  190.8270  176.1640  141.9060 C   0  0  0  0  0  2  0  0  0  0  0  0
  190.2830  177.0550  144.2190 C   0  0  0  0  0  0  0  0  0  0  0  0
  189.8160  177.2140  142.0280 N   0  0  0  0  0  0  0  0  0  0  0  0
  187.9060  177.4730  146.7180 C   0  0  2  0  0  0  0  0  0  0  0  0
  189.1200  178.2230  146.1450 C   0  0  1  0  0  0  0  0  0  0  0  0
  189.1570  178.0320  147.9320 S   0  0  0  0  0  0  0  0  0  0  0  0
  187.9320  178.0190  145.3640 N   0  0  0  0  0  2  0  0  0  0  0  0
  186.7920  178.1240  147.2520 O   0  0  0  0  0  0  0  0  0  0  0  0
  185.8900  178.2310  146.1950 C   0  0  0  0  0  2  0  0  0  0  0  0
  184.4900  178.4170  146.7460 C   0  0  0  0  0  1  0  0  0  0  0  0
  2  6  1  0  0  0  0
  2 19  2  0  0  0  0
  3 21  1  0  0  0  0
  5  8  2  0  0  0  0
  5 20  1  0  0  0  0
  6 10  1  0  0  0  0
  7  4  1  0  0  0  0
  7 15  2  0  0  0  0
  8 13  1  0  0  0  0
  9 12  1  0  0  0  0
 10  9  2  0  0  0  0
 10  4  1  0  0  0  0
 11 17  1  0  0  0  0
 11 15  1  0  0  0  0
 13  3  1  0  0  0  0
 13 17  2  0  0  0  0
 14  3  1  0  0  0  0
 15 32  1  0  0  0  0
 16  7  1  0  0  0  0
 17  1  1  0  0  0  0
 18  6  1  0  0  0  0
 18 16  1  0  0  0  0
 19  9  1  0  0  0  0
 20 16  2  0  0  0  0
 20 11  1  0  0  0  0
 21  1  2  0  0  0  0
 22 18  2  0  0  0  0
 23 12  1  0  0  0  0
 23 24  1  0  0  0  0
 25 24  2  0  0  0  0
 26 28  1  0  0  0  0
 27 26  2  0  0  0  0
 29 24  1  6  0  0  0
 29 31  1  0  0  0  0
 29 27  1  0  0  0  0
 30 28  1  0  0  0  0
 31 30  1  0  0  0  0
 32 33  1  0  0  0  0
 33 34  1  1  0  0  0
 33 40  1  0  0  0  0
 35 39  1  0  0  0  0
 37 39  2  0  0  0  0
 38 40  1  0  0  0  0
 38 35  1  0  0  0  0
 39 36  1  0  0  0  0
 40 37  1  0  0  0  0
 41 45  1  1  0  0  0
 41 43  1  0  0  0  0
 42 36  1  6  0  0  0
 42 41  1  0  0  0  0
 42 43  1  0  0  0  0
 44 42  1  0  0  0  0
 44 41  1  0  0  0  0
 46 47  1  0  0  0  0
 46 45  1  0  0  0  0
M  END
>  <MODEL>
9

>  <REMARK>
 VINA RESULT:      -8.0      2.827      8.288
  Name = 
  8 active torsions:
  status: ('A' for Active; 'I' for Inactive)
    1  A    between atoms: C_1  and  O_21
    2  A    between atoms: N_2  and  C_25
    3  A    between atoms: C_3  and  N_10
    4  A    between atoms: C_9  and  C_28
    5  A    between atoms: C_13  and  C_32
    6  A    between atoms: C_13  and  C_40
    7  A    between atoms: C_15  and  O_21
    8  A    between atoms: C_40  and  N_41
                            x       y       z     vdW  Elec       q    Type
                         _______ _______ _______ _____ _____    ______ ____

>  <TORSDO>
F 8

$$$$
