=
 OpenBabel10232411083D

 39 43  0  0  1  0  0  0  0  0999 V2000
  184.6230  179.0360  144.5920 C   0  0  0  0  0  0  0  0  0  0  0  0
  185.5660  178.7950  140.2090 C   0  0  0  0  0  0  0  0  0  0  0  0
  184.8420  178.9600  143.2370 C   0  0  0  0  0  0  0  0  0  0  0  0
  183.2730  178.8340  144.8410 C   0  0  0  0  0  3  0  0  0  0  0  0
  181.0610  178.0740  138.6700 N   0  0  0  0  0  0  0  0  0  0  0  0
  182.1890  178.2870  139.3940 C   0  0  0  0  0  0  0  0  0  0  0  0
  183.5100  178.4360  139.0590 C   0  0  0  0  0  3  0  0  0  0  0  0
  179.9820  177.9890  139.4570 N   0  0  0  0  0  0  0  0  0  0  0  0
  186.0510  179.0600  142.6550 N   0  0  0  0  0  0  0  0  0  0  0  0
  182.6260  178.6550  143.6250 C   0  0  0  0  0  3  0  0  0  0  0  0
  183.5700  178.7240  142.6100 C   0  0  0  0  0  0  0  0  0  0  0  0
  186.3760  178.9880  141.3440 C   0  0  0  0  0  3  0  0  0  0  0  0
  180.4500  178.1820  141.0620 S   0  0  0  0  0  0  0  0  0  0  0  0
  183.3070  178.5840  141.2570 C   0  0  0  0  0  0  0  0  0  0  0  0
  184.2090  178.6220  140.2240 N   0  0  0  0  0  0  0  0  0  0  0  0
  182.0640  178.3760  140.7150 C   0  0  0  0  0  0  0  0  0  0  0  0
  185.6850  179.2070  145.6320 C   0  0  0  0  0  2  0  0  0  0  0  0
  186.4400  177.9070  145.8890 C   0  0  2  0  0  3  0  0  0  0  0  0
  186.6560  177.7190  147.3830 C   0  0  0  0  0  2  0  0  0  0  0  0
  188.0790  178.0810  147.7580 C   0  0  0  0  0  1  0  0  0  0  0  0
  187.7280  177.9340  145.2060 N   0  0  0  0  0  2  0  0  0  0  0  0
  187.8350  176.7200  144.4060 C   0  0  0  0  0  2  0  0  0  0  0  0
  192.1070  178.9970  144.0150 O   0  0  0  0  0  1  0  0  0  0  0  0
  191.0100  178.3830  143.4080 C   0  0  2  0  0  3  0  0  0  0  0  0
  189.1940  176.6230  143.7210 C   0  0  2  0  0  3  0  0  0  0  0  0
  190.2370  177.5160  144.4120 C   0  0  1  0  0  3  0  0  0  0  0  0
  189.0750  176.9060  142.2890 N   0  0  0  0  0  2  0  0  0  0  0  0
  191.4590  177.5880  142.1790 C   0  0  0  0  0  2  0  0  0  0  0  0
  190.3700  176.6310  141.6710 C   0  0  0  0  0  2  0  0  0  0  0  0
  191.1130  176.7150  145.1500 O   0  0  0  0  0  1  0  0  0  0  0  0
  186.1960  178.7580  138.9460 O   0  0  0  0  0  0  0  0  0  0  0  0
  187.4490  176.9570  137.8840 N   0  0  0  0  0  2  0  0  0  0  0  0
  188.6150  176.2240  137.4980 C   0  0  0  0  0  0  0  0  0  0  0  0
  189.9240  176.7120  137.8030 N   0  0  0  0  0  2  0  0  0  0  0  0
  187.4360  178.1840  138.6240 C   0  0  0  0  0  0  0  0  0  0  0  0
  188.5200  178.7330  138.9620 O   0  0  0  0  0  0  0  0  0  0  0  0
  188.4760  175.1350  136.8820 O   0  0  0  0  0  0  0  0  0  0  0  0
  191.4100  175.0190  138.4110 O   0  0  0  0  0  1  0  0  0  0  0  0
  191.1340  175.9870  137.4460 C   0  0  0  0  0  2  0  0  0  0  0  0
  1  4  2  0  0  0  0
  1 17  1  0  0  0  0
  2 15  1  0  0  0  0
  2 12  2  0  0  0  0
  3  1  1  0  0  0  0
  5  6  1  0  0  0  0
  5  8  2  0  0  0  0
  6 16  1  0  0  0  0
  7  6  2  0  0  0  0
  7 15  1  0  0  0  0
  8 13  1  0  0  0  0
  9  3  2  0  0  0  0
 10  4  1  0  0  0  0
 11  3  1  0  0  0  0
 11 10  2  0  0  0  0
 12  9  1  0  0  0  0
 14 11  1  0  0  0  0
 15 14  1  0  0  0  0
 16 13  1  0  0  0  0
 16 14  2  0  0  0  0
 18 17  1  1  0  0  0
 18 19  1  0  0  0  0
 19 20  1  0  0  0  0
 21 18  1  0  0  0  0
 22 21  1  0  0  0  0
 24 23  1  1  0  0  0
 24 26  1  0  0  0  0
 25 22  1  1  0  0  0
 25 26  1  0  0  0  0
 26 30  1  6  0  0  0
 27 25  1  0  0  0  0
 28 24  1  0  0  0  0
 29 28  1  0  0  0  0
 29 27  1  0  0  0  0
 31  2  1  0  0  0  0
 32 35  1  0  0  0  0
 33 34  1  0  0  0  0
 33 32  1  0  0  0  0
 35 31  1  0  0  0  0
 35 36  2  0  0  0  0
 37 33  2  0  0  0  0
 39 34  1  0  0  0  0
 39 38  1  0  0  0  0
M  END
>  <MODEL>
1

>  <REMARK>
 VINA RESULT:      -9.0      0.000      0.000
  Name = 
  9 active torsions:
  status: ('A' for Active; 'I' for Inactive)
    1  A    between atoms: C_4  and  C_27
    2  A    between atoms: C_5  and  C_24
    3  A    between atoms: C_7  and  C_37
    4  A    between atoms: C_9  and  O_26
    5  A    between atoms: C_11  and  N_30
    6  A    between atoms: N_12  and  C_27
    7  A    between atoms: N_12  and  C_37
    8  A    between atoms: C_24  and  C_37
    9  A    between atoms: O_26  and  C_31
                            x       y       z     vdW  Elec       q    Type
                         _______ _______ _______ _____ _____    ______ ____

>  <TORSDO>
F 9

$$$$
=
 OpenBabel10232411083D

 39 43  0  0  1  0  0  0  0  0999 V2000
  190.0250  177.6330  140.6470 C   0  0  0  0  0  0  0  0  0  0  0  0
  186.8880  178.0030  143.8370 C   0  0  0  0  0  0  0  0  0  0  0  0
  189.1160  177.7380  141.6720 C   0  0  0  0  0  0  0  0  0  0  0  0
  191.2560  177.2660  141.1730 C   0  0  0  0  0  3  0  0  0  0  0  0
  189.7360  177.0080  147.5900 N   0  0  0  0  0  0  0  0  0  0  0  0
  189.2060  177.2500  146.3630 C   0  0  0  0  0  0  0  0  0  0  0  0
  187.9470  177.5710  145.9280 C   0  0  0  0  0  3  0  0  0  0  0  0
  191.0410  176.7230  147.5120 N   0  0  0  0  0  0  0  0  0  0  0  0
  187.8130  178.0290  141.5060 N   0  0  0  0  0  0  0  0  0  0  0  0
  191.1280  177.1650  142.5520 C   0  0  0  0  0  3  0  0  0  0  0  0
  189.8140  177.4480  142.8950 C   0  0  0  0  0  0  0  0  0  0  0  0
  186.8380  178.1430  142.4370 C   0  0  0  0  0  3  0  0  0  0  0  0
  191.5250  176.7750  145.9010 S   0  0  0  0  0  0  0  0  0  0  0  0
  189.2980  177.4410  144.1810 C   0  0  0  0  0  0  0  0  0  0  0  0
  188.0050  177.6910  144.5630 N   0  0  0  0  0  0  0  0  0  0  0  0
  190.0210  177.1710  145.3160 C   0  0  0  0  0  0  0  0  0  0  0  0
  189.7110  177.7900  139.1920 C   0  0  0  0  0  2  0  0  0  0  0  0
  189.3970  176.4490  138.5340 C   0  0  2  0  0  3  0  0  0  0  0  0
  190.6840  175.6750  138.2940 C   0  0  0  0  0  2  0  0  0  0  0  0
  191.6440  176.4980  137.4570 C   0  0  0  0  0  1  0  0  0  0  0  0
  188.7100  176.6650  137.2670 N   0  0  0  0  0  2  0  0  0  0  0  0
  187.4500  175.9300  137.3110 C   0  0  0  0  0  2  0  0  0  0  0  0
  185.0190  179.6010  139.3600 O   0  0  0  0  0  1  0  0  0  0  0  0
  185.0130  178.3500  138.7390 C   0  0  2  0  0  3  0  0  0  0  0  0
  186.2580  176.8550  137.0940 C   0  0  2  0  0  3  0  0  0  0  0  0
  186.3350  178.0930  138.0030 C   0  0  1  0  0  3  0  0  0  0  0  0
  184.9990  176.1250  137.2480 N   0  0  0  0  0  2  0  0  0  0  0  0
  183.7990  178.2210  137.8160 C   0  0  0  0  0  2  0  0  0  0  0  0
  183.9120  177.0230  136.8620 C   0  0  0  0  0  2  0  0  0  0  0  0
  186.6980  179.2040  137.2370 O   0  0  0  0  0  1  0  0  0  0  0  0
  185.6890  178.1770  144.5620 O   0  0  0  0  0  0  0  0  0  0  0  0
  184.0320  178.1080  142.7770 N   0  0  0  0  0  2  0  0  0  0  0  0
  182.8100  178.4380  142.1100 C   0  0  0  0  0  0  0  0  0  0  0  0
  181.8360  179.2780  142.7360 N   0  0  0  0  0  2  0  0  0  0  0  0
  184.4380  178.5800  144.0660 C   0  0  0  0  0  0  0  0  0  0  0  0
  183.6780  179.3300  144.7360 O   0  0  0  0  0  0  0  0  0  0  0  0
  182.6000  177.9810  140.9560 O   0  0  0  0  0  0  0  0  0  0  0  0
  180.0570  180.7880  142.6970 O   0  0  0  0  0  1  0  0  0  0  0  0
  180.5920  179.6550  142.0840 C   0  0  0  0  0  2  0  0  0  0  0  0
  1  4  2  0  0  0  0
  1  3  1  0  0  0  0
  2 31  1  0  0  0  0
  2 15  1  0  0  0  0
  3 11  1  0  0  0  0
  4 10  1  0  0  0  0
  6  5  1  0  0  0  0
  7  6  2  0  0  0  0
  8  5  2  0  0  0  0
  9  3  2  0  0  0  0
  9 12  1  0  0  0  0
 10 11  2  0  0  0  0
 11 14  1  0  0  0  0
 12  2  2  0  0  0  0
 13  8  1  0  0  0  0
 14 15  1  0  0  0  0
 14 16  2  0  0  0  0
 15  7  1  0  0  0  0
 16 13  1  0  0  0  0
 16  6  1  0  0  0  0
 17  1  1  0  0  0  0
 18 19  1  6  0  0  0
 18 17  1  0  0  0  0
 20 19  1  0  0  0  0
 21 22  1  0  0  0  0
 21 18  1  0  0  0  0
 24 23  1  6  0  0  0
 25 27  1  0  0  0  0
 25 22  1  1  0  0  0
 25 26  1  0  0  0  0
 26 30  1  6  0  0  0
 26 24  1  0  0  0  0
 28 24  1  0  0  0  0
 29 27  1  0  0  0  0
 29 28  1  0  0  0  0
 32 35  1  0  0  0  0
 33 34  1  0  0  0  0
 33 32  1  0  0  0  0
 35 31  1  0  0  0  0
 35 36  2  0  0  0  0
 37 33  2  0  0  0  0
 39 38  1  0  0  0  0
 39 34  1  0  0  0  0
M  END
>  <MODEL>
2

>  <REMARK>
 VINA RESULT:      -8.5      3.262      8.472
  Name = 
  9 active torsions:
  status: ('A' for Active; 'I' for Inactive)
    1  A    between atoms: C_4  and  C_27
    2  A    between atoms: C_5  and  C_24
    3  A    between atoms: C_7  and  C_37
    4  A    between atoms: C_9  and  O_26
    5  A    between atoms: C_11  and  N_30
    6  A    between atoms: N_12  and  C_27
    7  A    between atoms: N_12  and  C_37
    8  A    between atoms: C_24  and  C_37
    9  A    between atoms: O_26  and  C_31
                            x       y       z     vdW  Elec       q    Type
                         _______ _______ _______ _____ _____    ______ ____

>  <TORSDO>
F 9

$$$$
=
 OpenBabel10232411083D

 39 43  0  0  1  0  0  0  0  0999 V2000
  185.3050  178.3970  138.4620 C   0  0  0  0  0  0  0  0  0  0  0  0
  189.4910  177.3590  139.7090 C   0  0  0  0  0  0  0  0  0  0  0  0
  186.5990  178.0550  138.7780 C   0  0  0  0  0  0  0  0  0  0  0  0
  185.0100  177.9160  137.1950 C   0  0  0  0  0  3  0  0  0  0  0  0
  190.7900  175.1350  135.6400 N   0  0  0  0  0  0  0  0  0  0  0  0
  190.1450  175.8050  136.6300 C   0  0  0  0  0  0  0  0  0  0  0  0
  190.5100  176.2080  137.8880 C   0  0  0  0  0  3  0  0  0  0  0  0
  190.0030  174.9650  134.5710 N   0  0  0  0  0  0  0  0  0  0  0  0
  187.1900  178.3250  139.9560 N   0  0  0  0  0  0  0  0  0  0  0  0
  186.1410  177.2850  136.6920 C   0  0  0  0  0  3  0  0  0  0  0  0
  187.1430  177.3520  137.6490 C   0  0  0  0  0  0  0  0  0  0  0  0
  188.4430  178.0250  140.3710 C   0  0  0  0  0  3  0  0  0  0  0  0
  188.4990  175.6560  134.8730 S   0  0  0  0  0  0  0  0  0  0  0  0
  188.4180  176.8250  137.5170 C   0  0  0  0  0  0  0  0  0  0  0  0
  189.4300  176.8460  138.4420 N   0  0  0  0  0  0  0  0  0  0  0  0
  188.8870  176.1740  136.4030 C   0  0  0  0  0  0  0  0  0  0  0  0
  184.3430  179.0860  139.3790 C   0  0  0  0  0  2  0  0  0  0  0  0
  183.8490  178.1560  140.4830 C   0  0  2  0  0  3  0  0  0  0  0  0
  182.5990  177.4230  140.0220 C   0  0  0  0  0  2  0  0  0  0  0  0
  181.3570  178.1540  140.4930 C   0  0  0  0  0  1  0  0  0  0  0  0
  183.5530  178.9240  141.6860 N   0  0  0  0  0  2  0  0  0  0  0  0
  184.8220  179.2940  142.3030 C   0  0  0  0  0  2  0  0  0  0  0  0
  185.4940  179.4590  147.1100 O   0  0  0  0  0  1  0  0  0  0  0  0
  185.9190  179.0390  145.8490 C   0  0  2  0  0  3  0  0  0  0  0  0
  185.1340  178.4120  143.5070 C   0  0  2  0  0  3  0  0  0  0  0  0
  184.7760  179.1160  144.8270 C   0  0  1  0  0  3  0  0  0  0  0  0
  186.5250  177.9580  143.4730 N   0  0  0  0  0  2  0  0  0  0  0  0
  186.5290  177.6370  145.9340 C   0  0  0  0  0  2  0  0  0  0  0  0
  186.7050  176.9890  144.5520 C   0  0  0  0  0  2  0  0  0  0  0  0
  183.6090  178.5520  145.3480 O   0  0  0  0  0  1  0  0  0  0  0  0
  190.7070  177.1830  140.4060 O   0  0  0  0  0  0  0  0  0  0  0  0
  191.4190  177.9790  142.5960 N   0  0  0  0  0  2  0  0  0  0  0  0
  191.6860  177.8910  143.9980 C   0  0  0  0  0  0  0  0  0  0  0  0
  191.3780  176.7010  144.7310 N   0  0  0  0  0  2  0  0  0  0  0  0
  190.8800  176.9360  141.7770 C   0  0  0  0  0  0  0  0  0  0  0  0
  190.5590  175.8280  142.2890 O   0  0  0  0  0  0  0  0  0  0  0  0
  192.2020  178.8770  144.5870 O   0  0  0  0  0  0  0  0  0  0  0  0
  190.4960  176.8190  146.8890 O   0  0  0  0  0  1  0  0  0  0  0  0
  191.6530  176.5630  146.1530 C   0  0  0  0  0  2  0  0  0  0  0  0
  1  3  1  0  0  0  0
  1 17  1  0  0  0  0
  2 12  2  0  0  0  0
  2 31  1  0  0  0  0
  3  9  2  0  0  0  0
  4  1  2  0  0  0  0
  5  6  1  0  0  0  0
  6  7  2  0  0  0  0
  7 15  1  0  0  0  0
  8 13  1  0  0  0  0
  8  5  2  0  0  0  0
  9 12  1  0  0  0  0
 10  4  1  0  0  0  0
 10 11  2  0  0  0  0
 11  3  1  0  0  0  0
 13 16  1  0  0  0  0
 14 11  1  0  0  0  0
 14 15  1  0  0  0  0
 15  2  1  0  0  0  0
 16  6  1  0  0  0  0
 16 14  2  0  0  0  0
 18 17  1  6  0  0  0
 18 21  1  0  0  0  0
 19 18  1  0  0  0  0
 19 20  1  0  0  0  0
 21 22  1  0  0  0  0
 24 28  1  0  0  0  0
 24 23  1  1  0  0  0
 25 22  1  6  0  0  0
 25 26  1  0  0  0  0
 26 30  1  1  0  0  0
 26 24  1  0  0  0  0
 27 25  1  0  0  0  0
 27 29  1  0  0  0  0
 29 28  1  0  0  0  0
 31 35  1  0  0  0  0
 32 33  1  0  0  0  0
 33 37  2  0  0  0  0
 33 34  1  0  0  0  0
 34 39  1  0  0  0  0
 35 36  2  0  0  0  0
 35 32  1  0  0  0  0
 39 38  1  0  0  0  0
M  END
>  <MODEL>
3

>  <REMARK>
 VINA RESULT:      -8.4      2.861      7.003
  Name = 
  9 active torsions:
  status: ('A' for Active; 'I' for Inactive)
    1  A    between atoms: C_4  and  C_27
    2  A    between atoms: C_5  and  C_24
    3  A    between atoms: C_7  and  C_37
    4  A    between atoms: C_9  and  O_26
    5  A    between atoms: C_11  and  N_30
    6  A    between atoms: N_12  and  C_27
    7  A    between atoms: N_12  and  C_37
    8  A    between atoms: C_24  and  C_37
    9  A    between atoms: O_26  and  C_31
                            x       y       z     vdW  Elec       q    Type
                         _______ _______ _______ _____ _____    ______ ____

>  <TORSDO>
F 9

$$$$
=
 OpenBabel10232411083D

 39 43  0  0  1  0  0  0  0  0999 V2000
  190.6510  178.1020  142.8380 C   0  0  0  0  0  0  0  0  0  0  0  0
  187.4650  178.2010  139.6770 C   0  0  0  0  0  0  0  0  0  0  0  0
  189.7180  178.0930  141.8290 C   0  0  0  0  0  0  0  0  0  0  0  0
  191.8310  177.5460  142.3650 C   0  0  0  0  0  3  0  0  0  0  0  0
  190.0080  176.0470  136.2010 N   0  0  0  0  0  0  0  0  0  0  0  0
  189.5610  176.6090  137.3540 C   0  0  0  0  0  0  0  0  0  0  0  0
  188.3710  177.1790  137.7230 C   0  0  0  0  0  3  0  0  0  0  0  0
  191.2720  175.6240  136.3210 N   0  0  0  0  0  0  0  0  0  0  0  0
  188.4780  178.6050  141.9350 N   0  0  0  0  0  0  0  0  0  0  0  0
  191.6320  177.1560  141.0460 C   0  0  0  0  0  3  0  0  0  0  0  0
  190.3340  177.4830  140.6820 C   0  0  0  0  0  0  0  0  0  0  0  0
  187.4950  178.6590  141.0070 C   0  0  0  0  0  3  0  0  0  0  0  0
  191.8240  175.9580  137.8760 S   0  0  0  0  0  0  0  0  0  0  0  0
  189.7670  177.2580  139.4380 C   0  0  0  0  0  0  0  0  0  0  0  0
  188.5000  177.5840  139.0270 N   0  0  0  0  0  0  0  0  0  0  0  0
  190.4020  176.6540  138.3820 C   0  0  0  0  0  0  0  0  0  0  0  0
  190.4550  178.7050  144.1940 C   0  0  0  0  0  2  0  0  0  0  0  0
  190.2530  177.6370  145.2640 C   0  0  2  0  0  3  0  0  0  0  0  0
  191.2590  176.5120  145.0700 C   0  0  0  0  0  2  0  0  0  0  0  0
  191.9340  176.1790  146.3860 C   0  0  0  0  0  1  0  0  0  0  0  0
  188.8990  177.1030  145.1870 N   0  0  0  0  0  2  0  0  0  0  0  0
  188.1300  177.6740  146.2870 C   0  0  0  0  0  2  0  0  0  0  0  0
  184.8690  179.5230  143.1990 O   0  0  0  0  0  1  0  0  0  0  0  0
  185.2740  179.2620  144.5100 C   0  0  2  0  0  3  0  0  0  0  0  0
  186.6380  177.6860  145.9750 C   0  0  2  0  0  3  0  0  0  0  0  0
  186.3660  178.1840  144.5460 C   0  0  1  0  0  3  0  0  0  0  0  0
  185.9020  178.4500  146.9840 N   0  0  0  0  0  2  0  0  0  0  0  0
  184.0660  178.8950  145.3750 C   0  0  0  0  0  2  0  0  0  0  0  0
  184.4750  178.2790  146.7220 C   0  0  0  0  0  2  0  0  0  0  0  0
  186.0160  177.0990  143.7390 O   0  0  0  0  0  1  0  0  0  0  0  0
  186.2810  178.4040  138.9340 O   0  0  0  0  0  0  0  0  0  0  0  0
  184.0530  177.6480  139.5680 N   0  0  0  0  0  2  0  0  0  0  0  0
  182.7050  177.7850  140.0260 C   0  0  0  0  0  0  0  0  0  0  0  0
  182.1940  179.0570  140.4370 N   0  0  0  0  0  2  0  0  0  0  0  0
  185.0030  178.7110  139.4270 C   0  0  0  0  0  0  0  0  0  0  0  0
  184.6910  179.8890  139.7530 O   0  0  0  0  0  0  0  0  0  0  0  0
  181.9650  176.7670  140.0620 O   0  0  0  0  0  0  0  0  0  0  0  0
  180.8080  179.9770  142.0730 O   0  0  0  0  0  1  0  0  0  0  0  0
  180.8230  179.2410  140.8880 C   0  0  0  0  0  2  0  0  0  0  0  0
  1 17  1  0  0  0  0
  2 12  2  0  0  0  0
  3  9  2  0  0  0  0
  3  1  1  0  0  0  0
  4  1  2  0  0  0  0
  5  8  2  0  0  0  0
  5  6  1  0  0  0  0
  6  7  2  0  0  0  0
  6 16  1  0  0  0  0
  7 15  1  0  0  0  0
  8 13  1  0  0  0  0
 10  4  1  0  0  0  0
 11 10  2  0  0  0  0
 11  3  1  0  0  0  0
 12  9  1  0  0  0  0
 13 16  1  0  0  0  0
 14 11  1  0  0  0  0
 15 14  1  0  0  0  0
 15  2  1  0  0  0  0
 16 14  2  0  0  0  0
 18 17  1  6  0  0  0
 19 18  1  0  0  0  0
 19 20  1  0  0  0  0
 21 18  1  0  0  0  0
 21 22  1  0  0  0  0
 24 23  1  6  0  0  0
 24 26  1  0  0  0  0
 24 28  1  0  0  0  0
 25 22  1  1  0  0  0
 25 27  1  0  0  0  0
 26 30  1  6  0  0  0
 26 25  1  0  0  0  0
 28 29  1  0  0  0  0
 29 27  1  0  0  0  0
 31 35  1  0  0  0  0
 31  2  1  0  0  0  0
 32 33  1  0  0  0  0
 33 37  2  0  0  0  0
 33 34  1  0  0  0  0
 34 39  1  0  0  0  0
 35 32  1  0  0  0  0
 35 36  2  0  0  0  0
 39 38  1  0  0  0  0
M  END
>  <MODEL>
4

>  <REMARK>
 VINA RESULT:      -8.4      3.014      6.803
  Name = 
  9 active torsions:
  status: ('A' for Active; 'I' for Inactive)
    1  A    between atoms: C_4  and  C_27
    2  A    between atoms: C_5  and  C_24
    3  A    between atoms: C_7  and  C_37
    4  A    between atoms: C_9  and  O_26
    5  A    between atoms: C_11  and  N_30
    6  A    between atoms: N_12  and  C_27
    7  A    between atoms: N_12  and  C_37
    8  A    between atoms: C_24  and  C_37
    9  A    between atoms: O_26  and  C_31
                            x       y       z     vdW  Elec       q    Type
                         _______ _______ _______ _____ _____    ______ ____

>  <TORSDO>
F 9

$$$$
=
 OpenBabel10232411083D

 39 43  0  0  1  0  0  0  0  0999 V2000
  185.2450  178.3130  138.1390 C   0  0  0  0  0  0  0  0  0  0  0  0
  189.3800  177.2630  139.5390 C   0  0  0  0  0  0  0  0  0  0  0  0
  186.5200  177.9550  138.5080 C   0  0  0  0  0  0  0  0  0  0  0  0
  184.8970  177.6160  136.9920 C   0  0  0  0  0  3  0  0  0  0  0  0
  190.4580  174.2110  135.9740 N   0  0  0  0  0  0  0  0  0  0  0  0
  189.8750  175.1010  136.8180 C   0  0  0  0  0  0  0  0  0  0  0  0
  190.2890  175.7150  137.9710 C   0  0  0  0  0  3  0  0  0  0  0  0
  189.6420  173.8890  134.9630 N   0  0  0  0  0  0  0  0  0  0  0  0
  187.1500  178.4080  139.6070 N   0  0  0  0  0  0  0  0  0  0  0  0
  185.9760  176.8270  136.6150 C   0  0  0  0  0  3  0  0  0  0  0  0
  186.9980  177.0110  137.5340 C   0  0  0  0  0  0  0  0  0  0  0  0
  188.3880  178.1130  140.0650 C   0  0  0  0  0  3  0  0  0  0  0  0
  188.1900  174.7230  135.1340 S   0  0  0  0  0  0  0  0  0  0  0  0
  188.2340  176.3860  137.4990 C   0  0  0  0  0  0  0  0  0  0  0  0
  189.2620  176.5190  138.3960 N   0  0  0  0  0  0  0  0  0  0  0  0
  188.6400  175.5020  136.5310 C   0  0  0  0  0  0  0  0  0  0  0  0
  184.3470  179.2290  138.9100 C   0  0  0  0  0  2  0  0  0  0  0  0
  183.0800  178.5180  139.3760 C   0  0  2  0  0  3  0  0  0  0  0  0
  181.9500  179.5230  139.5350 C   0  0  0  0  0  2  0  0  0  0  0  0
  181.5790  180.1150  138.1890 C   0  0  0  0  0  1  0  0  0  0  0  0
  183.3230  177.8470  140.6460 N   0  0  0  0  0  2  0  0  0  0  0  0
  182.5900  178.5690  141.6800 C   0  0  0  0  0  2  0  0  0  0  0  0
  187.0150  177.8360  143.5420 O   0  0  0  0  0  1  0  0  0  0  0  0
  185.6360  177.9550  143.7260 C   0  0  2  0  0  3  0  0  0  0  0  0
  183.5140  179.0230  142.8040 C   0  0  2  0  0  3  0  0  0  0  0  0
  184.9760  178.6380  142.5200 C   0  0  1  0  0  3  0  0  0  0  0  0
  183.0450  178.5250  144.0980 N   0  0  0  0  0  2  0  0  0  0  0  0
  185.3350  178.6790  145.0400 C   0  0  0  0  0  2  0  0  0  0  0  0
  183.8710  179.1340  145.1380 C   0  0  0  0  0  2  0  0  0  0  0  0
  185.6900  179.7800  142.1480 O   0  0  0  0  0  1  0  0  0  0  0  0
  190.5950  177.1460  140.2490 O   0  0  0  0  0  0  0  0  0  0  0  0
  191.2890  177.9940  142.4260 N   0  0  0  0  0  2  0  0  0  0  0  0
  191.5500  177.9370  143.8310 C   0  0  0  0  0  0  0  0  0  0  0  0
  191.2510  176.7590  144.5870 N   0  0  0  0  0  2  0  0  0  0  0  0
  190.7640  176.9290  141.6270 C   0  0  0  0  0  0  0  0  0  0  0  0
  190.4530  175.8280  142.1590 O   0  0  0  0  0  0  0  0  0  0  0  0
  192.0530  178.9400  144.4010 O   0  0  0  0  0  0  0  0  0  0  0  0
  190.4430  177.1550  146.7400 O   0  0  0  0  0  1  0  0  0  0  0  0
  191.5220  176.6530  146.0120 C   0  0  0  0  0  2  0  0  0  0  0  0
  1  3  1  0  0  0  0
  1 17  1  0  0  0  0
  2 12  2  0  0  0  0
  2 31  1  0  0  0  0
  3  9  2  0  0  0  0
  4  1  2  0  0  0  0
  5  6  1  0  0  0  0
  6  7  2  0  0  0  0
  7 15  1  0  0  0  0
  8 13  1  0  0  0  0
  8  5  2  0  0  0  0
  9 12  1  0  0  0  0
 10  4  1  0  0  0  0
 10 11  2  0  0  0  0
 11  3  1  0  0  0  0
 13 16  1  0  0  0  0
 14 11  1  0  0  0  0
 14 15  1  0  0  0  0
 15  2  1  0  0  0  0
 16  6  1  0  0  0  0
 16 14  2  0  0  0  0
 18 17  1  1  0  0  0
 18 19  1  0  0  0  0
 18 21  1  0  0  0  0
 20 19  1  0  0  0  0
 21 22  1  0  0  0  0
 24 23  1  6  0  0  0
 24 28  1  0  0  0  0
 25 22  1  6  0  0  0
 25 27  1  0  0  0  0
 26 30  1  1  0  0  0
 26 25  1  0  0  0  0
 26 24  1  0  0  0  0
 27 29  1  0  0  0  0
 28 29  1  0  0  0  0
 31 35  1  0  0  0  0
 32 33  1  0  0  0  0
 33 37  2  0  0  0  0
 33 34  1  0  0  0  0
 34 39  1  0  0  0  0
 35 36  2  0  0  0  0
 35 32  1  0  0  0  0
 39 38  1  0  0  0  0
M  END
>  <MODEL>
5

>  <REMARK>
 VINA RESULT:      -8.3      2.672      7.274
  Name = 
  9 active torsions:
  status: ('A' for Active; 'I' for Inactive)
    1  A    between atoms: C_4  and  C_27
    2  A    between atoms: C_5  and  C_24
    3  A    between atoms: C_7  and  C_37
    4  A    between atoms: C_9  and  O_26
    5  A    between atoms: C_11  and  N_30
    6  A    between atoms: N_12  and  C_27
    7  A    between atoms: N_12  and  C_37
    8  A    between atoms: C_24  and  C_37
    9  A    between atoms: O_26  and  C_31
                            x       y       z     vdW  Elec       q    Type
                         _______ _______ _______ _____ _____    ______ ____

>  <TORSDO>
F 9

$$$$
=
 OpenBabel10232411083D

 39 43  0  0  1  0  0  0  0  0999 V2000
  185.6470  177.8030  144.9130 C   0  0  0  0  0  0  0  0  0  0  0  0
  189.4790  177.0880  142.6850 C   0  0  0  0  0  0  0  0  0  0  0  0
  186.8520  177.5740  144.2930 C   0  0  0  0  0  0  0  0  0  0  0  0
  185.8510  177.8730  146.2830 C   0  0  0  0  0  3  0  0  0  0  0  0
  192.3560  176.7870  146.5340 N   0  0  0  0  0  0  0  0  0  0  0  0
  191.3150  176.9140  145.6720 C   0  0  0  0  0  0  0  0  0  0  0  0
  191.2120  176.8700  144.3070 C   0  0  0  0  0  3  0  0  0  0  0  0
  191.9580  176.9140  147.8060 N   0  0  0  0  0  0  0  0  0  0  0  0
  187.0200  177.5000  142.9600 N   0  0  0  0  0  0  0  0  0  0  0  0
  187.2010  177.6580  146.5340 C   0  0  0  0  0  3  0  0  0  0  0  0
  187.8500  177.4720  145.3230 C   0  0  0  0  0  0  0  0  0  0  0  0
  188.1550  177.2920  142.2530 C   0  0  0  0  0  3  0  0  0  0  0  0
  190.2980  177.1860  147.8420 S   0  0  0  0  0  0  0  0  0  0  0  0
  189.2070  177.2390  145.1650 C   0  0  0  0  0  0  0  0  0  0  0  0
  189.8930  177.0720  143.9900 N   0  0  0  0  0  0  0  0  0  0  0  0
  190.1110  177.1360  146.1920 C   0  0  0  0  0  0  0  0  0  0  0  0
  184.3450  178.0380  144.2130 C   0  0  0  0  0  2  0  0  0  0  0  0
  184.2570  179.4510  143.6430 C   0  0  2  0  0  3  0  0  0  0  0  0
  182.8800  180.0370  143.9210 C   0  0  0  0  0  2  0  0  0  0  0  0
  181.8620  178.9270  144.0930 C   0  0  0  0  0  1  0  0  0  0  0  0
  184.4990  179.4260  142.2070 N   0  0  0  0  0  2  0  0  0  0  0  0
  184.0570  178.1300  141.7020 C   0  0  0  0  0  2  0  0  0  0  0  0
  181.9630  180.6680  138.1290 O   0  0  0  0  0  1  0  0  0  0  0  0
  182.2120  179.4420  138.7500 C   0  0  2  0  0  3  0  0  0  0  0  0
  183.8760  178.1560  140.1880 C   0  0  2  0  0  3  0  0  0  0  0  0
  183.4140  179.5390  139.7000 C   0  0  1  0  0  3  0  0  0  0  0  0
  182.9820  177.0810  139.7530 N   0  0  0  0  0  2  0  0  0  0  0  0
  182.3880  178.3420  137.7000 C   0  0  0  0  0  2  0  0  0  0  0  0
  182.9890  177.0580  138.2920 C   0  0  0  0  0  2  0  0  0  0  0  0
  184.4830  180.1900  139.0800 O   0  0  0  0  0  1  0  0  0  0  0  0
  190.4740  176.9000  141.7020 O   0  0  0  0  0  0  0  0  0  0  0  0
  189.7640  178.0370  139.6670 N   0  0  0  0  0  2  0  0  0  0  0  0
  189.5020  178.1750  138.2670 C   0  0  0  0  0  0  0  0  0  0  0  0
  189.8190  177.1220  137.3520 N   0  0  0  0  0  2  0  0  0  0  0  0
  190.3070  176.8780  140.3070 C   0  0  0  0  0  0  0  0  0  0  0  0
  190.6360  175.8690  139.6240 O   0  0  0  0  0  0  0  0  0  0  0  0
  188.9820  179.2410  137.8450 O   0  0  0  0  0  0  0  0  0  0  0  0
  190.5370  176.5400  135.2100 O   0  0  0  0  0  1  0  0  0  0  0  0
  189.5490  177.2150  135.9260 C   0  0  0  0  0  2  0  0  0  0  0  0
  1  4  2  0  0  0  0
  2 15  1  0  0  0  0
  3  1  1  0  0  0  0
  3 11  1  0  0  0  0
  4 10  1  0  0  0  0
  5  8  2  0  0  0  0
  6 16  1  0  0  0  0
  6  5  1  0  0  0  0
  7  6  2  0  0  0  0
  8 13  1  0  0  0  0
  9  3  2  0  0  0  0
 11 10  2  0  0  0  0
 12  2  2  0  0  0  0
 12  9  1  0  0  0  0
 14 11  1  0  0  0  0
 14 16  2  0  0  0  0
 15  7  1  0  0  0  0
 15 14  1  0  0  0  0
 16 13  1  0  0  0  0
 17  1  1  0  0  0  0
 18 19  1  6  0  0  0
 18 17  1  0  0  0  0
 19 20  1  0  0  0  0
 21 18  1  0  0  0  0
 22 21  1  0  0  0  0
 24 23  1  6  0  0  0
 24 26  1  0  0  0  0
 25 22  1  1  0  0  0
 26 30  1  6  0  0  0
 26 25  1  0  0  0  0
 27 25  1  0  0  0  0
 28 29  1  0  0  0  0
 28 24  1  0  0  0  0
 29 27  1  0  0  0  0
 31  2  1  0  0  0  0
 32 35  1  0  0  0  0
 33 32  1  0  0  0  0
 34 33  1  0  0  0  0
 35 31  1  0  0  0  0
 36 35  2  0  0  0  0
 37 33  2  0  0  0  0
 38 39  1  0  0  0  0
 39 34  1  0  0  0  0
M  END
>  <MODEL>
6

>  <REMARK>
 VINA RESULT:      -8.3      2.840      7.142
  Name = 
  9 active torsions:
  status: ('A' for Active; 'I' for Inactive)
    1  A    between atoms: C_4  and  C_27
    2  A    between atoms: C_5  and  C_24
    3  A    between atoms: C_7  and  C_37
    4  A    between atoms: C_9  and  O_26
    5  A    between atoms: C_11  and  N_30
    6  A    between atoms: N_12  and  C_27
    7  A    between atoms: N_12  and  C_37
    8  A    between atoms: C_24  and  C_37
    9  A    between atoms: O_26  and  C_31
                            x       y       z     vdW  Elec       q    Type
                         _______ _______ _______ _____ _____    ______ ____

>  <TORSDO>
F 9

$$$$
=
 OpenBabel10232411083D

 39 43  0  0  1  0  0  0  0  0999 V2000
  184.2240  178.8410  141.5140 C   0  0  0  0  0  0  0  0  0  0  0  0
  186.5160  177.8310  137.7880 C   0  0  0  0  0  0  0  0  0  0  0  0
  184.8640  178.5200  140.3410 C   0  0  0  0  0  0  0  0  0  0  0  0
  182.8710  178.5680  141.3770 C   0  0  0  0  0  3  0  0  0  0  0  0
  182.7530  176.4060  135.1430 N   0  0  0  0  0  0  0  0  0  0  0  0
  183.5870  176.8620  136.1130 C   0  0  0  0  0  0  0  0  0  0  0  0
  184.9420  177.0630  136.1720 C   0  0  0  0  0  3  0  0  0  0  0  0
  181.4830  176.3790  135.5620 N   0  0  0  0  0  0  0  0  0  0  0  0
  186.1920  178.6160  140.1480 N   0  0  0  0  0  0  0  0  0  0  0  0
  182.6490  178.0930  140.0910 C   0  0  0  0  0  3  0  0  0  0  0  0
  183.8630  178.0490  139.4220 C   0  0  0  0  0  0  0  0  0  0  0  0
  186.9190  178.3170  139.0460 C   0  0  0  0  0  3  0  0  0  0  0  0
  181.4120  176.9270  137.1520 S   0  0  0  0  0  0  0  0  0  0  0  0
  184.0480  177.6220  138.1170 C   0  0  0  0  0  0  0  0  0  0  0  0
  185.2290  177.5390  137.4260 N   0  0  0  0  0  0  0  0  0  0  0  0
  183.0470  177.1970  137.2810 C   0  0  0  0  0  0  0  0  0  0  0  0
  184.8960  179.3110  142.7660 C   0  0  0  0  0  2  0  0  0  0  0  0
  185.2880  178.1460  143.6690 C   0  0  2  0  0  3  0  0  0  0  0  0
  185.2180  178.5730  145.1270 C   0  0  0  0  0  2  0  0  0  0  0  0
  183.7900  178.9120  145.5070 C   0  0  0  0  0  1  0  0  0  0  0  0
  186.6400  177.7020  143.3520 N   0  0  0  0  0  2  0  0  0  0  0  0
  187.3150  177.3940  144.6080 C   0  0  0  0  0  2  0  0  0  0  0  0
  191.9150  178.9030  144.2070 O   0  0  0  0  0  1  0  0  0  0  0  0
  190.8460  178.1520  143.7130 C   0  0  2  0  0  3  0  0  0  0  0  0
  188.7330  176.8880  144.3680 C   0  0  2  0  0  3  0  0  0  0  0  0
  189.7820  177.9270  144.7960 C   0  0  1  0  0  3  0  0  0  0  0  0
  188.9030  176.4590  142.9780 N   0  0  0  0  0  2  0  0  0  0  0  0
  191.3520  176.8380  143.1140 C   0  0  0  0  0  2  0  0  0  0  0  0
  190.2180  175.8320  142.8620 C   0  0  0  0  0  2  0  0  0  0  0  0
  190.3750  177.5160  145.9930 O   0  0  0  0  0  1  0  0  0  0  0  0
  187.5150  177.6040  136.8160 O   0  0  0  0  0  0  0  0  0  0  0  0
  189.3200  176.0700  137.3860 N   0  0  0  0  0  2  0  0  0  0  0  0
  190.6670  175.6790  137.6670 C   0  0  0  0  0  0  0  0  0  0  0  0
  191.7410  176.6190  137.5680 N   0  0  0  0  0  2  0  0  0  0  0  0
  188.8860  177.3870  137.0320 C   0  0  0  0  0  0  0  0  0  0  0  0
  189.7250  178.3210  136.9070 O   0  0  0  0  0  0  0  0  0  0  0  0
  190.9010  174.4900  138.0070 O   0  0  0  0  0  0  0  0  0  0  0  0
  193.9420  176.6150  136.7940 O   0  0  0  0  0  1  0  0  0  0  0  0
  193.1210  176.2670  137.8660 C   0  0  0  0  0  2  0  0  0  0  0  0
  1 17  1  0  0  0  0
  2 12  2  0  0  0  0
  3  1  1  0  0  0  0
  4  1  2  0  0  0  0
  5  8  2  0  0  0  0
  5  6  1  0  0  0  0
  6  7  2  0  0  0  0
  6 16  1  0  0  0  0
  7 15  1  0  0  0  0
  8 13  1  0  0  0  0
  9  3  2  0  0  0  0
 10  4  1  0  0  0  0
 11 10  2  0  0  0  0
 11  3  1  0  0  0  0
 12  9  1  0  0  0  0
 13 16  1  0  0  0  0
 14 11  1  0  0  0  0
 15  2  1  0  0  0  0
 15 14  1  0  0  0  0
 16 14  2  0  0  0  0
 18 17  1  6  0  0  0
 18 19  1  0  0  0  0
 19 20  1  0  0  0  0
 21 18  1  0  0  0  0
 21 22  1  0  0  0  0
 24 23  1  1  0  0  0
 24 26  1  0  0  0  0
 25 22  1  6  0  0  0
 25 26  1  0  0  0  0
 26 30  1  1  0  0  0
 27 25  1  0  0  0  0
 28 24  1  0  0  0  0
 29 27  1  0  0  0  0
 29 28  1  0  0  0  0
 31 35  1  0  0  0  0
 31  2  1  0  0  0  0
 32 33  1  0  0  0  0
 33 37  2  0  0  0  0
 34 33  1  0  0  0  0
 34 39  1  0  0  0  0
 35 32  1  0  0  0  0
 36 35  2  0  0  0  0
 38 39  1  0  0  0  0
M  END
>  <MODEL>
7

>  <REMARK>
 VINA RESULT:      -8.2      1.913      2.807
  Name = 
  9 active torsions:
  status: ('A' for Active; 'I' for Inactive)
    1  A    between atoms: C_4  and  C_27
    2  A    between atoms: C_5  and  C_24
    3  A    between atoms: C_7  and  C_37
    4  A    between atoms: C_9  and  O_26
    5  A    between atoms: C_11  and  N_30
    6  A    between atoms: N_12  and  C_27
    7  A    between atoms: N_12  and  C_37
    8  A    between atoms: C_24  and  C_37
    9  A    between atoms: O_26  and  C_31
                            x       y       z     vdW  Elec       q    Type
                         _______ _______ _______ _____ _____    ______ ____

>  <TORSDO>
F 9

$$$$
=
 OpenBabel10232411083D

 39 43  0  0  1  0  0  0  0  0999 V2000
  185.8330  177.7180  144.5660 C   0  0  0  0  0  0  0  0  0  0  0  0
  189.7750  177.1050  142.5060 C   0  0  0  0  0  0  0  0  0  0  0  0
  187.0690  177.5180  143.9990 C   0  0  0  0  0  0  0  0  0  0  0  0
  185.9690  177.7340  145.9470 C   0  0  0  0  0  3  0  0  0  0  0  0
  192.4580  176.6560  146.4800 N   0  0  0  0  0  0  0  0  0  0  0  0
  191.4610  176.8150  145.5720 C   0  0  0  0  0  0  0  0  0  0  0  0
  191.4260  176.8260  144.2030 C   0  0  0  0  0  3  0  0  0  0  0  0
  191.9970  176.7300  147.7340 N   0  0  0  0  0  0  0  0  0  0  0  0
  187.3040  177.4980  142.6750 N   0  0  0  0  0  0  0  0  0  0  0  0
  187.3050  177.5130  146.2570 C   0  0  0  0  0  3  0  0  0  0  0  0
  188.0150  177.3770  145.0730 C   0  0  0  0  0  0  0  0  0  0  0  0
  188.4730  177.3230  142.0170 C   0  0  0  0  0  3  0  0  0  0  0  0
  190.3350  176.9960  147.6980 S   0  0  0  0  0  0  0  0  0  0  0  0
  189.3790  177.1540  144.9730 C   0  0  0  0  0  0  0  0  0  0  0  0
  190.1240  177.0370  143.8280 N   0  0  0  0  0  0  0  0  0  0  0  0
  190.2310  177.0120  146.0390 C   0  0  0  0  0  0  0  0  0  0  0  0
  184.5660  177.9790  143.8120 C   0  0  0  0  0  2  0  0  0  0  0  0
  184.4780  179.4260  143.3380 C   0  0  2  0  0  3  0  0  0  0  0  0
  183.1390  180.0230  143.7430 C   0  0  0  0  0  2  0  0  0  0  0  0
  182.2230  178.9420  144.2810 C   0  0  0  0  0  1  0  0  0  0  0  0
  184.6250  179.4870  141.8900 N   0  0  0  0  0  2  0  0  0  0  0  0
  184.1200  178.2350  141.3370 C   0  0  0  0  0  2  0  0  0  0  0  0
  181.6250  180.5600  137.8790 O   0  0  0  0  0  1  0  0  0  0  0  0
  182.0930  179.3650  138.4300 C   0  0  2  0  0  3  0  0  0  0  0  0
  183.9530  178.3220  139.8240 C   0  0  2  0  0  3  0  0  0  0  0  0
  183.2450  179.6230  139.4110 C   0  0  1  0  0  3  0  0  0  0  0  0
  183.2810  177.1300  139.3050 N   0  0  0  0  0  2  0  0  0  0  0  0
  182.4830  178.3860  137.3200 C   0  0  0  0  0  2  0  0  0  0  0  0
  183.3070  177.2020  137.8460 C   0  0  0  0  0  2  0  0  0  0  0  0
  184.1800  180.5000  138.8550 O   0  0  0  0  0  1  0  0  0  0  0  0
  190.8190  176.9600  141.5670 O   0  0  0  0  0  0  0  0  0  0  0  0
  190.8130  175.7150  139.4720 N   0  0  0  0  0  2  0  0  0  0  0  0
  190.7590  175.5390  138.0530 C   0  0  0  0  0  0  0  0  0  0  0  0
  190.5530  176.6550  137.1820 N   0  0  0  0  0  2  0  0  0  0  0  0
  190.7170  176.9640  140.1660 C   0  0  0  0  0  0  0  0  0  0  0  0
  190.5340  178.0350  139.5260 O   0  0  0  0  0  0  0  0  0  0  0  0
  190.8970  174.3830  137.5750 O   0  0  0  0  0  0  0  0  0  0  0  0
  189.2550  176.8880  135.2570 O   0  0  0  0  0  1  0  0  0  0  0  0
  190.5140  176.5210  135.7340 C   0  0  0  0  0  2  0  0  0  0  0  0
  1  4  2  0  0  0  0
  2 15  1  0  0  0  0
  3  1  1  0  0  0  0
  3 11  1  0  0  0  0
  4 10  1  0  0  0  0
  5  8  2  0  0  0  0
  6 16  1  0  0  0  0
  6  5  1  0  0  0  0
  7  6  2  0  0  0  0
  9  3  2  0  0  0  0
 11 10  2  0  0  0  0
 12  2  2  0  0  0  0
 12  9  1  0  0  0  0
 13  8  1  0  0  0  0
 14 11  1  0  0  0  0
 14 16  2  0  0  0  0
 15  7  1  0  0  0  0
 15 14  1  0  0  0  0
 16 13  1  0  0  0  0
 17  1  1  0  0  0  0
 18 19  1  6  0  0  0
 18 17  1  0  0  0  0
 19 20  1  0  0  0  0
 21 18  1  0  0  0  0
 22 21  1  0  0  0  0
 24 23  1  6  0  0  0
 24 26  1  0  0  0  0
 25 22  1  1  0  0  0
 26 30  1  6  0  0  0
 26 25  1  0  0  0  0
 27 25  1  0  0  0  0
 28 29  1  0  0  0  0
 28 24  1  0  0  0  0
 29 27  1  0  0  0  0
 31  2  1  0  0  0  0
 32 35  1  0  0  0  0
 33 32  1  0  0  0  0
 34 33  1  0  0  0  0
 35 31  1  0  0  0  0
 36 35  2  0  0  0  0
 37 33  2  0  0  0  0
 38 39  1  0  0  0  0
 39 34  1  0  0  0  0
M  END
>  <MODEL>
8

>  <REMARK>
 VINA RESULT:      -8.1      2.841      7.204
  Name = 
  9 active torsions:
  status: ('A' for Active; 'I' for Inactive)
    1  A    between atoms: C_4  and  C_27
    2  A    between atoms: C_5  and  C_24
    3  A    between atoms: C_7  and  C_37
    4  A    between atoms: C_9  and  O_26
    5  A    between atoms: C_11  and  N_30
    6  A    between atoms: N_12  and  C_27
    7  A    between atoms: N_12  and  C_37
    8  A    between atoms: C_24  and  C_37
    9  A    between atoms: O_26  and  C_31
                            x       y       z     vdW  Elec       q    Type
                         _______ _______ _______ _____ _____    ______ ____

>  <TORSDO>
F 9

$$$$
=
 OpenBabel10232411083D

 39 43  0  0  1  0  0  0  0  0999 V2000
  184.8490  178.8410  141.0420 C   0  0  0  0  0  0  0  0  0  0  0  0
  189.1500  177.7510  141.7300 C   0  0  0  0  0  0  0  0  0  0  0  0
  186.1500  178.4930  141.3200 C   0  0  0  0  0  0  0  0  0  0  0  0
  184.1300  178.8780  142.2280 C   0  0  0  0  0  3  0  0  0  0  0  0
  188.8500  177.1240  146.4950 N   0  0  0  0  0  0  0  0  0  0  0  0
  188.6190  177.3650  145.1790 C   0  0  0  0  0  0  0  0  0  0  0  0
  189.4140  177.3430  144.0640 C   0  0  0  0  0  3  0  0  0  0  0  0
  187.7380  177.2810  147.2240 N   0  0  0  0  0  0  0  0  0  0  0  0
  187.1290  178.4130  140.4010 N   0  0  0  0  0  0  0  0  0  0  0  0
  184.9820  178.5230  143.2660 C   0  0  0  0  0  3  0  0  0  0  0  0
  186.2420  178.2810  142.7390 C   0  0  0  0  0  0  0  0  0  0  0  0
  188.4330  178.0950  140.5680 C   0  0  0  0  0  3  0  0  0  0  0  0
  186.4690  177.7230  146.2120 S   0  0  0  0  0  0  0  0  0  0  0  0
  187.3610  177.9100  143.4670 C   0  0  0  0  0  0  0  0  0  0  0  0
  188.6270  177.6820  142.9930 N   0  0  0  0  0  0  0  0  0  0  0  0
  187.3830  177.7060  144.8240 C   0  0  0  0  0  0  0  0  0  0  0  0
  184.3230  179.2150  139.6920 C   0  0  0  0  0  2  0  0  0  0  0  0
  183.5360  178.0740  139.0560 C   0  0  2  0  0  3  0  0  0  0  0  0
  182.7330  177.3420  140.1200 C   0  0  0  0  0  2  0  0  0  0  0  0
  182.2740  175.9950  139.5980 C   0  0  0  0  0  1  0  0  0  0  0  0
  184.4460  177.1440  138.4000 N   0  0  0  0  0  2  0  0  0  0  0  0
  184.3930  177.4020  136.9660 C   0  0  0  0  0  2  0  0  0  0  0  0
  188.1840  174.3970  136.5380 O   0  0  0  0  0  1  0  0  0  0  0  0
  187.6820  175.6700  136.8130 C   0  0  2  0  0  3  0  0  0  0  0  0
  185.7730  177.2860  136.3280 C   0  0  2  0  0  3  0  0  0  0  0  0
  186.2500  175.8260  136.2820 C   0  0  1  0  0  3  0  0  0  0  0  0
  186.7310  178.1680  136.9970 N   0  0  0  0  0  2  0  0  0  0  0  0
  188.6250  176.7430  136.2640 C   0  0  0  0  0  2  0  0  0  0  0  0
  187.9770  178.1350  136.2340 C   0  0  0  0  0  2  0  0  0  0  0  0
  186.1560  175.3510  134.9710 O   0  0  0  0  0  1  0  0  0  0  0  0
  190.5270  177.4700  141.5980 O   0  0  0  0  0  0  0  0  0  0  0  0
  190.8530  176.1060  139.6050 N   0  0  0  0  0  2  0  0  0  0  0  0
  191.4840  175.6940  138.3890 C   0  0  0  0  0  0  0  0  0  0  0  0
  192.5820  176.4310  137.8440 N   0  0  0  0  0  2  0  0  0  0  0  0
  191.2410  177.2210  140.4150 C   0  0  0  0  0  0  0  0  0  0  0  0
  192.1960  177.9640  140.0570 O   0  0  0  0  0  0  0  0  0  0  0  0
  191.0610  174.6650  137.7990 O   0  0  0  0  0  0  0  0  0  0  0  0
  194.6360  176.2500  136.7510 O   0  0  0  0  0  1  0  0  0  0  0  0
  193.2640  176.0330  136.6230 C   0  0  0  0  0  2  0  0  0  0  0  0
  1  3  1  0  0  0  0
  1  4  2  0  0  0  0
  2 15  1  0  0  0  0
  3 11  1  0  0  0  0
  4 10  1  0  0  0  0
  5  8  2  0  0  0  0
  6  5  1  0  0  0  0
  7  6  2  0  0  0  0
  9 12  1  0  0  0  0
  9  3  2  0  0  0  0
 11 10  2  0  0  0  0
 11 14  1  0  0  0  0
 12  2  2  0  0  0  0
 13  8  1  0  0  0  0
 14 16  2  0  0  0  0
 15 14  1  0  0  0  0
 15  7  1  0  0  0  0
 16  6  1  0  0  0  0
 16 13  1  0  0  0  0
 17  1  1  0  0  0  0
 18 17  1  1  0  0  0
 18 19  1  0  0  0  0
 20 19  1  0  0  0  0
 21 18  1  0  0  0  0
 22 21  1  0  0  0  0
 24 23  1  6  0  0  0
 25 22  1  1  0  0  0
 25 27  1  0  0  0  0
 26 30  1  6  0  0  0
 26 25  1  0  0  0  0
 26 24  1  0  0  0  0
 28 24  1  0  0  0  0
 29 28  1  0  0  0  0
 29 27  1  0  0  0  0
 31  2  1  0  0  0  0
 32 35  1  0  0  0  0
 33 32  1  0  0  0  0
 34 33  1  0  0  0  0
 35 31  1  0  0  0  0
 36 35  2  0  0  0  0
 37 33  2  0  0  0  0
 39 38  1  0  0  0  0
 39 34  1  0  0  0  0
M  END
>  <MODEL>
9

>  <REMARK>
 VINA RESULT:      -8.0      2.529      6.544
  Name = 
  9 active torsions:
  status: ('A' for Active; 'I' for Inactive)
    1  A    between atoms: C_4  and  C_27
    2  A    between atoms: C_5  and  C_24
    3  A    between atoms: C_7  and  C_37
    4  A    between atoms: C_9  and  O_26
    5  A    between atoms: C_11  and  N_30
    6  A    between atoms: N_12  and  C_27
    7  A    between atoms: N_12  and  C_37
    8  A    between atoms: C_24  and  C_37
    9  A    between atoms: O_26  and  C_31
                            x       y       z     vdW  Elec       q    Type
                         _______ _______ _______ _____ _____    ______ ____

>  <TORSDO>
F 9

$$$$
