=
 OpenBabel10232411313D

 59 62  0  0  1  0  0  0  0  0999 V2000
  182.9600  179.3290  139.2360 C   0  0  0  0  0  2  0  0  0  0  0  0
  187.7590  178.8450  140.4220 O   0  0  0  0  0  0  0  0  0  0  0  0
  183.9510  177.8440  137.4890 C   0  0  0  0  0  3  0  0  0  0  0  0
  184.7470  176.3700  135.7070 C   0  0  0  0  0  1  0  0  0  0  0  0
  188.7840  177.5880  138.8190 N   0  0  0  0  0  0  0  0  0  0  0  0
  184.1170  178.5950  138.6480 C   0  0  0  0  0  0  0  0  0  0  0  0
  188.7170  176.8830  137.6600 C   0  0  0  0  0  3  0  0  0  0  0  0
  187.6750  178.1810  139.3510 C   0  0  0  0  0  0  0  0  0  0  0  0
  186.4340  178.0600  138.7060 C   0  0  0  0  0  0  0  0  0  0  0  0
  186.3280  177.3090  137.5060 C   0  0  0  0  0  0  0  0  0  0  0  0
  185.3380  178.6770  139.2310 N   0  0  0  0  0  0  0  0  0  0  0  0
  187.5100  176.7260  136.9740 C   0  0  0  0  0  0  0  0  0  0  0  0
  185.0400  177.1910  136.9150 C   0  0  0  0  0  0  0  0  0  0  0  0
  190.7920  176.3580  139.4720 C   0  0  0  0  0  1  0  0  0  0  0  0
  190.0810  177.7020  139.4780 C   0  0  0  0  0  2  0  0  0  0  0  0
  187.5600  175.9990  135.6670 C   0  0  0  0  0  2  0  0  0  0  0  0
  188.4790  174.7950  135.7680 C   0  0  0  0  0  2  0  0  0  0  0  0
  189.2710  174.6320  134.4850 C   0  0  0  0  0  2  0  0  0  0  0  0
  190.4540  173.9390  134.7520 O   0  0  0  0  0  0  0  0  0  0  0  0
  190.7380  174.2200  136.0910 C   0  0  0  0  0  2  0  0  0  0  0  0
  192.4810  175.4930  135.0830 O   0  0  0  0  0  1  0  0  0  0  0  0
  192.1570  174.7410  136.2150 C   0  0  2  0  0  3  0  0  0  0  0  0
  193.0730  173.6160  136.3400 N   0  0  0  0  0  2  0  0  0  0  0  0
  194.0760  173.9580  137.3390 C   0  0  0  0  0  2  0  0  0  0  0  0
  197.3390  171.3380  136.3710 C   0  0  0  0  0  2  0  0  0  0  0  0
  195.3130  171.8430  137.8660 C   0  0  0  0  0  2  0  0  0  0  0  0
  195.3550  173.1690  137.1080 C   0  0  0  0  0  3  0  0  0  0  0  0
  196.6240  171.0620  137.7010 C   0  0  0  0  0  2  0  0  0  0  0  0
  196.3430  171.6730  135.2660 C   0  0  0  0  0  2  0  0  0  0  0  0
  195.5470  172.9430  135.6030 C   0  0  0  0  0  2  0  0  0  0  0  0
  181.7000  178.6700  138.9090 N   0  0  0  0  0  0  0  0  0  0  0  0
  180.7990  179.6320  138.2640 C   0  0  0  0  0  2  0  0  0  0  0  0
  181.4870  180.4830  137.3900 O   0  0  0  0  0  0  0  0  0  0  0  0
  181.2010  181.7700  137.8540 C   0  0  0  0  0  2  0  0  0  0  0  0
  180.2500  182.4760  136.9020 C   0  0  0  0  0  2  0  0  0  0  0  0
  181.4840  184.4870  137.2570 O   0  0  0  0  0  1  0  0  0  0  0  0
  180.9100  183.6860  136.2700 C   0  0  0  0  0  2  0  0  0  0  0  0
  181.1040  178.2330  140.1650 C   0  0  0  0  0  2  0  0  0  0  0  0
  181.4200  179.2260  141.2690 C   0  0  0  0  0  2  0  0  0  0  0  0
  181.3740  178.5480  142.5530 N   0  0  0  0  0  2  0  0  0  0  0  0
  182.3880  179.1650  143.3870 C   0  0  0  0  0  2  0  0  0  0  0  0
  183.6860  179.0140  142.7540 N   0  0  0  0  0  2  0  0  0  0  0  0
  184.3630  178.0070  143.4520 N   0  0  0  0  0  2  0  0  0  0  0  0
  185.7580  178.0930  143.0600 C   0  0  0  0  0  2  0  0  0  0  0  0
  185.8090  179.1900  145.1910 O   0  0  0  0  0  1  0  0  0  0  0  0
  186.6050  178.5380  144.2420 C   0  0  1  0  0  3  0  0  0  0  0  0
  187.3260  177.3390  144.8570 C   0  0  2  0  0  3  0  0  0  0  0  0
  187.9960  177.6640  146.1840 C   0  0  0  0  0  1  0  0  0  0  0  0
  188.2950  176.7120  143.9020 C   0  0  0  0  0  0  0  0  0  0  0  0
  188.0070  175.6450  143.3830 O   0  0  0  0  0  0  0  0  0  0  0  0
  189.6080  178.8630  143.8050 C   0  0  0  0  0  2  0  0  0  0  0  0
  191.8240  177.9720  144.3580 C   0  0  0  0  0  2  0  0  0  0  0  0
  190.8170  176.8360  144.4110 C   0  0  2  0  0  3  0  0  0  0  0  0
  189.6260  177.3620  143.6160 C   0  0  1  0  0  3  0  0  0  0  0  0
  191.0470  179.2530  144.0810 C   0  0  0  0  0  2  0  0  0  0  0  0
  190.4800  176.5270  145.8700 C   0  0  0  0  0  2  0  0  0  0  0  0
  191.7120  176.1830  146.6330 C   0  0  0  0  0  0  0  0  0  0  0  0
  192.4400  175.2270  146.2580 O   0  0  0  0  0  0  0  0  0  0  0  0
  192.0740  176.9290  147.7460 O   0  0  0  0  0  1  0  0  0  0  0  0
  3  6  1  0  0  0  0
  4 13  1  0  0  0  0
  5  8  1  0  0  0  0
  5 15  1  0  0  0  0
  6 11  2  0  0  0  0
  6  1  1  0  0  0  0
  7  5  1  0  0  0  0
  8  2  2  0  0  0  0
  9 11  1  0  0  0  0
  9  8  1  0  0  0  0
 10  9  2  0  0  0  0
 12 10  1  0  0  0  0
 12  7  2  0  0  0  0
 13  3  2  0  0  0  0
 13 10  1  0  0  0  0
 14 15  1  0  0  0  0
 16 17  1  0  0  0  0
 16 12  1  0  0  0  0
 18 19  1  0  0  0  0
 18 17  1  0  0  0  0
 19 20  1  0  0  0  0
 20 22  1  0  0  0  0
 22 21  1  6  0  0  0
 22 23  1  0  0  0  0
 23 24  1  0  0  0  0
 25 28  1  0  0  0  0
 27 24  1  0  0  0  0
 27 26  1  0  0  0  0
 28 26  1  0  0  0  0
 29 30  1  0  0  0  0
 29 25  1  0  0  0  0
 30 27  1  0  0  0  0
 31  1  1  0  0  0  0
 31 38  1  0  0  0  0
 32 31  1  0  0  0  0
 33 34  1  0  0  0  0
 33 32  1  0  0  0  0
 35 34  1  0  0  0  0
 37 35  1  0  0  0  0
 37 36  1  0  0  0  0
 38 39  1  0  0  0  0
 39 40  1  0  0  0  0
 40 41  1  0  0  0  0
 42 41  1  0  0  0  0
 42 43  1  0  0  0  0
 44 43  1  0  0  0  0
 44 46  1  0  0  0  0
 46 47  1  0  0  0  0
 46 45  1  1  0  0  0
 47 48  1  1  0  0  0
 49 47  1  0  0  0  0
 50 49  2  0  0  0  0
 51 55  1  0  0  0  0
 52 53  1  0  0  0  0
 53 56  1  1  0  0  0
 54 51  1  0  0  0  0
 54 49  1  1  0  0  0
 54 53  1  0  0  0  0
 55 52  1  0  0  0  0
 56 57  1  0  0  0  0
 57 59  1  0  0  0  0
 58 57  2  0  0  0  0
M  END
>  <MODEL>
1

>  <REMARK>
 VINA RESULT:      -5.9      0.000      0.000
  Name = 
  30 active torsions:
  status: ('A' for Active; 'I' for Inactive)
    1  A    between atoms: N_1  and  C_16
    2  A    between atoms: N_1  and  C_25
    3  A    between atoms: N_1  and  C_29
    4  A    between atoms: C_4  and  C_17
    5  A    between atoms: C_6  and  C_19
    6  A    between atoms: C_6  and  C_35
    7  A    between atoms: N_9  and  C_37
    8  A    between atoms: N_9  and  C_43
    9  A    between atoms: C_12  and  C_46
   10  A    between atoms: C_12  and  C_54
   11  A    between atoms: N_14  and  N_55
   12  A    between atoms: N_14  and  C_59
   13  A    between atoms: C_16  and  C_31
   14  A    between atoms: C_17  and  C_18
   15  A    between atoms: C_21  and  N_30
   16  A    between atoms: C_21  and  N_55
   17  A    between atoms: C_23  and  C_41
   18  A    between atoms: C_23  and  C_49
   19  A    between atoms: N_24  and  C_58
   20  A    between atoms: C_25  and  O_48
   21  A    between atoms: C_26  and  C_29
   22  A    between atoms: C_28  and  C_43
   23  A    between atoms: C_28  and  O_47
   24  A    between atoms: N_30  and  C_31
   25  A    between atoms: C_32  and  C_37
   26  A    between atoms: C_35  and  C_57
   27  A    between atoms: C_41  and  O_47
   28  A    between atoms: C_46  and  O_48
   29  A    between atoms: C_49  and  C_50
   30  A    between atoms: C_57  and  C_59
                            x       y       z     vdW  Elec       q    Type
                         _______ _______ _______ _____ _____    ______ ____

>  <TORSDO>
F 30

$$$$
=
 OpenBabel10232411313D

 59 62  0  0  1  0  0  0  0  0999 V2000
  184.3070  178.9300  138.9800 C   0  0  0  0  0  2  0  0  0  0  0  0
  188.6290  177.7740  141.1390 O   0  0  0  0  0  0  0  0  0  0  0  0
  185.8190  178.1910  137.1340 C   0  0  0  0  0  3  0  0  0  0  0  0
  187.1520  177.4840  135.2080 C   0  0  0  0  0  1  0  0  0  0  0  0
  190.1210  177.1850  139.5170 N   0  0  0  0  0  0  0  0  0  0  0  0
  185.6220  178.4230  138.4900 C   0  0  0  0  0  0  0  0  0  0  0  0
  190.4110  176.9910  138.2050 C   0  0  0  0  0  3  0  0  0  0  0  0
  188.8760  177.5820  139.9150 C   0  0  0  0  0  0  0  0  0  0  0  0
  187.8640  177.7870  138.9630 C   0  0  0  0  0  0  0  0  0  0  0  0
  188.1310  177.5670  137.5860 C   0  0  0  0  0  0  0  0  0  0  0  0
  186.6330  178.2080  139.3670 N   0  0  0  0  0  0  0  0  0  0  0  0
  189.4450  177.1760  137.2120 C   0  0  0  0  0  0  0  0  0  0  0  0
  187.0590  177.7560  136.6700 C   0  0  0  0  0  0  0  0  0  0  0  0
  192.4820  177.5810  140.0010 C   0  0  0  0  0  1  0  0  0  0  0  0
  191.1820  176.9660  140.4940 C   0  0  0  0  0  2  0  0  0  0  0  0
  189.8890  177.0110  135.7930 C   0  0  0  0  0  2  0  0  0  0  0  0
  189.8250  175.5500  135.3850 C   0  0  0  0  0  2  0  0  0  0  0  0
  191.2120  174.9390  135.4090 C   0  0  0  0  0  2  0  0  0  0  0  0
  191.4800  174.4410  136.6860 O   0  0  0  0  0  0  0  0  0  0  0  0
  192.8020  173.9920  136.6230 C   0  0  0  0  0  2  0  0  0  0  0  0
  194.0050  175.8750  137.4500 O   0  0  0  0  0  1  0  0  0  0  0  0
  193.5970  174.5780  137.7740 C   0  0  2  0  0  3  0  0  0  0  0  0
  194.7620  173.7430  138.0300 N   0  0  0  0  0  2  0  0  0  0  0  0
  195.2230  173.2080  136.7570 C   0  0  0  0  0  2  0  0  0  0  0  0
  199.3790  174.2850  136.6540 C   0  0  0  0  0  2  0  0  0  0  0  0
  197.0100  174.6290  135.7250 C   0  0  0  0  0  2  0  0  0  0  0  0
  196.7220  173.4110  136.6000 C   0  0  0  0  0  3  0  0  0  0  0  0
  198.5170  174.8110  135.4980 C   0  0  0  0  0  2  0  0  0  0  0  0
  198.6470  174.3980  137.9870 C   0  0  0  0  0  2  0  0  0  0  0  0
  197.3610  173.5590  137.9870 C   0  0  0  0  0  2  0  0  0  0  0  0
  183.2530  177.9450  138.7640 N   0  0  0  0  0  0  0  0  0  0  0  0
  182.4480  178.3380  137.6010 C   0  0  0  0  0  2  0  0  0  0  0  0
  182.1520  177.2420  136.7810 O   0  0  0  0  0  0  0  0  0  0  0  0
  182.9630  176.2120  137.2650 C   0  0  0  0  0  2  0  0  0  0  0  0
  183.5810  175.4390  136.1120 C   0  0  0  0  0  2  0  0  0  0  0  0
  184.1830  173.1320  136.0200 O   0  0  0  0  0  1  0  0  0  0  0  0
  184.5050  174.3480  136.6200 C   0  0  0  0  0  2  0  0  0  0  0  0
  182.4060  177.9560  139.9490 C   0  0  0  0  0  2  0  0  0  0  0  0
  182.9600  178.9200  140.9820 C   0  0  0  0  0  2  0  0  0  0  0  0
  183.5760  178.1670  142.0620 N   0  0  0  0  0  2  0  0  0  0  0  0
  183.2900  178.8870  143.2880 C   0  0  0  0  0  2  0  0  0  0  0  0
  184.4690  179.6320  143.6920 N   0  0  0  0  0  2  0  0  0  0  0  0
  185.5620  178.7690  143.5530 N   0  0  0  0  0  2  0  0  0  0  0  0
  186.1950  178.6830  144.8560 C   0  0  0  0  0  2  0  0  0  0  0  0
  187.3860  176.7630  144.0500 O   0  0  0  0  0  1  0  0  0  0  0  0
  186.6370  177.2530  145.1270 C   0  0  1  0  0  3  0  0  0  0  0  0
  187.4340  177.1850  146.4300 C   0  0  2  0  0  3  0  0  0  0  0  0
  186.6840  177.7680  147.6180 C   0  0  0  0  0  1  0  0  0  0  0  0
  188.7930  177.8000  146.2940 C   0  0  0  0  0  0  0  0  0  0  0  0
  189.1980  178.5400  147.1760 O   0  0  0  0  0  0  0  0  0  0  0  0
  190.1260  178.8180  144.4110 C   0  0  0  0  0  2  0  0  0  0  0  0
  191.7670  177.0240  144.1020 C   0  0  0  0  0  2  0  0  0  0  0  0
  190.8560  176.6550  145.2600 C   0  0  2  0  0  3  0  0  0  0  0  0
  189.6340  177.5470  145.0670 C   0  0  1  0  0  3  0  0  0  0  0  0
  191.3720  178.4220  143.6440 C   0  0  0  0  0  2  0  0  0  0  0  0
  191.5880  176.9100  146.5790 C   0  0  0  0  0  2  0  0  0  0  0  0
  192.3310  175.6940  147.0120 C   0  0  0  0  0  0  0  0  0  0  0  0
  192.9410  175.6860  148.1130 O   0  0  0  0  0  1  0  0  0  0  0  0
  192.3340  174.5580  146.2150 O   0  0  0  0  0  0  0  0  0  0  0  0
  3  6  1  0  0  0  0
  4 13  1  0  0  0  0
  5  8  1  0  0  0  0
  5 15  1  0  0  0  0
  6  1  1  0  0  0  0
  6 11  2  0  0  0  0
  7  5  1  0  0  0  0
  8  2  2  0  0  0  0
  9 11  1  0  0  0  0
  9  8  1  0  0  0  0
 10  9  2  0  0  0  0
 12 10  1  0  0  0  0
 12  7  2  0  0  0  0
 13  3  2  0  0  0  0
 13 10  1  0  0  0  0
 14 15  1  0  0  0  0
 16 12  1  0  0  0  0
 17 18  1  0  0  0  0
 17 16  1  0  0  0  0
 18 19  1  0  0  0  0
 20 19  1  0  0  0  0
 20 22  1  0  0  0  0
 22 21  1  6  0  0  0
 22 23  1  0  0  0  0
 24 23  1  0  0  0  0
 25 29  1  0  0  0  0
 26 27  1  0  0  0  0
 27 24  1  0  0  0  0
 27 30  1  0  0  0  0
 28 26  1  0  0  0  0
 28 25  1  0  0  0  0
 29 30  1  0  0  0  0
 31  1  1  0  0  0  0
 31 38  1  0  0  0  0
 32 31  1  0  0  0  0
 33 34  1  0  0  0  0
 33 32  1  0  0  0  0
 35 37  1  0  0  0  0
 35 34  1  0  0  0  0
 36 37  1  0  0  0  0
 38 39  1  0  0  0  0
 39 40  1  0  0  0  0
 40 41  1  0  0  0  0
 41 42  1  0  0  0  0
 43 42  1  0  0  0  0
 43 44  1  0  0  0  0
 44 46  1  0  0  0  0
 46 45  1  6  0  0  0
 46 47  1  0  0  0  0
 47 48  1  1  0  0  0
 49 47  1  0  0  0  0
 49 50  2  0  0  0  0
 51 54  1  0  0  0  0
 52 53  1  0  0  0  0
 53 56  1  1  0  0  0
 54 53  1  0  0  0  0
 54 49  1  1  0  0  0
 55 52  1  0  0  0  0
 55 51  1  0  0  0  0
 56 57  1  0  0  0  0
 57 58  1  0  0  0  0
 59 57  2  0  0  0  0
M  END
>  <MODEL>
2

>  <REMARK>
 VINA RESULT:      -5.8      2.080      3.230
  Name = 
  30 active torsions:
  status: ('A' for Active; 'I' for Inactive)
    1  A    between atoms: N_1  and  C_16
    2  A    between atoms: N_1  and  C_25
    3  A    between atoms: N_1  and  C_29
    4  A    between atoms: C_4  and  C_17
    5  A    between atoms: C_6  and  C_19
    6  A    between atoms: C_6  and  C_35
    7  A    between atoms: N_9  and  C_37
    8  A    between atoms: N_9  and  C_43
    9  A    between atoms: C_12  and  C_46
   10  A    between atoms: C_12  and  C_54
   11  A    between atoms: N_14  and  N_55
   12  A    between atoms: N_14  and  C_59
   13  A    between atoms: C_16  and  C_31
   14  A    between atoms: C_17  and  C_18
   15  A    between atoms: C_21  and  N_30
   16  A    between atoms: C_21  and  N_55
   17  A    between atoms: C_23  and  C_41
   18  A    between atoms: C_23  and  C_49
   19  A    between atoms: N_24  and  C_58
   20  A    between atoms: C_25  and  O_48
   21  A    between atoms: C_26  and  C_29
   22  A    between atoms: C_28  and  C_43
   23  A    between atoms: C_28  and  O_47
   24  A    between atoms: N_30  and  C_31
   25  A    between atoms: C_32  and  C_37
   26  A    between atoms: C_35  and  C_57
   27  A    between atoms: C_41  and  O_47
   28  A    between atoms: C_46  and  O_48
   29  A    between atoms: C_49  and  C_50
   30  A    between atoms: C_57  and  C_59
                            x       y       z     vdW  Elec       q    Type
                         _______ _______ _______ _____ _____    ______ ____

>  <TORSDO>
F 30

$$$$
=
 OpenBabel10232411313D

 59 62  0  0  1  0  0  0  0  0999 V2000
  189.6950  175.9480  143.4150 C   0  0  0  0  0  2  0  0  0  0  0  0
  185.4950  177.9180  145.1920 O   0  0  0  0  0  0  0  0  0  0  0  0
  188.5920  177.0750  141.4770 C   0  0  0  0  0  3  0  0  0  0  0  0
  187.6660  178.1340  139.4760 C   0  0  0  0  0  1  0  0  0  0  0  0
  184.3550  178.8840  143.4690 N   0  0  0  0  0  0  0  0  0  0  0  0
  188.5810  176.7480  142.8290 C   0  0  0  0  0  0  0  0  0  0  0  0
  184.2640  179.1930  142.1490 C   0  0  0  0  0  3  0  0  0  0  0  0
  185.4350  178.2110  143.9650 C   0  0  0  0  0  0  0  0  0  0  0  0
  186.4830  177.8330  143.1110 C   0  0  0  0  0  0  0  0  0  0  0  0
  186.4270  178.1640  141.7310 C   0  0  0  0  0  0  0  0  0  0  0  0
  187.5440  177.1390  143.6090 N   0  0  0  0  0  0  0  0  0  0  0  0
  185.2760  178.8460  141.2500 C   0  0  0  0  0  0  0  0  0  0  0  0
  187.5330  177.7870  140.9190 C   0  0  0  0  0  0  0  0  0  0  0  0
  181.9510  178.6820  143.8570 C   0  0  0  0  0  1  0  0  0  0  0  0
  183.2590  179.2850  144.3450 C   0  0  0  0  0  2  0  0  0  0  0  0
  185.0420  179.1620  139.8080 C   0  0  0  0  0  2  0  0  0  0  0  0
  183.5970  179.5680  139.5840 C   0  0  0  0  0  2  0  0  0  0  0  0
  182.9800  178.7240  138.4860 C   0  0  0  0  0  2  0  0  0  0  0  0
  182.0680  177.8260  139.0450 O   0  0  0  0  0  0  0  0  0  0  0  0
  181.5400  177.1280  137.9560 C   0  0  0  0  0  2  0  0  0  0  0  0
  181.5740  175.5030  139.6980 O   0  0  0  0  0  1  0  0  0  0  0  0
  181.1440  175.7290  138.3880 C   0  0  2  0  0  3  0  0  0  0  0  0
  181.7570  174.7570  137.4930 N   0  0  0  0  0  2  0  0  0  0  0  0
  182.6500  175.4720  136.5920 C   0  0  0  0  0  2  0  0  0  0  0  0
  186.4370  173.4930  137.0290 C   0  0  0  0  0  2  0  0  0  0  0  0
  185.0770  175.6660  137.1880 C   0  0  0  0  0  2  0  0  0  0  0  0
  184.0090  174.7920  136.5320 C   0  0  0  0  0  3  0  0  0  0  0  0
  186.4680  175.0270  137.0770 C   0  0  0  0  0  2  0  0  0  0  0  0
  185.2500  172.9380  137.8090 C   0  0  0  0  0  2  0  0  0  0  0  0
  183.9190  173.4190  137.2110 C   0  0  0  0  0  2  0  0  0  0  0  0
  190.7640  176.8150  143.8970 N   0  0  0  0  0  0  0  0  0  0  0  0
  190.2500  178.1810  144.0580 C   0  0  0  0  0  2  0  0  0  0  0  0
  189.5200  178.3240  145.2450 O   0  0  0  0  0  0  0  0  0  0  0  0
  190.2440  177.5950  146.1920 C   0  0  0  0  0  2  0  0  0  0  0  0
  189.3060  176.7500  147.0380 C   0  0  0  0  0  2  0  0  0  0  0  0
  189.4500  178.6200  148.5130 O   0  0  0  0  0  1  0  0  0  0  0  0
  188.6080  177.5930  148.0870 C   0  0  0  0  0  2  0  0  0  0  0  0
  191.8060  176.8200  142.8790 C   0  0  0  0  0  2  0  0  0  0  0  0
  191.6260  178.0070  141.9500 C   0  0  0  0  0  2  0  0  0  0  0  0
  192.4410  177.8150  140.7620 N   0  0  0  0  0  2  0  0  0  0  0  0
  192.0690  176.5280  140.2050 C   0  0  0  0  0  2  0  0  0  0  0  0
  190.9940  176.7140  139.2460 N   0  0  0  0  0  2  0  0  0  0  0  0
  191.0280  175.6140  138.3800 N   0  0  0  0  0  2  0  0  0  0  0  0
  190.7140  176.1160  137.0550 C   0  0  0  0  0  2  0  0  0  0  0  0
  191.5790  176.1270  134.8190 O   0  0  0  0  0  1  0  0  0  0  0  0
  191.5560  175.3970  136.0130 C   0  0  1  0  0  3  0  0  0  0  0  0
  192.9700  175.1640  136.5450 C   0  0  2  0  0  3  0  0  0  0  0  0
  193.8760  176.3740  136.3760 C   0  0  0  0  0  1  0  0  0  0  0  0
  193.5960  173.9340  135.9640 C   0  0  0  0  0  0  0  0  0  0  0  0
  193.8590  173.9110  134.7720 O   0  0  0  0  0  0  0  0  0  0  0  0
  193.8930  171.4310  136.0400 C   0  0  0  0  0  2  0  0  0  0  0  0
  195.4250  171.2940  137.9490 C   0  0  0  0  0  2  0  0  0  0  0  0
  195.1350  172.7570  137.6630 C   0  0  2  0  0  3  0  0  0  0  0  0
  193.8600  172.7230  136.8250 C   0  0  1  0  0  3  0  0  0  0  0  0
  194.7310  170.4750  136.8680 C   0  0  0  0  0  2  0  0  0  0  0  0
  196.3250  173.3750  136.9270 C   0  0  0  0  0  2  0  0  0  0  0  0
  196.9500  174.4490  137.7480 C   0  0  0  0  0  0  0  0  0  0  0  0
  196.9080  174.3890  139.0040 O   0  0  0  0  0  1  0  0  0  0  0  0
  197.6020  175.5080  137.1300 O   0  0  0  0  0  0  0  0  0  0  0  0
  1 31  1  0  0  0  0
  3  6  1  0  0  0  0
  4 13  1  0  0  0  0
  5  8  1  0  0  0  0
  5 15  1  0  0  0  0
  6  1  1  0  0  0  0
  6 11  2  0  0  0  0
  7  5  1  0  0  0  0
  8  2  2  0  0  0  0
  9 11  1  0  0  0  0
  9  8  1  0  0  0  0
 10  9  2  0  0  0  0
 12 10  1  0  0  0  0
 12  7  2  0  0  0  0
 13  3  2  0  0  0  0
 13 10  1  0  0  0  0
 14 15  1  0  0  0  0
 16 12  1  0  0  0  0
 17 16  1  0  0  0  0
 18 19  1  0  0  0  0
 18 17  1  0  0  0  0
 20 22  1  0  0  0  0
 20 19  1  0  0  0  0
 22 21  1  1  0  0  0
 23 22  1  0  0  0  0
 24 23  1  0  0  0  0
 25 28  1  0  0  0  0
 25 29  1  0  0  0  0
 27 24  1  0  0  0  0
 27 26  1  0  0  0  0
 27 30  1  0  0  0  0
 28 26  1  0  0  0  0
 30 29  1  0  0  0  0
 31 32  1  0  0  0  0
 32 33  1  0  0  0  0
 33 34  1  0  0  0  0
 34 35  1  0  0  0  0
 35 37  1  0  0  0  0
 37 36  1  0  0  0  0
 38 31  1  0  0  0  0
 39 38  1  0  0  0  0
 40 39  1  0  0  0  0
 41 40  1  0  0  0  0
 42 41  1  0  0  0  0
 43 42  1  0  0  0  0
 44 43  1  0  0  0  0
 46 45  1  6  0  0  0
 46 47  1  0  0  0  0
 46 44  1  0  0  0  0
 47 48  1  6  0  0  0
 49 47  1  0  0  0  0
 50 49  2  0  0  0  0
 51 54  1  0  0  0  0
 51 55  1  0  0  0  0
 53 56  1  6  0  0  0
 53 52  1  0  0  0  0
 54 49  1  6  0  0  0
 54 53  1  0  0  0  0
 55 52  1  0  0  0  0
 56 57  1  0  0  0  0
 57 58  1  0  0  0  0
 59 57  2  0  0  0  0
M  END
>  <MODEL>
3

>  <REMARK>
 VINA RESULT:      -5.7      2.571      9.967
  Name = 
  30 active torsions:
  status: ('A' for Active; 'I' for Inactive)
    1  A    between atoms: N_1  and  C_16
    2  A    between atoms: N_1  and  C_25
    3  A    between atoms: N_1  and  C_29
    4  A    between atoms: C_4  and  C_17
    5  A    between atoms: C_6  and  C_19
    6  A    between atoms: C_6  and  C_35
    7  A    between atoms: N_9  and  C_37
    8  A    between atoms: N_9  and  C_43
    9  A    between atoms: C_12  and  C_46
   10  A    between atoms: C_12  and  C_54
   11  A    between atoms: N_14  and  N_55
   12  A    between atoms: N_14  and  C_59
   13  A    between atoms: C_16  and  C_31
   14  A    between atoms: C_17  and  C_18
   15  A    between atoms: C_21  and  N_30
   16  A    between atoms: C_21  and  N_55
   17  A    between atoms: C_23  and  C_41
   18  A    between atoms: C_23  and  C_49
   19  A    between atoms: N_24  and  C_58
   20  A    between atoms: C_25  and  O_48
   21  A    between atoms: C_26  and  C_29
   22  A    between atoms: C_28  and  C_43
   23  A    between atoms: C_28  and  O_47
   24  A    between atoms: N_30  and  C_31
   25  A    between atoms: C_32  and  C_37
   26  A    between atoms: C_35  and  C_57
   27  A    between atoms: C_41  and  O_47
   28  A    between atoms: C_46  and  O_48
   29  A    between atoms: C_49  and  C_50
   30  A    between atoms: C_57  and  C_59
                            x       y       z     vdW  Elec       q    Type
                         _______ _______ _______ _____ _____    ______ ____

>  <TORSDO>
F 30

$$$$
=
 OpenBabel10232411313D

 59 62  0  0  1  0  0  0  0  0999 V2000
  192.1950  176.0930  135.1500 C   0  0  0  0  0  2  0  0  0  0  0  0
  188.6030  172.6920  134.7030 O   0  0  0  0  0  0  0  0  0  0  0  0
  190.0820  177.2330  135.8400 C   0  0  0  0  0  3  0  0  0  0  0  0
  188.1180  178.5010  136.5620 C   0  0  0  0  0  1  0  0  0  0  0  0
  186.6050  173.6680  135.2100 N   0  0  0  0  0  0  0  0  0  0  0  0
  190.7240  176.0830  135.3950 C   0  0  0  0  0  0  0  0  0  0  0  0
  185.8980  174.7640  135.5880 C   0  0  0  0  0  3  0  0  0  0  0  0
  187.9630  173.7170  135.0710 C   0  0  0  0  0  0  0  0  0  0  0  0
  188.6560  174.9100  135.3290 C   0  0  0  0  0  0  0  0  0  0  0  0
  187.9460  176.0650  135.7490 C   0  0  0  0  0  0  0  0  0  0  0  0
  190.0070  174.9560  135.1610 N   0  0  0  0  0  0  0  0  0  0  0  0
  186.5310  175.9790  135.8610 C   0  0  0  0  0  0  0  0  0  0  0  0
  188.7020  177.2370  136.0310 C   0  0  0  0  0  0  0  0  0  0  0  0
  185.1410  171.9830  136.2020 C   0  0  0  0  0  1  0  0  0  0  0  0
  185.8710  172.4350  134.9480 C   0  0  0  0  0  2  0  0  0  0  0  0
  185.6530  177.1440  136.1930 C   0  0  0  0  0  2  0  0  0  0  0  0
  184.9190  176.8970  137.4990 C   0  0  0  0  0  2  0  0  0  0  0  0
  183.8760  175.8130  137.3150 C   0  0  0  0  0  2  0  0  0  0  0  0
  182.7610  176.0990  138.1060 O   0  0  0  0  0  0  0  0  0  0  0  0
  182.7240  177.4940  138.1790 C   0  0  0  0  0  2  0  0  0  0  0  0
  181.4110  179.3260  138.9510 O   0  0  0  0  0  1  0  0  0  0  0  0
  181.5190  177.9330  138.9890 C   0  0  2  0  0  3  0  0  0  0  0  0
  181.6760  177.4870  140.3660 N   0  0  0  0  0  2  0  0  0  0  0  0
  181.9220  178.6580  141.1960 C   0  0  0  0  0  2  0  0  0  0  0  0
  185.1580  178.5200  144.0170 C   0  0  0  0  0  2  0  0  0  0  0  0
  184.3910  178.8390  141.5870 C   0  0  0  0  0  2  0  0  0  0  0  0
  183.0540  178.3930  142.1770 C   0  0  0  0  0  3  0  0  0  0  0  0
  185.5550  178.5180  142.5350 C   0  0  0  0  0  2  0  0  0  0  0  0
  184.0210  179.5020  144.2850 C   0  0  0  0  0  2  0  0  0  0  0  0
  182.7600  179.1170  143.4980 C   0  0  0  0  0  2  0  0  0  0  0  0
  192.8590  175.0330  135.9010 N   0  0  0  0  0  0  0  0  0  0  0  0
  191.8770  174.0010  136.2570 C   0  0  0  0  0  2  0  0  0  0  0  0
  192.4160  172.7130  136.1480 O   0  0  0  0  0  0  0  0  0  0  0  0
  192.4450  172.4600  134.7740 C   0  0  0  0  0  2  0  0  0  0  0  0
  192.9620  171.0560  134.5050 C   0  0  0  0  0  2  0  0  0  0  0  0
  192.7750  169.0210  135.7360 O   0  0  0  0  0  1  0  0  0  0  0  0
  193.2590  170.3270  135.8010 C   0  0  0  0  0  2  0  0  0  0  0  0
  193.3780  175.6320  137.1220 C   0  0  0  0  0  2  0  0  0  0  0  0
  192.3280  176.5250  137.7580 C   0  0  0  0  0  2  0  0  0  0  0  0
  191.7200  175.8300  138.8800 N   0  0  0  0  0  2  0  0  0  0  0  0
  192.1060  176.5530  140.0760 C   0  0  0  0  0  2  0  0  0  0  0  0
  191.3540  177.7920  140.1510 N   0  0  0  0  0  2  0  0  0  0  0  0
  190.3010  177.5760  141.0480 N   0  0  0  0  0  2  0  0  0  0  0  0
  190.6400  176.3870  141.8100 C   0  0  0  0  0  2  0  0  0  0  0  0
  191.9780  177.1460  143.6500 O   0  0  0  0  0  1  0  0  0  0  0  0
  190.6940  176.7170  143.2930 C   0  0  1  0  0  3  0  0  0  0  0  0
  189.6440  177.7730  143.6380 C   0  0  2  0  0  3  0  0  0  0  0  0
  190.2530  179.1120  144.0270 C   0  0  0  0  0  1  0  0  0  0  0  0
  188.6810  177.2940  144.6790 C   0  0  0  0  0  0  0  0  0  0  0  0
  187.9300  176.3690  144.4100 O   0  0  0  0  0  0  0  0  0  0  0  0
  187.3100  177.6890  146.7590 C   0  0  0  0  0  2  0  0  0  0  0  0
  189.1400  177.9710  148.3650 C   0  0  0  0  0  2  0  0  0  0  0  0
  189.7340  177.6560  147.0030 C   0  0  2  0  0  3  0  0  0  0  0  0
  188.6030  177.9690  146.0260 C   0  0  1  0  0  3  0  0  0  0  0  0
  187.6250  177.8880  148.2280 C   0  0  0  0  0  2  0  0  0  0  0  0
  190.1720  176.1900  146.9690 C   0  0  0  0  0  2  0  0  0  0  0  0
  191.6300  176.0710  147.2450 C   0  0  0  0  0  0  0  0  0  0  0  0
  192.1440  176.6980  148.2080 O   0  0  0  0  0  1  0  0  0  0  0  0
  192.4240  175.2500  146.4570 O   0  0  0  0  0  0  0  0  0  0  0  0
  1  6  1  0  0  0  0
  1 31  1  0  0  0  0
  2  8  2  0  0  0  0
  3 13  1  0  0  0  0
  5  7  1  0  0  0  0
  6  3  2  0  0  0  0
  7 12  2  0  0  0  0
  8  5  1  0  0  0  0
  8  9  1  0  0  0  0
  9 10  1  0  0  0  0
 10 12  1  0  0  0  0
 10 13  2  0  0  0  0
 11  9  2  0  0  0  0
 11  6  1  0  0  0  0
 12 16  1  0  0  0  0
 13  4  1  0  0  0  0
 15  5  1  0  0  0  0
 15 14  1  0  0  0  0
 16 17  1  0  0  0  0
 18 17  1  0  0  0  0
 18 19  1  0  0  0  0
 19 20  1  0  0  0  0
 20 22  1  0  0  0  0
 22 21  1  1  0  0  0
 22 23  1  0  0  0  0
 23 24  1  0  0  0  0
 24 27  1  0  0  0  0
 25 29  1  0  0  0  0
 26 27  1  0  0  0  0
 26 28  1  0  0  0  0
 27 30  1  0  0  0  0
 28 25  1  0  0  0  0
 30 29  1  0  0  0  0
 31 32  1  0  0  0  0
 31 38  1  0  0  0  0
 33 32  1  0  0  0  0
 34 33  1  0  0  0  0
 35 34  1  0  0  0  0
 35 37  1  0  0  0  0
 36 37  1  0  0  0  0
 38 39  1  0  0  0  0
 39 40  1  0  0  0  0
 40 41  1  0  0  0  0
 41 42  1  0  0  0  0
 42 43  1  0  0  0  0
 43 44  1  0  0  0  0
 44 46  1  0  0  0  0
 46 47  1  0  0  0  0
 46 45  1  6  0  0  0
 47 48  1  1  0  0  0
 47 49  1  0  0  0  0
 50 49  2  0  0  0  0
 51 55  1  0  0  0  0
 53 56  1  1  0  0  0
 53 52  1  0  0  0  0
 54 49  1  6  0  0  0
 54 51  1  0  0  0  0
 54 53  1  0  0  0  0
 55 52  1  0  0  0  0
 56 57  1  0  0  0  0
 57 58  1  0  0  0  0
 59 57  2  0  0  0  0
M  END
>  <MODEL>
4

>  <REMARK>
 VINA RESULT:      -5.2      2.523      9.608
  Name = 
  30 active torsions:
  status: ('A' for Active; 'I' for Inactive)
    1  A    between atoms: N_1  and  C_16
    2  A    between atoms: N_1  and  C_25
    3  A    between atoms: N_1  and  C_29
    4  A    between atoms: C_4  and  C_17
    5  A    between atoms: C_6  and  C_19
    6  A    between atoms: C_6  and  C_35
    7  A    between atoms: N_9  and  C_37
    8  A    between atoms: N_9  and  C_43
    9  A    between atoms: C_12  and  C_46
   10  A    between atoms: C_12  and  C_54
   11  A    between atoms: N_14  and  N_55
   12  A    between atoms: N_14  and  C_59
   13  A    between atoms: C_16  and  C_31
   14  A    between atoms: C_17  and  C_18
   15  A    between atoms: C_21  and  N_30
   16  A    between atoms: C_21  and  N_55
   17  A    between atoms: C_23  and  C_41
   18  A    between atoms: C_23  and  C_49
   19  A    between atoms: N_24  and  C_58
   20  A    between atoms: C_25  and  O_48
   21  A    between atoms: C_26  and  C_29
   22  A    between atoms: C_28  and  C_43
   23  A    between atoms: C_28  and  O_47
   24  A    between atoms: N_30  and  C_31
   25  A    between atoms: C_32  and  C_37
   26  A    between atoms: C_35  and  C_57
   27  A    between atoms: C_41  and  O_47
   28  A    between atoms: C_46  and  O_48
   29  A    between atoms: C_49  and  C_50
   30  A    between atoms: C_57  and  C_59
                            x       y       z     vdW  Elec       q    Type
                         _______ _______ _______ _____ _____    ______ ____

>  <TORSDO>
F 30

$$$$
=
 OpenBabel10232411313D

 59 62  0  0  1  0  0  0  0  0999 V2000
  190.3060  176.2150  140.6240 C   0  0  0  0  0  2  0  0  0  0  0  0
  190.0880  176.4140  145.5830 O   0  0  0  0  0  0  0  0  0  0  0  0
  188.2590  177.5400  141.1680 C   0  0  0  0  0  3  0  0  0  0  0  0
  186.2320  178.8660  141.5130 C   0  0  0  0  0  1  0  0  0  0  0  0
  188.1850  177.5170  146.1870 N   0  0  0  0  0  0  0  0  0  0  0  0
  189.3740  176.8360  141.6090 C   0  0  0  0  0  0  0  0  0  0  0  0
  187.0450  178.1680  145.8370 C   0  0  0  0  0  3  0  0  0  0  0  0
  189.0400  177.0310  145.2390 C   0  0  0  0  0  0  0  0  0  0  0  0
  188.7560  177.2080  143.8760 C   0  0  0  0  0  0  0  0  0  0  0  0
  187.5840  177.9060  143.4810 C   0  0  0  0  0  0  0  0  0  0  0  0
  189.6010  176.6960  142.9390 N   0  0  0  0  0  0  0  0  0  0  0  0
  186.7090  178.3770  144.4970 C   0  0  0  0  0  0  0  0  0  0  0  0
  187.3650  178.0860  142.0870 C   0  0  0  0  0  0  0  0  0  0  0  0
  187.7820  178.4340  148.4150 C   0  0  0  0  0  1  0  0  0  0  0  0
  188.4670  177.3440  147.6080 C   0  0  0  0  0  2  0  0  0  0  0  0
  185.3950  179.0350  144.2200 C   0  0  0  0  0  2  0  0  0  0  0  0
  184.2970  178.3910  145.0480 C   0  0  0  0  0  2  0  0  0  0  0  0
  182.9390  178.8940  144.5980 C   0  0  0  0  0  2  0  0  0  0  0  0
  182.8030  178.6990  143.2220 O   0  0  0  0  0  0  0  0  0  0  0  0
  181.6280  179.3730  142.8800 C   0  0  0  0  0  2  0  0  0  0  0  0
  179.9820  177.6850  142.5410 O   0  0  0  0  0  1  0  0  0  0  0  0
  180.8430  178.5570  141.8710 C   0  0  2  0  0  3  0  0  0  0  0  0
  181.7690  177.7980  141.0420 N   0  0  0  0  0  2  0  0  0  0  0  0
  182.3840  178.7150  140.0930 C   0  0  0  0  0  2  0  0  0  0  0  0
  182.7390  176.3830  136.5040 C   0  0  0  0  0  2  0  0  0  0  0  0
  183.9030  177.5680  138.4630 C   0  0  0  0  0  2  0  0  0  0  0  0
  182.4850  178.0770  138.7160 C   0  0  0  0  0  3  0  0  0  0  0  0
  184.0420  176.9810  137.0520 C   0  0  0  0  0  2  0  0  0  0  0  0
  181.8670  175.8320  137.6280 C   0  0  0  0  0  2  0  0  0  0  0  0
  181.4580  176.9420  138.6070 C   0  0  0  0  0  2  0  0  0  0  0  0
  190.1880  176.8540  139.3180 N   0  0  0  0  0  0  0  0  0  0  0  0
  189.5860  175.9120  138.3670 C   0  0  0  0  0  2  0  0  0  0  0  0
  188.2240  176.1750  138.1690 O   0  0  0  0  0  0  0  0  0  0  0  0
  188.1720  176.8540  136.9480 C   0  0  0  0  0  2  0  0  0  0  0  0
  187.6700  175.9310  135.8500 C   0  0  0  0  0  2  0  0  0  0  0  0
  187.0360  178.0640  134.9900 O   0  0  0  0  0  1  0  0  0  0  0  0
  186.8420  176.6920  134.8340 C   0  0  0  0  0  2  0  0  0  0  0  0
  191.5380  177.1750  138.8740 C   0  0  0  0  0  2  0  0  0  0  0  0
  191.6500  177.0030  137.3690 C   0  0  0  0  0  2  0  0  0  0  0  0
  192.7900  176.1550  137.0660 N   0  0  0  0  0  2  0  0  0  0  0  0
  192.5370  175.5670  135.7640 C   0  0  0  0  0  2  0  0  0  0  0  0
  193.6520  175.8580  134.8820 N   0  0  0  0  0  2  0  0  0  0  0  0
  194.6870  174.9820  135.2330 N   0  0  0  0  0  2  0  0  0  0  0  0
  195.7290  175.7900  135.8400 C   0  0  0  0  0  2  0  0  0  0  0  0
  198.0970  175.6020  136.1680 O   0  0  0  0  0  1  0  0  0  0  0  0
  196.8870  174.9060  136.2750 C   0  0  1  0  0  3  0  0  0  0  0  0
  196.6630  174.4060  137.7020 C   0  0  2  0  0  3  0  0  0  0  0  0
  197.8520  174.6630  138.6160 C   0  0  0  0  0  1  0  0  0  0  0  0
  196.2540  172.9660  137.7390 C   0  0  0  0  0  0  0  0  0  0  0  0
  195.7620  172.5170  138.7620 O   0  0  0  0  0  0  0  0  0  0  0  0
  197.8070  171.3380  136.6010 C   0  0  0  0  0  2  0  0  0  0  0  0
  196.1320  169.9620  135.4560 C   0  0  0  0  0  2  0  0  0  0  0  0
  195.4130  171.0150  136.2830 C   0  0  2  0  0  3  0  0  0  0  0  0
  196.4840  172.0690  136.5480 C   0  0  1  0  0  3  0  0  0  0  0  0
  197.6220  170.1030  135.7410 C   0  0  0  0  0  2  0  0  0  0  0  0
  194.8700  170.3710  137.5590 C   0  0  0  0  0  2  0  0  0  0  0  0
  194.4200  168.9760  137.2940 C   0  0  0  0  0  0  0  0  0  0  0  0
  193.2520  168.7580  136.8780 O   0  0  0  0  0  0  0  0  0  0  0  0
  195.2930  167.9140  137.4830 O   0  0  0  0  0  1  0  0  0  0  0  0
  1  6  1  0  0  0  0
  3  6  2  0  0  0  0
  3 13  1  0  0  0  0
  4 13  1  0  0  0  0
  5 15  1  0  0  0  0
  6 11  1  0  0  0  0
  7  5  1  0  0  0  0
  8  2  2  0  0  0  0
  8  5  1  0  0  0  0
  9  8  1  0  0  0  0
 10  9  1  0  0  0  0
 10 12  1  0  0  0  0
 11  9  2  0  0  0  0
 12  7  2  0  0  0  0
 13 10  2  0  0  0  0
 15 14  1  0  0  0  0
 16 12  1  0  0  0  0
 16 17  1  0  0  0  0
 18 17  1  0  0  0  0
 19 18  1  0  0  0  0
 20 19  1  0  0  0  0
 22 21  1  1  0  0  0
 22 20  1  0  0  0  0
 23 22  1  0  0  0  0
 24 23  1  0  0  0  0
 25 28  1  0  0  0  0
 25 29  1  0  0  0  0
 26 27  1  0  0  0  0
 27 24  1  0  0  0  0
 28 26  1  0  0  0  0
 29 30  1  0  0  0  0
 30 27  1  0  0  0  0
 31  1  1  0  0  0  0
 32 31  1  0  0  0  0
 33 32  1  0  0  0  0
 34 33  1  0  0  0  0
 35 34  1  0  0  0  0
 37 36  1  0  0  0  0
 37 35  1  0  0  0  0
 38 31  1  0  0  0  0
 39 38  1  0  0  0  0
 40 39  1  0  0  0  0
 41 40  1  0  0  0  0
 42 43  1  0  0  0  0
 42 41  1  0  0  0  0
 43 44  1  0  0  0  0
 44 46  1  0  0  0  0
 46 45  1  1  0  0  0
 46 47  1  0  0  0  0
 47 49  1  0  0  0  0
 47 48  1  1  0  0  0
 49 50  2  0  0  0  0
 52 55  1  0  0  0  0
 52 53  1  0  0  0  0
 53 54  1  0  0  0  0
 53 56  1  1  0  0  0
 54 51  1  0  0  0  0
 54 49  1  1  0  0  0
 55 51  1  0  0  0  0
 57 59  1  0  0  0  0
 57 56  1  0  0  0  0
 58 57  2  0  0  0  0
M  END
>  <MODEL>
5

>  <REMARK>
 VINA RESULT:      -5.1      2.809     11.173
  Name = 
  30 active torsions:
  status: ('A' for Active; 'I' for Inactive)
    1  A    between atoms: N_1  and  C_16
    2  A    between atoms: N_1  and  C_25
    3  A    between atoms: N_1  and  C_29
    4  A    between atoms: C_4  and  C_17
    5  A    between atoms: C_6  and  C_19
    6  A    between atoms: C_6  and  C_35
    7  A    between atoms: N_9  and  C_37
    8  A    between atoms: N_9  and  C_43
    9  A    between atoms: C_12  and  C_46
   10  A    between atoms: C_12  and  C_54
   11  A    between atoms: N_14  and  N_55
   12  A    between atoms: N_14  and  C_59
   13  A    between atoms: C_16  and  C_31
   14  A    between atoms: C_17  and  C_18
   15  A    between atoms: C_21  and  N_30
   16  A    between atoms: C_21  and  N_55
   17  A    between atoms: C_23  and  C_41
   18  A    between atoms: C_23  and  C_49
   19  A    between atoms: N_24  and  C_58
   20  A    between atoms: C_25  and  O_48
   21  A    between atoms: C_26  and  C_29
   22  A    between atoms: C_28  and  C_43
   23  A    between atoms: C_28  and  O_47
   24  A    between atoms: N_30  and  C_31
   25  A    between atoms: C_32  and  C_37
   26  A    between atoms: C_35  and  C_57
   27  A    between atoms: C_41  and  O_47
   28  A    between atoms: C_46  and  O_48
   29  A    between atoms: C_49  and  C_50
   30  A    between atoms: C_57  and  C_59
                            x       y       z     vdW  Elec       q    Type
                         _______ _______ _______ _____ _____    ______ ____

>  <TORSDO>
F 30

$$$$
=
 OpenBabel10232411313D

 59 62  0  0  1  0  0  0  0  0999 V2000
  190.2320  176.4990  141.3190 C   0  0  0  0  0  2  0  0  0  0  0  0
  189.0210  176.7050  146.1320 O   0  0  0  0  0  0  0  0  0  0  0  0
  188.1450  177.8650  141.4420 C   0  0  0  0  0  3  0  0  0  0  0  0
  186.1170  179.2330  141.3760 C   0  0  0  0  0  1  0  0  0  0  0  0
  187.0580  177.8470  146.3430 N   0  0  0  0  0  0  0  0  0  0  0  0
  189.1330  177.1390  142.0970 C   0  0  0  0  0  0  0  0  0  0  0  0
  186.0260  178.5210  145.7730 C   0  0  0  0  0  3  0  0  0  0  0  0
  188.0780  177.3430  145.5860 C   0  0  0  0  0  0  0  0  0  0  0  0
  188.0780  177.5250  144.1940 C   0  0  0  0  0  0  0  0  0  0  0  0
  187.0250  178.2460  143.5730 C   0  0  0  0  0  0  0  0  0  0  0  0
  189.0850  176.9950  143.4450 N   0  0  0  0  0  0  0  0  0  0  0  0
  185.9720  178.7360  144.3930 C   0  0  0  0  0  0  0  0  0  0  0  0
  187.0950  178.4300  142.1640 C   0  0  0  0  0  0  0  0  0  0  0  0
  188.1440  178.4990  148.4310 C   0  0  0  0  0  1  0  0  0  0  0  0
  187.0450  177.6680  147.7910 C   0  0  0  0  0  2  0  0  0  0  0  0
  184.7540  179.4200  143.8580 C   0  0  0  0  0  2  0  0  0  0  0  0
  183.5880  178.4510  143.7970 C   0  0  0  0  0  2  0  0  0  0  0  0
  182.3700  179.1330  143.2060 C   0  0  0  0  0  2  0  0  0  0  0  0
  181.5980  178.1940  142.5180 O   0  0  0  0  0  0  0  0  0  0  0  0
  181.1390  178.8700  141.3850 C   0  0  0  0  0  2  0  0  0  0  0  0
  182.2000  180.0060  139.5790 O   0  0  0  0  0  1  0  0  0  0  0  0
  182.1860  178.8020  140.2900 C   0  0  2  0  0  3  0  0  0  0  0  0
  181.8720  177.7010  139.3900 N   0  0  0  0  0  2  0  0  0  0  0  0
  182.7110  176.5680  139.7520 C   0  0  0  0  0  2  0  0  0  0  0  0
  183.4210  174.6630  135.9690 C   0  0  0  0  0  2  0  0  0  0  0  0
  181.7470  175.3280  137.7990 C   0  0  0  0  0  2  0  0  0  0  0  0
  183.0300  175.7230  138.5290 C   0  0  0  0  0  3  0  0  0  0  0  0
  182.0430  174.4180  136.5990 C   0  0  0  0  0  2  0  0  0  0  0  0
  183.8510  176.1180  136.1250 C   0  0  0  0  0  2  0  0  0  0  0  0
  183.9770  176.5030  137.6070 C   0  0  0  0  0  2  0  0  0  0  0  0
  190.4410  177.1840  140.0470 N   0  0  0  0  0  0  0  0  0  0  0  0
  189.6700  176.5070  138.9970 C   0  0  0  0  0  2  0  0  0  0  0  0
  189.0470  177.4220  138.1390 O   0  0  0  0  0  0  0  0  0  0  0  0
  187.8150  176.8360  137.8360 C   0  0  0  0  0  2  0  0  0  0  0  0
  187.7090  176.5690  136.3440 C   0  0  0  0  0  2  0  0  0  0  0  0
  189.7210  176.3130  135.0860 O   0  0  0  0  0  1  0  0  0  0  0  0
  188.8270  177.2590  135.5860 C   0  0  0  0  0  2  0  0  0  0  0  0
  191.8590  177.0820  139.7320 C   0  0  0  0  0  2  0  0  0  0  0  0
  192.0470  176.6300  138.2950 C   0  0  0  0  0  2  0  0  0  0  0  0
  193.4350  176.8170  137.9090 N   0  0  0  0  0  2  0  0  0  0  0  0
  193.5570  176.3380  136.5450 C   0  0  0  0  0  2  0  0  0  0  0  0
  194.9610  176.2660  136.1860 N   0  0  0  0  0  2  0  0  0  0  0  0
  195.1180  175.1310  135.3820 N   0  0  0  0  0  2  0  0  0  0  0  0
  196.1680  174.3320  135.9870 C   0  0  0  0  0  2  0  0  0  0  0  0
  197.7270  172.6720  135.2370 O   0  0  0  0  0  1  0  0  0  0  0  0
  196.3830  173.0600  135.1820 C   0  0  1  0  0  3  0  0  0  0  0  0
  195.4670  171.9490  135.6960 C   0  0  2  0  0  3  0  0  0  0  0  0
  193.9940  172.3320  135.6670 C   0  0  0  0  0  1  0  0  0  0  0  0
  195.8730  171.4640  137.0530 C   0  0  0  0  0  0  0  0  0  0  0  0
  196.7990  172.0160  137.6260 O   0  0  0  0  0  0  0  0  0  0  0  0
  193.9940  169.7900  136.8920 C   0  0  0  0  0  2  0  0  0  0  0  0
  195.0630  167.9150  138.0540 C   0  0  0  0  0  2  0  0  0  0  0  0
  196.0530  169.0630  137.9710 C   0  0  2  0  0  3  0  0  0  0  0  0
  195.1810  170.2830  137.6880 C   0  0  1  0  0  3  0  0  0  0  0  0
  193.8160  168.3370  137.2870 C   0  0  0  0  0  2  0  0  0  0  0  0
  197.0680  168.7770  136.8630 C   0  0  0  0  0  2  0  0  0  0  0  0
  198.4490  168.7160  137.4180 C   0  0  0  0  0  0  0  0  0  0  0  0
  198.6270  168.6060  138.6590 O   0  0  0  0  0  1  0  0  0  0  0  0
  199.5440  168.7580  136.5670 O   0  0  0  0  0  0  0  0  0  0  0  0
  1  6  1  0  0  0  0
  3  6  2  0  0  0  0
  3 13  1  0  0  0  0
  4 13  1  0  0  0  0
  5 15  1  0  0  0  0
  6 11  1  0  0  0  0
  7  5  1  0  0  0  0
  8  2  2  0  0  0  0
  8  5  1  0  0  0  0
  9  8  1  0  0  0  0
 10  9  1  0  0  0  0
 10 12  1  0  0  0  0
 11  9  2  0  0  0  0
 12  7  2  0  0  0  0
 13 10  2  0  0  0  0
 15 14  1  0  0  0  0
 16 12  1  0  0  0  0
 17 16  1  0  0  0  0
 18 17  1  0  0  0  0
 19 18  1  0  0  0  0
 20 19  1  0  0  0  0
 22 21  1  6  0  0  0
 22 20  1  0  0  0  0
 23 24  1  0  0  0  0
 23 22  1  0  0  0  0
 25 29  1  0  0  0  0
 25 28  1  0  0  0  0
 26 27  1  0  0  0  0
 27 24  1  0  0  0  0
 28 26  1  0  0  0  0
 29 30  1  0  0  0  0
 30 27  1  0  0  0  0
 31  1  1  0  0  0  0
 32 31  1  0  0  0  0
 33 32  1  0  0  0  0
 34 33  1  0  0  0  0
 35 34  1  0  0  0  0
 36 37  1  0  0  0  0
 37 35  1  0  0  0  0
 38 31  1  0  0  0  0
 39 38  1  0  0  0  0
 40 39  1  0  0  0  0
 41 40  1  0  0  0  0
 42 41  1  0  0  0  0
 43 44  1  0  0  0  0
 43 42  1  0  0  0  0
 46 45  1  1  0  0  0
 46 47  1  0  0  0  0
 46 44  1  0  0  0  0
 47 48  1  1  0  0  0
 47 49  1  0  0  0  0
 49 50  2  0  0  0  0
 51 55  1  0  0  0  0
 51 54  1  0  0  0  0
 53 56  1  6  0  0  0
 53 52  1  0  0  0  0
 54 49  1  6  0  0  0
 54 53  1  0  0  0  0
 55 52  1  0  0  0  0
 56 57  1  0  0  0  0
 57 58  1  0  0  0  0
 59 57  2  0  0  0  0
M  END
>  <MODEL>
6

>  <REMARK>
 VINA RESULT:      -4.9      3.082     11.224
  Name = 
  30 active torsions:
  status: ('A' for Active; 'I' for Inactive)
    1  A    between atoms: N_1  and  C_16
    2  A    between atoms: N_1  and  C_25
    3  A    between atoms: N_1  and  C_29
    4  A    between atoms: C_4  and  C_17
    5  A    between atoms: C_6  and  C_19
    6  A    between atoms: C_6  and  C_35
    7  A    between atoms: N_9  and  C_37
    8  A    between atoms: N_9  and  C_43
    9  A    between atoms: C_12  and  C_46
   10  A    between atoms: C_12  and  C_54
   11  A    between atoms: N_14  and  N_55
   12  A    between atoms: N_14  and  C_59
   13  A    between atoms: C_16  and  C_31
   14  A    between atoms: C_17  and  C_18
   15  A    between atoms: C_21  and  N_30
   16  A    between atoms: C_21  and  N_55
   17  A    between atoms: C_23  and  C_41
   18  A    between atoms: C_23  and  C_49
   19  A    between atoms: N_24  and  C_58
   20  A    between atoms: C_25  and  O_48
   21  A    between atoms: C_26  and  C_29
   22  A    between atoms: C_28  and  C_43
   23  A    between atoms: C_28  and  O_47
   24  A    between atoms: N_30  and  C_31
   25  A    between atoms: C_32  and  C_37
   26  A    between atoms: C_35  and  C_57
   27  A    between atoms: C_41  and  O_47
   28  A    between atoms: C_46  and  O_48
   29  A    between atoms: C_49  and  C_50
   30  A    between atoms: C_57  and  C_59
                            x       y       z     vdW  Elec       q    Type
                         _______ _______ _______ _____ _____    ______ ____

>  <TORSDO>
F 30

$$$$
=
 OpenBabel10232411313D

 59 62  0  0  1  0  0  0  0  0999 V2000
  191.4330  176.3260  135.8220 C   0  0  0  0  0  2  0  0  0  0  0  0
  190.5350  171.6230  134.4970 O   0  0  0  0  0  0  0  0  0  0  0  0
  189.0430  175.8940  136.4050 C   0  0  0  0  0  3  0  0  0  0  0  0
  186.6970  175.6450  137.0540 C   0  0  0  0  0  1  0  0  0  0  0  0
  188.3370  171.1610  134.8920 N   0  0  0  0  0  0  0  0  0  0  0  0
  190.2450  175.4260  135.8870 C   0  0  0  0  0  0  0  0  0  0  0  0
  187.1140  171.5590  135.3280 C   0  0  0  0  0  3  0  0  0  0  0  0
  189.4090  172.0070  134.9220 C   0  0  0  0  0  0  0  0  0  0  0  0
  189.2630  173.3110  135.4190 C   0  0  0  0  0  0  0  0  0  0  0  0
  188.0020  173.7480  135.9050 C   0  0  0  0  0  0  0  0  0  0  0  0
  190.3310  174.1560  135.4210 N   0  0  0  0  0  0  0  0  0  0  0  0
  186.9070  172.8440  135.8360 C   0  0  0  0  0  0  0  0  0  0  0  0
  187.9210  175.0680  136.4300 C   0  0  0  0  0  0  0  0  0  0  0  0
  188.0210  168.7990  135.4300 C   0  0  0  0  0  1  0  0  0  0  0  0
  188.4730  169.8010  134.3800 C   0  0  0  0  0  2  0  0  0  0  0  0
  185.5070  173.2080  136.2170 C   0  0  0  0  0  2  0  0  0  0  0  0
  184.6830  171.9560  136.4580 C   0  0  0  0  0  2  0  0  0  0  0  0
  183.5710  171.8560  135.4340 C   0  0  0  0  0  2  0  0  0  0  0  0
  182.8150  173.0310  135.4490 O   0  0  0  0  0  0  0  0  0  0  0  0
  182.6380  173.3230  136.8030 C   0  0  0  0  0  2  0  0  0  0  0  0
  180.4830  173.9130  135.9730 O   0  0  0  0  0  1  0  0  0  0  0  0
  181.1580  173.4560  137.1090 C   0  0  2  0  0  3  0  0  0  0  0  0
  180.9750  174.3980  138.2040 N   0  0  0  0  0  2  0  0  0  0  0  0
  180.8950  175.7380  137.6410 C   0  0  0  0  0  2  0  0  0  0  0  0
  183.8570  178.2710  139.4440 C   0  0  0  0  0  2  0  0  0  0  0  0
  181.7090  178.0720  138.0500 C   0  0  0  0  0  2  0  0  0  0  0  0
  182.0660  176.5880  138.1070 C   0  0  0  0  0  3  0  0  0  0  0  0
  182.9020  178.9500  138.4520 C   0  0  0  0  0  2  0  0  0  0  0  0
  183.1140  177.2920  140.3460 C   0  0  0  0  0  2  0  0  0  0  0  0
  182.4660  176.1660  139.5270 C   0  0  0  0  0  2  0  0  0  0  0  0
  192.6410  175.6300  136.2520 N   0  0  0  0  0  0  0  0  0  0  0  0
  192.3200  174.2270  136.5370 C   0  0  0  0  0  2  0  0  0  0  0  0
  193.4730  173.4710  136.7850 O   0  0  0  0  0  0  0  0  0  0  0  0
  194.2390  173.6080  135.6240 C   0  0  0  0  0  2  0  0  0  0  0  0
  195.6790  173.2060  135.8910 C   0  0  0  0  0  2  0  0  0  0  0  0
  196.2650  175.4620  136.3980 O   0  0  0  0  0  1  0  0  0  0  0  0
  196.3380  174.1540  136.8740 C   0  0  0  0  0  2  0  0  0  0  0  0
  193.0910  176.2710  137.4810 C   0  0  0  0  0  2  0  0  0  0  0  0
  192.0630  176.0760  138.5810 C   0  0  0  0  0  2  0  0  0  0  0  0
  191.4970  177.3650  138.9440 N   0  0  0  0  0  2  0  0  0  0  0  0
  190.1770  177.1030  139.4830 C   0  0  0  0  0  2  0  0  0  0  0  0
  190.3070  176.4850  140.7910 N   0  0  0  0  0  2  0  0  0  0  0  0
  189.0840  176.6640  141.4480 N   0  0  0  0  0  2  0  0  0  0  0  0
  189.1250  177.9810  142.0560 C   0  0  0  0  0  2  0  0  0  0  0  0
  187.4170  178.8230  140.5990 O   0  0  0  0  0  1  0  0  0  0  0  0
  187.7630  178.6490  141.9440 C   0  0  1  0  0  3  0  0  0  0  0  0
  186.7090  177.8260  142.6830 C   0  0  2  0  0  3  0  0  0  0  0  0
  185.4580  178.6240  143.0180 C   0  0  0  0  0  1  0  0  0  0  0  0
  187.2660  177.1580  143.9030 C   0  0  0  0  0  0  0  0  0  0  0  0
  187.4730  175.9550  143.8760 O   0  0  0  0  0  0  0  0  0  0  0  0
  186.7160  177.4680  146.3440 C   0  0  0  0  0  2  0  0  0  0  0  0
  188.8770  178.3370  147.1060 C   0  0  0  0  0  2  0  0  0  0  0  0
  188.9800  178.0110  145.6270 C   0  0  2  0  0  3  0  0  0  0  0  0
  187.5280  177.9470  145.1620 C   0  0  1  0  0  3  0  0  0  0  0  0
  187.4940  177.8990  147.5720 C   0  0  0  0  0  2  0  0  0  0  0  0
  189.7290  176.6890  145.4520 C   0  0  0  0  0  2  0  0  0  0  0  0
  191.1990  176.9200  145.3920 C   0  0  0  0  0  0  0  0  0  0  0  0
  191.8480  177.1310  146.4500 O   0  0  0  0  0  1  0  0  0  0  0  0
  191.8620  176.8800  144.1740 O   0  0  0  0  0  0  0  0  0  0  0  0
  1  6  1  0  0  0  0
  1 31  1  0  0  0  0
  2  8  2  0  0  0  0
  3 13  1  0  0  0  0
  5  8  1  0  0  0  0
  5  7  1  0  0  0  0
  6  3  2  0  0  0  0
  7 12  2  0  0  0  0
  8  9  1  0  0  0  0
  9 11  2  0  0  0  0
  9 10  1  0  0  0  0
 10 13  2  0  0  0  0
 11  6  1  0  0  0  0
 12 10  1  0  0  0  0
 12 16  1  0  0  0  0
 13  4  1  0  0  0  0
 15  5  1  0  0  0  0
 15 14  1  0  0  0  0
 16 17  1  0  0  0  0
 18 19  1  0  0  0  0
 18 17  1  0  0  0  0
 19 20  1  0  0  0  0
 20 22  1  0  0  0  0
 22 21  1  6  0  0  0
 22 23  1  0  0  0  0
 24 27  1  0  0  0  0
 24 23  1  0  0  0  0
 25 29  1  0  0  0  0
 26 27  1  0  0  0  0
 26 28  1  0  0  0  0
 27 30  1  0  0  0  0
 28 25  1  0  0  0  0
 30 29  1  0  0  0  0
 31 32  1  0  0  0  0
 31 38  1  0  0  0  0
 32 33  1  0  0  0  0
 34 35  1  0  0  0  0
 34 33  1  0  0  0  0
 35 37  1  0  0  0  0
 36 37  1  0  0  0  0
 38 39  1  0  0  0  0
 39 40  1  0  0  0  0
 40 41  1  0  0  0  0
 41 42  1  0  0  0  0
 42 43  1  0  0  0  0
 43 44  1  0  0  0  0
 46 45  1  6  0  0  0
 46 44  1  0  0  0  0
 46 47  1  0  0  0  0
 47 48  1  1  0  0  0
 47 49  1  0  0  0  0
 50 49  2  0  0  0  0
 51 55  1  0  0  0  0
 52 55  1  0  0  0  0
 53 56  1  1  0  0  0
 53 52  1  0  0  0  0
 54 49  1  6  0  0  0
 54 53  1  0  0  0  0
 54 51  1  0  0  0  0
 57 56  1  0  0  0  0
 57 58  1  0  0  0  0
 59 57  2  0  0  0  0
M  END
>  <MODEL>
7

>  <REMARK>
 VINA RESULT:      -4.8      2.929      9.482
  Name = 
  30 active torsions:
  status: ('A' for Active; 'I' for Inactive)
    1  A    between atoms: N_1  and  C_16
    2  A    between atoms: N_1  and  C_25
    3  A    between atoms: N_1  and  C_29
    4  A    between atoms: C_4  and  C_17
    5  A    between atoms: C_6  and  C_19
    6  A    between atoms: C_6  and  C_35
    7  A    between atoms: N_9  and  C_37
    8  A    between atoms: N_9  and  C_43
    9  A    between atoms: C_12  and  C_46
   10  A    between atoms: C_12  and  C_54
   11  A    between atoms: N_14  and  N_55
   12  A    between atoms: N_14  and  C_59
   13  A    between atoms: C_16  and  C_31
   14  A    between atoms: C_17  and  C_18
   15  A    between atoms: C_21  and  N_30
   16  A    between atoms: C_21  and  N_55
   17  A    between atoms: C_23  and  C_41
   18  A    between atoms: C_23  and  C_49
   19  A    between atoms: N_24  and  C_58
   20  A    between atoms: C_25  and  O_48
   21  A    between atoms: C_26  and  C_29
   22  A    between atoms: C_28  and  C_43
   23  A    between atoms: C_28  and  O_47
   24  A    between atoms: N_30  and  C_31
   25  A    between atoms: C_32  and  C_37
   26  A    between atoms: C_35  and  C_57
   27  A    between atoms: C_41  and  O_47
   28  A    between atoms: C_46  and  O_48
   29  A    between atoms: C_49  and  C_50
   30  A    between atoms: C_57  and  C_59
                            x       y       z     vdW  Elec       q    Type
                         _______ _______ _______ _____ _____    ______ ____

>  <TORSDO>
F 30

$$$$
=
 OpenBabel10232411313D

 59 62  0  0  1  0  0  0  0  0999 V2000
  183.9070  179.0140  138.9340 C   0  0  0  0  0  2  0  0  0  0  0  0
  188.1700  178.2170  141.3550 O   0  0  0  0  0  0  0  0  0  0  0  0
  185.5100  178.1410  137.2290 C   0  0  0  0  0  3  0  0  0  0  0  0
  186.9370  177.2880  135.4340 C   0  0  0  0  0  1  0  0  0  0  0  0
  189.7410  177.5170  139.8570 N   0  0  0  0  0  0  0  0  0  0  0  0
  185.2530  178.5020  138.5470 C   0  0  0  0  0  0  0  0  0  0  0  0
  190.0880  177.2000  138.5820 C   0  0  0  0  0  3  0  0  0  0  0  0
  188.4700  177.9120  140.1670 C   0  0  0  0  0  0  0  0  0  0  0  0
  187.4920  177.9880  139.1630 C   0  0  0  0  0  0  0  0  0  0  0  0
  187.8190  177.6400  137.8260 C   0  0  0  0  0  0  0  0  0  0  0  0
  186.2350  178.4080  139.4770 N   0  0  0  0  0  0  0  0  0  0  0  0
  189.1570  177.2540  137.5410 C   0  0  0  0  0  0  0  0  0  0  0  0
  186.7790  177.7010  136.8570 C   0  0  0  0  0  0  0  0  0  0  0  0
  192.1500  177.5000  140.2590 C   0  0  0  0  0  1  0  0  0  0  0  0
  190.7690  177.4300  140.8890 C   0  0  0  0  0  2  0  0  0  0  0  0
  189.6600  176.9620  136.1630 C   0  0  0  0  0  2  0  0  0  0  0  0
  189.7300  175.4630  135.9330 C   0  0  0  0  0  2  0  0  0  0  0  0
  191.1140  175.0710  135.4540 C   0  0  0  0  0  2  0  0  0  0  0  0
  192.0760  175.6290  136.2990 O   0  0  0  0  0  0  0  0  0  0  0  0
  193.2640  174.9750  135.9690 C   0  0  0  0  0  2  0  0  0  0  0  0
  193.9300  176.3050  137.8300 O   0  0  0  0  0  1  0  0  0  0  0  0
  194.2910  175.1930  137.0650 C   0  0  2  0  0  3  0  0  0  0  0  0
  195.5990  175.4100  136.4640 N   0  0  0  0  0  2  0  0  0  0  0  0
  195.8450  174.3330  135.5150 C   0  0  0  0  0  2  0  0  0  0  0  0
  199.8960  173.1260  136.2780 C   0  0  0  0  0  2  0  0  0  0  0  0
  198.1900  175.0330  136.0580 C   0  0  0  0  0  2  0  0  0  0  0  0
  197.2990  173.8910  135.5700 C   0  0  0  0  0  3  0  0  0  0  0  0
  199.6700  174.6270  136.0550 C   0  0  0  0  0  2  0  0  0  0  0  0
  198.7980  172.5240  137.1490 C   0  0  0  0  0  2  0  0  0  0  0  0
  197.4220  172.6620  136.4810 C   0  0  0  0  0  2  0  0  0  0  0  0
  182.8790  178.0030  138.7140 N   0  0  0  0  0  0  0  0  0  0  0  0
  182.0870  178.3620  137.5310 C   0  0  0  0  0  2  0  0  0  0  0  0
  181.9170  179.7480  137.4210 O   0  0  0  0  0  0  0  0  0  0  0  0
  181.2080  179.9220  136.2290 C   0  0  0  0  0  2  0  0  0  0  0  0
  180.4960  181.2640  136.2280 C   0  0  0  0  0  2  0  0  0  0  0  0
  180.5810  183.2920  134.9740 O   0  0  0  0  0  1  0  0  0  0  0  0
  180.5410  181.9040  134.8540 C   0  0  0  0  0  2  0  0  0  0  0  0
  182.0100  178.0110  139.8830 C   0  0  0  0  0  2  0  0  0  0  0  0
  182.5110  179.0180  140.9020 C   0  0  0  0  0  2  0  0  0  0  0  0
  183.4120  178.3570  141.8300 N   0  0  0  0  0  2  0  0  0  0  0  0
  183.5040  179.2080  143.0010 C   0  0  0  0  0  2  0  0  0  0  0  0
  184.8320  179.7910  143.0660 N   0  0  0  0  0  2  0  0  0  0  0  0
  185.7380  178.7280  143.1700 N   0  0  0  0  0  2  0  0  0  0  0  0
  186.3640  178.8400  144.4740 C   0  0  0  0  0  2  0  0  0  0  0  0
  187.7380  176.8750  144.4150 O   0  0  0  0  0  1  0  0  0  0  0  0
  186.6300  177.4550  145.0440 C   0  0  1  0  0  3  0  0  0  0  0  0
  186.8350  177.5370  146.5570 C   0  0  2  0  0  3  0  0  0  0  0  0
  186.2360  178.7940  147.1710 C   0  0  0  0  0  1  0  0  0  0  0  0
  188.2740  177.3810  146.9410 C   0  0  0  0  0  0  0  0  0  0  0  0
  188.5640  177.2970  148.1240 O   0  0  0  0  0  0  0  0  0  0  0  0
  190.1090  178.6790  145.7980 C   0  0  0  0  0  2  0  0  0  0  0  0
  191.5980  176.8120  145.2450 C   0  0  0  0  0  2  0  0  0  0  0  0
  190.4060  176.2710  146.0150 C   0  0  2  0  0  3  0  0  0  0  0  0
  189.3560  177.3710  145.8900 C   0  0  1  0  0  3  0  0  0  0  0  0
  191.4590  178.3290  145.2040 C   0  0  0  0  0  2  0  0  0  0  0  0
  190.8220  175.9950  147.4610 C   0  0  0  0  0  2  0  0  0  0  0  0
  192.3000  175.8400  147.5630 C   0  0  0  0  0  0  0  0  0  0  0  0
  192.9570  176.5690  148.3510 O   0  0  0  0  0  1  0  0  0  0  0  0
  192.9540  174.8760  146.8090 O   0  0  0  0  0  0  0  0  0  0  0  0
  3  6  1  0  0  0  0
  4 13  1  0  0  0  0
  5  8  1  0  0  0  0
  5 15  1  0  0  0  0
  6  1  1  0  0  0  0
  6 11  2  0  0  0  0
  7  5  1  0  0  0  0
  8  2  2  0  0  0  0
  9 11  1  0  0  0  0
  9  8  1  0  0  0  0
 10  9  2  0  0  0  0
 12 10  1  0  0  0  0
 12  7  2  0  0  0  0
 13  3  2  0  0  0  0
 13 10  1  0  0  0  0
 14 15  1  0  0  0  0
 16 12  1  0  0  0  0
 17 16  1  0  0  0  0
 18 17  1  0  0  0  0
 18 19  1  0  0  0  0
 20 19  1  0  0  0  0
 20 22  1  0  0  0  0
 22 21  1  6  0  0  0
 23 22  1  0  0  0  0
 24 27  1  0  0  0  0
 24 23  1  0  0  0  0
 25 29  1  0  0  0  0
 27 26  1  0  0  0  0
 27 30  1  0  0  0  0
 28 26  1  0  0  0  0
 28 25  1  0  0  0  0
 30 29  1  0  0  0  0
 31  1  1  0  0  0  0
 31 38  1  0  0  0  0
 32 31  1  0  0  0  0
 33 32  1  0  0  0  0
 34 33  1  0  0  0  0
 35 34  1  0  0  0  0
 37 36  1  0  0  0  0
 37 35  1  0  0  0  0
 38 39  1  0  0  0  0
 39 40  1  0  0  0  0
 40 41  1  0  0  0  0
 41 42  1  0  0  0  0
 42 43  1  0  0  0  0
 43 44  1  0  0  0  0
 44 46  1  0  0  0  0
 46 45  1  6  0  0  0
 46 47  1  0  0  0  0
 47 49  1  0  0  0  0
 47 48  1  6  0  0  0
 49 50  2  0  0  0  0
 51 54  1  0  0  0  0
 52 53  1  0  0  0  0
 53 56  1  1  0  0  0
 54 53  1  0  0  0  0
 54 49  1  1  0  0  0
 55 52  1  0  0  0  0
 55 51  1  0  0  0  0
 56 57  1  0  0  0  0
 57 58  1  0  0  0  0
 59 57  2  0  0  0  0
M  END
>  <MODEL>
8

>  <REMARK>
 VINA RESULT:      -4.7      1.710      2.271
  Name = 
  30 active torsions:
  status: ('A' for Active; 'I' for Inactive)
    1  A    between atoms: N_1  and  C_16
    2  A    between atoms: N_1  and  C_25
    3  A    between atoms: N_1  and  C_29
    4  A    between atoms: C_4  and  C_17
    5  A    between atoms: C_6  and  C_19
    6  A    between atoms: C_6  and  C_35
    7  A    between atoms: N_9  and  C_37
    8  A    between atoms: N_9  and  C_43
    9  A    between atoms: C_12  and  C_46
   10  A    between atoms: C_12  and  C_54
   11  A    between atoms: N_14  and  N_55
   12  A    between atoms: N_14  and  C_59
   13  A    between atoms: C_16  and  C_31
   14  A    between atoms: C_17  and  C_18
   15  A    between atoms: C_21  and  N_30
   16  A    between atoms: C_21  and  N_55
   17  A    between atoms: C_23  and  C_41
   18  A    between atoms: C_23  and  C_49
   19  A    between atoms: N_24  and  C_58
   20  A    between atoms: C_25  and  O_48
   21  A    between atoms: C_26  and  C_29
   22  A    between atoms: C_28  and  C_43
   23  A    between atoms: C_28  and  O_47
   24  A    between atoms: N_30  and  C_31
   25  A    between atoms: C_32  and  C_37
   26  A    between atoms: C_35  and  C_57
   27  A    between atoms: C_41  and  O_47
   28  A    between atoms: C_46  and  O_48
   29  A    between atoms: C_49  and  C_50
   30  A    between atoms: C_57  and  C_59
                            x       y       z     vdW  Elec       q    Type
                         _______ _______ _______ _____ _____    ______ ____

>  <TORSDO>
F 30

$$$$
=
 OpenBabel10232411313D

 59 62  0  0  1  0  0  0  0  0999 V2000
  189.6230  175.9070  143.3160 C   0  0  0  0  0  2  0  0  0  0  0  0
  185.4810  177.9490  145.1460 O   0  0  0  0  0  0  0  0  0  0  0  0
  188.5260  177.0710  141.3970 C   0  0  0  0  0  3  0  0  0  0  0  0
  187.6040  178.1640  139.4120 C   0  0  0  0  0  1  0  0  0  0  0  0
  184.3450  178.9510  143.4410 N   0  0  0  0  0  0  0  0  0  0  0  0
  188.5200  176.7340  142.7460 C   0  0  0  0  0  0  0  0  0  0  0  0
  184.2490  179.2720  142.1250 C   0  0  0  0  0  3  0  0  0  0  0  0
  185.4160  178.2520  143.9220 C   0  0  0  0  0  0  0  0  0  0  0  0
  186.4480  177.8600  143.0550 C   0  0  0  0  0  0  0  0  0  0  0  0
  186.3870  178.2020  141.6780 C   0  0  0  0  0  0  0  0  0  0  0  0
  187.4980  177.1400  143.5390 N   0  0  0  0  0  0  0  0  0  0  0  0
  185.2450  178.9110  141.2140 C   0  0  0  0  0  0  0  0  0  0  0  0
  187.4770  177.8090  140.8530 C   0  0  0  0  0  0  0  0  0  0  0  0
  182.0220  178.5350  144.0690 C   0  0  0  0  0  1  0  0  0  0  0  0
  183.2660  179.3680  144.3290 C   0  0  0  0  0  2  0  0  0  0  0  0
  185.0050  179.2430  139.7750 C   0  0  0  0  0  2  0  0  0  0  0  0
  183.6320  179.8680  139.6000 C   0  0  0  0  0  2  0  0  0  0  0  0
  182.7260  178.9320  138.8250 C   0  0  0  0  0  2  0  0  0  0  0  0
  183.0760  177.6080  139.1030 O   0  0  0  0  0  0  0  0  0  0  0  0
  182.4090  176.8520  138.1370 C   0  0  0  0  0  2  0  0  0  0  0  0
  182.0190  176.7400  135.7890 O   0  0  0  0  0  1  0  0  0  0  0  0
  182.8970  177.2410  136.7540 C   0  0  2  0  0  3  0  0  0  0  0  0
  184.2290  176.6940  136.5420 N   0  0  0  0  0  2  0  0  0  0  0  0
  184.1910  175.8560  135.3520 C   0  0  0  0  0  2  0  0  0  0  0  0
  186.2040  172.2930  136.6550 C   0  0  0  0  0  2  0  0  0  0  0  0
  186.3710  174.6710  135.6980 C   0  0  0  0  0  2  0  0  0  0  0  0
  184.8540  174.5130  135.6180 C   0  0  0  0  0  3  0  0  0  0  0  0
  187.0640  173.3150  135.8990 C   0  0  0  0  0  2  0  0  0  0  0  0
  185.2640  172.9800  137.6400 C   0  0  0  0  0  2  0  0  0  0  0  0
  184.2870  173.9160  136.9130 C   0  0  0  0  0  2  0  0  0  0  0  0
  190.6450  176.7480  143.9280 N   0  0  0  0  0  0  0  0  0  0  0  0
  190.0910  178.0840  144.1800 C   0  0  0  0  0  2  0  0  0  0  0  0
  190.1890  178.4400  145.5310 O   0  0  0  0  0  0  0  0  0  0  0  0
  189.2750  177.6060  146.1810 C   0  0  0  0  0  2  0  0  0  0  0  0
  189.7330  177.3260  147.6030 C   0  0  0  0  0  2  0  0  0  0  0  0
  191.5010  175.8290  147.0310 O   0  0  0  0  0  1  0  0  0  0  0  0
  191.2230  177.0470  147.6510 C   0  0  0  0  0  2  0  0  0  0  0  0
  191.7370  176.8630  142.9700 C   0  0  0  0  0  2  0  0  0  0  0  0
  191.3810  177.8650  141.8860 C   0  0  0  0  0  2  0  0  0  0  0  0
  192.5260  178.0540  141.0120 N   0  0  0  0  0  2  0  0  0  0  0  0
  192.5520  176.9210  140.1070 C   0  0  0  0  0  2  0  0  0  0  0  0
  191.2480  176.7750  139.4860 N   0  0  0  0  0  2  0  0  0  0  0  0
  191.4660  176.6510  138.1090 N   0  0  0  0  0  2  0  0  0  0  0  0
  190.6040  175.5790  137.6440 C   0  0  0  0  0  2  0  0  0  0  0  0
  190.3310  174.3850  135.5830 O   0  0  0  0  0  1  0  0  0  0  0  0
  191.2820  174.8190  136.5150 C   0  0  1  0  0  3  0  0  0  0  0  0
  192.3450  175.6950  135.8520 C   0  0  2  0  0  3  0  0  0  0  0  0
  192.0550  175.9750  134.3850 C   0  0  0  0  0  1  0  0  0  0  0  0
  193.7250  175.1430  136.0340 C   0  0  0  0  0  0  0  0  0  0  0  0
  193.9480  174.4090  136.9840 O   0  0  0  0  0  0  0  0  0  0  0  0
  195.1950  176.9870  135.1420 C   0  0  0  0  0  2  0  0  0  0  0  0
  197.1850  175.6560  134.6140 C   0  0  0  0  0  2  0  0  0  0  0  0
  196.1430  174.7450  135.2390 C   0  0  2  0  0  3  0  0  0  0  0  0
  194.8370  175.5190  135.0860 C   0  0  1  0  0  3  0  0  0  0  0  0
  196.6270  177.0740  134.6520 C   0  0  0  0  0  2  0  0  0  0  0  0
  196.5180  174.4750  136.6970 C   0  0  0  0  0  2  0  0  0  0  0  0
  197.9730  174.1820  136.8210 C   0  0  0  0  0  0  0  0  0  0  0  0
  198.7370  175.0090  137.3820 O   0  0  0  0  0  1  0  0  0  0  0  0
  198.4860  172.9860  136.3390 O   0  0  0  0  0  0  0  0  0  0  0  0
  1 31  1  0  0  0  0
  3  6  1  0  0  0  0
  4 13  1  0  0  0  0
  5  8  1  0  0  0  0
  5 15  1  0  0  0  0
  6  1  1  0  0  0  0
  6 11  2  0  0  0  0
  7  5  1  0  0  0  0
  8  2  2  0  0  0  0
  9 11  1  0  0  0  0
  9  8  1  0  0  0  0
 10  9  2  0  0  0  0
 12 10  1  0  0  0  0
 12  7  2  0  0  0  0
 13  3  2  0  0  0  0
 13 10  1  0  0  0  0
 14 15  1  0  0  0  0
 16 12  1  0  0  0  0
 17 16  1  0  0  0  0
 18 19  1  0  0  0  0
 18 17  1  0  0  0  0
 20 19  1  0  0  0  0
 22 21  1  6  0  0  0
 22 20  1  0  0  0  0
 23 22  1  0  0  0  0
 24 27  1  0  0  0  0
 24 23  1  0  0  0  0
 25 29  1  0  0  0  0
 26 28  1  0  0  0  0
 27 26  1  0  0  0  0
 27 30  1  0  0  0  0
 28 25  1  0  0  0  0
 30 29  1  0  0  0  0
 31 32  1  0  0  0  0
 32 33  1  0  0  0  0
 33 34  1  0  0  0  0
 34 35  1  0  0  0  0
 35 37  1  0  0  0  0
 36 37  1  0  0  0  0
 38 31  1  0  0  0  0
 39 38  1  0  0  0  0
 40 39  1  0  0  0  0
 41 40  1  0  0  0  0
 42 41  1  0  0  0  0
 43 42  1  0  0  0  0
 44 43  1  0  0  0  0
 46 45  1  6  0  0  0
 46 44  1  0  0  0  0
 47 48  1  6  0  0  0
 47 49  1  0  0  0  0
 47 46  1  0  0  0  0
 49 50  2  0  0  0  0
 52 55  1  0  0  0  0
 52 53  1  0  0  0  0
 53 56  1  1  0  0  0
 54 51  1  0  0  0  0
 54 53  1  0  0  0  0
 54 49  1  1  0  0  0
 55 51  1  0  0  0  0
 56 57  1  0  0  0  0
 57 58  1  0  0  0  0
 59 57  2  0  0  0  0
M  END
>  <MODEL>
9

>  <REMARK>
 VINA RESULT:      -4.7      2.659      9.964
  Name = 
  30 active torsions:
  status: ('A' for Active; 'I' for Inactive)
    1  A    between atoms: N_1  and  C_16
    2  A    between atoms: N_1  and  C_25
    3  A    between atoms: N_1  and  C_29
    4  A    between atoms: C_4  and  C_17
    5  A    between atoms: C_6  and  C_19
    6  A    between atoms: C_6  and  C_35
    7  A    between atoms: N_9  and  C_37
    8  A    between atoms: N_9  and  C_43
    9  A    between atoms: C_12  and  C_46
   10  A    between atoms: C_12  and  C_54
   11  A    between atoms: N_14  and  N_55
   12  A    between atoms: N_14  and  C_59
   13  A    between atoms: C_16  and  C_31
   14  A    between atoms: C_17  and  C_18
   15  A    between atoms: C_21  and  N_30
   16  A    between atoms: C_21  and  N_55
   17  A    between atoms: C_23  and  C_41
   18  A    between atoms: C_23  and  C_49
   19  A    between atoms: N_24  and  C_58
   20  A    between atoms: C_25  and  O_48
   21  A    between atoms: C_26  and  C_29
   22  A    between atoms: C_28  and  C_43
   23  A    between atoms: C_28  and  O_47
   24  A    between atoms: N_30  and  C_31
   25  A    between atoms: C_32  and  C_37
   26  A    between atoms: C_35  and  C_57
   27  A    between atoms: C_41  and  O_47
   28  A    between atoms: C_46  and  O_48
   29  A    between atoms: C_49  and  C_50
   30  A    between atoms: C_57  and  C_59
                            x       y       z     vdW  Elec       q    Type
                         _______ _______ _______ _____ _____    ______ ____

>  <TORSDO>
F 30

$$$$
