=
 OpenBabel10232407533D

 26 28  0  0  1  0  0  0  0  0999 V2000
  188.6450  177.5530  147.1980 C   0  0  0  0  0  3  0  0  0  0  0  0
  185.3060  179.0320  147.0170 N   0  0  0  0  0  2  0  0  0  0  0  0
  184.5950  179.0250  145.8940 N   0  0  0  0  0  0  0  0  0  0  0  0
  186.4890  178.4520  146.7490 C   0  0  0  0  0  0  0  0  0  0  0  0
  185.3280  178.4440  144.9160 C   0  0  0  0  0  0  0  0  0  0  0  0
  187.5060  178.2210  147.6570 C   0  0  0  0  0  3  0  0  0  0  0  0
  188.7540  177.1450  145.8490 C   0  0  0  0  0  0  0  0  0  0  0  0
  187.7170  177.4140  144.9260 C   0  0  0  0  0  0  0  0  0  0  0  0
  186.5660  178.0650  145.4290 C   0  0  0  0  0  0  0  0  0  0  0  0
  184.8240  178.2110  143.6030 N   0  0  0  0  0  2  0  0  0  0  0  0
  184.7270  179.2190  142.6990 O   0  0  0  0  0  1  0  0  0  0  0  0
  187.8800  177.0030  143.5580 N   0  0  0  0  0  2  0  0  0  0  0  0
  188.6460  177.6680  142.5130 C   0  0  2  0  0  3  0  0  0  0  0  0
  187.7110  178.0280  141.3650 C   0  0  0  0  0  2  0  0  0  0  0  0
  188.5210  178.6740  140.2450 C   0  0  0  0  0  2  0  0  0  0  0  0
  189.7640  176.7830  142.0280 C   0  0  0  0  0  3  0  0  0  0  0  0
  190.2210  176.8410  140.7660 C   0  0  0  0  0  3  0  0  0  0  0  0
  189.6160  177.7360  139.7060 C   0  0  1  0  0  3  0  0  0  0  0  0
  189.1300  176.9530  138.6510 O   0  0  0  0  0  0  0  0  0  0  0  0
  189.0680  178.2700  136.6670 C   0  0  0  0  0  1  0  0  0  0  0  0
  189.8820  177.3280  137.5320 C   0  0  0  0  0  2  0  0  0  0  0  0
  189.9860  176.3970  145.4350 C   0  0  0  0  0  2  0  0  0  0  0  0
  191.5670  178.0960  144.8180 O   0  0  0  0  0  0  0  0  0  0  0  0
  191.2420  177.1990  145.6440 C   0  0  0  0  0  0  0  0  0  0  0  0
  192.0700  176.9610  146.7460 O   0  0  0  0  0  0  0  0  0  0  0  0
  192.1180  175.7010  147.4040 C   0  0  0  0  0  1  0  0  0  0  0  0
  1  6  1  0  0  0  0
  3  2  1  0  0  0  0
  4  2  1  0  0  0  0
  4  6  2  0  0  0  0
  5  9  1  0  0  0  0
  5  3  2  0  0  0  0
  7  1  2  0  0  0  0
  8  9  2  0  0  0  0
  8  7  1  0  0  0  0
  9  4  1  0  0  0  0
 10  5  1  0  0  0  0
 11 10  1  0  0  0  0
 12  8  1  0  0  0  0
 13 12  1  1  0  0  0
 14 13  1  0  0  0  0
 15 14  1  0  0  0  0
 16 13  1  0  0  0  0
 17 16  2  0  0  0  0
 18 19  1  6  0  0  0
 18 15  1  0  0  0  0
 18 17  1  0  0  0  0
 20 21  1  0  0  0  0
 21 19  1  0  0  0  0
 22 24  1  0  0  0  0
 22  7  1  0  0  0  0
 23 24  2  0  0  0  0
 24 25  1  0  0  0  0
 25 26  1  0  0  0  0
M  END
>  <MODEL>
1

>  <REMARK>
 VINA RESULT:      -8.1      0.000      0.000
  Name = 
  8 active torsions:
  status: ('A' for Active; 'I' for Inactive)
    1  A    between atoms: O_4  and  C_17
    2  A    between atoms: O_6  and  C_23
    3  A    between atoms: O_6  and  C_25
    4  A    between atoms: C_7  and  N_21
    5  A    between atoms: C_11  and  N_13
    6  A    between atoms: C_17  and  C_22
    7  A    between atoms: C_20  and  C_22
    8  A    between atoms: N_21  and  C_24
                            x       y       z     vdW  Elec       q    Type
                         _______ _______ _______ _____ _____    ______ ____

>  <TORSDO>
F 8

$$$$
=
 OpenBabel10232407533D

 26 28  0  0  1  0  0  0  0  0999 V2000
  187.7080  177.8990  147.4920 C   0  0  0  0  0  3  0  0  0  0  0  0
  191.2670  177.1580  147.8910 N   0  0  0  0  0  2  0  0  0  0  0  0
  192.0210  176.7640  146.8690 N   0  0  0  0  0  0  0  0  0  0  0  0
  190.0130  177.3110  147.4310 C   0  0  0  0  0  0  0  0  0  0  0  0
  191.2440  176.6660  145.7660 C   0  0  0  0  0  0  0  0  0  0  0  0
  188.9260  177.7510  148.1640 C   0  0  0  0  0  3  0  0  0  0  0  0
  187.5960  177.5920  146.1170 C   0  0  0  0  0  0  0  0  0  0  0  0
  188.7100  177.1150  145.3880 C   0  0  0  0  0  0  0  0  0  0  0  0
  189.9340  177.0060  146.0900 C   0  0  0  0  0  0  0  0  0  0  0  0
  191.7640  176.3390  144.4790 N   0  0  0  0  0  2  0  0  0  0  0  0
  192.0890  175.0610  144.1570 O   0  0  0  0  0  1  0  0  0  0  0  0
  188.5450  176.7920  143.9970 N   0  0  0  0  0  2  0  0  0  0  0  0
  188.9020  177.6080  142.8450 C   0  0  2  0  0  3  0  0  0  0  0  0
  187.6440  177.9160  142.0440 C   0  0  0  0  0  2  0  0  0  0  0  0
  188.0240  178.7230  140.8060 C   0  0  0  0  0  2  0  0  0  0  0  0
  189.9160  176.8990  141.9860 C   0  0  0  0  0  3  0  0  0  0  0  0
  189.9800  177.0880  140.6580 C   0  0  0  0  0  3  0  0  0  0  0  0
  189.0050  177.9610  139.8970 C   0  0  1  0  0  3  0  0  0  0  0  0
  188.3170  177.1880  138.9540 O   0  0  0  0  0  0  0  0  0  0  0  0
  188.9820  178.6980  137.2360 C   0  0  0  0  0  1  0  0  0  0  0  0
  187.8250  178.0990  138.0120 C   0  0  0  0  0  2  0  0  0  0  0  0
  186.2700  177.8120  145.4510 C   0  0  0  0  0  2  0  0  0  0  0  0
  185.9310  179.6270  146.9860 O   0  0  0  0  0  0  0  0  0  0  0  0
  185.4070  178.7910  146.1990 C   0  0  0  0  0  0  0  0  0  0  0  0
  184.0170  178.7870  146.0440 O   0  0  0  0  0  0  0  0  0  0  0  0
  183.3940  178.9350  144.7740 C   0  0  0  0  0  1  0  0  0  0  0  0
  1  6  1  0  0  0  0
  3  2  1  0  0  0  0
  4  2  1  0  0  0  0
  4  6  2  0  0  0  0
  5  9  1  0  0  0  0
  5  3  2  0  0  0  0
  7  1  2  0  0  0  0
  8  9  2  0  0  0  0
  8  7  1  0  0  0  0
  9  4  1  0  0  0  0
 10  5  1  0  0  0  0
 11 10  1  0  0  0  0
 12  8  1  0  0  0  0
 13 12  1  1  0  0  0
 14 13  1  0  0  0  0
 15 14  1  0  0  0  0
 16 13  1  0  0  0  0
 17 16  2  0  0  0  0
 18 19  1  6  0  0  0
 18 17  1  0  0  0  0
 18 15  1  0  0  0  0
 20 21  1  0  0  0  0
 21 19  1  0  0  0  0
 22  7  1  0  0  0  0
 22 24  1  0  0  0  0
 24 23  2  0  0  0  0
 25 24  1  0  0  0  0
 26 25  1  0  0  0  0
M  END
>  <MODEL>
2

>  <REMARK>
 VINA RESULT:      -8.0      2.283      4.650
  Name = 
  8 active torsions:
  status: ('A' for Active; 'I' for Inactive)
    1  A    between atoms: O_4  and  C_17
    2  A    between atoms: O_6  and  C_23
    3  A    between atoms: O_6  and  C_25
    4  A    between atoms: C_7  and  N_21
    5  A    between atoms: C_11  and  N_13
    6  A    between atoms: C_17  and  C_22
    7  A    between atoms: C_20  and  C_22
    8  A    between atoms: N_21  and  C_24
                            x       y       z     vdW  Elec       q    Type
                         _______ _______ _______ _____ _____    ______ ____

>  <TORSDO>
F 8

$$$$
=
 OpenBabel10232407533D

 26 28  0  0  1  0  0  0  0  0999 V2000
  190.9520  176.7290  143.2670 C   0  0  0  0  0  3  0  0  0  0  0  0
  191.6490  177.0350  146.8440 N   0  0  0  0  0  2  0  0  0  0  0  0
  190.6750  177.0850  147.7480 N   0  0  0  0  0  0  0  0  0  0  0  0
  191.0720  176.9610  145.6330 C   0  0  0  0  0  0  0  0  0  0  0  0
  189.4840  177.0450  147.1080 C   0  0  0  0  0  0  0  0  0  0  0  0
  191.7310  176.8490  144.4220 C   0  0  0  0  0  3  0  0  0  0  0  0
  189.5390  176.7390  143.3400 C   0  0  0  0  0  0  0  0  0  0  0  0
  188.8800  176.8830  144.5830 C   0  0  0  0  0  0  0  0  0  0  0  0
  189.6970  176.9710  145.7340 C   0  0  0  0  0  0  0  0  0  0  0  0
  188.2350  177.0050  147.7960 N   0  0  0  0  0  2  0  0  0  0  0  0
  187.9870  177.8270  148.8470 O   0  0  0  0  0  1  0  0  0  0  0  0
  187.4430  176.9120  144.6080 N   0  0  0  0  0  2  0  0  0  0  0  0
  186.5740  178.0780  144.5220 C   0  0  2  0  0  3  0  0  0  0  0  0
  185.6210  178.0760  145.7100 C   0  0  0  0  0  2  0  0  0  0  0  0
  184.6720  179.2650  145.5920 C   0  0  0  0  0  2  0  0  0  0  0  0
  185.8040  178.0720  143.2260 C   0  0  0  0  0  3  0  0  0  0  0  0
  184.5820  178.6180  143.1230 C   0  0  0  0  0  3  0  0  0  0  0  0
  183.8390  179.2140  144.2990 C   0  0  1  0  0  3  0  0  0  0  0  0
  182.6410  178.5170  144.5030 O   0  0  0  0  0  0  0  0  0  0  0  0
  180.3370  178.5980  143.9020 C   0  0  0  0  0  1  0  0  0  0  0  0
  181.7510  179.0170  143.5460 C   0  0  0  0  0  2  0  0  0  0  0  0
  188.7670  176.5650  142.0670 C   0  0  0  0  0  2  0  0  0  0  0  0
  188.5050  178.8720  141.4520 O   0  0  0  0  0  0  0  0  0  0  0  0
  188.9350  177.7290  141.1290 C   0  0  0  0  0  0  0  0  0  0  0  0
  189.5590  177.5680  139.8890 O   0  0  0  0  0  0  0  0  0  0  0  0
  189.2520  178.3900  138.7700 C   0  0  0  0  0  1  0  0  0  0  0  0
  1  7  2  0  0  0  0
  1  6  1  0  0  0  0
  2  3  1  0  0  0  0
  4  9  1  0  0  0  0
  4  2  1  0  0  0  0
  5  3  2  0  0  0  0
  5 10  1  0  0  0  0
  6  4  2  0  0  0  0
  7  8  1  0  0  0  0
  8 12  1  0  0  0  0
  8  9  2  0  0  0  0
  9  5  1  0  0  0  0
 10 11  1  0  0  0  0
 13 12  1  1  0  0  0
 13 14  1  0  0  0  0
 15 14  1  0  0  0  0
 16 13  1  0  0  0  0
 17 16  2  0  0  0  0
 17 18  1  0  0  0  0
 18 19  1  1  0  0  0
 18 15  1  0  0  0  0
 21 20  1  0  0  0  0
 21 19  1  0  0  0  0
 22  7  1  0  0  0  0
 24 23  2  0  0  0  0
 24 22  1  0  0  0  0
 25 24  1  0  0  0  0
 26 25  1  0  0  0  0
M  END
>  <MODEL>
3

>  <REMARK>
 VINA RESULT:      -7.9      2.611      6.198
  Name = 
  8 active torsions:
  status: ('A' for Active; 'I' for Inactive)
    1  A    between atoms: O_4  and  C_17
    2  A    between atoms: O_6  and  C_23
    3  A    between atoms: O_6  and  C_25
    4  A    between atoms: C_7  and  N_21
    5  A    between atoms: C_11  and  N_13
    6  A    between atoms: C_17  and  C_22
    7  A    between atoms: C_20  and  C_22
    8  A    between atoms: N_21  and  C_24
                            x       y       z     vdW  Elec       q    Type
                         _______ _______ _______ _____ _____    ______ ____

>  <TORSDO>
F 8

$$$$
=
 OpenBabel10232407533D

 26 28  0  0  1  0  0  0  0  0999 V2000
  185.4790  178.5370  146.0860 C   0  0  0  0  0  3  0  0  0  0  0  0
  188.1590  178.3840  148.5700 N   0  0  0  0  0  2  0  0  0  0  0  0
  189.3610  177.9000  148.2760 N   0  0  0  0  0  0  0  0  0  0  0  0
  187.3980  178.2700  147.4680 C   0  0  0  0  0  0  0  0  0  0  0  0
  189.3600  177.4770  146.9910 C   0  0  0  0  0  0  0  0  0  0  0  0
  186.0880  178.6950  147.3350 C   0  0  0  0  0  3  0  0  0  0  0  0
  186.1760  177.9470  145.0070 C   0  0  0  0  0  0  0  0  0  0  0  0
  187.5050  177.4910  145.1670 C   0  0  0  0  0  0  0  0  0  0  0  0
  188.1020  177.6930  146.4330 C   0  0  0  0  0  0  0  0  0  0  0  0
  190.5230  176.9720  146.3390 N   0  0  0  0  0  2  0  0  0  0  0  0
  191.7070  176.8710  146.9960 O   0  0  0  0  0  1  0  0  0  0  0  0
  188.1680  176.8760  144.0490 N   0  0  0  0  0  2  0  0  0  0  0  0
  188.9520  177.5280  143.0100 C   0  0  2  0  0  3  0  0  0  0  0  0
  188.3010  177.2660  141.6580 C   0  0  0  0  0  2  0  0  0  0  0  0
  189.1520  177.9000  140.5620 C   0  0  0  0  0  2  0  0  0  0  0  0
  190.3720  177.0240  143.0200 C   0  0  0  0  0  3  0  0  0  0  0  0
  191.1140  176.9670  141.9030 C   0  0  0  0  0  3  0  0  0  0  0  0
  190.5800  177.3280  140.5330 C   0  0  1  0  0  3  0  0  0  0  0  0
  190.6560  176.2130  139.6890 O   0  0  0  0  0  0  0  0  0  0  0  0
  190.6690  176.7180  137.3610 C   0  0  0  0  0  1  0  0  0  0  0  0
  191.4870  176.6010  138.6330 C   0  0  0  0  0  2  0  0  0  0  0  0
  185.4750  177.8460  143.6860 C   0  0  0  0  0  2  0  0  0  0  0  0
  184.3890  179.9870  143.7450 O   0  0  0  0  0  0  0  0  0  0  0  0
  185.1370  179.1940  143.1090 C   0  0  0  0  0  0  0  0  0  0  0  0
  185.6370  179.5880  141.8640 O   0  0  0  0  0  0  0  0  0  0  0  0
  185.1220  179.0750  140.6410 C   0  0  0  0  0  1  0  0  0  0  0  0
  1  6  1  0  0  0  0
  3  2  1  0  0  0  0
  4  2  1  0  0  0  0
  5  3  2  0  0  0  0
  6  4  2  0  0  0  0
  7  8  1  0  0  0  0
  7  1  2  0  0  0  0
  8  9  2  0  0  0  0
  9  5  1  0  0  0  0
  9  4  1  0  0  0  0
 10  5  1  0  0  0  0
 10 11  1  0  0  0  0
 12  8  1  0  0  0  0
 13 16  1  0  0  0  0
 13 12  1  1  0  0  0
 14 13  1  0  0  0  0
 15 14  1  0  0  0  0
 17 16  2  0  0  0  0
 18 19  1  6  0  0  0
 18 15  1  0  0  0  0
 18 17  1  0  0  0  0
 20 21  1  0  0  0  0
 21 19  1  0  0  0  0
 22  7  1  0  0  0  0
 24 22  1  0  0  0  0
 24 23  2  0  0  0  0
 25 24  1  0  0  0  0
 26 25  1  0  0  0  0
M  END
>  <MODEL>
4

>  <REMARK>
 VINA RESULT:      -7.8      1.887      4.529
  Name = 
  8 active torsions:
  status: ('A' for Active; 'I' for Inactive)
    1  A    between atoms: O_4  and  C_17
    2  A    between atoms: O_6  and  C_23
    3  A    between atoms: O_6  and  C_25
    4  A    between atoms: C_7  and  N_21
    5  A    between atoms: C_11  and  N_13
    6  A    between atoms: C_17  and  C_22
    7  A    between atoms: C_20  and  C_22
    8  A    between atoms: N_21  and  C_24
                            x       y       z     vdW  Elec       q    Type
                         _______ _______ _______ _____ _____    ______ ____

>  <TORSDO>
F 8

$$$$
=
 OpenBabel10232407533D

 26 28  0  0  1  0  0  0  0  0999 V2000
  190.9980  176.6100  145.2610 C   0  0  0  0  0  3  0  0  0  0  0  0
  189.3390  177.8930  148.2560 N   0  0  0  0  0  2  0  0  0  0  0  0
  188.0330  178.1440  148.2830 N   0  0  0  0  0  0  0  0  0  0  0  0
  189.6430  177.4730  147.0160 C   0  0  0  0  0  0  0  0  0  0  0  0
  187.5140  177.8850  147.0610 C   0  0  0  0  0  0  0  0  0  0  0  0
  190.8910  177.0670  146.5780 C   0  0  0  0  0  3  0  0  0  0  0  0
  189.8710  176.5810  144.4080 C   0  0  0  0  0  0  0  0  0  0  0  0
  188.6080  177.0260  144.8620 C   0  0  0  0  0  0  0  0  0  0  0  0
  188.5270  177.4540  146.2080 C   0  0  0  0  0  0  0  0  0  0  0  0
  186.1200  177.9800  146.7740 N   0  0  0  0  0  2  0  0  0  0  0  0
  185.4270  179.1180  147.0310 O   0  0  0  0  0  1  0  0  0  0  0  0
  187.4940  177.0020  143.9530 N   0  0  0  0  0  2  0  0  0  0  0  0
  186.8320  178.1370  143.3250 C   0  0  2  0  0  3  0  0  0  0  0  0
  185.3240  177.9530  143.4310 C   0  0  0  0  0  2  0  0  0  0  0  0
  184.6280  179.1120  142.7230 C   0  0  0  0  0  2  0  0  0  0  0  0
  187.2500  178.2650  141.8840 C   0  0  0  0  0  3  0  0  0  0  0  0
  186.4320  178.7740  140.9480 C   0  0  0  0  0  3  0  0  0  0  0  0
  185.0060  179.1920  141.2340 C   0  0  1  0  0  3  0  0  0  0  0  0
  184.1260  178.4320  140.4520 O   0  0  0  0  0  0  0  0  0  0  0  0
  183.0010  179.8360  138.8920 C   0  0  0  0  0  1  0  0  0  0  0  0
  184.2140  178.9680  139.1630 C   0  0  0  0  0  2  0  0  0  0  0  0
  190.0500  176.0410  143.0210 C   0  0  0  0  0  2  0  0  0  0  0  0
  190.9720  178.1970  142.5060 O   0  0  0  0  0  0  0  0  0  0  0  0
  190.6600  177.0480  142.0850 C   0  0  0  0  0  0  0  0  0  0  0  0
  190.8870  176.7350  140.7410 O   0  0  0  0  0  0  0  0  0  0  0  0
  189.9140  176.9730  139.7310 C   0  0  0  0  0  1  0  0  0  0  0  0
  1  6  1  0  0  0  0
  2  3  1  0  0  0  0
  4  2  1  0  0  0  0
  5  3  2  0  0  0  0
  6  4  2  0  0  0  0
  7  8  1  0  0  0  0
  7  1  2  0  0  0  0
  8  9  2  0  0  0  0
  9  4  1  0  0  0  0
  9  5  1  0  0  0  0
 10 11  1  0  0  0  0
 10  5  1  0  0  0  0
 12  8  1  0  0  0  0
 13 14  1  0  0  0  0
 13 12  1  6  0  0  0
 15 14  1  0  0  0  0
 16 13  1  0  0  0  0
 17 18  1  0  0  0  0
 17 16  2  0  0  0  0
 18 19  1  6  0  0  0
 18 15  1  0  0  0  0
 20 21  1  0  0  0  0
 21 19  1  0  0  0  0
 22  7  1  0  0  0  0
 24 23  2  0  0  0  0
 24 22  1  0  0  0  0
 25 24  1  0  0  0  0
 26 25  1  0  0  0  0
M  END
>  <MODEL>
5

>  <REMARK>
 VINA RESULT:      -7.5      2.413      4.163
  Name = 
  8 active torsions:
  status: ('A' for Active; 'I' for Inactive)
    1  A    between atoms: O_4  and  C_17
    2  A    between atoms: O_6  and  C_23
    3  A    between atoms: O_6  and  C_25
    4  A    between atoms: C_7  and  N_21
    5  A    between atoms: C_11  and  N_13
    6  A    between atoms: C_17  and  C_22
    7  A    between atoms: C_20  and  C_22
    8  A    between atoms: N_21  and  C_24
                            x       y       z     vdW  Elec       q    Type
                         _______ _______ _______ _____ _____    ______ ____

>  <TORSDO>
F 8

$$$$
=
 OpenBabel10232407533D

 26 28  0  0  1  0  0  0  0  0999 V2000
  184.6000  179.5240  142.8650 C   0  0  0  0  0  3  0  0  0  0  0  0
  184.6800  179.1520  146.5030 N   0  0  0  0  0  2  0  0  0  0  0  0
  185.5670  178.3680  147.1090 N   0  0  0  0  0  0  0  0  0  0  0  0
  184.8860  179.0450  145.1790 C   0  0  0  0  0  0  0  0  0  0  0  0
  186.3300  177.7640  146.1690 C   0  0  0  0  0  0  0  0  0  0  0  0
  184.2030  179.7300  144.1900 C   0  0  0  0  0  3  0  0  0  0  0  0
  185.6520  178.6320  142.5530 C   0  0  0  0  0  0  0  0  0  0  0  0
  186.3210  177.9160  143.5720 C   0  0  0  0  0  0  0  0  0  0  0  0
  185.9160  178.1710  144.9040 C   0  0  0  0  0  0  0  0  0  0  0  0
  187.4280  176.9140  146.4920 N   0  0  0  0  0  2  0  0  0  0  0  0
  188.3290  177.2630  147.4460 O   0  0  0  0  0  1  0  0  0  0  0  0
  187.3690  177.0020  143.2070 N   0  0  0  0  0  2  0  0  0  0  0  0
  188.7910  177.2860  143.0710 C   0  0  2  0  0  3  0  0  0  0  0  0
  189.5510  175.9700  142.9660 C   0  0  0  0  0  2  0  0  0  0  0  0
  191.0470  176.2630  142.8810 C   0  0  0  0  0  2  0  0  0  0  0  0
  189.2860  178.0910  144.2440 C   0  0  0  0  0  3  0  0  0  0  0  0
  190.5490  177.9940  144.6910 C   0  0  0  0  0  3  0  0  0  0  0  0
  191.5590  177.0240  144.1160 C   0  0  1  0  0  3  0  0  0  0  0  0
  191.9790  176.1350  145.1140 O   0  0  0  0  0  0  0  0  0  0  0  0
  191.9850  175.8160  147.4740 C   0  0  0  0  0  1  0  0  0  0  0  0
  191.6050  176.7290  146.3240 C   0  0  0  0  0  2  0  0  0  0  0  0
  186.0520  178.4900  141.1150 C   0  0  0  0  0  2  0  0  0  0  0  0
  184.8490  179.9060  139.5940 O   0  0  0  0  0  0  0  0  0  0  0  0
  184.9180  178.7860  140.1710 C   0  0  0  0  0  0  0  0  0  0  0  0
  183.9230  177.8350  139.9230 O   0  0  0  0  0  0  0  0  0  0  0  0
  183.1940  177.7980  138.7030 C   0  0  0  0  0  1  0  0  0  0  0  0
  1  6  1  0  0  0  0
  2  3  1  0  0  0  0
  4  2  1  0  0  0  0
  5 10  1  0  0  0  0
  5  3  2  0  0  0  0
  6  4  2  0  0  0  0
  7  1  2  0  0  0  0
  7  8  1  0  0  0  0
  8  9  2  0  0  0  0
  9  4  1  0  0  0  0
  9  5  1  0  0  0  0
 10 11  1  0  0  0  0
 12  8  1  0  0  0  0
 13 12  1  1  0  0  0
 13 16  1  0  0  0  0
 14 13  1  0  0  0  0
 15 14  1  0  0  0  0
 15 18  1  0  0  0  0
 16 17  2  0  0  0  0
 18 17  1  0  0  0  0
 18 19  1  1  0  0  0
 19 21  1  0  0  0  0
 21 20  1  0  0  0  0
 22  7  1  0  0  0  0
 23 24  2  0  0  0  0
 24 22  1  0  0  0  0
 25 24  1  0  0  0  0
 26 25  1  0  0  0  0
M  END
>  <MODEL>
6

>  <REMARK>
 VINA RESULT:      -7.3      2.527      6.076
  Name = 
  8 active torsions:
  status: ('A' for Active; 'I' for Inactive)
    1  A    between atoms: O_4  and  C_17
    2  A    between atoms: O_6  and  C_23
    3  A    between atoms: O_6  and  C_25
    4  A    between atoms: C_7  and  N_21
    5  A    between atoms: C_11  and  N_13
    6  A    between atoms: C_17  and  C_22
    7  A    between atoms: C_20  and  C_22
    8  A    between atoms: N_21  and  C_24
                            x       y       z     vdW  Elec       q    Type
                         _______ _______ _______ _____ _____    ______ ____

>  <TORSDO>
F 8

$$$$
=
 OpenBabel10232407533D

 26 28  0  0  1  0  0  0  0  0999 V2000
  186.0380  178.7880  141.1140 C   0  0  0  0  0  3  0  0  0  0  0  0
  183.6720  179.5110  143.8070 N   0  0  0  0  0  2  0  0  0  0  0  0
  183.9060  179.1450  145.0640 N   0  0  0  0  0  0  0  0  0  0  0  0
  184.7000  179.0720  143.0620 C   0  0  0  0  0  0  0  0  0  0  0  0
  185.0790  178.4730  145.1120 C   0  0  0  0  0  0  0  0  0  0  0  0
  184.8690  179.2790  141.7050 C   0  0  0  0  0  3  0  0  0  0  0  0
  187.0010  178.0910  141.8800 C   0  0  0  0  0  0  0  0  0  0  0  0
  186.8000  177.8620  143.2610 C   0  0  0  0  0  0  0  0  0  0  0  0
  185.6230  178.3980  143.8330 C   0  0  0  0  0  0  0  0  0  0  0  0
  185.6570  178.0090  146.3310 N   0  0  0  0  0  2  0  0  0  0  0  0
  186.2880  178.8630  147.1770 O   0  0  0  0  0  1  0  0  0  0  0  0
  187.7950  177.1280  143.9950 N   0  0  0  0  0  2  0  0  0  0  0  0
  189.0000  177.6480  144.6260 C   0  0  2  0  0  3  0  0  0  0  0  0
  190.2190  177.0700  143.9190 C   0  0  0  0  0  2  0  0  0  0  0  0
  191.4830  177.5680  144.6140 C   0  0  0  0  0  2  0  0  0  0  0  0
  189.0240  177.3010  146.0920 C   0  0  0  0  0  3  0  0  0  0  0  0
  190.1740  177.1090  146.7580 C   0  0  0  0  0  3  0  0  0  0  0  0
  191.5340  177.1480  146.0940 C   0  0  1  0  0  3  0  0  0  0  0  0
  192.1660  175.9070  146.2410 O   0  0  0  0  0  0  0  0  0  0  0  0
  193.0910  175.7770  148.4320 C   0  0  0  0  0  1  0  0  0  0  0  0
  191.8890  175.5000  147.5500 C   0  0  0  0  0  2  0  0  0  0  0  0
  188.2490  177.6280  141.1900 C   0  0  0  0  0  2  0  0  0  0  0  0
  188.9800  179.1640  139.4950 O   0  0  0  0  0  0  0  0  0  0  0  0
  188.3350  178.1140  139.7690 C   0  0  0  0  0  0  0  0  0  0  0  0
  187.7000  177.4220  138.7330 O   0  0  0  0  0  0  0  0  0  0  0  0
  188.3790  176.4650  137.9300 C   0  0  0  0  0  1  0  0  0  0  0  0
  1  6  2  0  0  0  0
  1  7  1  0  0  0  0
  2  3  1  0  0  0  0
  3  5  2  0  0  0  0
  4  2  1  0  0  0  0
  4  9  2  0  0  0  0
  5 10  1  0  0  0  0
  6  4  1  0  0  0  0
  7  8  2  0  0  0  0
  8  9  1  0  0  0  0
  8 12  1  0  0  0  0
  9  5  1  0  0  0  0
 10 11  1  0  0  0  0
 13 12  1  6  0  0  0
 13 16  1  0  0  0  0
 14 15  1  0  0  0  0
 14 13  1  0  0  0  0
 15 18  1  0  0  0  0
 16 17  2  0  0  0  0
 18 19  1  6  0  0  0
 18 17  1  0  0  0  0
 19 21  1  0  0  0  0
 21 20  1  0  0  0  0
 22  7  1  0  0  0  0
 23 24  2  0  0  0  0
 24 22  1  0  0  0  0
 25 24  1  0  0  0  0
 26 25  1  0  0  0  0
M  END
>  <MODEL>
7

>  <REMARK>
 VINA RESULT:      -7.2      1.754      6.048
  Name = 
  8 active torsions:
  status: ('A' for Active; 'I' for Inactive)
    1  A    between atoms: O_4  and  C_17
    2  A    between atoms: O_6  and  C_23
    3  A    between atoms: O_6  and  C_25
    4  A    between atoms: C_7  and  N_21
    5  A    between atoms: C_11  and  N_13
    6  A    between atoms: C_17  and  C_22
    7  A    between atoms: C_20  and  C_22
    8  A    between atoms: N_21  and  C_24
                            x       y       z     vdW  Elec       q    Type
                         _______ _______ _______ _____ _____    ______ ____

>  <TORSDO>
F 8

$$$$
=
 OpenBabel10232407533D

 26 28  0  0  1  0  0  0  0  0999 V2000
  186.5930  178.3890  147.4780 C   0  0  0  0  0  3  0  0  0  0  0  0
  184.2820  179.8160  145.0290 N   0  0  0  0  0  2  0  0  0  0  0  0
  184.3370  179.4930  143.7410 N   0  0  0  0  0  0  0  0  0  0  0  0
  185.2760  179.1590  145.6520 C   0  0  0  0  0  0  0  0  0  0  0  0
  185.3670  178.6370  143.5490 C   0  0  0  0  0  0  0  0  0  0  0  0
  185.5440  179.1850  147.0090 C   0  0  0  0  0  3  0  0  0  0  0  0
  187.3610  177.6010  146.5890 C   0  0  0  0  0  0  0  0  0  0  0  0
  187.0930  177.6080  145.2010 C   0  0  0  0  0  0  0  0  0  0  0  0
  186.0060  178.4000  144.7630 C   0  0  0  0  0  0  0  0  0  0  0  0
  185.6520  178.0380  142.2860 N   0  0  0  0  0  2  0  0  0  0  0  0
  186.7230  178.4310  141.5500 O   0  0  0  0  0  1  0  0  0  0  0  0
  187.9140  176.8100  144.3310 N   0  0  0  0  0  2  0  0  0  0  0  0
  189.3520  176.9090  144.1260 C   0  0  2  0  0  3  0  0  0  0  0  0
  189.6860  178.3020  143.6100 C   0  0  0  0  0  2  0  0  0  0  0  0
  191.1850  178.3900  143.3400 C   0  0  0  0  0  2  0  0  0  0  0  0
  189.8240  175.8580  143.1550 C   0  0  0  0  0  3  0  0  0  0  0  0
  190.8830  176.0540  142.3530 C   0  0  0  0  0  3  0  0  0  0  0  0
  191.6460  177.3600  142.2940 C   0  0  1  0  0  3  0  0  0  0  0  0
  191.5720  177.8920  141.0000 O   0  0  0  0  0  0  0  0  0  0  0  0
  191.5260  176.7900  138.8890 C   0  0  0  0  0  1  0  0  0  0  0  0
  190.8690  176.9450  140.2480 C   0  0  0  0  0  2  0  0  0  0  0  0
  188.4450  176.7410  147.1660 C   0  0  0  0  0  2  0  0  0  0  0  0
  189.4190  178.4060  148.5960 O   0  0  0  0  0  0  0  0  0  0  0  0
  189.6020  177.5480  147.6890 C   0  0  0  0  0  0  0  0  0  0  0  0
  190.8910  177.3680  147.1770 O   0  0  0  0  0  0  0  0  0  0  0  0
  191.6230  176.1630  147.3640 C   0  0  0  0  0  1  0  0  0  0  0  0
  2  4  1  0  0  0  0
  3  2  1  0  0  0  0
  4  6  2  0  0  0  0
  5  3  2  0  0  0  0
  5  9  1  0  0  0  0
  6  1  1  0  0  0  0
  7 22  1  0  0  0  0
  7  1  2  0  0  0  0
  8  7  1  0  0  0  0
  9  8  2  0  0  0  0
  9  4  1  0  0  0  0
 10  5  1  0  0  0  0
 11 10  1  0  0  0  0
 12  8  1  0  0  0  0
 13 12  1  6  0  0  0
 14 13  1  0  0  0  0
 15 14  1  0  0  0  0
 16 13  1  0  0  0  0
 17 16  2  0  0  0  0
 18 19  1  6  0  0  0
 18 17  1  0  0  0  0
 18 15  1  0  0  0  0
 20 21  1  0  0  0  0
 21 19  1  0  0  0  0
 22 24  1  0  0  0  0
 24 23  2  0  0  0  0
 25 26  1  0  0  0  0
 25 24  1  0  0  0  0
M  END
>  <MODEL>
8

>  <REMARK>
 VINA RESULT:      -7.0      1.883      2.423
  Name = 
  8 active torsions:
  status: ('A' for Active; 'I' for Inactive)
    1  A    between atoms: O_4  and  C_17
    2  A    between atoms: O_6  and  C_23
    3  A    between atoms: O_6  and  C_25
    4  A    between atoms: C_7  and  N_21
    5  A    between atoms: C_11  and  N_13
    6  A    between atoms: C_17  and  C_22
    7  A    between atoms: C_20  and  C_22
    8  A    between atoms: N_21  and  C_24
                            x       y       z     vdW  Elec       q    Type
                         _______ _______ _______ _____ _____    ______ ____

>  <TORSDO>
F 8

$$$$
=
 OpenBabel10232407533D

 26 28  0  0  1  0  0  0  0  0999 V2000
  191.1560  176.9320  142.1930 C   0  0  0  0  0  3  0  0  0  0  0  0
  190.1300  178.0720  138.8730 N   0  0  0  0  0  2  0  0  0  0  0  0
  188.8650  178.3680  138.5930 N   0  0  0  0  0  0  0  0  0  0  0  0
  190.1730  177.6540  140.1500 C   0  0  0  0  0  0  0  0  0  0  0  0
  188.1080  178.1340  139.6890 C   0  0  0  0  0  0  0  0  0  0  0  0
  191.3090  177.2890  140.8500 C   0  0  0  0  0  3  0  0  0  0  0  0
  189.8810  176.9300  142.8040 C   0  0  0  0  0  0  0  0  0  0  0  0
  188.7250  177.2780  142.0670 C   0  0  0  0  0  0  0  0  0  0  0  0
  188.9180  177.6630  140.7200 C   0  0  0  0  0  0  0  0  0  0  0  0
  186.7130  178.4230  139.7450 N   0  0  0  0  0  2  0  0  0  0  0  0
  185.9830  178.5770  138.6110 O   0  0  0  0  0  1  0  0  0  0  0  0
  187.4460  177.2390  142.7220 N   0  0  0  0  0  2  0  0  0  0  0  0
  186.7800  178.3170  143.4380 C   0  0  2  0  0  3  0  0  0  0  0  0
  186.2310  177.7760  144.7520 C   0  0  0  0  0  2  0  0  0  0  0  0
  185.4830  178.8900  145.4790 C   0  0  0  0  0  2  0  0  0  0  0  0
  185.6710  178.9050  142.6040 C   0  0  0  0  0  3  0  0  0  0  0  0
  184.5710  179.4390  143.1580 C   0  0  0  0  0  3  0  0  0  0  0  0
  184.3080  179.4360  144.6480 C   0  0  1  0  0  3  0  0  0  0  0  0
  183.1320  178.7250  144.9180 O   0  0  0  0  0  0  0  0  0  0  0  0
  180.8980  178.7020  144.0900 C   0  0  0  0  0  1  0  0  0  0  0  0
  182.3720  178.8020  143.7460 C   0  0  0  0  0  2  0  0  0  0  0  0
  189.7960  176.5750  144.2580 C   0  0  0  0  0  2  0  0  0  0  0  0
  190.0010  178.7880  145.1690 O   0  0  0  0  0  0  0  0  0  0  0  0
  190.4460  177.6070  145.1400 C   0  0  0  0  0  0  0  0  0  0  0  0
  191.5520  177.2800  145.9320 O   0  0  0  0  0  0  0  0  0  0  0  0
  191.4840  176.3110  146.9700 C   0  0  0  0  0  1  0  0  0  0  0  0
  1  7  1  0  0  0  0
  2  4  1  0  0  0  0
  3  2  1  0  0  0  0
  3  5  2  0  0  0  0
  4  9  2  0  0  0  0
  4  6  1  0  0  0  0
  5 10  1  0  0  0  0
  5  9  1  0  0  0  0
  6  1  2  0  0  0  0
  7 22  1  0  0  0  0
  8 12  1  0  0  0  0
  8  7  2  0  0  0  0
  9  8  1  0  0  0  0
 11 10  1  0  0  0  0
 13 12  1  6  0  0  0
 13 14  1  0  0  0  0
 14 15  1  0  0  0  0
 16 17  2  0  0  0  0
 16 13  1  0  0  0  0
 17 18  1  0  0  0  0
 18 19  1  6  0  0  0
 18 15  1  0  0  0  0
 21 20  1  0  0  0  0
 21 19  1  0  0  0  0
 22 24  1  0  0  0  0
 24 23  2  0  0  0  0
 24 25  1  0  0  0  0
 25 26  1  0  0  0  0
M  END
>  <MODEL>
9

>  <REMARK>
 VINA RESULT:      -7.0      2.461      5.937
  Name = 
  8 active torsions:
  status: ('A' for Active; 'I' for Inactive)
    1  A    between atoms: O_4  and  C_17
    2  A    between atoms: O_6  and  C_23
    3  A    between atoms: O_6  and  C_25
    4  A    between atoms: C_7  and  N_21
    5  A    between atoms: C_11  and  N_13
    6  A    between atoms: C_17  and  C_22
    7  A    between atoms: C_20  and  C_22
    8  A    between atoms: N_21  and  C_24
                            x       y       z     vdW  Elec       q    Type
                         _______ _______ _______ _____ _____    ______ ____

>  <TORSDO>
F 8

$$$$
