=
 OpenBabel10232409563D

 34 37  0  0  1  0  0  0  0  0999 V2000
  189.0130  177.0370  142.4830 C   0  0  2  0  0  3  0  0  0  0  0  0
  191.1200  177.4380  142.7920 N   0  0  0  0  0  2  0  0  0  0  0  0
  189.8830  177.7310  143.5140 C   0  0  2  0  0  3  0  0  0  0  0  0
  190.3380  176.7380  141.7750 C   0  0  2  0  0  3  0  0  0  0  0  0
  189.8870  176.5670  139.3630 N   0  0  0  0  0  2  0  0  0  0  0  0
  190.5360  177.3780  140.3970 C   0  0  2  0  0  3  0  0  0  0  0  0
  190.8080  176.1870  138.5440 C   0  0  0  0  0  0  0  0  0  0  0  0
  192.0500  176.6290  138.9020 C   0  0  0  0  0  0  0  0  0  0  0  0
  191.9910  177.3510  140.0050 C   0  0  0  0  0  2  0  0  0  0  0  0
  193.1690  176.3060  138.1420 C   0  0  0  0  0  3  0  0  0  0  0  0
  190.6190  175.3990  137.4080 C   0  0  0  0  0  0  0  0  0  0  0  0
  192.9950  175.5380  137.0270 N   0  0  0  0  0  0  0  0  0  0  0  0
  191.7610  175.0820  136.6470 C   0  0  0  0  0  3  0  0  0  0  0  0
  189.0850  174.2170  135.8700 C   0  0  0  0  0  1  0  0  0  0  0  0
  189.3400  174.9530  137.0590 O   0  0  0  0  0  0  0  0  0  0  0  0
  188.3890  176.2440  148.0490 O   0  0  0  0  0  0  0  0  0  0  0  0
  189.2320  177.3080  147.4000 S   0  0  0  0  0  0  0  0  0  0  0  0
  189.8370  177.0310  144.8780 C   0  0  1  0  0  3  0  0  0  0  0  0
  189.2220  178.5690  148.2140 O   0  0  0  0  0  0  0  0  0  0  0  0
  190.8760  176.7430  147.1110 C   0  0  0  0  0  2  0  0  0  0  0  0
  191.1590  177.0910  145.6600 C   0  0  0  0  0  2  0  0  0  0  0  0
  188.7260  177.6130  145.7370 C   0  0  0  0  0  2  0  0  0  0  0  0
  188.0310  177.9960  141.7820 C   0  0  0  0  0  2  0  0  0  0  0  0
  186.7090  178.2190  142.5160 C   0  0  0  0  0  2  0  0  0  0  0  0
  185.8280  179.1660  141.7240 C   0  0  0  0  0  2  0  0  0  0  0  0
  184.5630  179.2400  142.3090 O   0  0  0  0  0  0  0  0  0  0  0  0
  184.8130  179.4560  143.6640 C   0  0  0  0  0  2  0  0  0  0  0  0
  183.5020  179.4560  144.4370 C   0  0  1  0  0  3  0  0  0  0  0  0
  181.2110  179.1620  143.4920 C   0  0  0  0  0  1  0  0  0  0  0  0
  182.5310  178.4770  143.7950 C   0  0  0  0  0  2  0  0  0  0  0  0
  183.7470  179.0790  145.7880 O   0  0  0  0  0  0  0  0  0  0  0  0
  185.4880  177.5820  145.8630 O   0  0  0  0  0  0  0  0  0  0  0  0
  185.7610  179.5160  147.0630 O   0  0  0  0  0  1  0  0  0  0  0  0
  185.0140  178.6900  146.2280 C   0  0  0  0  0  0  0  0  0  0  0  0
  1 23  1  6  0  0  0
  1  3  1  0  0  0  0
  3  2  1  6  0  0  0
  3 18  1  0  0  0  0
  4  1  1  0  0  0  0
  4  2  1  1  0  0  0
  5  6  1  0  0  0  0
  6  9  1  6  0  0  0
  6  4  1  0  0  0  0
  7  8  1  0  0  0  0
  7  5  1  0  0  0  0
  8  9  1  0  0  0  0
 10  8  2  0  0  0  0
 11  7  2  0  0  0  0
 12 10  1  0  0  0  0
 13 12  2  0  0  0  0
 13 11  1  0  0  0  0
 14 15  1  0  0  0  0
 15 11  1  0  0  0  0
 17 16  2  0  0  0  0
 17 19  2  0  0  0  0
 18 21  1  1  0  0  0
 18 22  1  0  0  0  0
 20 17  1  0  0  0  0
 21 20  1  0  0  0  0
 22 17  1  0  0  0  0
 23 24  1  0  0  0  0
 25 26  1  0  0  0  0
 25 24  1  0  0  0  0
 26 27  1  0  0  0  0
 28 27  1  6  0  0  0
 28 31  1  0  0  0  0
 29 30  1  0  0  0  0
 30 28  1  0  0  0  0
 31 34  1  0  0  0  0
 32 34  2  0  0  0  0
 34 33  1  0  0  0  0
M  END
>  <MODEL>
1

>  <REMARK>
 VINA RESULT:      -7.6      0.000      0.000
  Name = 
  12 active torsions:
  status: ('A' for Active; 'I' for Inactive)
    1  A    between atoms: C_1  and  C_4
    2  A    between atoms: C_1  and  C_30
    3  A    between atoms: O_5  and  C_10
    4  A    between atoms: O_5  and  C_24
    5  A    between atoms: C_6  and  C_21
    6  A    between atoms: C_10  and  C_30
    7  A    between atoms: C_12  and  C_16
    8  A    between atoms: O_15  and  C_28
    9  A    between atoms: C_17  and  O_19
   10  A    between atoms: C_17  and  C_24
   11  A    between atoms: C_17  and  C_31
   12  A    between atoms: O_19  and  C_32
                            x       y       z     vdW  Elec       q    Type
                         _______ _______ _______ _____ _____    ______ ____

>  <TORSDO>
F 12

$$$$
=
 OpenBabel10232409563D

 34 37  0  0  1  0  0  0  0  0999 V2000
  188.7800  177.1190  142.5380 C   0  0  2  0  0  3  0  0  0  0  0  0
  190.9090  177.4210  142.8010 N   0  0  0  0  0  2  0  0  0  0  0  0
  189.7030  177.7690  143.5500 C   0  0  2  0  0  3  0  0  0  0  0  0
  190.0730  176.7610  141.8000 C   0  0  2  0  0  3  0  0  0  0  0  0
  189.6640  176.5540  139.3840 N   0  0  0  0  0  2  0  0  0  0  0  0
  190.2710  177.3950  140.4190 C   0  0  2  0  0  3  0  0  0  0  0  0
  190.6080  176.1980  138.5820 C   0  0  0  0  0  0  0  0  0  0  0  0
  191.8290  176.6830  138.9530 C   0  0  0  0  0  0  0  0  0  0  0  0
  191.7310  177.4130  140.0480 C   0  0  0  0  0  2  0  0  0  0  0  0
  192.9690  176.3910  138.2120 C   0  0  0  0  0  3  0  0  0  0  0  0
  190.4610  175.3940  137.4500 C   0  0  0  0  0  0  0  0  0  0  0  0
  192.8370  175.6070  137.1020 N   0  0  0  0  0  0  0  0  0  0  0  0
  191.6240  175.1080  136.7080 C   0  0  0  0  0  3  0  0  0  0  0  0
  188.9650  173.5260  136.8280 C   0  0  0  0  0  1  0  0  0  0  0  0
  189.2030  174.9030  137.0870 O   0  0  0  0  0  0  0  0  0  0  0  0
  188.2540  176.3560  148.1240 O   0  0  0  0  0  0  0  0  0  0  0  0
  189.1390  177.3720  147.4530 S   0  0  0  0  0  0  0  0  0  0  0  0
  189.6550  177.0680  144.9140 C   0  0  1  0  0  3  0  0  0  0  0  0
  189.2270  178.6280  148.2690 O   0  0  0  0  0  0  0  0  0  0  0  0
  190.7380  176.7110  147.1160 C   0  0  0  0  0  2  0  0  0  0  0  0
  191.0000  177.0470  145.6580 C   0  0  0  0  0  2  0  0  0  0  0  0
  188.6050  177.7120  145.8060 C   0  0  0  0  0  2  0  0  0  0  0  0
  187.8280  178.1250  141.8600 C   0  0  0  0  0  2  0  0  0  0  0  0
  186.4010  178.1360  142.4090 C   0  0  0  0  0  2  0  0  0  0  0  0
  185.4650  178.7860  141.4080 C   0  0  0  0  0  2  0  0  0  0  0  0
  186.1550  179.0740  140.2290 O   0  0  0  0  0  0  0  0  0  0  0  0
  185.3090  178.6380  139.2100 C   0  0  0  0  0  2  0  0  0  0  0  0
  186.1180  177.9200  138.1400 C   0  0  1  0  0  3  0  0  0  0  0  0
  183.7720  177.5550  137.3710 C   0  0  0  0  0  1  0  0  0  0  0  0
  185.1980  177.0400  137.3080 C   0  0  0  0  0  2  0  0  0  0  0  0
  186.7570  178.8780  137.3030 O   0  0  0  0  0  0  0  0  0  0  0  0
  188.9450  179.4430  137.7170 O   0  0  0  0  0  1  0  0  0  0  0  0
  188.5780  178.0420  135.9400 O   0  0  0  0  0  0  0  0  0  0  0  0
  188.1200  178.8100  137.0080 C   0  0  0  0  0  0  0  0  0  0  0  0
  1 23  1  6  0  0  0
  1  3  1  0  0  0  0
  3  2  1  6  0  0  0
  3 18  1  0  0  0  0
  4  1  1  0  0  0  0
  4  2  1  1  0  0  0
  5  6  1  0  0  0  0
  6  9  1  6  0  0  0
  6  4  1  0  0  0  0
  7  8  1  0  0  0  0
  7  5  1  0  0  0  0
  8  9  1  0  0  0  0
 10  8  2  0  0  0  0
 11  7  2  0  0  0  0
 12 10  1  0  0  0  0
 13 12  2  0  0  0  0
 13 11  1  0  0  0  0
 14 15  1  0  0  0  0
 15 11  1  0  0  0  0
 17 16  2  0  0  0  0
 17 19  2  0  0  0  0
 18 21  1  1  0  0  0
 18 22  1  0  0  0  0
 20 17  1  0  0  0  0
 21 20  1  0  0  0  0
 22 17  1  0  0  0  0
 23 24  1  0  0  0  0
 25 24  1  0  0  0  0
 26 25  1  0  0  0  0
 27 26  1  0  0  0  0
 28 30  1  6  0  0  0
 28 27  1  0  0  0  0
 30 29  1  0  0  0  0
 31 28  1  0  0  0  0
 33 34  2  0  0  0  0
 34 31  1  0  0  0  0
 34 32  1  0  0  0  0
M  END
>  <MODEL>
2

>  <REMARK>
 VINA RESULT:      -7.5      2.114      4.089
  Name = 
  12 active torsions:
  status: ('A' for Active; 'I' for Inactive)
    1  A    between atoms: C_1  and  C_4
    2  A    between atoms: C_1  and  C_30
    3  A    between atoms: O_5  and  C_10
    4  A    between atoms: O_5  and  C_24
    5  A    between atoms: C_6  and  C_21
    6  A    between atoms: C_10  and  C_30
    7  A    between atoms: C_12  and  C_16
    8  A    between atoms: O_15  and  C_28
    9  A    between atoms: C_17  and  O_19
   10  A    between atoms: C_17  and  C_24
   11  A    between atoms: C_17  and  C_31
   12  A    between atoms: O_19  and  C_32
                            x       y       z     vdW  Elec       q    Type
                         _______ _______ _______ _____ _____    ______ ____

>  <TORSDO>
F 12

$$$$
=
 OpenBabel10232409563D

 34 37  0  0  1  0  0  0  0  0999 V2000
  189.0710  177.0500  142.3920 C   0  0  2  0  0  3  0  0  0  0  0  0
  191.1670  177.4630  142.7550 N   0  0  0  0  0  2  0  0  0  0  0  0
  189.9100  177.7530  143.4430 C   0  0  2  0  0  3  0  0  0  0  0  0
  190.4160  176.7550  141.7200 C   0  0  2  0  0  3  0  0  0  0  0  0
  189.9850  176.6020  139.3040 N   0  0  0  0  0  2  0  0  0  0  0  0
  190.6470  177.3920  140.3460 C   0  0  2  0  0  3  0  0  0  0  0  0
  190.9030  176.1970  138.4940 C   0  0  0  0  0  0  0  0  0  0  0  0
  192.1530  176.6010  138.8650 C   0  0  0  0  0  0  0  0  0  0  0  0
  192.1050  177.3230  139.9690 C   0  0  0  0  0  2  0  0  0  0  0  0
  193.2700  176.2470  138.1170 C   0  0  0  0  0  3  0  0  0  0  0  0
  190.7020  175.4170  137.3540 C   0  0  0  0  0  0  0  0  0  0  0  0
  193.0850  175.4860  136.9980 N   0  0  0  0  0  0  0  0  0  0  0  0
  191.8430  175.0680  136.6040 C   0  0  0  0  0  3  0  0  0  0  0  0
  188.6780  175.6380  135.9510 C   0  0  0  0  0  1  0  0  0  0  0  0
  189.4140  175.0090  136.9910 O   0  0  0  0  0  0  0  0  0  0  0  0
  188.3210  176.3010  147.9580 O   0  0  0  0  0  0  0  0  0  0  0  0
  189.1910  177.3510  147.3200 S   0  0  0  0  0  0  0  0  0  0  0  0
  189.8310  177.0570  144.8090 C   0  0  1  0  0  3  0  0  0  0  0  0
  189.1890  178.6140  148.1300 O   0  0  0  0  0  0  0  0  0  0  0  0
  190.8300  176.7580  147.0580 C   0  0  0  0  0  2  0  0  0  0  0  0
  191.1410  177.0970  145.6110 C   0  0  0  0  0  2  0  0  0  0  0  0
  188.7160  177.6600  145.6480 C   0  0  0  0  0  2  0  0  0  0  0  0
  188.1030  178.0030  141.6620 C   0  0  0  0  0  2  0  0  0  0  0  0
  186.7760  178.2500  142.3780 C   0  0  0  0  0  2  0  0  0  0  0  0
  185.8560  179.0750  141.4980 C   0  0  0  0  0  2  0  0  0  0  0  0
  184.6420  179.2930  142.1520 O   0  0  0  0  0  0  0  0  0  0  0  0
  184.5650  178.2760  143.1020 C   0  0  0  0  0  2  0  0  0  0  0  0
  183.4110  178.5470  144.0560 C   0  0  1  0  0  3  0  0  0  0  0  0
  185.2010  178.4030  145.7890 C   0  0  0  0  0  1  0  0  0  0  0  0
  183.9470  179.1370  145.3520 C   0  0  0  0  0  2  0  0  0  0  0  0
  182.4980  179.4570  143.4510 O   0  0  0  0  0  0  0  0  0  0  0  0
  180.5250  179.6090  142.2870 O   0  0  0  0  0  0  0  0  0  0  0  0
  180.4890  178.3150  144.1780 O   0  0  0  0  0  1  0  0  0  0  0  0
  181.1500  179.1430  143.2750 C   0  0  0  0  0  0  0  0  0  0  0  0
  1 23  1  6  0  0  0
  1  3  1  0  0  0  0
  3  2  1  6  0  0  0
  3 18  1  0  0  0  0
  4  1  1  0  0  0  0
  4  2  1  1  0  0  0
  5  6  1  0  0  0  0
  6  9  1  6  0  0  0
  6  4  1  0  0  0  0
  7  8  1  0  0  0  0
  7  5  1  0  0  0  0
  8  9  1  0  0  0  0
 10  8  2  0  0  0  0
 11  7  2  0  0  0  0
 12 10  1  0  0  0  0
 13 12  2  0  0  0  0
 13 11  1  0  0  0  0
 14 15  1  0  0  0  0
 15 11  1  0  0  0  0
 17 16  2  0  0  0  0
 17 19  2  0  0  0  0
 18 21  1  1  0  0  0
 18 22  1  0  0  0  0
 20 17  1  0  0  0  0
 21 20  1  0  0  0  0
 22 17  1  0  0  0  0
 23 24  1  0  0  0  0
 25 26  1  0  0  0  0
 25 24  1  0  0  0  0
 26 27  1  0  0  0  0
 28 27  1  6  0  0  0
 28 30  1  0  0  0  0
 30 29  1  0  0  0  0
 31 28  1  0  0  0  0
 32 34  2  0  0  0  0
 34 31  1  0  0  0  0
 34 33  1  0  0  0  0
M  END
>  <MODEL>
3

>  <REMARK>
 VINA RESULT:      -7.5      1.118      2.044
  Name = 
  12 active torsions:
  status: ('A' for Active; 'I' for Inactive)
    1  A    between atoms: C_1  and  C_4
    2  A    between atoms: C_1  and  C_30
    3  A    between atoms: O_5  and  C_10
    4  A    between atoms: O_5  and  C_24
    5  A    between atoms: C_6  and  C_21
    6  A    between atoms: C_10  and  C_30
    7  A    between atoms: C_12  and  C_16
    8  A    between atoms: O_15  and  C_28
    9  A    between atoms: C_17  and  O_19
   10  A    between atoms: C_17  and  C_24
   11  A    between atoms: C_17  and  C_31
   12  A    between atoms: O_19  and  C_32
                            x       y       z     vdW  Elec       q    Type
                         _______ _______ _______ _____ _____    ______ ____

>  <TORSDO>
F 12

$$$$
=
 OpenBabel10232409563D

 34 37  0  0  1  0  0  0  0  0999 V2000
  188.5420  177.7120  140.8750 C   0  0  2  0  0  3  0  0  0  0  0  0
  187.4390  178.4380  139.1570 N   0  0  0  0  0  2  0  0  0  0  0  0
  188.8430  178.1590  139.4570 C   0  0  2  0  0  3  0  0  0  0  0  0
  187.0840  178.0010  140.5060 C   0  0  2  0  0  3  0  0  0  0  0  0
  186.3540  178.8090  142.7110 N   0  0  0  0  0  2  0  0  0  0  0  0
  186.3920  179.1270  141.2810 C   0  0  2  0  0  3  0  0  0  0  0  0
  185.1130  178.7570  143.0560 C   0  0  0  0  0  0  0  0  0  0  0  0
  184.2630  178.9870  142.0120 C   0  0  0  0  0  0  0  0  0  0  0  0
  184.9370  179.2160  140.9000 C   0  0  0  0  0  2  0  0  0  0  0  0
  182.8850  178.9590  142.1930 C   0  0  0  0  0  3  0  0  0  0  0  0
  184.6300  178.4880  144.3370 C   0  0  0  0  0  0  0  0  0  0  0  0
  182.4010  178.6980  143.4430 N   0  0  0  0  0  0  0  0  0  0  0  0
  183.2310  178.4650  144.5060 C   0  0  0  0  0  3  0  0  0  0  0  0
  185.1610  178.4730  146.7530 C   0  0  0  0  0  1  0  0  0  0  0  0
  185.5150  178.2520  145.3950 O   0  0  0  0  0  0  0  0  0  0  0  0
  191.5630  174.2630  137.8980 O   0  0  0  0  0  0  0  0  0  0  0  0
  191.5580  175.7670  137.8410 S   0  0  0  0  0  0  0  0  0  0  0  0
  189.3970  177.0180  138.5940 C   0  0  1  0  0  3  0  0  0  0  0  0
  192.9560  176.3050  137.7620 O   0  0  0  0  0  0  0  0  0  0  0  0
  190.5660  176.3580  136.5090 C   0  0  0  0  0  2  0  0  0  0  0  0
  189.6630  177.4100  137.1320 C   0  0  0  0  0  2  0  0  0  0  0  0
  190.6760  176.4660  139.2010 C   0  0  0  0  0  2  0  0  0  0  0  0
  189.1990  178.6120  141.9410 C   0  0  0  0  0  2  0  0  0  0  0  0
  189.7650  177.8720  143.1530 C   0  0  0  0  0  2  0  0  0  0  0  0
  190.6890  178.7860  143.9350 C   0  0  0  0  0  2  0  0  0  0  0  0
  191.4260  178.0410  144.8570 O   0  0  0  0  0  0  0  0  0  0  0  0
  190.5400  177.0670  145.3130 C   0  0  0  0  0  2  0  0  0  0  0  0
  190.2700  177.2690  146.7970 C   0  0  1  0  0  3  0  0  0  0  0  0
  188.5000  177.9020  148.4390 C   0  0  0  0  0  1  0  0  0  0  0  0
  188.7730  177.4100  147.0290 C   0  0  0  0  0  2  0  0  0  0  0  0
  190.7700  176.1550  147.5270 O   0  0  0  0  0  0  0  0  0  0  0  0
  192.8600  176.3630  148.4580 O   0  0  0  0  0  1  0  0  0  0  0  0
  192.6940  174.9790  146.6390 O   0  0  0  0  0  0  0  0  0  0  0  0
  192.1320  175.8500  147.5690 C   0  0  0  0  0  0  0  0  0  0  0  0
  1 23  1  1  0  0  0
  3  2  1  6  0  0  0
  3  1  1  0  0  0  0
  4  2  1  6  0  0  0
  4  1  1  0  0  0  0
  4  6  1  0  0  0  0
  5  7  1  0  0  0  0
  6  9  1  6  0  0  0
  6  5  1  0  0  0  0
  7 11  1  0  0  0  0
  8 10  1  0  0  0  0
  8  7  2  0  0  0  0
  9  8  1  0  0  0  0
 10 12  2  0  0  0  0
 11 13  2  0  0  0  0
 11 15  1  0  0  0  0
 12 13  1  0  0  0  0
 15 14  1  0  0  0  0
 17 16  2  0  0  0  0
 17 22  1  0  0  0  0
 18 21  1  6  0  0  0
 18 22  1  0  0  0  0
 18  3  1  0  0  0  0
 19 17  2  0  0  0  0
 20 21  1  0  0  0  0
 20 17  1  0  0  0  0
 23 24  1  0  0  0  0
 24 25  1  0  0  0  0
 25 26  1  0  0  0  0
 26 27  1  0  0  0  0
 28 27  1  6  0  0  0
 28 30  1  0  0  0  0
 28 31  1  0  0  0  0
 30 29  1  0  0  0  0
 31 34  1  0  0  0  0
 33 34  2  0  0  0  0
 34 32  1  0  0  0  0
M  END
>  <MODEL>
4

>  <REMARK>
 VINA RESULT:      -7.3      3.168      8.181
  Name = 
  12 active torsions:
  status: ('A' for Active; 'I' for Inactive)
    1  A    between atoms: C_1  and  C_4
    2  A    between atoms: C_1  and  C_30
    3  A    between atoms: O_5  and  C_10
    4  A    between atoms: O_5  and  C_24
    5  A    between atoms: C_6  and  C_21
    6  A    between atoms: C_10  and  C_30
    7  A    between atoms: C_12  and  C_16
    8  A    between atoms: O_15  and  C_28
    9  A    between atoms: C_17  and  O_19
   10  A    between atoms: C_17  and  C_24
   11  A    between atoms: C_17  and  C_31
   12  A    between atoms: O_19  and  C_32
                            x       y       z     vdW  Elec       q    Type
                         _______ _______ _______ _____ _____    ______ ____

>  <TORSDO>
F 12

$$$$
=
 OpenBabel10232409563D

 34 37  0  0  1  0  0  0  0  0999 V2000
  189.0630  177.3870  142.5240 C   0  0  2  0  0  3  0  0  0  0  0  0
  191.2180  177.2610  142.7040 N   0  0  0  0  0  2  0  0  0  0  0  0
  190.1320  177.8100  143.5130 C   0  0  2  0  0  3  0  0  0  0  0  0
  190.2340  176.8100  141.7220 C   0  0  2  0  0  3  0  0  0  0  0  0
  189.8210  176.6790  139.3010 N   0  0  0  0  0  2  0  0  0  0  0  0
  190.5000  177.4420  140.3520 C   0  0  2  0  0  3  0  0  0  0  0  0
  190.7310  176.2440  138.4990 C   0  0  0  0  0  0  0  0  0  0  0  0
  191.9920  176.6030  138.8830 C   0  0  0  0  0  0  0  0  0  0  0  0
  191.9580  177.3230  139.9880 C   0  0  0  0  0  2  0  0  0  0  0  0
  193.1030  176.2120  138.1440 C   0  0  0  0  0  3  0  0  0  0  0  0
  190.5140  175.4750  137.3540 C   0  0  0  0  0  0  0  0  0  0  0  0
  192.9020  175.4610  137.0210 N   0  0  0  0  0  0  0  0  0  0  0  0
  191.6490  175.0870  136.6140 C   0  0  0  0  0  3  0  0  0  0  0  0
  188.5670  175.6680  135.8420 C   0  0  0  0  0  1  0  0  0  0  0  0
  189.2170  175.1130  136.9780 O   0  0  0  0  0  0  0  0  0  0  0  0
  188.3850  176.2990  147.9490 O   0  0  0  0  0  0  0  0  0  0  0  0
  189.3000  177.3370  147.3590 S   0  0  0  0  0  0  0  0  0  0  0  0
  189.9970  177.0850  144.8590 C   0  0  1  0  0  3  0  0  0  0  0  0
  189.3130  178.5800  148.2000 O   0  0  0  0  0  0  0  0  0  0  0  0
  190.9280  176.7030  147.1250 C   0  0  0  0  0  2  0  0  0  0  0  0
  191.2870  177.0680  145.6950 C   0  0  0  0  0  2  0  0  0  0  0  0
  188.8790  177.6990  145.6840 C   0  0  0  0  0  2  0  0  0  0  0  0
  188.3010  178.5810  141.9150 C   0  0  0  0  0  2  0  0  0  0  0  0
  186.7950  178.3760  141.7590 C   0  0  0  0  0  2  0  0  0  0  0  0
  186.1800  177.9970  143.0920 C   0  0  0  0  0  2  0  0  0  0  0  0
  184.7950  178.1610  143.0410 O   0  0  0  0  0  0  0  0  0  0  0  0
  184.5390  178.6010  141.7440 C   0  0  0  0  0  2  0  0  0  0  0  0
  183.0600  178.4370  141.4250 C   0  0  1  0  0  3  0  0  0  0  0  0
  180.7660  179.0060  142.2290 C   0  0  0  0  0  1  0  0  0  0  0  0
  182.2280  178.8820  142.6180 C   0  0  0  0  0  2  0  0  0  0  0  0
  182.7290  179.2220  140.2850 O   0  0  0  0  0  0  0  0  0  0  0  0
  184.2100  180.4340  139.0140 O   0  0  0  0  0  1  0  0  0  0  0  0
  183.7980  178.2890  138.3200 O   0  0  0  0  0  0  0  0  0  0  0  0
  183.5970  179.3500  139.1990 C   0  0  0  0  0  0  0  0  0  0  0  0
  1 23  1  6  0  0  0
  1  3  1  0  0  0  0
  3  2  1  6  0  0  0
  3 18  1  0  0  0  0
  4  1  1  0  0  0  0
  4  2  1  1  0  0  0
  5  6  1  0  0  0  0
  6  9  1  6  0  0  0
  6  4  1  0  0  0  0
  7  8  1  0  0  0  0
  7  5  1  0  0  0  0
  8  9  1  0  0  0  0
 10  8  2  0  0  0  0
 11  7  2  0  0  0  0
 12 10  1  0  0  0  0
 13 12  2  0  0  0  0
 13 11  1  0  0  0  0
 14 15  1  0  0  0  0
 15 11  1  0  0  0  0
 17 16  2  0  0  0  0
 17 19  2  0  0  0  0
 18 22  1  1  0  0  0
 18 21  1  0  0  0  0
 20 17  1  0  0  0  0
 21 20  1  0  0  0  0
 22 17  1  0  0  0  0
 24 23  1  0  0  0  0
 24 25  1  0  0  0  0
 26 25  1  0  0  0  0
 27 26  1  0  0  0  0
 28 27  1  1  0  0  0
 28 30  1  0  0  0  0
 29 30  1  0  0  0  0
 31 28  1  0  0  0  0
 32 34  1  0  0  0  0
 33 34  2  0  0  0  0
 34 31  1  0  0  0  0
M  END
>  <MODEL>
5

>  <REMARK>
 VINA RESULT:      -7.1      1.397      2.706
  Name = 
  12 active torsions:
  status: ('A' for Active; 'I' for Inactive)
    1  A    between atoms: C_1  and  C_4
    2  A    between atoms: C_1  and  C_30
    3  A    between atoms: O_5  and  C_10
    4  A    between atoms: O_5  and  C_24
    5  A    between atoms: C_6  and  C_21
    6  A    between atoms: C_10  and  C_30
    7  A    between atoms: C_12  and  C_16
    8  A    between atoms: O_15  and  C_28
    9  A    between atoms: C_17  and  O_19
   10  A    between atoms: C_17  and  C_24
   11  A    between atoms: C_17  and  C_31
   12  A    between atoms: O_19  and  C_32
                            x       y       z     vdW  Elec       q    Type
                         _______ _______ _______ _____ _____    ______ ____

>  <TORSDO>
F 12

$$$$
=
 OpenBabel10232409563D

 34 37  0  0  1  0  0  0  0  0999 V2000
  186.7560  178.8290  142.2430 C   0  0  2  0  0  3  0  0  0  0  0  0
  184.8340  178.1880  143.0120 N   0  0  0  0  0  2  0  0  0  0  0  0
  186.2340  177.9220  143.3410 C   0  0  2  0  0  3  0  0  0  0  0  0
  185.2760  179.0910  141.9500 C   0  0  2  0  0  3  0  0  0  0  0  0
  184.1120  179.7380  139.8830 N   0  0  0  0  0  2  0  0  0  0  0  0
  184.7560  178.6250  140.5860 C   0  0  2  0  0  3  0  0  0  0  0  0
  182.8840  179.4010  139.6830 C   0  0  0  0  0  0  0  0  0  0  0  0
  182.5830  178.1690  140.1910 C   0  0  0  0  0  0  0  0  0  0  0  0
  183.6430  177.6230  140.7580 C   0  0  0  0  0  2  0  0  0  0  0  0
  181.3000  177.6440  140.0810 C   0  0  0  0  0  3  0  0  0  0  0  0
  181.9170  180.1730  139.0370 C   0  0  0  0  0  0  0  0  0  0  0  0
  180.3480  178.3910  139.4480 N   0  0  0  0  0  0  0  0  0  0  0  0
  180.6230  179.6270  138.9300 C   0  0  0  0  0  3  0  0  0  0  0  0
  181.2740  182.2940  137.9380 C   0  0  0  0  0  1  0  0  0  0  0  0
  182.2420  181.4340  138.5260 O   0  0  0  0  0  0  0  0  0  0  0  0
  188.7470  178.8200  147.5700 O   0  0  0  0  0  0  0  0  0  0  0  0
  187.7680  177.8340  146.9940 S   0  0  0  0  0  0  0  0  0  0  0  0
  186.6000  178.4340  144.7400 C   0  0  1  0  0  3  0  0  0  0  0  0
  187.9520  176.4760  147.6060 O   0  0  0  0  0  0  0  0  0  0  0  0
  186.1070  178.3980  147.1700 C   0  0  0  0  0  2  0  0  0  0  0  0
  185.4940  178.2410  145.7890 C   0  0  0  0  0  2  0  0  0  0  0  0
  187.8730  177.7650  145.2340 C   0  0  0  0  0  2  0  0  0  0  0  0
  187.5710  178.0730  141.1750 C   0  0  0  0  0  2  0  0  0  0  0  0
  189.0860  178.1030  141.3750 C   0  0  0  0  0  2  0  0  0  0  0  0
  189.6720  176.7290  141.1150 C   0  0  0  0  0  2  0  0  0  0  0  0
  190.8490  176.5670  141.8490 O   0  0  0  0  0  0  0  0  0  0  0  0
  190.4240  176.4140  143.1680 C   0  0  0  0  0  2  0  0  0  0  0  0
  191.5050  176.9080  144.1190 C   0  0  1  0  0  3  0  0  0  0  0  0
  190.9710  179.3440  144.2170 C   0  0  0  0  0  1  0  0  0  0  0  0
  191.9500  178.3030  143.7060 C   0  0  0  0  0  2  0  0  0  0  0  0
  190.9930  176.9370  145.4470 O   0  0  0  0  0  0  0  0  0  0  0  0
  191.7140  177.0300  147.6260 O   0  0  0  0  0  1  0  0  0  0  0  0
  192.4160  175.2240  146.4020 O   0  0  0  0  0  0  0  0  0  0  0  0
  191.7100  176.4170  146.5270 C   0  0  0  0  0  0  0  0  0  0  0  0
  1 23  1  6  0  0  0
  1  3  1  0  0  0  0
  3  2  1  1  0  0  0
  3 18  1  0  0  0  0
  4  1  1  0  0  0  0
  4  2  1  1  0  0  0
  5  6  1  0  0  0  0
  6  9  1  1  0  0  0
  6  4  1  0  0  0  0
  7  5  1  0  0  0  0
  7  8  1  0  0  0  0
  8  9  1  0  0  0  0
 10  8  2  0  0  0  0
 11  7  2  0  0  0  0
 12 10  1  0  0  0  0
 13 11  1  0  0  0  0
 13 12  2  0  0  0  0
 14 15  1  0  0  0  0
 15 11  1  0  0  0  0
 17 20  1  0  0  0  0
 17 16  2  0  0  0  0
 17 19  2  0  0  0  0
 18 22  1  1  0  0  0
 18 21  1  0  0  0  0
 21 20  1  0  0  0  0
 22 17  1  0  0  0  0
 23 24  1  0  0  0  0
 25 24  1  0  0  0  0
 25 26  1  0  0  0  0
 26 27  1  0  0  0  0
 28 27  1  6  0  0  0
 28 31  1  0  0  0  0
 30 28  1  0  0  0  0
 30 29  1  0  0  0  0
 31 34  1  0  0  0  0
 33 34  2  0  0  0  0
 34 32  1  0  0  0  0
M  END
>  <MODEL>
6

>  <REMARK>
 VINA RESULT:      -7.0      3.704      7.435
  Name = 
  12 active torsions:
  status: ('A' for Active; 'I' for Inactive)
    1  A    between atoms: C_1  and  C_4
    2  A    between atoms: C_1  and  C_30
    3  A    between atoms: O_5  and  C_10
    4  A    between atoms: O_5  and  C_24
    5  A    between atoms: C_6  and  C_21
    6  A    between atoms: C_10  and  C_30
    7  A    between atoms: C_12  and  C_16
    8  A    between atoms: O_15  and  C_28
    9  A    between atoms: C_17  and  O_19
   10  A    between atoms: C_17  and  C_24
   11  A    between atoms: C_17  and  C_31
   12  A    between atoms: O_19  and  C_32
                            x       y       z     vdW  Elec       q    Type
                         _______ _______ _______ _____ _____    ______ ____

>  <TORSDO>
F 12

$$$$
=
 OpenBabel10232409563D

 34 37  0  0  1  0  0  0  0  0999 V2000
  185.2720  178.1750  142.2240 C   0  0  2  0  0  3  0  0  0  0  0  0
  183.9270  178.7150  143.8350 N   0  0  0  0  0  2  0  0  0  0  0  0
  183.9220  178.8490  142.3790 C   0  0  2  0  0  3  0  0  0  0  0  0
  185.2210  178.0420  143.7490 C   0  0  2  0  0  3  0  0  0  0  0  0
  187.5680  178.0960  144.4830 N   0  0  0  0  0  2  0  0  0  0  0  0
  186.2880  178.8080  144.5380 C   0  0  2  0  0  3  0  0  0  0  0  0
  187.8880  177.7950  145.6940 C   0  0  0  0  0  0  0  0  0  0  0  0
  186.9560  178.2030  146.6060 C   0  0  0  0  0  0  0  0  0  0  0  0
  185.9540  178.8190  146.0080 C   0  0  0  0  0  2  0  0  0  0  0  0
  187.1270  177.9530  147.9630 C   0  0  0  0  0  3  0  0  0  0  0  0
  189.0420  177.1160  146.0920 C   0  0  0  0  0  0  0  0  0  0  0  0
  188.2530  177.2920  148.3630 N   0  0  0  0  0  0  0  0  0  0  0  0
  189.2020  176.8730  147.4700 C   0  0  0  0  0  3  0  0  0  0  0  0
  191.3620  176.5480  145.4540 C   0  0  0  0  0  1  0  0  0  0  0  0
  189.9840  176.7030  145.1440 O   0  0  0  0  0  0  0  0  0  0  0  0
  181.3610  175.9300  139.2260 O   0  0  0  0  0  0  0  0  0  0  0  0
  181.6470  177.3850  139.4820 S   0  0  0  0  0  0  0  0  0  0  0  0
  182.7910  178.0370  141.7340 C   0  0  1  0  0  3  0  0  0  0  0  0
  181.6090  178.1710  138.2040 O   0  0  0  0  0  0  0  0  0  0  0  0
  180.5450  178.0570  140.6830 C   0  0  0  0  0  2  0  0  0  0  0  0
  181.4420  178.7720  141.6790 C   0  0  0  0  0  2  0  0  0  0  0  0
  183.1790  177.6080  140.3280 C   0  0  0  0  0  2  0  0  0  0  0  0
  186.3440  179.1080  141.6250 C   0  0  0  0  0  2  0  0  0  0  0  0
  187.6210  178.4110  141.1590 C   0  0  0  0  0  2  0  0  0  0  0  0
  187.6770  178.3860  139.6440 C   0  0  0  0  0  2  0  0  0  0  0  0
  188.9130  178.8660  139.2050 O   0  0  0  0  0  0  0  0  0  0  0  0
  189.3920  177.8740  138.3510 C   0  0  0  0  0  2  0  0  0  0  0  0
  190.1560  176.8290  139.1510 C   0  0  1  0  0  3  0  0  0  0  0  0
  190.9350  176.5220  136.7990 C   0  0  0  0  0  1  0  0  0  0  0  0
  190.9650  175.9530  138.2060 C   0  0  0  0  0  2  0  0  0  0  0  0
  191.0240  177.4770  140.0730 O   0  0  0  0  0  0  0  0  0  0  0  0
  190.4360  176.1370  141.8440 O   0  0  0  0  0  0  0  0  0  0  0  0
  191.6020  178.0430  142.3580 O   0  0  0  0  0  1  0  0  0  0  0  0
  191.0010  177.1860  141.4390 C   0  0  0  0  0  0  0  0  0  0  0  0
  1 23  1  1  0  0  0
  1  3  1  0  0  0  0
  1  4  1  0  0  0  0
  3  2  1  1  0  0  0
  4  2  1  1  0  0  0
  4  6  1  0  0  0  0
  5  6  1  0  0  0  0
  5  7  1  0  0  0  0
  6  9  1  1  0  0  0
  7 11  2  0  0  0  0
  7  8  1  0  0  0  0
  8 10  2  0  0  0  0
  9  8  1  0  0  0  0
 10 12  1  0  0  0  0
 11 13  1  0  0  0  0
 13 12  2  0  0  0  0
 15 14  1  0  0  0  0
 15 11  1  0  0  0  0
 16 17  2  0  0  0  0
 17 22  1  0  0  0  0
 17 20  1  0  0  0  0
 18 22  1  6  0  0  0
 18  3  1  0  0  0  0
 19 17  2  0  0  0  0
 20 21  1  0  0  0  0
 21 18  1  0  0  0  0
 24 23  1  0  0  0  0
 25 24  1  0  0  0  0
 26 25  1  0  0  0  0
 27 28  1  0  0  0  0
 27 26  1  0  0  0  0
 28 30  1  6  0  0  0
 28 31  1  0  0  0  0
 29 30  1  0  0  0  0
 31 34  1  0  0  0  0
 34 32  2  0  0  0  0
 34 33  1  0  0  0  0
M  END
>  <MODEL>
7

>  <REMARK>
 VINA RESULT:      -7.0      3.789      8.701
  Name = 
  12 active torsions:
  status: ('A' for Active; 'I' for Inactive)
    1  A    between atoms: C_1  and  C_4
    2  A    between atoms: C_1  and  C_30
    3  A    between atoms: O_5  and  C_10
    4  A    between atoms: O_5  and  C_24
    5  A    between atoms: C_6  and  C_21
    6  A    between atoms: C_10  and  C_30
    7  A    between atoms: C_12  and  C_16
    8  A    between atoms: O_15  and  C_28
    9  A    between atoms: C_17  and  O_19
   10  A    between atoms: C_17  and  C_24
   11  A    between atoms: C_17  and  C_31
   12  A    between atoms: O_19  and  C_32
                            x       y       z     vdW  Elec       q    Type
                         _______ _______ _______ _____ _____    ______ ____

>  <TORSDO>
F 12

$$$$
=
 OpenBabel10232409563D

 34 37  0  0  1  0  0  0  0  0999 V2000
  185.3640  178.1410  142.1690 C   0  0  2  0  0  3  0  0  0  0  0  0
  183.9760  178.7270  143.7260 N   0  0  0  0  0  2  0  0  0  0  0  0
  184.0170  178.8320  142.2680 C   0  0  2  0  0  3  0  0  0  0  0  0
  185.2640  178.0380  143.6930 C   0  0  2  0  0  3  0  0  0  0  0  0
  187.6000  178.1030  144.4600 N   0  0  0  0  0  2  0  0  0  0  0  0
  186.3150  178.8070  144.5000 C   0  0  2  0  0  3  0  0  0  0  0  0
  187.9050  177.7990  145.6750 C   0  0  0  0  0  0  0  0  0  0  0  0
  186.9580  178.1970  146.5750 C   0  0  0  0  0  0  0  0  0  0  0  0
  185.9600  178.8100  145.9650 C   0  0  0  0  0  2  0  0  0  0  0  0
  187.1110  177.9440  147.9330 C   0  0  0  0  0  3  0  0  0  0  0  0
  189.0570  177.1260  146.0860 C   0  0  0  0  0  0  0  0  0  0  0  0
  188.2340  177.2870  148.3470 N   0  0  0  0  0  0  0  0  0  0  0  0
  189.1990  176.8770  147.4660 C   0  0  0  0  0  3  0  0  0  0  0  0
  191.1970  177.4680  144.8960 C   0  0  0  0  0  1  0  0  0  0  0  0
  190.0150  176.7210  145.1510 O   0  0  0  0  0  0  0  0  0  0  0  0
  181.5130  175.9070  139.0770 O   0  0  0  0  0  0  0  0  0  0  0  0
  181.7970  177.3620  139.3320 S   0  0  0  0  0  0  0  0  0  0  0  0
  182.8970  178.0200  141.6040 C   0  0  1  0  0  3  0  0  0  0  0  0
  181.7880  178.1430  138.0510 O   0  0  0  0  0  0  0  0  0  0  0  0
  180.6730  178.0420  140.5080 C   0  0  0  0  0  2  0  0  0  0  0  0
  181.5520  178.7590  141.5190 C   0  0  0  0  0  2  0  0  0  0  0  0
  183.3130  177.5840  140.2080 C   0  0  0  0  0  2  0  0  0  0  0  0
  186.4640  179.0500  141.5850 C   0  0  0  0  0  2  0  0  0  0  0  0
  187.7160  178.3210  141.0990 C   0  0  0  0  0  2  0  0  0  0  0  0
  187.7730  178.3400  139.5840 C   0  0  0  0  0  2  0  0  0  0  0  0
  188.9150  179.0230  139.1600 O   0  0  0  0  0  0  0  0  0  0  0  0
  188.9740  178.7920  137.7860 C   0  0  0  0  0  2  0  0  0  0  0  0
  188.8940  177.2970  137.5110 C   0  0  1  0  0  3  0  0  0  0  0  0
  187.2660  178.2270  135.8630 C   0  0  0  0  0  1  0  0  0  0  0  0
  188.1780  177.0580  136.1910 C   0  0  0  0  0  2  0  0  0  0  0  0
  190.2080  176.7530  137.4550 O   0  0  0  0  0  0  0  0  0  0  0  0
  190.5040  176.1610  139.6540 O   0  0  0  0  0  1  0  0  0  0  0  0
  191.3830  174.7320  138.0930 O   0  0  0  0  0  0  0  0  0  0  0  0
  190.6940  175.8910  138.4400 C   0  0  0  0  0  0  0  0  0  0  0  0
  1 23  1  1  0  0  0
  1  3  1  0  0  0  0
  1  4  1  0  0  0  0
  3  2  1  1  0  0  0
  4  2  1  1  0  0  0
  4  6  1  0  0  0  0
  5  6  1  0  0  0  0
  5  7  1  0  0  0  0
  6  9  1  1  0  0  0
  7 11  2  0  0  0  0
  7  8  1  0  0  0  0
  8 10  2  0  0  0  0
  9  8  1  0  0  0  0
 10 12  1  0  0  0  0
 11 13  1  0  0  0  0
 13 12  2  0  0  0  0
 14 15  1  0  0  0  0
 15 11  1  0  0  0  0
 16 17  2  0  0  0  0
 17 22  1  0  0  0  0
 17 20  1  0  0  0  0
 18 22  1  6  0  0  0
 18  3  1  0  0  0  0
 19 17  2  0  0  0  0
 20 21  1  0  0  0  0
 21 18  1  0  0  0  0
 24 23  1  0  0  0  0
 25 24  1  0  0  0  0
 26 25  1  0  0  0  0
 27 26  1  0  0  0  0
 28 30  1  6  0  0  0
 28 27  1  0  0  0  0
 29 30  1  0  0  0  0
 31 28  1  0  0  0  0
 31 34  1  0  0  0  0
 33 34  2  0  0  0  0
 34 32  1  0  0  0  0
M  END
>  <MODEL>
8

>  <REMARK>
 VINA RESULT:      -6.9      3.815      8.853
  Name = 
  12 active torsions:
  status: ('A' for Active; 'I' for Inactive)
    1  A    between atoms: C_1  and  C_4
    2  A    between atoms: C_1  and  C_30
    3  A    between atoms: O_5  and  C_10
    4  A    between atoms: O_5  and  C_24
    5  A    between atoms: C_6  and  C_21
    6  A    between atoms: C_10  and  C_30
    7  A    between atoms: C_12  and  C_16
    8  A    between atoms: O_15  and  C_28
    9  A    between atoms: C_17  and  O_19
   10  A    between atoms: C_17  and  C_24
   11  A    between atoms: C_17  and  C_31
   12  A    between atoms: O_19  and  C_32
                            x       y       z     vdW  Elec       q    Type
                         _______ _______ _______ _____ _____    ______ ____

>  <TORSDO>
F 12

$$$$
=
 OpenBabel10232409563D

 34 37  0  0  1  0  0  0  0  0999 V2000
  188.8290  177.0880  142.4760 C   0  0  2  0  0  3  0  0  0  0  0  0
  190.9510  177.4210  142.7650 N   0  0  0  0  0  2  0  0  0  0  0  0
  189.7310  177.7570  143.4960 C   0  0  2  0  0  3  0  0  0  0  0  0
  190.1370  176.7430  141.7570 C   0  0  2  0  0  3  0  0  0  0  0  0
  189.6580  176.5800  139.3510 N   0  0  0  0  0  2  0  0  0  0  0  0
  190.3440  177.3720  140.3750 C   0  0  2  0  0  3  0  0  0  0  0  0
  190.5570  176.1670  138.5250 C   0  0  0  0  0  0  0  0  0  0  0  0
  191.8160  176.5670  138.8680 C   0  0  0  0  0  0  0  0  0  0  0  0
  191.7930  177.2940  139.9700 C   0  0  0  0  0  2  0  0  0  0  0  0
  192.9160  176.2040  138.0990 C   0  0  0  0  0  3  0  0  0  0  0  0
  190.3290  175.3830  137.3930 C   0  0  0  0  0  0  0  0  0  0  0  0
  192.7050  175.4380  136.9890 N   0  0  0  0  0  0  0  0  0  0  0  0
  191.4530  175.0240  136.6220 C   0  0  0  0  0  3  0  0  0  0  0  0
  188.5670  174.9380  135.7150 C   0  0  0  0  0  1  0  0  0  0  0  0
  189.0330  174.9790  137.0570 O   0  0  0  0  0  0  0  0  0  0  0  0
  188.2690  176.3900  148.0790 O   0  0  0  0  0  0  0  0  0  0  0  0
  189.1680  177.3880  147.4020 S   0  0  0  0  0  0  0  0  0  0  0  0
  189.6740  177.0640  144.8640 C   0  0  1  0  0  3  0  0  0  0  0  0
  189.2770  178.6470  148.2120 O   0  0  0  0  0  0  0  0  0  0  0  0
  190.7560  176.7000  147.0660 C   0  0  0  0  0  2  0  0  0  0  0  0
  191.0200  177.0250  145.6050 C   0  0  0  0  0  2  0  0  0  0  0  0
  188.6360  177.7290  145.7540 C   0  0  0  0  0  2  0  0  0  0  0  0
  187.8730  178.0770  141.7800 C   0  0  0  0  0  2  0  0  0  0  0  0
  186.5410  178.3010  142.4950 C   0  0  0  0  0  2  0  0  0  0  0  0
  185.5000  178.8010  141.5120 C   0  0  0  0  0  2  0  0  0  0  0  0
  186.0720  178.9420  140.2460 O   0  0  0  0  0  0  0  0  0  0  0  0
  184.9980  178.8470  139.3610 C   0  0  0  0  0  2  0  0  0  0  0  0
  185.4580  178.2080  138.0590 C   0  0  1  0  0  3  0  0  0  0  0  0
  187.6570  178.4240  136.8970 C   0  0  0  0  0  1  0  0  0  0  0  0
  186.9480  177.9080  138.1350 C   0  0  0  0  0  2  0  0  0  0  0  0
  184.7330  177.0040  137.8370 O   0  0  0  0  0  0  0  0  0  0  0  0
  183.7830  176.0570  135.9720 O   0  0  0  0  0  0  0  0  0  0  0  0
  182.6170  177.7760  136.9420 O   0  0  0  0  0  1  0  0  0  0  0  0
  183.7140  176.9190  136.8870 C   0  0  0  0  0  0  0  0  0  0  0  0
  1 23  1  6  0  0  0
  1  3  1  0  0  0  0
  3  2  1  6  0  0  0
  3 18  1  0  0  0  0
  4  1  1  0  0  0  0
  4  2  1  1  0  0  0
  5  6  1  0  0  0  0
  6  9  1  6  0  0  0
  6  4  1  0  0  0  0
  7  8  1  0  0  0  0
  7  5  1  0  0  0  0
  8  9  1  0  0  0  0
 10  8  2  0  0  0  0
 11  7  2  0  0  0  0
 12 10  1  0  0  0  0
 13 12  2  0  0  0  0
 13 11  1  0  0  0  0
 14 15  1  0  0  0  0
 15 11  1  0  0  0  0
 17 16  2  0  0  0  0
 17 19  2  0  0  0  0
 18 21  1  1  0  0  0
 18 22  1  0  0  0  0
 20 17  1  0  0  0  0
 21 20  1  0  0  0  0
 22 17  1  0  0  0  0
 23 24  1  0  0  0  0
 25 24  1  0  0  0  0
 26 25  1  0  0  0  0
 27 26  1  0  0  0  0
 28 30  1  1  0  0  0
 28 27  1  0  0  0  0
 29 30  1  0  0  0  0
 31 28  1  0  0  0  0
 32 34  2  0  0  0  0
 34 33  1  0  0  0  0
 34 31  1  0  0  0  0
M  END
>  <MODEL>
9

>  <REMARK>
 VINA RESULT:      -6.9      2.350      4.166
  Name = 
  12 active torsions:
  status: ('A' for Active; 'I' for Inactive)
    1  A    between atoms: C_1  and  C_4
    2  A    between atoms: C_1  and  C_30
    3  A    between atoms: O_5  and  C_10
    4  A    between atoms: O_5  and  C_24
    5  A    between atoms: C_6  and  C_21
    6  A    between atoms: C_10  and  C_30
    7  A    between atoms: C_12  and  C_16
    8  A    between atoms: O_15  and  C_28
    9  A    between atoms: C_17  and  O_19
   10  A    between atoms: C_17  and  C_24
   11  A    between atoms: C_17  and  C_31
   12  A    between atoms: O_19  and  C_32
                            x       y       z     vdW  Elec       q    Type
                         _______ _______ _______ _____ _____    ______ ____

>  <TORSDO>
F 12

$$$$
