=
 OpenBabel10232408053D

 62 68  0  0  1  0  0  0  0  0999 V2000
  184.7560  178.0210  141.5330 C   0  0  1  0  0  3  0  0  0  0  0  0
  183.8160  178.1010  138.4170 N   0  0  0  0  0  0  0  0  0  0  0  0
  185.3330  178.4460  140.2440 N   0  0  0  0  0  0  0  0  0  0  0  0
  185.9640  178.4070  142.2570 C   0  0  2  0  0  3  0  0  0  0  0  0
  184.6950  179.1930  142.4890 C   0  0  2  0  0  3  0  0  0  0  0  0
  185.0100  178.3840  138.8490 C   0  0  0  0  0  0  0  0  0  0  0  0
  186.5020  178.7750  140.9860 N   0  0  0  0  0  2  0  0  0  0  0  0
  180.6220  178.5760  140.2980 N   0  0  0  0  0  0  0  0  0  0  0  0
  180.6440  177.1460  139.9860 C   0  0  0  0  0  2  0  0  0  0  0  0
  181.8380  179.1450  139.7130 C   0  0  0  0  0  3  0  0  0  0  0  0
  182.6190  177.9980  139.1960 C   0  0  0  0  0  0  0  0  0  0  0  0
  181.9290  176.8930  139.3030 C   0  0  0  0  0  0  0  0  0  0  0  0
  182.3370  175.5760  138.7230 C   0  0  0  0  0  2  0  0  0  0  0  0
  181.1670  176.3070  136.8040 O   0  0  0  0  0  0  0  0  0  0  0  0
  181.7900  175.4000  137.3340 C   0  0  0  0  0  0  0  0  0  0  0  0
  181.5760  171.0600  136.2550 N   0  0  0  0  0  2  0  0  0  0  0  0
  184.0480  172.7890  135.9230 C   0  0  0  0  0  2  0  0  0  0  0  0
  184.0140  171.2790  136.0900 C   0  0  1  0  0  3  0  0  0  0  0  0
  183.3270  173.4790  137.0620 C   0  0  0  0  0  2  0  0  0  0  0  0
  182.0610  174.1550  136.5520 C   0  0  1  0  0  3  0  0  0  0  0  0
  180.8650  173.2140  136.6130 C   0  0  0  0  0  2  0  0  0  0  0  0
  180.9930  172.1660  135.6140 N   0  0  0  0  0  2  0  0  0  0  0  0
  182.7460  170.6820  135.4770 C   0  0  1  0  0  3  0  0  0  0  0  0
  185.1340  170.7490  135.4750 F   0  0  0  0  0  0  0  0  0  0  0  0
  183.6420  168.5630  136.1530 O   0  0  0  0  0  1  0  0  0  0  0  0
  182.0210  168.4920  134.5340 O   0  0  0  0  0  0  0  0  0  0  0  0
  182.8330  169.1900  135.4170 C   0  0  0  0  0  0  0  0  0  0  0  0
  184.0860  178.7690  143.7390 N   0  0  0  0  0  2  0  0  0  0  0  0
  184.7570  179.4800  144.8190 C   0  0  0  0  0  2  0  0  0  0  0  0
  184.5610  178.5950  147.0260 O   0  0  0  0  0  0  0  0  0  0  0  0
  185.1360  178.5290  145.9020 C   0  0  0  0  0  0  0  0  0  0  0  0
  186.1090  177.5590  145.6470 O   0  0  0  0  0  0  0  0  0  0  0  0
  187.2590  177.4010  146.4690 C   0  0  0  0  0  2  0  0  0  0  0  0
  188.3300  178.1030  145.9210 O   0  0  0  0  0  0  0  0  0  0  0  0
  189.2560  177.1520  145.6530 N   0  0  0  0  0  2  0  0  0  0  0  0
  190.5640  177.4920  142.8130 C   0  0  1  0  0  3  0  0  0  0  0  0
  190.4010  178.5060  143.9600 C   0  0  2  0  0  3  0  0  0  0  0  0
  191.6850  176.0930  146.5980 N   0  0  0  0  0  1  0  0  0  0  0  0
  191.3780  179.4990  143.8500 O   0  0  0  0  0  1  0  0  0  0  0  0
  191.5990  175.9270  144.1600 C   0  0  0  0  0  2  0  0  0  0  0  0
  191.7040  176.6620  142.9610 O   0  0  0  0  0  0  0  0  0  0  0  0
  190.5030  177.8380  145.3370 C   0  0  2  0  0  3  0  0  0  0  0  0
  191.6810  176.8620  145.3640 C   0  0  1  0  0  3  0  0  0  0  0  0
  189.2910  176.7000  142.5340 C   0  0  0  0  0  1  0  0  0  0  0  0
  186.1170  178.4970  137.8590 C   0  0  0  0  0  2  0  0  0  0  0  0
  185.8150  177.6260  136.6550 C   0  0  0  0  0  2  0  0  0  0  0  0
  189.4460  173.5330  137.0100 N   0  0  0  0  0  0  0  0  0  0  0  0
  188.1870  173.2420  136.8740 C   0  0  0  0  0  0  0  0  0  0  0  0
  188.3020  176.1560  136.1540 C   0  0  0  0  0  3  0  0  0  0  0  0
  187.8080  171.8360  136.5700 C   0  0  0  0  0  1  0  0  0  0  0  0
  185.9470  176.2260  137.0160 N   0  0  0  0  0  2  0  0  0  0  0  0
  187.1390  174.2070  137.0720 N   0  0  0  0  0  0  0  0  0  0  0  0
  189.9550  174.8380  137.4260 C   0  0  2  0  0  3  0  0  0  0  0  0
  187.1470  175.4810  136.7930 C   0  0  0  0  0  0  0  0  0  0  0  0
  189.5740  175.8620  136.4030 C   0  0  0  0  0  3  0  0  0  0  0  0
  191.9580  176.1130  137.2510 C   0  0  0  0  0  2  0  0  0  0  0  0
  191.9520  173.8650  136.6010 C   0  0  0  0  0  2  0  0  0  0  0  0
  194.2430  174.5690  136.8250 O   0  0  0  0  0  0  0  0  0  0  0  0
  191.4120  174.7980  137.5930 N   0  0  2  0  0  0  0  0  0  0  0  0
  193.2380  176.4010  138.0430 C   0  0  0  0  0  2  0  0  0  0  0  0
  194.2050  175.2120  138.0690 C   0  0  0  0  0  2  0  0  0  0  0  0
  193.3840  173.4700  136.9550 C   0  0  0  0  0  2  0  0  0  0  0  0
  1  3  1  6  0  0  0
  1  4  1  0  0  0  0
  1  5  1  0  0  0  0
  2  6  2  0  0  0  0
  2 11  1  0  0  0  0
  3  7  1  0  0  0  0
  4  7  1  6  0  0  0
  4  5  1  0  0  0  0
  5 28  1  1  0  0  0
  6  3  1  0  0  0  0
  9  8  1  0  0  0  0
 10  8  2  0  0  0  0
 11 12  2  0  0  0  0
 11 10  1  0  0  0  0
 12  9  1  0  0  0  0
 13 12  1  0  0  0  0
 14 15  2  0  0  0  0
 15 13  1  0  0  0  0
 17 18  1  0  0  0  0
 17 19  1  0  0  0  0
 18 24  1  6  0  0  0
 20 21  1  0  0  0  0
 20 19  1  0  0  0  0
 20 15  1  1  0  0  0
 22 16  1  0  0  0  0
 22 21  1  0  0  0  0
 23 27  1  1  0  0  0
 23 18  1  0  0  0  0
 23 16  1  0  0  0  0
 26 27  2  0  0  0  0
 27 25  1  0  0  0  0
 28 29  1  0  0  0  0
 29 31  1  0  0  0  0
 31 30  2  0  0  0  0
 32 31  1  0  0  0  0
 32 33  1  0  0  0  0
 34 33  1  0  0  0  0
 35 34  1  0  0  0  0
 36 44  1  1  0  0  0
 36 41  1  0  0  0  0
 36 37  1  0  0  0  0
 37 39  1  1  0  0  0
 37 42  1  0  0  0  0
 40 43  1  0  0  0  0
 41 40  1  0  0  0  0
 42 43  1  0  0  0  0
 42 35  1  6  0  0  0
 43 38  1  1  0  0  0
 45  6  1  0  0  0  0
 46 51  1  0  0  0  0
 46 45  1  0  0  0  0
 47 53  1  0  0  0  0
 48 47  2  0  0  0  0
 48 52  1  0  0  0  0
 49 55  2  0  0  0  0
 49 54  1  0  0  0  0
 50 48  1  0  0  0  0
 53 55  1  6  0  0  0
 53 59  1  0  0  0  0
 54 51  1  0  0  0  0
 54 52  2  0  0  0  0
 56 59  1  0  0  0  0
 56 60  1  0  0  0  0
 57 62  1  0  0  0  0
 58 62  1  0  0  0  0
 58 61  1  0  0  0  0
 59 57  1  6  0  0  0
 60 61  1  0  0  0  0
M  END
>  <MODEL>
1

>  <REMARK>
 VINA RESULT:      -8.2      0.000      0.000
  Name = 
  17 active torsions:
  status: ('A' for Active; 'I' for Inactive)
    1  A    between atoms: C_2  and  N_37
    2  A    between atoms: C_2  and  C_50
    3  A    between atoms: C_5  and  N_18
    4  A    between atoms: C_5  and  C_27
    5  A    between atoms: N_17  and  C_41
    6  A    between atoms: C_22  and  C_33
    7  A    between atoms: C_22  and  C_36
    8  A    between atoms: N_24  and  C_48
    9  A    between atoms: N_24  and  O_53
   10  A    between atoms: C_27  and  C_55
   11  A    between atoms: C_31  and  N_44
   12  A    between atoms: C_33  and  C_57
   13  A    between atoms: N_37  and  C_54
   14  A    between atoms: C_45  and  O_47
   15  A    between atoms: C_45  and  O_53
   16  A    between atoms: O_47  and  C_50
   17  A    between atoms: C_56  and  C_61
                            x       y       z     vdW  Elec       q    Type
                         _______ _______ _______ _____ _____    ______ ____

>  <TORSDO>
F 17

$$$$
=
 OpenBabel10232408053D

 62 68  0  0  1  0  0  0  0  0999 V2000
  189.7960  174.3700  136.1610 C   0  0  1  0  0  3  0  0  0  0  0  0
  190.3570  177.5190  136.7680 N   0  0  0  0  0  0  0  0  0  0  0  0
  189.3590  175.6680  135.6140 N   0  0  0  0  0  0  0  0  0  0  0  0
  188.9810  173.6330  135.1990 C   0  0  2  0  0  3  0  0  0  0  0  0
  190.4850  173.5560  135.0870 C   0  0  2  0  0  3  0  0  0  0  0  0
  189.4780  177.0610  135.9250 C   0  0  0  0  0  0  0  0  0  0  0  0
  188.5530  174.9080  134.7180 N   0  0  0  0  0  2  0  0  0  0  0  0
  193.4830  175.6550  137.6180 N   0  0  0  0  0  0  0  0  0  0  0  0
  193.0350  176.2050  138.8990 C   0  0  0  0  0  2  0  0  0  0  0  0
  192.5180  176.1090  136.6140 C   0  0  0  0  0  3  0  0  0  0  0  0
  191.4410  176.7960  137.3620 C   0  0  0  0  0  0  0  0  0  0  0  0
  191.7550  176.8920  138.6270 C   0  0  0  0  0  0  0  0  0  0  0  0
  190.9820  177.6780  139.6380 C   0  0  0  0  0  2  0  0  0  0  0  0
  189.0600  176.3040  139.5510 O   0  0  0  0  0  0  0  0  0  0  0  0
  189.8960  176.8450  140.2600 C   0  0  0  0  0  0  0  0  0  0  0  0
  188.6530  177.4100  144.5230 N   0  0  0  0  0  2  0  0  0  0  0  0
  191.4660  176.6920  143.6390 C   0  0  0  0  0  2  0  0  0  0  0  0
  191.0720  177.3960  144.9270 C   0  0  1  0  0  3  0  0  0  0  0  0
  190.9300  177.4320  142.4300 C   0  0  0  0  0  2  0  0  0  0  0  0
  189.8620  176.5990  141.7340 C   0  0  1  0  0  3  0  0  0  0  0  0
  188.4760  176.8920  142.2930 C   0  0  0  0  0  2  0  0  0  0  0  0
  188.3500  176.3600  143.6400 N   0  0  0  0  0  2  0  0  0  0  0  0
  189.6980  176.9320  145.4140 C   0  0  1  0  0  3  0  0  0  0  0  0
  192.0340  177.1200  145.8830 F   0  0  0  0  0  0  0  0  0  0  0  0
  188.3530  178.0310  147.0670 O   0  0  0  0  0  0  0  0  0  0  0  0
  190.3740  177.2310  147.7940 O   0  0  0  0  0  1  0  0  0  0  0  0
  189.4270  177.4280  146.7990 C   0  0  0  0  0  0  0  0  0  0  0  0
  190.9470  172.2980  135.6520 N   0  0  0  0  0  2  0  0  0  0  0  0
  191.7710  171.6410  134.6470 C   0  0  0  0  0  2  0  0  0  0  0  0
  192.7530  169.6410  135.4990 O   0  0  0  0  0  0  0  0  0  0  0  0
  192.8750  170.8830  135.3030 C   0  0  0  0  0  0  0  0  0  0  0  0
  194.0410  171.5600  135.6680 O   0  0  0  0  0  0  0  0  0  0  0  0
  194.2630  172.9250  135.3380 C   0  0  0  0  0  2  0  0  0  0  0  0
  195.4770  173.0560  134.6660 O   0  0  0  0  0  0  0  0  0  0  0  0
  196.4150  172.9440  135.6360 N   0  0  0  0  0  2  0  0  0  0  0  0
  198.9380  174.8110  135.8380 C   0  0  1  0  0  3  0  0  0  0  0  0
  197.4650  175.1580  135.5510 C   0  0  2  0  0  3  0  0  0  0  0  0
  196.1590  173.0610  138.4350 N   0  0  0  0  0  1  0  0  0  0  0  0
  197.2190  176.4850  135.9080 O   0  0  0  0  0  1  0  0  0  0  0  0
  198.4340  173.6730  137.7840 C   0  0  0  0  0  2  0  0  0  0  0  0
  199.2240  174.6980  137.2220 O   0  0  0  0  0  0  0  0  0  0  0  0
  196.5000  174.2360  136.3070 C   0  0  2  0  0  3  0  0  0  0  0  0
  196.9590  174.0660  137.7560 C   0  0  1  0  0  3  0  0  0  0  0  0
  199.4350  173.6140  135.0340 C   0  0  0  0  0  1  0  0  0  0  0  0
  188.4590  178.0010  135.3790 C   0  0  0  0  0  2  0  0  0  0  0  0
  187.7400  178.6900  136.5220 C   0  0  0  0  0  2  0  0  0  0  0  0
  183.5270  177.5190  139.8310 N   0  0  0  0  0  0  0  0  0  0  0  0
  183.5180  177.0530  138.6190 C   0  0  0  0  0  0  0  0  0  0  0  0
  186.3670  177.9280  138.9990 C   0  0  0  0  0  3  0  0  0  0  0  0
  182.5050  176.0250  138.2560 C   0  0  0  0  0  1  0  0  0  0  0  0
  186.3370  178.3130  136.5190 N   0  0  0  0  0  2  0  0  0  0  0  0
  184.4010  177.5370  137.5910 N   0  0  0  0  0  0  0  0  0  0  0  0
  184.3800  178.6120  140.2920 C   0  0  2  0  0  3  0  0  0  0  0  0
  185.6350  177.9430  137.7090 C   0  0  0  0  0  0  0  0  0  0  0  0
  185.8140  178.1980  140.1760 C   0  0  0  0  0  3  0  0  0  0  0  0
  184.9020  178.1740  142.5740 C   0  0  0  0  0  2  0  0  0  0  0  0
  182.6810  178.5550  141.9430 C   0  0  0  0  0  2  0  0  0  0  0  0
  182.8210  178.7560  144.3380 O   0  0  0  0  0  0  0  0  0  0  0  0
  184.0610  178.9710  141.6790 N   0  0  2  0  0  0  0  0  0  0  0  0
  185.1890  178.9270  143.8770 C   0  0  0  0  0  2  0  0  0  0  0  0
  183.9410  179.5880  144.4720 C   0  0  0  0  0  2  0  0  0  0  0  0
  182.1470  179.2300  143.2050 C   0  0  0  0  0  2  0  0  0  0  0  0
  1  3  1  6  0  0  0
  2 11  1  0  0  0  0
  3  6  1  0  0  0  0
  4  7  1  6  0  0  0
  4  1  1  0  0  0  0
  5  4  1  0  0  0  0
  5 28  1  1  0  0  0
  5  1  1  0  0  0  0
  6  2  2  0  0  0  0
  7  3  1  0  0  0  0
  8  9  1  0  0  0  0
 10 11  1  0  0  0  0
 10  8  2  0  0  0  0
 11 12  2  0  0  0  0
 12  9  1  0  0  0  0
 12 13  1  0  0  0  0
 13 15  1  0  0  0  0
 14 15  2  0  0  0  0
 16 23  1  0  0  0  0
 17 18  1  0  0  0  0
 18 23  1  0  0  0  0
 18 24  1  1  0  0  0
 19 17  1  0  0  0  0
 20 15  1  6  0  0  0
 20 21  1  0  0  0  0
 20 19  1  0  0  0  0
 21 22  1  0  0  0  0
 22 16  1  0  0  0  0
 23 27  1  1  0  0  0
 27 25  2  0  0  0  0
 27 26  1  0  0  0  0
 29 31  1  0  0  0  0
 29 28  1  0  0  0  0
 31 30  2  0  0  0  0
 31 32  1  0  0  0  0
 33 32  1  0  0  0  0
 34 33  1  0  0  0  0
 34 35  1  0  0  0  0
 36 44  1  6  0  0  0
 36 41  1  0  0  0  0
 37 36  1  0  0  0  0
 37 39  1  1  0  0  0
 37 42  1  0  0  0  0
 41 40  1  0  0  0  0
 42 35  1  6  0  0  0
 42 43  1  0  0  0  0
 43 40  1  0  0  0  0
 43 38  1  6  0  0  0
 45  6  1  0  0  0  0
 45 46  1  0  0  0  0
 47 53  1  0  0  0  0
 48 47  2  0  0  0  0
 49 55  2  0  0  0  0
 50 48  1  0  0  0  0
 51 46  1  0  0  0  0
 51 54  1  0  0  0  0
 52 54  2  0  0  0  0
 52 48  1  0  0  0  0
 53 55  1  1  0  0  0
 53 59  1  0  0  0  0
 54 49  1  0  0  0  0
 56 60  1  0  0  0  0
 57 62  1  0  0  0  0
 58 61  1  0  0  0  0
 59 57  1  1  0  0  0
 59 56  1  0  0  0  0
 60 61  1  0  0  0  0
 62 58  1  0  0  0  0
M  END
>  <MODEL>
2

>  <REMARK>
 VINA RESULT:      -6.9      3.898     10.889
  Name = 
  17 active torsions:
  status: ('A' for Active; 'I' for Inactive)
    1  A    between atoms: C_2  and  N_37
    2  A    between atoms: C_2  and  C_50
    3  A    between atoms: C_5  and  N_18
    4  A    between atoms: C_5  and  C_27
    5  A    between atoms: N_17  and  C_41
    6  A    between atoms: C_22  and  C_33
    7  A    between atoms: C_22  and  C_36
    8  A    between atoms: N_24  and  C_48
    9  A    between atoms: N_24  and  O_53
   10  A    between atoms: C_27  and  C_55
   11  A    between atoms: C_31  and  N_44
   12  A    between atoms: C_33  and  C_57
   13  A    between atoms: N_37  and  C_54
   14  A    between atoms: C_45  and  O_47
   15  A    between atoms: C_45  and  O_53
   16  A    between atoms: O_47  and  C_50
   17  A    between atoms: C_56  and  C_61
                            x       y       z     vdW  Elec       q    Type
                         _______ _______ _______ _____ _____    ______ ____

>  <TORSDO>
F 17

$$$$
=
 OpenBabel10232408053D

 62 68  0  0  1  0  0  0  0  0999 V2000
  184.3360  179.5190  139.7860 C   0  0  1  0  0  3  0  0  0  0  0  0
  186.0650  178.4560  142.3320 N   0  0  0  0  0  0  0  0  0  0  0  0
  185.5970  178.7840  140.0020 N   0  0  0  0  0  0  0  0  0  0  0  0
  184.4930  179.4610  138.3350 C   0  0  2  0  0  3  0  0  0  0  0  0
  183.3730  178.6760  138.9770 C   0  0  2  0  0  3  0  0  0  0  0  0
  186.4500  178.4090  141.0900 C   0  0  0  0  0  0  0  0  0  0  0  0
  185.7250  178.7830  138.5840 N   0  0  0  0  0  2  0  0  0  0  0  0
  182.4140  178.4690  143.1340 N   0  0  0  0  0  0  0  0  0  0  0  0
  183.0370  179.1110  144.2930 C   0  0  0  0  0  2  0  0  0  0  0  0
  183.5050  178.1070  142.2260 C   0  0  0  0  0  3  0  0  0  0  0  0
  184.7360  178.6830  142.8150 C   0  0  0  0  0  0  0  0  0  0  0  0
  184.4810  179.1980  143.9900 C   0  0  0  0  0  0  0  0  0  0  0  0
  185.5180  179.7070  144.9390 C   0  0  0  0  0  2  0  0  0  0  0  0
  184.6910  178.8070  146.9620 O   0  0  0  0  0  0  0  0  0  0  0  0
  185.6130  178.8360  146.1600 C   0  0  0  0  0  0  0  0  0  0  0  0
  189.5660  177.5130  147.7910 N   0  0  0  0  0  2  0  0  0  0  0  0
  188.5810  176.9080  144.9860 C   0  0  0  0  0  2  0  0  0  0  0  0
  190.0290  176.9760  145.4430 C   0  0  1  0  0  3  0  0  0  0  0  0
  187.8460  178.1920  145.3120 C   0  0  0  0  0  2  0  0  0  0  0  0
  186.7880  177.9380  146.3760 C   0  0  1  0  0  3  0  0  0  0  0  0
  187.3520  178.1250  147.7790 C   0  0  0  0  0  2  0  0  0  0  0  0
  188.2760  177.0500  148.1010 N   0  0  0  0  0  2  0  0  0  0  0  0
  190.1700  176.5350  146.9010 C   0  0  1  0  0  3  0  0  0  0  0  0
  190.7820  176.1560  144.6230 F   0  0  0  0  0  0  0  0  0  0  0  0
  192.1300  177.0590  148.1790 O   0  0  0  0  0  1  0  0  0  0  0  0
  192.3800  175.4240  146.5920 O   0  0  0  0  0  0  0  0  0  0  0  0
  191.6090  176.3600  147.2680 C   0  0  0  0  0  0  0  0  0  0  0  0
  182.1210  179.3960  138.8090 N   0  0  0  0  0  2  0  0  0  0  0  0
  181.7360  179.2860  137.4090 C   0  0  0  0  0  2  0  0  0  0  0  0
  180.9350  177.0420  137.5300 O   0  0  0  0  0  0  0  0  0  0  0  0
  181.7340  177.8570  136.9860 C   0  0  0  0  0  0  0  0  0  0  0  0
  182.6030  177.4460  135.9730 O   0  0  0  0  0  0  0  0  0  0  0  0
  183.2110  176.1600  135.9680 C   0  0  0  0  0  2  0  0  0  0  0  0
  182.4040  175.2600  135.2760 O   0  0  0  0  0  0  0  0  0  0  0  0
  183.1660  174.1470  135.1540 N   0  0  0  0  0  2  0  0  0  0  0  0
  184.8210  171.5910  135.9420 C   0  0  1  0  0  3  0  0  0  0  0  0
  184.7470  172.9740  136.6150 C   0  0  2  0  0  3  0  0  0  0  0  0
  180.9520  173.0840  136.5250 N   0  0  0  0  0  1  0  0  0  0  0  0
  185.0900  172.8580  137.9630 O   0  0  0  0  0  1  0  0  0  0  0  0
  182.5300  171.2970  135.9840 C   0  0  0  0  0  2  0  0  0  0  0  0
  183.7700  170.7240  136.3360 O   0  0  0  0  0  0  0  0  0  0  0  0
  183.3520  173.6000  136.4920 C   0  0  2  0  0  3  0  0  0  0  0  0
  182.2770  172.5580  136.8060 C   0  0  1  0  0  3  0  0  0  0  0  0
  184.9790  171.6740  134.4270 C   0  0  0  0  0  1  0  0  0  0  0  0
  187.8780  178.1030  140.8000 C   0  0  0  0  0  2  0  0  0  0  0  0
  188.1080  178.1180  139.3010 C   0  0  0  0  0  2  0  0  0  0  0  0
  190.8110  174.4400  136.2620 N   0  0  0  0  0  0  0  0  0  0  0  0
  189.5200  174.3360  136.3680 C   0  0  0  0  0  0  0  0  0  0  0  0
  190.0720  177.1150  137.3680 C   0  0  0  0  0  3  0  0  0  0  0  0
  188.8030  173.3900  135.4710 C   0  0  0  0  0  1  0  0  0  0  0  0
  188.0240  176.7670  138.7770 N   0  0  0  0  0  2  0  0  0  0  0  0
  188.7590  175.0470  137.3620 N   0  0  0  0  0  0  0  0  0  0  0  0
  191.6540  175.2330  137.1540 C   0  0  2  0  0  3  0  0  0  0  0  0
  188.9690  176.2430  137.8390 C   0  0  0  0  0  0  0  0  0  0  0  0
  191.2790  176.6770  137.0270 C   0  0  0  0  0  3  0  0  0  0  0  0
  193.8510  175.1520  138.0670 C   0  0  0  0  0  2  0  0  0  0  0  0
  193.4950  176.1620  135.9870 C   0  0  0  0  0  2  0  0  0  0  0  0
  195.8590  175.7740  136.2330 O   0  0  0  0  0  0  0  0  0  0  0  0
  193.0730  175.0430  136.8320 N   0  0  2  0  0  0  0  0  0  0  0  0
  195.1200  174.2950  137.9970 C   0  0  0  0  0  2  0  0  0  0  0  0
  195.8670  174.4420  136.6670 C   0  0  0  0  0  2  0  0  0  0  0  0
  194.8200  175.8460  135.2950 C   0  0  0  0  0  2  0  0  0  0  0  0
  1  3  1  1  0  0  0
  2 11  1  0  0  0  0
  3  6  1  0  0  0  0
  4  7  1  1  0  0  0
  4  5  1  0  0  0  0
  4  1  1  0  0  0  0
  5 28  1  6  0  0  0
  5  1  1  0  0  0  0
  6  2  2  0  0  0  0
  7  3  1  0  0  0  0
  8  9  1  0  0  0  0
 10 11  1  0  0  0  0
 10  8  2  0  0  0  0
 11 12  2  0  0  0  0
 12  9  1  0  0  0  0
 12 13  1  0  0  0  0
 13 15  1  0  0  0  0
 15 14  2  0  0  0  0
 16 22  1  0  0  0  0
 17 19  1  0  0  0  0
 17 18  1  0  0  0  0
 18 24  1  6  0  0  0
 18 23  1  0  0  0  0
 19 20  1  0  0  0  0
 20 15  1  6  0  0  0
 20 21  1  0  0  0  0
 21 22  1  0  0  0  0
 23 27  1  1  0  0  0
 23 16  1  0  0  0  0
 26 27  2  0  0  0  0
 27 25  1  0  0  0  0
 29 28  1  0  0  0  0
 31 29  1  0  0  0  0
 31 30  2  0  0  0  0
 32 31  1  0  0  0  0
 33 32  1  0  0  0  0
 34 33  1  0  0  0  0
 35 34  1  0  0  0  0
 36 44  1  6  0  0  0
 36 41  1  0  0  0  0
 36 37  1  0  0  0  0
 37 39  1  1  0  0  0
 40 41  1  0  0  0  0
 40 43  1  0  0  0  0
 42 35  1  6  0  0  0
 42 37  1  0  0  0  0
 42 43  1  0  0  0  0
 43 38  1  6  0  0  0
 45  6  1  0  0  0  0
 46 45  1  0  0  0  0
 47 48  2  0  0  0  0
 47 53  1  0  0  0  0
 48 52  1  0  0  0  0
 49 54  1  0  0  0  0
 50 48  1  0  0  0  0
 51 46  1  0  0  0  0
 52 54  2  0  0  0  0
 53 55  1  6  0  0  0
 54 51  1  0  0  0  0
 55 49  2  0  0  0  0
 58 61  1  0  0  0  0
 59 57  1  6  0  0  0
 59 53  1  0  0  0  0
 59 56  1  0  0  0  0
 60 56  1  0  0  0  0
 61 60  1  0  0  0  0
 62 57  1  0  0  0  0
 62 58  1  0  0  0  0
M  END
>  <MODEL>
3

>  <REMARK>
 VINA RESULT:      -6.6      2.531      9.107
  Name = 
  17 active torsions:
  status: ('A' for Active; 'I' for Inactive)
    1  A    between atoms: C_2  and  N_37
    2  A    between atoms: C_2  and  C_50
    3  A    between atoms: C_5  and  N_18
    4  A    between atoms: C_5  and  C_27
    5  A    between atoms: N_17  and  C_41
    6  A    between atoms: C_22  and  C_33
    7  A    between atoms: C_22  and  C_36
    8  A    between atoms: N_24  and  C_48
    9  A    between atoms: N_24  and  O_53
   10  A    between atoms: C_27  and  C_55
   11  A    between atoms: C_31  and  N_44
   12  A    between atoms: C_33  and  C_57
   13  A    between atoms: N_37  and  C_54
   14  A    between atoms: C_45  and  O_47
   15  A    between atoms: C_45  and  O_53
   16  A    between atoms: O_47  and  C_50
   17  A    between atoms: C_56  and  C_61
                            x       y       z     vdW  Elec       q    Type
                         _______ _______ _______ _____ _____    ______ ____

>  <TORSDO>
F 17

$$$$
=
 OpenBabel10232408053D

 62 68  0  0  1  0  0  0  0  0999 V2000
  188.7440  174.7460  135.6180 C   0  0  1  0  0  3  0  0  0  0  0  0
  190.4420  177.3180  136.6680 N   0  0  0  0  0  0  0  0  0  0  0  0
  190.1590  175.0690  135.8830 N   0  0  0  0  0  0  0  0  0  0  0  0
  189.0800  173.3870  135.2040 C   0  0  2  0  0  3  0  0  0  0  0  0
  188.3030  173.5850  136.4830 C   0  0  2  0  0  3  0  0  0  0  0  0
  190.9570  176.2100  136.2200 C   0  0  0  0  0  0  0  0  0  0  0  0
  190.4430  173.7460  135.4380 N   0  0  0  0  0  2  0  0  0  0  0  0
  186.7370  177.4370  137.1440 N   0  0  0  0  0  0  0  0  0  0  0  0
  187.2780  177.7620  138.4650 C   0  0  0  0  0  2  0  0  0  0  0  0
  187.8900  177.1990  136.2730 C   0  0  0  0  0  3  0  0  0  0  0  0
  189.0870  177.5370  137.0760 C   0  0  0  0  0  0  0  0  0  0  0  0
  188.7470  177.8010  138.3110 C   0  0  0  0  0  0  0  0  0  0  0  0
  189.7130  178.0100  139.4340 C   0  0  0  0  0  2  0  0  0  0  0  0
  190.5260  175.7900  139.4070 O   0  0  0  0  0  0  0  0  0  0  0  0
  190.0820  176.7050  140.0830 C   0  0  0  0  0  0  0  0  0  0  0  0
  188.6600  177.4630  144.2600 N   0  0  0  0  0  2  0  0  0  0  0  0
  191.5120  176.7310  143.5280 C   0  0  0  0  0  2  0  0  0  0  0  0
  191.0600  177.4920  144.7630 C   0  0  1  0  0  3  0  0  0  0  0  0
  191.0210  177.4060  142.2630 C   0  0  0  0  0  2  0  0  0  0  0  0
  189.9890  176.5300  141.5650 C   0  0  1  0  0  3  0  0  0  0  0  0
  188.5790  176.8360  142.0520 C   0  0  0  0  0  2  0  0  0  0  0  0
  188.4020  176.3690  143.4170 N   0  0  0  0  0  2  0  0  0  0  0  0
  189.6710  177.0390  145.2150 C   0  0  1  0  0  3  0  0  0  0  0  0
  191.9830  177.2720  145.7700 F   0  0  0  0  0  0  0  0  0  0  0  0
  188.3570  178.3740  146.7110 O   0  0  0  0  0  0  0  0  0  0  0  0
  190.1270  177.2670  147.6550 O   0  0  0  0  0  1  0  0  0  0  0  0
  189.3390  177.5990  146.5620 C   0  0  0  0  0  0  0  0  0  0  0  0
  186.8960  173.3060  136.2420 N   0  0  0  0  0  2  0  0  0  0  0  0
  186.3260  172.8130  137.4880 C   0  0  0  0  0  2  0  0  0  0  0  0
  184.0330  172.1600  137.5850 O   0  0  0  0  0  0  0  0  0  0  0  0
  184.8660  173.1100  137.5370 C   0  0  0  0  0  0  0  0  0  0  0  0
  184.4420  174.4410  137.5550 O   0  0  0  0  0  0  0  0  0  0  0  0
  183.0680  174.8000  137.6180 C   0  0  0  0  0  2  0  0  0  0  0  0
  182.9050  176.1170  137.1920 O   0  0  0  0  0  0  0  0  0  0  0  0
  182.6530  176.8110  138.3270 N   0  0  0  0  0  2  0  0  0  0  0  0
  182.4300  179.2280  140.3270 C   0  0  1  0  0  3  0  0  0  0  0  0
  183.6190  178.7510  139.4720 C   0  0  2  0  0  3  0  0  0  0  0  0
  181.5310  178.4270  136.3160 N   0  0  0  0  0  1  0  0  0  0  0  0
  184.4880  179.8200  139.2420 O   0  0  0  0  0  1  0  0  0  0  0  0
  181.0010  179.3520  138.5160 C   0  0  0  0  0  2  0  0  0  0  0  0
  181.5300  180.0610  139.6140 O   0  0  0  0  0  0  0  0  0  0  0  0
  183.1640  178.1630  138.1310 C   0  0  2  0  0  3  0  0  0  0  0  0
  182.0980  179.0580  137.4970 C   0  0  1  0  0  3  0  0  0  0  0  0
  181.7250  178.0880  141.0550 C   0  0  0  0  0  1  0  0  0  0  0  0
  192.4110  176.1790  135.9020 C   0  0  0  0  0  2  0  0  0  0  0  0
  193.2120  176.0880  137.1850 C   0  0  0  0  0  2  0  0  0  0  0  0
  197.5820  172.7870  137.4610 N   0  0  0  0  0  0  0  0  0  0  0  0
  197.7710  174.0720  137.4130 C   0  0  0  0  0  0  0  0  0  0  0  0
  194.8530  173.8290  138.0830 C   0  0  0  0  0  3  0  0  0  0  0  0
  199.1330  174.6040  137.6850 C   0  0  0  0  0  1  0  0  0  0  0  0
  194.6300  176.0180  136.8760 N   0  0  0  0  0  2  0  0  0  0  0  0
  196.7350  174.9980  137.0410 N   0  0  0  0  0  0  0  0  0  0  0  0
  196.3340  172.1190  137.0990 C   0  0  2  0  0  3  0  0  0  0  0  0
  195.4570  174.9280  137.2920 C   0  0  0  0  0  0  0  0  0  0  0  0
  195.2520  172.5630  138.0330 C   0  0  0  0  0  3  0  0  0  0  0  0
  197.9120  170.3490  137.3190 C   0  0  0  0  0  2  0  0  0  0  0  0
  196.1070  170.1200  135.8460 C   0  0  0  0  0  2  0  0  0  0  0  0
  197.0660  167.9400  136.1950 O   0  0  0  0  0  0  0  0  0  0  0  0
  196.4910  170.6610  137.1530 N   0  0  2  0  0  0  0  0  0  0  0  0
  198.1020  169.0350  138.0850 C   0  0  0  0  0  2  0  0  0  0  0  0
  197.1790  167.9160  137.5910 C   0  0  0  0  0  2  0  0  0  0  0  0
  195.8650  168.6150  135.9360 C   0  0  0  0  0  2  0  0  0  0  0  0
  1  3  1  1  0  0  0
  1  5  1  0  0  0  0
  2 11  1  0  0  0  0
  3  6  1  0  0  0  0
  4  7  1  1  0  0  0
  4  1  1  0  0  0  0
  4  5  1  0  0  0  0
  5 28  1  6  0  0  0
  6  2  2  0  0  0  0
  7  3  1  0  0  0  0
  8  9  1  0  0  0  0
 10 11  1  0  0  0  0
 10  8  2  0  0  0  0
 11 12  2  0  0  0  0
 12  9  1  0  0  0  0
 12 13  1  0  0  0  0
 13 15  1  0  0  0  0
 14 15  2  0  0  0  0
 16 23  1  0  0  0  0
 17 18  1  0  0  0  0
 18 23  1  0  0  0  0
 18 24  1  1  0  0  0
 19 17  1  0  0  0  0
 20 15  1  6  0  0  0
 20 21  1  0  0  0  0
 20 19  1  0  0  0  0
 21 22  1  0  0  0  0
 22 16  1  0  0  0  0
 23 27  1  1  0  0  0
 27 25  2  0  0  0  0
 27 26  1  0  0  0  0
 28 29  1  0  0  0  0
 29 31  1  0  0  0  0
 31 32  1  0  0  0  0
 31 30  2  0  0  0  0
 32 33  1  0  0  0  0
 34 33  1  0  0  0  0
 34 35  1  0  0  0  0
 36 44  1  6  0  0  0
 37 39  1  6  0  0  0
 37 36  1  0  0  0  0
 40 41  1  0  0  0  0
 41 36  1  0  0  0  0
 42 35  1  1  0  0  0
 42 37  1  0  0  0  0
 43 38  1  6  0  0  0
 43 42  1  0  0  0  0
 43 40  1  0  0  0  0
 45  6  1  0  0  0  0
 45 46  1  0  0  0  0
 48 47  2  0  0  0  0
 48 50  1  0  0  0  0
 51 46  1  0  0  0  0
 51 54  1  0  0  0  0
 52 54  2  0  0  0  0
 52 48  1  0  0  0  0
 53 59  1  0  0  0  0
 53 47  1  0  0  0  0
 53 55  1  1  0  0  0
 54 49  1  0  0  0  0
 55 49  2  0  0  0  0
 56 60  1  0  0  0  0
 57 62  1  0  0  0  0
 58 61  1  0  0  0  0
 59 57  1  6  0  0  0
 59 56  1  0  0  0  0
 61 60  1  0  0  0  0
 62 58  1  0  0  0  0
M  END
>  <MODEL>
4

>  <REMARK>
 VINA RESULT:      -6.3      3.651      9.805
  Name = 
  17 active torsions:
  status: ('A' for Active; 'I' for Inactive)
    1  A    between atoms: C_2  and  N_37
    2  A    between atoms: C_2  and  C_50
    3  A    between atoms: C_5  and  N_18
    4  A    between atoms: C_5  and  C_27
    5  A    between atoms: N_17  and  C_41
    6  A    between atoms: C_22  and  C_33
    7  A    between atoms: C_22  and  C_36
    8  A    between atoms: N_24  and  C_48
    9  A    between atoms: N_24  and  O_53
   10  A    between atoms: C_27  and  C_55
   11  A    between atoms: C_31  and  N_44
   12  A    between atoms: C_33  and  C_57
   13  A    between atoms: N_37  and  C_54
   14  A    between atoms: C_45  and  O_47
   15  A    between atoms: C_45  and  O_53
   16  A    between atoms: O_47  and  C_50
   17  A    between atoms: C_56  and  C_61
                            x       y       z     vdW  Elec       q    Type
                         _______ _______ _______ _____ _____    ______ ____

>  <TORSDO>
F 17

$$$$
=
 OpenBabel10232408053D

 62 68  0  0  1  0  0  0  0  0999 V2000
  191.3770  177.6390  138.8590 C   0  0  1  0  0  3  0  0  0  0  0  0
  188.2250  178.2080  139.4390 N   0  0  0  0  0  0  0  0  0  0  0  0
  190.4520  177.5170  140.0010 N   0  0  0  0  0  0  0  0  0  0  0  0
  192.4980  177.1360  139.6490 C   0  0  2  0  0  3  0  0  0  0  0  0
  191.9670  176.2870  138.5180 C   0  0  2  0  0  3  0  0  0  0  0  0
  189.1050  177.8690  140.3360 C   0  0  0  0  0  0  0  0  0  0  0  0
  191.5820  177.0650  140.7420 N   0  0  0  0  0  2  0  0  0  0  0  0
  189.0590  178.5360  135.8110 N   0  0  0  0  0  0  0  0  0  0  0  0
  188.6050  177.1510  135.9500 C   0  0  0  0  0  3  0  0  0  0  0  0
  188.9940  179.1280  137.1490 C   0  0  0  0  0  2  0  0  0  0  0  0
  188.3600  178.1100  138.0170 C   0  0  0  0  0  0  0  0  0  0  0  0
  188.1920  176.9920  137.3590 C   0  0  0  0  0  0  0  0  0  0  0  0
  187.7420  175.7040  137.9720 C   0  0  0  0  0  2  0  0  0  0  0  0
  188.6930  174.0690  136.5550 O   0  0  0  0  0  0  0  0  0  0  0  0
  187.6690  174.6090  136.9450 C   0  0  0  0  0  0  0  0  0  0  0  0
  183.2450  174.5660  136.2680 N   0  0  0  0  0  2  0  0  0  0  0  0
  184.9280  172.0880  136.7480 C   0  0  0  0  0  2  0  0  0  0  0  0
  183.4430  172.2420  137.0270 C   0  0  1  0  0  3  0  0  0  0  0  0
  185.7300  173.1600  137.4570 C   0  0  0  0  0  2  0  0  0  0  0  0
  186.3530  174.1100  136.4430 C   0  0  1  0  0  3  0  0  0  0  0  0
  185.4240  175.2760  136.1280 C   0  0  0  0  0  2  0  0  0  0  0  0
  184.2820  174.8190  135.3540 N   0  0  0  0  0  2  0  0  0  0  0  0
  182.7890  173.2050  136.0340 C   0  0  1  0  0  3  0  0  0  0  0  0
  182.8530  170.9940  136.9380 F   0  0  0  0  0  0  0  0  0  0  0  0
  180.7040  173.7980  137.0580 O   0  0  0  0  0  1  0  0  0  0  0  0
  180.5660  172.3980  135.2480 O   0  0  0  0  0  0  0  0  0  0  0  0
  181.2990  173.1590  136.1480 C   0  0  0  0  0  0  0  0  0  0  0  0
  192.8430  176.4160  137.3650 N   0  0  0  0  0  2  0  0  0  0  0  0
  193.8380  175.3560  137.4480 C   0  0  0  0  0  2  0  0  0  0  0  0
  193.6300  174.7880  135.1400 O   0  0  0  0  0  0  0  0  0  0  0  0
  193.6450  174.3810  136.3370 C   0  0  0  0  0  0  0  0  0  0  0  0
  193.5080  173.0240  136.6380 O   0  0  0  0  0  0  0  0  0  0  0  0
  194.5880  172.1070  136.5240 C   0  0  0  0  0  2  0  0  0  0  0  0
  195.5850  172.4360  137.4400 O   0  0  0  0  0  0  0  0  0  0  0  0
  196.7210  172.4770  136.7030 N   0  0  0  0  0  2  0  0  0  0  0  0
  198.0210  175.2370  135.9360 C   0  0  1  0  0  3  0  0  0  0  0  0
  197.4840  174.7320  137.2880 C   0  0  2  0  0  3  0  0  0  0  0  0
  199.3000  171.4050  137.0420 N   0  0  0  0  0  1  0  0  0  0  0  0
  198.1080  175.4260  138.3270 O   0  0  0  0  0  1  0  0  0  0  0  0
  199.4110  173.4130  135.6530 C   0  0  0  0  0  2  0  0  0  0  0  0
  199.3520  174.8220  135.6760 O   0  0  0  0  0  0  0  0  0  0  0  0
  197.7090  173.2260  137.4710 C   0  0  2  0  0  3  0  0  0  0  0  0
  199.1280  172.8480  137.0420 C   0  0  1  0  0  3  0  0  0  0  0  0
  197.0760  174.9440  134.7750 C   0  0  0  0  0  1  0  0  0  0  0  0
  188.7410  178.0010  141.7740 C   0  0  0  0  0  2  0  0  0  0  0  0
  188.5060  176.6260  142.3680 C   0  0  0  0  0  2  0  0  0  0  0  0
  184.2710  178.9790  144.9370 N   0  0  0  0  0  0  0  0  0  0  0  0
  185.3160  178.6430  145.6320 C   0  0  0  0  0  0  0  0  0  0  0  0
  186.3040  178.5160  142.7980 C   0  0  0  0  0  3  0  0  0  0  0  0
  185.4280  179.1300  147.0330 C   0  0  0  0  0  1  0  0  0  0  0  0
  187.8670  176.7540  143.6660 N   0  0  0  0  0  2  0  0  0  0  0  0
  186.3370  177.7640  145.1290 N   0  0  0  0  0  0  0  0  0  0  0  0
  183.9700  178.4780  143.5980 C   0  0  2  0  0  3  0  0  0  0  0  0
  186.7870  177.6590  143.9090 C   0  0  0  0  0  0  0  0  0  0  0  0
  185.0460  178.9190  142.6560 C   0  0  0  0  0  3  0  0  0  0  0  0
  181.6260  178.3900  144.0060 C   0  0  0  0  0  2  0  0  0  0  0  0
  182.4220  178.4150  141.8050 C   0  0  0  0  0  2  0  0  0  0  0  0
  180.0690  178.9240  141.7530 O   0  0  0  0  0  0  0  0  0  0  0  0
  182.6620  178.9610  143.1430 N   0  0  2  0  0  0  0  0  0  0  0  0
  180.4180  179.3270  144.1120 C   0  0  0  0  0  2  0  0  0  0  0  0
  179.9840  179.8970  142.7570 C   0  0  0  0  0  2  0  0  0  0  0  0
  181.2900  179.1680  141.1100 C   0  0  0  0  0  2  0  0  0  0  0  0
  1  4  1  0  0  0  0
  1  3  1  1  0  0  0
  2  6  2  0  0  0  0
  3  6  1  0  0  0  0
  3  7  1  0  0  0  0
  4  7  1  1  0  0  0
  5 28  1  6  0  0  0
  5  1  1  0  0  0  0
  5  4  1  0  0  0  0
  6 45  1  0  0  0  0
  8  9  2  0  0  0  0
  8 10  1  0  0  0  0
  9 12  1  0  0  0  0
 10 11  1  0  0  0  0
 11  2  1  0  0  0  0
 12 13  1  0  0  0  0
 12 11  2  0  0  0  0
 14 15  2  0  0  0  0
 15 13  1  0  0  0  0
 17 18  1  0  0  0  0
 17 19  1  0  0  0  0
 18 24  1  6  0  0  0
 20 15  1  1  0  0  0
 20 19  1  0  0  0  0
 21 20  1  0  0  0  0
 22 21  1  0  0  0  0
 22 16  1  0  0  0  0
 23 27  1  1  0  0  0
 23 16  1  0  0  0  0
 23 18  1  0  0  0  0
 26 27  2  0  0  0  0
 27 25  1  0  0  0  0
 28 29  1  0  0  0  0
 30 31  2  0  0  0  0
 31 32  1  0  0  0  0
 31 29  1  0  0  0  0
 33 32  1  0  0  0  0
 33 34  1  0  0  0  0
 35 34  1  0  0  0  0
 36 44  1  6  0  0  0
 36 37  1  0  0  0  0
 37 42  1  0  0  0  0
 37 39  1  1  0  0  0
 40 41  1  0  0  0  0
 40 43  1  0  0  0  0
 41 36  1  0  0  0  0
 42 35  1  6  0  0  0
 43 38  1  6  0  0  0
 43 42  1  0  0  0  0
 45 46  1  0  0  0  0
 46 51  1  0  0  0  0
 47 48  2  0  0  0  0
 48 50  1  0  0  0  0
 49 54  1  0  0  0  0
 51 54  1  0  0  0  0
 52 48  1  0  0  0  0
 53 55  1  6  0  0  0
 53 47  1  0  0  0  0
 54 52  2  0  0  0  0
 55 49  2  0  0  0  0
 56 60  1  0  0  0  0
 58 61  1  0  0  0  0
 59 57  1  6  0  0  0
 59 53  1  0  0  0  0
 59 56  1  0  0  0  0
 61 60  1  0  0  0  0
 62 58  1  0  0  0  0
 62 57  1  0  0  0  0
M  END
>  <MODEL>
5

>  <REMARK>
 VINA RESULT:      -6.1      3.430      9.451
  Name = 
  17 active torsions:
  status: ('A' for Active; 'I' for Inactive)
    1  A    between atoms: C_2  and  N_37
    2  A    between atoms: C_2  and  C_50
    3  A    between atoms: C_5  and  N_18
    4  A    between atoms: C_5  and  C_27
    5  A    between atoms: N_17  and  C_41
    6  A    between atoms: C_22  and  C_33
    7  A    between atoms: C_22  and  C_36
    8  A    between atoms: N_24  and  C_48
    9  A    between atoms: N_24  and  O_53
   10  A    between atoms: C_27  and  C_55
   11  A    between atoms: C_31  and  N_44
   12  A    between atoms: C_33  and  C_57
   13  A    between atoms: N_37  and  C_54
   14  A    between atoms: C_45  and  O_47
   15  A    between atoms: C_45  and  O_53
   16  A    between atoms: O_47  and  C_50
   17  A    between atoms: C_56  and  C_61
                            x       y       z     vdW  Elec       q    Type
                         _______ _______ _______ _____ _____    ______ ____

>  <TORSDO>
F 17

$$$$
=
 OpenBabel10232408053D

 62 68  0  0  1  0  0  0  0  0999 V2000
  190.3970  174.0980  136.6110 C   0  0  1  0  0  3  0  0  0  0  0  0
  189.7420  177.2160  137.2820 N   0  0  0  0  0  0  0  0  0  0  0  0
  189.5680  175.1740  136.0350 N   0  0  0  0  0  0  0  0  0  0  0  0
  189.9800  173.1550  135.5770 C   0  0  2  0  0  3  0  0  0  0  0  0
  191.4150  173.6230  135.5960 C   0  0  2  0  0  3  0  0  0  0  0  0
  189.1560  176.5060  136.3630 C   0  0  0  0  0  0  0  0  0  0  0  0
  189.1620  174.2100  135.0680 N   0  0  0  0  0  2  0  0  0  0  0  0
  193.2400  176.4740  138.3710 N   0  0  0  0  0  0  0  0  0  0  0  0
  192.5770  176.9410  139.5900 C   0  0  0  0  0  2  0  0  0  0  0  0
  192.2370  176.5390  137.3050 C   0  0  0  0  0  3  0  0  0  0  0  0
  190.9620  176.9050  137.9640 C   0  0  0  0  0  0  0  0  0  0  0  0
  191.1650  177.1780  139.2270 C   0  0  0  0  0  0  0  0  0  0  0  0
  190.1350  177.7500  140.1490 C   0  0  0  0  0  2  0  0  0  0  0  0
  190.4770  175.8010  141.4420 O   0  0  0  0  0  0  0  0  0  0  0  0
  190.0110  176.9290  141.4020 C   0  0  0  0  0  0  0  0  0  0  0  0
  189.2500  177.4680  145.7800 N   0  0  0  0  0  2  0  0  0  0  0  0
  187.1140  177.6610  143.6340 C   0  0  0  0  0  2  0  0  0  0  0  0
  186.9000  177.3090  145.0970 C   0  0  1  0  0  3  0  0  0  0  0  0
  188.1270  176.7330  142.9940 C   0  0  0  0  0  2  0  0  0  0  0  0
  189.3930  177.5000  142.6370 C   0  0  1  0  0  3  0  0  0  0  0  0
  190.3910  177.4920  143.7880 C   0  0  0  0  0  2  0  0  0  0  0  0
  189.9120  178.3210  144.8810 N   0  0  0  0  0  2  0  0  0  0  0  0
  187.9200  178.0160  145.9910 C   0  0  1  0  0  3  0  0  0  0  0  0
  185.6160  177.6850  145.4490 F   0  0  0  0  0  0  0  0  0  0  0  0
  186.6090  178.5470  147.9270 O   0  0  0  0  0  0  0  0  0  0  0  0
  188.2680  176.9970  148.2380 O   0  0  0  0  0  1  0  0  0  0  0  0
  187.5530  177.8730  147.4340 C   0  0  0  0  0  0  0  0  0  0  0  0
  192.2510  172.5940  136.1920 N   0  0  0  0  0  2  0  0  0  0  0  0
  193.2870  172.2550  135.2250 C   0  0  0  0  0  2  0  0  0  0  0  0
  192.6730  169.9530  135.3510 O   0  0  0  0  0  0  0  0  0  0  0  0
  193.6080  170.8010  135.3050 C   0  0  0  0  0  0  0  0  0  0  0  0
  194.9460  170.4000  135.3030 O   0  0  0  0  0  0  0  0  0  0  0  0
  195.7150  170.3100  136.4950 C   0  0  0  0  0  2  0  0  0  0  0  0
  196.8870  171.0500  136.3580 O   0  0  0  0  0  0  0  0  0  0  0  0
  196.8780  171.8960  137.4150 N   0  0  0  0  0  2  0  0  0  0  0  0
  198.3810  174.5230  136.5550 C   0  0  1  0  0  3  0  0  0  0  0  0
  197.1730  173.8140  135.9160 C   0  0  2  0  0  3  0  0  0  0  0  0
  195.3490  173.4150  139.2230 N   0  0  0  0  0  1  0  0  0  0  0  0
  196.4240  174.7360  135.1810 O   0  0  0  0  0  1  0  0  0  0  0  0
  197.3900  174.6270  138.6390 C   0  0  0  0  0  2  0  0  0  0  0  0
  198.0210  175.3790  137.6260 O   0  0  0  0  0  0  0  0  0  0  0  0
  196.2760  173.1460  136.9650 C   0  0  2  0  0  3  0  0  0  0  0  0
  196.0490  174.0930  138.1450 C   0  0  1  0  0  3  0  0  0  0  0  0
  199.5080  173.5620  136.9230 C   0  0  0  0  0  1  0  0  0  0  0  0
  187.9140  177.0390  135.7370 C   0  0  0  0  0  2  0  0  0  0  0  0
  186.9590  175.8980  135.4480 C   0  0  0  0  0  2  0  0  0  0  0  0
  182.0690  173.6430  136.4900 N   0  0  0  0  0  0  0  0  0  0  0  0
  182.2950  174.8600  136.8870 C   0  0  0  0  0  0  0  0  0  0  0  0
  184.5210  174.3490  134.9360 C   0  0  0  0  0  3  0  0  0  0  0  0
  181.1510  175.6730  137.3790 C   0  0  0  0  0  1  0  0  0  0  0  0
  185.8160  175.9760  136.3420 N   0  0  0  0  0  2  0  0  0  0  0  0
  183.6140  175.4320  136.9360 N   0  0  0  0  0  0  0  0  0  0  0  0
  183.1090  172.6940  136.0990 C   0  0  2  0  0  3  0  0  0  0  0  0
  184.6160  175.2290  136.1260 C   0  0  0  0  0  0  0  0  0  0  0  0
  183.8250  173.2190  134.8940 C   0  0  0  0  0  3  0  0  0  0  0  0
  183.1880  170.8180  134.6330 C   0  0  0  0  0  2  0  0  0  0  0  0
  181.1260  171.5750  135.4420 C   0  0  0  0  0  2  0  0  0  0  0  0
  180.8050  169.3720  134.5250 O   0  0  0  0  0  0  0  0  0  0  0  0
  182.5290  171.3760  135.8160 N   0  0  2  0  0  0  0  0  0  0  0  0
  183.2160  169.2870  134.6890 C   0  0  0  0  0  2  0  0  0  0  0  0
  181.8730  168.6800  135.1100 C   0  0  0  0  0  2  0  0  0  0  0  0
  180.3570  170.2570  135.5150 C   0  0  0  0  0  2  0  0  0  0  0  0
  1  3  1  6  0  0  0
  2 11  1  0  0  0  0
  3  6  1  0  0  0  0
  4  7  1  6  0  0  0
  4  5  1  0  0  0  0
  4  1  1  0  0  0  0
  5 28  1  1  0  0  0
  5  1  1  0  0  0  0
  6  2  2  0  0  0  0
  7  3  1  0  0  0  0
  8  9  1  0  0  0  0
 10 11  1  0  0  0  0
 10  8  2  0  0  0  0
 11 12  2  0  0  0  0
 12  9  1  0  0  0  0
 12 13  1  0  0  0  0
 13 15  1  0  0  0  0
 15 14  2  0  0  0  0
 16 23  1  0  0  0  0
 17 18  1  0  0  0  0
 18 24  1  1  0  0  0
 18 23  1  0  0  0  0
 19 17  1  0  0  0  0
 20 15  1  6  0  0  0
 20 19  1  0  0  0  0
 20 21  1  0  0  0  0
 21 22  1  0  0  0  0
 22 16  1  0  0  0  0
 23 27  1  1  0  0  0
 27 25  2  0  0  0  0
 27 26  1  0  0  0  0
 29 31  1  0  0  0  0
 29 28  1  0  0  0  0
 31 30  2  0  0  0  0
 32 31  1  0  0  0  0
 32 33  1  0  0  0  0
 34 33  1  0  0  0  0
 34 35  1  0  0  0  0
 36 44  1  1  0  0  0
 36 41  1  0  0  0  0
 37 39  1  1  0  0  0
 37 36  1  0  0  0  0
 37 42  1  0  0  0  0
 41 40  1  0  0  0  0
 42 35  1  1  0  0  0
 42 43  1  0  0  0  0
 43 40  1  0  0  0  0
 43 38  1  1  0  0  0
 45  6  1  0  0  0  0
 46 45  1  0  0  0  0
 46 51  1  0  0  0  0
 47 48  2  0  0  0  0
 48 52  1  0  0  0  0
 48 50  1  0  0  0  0
 49 54  1  0  0  0  0
 53 55  1  6  0  0  0
 53 47  1  0  0  0  0
 54 51  1  0  0  0  0
 54 52  2  0  0  0  0
 55 49  2  0  0  0  0
 56 60  1  0  0  0  0
 57 62  1  0  0  0  0
 57 59  1  0  0  0  0
 58 61  1  0  0  0  0
 58 62  1  0  0  0  0
 59 56  1  6  0  0  0
 59 53  1  0  0  0  0
 60 61  1  0  0  0  0
M  END
>  <MODEL>
6

>  <REMARK>
 VINA RESULT:      -6.0      3.081     10.942
  Name = 
  17 active torsions:
  status: ('A' for Active; 'I' for Inactive)
    1  A    between atoms: C_2  and  N_37
    2  A    between atoms: C_2  and  C_50
    3  A    between atoms: C_5  and  N_18
    4  A    between atoms: C_5  and  C_27
    5  A    between atoms: N_17  and  C_41
    6  A    between atoms: C_22  and  C_33
    7  A    between atoms: C_22  and  C_36
    8  A    between atoms: N_24  and  C_48
    9  A    between atoms: N_24  and  O_53
   10  A    between atoms: C_27  and  C_55
   11  A    between atoms: C_31  and  N_44
   12  A    between atoms: C_33  and  C_57
   13  A    between atoms: N_37  and  C_54
   14  A    between atoms: C_45  and  O_47
   15  A    between atoms: C_45  and  O_53
   16  A    between atoms: O_47  and  C_50
   17  A    between atoms: C_56  and  C_61
                            x       y       z     vdW  Elec       q    Type
                         _______ _______ _______ _____ _____    ______ ____

>  <TORSDO>
F 17

$$$$
=
 OpenBabel10232408053D

 62 68  0  0  1  0  0  0  0  0999 V2000
  189.5380  174.4510  135.9980 C   0  0  1  0  0  3  0  0  0  0  0  0
  189.3460  177.3500  137.4660 N   0  0  0  0  0  0  0  0  0  0  0  0
  188.7140  175.6680  135.8770 N   0  0  0  0  0  0  0  0  0  0  0  0
  188.8210  173.7970  134.9060 C   0  0  2  0  0  3  0  0  0  0  0  0
  190.2660  174.1820  134.6980 C   0  0  2  0  0  3  0  0  0  0  0  0
  188.5110  176.9030  136.5740 C   0  0  0  0  0  0  0  0  0  0  0  0
  188.0200  174.9780  134.8420 N   0  0  0  0  0  2  0  0  0  0  0  0
  192.9490  176.3670  137.6120 N   0  0  0  0  0  0  0  0  0  0  0  0
  192.4900  176.2500  138.9970 C   0  0  0  0  0  2  0  0  0  0  0  0
  191.7980  176.8310  136.8330 C   0  0  0  0  0  3  0  0  0  0  0  0
  190.6480  176.8330  137.7650 C   0  0  0  0  0  0  0  0  0  0  0  0
  191.0450  176.5580  138.9800 C   0  0  0  0  0  0  0  0  0  0  0  0
  190.1820  176.6450  140.1980 C   0  0  0  0  0  2  0  0  0  0  0  0
  191.9360  177.8640  141.2120 O   0  0  0  0  0  0  0  0  0  0  0  0
  190.9600  177.1490  141.3820 C   0  0  0  0  0  0  0  0  0  0  0  0
  188.8600  177.7990  145.2810 N   0  0  0  0  0  2  0  0  0  0  0  0
  191.5830  176.4910  145.0000 C   0  0  0  0  0  2  0  0  0  0  0  0
  191.0450  177.2090  146.2260 C   0  0  1  0  0  3  0  0  0  0  0  0
  191.5310  177.3850  143.7780 C   0  0  0  0  0  2  0  0  0  0  0  0
  190.5140  176.8530  142.7780 C   0  0  1  0  0  3  0  0  0  0  0  0
  189.1290  177.4330  143.0300 C   0  0  0  0  0  2  0  0  0  0  0  0
  188.5660  176.8870  144.2540 N   0  0  0  0  0  2  0  0  0  0  0  0
  189.5280  177.0540  146.3370 C   0  0  1  0  0  3  0  0  0  0  0  0
  191.6610  176.6770  147.3450 F   0  0  0  0  0  0  0  0  0  0  0  0
  189.7410  178.3180  148.3640 O   0  0  0  0  0  1  0  0  0  0  0  0
  187.8020  177.1180  148.1340 O   0  0  0  0  0  0  0  0  0  0  0  0
  189.0380  177.5390  147.6650 C   0  0  0  0  0  0  0  0  0  0  0  0
  191.1060  173.0040  134.8460 N   0  0  0  0  0  2  0  0  0  0  0  0
  192.4690  173.4630  135.0770 C   0  0  0  0  0  2  0  0  0  0  0  0
  193.1260  171.4020  136.0840 O   0  0  0  0  0  0  0  0  0  0  0  0
  193.1020  172.6630  136.1640 C   0  0  0  0  0  0  0  0  0  0  0  0
  193.6830  173.3270  137.2470 O   0  0  0  0  0  0  0  0  0  0  0  0
  194.7710  172.7780  137.9810 C   0  0  0  0  0  2  0  0  0  0  0  0
  195.9480  172.9100  137.2480 O   0  0  0  0  0  0  0  0  0  0  0  0
  196.8870  173.2300  138.1700 N   0  0  0  0  0  2  0  0  0  0  0  0
  199.1300  174.3260  136.2570 C   0  0  1  0  0  3  0  0  0  0  0  0
  197.6960  174.8310  136.4990 C   0  0  2  0  0  3  0  0  0  0  0  0
  198.0280  174.6990  140.2800 N   0  0  0  0  0  1  0  0  0  0  0  0
  197.6160  176.1870  136.1740 O   0  0  0  0  0  1  0  0  0  0  0  0
  199.6750  174.3850  138.5010 C   0  0  0  0  0  2  0  0  0  0  0  0
  200.0590  174.8110  137.2130 O   0  0  0  0  0  0  0  0  0  0  0  0
  197.2500  174.6250  137.9520 C   0  0  2  0  0  3  0  0  0  0  0  0
  198.3640  175.0510  138.9100 C   0  0  1  0  0  3  0  0  0  0  0  0
  199.2060  172.8130  136.0770 C   0  0  0  0  0  1  0  0  0  0  0  0
  187.2220  177.6240  136.3820 C   0  0  0  0  0  2  0  0  0  0  0  0
  186.3740  177.4920  137.6310 C   0  0  0  0  0  2  0  0  0  0  0  0
  181.7240  175.7760  135.2850 N   0  0  0  0  0  0  0  0  0  0  0  0
  181.9350  177.0530  135.3940 C   0  0  0  0  0  0  0  0  0  0  0  0
  184.6430  175.8610  135.9150 C   0  0  0  0  0  3  0  0  0  0  0  0
  181.0400  177.9890  134.6630 C   0  0  0  0  0  1  0  0  0  0  0  0
  185.0080  177.8930  137.3420 N   0  0  0  0  0  2  0  0  0  0  0  0
  182.9550  177.6050  136.2450 N   0  0  0  0  0  0  0  0  0  0  0  0
  182.4430  174.7500  136.0370 C   0  0  2  0  0  3  0  0  0  0  0  0
  184.1350  177.1180  136.5160 C   0  0  0  0  0  0  0  0  0  0  0  0
  183.8920  174.7940  135.6650 C   0  0  0  0  0  3  0  0  0  0  0  0
  181.7210  172.7140  137.0390 C   0  0  0  0  0  2  0  0  0  0  0  0
  182.8820  172.6610  135.0080 C   0  0  0  0  0  2  0  0  0  0  0  0
  181.8490  170.5110  135.3330 O   0  0  0  0  0  0  0  0  0  0  0  0
  181.8850  173.4200  135.7670 N   0  0  2  0  0  0  0  0  0  0  0  0
  180.5530  171.7250  136.9730 C   0  0  0  0  0  2  0  0  0  0  0  0
  180.5480  170.8900  135.6880 C   0  0  0  0  0  2  0  0  0  0  0  0
  182.2450  171.4350  134.3560 C   0  0  0  0  0  2  0  0  0  0  0  0
  1  3  1  6  0  0  0
  2 11  1  0  0  0  0
  3  6  1  0  0  0  0
  4  7  1  6  0  0  0
  4  1  1  0  0  0  0
  5 28  1  1  0  0  0
  5  4  1  0  0  0  0
  5  1  1  0  0  0  0
  6  2  2  0  0  0  0
  7  3  1  0  0  0  0
  8  9  1  0  0  0  0
 10  8  2  0  0  0  0
 10 11  1  0  0  0  0
 11 12  2  0  0  0  0
 12  9  1  0  0  0  0
 12 13  1  0  0  0  0
 13 15  1  0  0  0  0
 14 15  2  0  0  0  0
 16 23  1  0  0  0  0
 17 18  1  0  0  0  0
 18 23  1  0  0  0  0
 18 24  1  1  0  0  0
 19 17  1  0  0  0  0
 20 15  1  6  0  0  0
 20 21  1  0  0  0  0
 20 19  1  0  0  0  0
 21 22  1  0  0  0  0
 22 16  1  0  0  0  0
 23 27  1  1  0  0  0
 27 26  2  0  0  0  0
 27 25  1  0  0  0  0
 28 29  1  0  0  0  0
 29 31  1  0  0  0  0
 30 31  2  0  0  0  0
 31 32  1  0  0  0  0
 32 33  1  0  0  0  0
 34 33  1  0  0  0  0
 34 35  1  0  0  0  0
 36 44  1  1  0  0  0
 36 37  1  0  0  0  0
 36 41  1  0  0  0  0
 37 39  1  1  0  0  0
 37 42  1  0  0  0  0
 40 43  1  0  0  0  0
 41 40  1  0  0  0  0
 42 35  1  6  0  0  0
 42 43  1  0  0  0  0
 43 38  1  1  0  0  0
 45  6  1  0  0  0  0
 45 46  1  0  0  0  0
 47 48  2  0  0  0  0
 47 53  1  0  0  0  0
 48 52  1  0  0  0  0
 49 54  1  0  0  0  0
 50 48  1  0  0  0  0
 51 46  1  0  0  0  0
 52 54  2  0  0  0  0
 53 55  1  6  0  0  0
 54 51  1  0  0  0  0
 55 49  2  0  0  0  0
 58 61  1  0  0  0  0
 59 57  1  6  0  0  0
 59 53  1  0  0  0  0
 59 56  1  0  0  0  0
 60 56  1  0  0  0  0
 61 60  1  0  0  0  0
 62 57  1  0  0  0  0
 62 58  1  0  0  0  0
M  END
>  <MODEL>
7

>  <REMARK>
 VINA RESULT:      -6.0      3.345     10.876
  Name = 
  17 active torsions:
  status: ('A' for Active; 'I' for Inactive)
    1  A    between atoms: C_2  and  N_37
    2  A    between atoms: C_2  and  C_50
    3  A    between atoms: C_5  and  N_18
    4  A    between atoms: C_5  and  C_27
    5  A    between atoms: N_17  and  C_41
    6  A    between atoms: C_22  and  C_33
    7  A    between atoms: C_22  and  C_36
    8  A    between atoms: N_24  and  C_48
    9  A    between atoms: N_24  and  O_53
   10  A    between atoms: C_27  and  C_55
   11  A    between atoms: C_31  and  N_44
   12  A    between atoms: C_33  and  C_57
   13  A    between atoms: N_37  and  C_54
   14  A    between atoms: C_45  and  O_47
   15  A    between atoms: C_45  and  O_53
   16  A    between atoms: O_47  and  C_50
   17  A    between atoms: C_56  and  C_61
                            x       y       z     vdW  Elec       q    Type
                         _______ _______ _______ _____ _____    ______ ____

>  <TORSDO>
F 17

$$$$
=
 OpenBabel10232408053D

 62 68  0  0  1  0  0  0  0  0999 V2000
  192.7350  175.8110  136.2760 C   0  0  1  0  0  3  0  0  0  0  0  0
  189.7260  175.0690  137.2740 N   0  0  0  0  0  0  0  0  0  0  0  0
  191.9060  176.0530  137.4710 N   0  0  0  0  0  0  0  0  0  0  0  0
  193.8620  176.5430  136.8490 C   0  0  2  0  0  3  0  0  0  0  0  0
  193.9880  175.0510  136.6560 C   0  0  2  0  0  3  0  0  0  0  0  0
  190.5520  175.8580  137.8980 C   0  0  0  0  0  0  0  0  0  0  0  0
  193.0170  176.7880  137.9740 N   0  0  0  0  0  2  0  0  0  0  0  0
  190.8660  172.2530  135.0970 N   0  0  0  0  0  0  0  0  0  0  0  0
  189.7660  172.8620  134.3470 C   0  0  0  0  0  3  0  0  0  0  0  0
  190.9850  173.0120  136.3450 C   0  0  0  0  0  2  0  0  0  0  0  0
  190.0410  174.1460  136.2250 C   0  0  0  0  0  0  0  0  0  0  0  0
  189.3280  174.0320  135.1360 C   0  0  0  0  0  0  0  0  0  0  0  0
  188.1620  174.9020  134.7870 C   0  0  0  0  0  2  0  0  0  0  0  0
  186.8190  172.9620  134.6390 O   0  0  0  0  0  0  0  0  0  0  0  0
  186.8660  174.1520  134.9140 C   0  0  0  0  0  0  0  0  0  0  0  0
  184.3080  177.4820  136.4650 N   0  0  0  0  0  2  0  0  0  0  0  0
  184.1760  174.6170  137.4550 C   0  0  0  0  0  2  0  0  0  0  0  0
  183.7710  175.8620  138.2270 C   0  0  1  0  0  3  0  0  0  0  0  0
  185.6070  174.7200  136.9670 C   0  0  0  0  0  2  0  0  0  0  0  0
  185.6400  174.8190  135.4480 C   0  0  1  0  0  3  0  0  0  0  0  0
  185.5730  176.2670  134.9820 C   0  0  0  0  0  2  0  0  0  0  0  0
  184.2510  176.8180  135.2270 N   0  0  0  0  0  2  0  0  0  0  0  0
  183.2360  176.9450  137.2890 C   0  0  1  0  0  3  0  0  0  0  0  0
  182.8010  175.5050  139.1460 F   0  0  0  0  0  0  0  0  0  0  0  0
  181.3610  178.2410  138.0310 O   0  0  0  0  0  0  0  0  0  0  0  0
  183.4080  178.9050  138.8170 O   0  0  0  0  0  1  0  0  0  0  0  0
  182.6070  178.0590  138.0640 C   0  0  0  0  0  0  0  0  0  0  0  0
  194.7750  174.7820  135.4630 N   0  0  0  0  0  2  0  0  0  0  0  0
  195.8070  175.8060  135.3770 C   0  0  0  0  0  2  0  0  0  0  0  0
  197.6230  175.7430  136.9230 O   0  0  0  0  0  0  0  0  0  0  0  0
  197.1060  175.2680  135.8720 C   0  0  0  0  0  0  0  0  0  0  0  0
  197.7210  174.2260  135.1740 O   0  0  0  0  0  0  0  0  0  0  0  0
  198.2440  173.0780  135.8280 C   0  0  0  0  0  2  0  0  0  0  0  0
  197.2970  172.5660  136.7130 O   0  0  0  0  0  0  0  0  0  0  0  0
  196.6860  171.5770  136.0200 N   0  0  0  0  0  2  0  0  0  0  0  0
  196.2130  168.7960  137.4130 C   0  0  1  0  0  3  0  0  0  0  0  0
  195.9370  170.2240  137.9220 C   0  0  2  0  0  3  0  0  0  0  0  0
  194.2110  171.2940  134.7130 N   0  0  0  0  0  1  0  0  0  0  0  0
  194.9360  170.1880  138.8950 O   0  0  0  0  0  1  0  0  0  0  0  0
  195.0040  169.1100  135.4690 C   0  0  0  0  0  2  0  0  0  0  0  0
  195.1690  168.2840  136.6010 O   0  0  0  0  0  0  0  0  0  0  0  0
  195.5160  171.1680  136.7890 C   0  0  2  0  0  3  0  0  0  0  0  0
  194.4870  170.4830  135.8870 C   0  0  1  0  0  3  0  0  0  0  0  0
  197.5870  168.6510  136.7670 C   0  0  0  0  0  1  0  0  0  0  0  0
  190.0260  176.7060  139.0040 C   0  0  0  0  0  2  0  0  0  0  0  0
  189.7960  178.1170  138.4990 C   0  0  0  0  0  2  0  0  0  0  0  0
  187.0280  178.2080  143.2320 N   0  0  0  0  0  0  0  0  0  0  0  0
  186.3960  178.4870  142.1320 C   0  0  0  0  0  0  0  0  0  0  0  0
  188.9440  177.2270  141.1600 C   0  0  0  0  0  3  0  0  0  0  0  0
  184.9110  178.5720  142.1650 C   0  0  0  0  0  1  0  0  0  0  0  0
  188.6240  178.6840  139.1420 N   0  0  0  0  0  2  0  0  0  0  0  0
  187.0720  178.7840  140.8970 N   0  0  0  0  0  0  0  0  0  0  0  0
  188.4830  178.2120  143.3750 C   0  0  2  0  0  3  0  0  0  0  0  0
  188.1850  178.2790  140.4410 C   0  0  0  0  0  0  0  0  0  0  0  0
  189.0660  177.1620  142.4810 C   0  0  0  0  0  3  0  0  0  0  0  0
  189.9840  177.0210  144.7890 C   0  0  0  0  0  2  0  0  0  0  0  0
  187.7500  177.2920  145.4320 C   0  0  0  0  0  2  0  0  0  0  0  0
  189.0030  176.5890  147.3640 O   0  0  0  0  0  0  0  0  0  0  0  0
  188.8680  177.9690  144.7700 N   0  0  2  0  0  0  0  0  0  0  0  0
  190.8870  177.2570  146.0040 C   0  0  0  0  0  2  0  0  0  0  0  0
  190.1000  177.4590  147.3030 C   0  0  0  0  0  2  0  0  0  0  0  0
  187.9050  177.3560  146.9500 C   0  0  0  0  0  2  0  0  0  0  0  0
  1  5  1  0  0  0  0
  1  4  1  0  0  0  0
  1  3  1  1  0  0  0
  2  6  2  0  0  0  0
  3  6  1  0  0  0  0
  3  7  1  0  0  0  0
  4  7  1  1  0  0  0
  5 28  1  6  0  0  0
  5  4  1  0  0  0  0
  6 45  1  0  0  0  0
  8 10  1  0  0  0  0
  9  8  2  0  0  0  0
  9 12  1  0  0  0  0
 11 10  1  0  0  0  0
 11  2  1  0  0  0  0
 12 11  2  0  0  0  0
 13 15  1  0  0  0  0
 13 12  1  0  0  0  0
 14 15  2  0  0  0  0
 16 23  1  0  0  0  0
 17 18  1  0  0  0  0
 18 24  1  1  0  0  0
 19 17  1  0  0  0  0
 20 15  1  1  0  0  0
 20 19  1  0  0  0  0
 21 22  1  0  0  0  0
 21 20  1  0  0  0  0
 22 16  1  0  0  0  0
 23 27  1  1  0  0  0
 23 18  1  0  0  0  0
 25 27  2  0  0  0  0
 27 26  1  0  0  0  0
 29 28  1  0  0  0  0
 29 31  1  0  0  0  0
 31 30  2  0  0  0  0
 32 33  1  0  0  0  0
 32 31  1  0  0  0  0
 33 34  1  0  0  0  0
 35 34  1  0  0  0  0
 36 44  1  6  0  0  0
 36 37  1  0  0  0  0
 37 39  1  1  0  0  0
 40 43  1  0  0  0  0
 40 41  1  0  0  0  0
 41 36  1  0  0  0  0
 42 35  1  6  0  0  0
 42 37  1  0  0  0  0
 43 38  1  6  0  0  0
 43 42  1  0  0  0  0
 46 45  1  0  0  0  0
 46 51  1  0  0  0  0
 47 53  1  0  0  0  0
 48 50  1  0  0  0  0
 48 47  2  0  0  0  0
 49 55  2  0  0  0  0
 51 54  1  0  0  0  0
 52 48  1  0  0  0  0
 53 55  1  6  0  0  0
 53 59  1  0  0  0  0
 54 52  2  0  0  0  0
 54 49  1  0  0  0  0
 56 60  1  0  0  0  0
 57 62  1  0  0  0  0
 59 56  1  6  0  0  0
 59 57  1  0  0  0  0
 60 61  1  0  0  0  0
 61 58  1  0  0  0  0
 62 58  1  0  0  0  0
M  END
>  <MODEL>
8

>  <REMARK>
 VINA RESULT:      -5.9      3.141      9.898
  Name = 
  17 active torsions:
  status: ('A' for Active; 'I' for Inactive)
    1  A    between atoms: C_2  and  N_37
    2  A    between atoms: C_2  and  C_50
    3  A    between atoms: C_5  and  N_18
    4  A    between atoms: C_5  and  C_27
    5  A    between atoms: N_17  and  C_41
    6  A    between atoms: C_22  and  C_33
    7  A    between atoms: C_22  and  C_36
    8  A    between atoms: N_24  and  C_48
    9  A    between atoms: N_24  and  O_53
   10  A    between atoms: C_27  and  C_55
   11  A    between atoms: C_31  and  N_44
   12  A    between atoms: C_33  and  C_57
   13  A    between atoms: N_37  and  C_54
   14  A    between atoms: C_45  and  O_47
   15  A    between atoms: C_45  and  O_53
   16  A    between atoms: O_47  and  C_50
   17  A    between atoms: C_56  and  C_61
                            x       y       z     vdW  Elec       q    Type
                         _______ _______ _______ _____ _____    ______ ____

>  <TORSDO>
F 17

$$$$
=
 OpenBabel10232408053D

 62 68  0  0  1  0  0  0  0  0999 V2000
  192.3510  176.2970  137.3610 C   0  0  1  0  0  3  0  0  0  0  0  0
  189.1880  175.6650  137.8060 N   0  0  0  0  0  0  0  0  0  0  0  0
  191.3830  176.3710  138.4710 N   0  0  0  0  0  0  0  0  0  0  0  0
  193.4360  176.7850  138.2080 C   0  0  2  0  0  3  0  0  0  0  0  0
  193.4830  175.3570  137.7170 C   0  0  2  0  0  3  0  0  0  0  0  0
  189.9730  176.2260  138.6790 C   0  0  0  0  0  0  0  0  0  0  0  0
  192.4620  176.8770  139.2500 N   0  0  0  0  0  2  0  0  0  0  0  0
  190.3680  173.2310  135.2260 N   0  0  0  0  0  0  0  0  0  0  0  0
  189.5070  174.1530  134.4810 C   0  0  0  0  0  3  0  0  0  0  0  0
  190.3430  173.6790  136.6200 C   0  0  0  0  0  2  0  0  0  0  0  0
  189.5800  174.9480  136.6300 C   0  0  0  0  0  0  0  0  0  0  0  0
  189.0730  175.1830  135.4470 C   0  0  0  0  0  0  0  0  0  0  0  0
  188.1050  176.2810  135.1400 C   0  0  0  0  0  2  0  0  0  0  0  0
  186.3580  174.6900  135.0760 O   0  0  0  0  0  0  0  0  0  0  0  0
  186.6870  175.8330  135.3560 C   0  0  0  0  0  0  0  0  0  0  0  0
  184.5190  177.9680  138.6390 N   0  0  0  0  0  2  0  0  0  0  0  0
  183.1970  176.8970  136.1270 C   0  0  0  0  0  2  0  0  0  0  0  0
  182.5280  177.1410  137.4700 C   0  0  1  0  0  3  0  0  0  0  0  0
  184.3930  175.9790  136.2740 C   0  0  0  0  0  2  0  0  0  0  0  0
  185.6800  176.7410  135.9850 C   0  0  1  0  0  3  0  0  0  0  0  0
  186.2470  177.3750  137.2480 C   0  0  0  0  0  2  0  0  0  0  0  0
  185.4090  178.4810  137.6810 N   0  0  0  0  0  2  0  0  0  0  0  0
  183.1750  178.3160  138.2060 C   0  0  1  0  0  3  0  0  0  0  0  0
  181.1880  177.4000  137.2460 F   0  0  0  0  0  0  0  0  0  0  0  0
  182.2660  179.9230  139.7350 O   0  0  0  0  0  0  0  0  0  0  0  0
  181.7160  177.7350  140.1410 O   0  0  0  0  0  1  0  0  0  0  0  0
  182.3620  178.7120  139.3970 C   0  0  0  0  0  0  0  0  0  0  0  0
  194.4060  175.2620  136.5980 N   0  0  0  0  0  2  0  0  0  0  0  0
  194.0830  176.3350  135.6690 C   0  0  0  0  0  2  0  0  0  0  0  0
  195.5980  178.1270  135.2340 O   0  0  0  0  0  0  0  0  0  0  0  0
  195.3320  176.9010  135.0830 C   0  0  0  0  0  0  0  0  0  0  0  0
  196.2050  176.0540  134.3950 O   0  0  0  0  0  0  0  0  0  0  0  0
  197.6070  176.2810  134.3510 C   0  0  0  0  0  2  0  0  0  0  0  0
  198.1670  176.0220  135.6010 O   0  0  0  0  0  0  0  0  0  0  0  0
  197.4010  175.0310  136.1150 N   0  0  0  0  0  2  0  0  0  0  0  0
  197.5740  171.8920  136.2180 C   0  0  1  0  0  3  0  0  0  0  0  0
  198.6920  172.9510  136.2480 C   0  0  2  0  0  3  0  0  0  0  0  0
  196.9590  175.0540  138.8930 N   0  0  0  0  0  1  0  0  0  0  0  0
  199.8230  172.4190  136.8700 O   0  0  0  0  0  1  0  0  0  0  0  0
  196.4360  172.8440  137.9880 C   0  0  0  0  0  2  0  0  0  0  0  0
  197.0010  171.6510  137.4920 O   0  0  0  0  0  0  0  0  0  0  0  0
  198.2560  174.2260  136.9800 C   0  0  2  0  0  3  0  0  0  0  0  0
  197.5300  173.8680  138.2780 C   0  0  1  0  0  3  0  0  0  0  0  0
  196.5260  172.1630  135.1430 C   0  0  0  0  0  1  0  0  0  0  0  0
  189.3600  176.8790  139.8700 C   0  0  0  0  0  2  0  0  0  0  0  0
  189.1870  178.3620  139.6050 C   0  0  0  0  0  2  0  0  0  0  0  0
  186.0710  177.9710  144.1010 N   0  0  0  0  0  0  0  0  0  0  0  0
  185.5090  178.3010  142.9770 C   0  0  0  0  0  0  0  0  0  0  0  0
  188.1850  177.2370  142.1220 C   0  0  0  0  0  3  0  0  0  0  0  0
  184.0240  178.3140  142.8980 C   0  0  0  0  0  1  0  0  0  0  0  0
  187.9420  178.8240  140.1930 N   0  0  0  0  0  2  0  0  0  0  0  0
  186.2590  178.7210  141.8230 N   0  0  0  0  0  0  0  0  0  0  0  0
  187.5090  178.0320  144.3570 C   0  0  2  0  0  3  0  0  0  0  0  0
  187.4280  178.3030  141.4210 C   0  0  0  0  0  0  0  0  0  0  0  0
  188.2110  177.0800  143.4410 C   0  0  0  0  0  3  0  0  0  0  0  0
  187.3440  178.8110  146.6020 C   0  0  0  0  0  2  0  0  0  0  0  0
  189.2570  177.6530  145.9110 C   0  0  0  0  0  2  0  0  0  0  0  0
  189.2490  177.7120  148.3180 O   0  0  0  0  0  0  0  0  0  0  0  0
  187.8000  177.7050  145.7580 N   0  0  2  0  0  0  0  0  0  0  0  0
  186.9290  178.3100  147.9890 C   0  0  0  0  0  2  0  0  0  0  0  0
  187.9320  177.3200  148.5910 C   0  0  0  0  0  2  0  0  0  0  0  0
  189.6370  176.9460  147.2110 C   0  0  0  0  0  2  0  0  0  0  0  0
  1  5  1  0  0  0  0
  1  4  1  0  0  0  0
  1  3  1  1  0  0  0
  2  6  2  0  0  0  0
  3  6  1  0  0  0  0
  3  7  1  0  0  0  0
  4  7  1  1  0  0  0
  5 28  1  6  0  0  0
  5  4  1  0  0  0  0
  6 45  1  0  0  0  0
  8 10  1  0  0  0  0
  9  8  2  0  0  0  0
  9 12  1  0  0  0  0
 10 11  1  0  0  0  0
 11  2  1  0  0  0  0
 12 11  2  0  0  0  0
 13 15  1  0  0  0  0
 13 12  1  0  0  0  0
 14 15  2  0  0  0  0
 17 19  1  0  0  0  0
 17 18  1  0  0  0  0
 18 24  1  6  0  0  0
 18 23  1  0  0  0  0
 20 15  1  1  0  0  0
 20 19  1  0  0  0  0
 20 21  1  0  0  0  0
 21 22  1  0  0  0  0
 22 16  1  0  0  0  0
 23 16  1  0  0  0  0
 23 27  1  1  0  0  0
 27 25  2  0  0  0  0
 27 26  1  0  0  0  0
 29 28  1  0  0  0  0
 31 30  2  0  0  0  0
 31 29  1  0  0  0  0
 32 31  1  0  0  0  0
 33 32  1  0  0  0  0
 33 34  1  0  0  0  0
 34 35  1  0  0  0  0
 36 44  1  6  0  0  0
 36 37  1  0  0  0  0
 36 41  1  0  0  0  0
 37 39  1  1  0  0  0
 37 42  1  0  0  0  0
 40 43  1  0  0  0  0
 41 40  1  0  0  0  0
 42 35  1  6  0  0  0
 42 43  1  0  0  0  0
 43 38  1  6  0  0  0
 46 45  1  0  0  0  0
 46 51  1  0  0  0  0
 47 53  1  0  0  0  0
 48 47  2  0  0  0  0
 49 55  2  0  0  0  0
 50 48  1  0  0  0  0
 51 54  1  0  0  0  0
 52 48  1  0  0  0  0
 53 55  1  6  0  0  0
 53 59  1  0  0  0  0
 54 52  2  0  0  0  0
 54 49  1  0  0  0  0
 56 60  1  0  0  0  0
 57 62  1  0  0  0  0
 58 61  1  0  0  0  0
 59 57  1  6  0  0  0
 59 56  1  0  0  0  0
 60 61  1  0  0  0  0
 62 58  1  0  0  0  0
M  END
>  <MODEL>
9

>  <REMARK>
 VINA RESULT:      -5.7      3.459      9.822
  Name = 
  17 active torsions:
  status: ('A' for Active; 'I' for Inactive)
    1  A    between atoms: C_2  and  N_37
    2  A    between atoms: C_2  and  C_50
    3  A    between atoms: C_5  and  N_18
    4  A    between atoms: C_5  and  C_27
    5  A    between atoms: N_17  and  C_41
    6  A    between atoms: C_22  and  C_33
    7  A    between atoms: C_22  and  C_36
    8  A    between atoms: N_24  and  C_48
    9  A    between atoms: N_24  and  O_53
   10  A    between atoms: C_27  and  C_55
   11  A    between atoms: C_31  and  N_44
   12  A    between atoms: C_33  and  C_57
   13  A    between atoms: N_37  and  C_54
   14  A    between atoms: C_45  and  O_47
   15  A    between atoms: C_45  and  O_53
   16  A    between atoms: O_47  and  C_50
   17  A    between atoms: C_56  and  C_61
                            x       y       z     vdW  Elec       q    Type
                         _______ _______ _______ _____ _____    ______ ____

>  <TORSDO>
F 17

$$$$
