=
 OpenBabel10232412453D

 39 42  0  0  1  0  0  0  0  0999 V2000
  192.3990  174.4520  145.3380 N   0  0  0  0  0  2  0  0  0  0  0  0
  191.9600  175.4540  146.0220 C   0  0  0  0  0  0  0  0  0  0  0  0
  191.7510  177.8230  144.2230 O   0  0  0  0  0  0  0  0  0  0  0  0
  189.1390  176.9600  145.0490 C   0  0  0  0  0  0  0  0  0  0  0  0
  188.6630  177.4310  143.9220 C   0  0  0  0  0  0  0  0  0  0  0  0
  191.8210  176.2260  147.3440 N   0  0  0  0  0  2  0  0  0  0  0  0
  189.6050  178.1020  142.9480 C   0  0  1  0  0  3  0  0  0  0  0  0
  191.2630  176.6430  146.1400 C   0  0  1  0  0  0  0  0  0  0  0  0
  191.9370  177.8230  145.5930 N   0  0  0  0  0  2  0  0  0  0  0  0
  190.9230  179.9260  143.7750 O   0  0  0  0  0  0  0  0  0  0  0  0
  190.8190  178.6800  143.6310 C   0  0  0  0  0  0  0  0  0  0  0  0
  189.7670  176.5780  146.1250 C   0  0  0  0  0  3  0  0  0  0  0  0
  190.3590  175.9940  142.1050 O   0  0  0  0  0  0  0  0  0  0  0  0
  190.0440  177.6710  140.5000 N   0  0  0  0  0  2  0  0  0  0  0  0
  190.3900  176.8970  139.3470 C   0  0  0  0  0  0  0  0  0  0  0  0
  190.5360  175.6470  139.4340 O   0  0  0  0  0  0  0  0  0  0  0  0
  190.0060  177.1750  141.8420 C   0  0  0  0  0  0  0  0  0  0  0  0
  190.5530  177.6010  138.0340 C   0  0  0  0  0  2  0  0  0  0  0  0
  189.8580  176.8740  136.8890 C   0  0  0  0  0  2  0  0  0  0  0  0
  186.6340  178.0160  136.4470 C   0  0  1  0  0  3  0  0  0  0  0  0
  188.7960  177.7590  136.2590 C   0  0  1  0  0  3  0  0  0  0  0  0
  187.2170  179.1720  136.9940 O   0  0  0  0  0  0  0  0  0  0  0  0
  187.6090  177.0530  136.1580 O   0  0  0  0  0  0  0  0  0  0  0  0
  188.5460  178.9160  137.0870 N   0  0  0  0  0  2  0  0  0  0  0  0
  185.5680  177.4650  137.3920 C   0  0  1  0  0  3  0  0  0  0  0  0
  185.2430  178.4830  138.4700 C   0  0  0  0  0  1  0  0  0  0  0  0
  184.3040  177.0660  136.6380 C   0  0  0  0  0  2  0  0  0  0  0  0
  184.0190  175.5830  136.8060 C   0  0  0  0  0  2  0  0  0  0  0  0
  185.0890  174.9670  137.4550 O   0  0  0  0  0  0  0  0  0  0  0  0
  184.9020  173.6040  137.2320 C   0  0  0  0  0  1  0  0  0  0  0  0
  187.2780  177.2980  143.5860 N   0  0  0  0  0  2  0  0  0  0  0  0
  186.6280  178.0570  142.5210 C   0  0  0  0  0  2  0  0  0  0  0  0
  182.9440  178.7480  142.3150 N   0  0  0  0  0  0  0  0  0  0  0  0
  184.9020  178.6170  144.2560 C   0  0  0  0  0  3  0  0  0  0  0  0
  183.5830  178.9030  144.6100 C   0  0  0  0  0  0  0  0  0  0  0  0
  182.6050  178.9640  143.6150 C   0  0  0  0  0  3  0  0  0  0  0  0
  185.2310  178.4040  142.9160 C   0  0  0  0  0  0  0  0  0  0  0  0
  184.2250  178.4660  141.9500 C   0  0  0  0  0  3  0  0  0  0  0  0
  183.2510  179.0990  145.9100 F   0  0  0  0  0  0  0  0  0  0  0  0
  1  2  2  0  0  0  0
  2  8  1  0  0  0  0
  2  6  1  0  0  0  0
  3  9  1  0  0  0  0
  4 12  2  0  0  0  0
  5  4  2  0  0  0  0
  7 17  1  6  0  0  0
  7 11  1  0  0  0  0
  7  5  1  0  0  0  0
  8 12  1  6  0  0  0
  8  6  1  0  0  0  0
  9  8  1  0  0  0  0
 11 10  2  0  0  0  0
 11  3  1  0  0  0  0
 14 17  1  0  0  0  0
 15 16  2  0  0  0  0
 15 14  1  0  0  0  0
 17 13  2  0  0  0  0
 18 15  1  0  0  0  0
 19 18  1  0  0  0  0
 20 22  1  0  0  0  0
 20 25  1  1  0  0  0
 21 19  1  1  0  0  0
 21 24  1  0  0  0  0
 22 24  1  0  0  0  0
 23 21  1  0  0  0  0
 23 20  1  0  0  0  0
 25 26  1  1  0  0  0
 27 28  1  0  0  0  0
 27 25  1  0  0  0  0
 28 29  1  0  0  0  0
 30 29  1  0  0  0  0
 31  5  1  0  0  0  0
 32 37  1  0  0  0  0
 32 31  1  0  0  0  0
 33 36  1  0  0  0  0
 34 35  1  0  0  0  0
 35 39  1  0  0  0  0
 36 35  2  0  0  0  0
 37 34  2  0  0  0  0
 38 33  2  0  0  0  0
 38 37  1  0  0  0  0
M  END
>  <MODEL>
1

>  <REMARK>
 VINA RESULT:      -8.1      0.000      0.000
  Name = 
  11 active torsions:
  status: ('A' for Active; 'I' for Inactive)
    1  A    between atoms: C_3  and  C_25
    2  A    between atoms: C_4  and  C_23
    3  A    between atoms: C_8  and  C_27
    4  A    between atoms: C_8  and  N_34
    5  A    between atoms: C_13  and  C_25
    6  A    between atoms: C_13  and  C_31
    7  A    between atoms: O_14  and  C_31
    8  A    between atoms: C_15  and  N_34
    9  A    between atoms: C_20  and  C_32
   10  A    between atoms: C_21  and  C_38
   11  A    between atoms: C_23  and  C_38
                            x       y       z     vdW  Elec       q    Type
                         _______ _______ _______ _____ _____    ______ ____

>  <TORSDO>
F 11

$$$$
=
 OpenBabel10232412453D

 39 42  0  0  1  0  0  0  0  0999 V2000
  195.2680  175.5060  136.5850 N   0  0  0  0  0  2  0  0  0  0  0  0
  194.4370  174.9570  135.7650 C   0  0  0  0  0  0  0  0  0  0  0  0
  192.0590  174.0180  137.3000 O   0  0  0  0  0  0  0  0  0  0  0  0
  191.3330  176.1810  135.5560 C   0  0  0  0  0  0  0  0  0  0  0  0
  190.3900  176.5060  136.4060 C   0  0  0  0  0  0  0  0  0  0  0  0
  194.1290  174.1800  134.4750 N   0  0  0  0  0  2  0  0  0  0  0  0
  190.2010  175.6710  137.6530 C   0  0  1  0  0  3  0  0  0  0  0  0
  193.1560  174.6190  135.3660 C   0  0  1  0  0  0  0  0  0  0  0  0
  192.5390  173.5140  136.1050 N   0  0  0  0  0  2  0  0  0  0  0  0
  189.8650  173.3160  137.3550 O   0  0  0  0  0  0  0  0  0  0  0  0
  190.6920  174.2570  137.4740 C   0  0  0  0  0  0  0  0  0  0  0  0
  192.2890  175.7050  134.8090 C   0  0  0  0  0  3  0  0  0  0  0  0
  192.0200  176.7500  138.7710 O   0  0  0  0  0  0  0  0  0  0  0  0
  190.1180  176.3550  140.0800 N   0  0  0  0  0  2  0  0  0  0  0  0
  190.5960  176.9490  141.2920 C   0  0  0  0  0  0  0  0  0  0  0  0
  191.6580  177.6300  141.2970 O   0  0  0  0  0  0  0  0  0  0  0  0
  190.8410  176.3110  138.8460 C   0  0  0  0  0  0  0  0  0  0  0  0
  189.7960  176.7620  142.5450 C   0  0  0  0  0  2  0  0  0  0  0  0
  190.6340  176.2280  143.7010 C   0  0  0  0  0  2  0  0  0  0  0  0
  189.4030  177.7970  146.5150 C   0  0  1  0  0  3  0  0  0  0  0  0
  190.6850  177.2370  144.8360 C   0  0  1  0  0  3  0  0  0  0  0  0
  190.5290  177.1690  147.0730 O   0  0  0  0  0  0  0  0  0  0  0  0
  189.4030  177.6770  145.1190 O   0  0  0  0  0  0  0  0  0  0  0  0
  191.2090  176.6220  146.0350 N   0  0  0  0  0  2  0  0  0  0  0  0
  188.1240  177.2250  147.1240 C   0  0  1  0  0  3  0  0  0  0  0  0
  188.0030  177.6390  148.5790 C   0  0  0  0  0  1  0  0  0  0  0  0
  186.8890  177.6580  146.3410 C   0  0  0  0  0  2  0  0  0  0  0  0
  186.2180  178.8490  147.0040 C   0  0  0  0  0  2  0  0  0  0  0  0
  184.8370  178.7770  146.8170 O   0  0  0  0  0  0  0  0  0  0  0  0
  184.6640  178.8090  145.4340 C   0  0  0  0  0  1  0  0  0  0  0  0
  189.5540  177.6490  136.1900 N   0  0  0  0  0  2  0  0  0  0  0  0
  188.2790  177.5970  135.4810 C   0  0  0  0  0  2  0  0  0  0  0  0
  186.3110  178.4460  138.5630 N   0  0  0  0  0  0  0  0  0  0  0  0
  185.8690  177.2740  136.1040 C   0  0  0  0  0  3  0  0  0  0  0  0
  184.8160  177.4240  137.0070 C   0  0  0  0  0  0  0  0  0  0  0  0
  185.0580  178.0200  138.2470 C   0  0  0  0  0  3  0  0  0  0  0  0
  187.1480  177.7110  136.4480 C   0  0  0  0  0  0  0  0  0  0  0  0
  187.3510  178.3100  137.6940 C   0  0  0  0  0  3  0  0  0  0  0  0
  183.5670  177.0140  136.6770 F   0  0  0  0  0  0  0  0  0  0  0  0
  2  1  2  0  0  0  0
  3 11  1  0  0  0  0
  4  5  2  0  0  0  0
  5  7  1  0  0  0  0
  6  8  1  0  0  0  0
  6  2  1  0  0  0  0
  7 17  1  1  0  0  0
  8 12  1  6  0  0  0
  8  2  1  0  0  0  0
  8  9  1  0  0  0  0
  9  3  1  0  0  0  0
 10 11  2  0  0  0  0
 11  7  1  0  0  0  0
 12  4  2  0  0  0  0
 13 17  2  0  0  0  0
 14 15  1  0  0  0  0
 15 16  2  0  0  0  0
 15 18  1  0  0  0  0
 17 14  1  0  0  0  0
 18 19  1  0  0  0  0
 20 22  1  0  0  0  0
 20 25  1  1  0  0  0
 21 19  1  6  0  0  0
 21 23  1  0  0  0  0
 21 24  1  0  0  0  0
 23 20  1  0  0  0  0
 24 22  1  0  0  0  0
 25 26  1  1  0  0  0
 27 28  1  0  0  0  0
 27 25  1  0  0  0  0
 29 28  1  0  0  0  0
 30 29  1  0  0  0  0
 31  5  1  0  0  0  0
 32 31  1  0  0  0  0
 32 37  1  0  0  0  0
 34 37  2  0  0  0  0
 34 35  1  0  0  0  0
 35 36  2  0  0  0  0
 36 33  1  0  0  0  0
 37 38  1  0  0  0  0
 38 33  2  0  0  0  0
 39 35  1  0  0  0  0
M  END
>  <MODEL>
2

>  <REMARK>
 VINA RESULT:      -7.8      3.462      8.506
  Name = 
  11 active torsions:
  status: ('A' for Active; 'I' for Inactive)
    1  A    between atoms: C_3  and  C_25
    2  A    between atoms: C_4  and  C_23
    3  A    between atoms: C_8  and  C_27
    4  A    between atoms: C_8  and  N_34
    5  A    between atoms: C_13  and  C_25
    6  A    between atoms: C_13  and  C_31
    7  A    between atoms: O_14  and  C_31
    8  A    between atoms: C_15  and  N_34
    9  A    between atoms: C_20  and  C_32
   10  A    between atoms: C_21  and  C_38
   11  A    between atoms: C_23  and  C_38
                            x       y       z     vdW  Elec       q    Type
                         _______ _______ _______ _____ _____    ______ ____

>  <TORSDO>
F 11

$$$$
=
 OpenBabel10232412453D

 39 42  0  0  1  0  0  0  0  0999 V2000
  185.4200  175.3080  137.4100 N   0  0  0  0  0  2  0  0  0  0  0  0
  186.1950  175.7500  136.4770 C   0  0  0  0  0  0  0  0  0  0  0  0
  187.5340  178.2320  137.4450 O   0  0  0  0  0  0  0  0  0  0  0  0
  189.4530  176.1180  137.1290 C   0  0  0  0  0  0  0  0  0  0  0  0
  190.1660  176.6680  138.0800 C   0  0  0  0  0  0  0  0  0  0  0  0
  186.5550  175.9250  134.9940 N   0  0  0  0  0  2  0  0  0  0  0  0
  189.6800  177.9490  138.7210 C   0  0  1  0  0  3  0  0  0  0  0  0
  187.3250  176.4180  136.0420 C   0  0  1  0  0  0  0  0  0  0  0  0
  187.2650  177.8790  136.1350 N   0  0  0  0  0  2  0  0  0  0  0  0
  189.2170  179.7960  137.2640 O   0  0  0  0  0  0  0  0  0  0  0  0
  188.7850  178.7430  137.8030 C   0  0  0  0  0  0  0  0  0  0  0  0
  188.6440  175.7250  136.1860 C   0  0  0  0  0  3  0  0  0  0  0  0
  187.8550  178.1610  140.2540 O   0  0  0  0  0  0  0  0  0  0  0  0
  189.7020  176.9510  141.0380 N   0  0  0  0  0  2  0  0  0  0  0  0
  189.1730  176.6120  142.3250 C   0  0  0  0  0  0  0  0  0  0  0  0
  187.9580  176.8170  142.5930 O   0  0  0  0  0  0  0  0  0  0  0  0
  189.0020  177.6870  140.0300 C   0  0  0  0  0  0  0  0  0  0  0  0
  190.0890  175.9890  143.3340 C   0  0  0  0  0  2  0  0  0  0  0  0
  191.3320  176.8310  143.5950 C   0  0  0  0  0  2  0  0  0  0  0  0
  189.6670  177.8370  146.4440 C   0  0  1  0  0  3  0  0  0  0  0  0
  191.1990  177.5920  144.9040 C   0  0  1  0  0  3  0  0  0  0  0  0
  190.7000  177.0850  147.0310 O   0  0  0  0  0  0  0  0  0  0  0  0
  189.8850  177.9970  145.0700 O   0  0  0  0  0  0  0  0  0  0  0  0
  191.5360  176.7400  146.0210 N   0  0  0  0  0  2  0  0  0  0  0  0
  188.3150  177.1830  146.7230 C   0  0  1  0  0  3  0  0  0  0  0  0
  188.0610  177.1180  148.2180 C   0  0  0  0  0  1  0  0  0  0  0  0
  187.1810  177.9220  146.0210 C   0  0  0  0  0  2  0  0  0  0  0  0
  186.2740  178.6050  147.0300 C   0  0  0  0  0  2  0  0  0  0  0  0
  185.3030  179.3520  146.3610 O   0  0  0  0  0  0  0  0  0  0  0  0
  185.2330  178.7850  145.0890 C   0  0  0  0  0  1  0  0  0  0  0  0
  191.3810  176.0660  138.5430 N   0  0  0  0  0  2  0  0  0  0  0  0
  192.6630  176.2030  137.8580 C   0  0  0  0  0  2  0  0  0  0  0  0
  194.8020  173.1510  137.4030 N   0  0  0  0  0  0  0  0  0  0  0  0
  192.3310  174.0660  136.5810 C   0  0  0  0  0  3  0  0  0  0  0  0
  192.7780  172.8050  136.1840 C   0  0  0  0  0  0  0  0  0  0  0  0
  194.0300  172.3590  136.6100 C   0  0  0  0  0  3  0  0  0  0  0  0
  193.1390  174.8680  137.3890 C   0  0  0  0  0  0  0  0  0  0  0  0
  194.3820  174.3840  137.8020 C   0  0  0  0  0  3  0  0  0  0  0  0
  191.9960  172.0140  135.4100 F   0  0  0  0  0  0  0  0  0  0  0  0
  2  1  2  0  0  0  0
  3 11  1  0  0  0  0
  4  5  2  0  0  0  0
  5 31  1  0  0  0  0
  5  7  1  0  0  0  0
  6  8  1  0  0  0  0
  6  2  1  0  0  0  0
  7 17  1  1  0  0  0
  8  9  1  0  0  0  0
  8 12  1  1  0  0  0
  8  2  1  0  0  0  0
  9  3  1  0  0  0  0
 10 11  2  0  0  0  0
 11  7  1  0  0  0  0
 12  4  2  0  0  0  0
 14 15  1  0  0  0  0
 15 16  2  0  0  0  0
 15 18  1  0  0  0  0
 17 13  2  0  0  0  0
 17 14  1  0  0  0  0
 18 19  1  0  0  0  0
 20 25  1  6  0  0  0
 20 22  1  0  0  0  0
 21 19  1  6  0  0  0
 21 23  1  0  0  0  0
 21 24  1  0  0  0  0
 23 20  1  0  0  0  0
 24 22  1  0  0  0  0
 25 26  1  1  0  0  0
 27 25  1  0  0  0  0
 27 28  1  0  0  0  0
 29 28  1  0  0  0  0
 30 29  1  0  0  0  0
 32 31  1  0  0  0  0
 33 38  1  0  0  0  0
 34 37  1  0  0  0  0
 35 34  2  0  0  0  0
 35 36  1  0  0  0  0
 36 33  2  0  0  0  0
 37 38  2  0  0  0  0
 37 32  1  0  0  0  0
 39 35  1  0  0  0  0
M  END
>  <MODEL>
3

>  <REMARK>
 VINA RESULT:      -7.7      3.933      9.553
  Name = 
  11 active torsions:
  status: ('A' for Active; 'I' for Inactive)
    1  A    between atoms: C_3  and  C_25
    2  A    between atoms: C_4  and  C_23
    3  A    between atoms: C_8  and  C_27
    4  A    between atoms: C_8  and  N_34
    5  A    between atoms: C_13  and  C_25
    6  A    between atoms: C_13  and  C_31
    7  A    between atoms: O_14  and  C_31
    8  A    between atoms: C_15  and  N_34
    9  A    between atoms: C_20  and  C_32
   10  A    between atoms: C_21  and  C_38
   11  A    between atoms: C_23  and  C_38
                            x       y       z     vdW  Elec       q    Type
                         _______ _______ _______ _____ _____    ______ ____

>  <TORSDO>
F 11

$$$$
=
 OpenBabel10232412453D

 39 42  0  0  1  0  0  0  0  0999 V2000
  181.2060  174.7060  138.6510 N   0  0  0  0  0  2  0  0  0  0  0  0
  181.4580  175.3280  137.5490 C   0  0  0  0  0  0  0  0  0  0  0  0
  181.2270  178.2610  138.0340 O   0  0  0  0  0  0  0  0  0  0  0  0
  183.9550  177.5490  137.4860 C   0  0  0  0  0  0  0  0  0  0  0  0
  184.3340  178.5620  138.2270 C   0  0  0  0  0  0  0  0  0  0  0  0
  181.4610  175.4040  136.0140 N   0  0  0  0  0  2  0  0  0  0  0  0
  183.2820  179.4480  138.8570 C   0  0  1  0  0  3  0  0  0  0  0  0
  181.9290  176.4190  136.8410 C   0  0  1  0  0  0  0  0  0  0  0  0
  181.0490  177.5910  136.8370 N   0  0  0  0  0  2  0  0  0  0  0  0
  181.6580  180.4330  137.3940 O   0  0  0  0  0  0  0  0  0  0  0  0
  181.9860  179.4340  138.0870 C   0  0  0  0  0  0  0  0  0  0  0  0
  183.4110  176.6130  136.7620 C   0  0  0  0  0  3  0  0  0  0  0  0
  181.8780  178.9480  140.7290 O   0  0  0  0  0  0  0  0  0  0  0  0
  184.1780  178.9880  141.1710 N   0  0  0  0  0  2  0  0  0  0  0  0
  184.1100  178.6410  142.5580 C   0  0  0  0  0  0  0  0  0  0  0  0
  183.0270  178.2410  143.0670 O   0  0  0  0  0  0  0  0  0  0  0  0
  183.0520  179.0930  140.2940 C   0  0  0  0  0  0  0  0  0  0  0  0
  185.3560  178.7420  143.3840 C   0  0  0  0  0  2  0  0  0  0  0  0
  185.0980  179.3320  144.7650 C   0  0  0  0  0  2  0  0  0  0  0  0
  187.2690  177.5640  146.7780 C   0  0  1  0  0  3  0  0  0  0  0  0
  185.4430  178.3270  145.8510 C   0  0  1  0  0  3  0  0  0  0  0  0
  186.6260  178.3420  147.7570 O   0  0  0  0  0  0  0  0  0  0  0  0
  186.6380  177.7010  145.5360 O   0  0  0  0  0  0  0  0  0  0  0  0
  185.6230  178.9950  147.1190 N   0  0  0  0  0  2  0  0  0  0  0  0
  188.7490  177.9370  146.6970 C   0  0  1  0  0  3  0  0  0  0  0  0
  189.3400  178.0490  148.0910 C   0  0  0  0  0  1  0  0  0  0  0  0
  189.5340  176.9300  145.8640 C   0  0  0  0  0  2  0  0  0  0  0  0
  191.0100  177.2900  145.8290 C   0  0  0  0  0  2  0  0  0  0  0  0
  191.7730  176.1330  145.6680 O   0  0  0  0  0  0  0  0  0  0  0  0
  192.1490  175.7730  146.9610 C   0  0  0  0  0  1  0  0  0  0  0  0
  185.7190  178.8290  138.4730 N   0  0  0  0  0  2  0  0  0  0  0  0
  186.8070  178.0280  137.9190 C   0  0  0  0  0  2  0  0  0  0  0  0
  189.9890  176.9180  139.5740 N   0  0  0  0  0  0  0  0  0  0  0  0
  187.6800  178.2640  140.2620 C   0  0  0  0  0  3  0  0  0  0  0  0
  188.6790  178.0570  141.2130 C   0  0  0  0  0  0  0  0  0  0  0  0
  189.8410  177.3750  140.8470 C   0  0  0  0  0  3  0  0  0  0  0  0
  187.8460  177.7820  138.9620 C   0  0  0  0  0  0  0  0  0  0  0  0
  189.0260  177.1110  138.6310 C   0  0  0  0  0  3  0  0  0  0  0  0
  188.5330  178.5320  142.4740 F   0  0  0  0  0  0  0  0  0  0  0  0
  2  1  2  0  0  0  0
  3 11  1  0  0  0  0
  4  5  2  0  0  0  0
  5 31  1  0  0  0  0
  5  7  1  0  0  0  0
  6  8  1  0  0  0  0
  6  2  1  0  0  0  0
  7 17  1  1  0  0  0
  8 12  1  1  0  0  0
  8  2  1  0  0  0  0
  9  8  1  0  0  0  0
  9  3  1  0  0  0  0
 10 11  2  0  0  0  0
 11  7  1  0  0  0  0
 12  4  2  0  0  0  0
 14 15  1  0  0  0  0
 15 16  2  0  0  0  0
 15 18  1  0  0  0  0
 17 13  2  0  0  0  0
 17 14  1  0  0  0  0
 18 19  1  0  0  0  0
 20 25  1  6  0  0  0
 20 22  1  0  0  0  0
 21 19  1  6  0  0  0
 21 24  1  0  0  0  0
 23 21  1  0  0  0  0
 23 20  1  0  0  0  0
 24 22  1  0  0  0  0
 25 26  1  1  0  0  0
 27 25  1  0  0  0  0
 28 27  1  0  0  0  0
 29 28  1  0  0  0  0
 29 30  1  0  0  0  0
 32 31  1  0  0  0  0
 32 37  1  0  0  0  0
 33 36  1  0  0  0  0
 34 35  1  0  0  0  0
 35 39  1  0  0  0  0
 36 35  2  0  0  0  0
 37 34  2  0  0  0  0
 38 37  1  0  0  0  0
 38 33  2  0  0  0  0
M  END
>  <MODEL>
4

>  <REMARK>
 VINA RESULT:      -7.6      3.525      9.735
  Name = 
  11 active torsions:
  status: ('A' for Active; 'I' for Inactive)
    1  A    between atoms: C_3  and  C_25
    2  A    between atoms: C_4  and  C_23
    3  A    between atoms: C_8  and  C_27
    4  A    between atoms: C_8  and  N_34
    5  A    between atoms: C_13  and  C_25
    6  A    between atoms: C_13  and  C_31
    7  A    between atoms: O_14  and  C_31
    8  A    between atoms: C_15  and  N_34
    9  A    between atoms: C_20  and  C_32
   10  A    between atoms: C_21  and  C_38
   11  A    between atoms: C_23  and  C_38
                            x       y       z     vdW  Elec       q    Type
                         _______ _______ _______ _____ _____    ______ ____

>  <TORSDO>
F 11

$$$$
=
 OpenBabel10232412453D

 39 42  0  0  1  0  0  0  0  0999 V2000
  192.3940  174.5440  145.3810 N   0  0  0  0  0  2  0  0  0  0  0  0
  191.9480  175.5310  146.0820 C   0  0  0  0  0  0  0  0  0  0  0  0
  191.7360  177.9310  144.3230 O   0  0  0  0  0  0  0  0  0  0  0  0
  189.1250  177.0430  145.1240 C   0  0  0  0  0  0  0  0  0  0  0  0
  188.6510  177.5320  144.0040 C   0  0  0  0  0  0  0  0  0  0  0  0
  191.8000  176.2790  147.4160 N   0  0  0  0  0  2  0  0  0  0  0  0
  189.5940  178.2240  143.0450 C   0  0  1  0  0  3  0  0  0  0  0  0
  191.2450  176.7150  146.2170 C   0  0  1  0  0  0  0  0  0  0  0  0
  191.9170  177.9080  145.6940 N   0  0  0  0  0  2  0  0  0  0  0  0
  190.9010  180.0380  143.9100 O   0  0  0  0  0  0  0  0  0  0  0  0
  190.8030  178.7940  143.7430 C   0  0  0  0  0  0  0  0  0  0  0  0
  189.7500  176.6450  146.1960 C   0  0  0  0  0  3  0  0  0  0  0  0
  190.5380  176.2050  142.1760 O   0  0  0  0  0  0  0  0  0  0  0  0
  189.8370  177.7650  140.5750 N   0  0  0  0  0  2  0  0  0  0  0  0
  190.1660  177.0020  139.4100 C   0  0  0  0  0  0  0  0  0  0  0  0
  190.4880  175.7860  139.5100 O   0  0  0  0  0  0  0  0  0  0  0  0
  190.0030  177.3180  141.9250 C   0  0  0  0  0  0  0  0  0  0  0  0
  190.0980  177.6720  138.0720 C   0  0  0  0  0  2  0  0  0  0  0  0
  188.6660  177.9310  137.6180 C   0  0  0  0  0  2  0  0  0  0  0  0
  188.9470  174.9240  135.9530 C   0  0  1  0  0  3  0  0  0  0  0  0
  188.2180  176.8710  136.6260 C   0  0  1  0  0  3  0  0  0  0  0  0
  187.7770  174.6730  136.6910 O   0  0  0  0  0  0  0  0  0  0  0  0
  189.3300  176.2670  136.0640 O   0  0  0  0  0  0  0  0  0  0  0  0
  187.4550  175.8430  137.2960 N   0  0  0  0  0  2  0  0  0  0  0  0
  190.0650  173.9850  136.4010 C   0  0  1  0  0  3  0  0  0  0  0  0
  190.1310  172.7730  135.4900 C   0  0  0  0  0  1  0  0  0  0  0  0
  191.4120  174.6980  136.4390 C   0  0  0  0  0  2  0  0  0  0  0  0
  192.5360  173.7170  136.7250 C   0  0  0  0  0  2  0  0  0  0  0  0
  193.4370  174.2820  137.6280 O   0  0  0  0  0  0  0  0  0  0  0  0
  193.2670  175.6580  137.4850 C   0  0  0  0  0  1  0  0  0  0  0  0
  187.2680  177.3990  143.6590 N   0  0  0  0  0  2  0  0  0  0  0  0
  186.5320  178.3850  142.8720 C   0  0  0  0  0  2  0  0  0  0  0  0
  183.8240  179.1680  145.3510 N   0  0  0  0  0  0  0  0  0  0  0  0
  184.0360  178.5610  142.6670 C   0  0  0  0  0  3  0  0  0  0  0  0
  182.7850  178.8120  143.2310 C   0  0  0  0  0  0  0  0  0  0  0  0
  182.6970  179.1180  144.5910 C   0  0  0  0  0  3  0  0  0  0  0  0
  185.1810  178.6100  143.4640 C   0  0  0  0  0  0  0  0  0  0  0  0
  185.0540  178.9270  144.8190 C   0  0  0  0  0  3  0  0  0  0  0  0
  181.6690  178.7790  142.4630 F   0  0  0  0  0  0  0  0  0  0  0  0
  1  2  2  0  0  0  0
  2  8  1  0  0  0  0
  2  6  1  0  0  0  0
  3  9  1  0  0  0  0
  4 12  2  0  0  0  0
  5  4  2  0  0  0  0
  7 17  1  6  0  0  0
  7 11  1  0  0  0  0
  7  5  1  0  0  0  0
  8 12  1  6  0  0  0
  8  6  1  0  0  0  0
  9  8  1  0  0  0  0
 11 10  2  0  0  0  0
 11  3  1  0  0  0  0
 14 17  1  0  0  0  0
 15 16  2  0  0  0  0
 15 14  1  0  0  0  0
 17 13  2  0  0  0  0
 18 15  1  0  0  0  0
 19 18  1  0  0  0  0
 20 23  1  0  0  0  0
 20 25  1  1  0  0  0
 20 22  1  0  0  0  0
 21 24  1  0  0  0  0
 21 19  1  1  0  0  0
 22 24  1  0  0  0  0
 23 21  1  0  0  0  0
 25 26  1  6  0  0  0
 25 27  1  0  0  0  0
 27 28  1  0  0  0  0
 28 29  1  0  0  0  0
 30 29  1  0  0  0  0
 31  5  1  0  0  0  0
 32 37  1  0  0  0  0
 32 31  1  0  0  0  0
 34 35  2  0  0  0  0
 34 37  1  0  0  0  0
 35 36  1  0  0  0  0
 36 33  2  0  0  0  0
 37 38  2  0  0  0  0
 38 33  1  0  0  0  0
 39 35  1  0  0  0  0
M  END
>  <MODEL>
5

>  <REMARK>
 VINA RESULT:      -7.5      1.936      3.477
  Name = 
  11 active torsions:
  status: ('A' for Active; 'I' for Inactive)
    1  A    between atoms: C_3  and  C_25
    2  A    between atoms: C_4  and  C_23
    3  A    between atoms: C_8  and  C_27
    4  A    between atoms: C_8  and  N_34
    5  A    between atoms: C_13  and  C_25
    6  A    between atoms: C_13  and  C_31
    7  A    between atoms: O_14  and  C_31
    8  A    between atoms: C_15  and  N_34
    9  A    between atoms: C_20  and  C_32
   10  A    between atoms: C_21  and  C_38
   11  A    between atoms: C_23  and  C_38
                            x       y       z     vdW  Elec       q    Type
                         _______ _______ _______ _____ _____    ______ ____

>  <TORSDO>
F 11

$$$$
=
 OpenBabel10232412453D

 39 42  0  0  1  0  0  0  0  0999 V2000
  186.4330  174.2580  137.3360 N   0  0  0  0  0  2  0  0  0  0  0  0
  186.8190  175.0340  136.3800 C   0  0  0  0  0  0  0  0  0  0  0  0
  187.7940  177.5930  137.5610 O   0  0  0  0  0  0  0  0  0  0  0  0
  189.9730  176.1440  136.3780 C   0  0  0  0  0  0  0  0  0  0  0  0
  190.7750  176.7030  137.2510 C   0  0  0  0  0  0  0  0  0  0  0  0
  186.7290  175.5340  134.9300 N   0  0  0  0  0  2  0  0  0  0  0  0
  190.2070  177.6880  138.2480 C   0  0  1  0  0  3  0  0  0  0  0  0
  187.6210  176.0390  135.8690 C   0  0  1  0  0  0  0  0  0  0  0  0
  187.2720  177.3970  136.2950 N   0  0  0  0  0  2  0  0  0  0  0  0
  188.9860  179.5550  137.3720 O   0  0  0  0  0  0  0  0  0  0  0  0
  188.9520  178.3530  137.7440 C   0  0  0  0  0  0  0  0  0  0  0  0
  189.0500  175.7070  135.5690 C   0  0  0  0  0  3  0  0  0  0  0  0
  190.3630  175.8690  139.7940 O   0  0  0  0  0  0  0  0  0  0  0  0
  189.2440  177.7710  140.5790 N   0  0  0  0  0  2  0  0  0  0  0  0
  188.9620  177.2940  141.8990 C   0  0  0  0  0  0  0  0  0  0  0  0
  189.4930  176.2310  142.3240 O   0  0  0  0  0  0  0  0  0  0  0  0
  189.9730  177.0480  139.5820 C   0  0  0  0  0  0  0  0  0  0  0  0
  188.0410  178.0940  142.7690 C   0  0  0  0  0  2  0  0  0  0  0  0
  186.7020  177.4020  142.9970 C   0  0  0  0  0  2  0  0  0  0  0  0
  187.4260  177.6070  146.3630 C   0  0  1  0  0  3  0  0  0  0  0  0
  186.3470  177.3970  144.4740 C   0  0  1  0  0  3  0  0  0  0  0  0
  186.6520  178.7720  146.2200 O   0  0  0  0  0  0  0  0  0  0  0  0
  187.3850  176.8340  145.1970 O   0  0  0  0  0  0  0  0  0  0  0  0
  186.1650  178.7480  144.9550 N   0  0  0  0  0  2  0  0  0  0  0  0
  188.8610  177.9710  146.7430 C   0  0  1  0  0  3  0  0  0  0  0  0
  188.9710  178.1800  148.2420 C   0  0  0  0  0  1  0  0  0  0  0  0
  189.8480  176.9060  146.2790 C   0  0  0  0  0  2  0  0  0  0  0  0
  190.8440  177.4860  145.2890 C   0  0  0  0  0  2  0  0  0  0  0  0
  190.4580  178.7800  144.9340 O   0  0  0  0  0  0  0  0  0  0  0  0
  191.3450  179.1510  143.9240 C   0  0  0  0  0  1  0  0  0  0  0  0
  192.1690  176.3780  137.2960 N   0  0  0  0  0  2  0  0  0  0  0  0
  192.8390  175.5520  136.2960 C   0  0  0  0  0  2  0  0  0  0  0  0
  195.4740  173.9740  138.4560 N   0  0  0  0  0  0  0  0  0  0  0  0
  195.3310  175.3430  136.0640 C   0  0  0  0  0  3  0  0  0  0  0  0
  196.5620  174.8890  136.5370 C   0  0  0  0  0  0  0  0  0  0  0  0
  196.6160  174.1980  137.7490 C   0  0  0  0  0  3  0  0  0  0  0  0
  194.1710  175.1100  136.8050 C   0  0  0  0  0  0  0  0  0  0  0  0
  194.2630  174.4080  138.0100 C   0  0  0  0  0  3  0  0  0  0  0  0
  197.6920  175.0980  135.8190 F   0  0  0  0  0  0  0  0  0  0  0  0
  2  1  2  0  0  0  0
  3 11  1  0  0  0  0
  4  5  2  0  0  0  0
  5 31  1  0  0  0  0
  5  7  1  0  0  0  0
  6  8  1  0  0  0  0
  6  2  1  0  0  0  0
  7 17  1  1  0  0  0
  8 12  1  6  0  0  0
  8  9  1  0  0  0  0
  8  2  1  0  0  0  0
  9  3  1  0  0  0  0
 10 11  2  0  0  0  0
 11  7  1  0  0  0  0
 12  4  2  0  0  0  0
 14 15  1  0  0  0  0
 15 16  2  0  0  0  0
 15 18  1  0  0  0  0
 17 13  2  0  0  0  0
 17 14  1  0  0  0  0
 18 19  1  0  0  0  0
 20 25  1  6  0  0  0
 21 19  1  6  0  0  0
 21 24  1  0  0  0  0
 21 23  1  0  0  0  0
 22 20  1  0  0  0  0
 23 20  1  0  0  0  0
 24 22  1  0  0  0  0
 25 26  1  1  0  0  0
 27 25  1  0  0  0  0
 28 27  1  0  0  0  0
 29 28  1  0  0  0  0
 30 29  1  0  0  0  0
 32 37  1  0  0  0  0
 32 31  1  0  0  0  0
 34 35  2  0  0  0  0
 34 37  1  0  0  0  0
 35 36  1  0  0  0  0
 36 33  2  0  0  0  0
 37 38  2  0  0  0  0
 38 33  1  0  0  0  0
 39 35  1  0  0  0  0
M  END
>  <MODEL>
6

>  <REMARK>
 VINA RESULT:      -7.3      4.316      9.917
  Name = 
  11 active torsions:
  status: ('A' for Active; 'I' for Inactive)
    1  A    between atoms: C_3  and  C_25
    2  A    between atoms: C_4  and  C_23
    3  A    between atoms: C_8  and  C_27
    4  A    between atoms: C_8  and  N_34
    5  A    between atoms: C_13  and  C_25
    6  A    between atoms: C_13  and  C_31
    7  A    between atoms: O_14  and  C_31
    8  A    between atoms: C_15  and  N_34
    9  A    between atoms: C_20  and  C_32
   10  A    between atoms: C_21  and  C_38
   11  A    between atoms: C_23  and  C_38
                            x       y       z     vdW  Elec       q    Type
                         _______ _______ _______ _____ _____    ______ ____

>  <TORSDO>
F 11

$$$$
=
 OpenBabel10232412453D

 39 42  0  0  1  0  0  0  0  0999 V2000
  182.8260  176.0400  139.4670 N   0  0  0  0  0  2  0  0  0  0  0  0
  182.8980  175.5950  138.2580 C   0  0  0  0  0  0  0  0  0  0  0  0
  184.7340  177.3550  136.7000 O   0  0  0  0  0  0  0  0  0  0  0  0
  185.8870  174.7460  137.0270 C   0  0  0  0  0  0  0  0  0  0  0  0
  187.0740  175.2990  136.9690 C   0  0  0  0  0  0  0  0  0  0  0  0
  182.2850  174.8700  137.0500 N   0  0  0  0  0  2  0  0  0  0  0  0
  187.1810  176.7940  136.7640 C   0  0  1  0  0  3  0  0  0  0  0  0
  183.5700  175.4010  137.0650 C   0  0  1  0  0  0  0  0  0  0  0  0
  183.6930  176.5870  136.2120 N   0  0  0  0  0  2  0  0  0  0  0  0
  186.0650  177.7210  134.8550 O   0  0  0  0  0  0  0  0  0  0  0  0
  185.9760  177.3620  136.0590 C   0  0  0  0  0  0  0  0  0  0  0  0
  184.6430  174.3580  137.0310 C   0  0  0  0  0  3  0  0  0  0  0  0
  186.6360  178.4090  138.4430 O   0  0  0  0  0  0  0  0  0  0  0  0
  188.6130  177.2050  138.8000 N   0  0  0  0  0  2  0  0  0  0  0  0
  188.9710  177.7960  140.0540 C   0  0  0  0  0  0  0  0  0  0  0  0
  188.1540  178.5340  140.6710 O   0  0  0  0  0  0  0  0  0  0  0  0
  187.4300  177.5100  138.0550 C   0  0  0  0  0  0  0  0  0  0  0  0
  190.3240  177.5010  140.6250 C   0  0  0  0  0  2  0  0  0  0  0  0
  190.2670  176.5210  141.7910 C   0  0  0  0  0  2  0  0  0  0  0  0
  190.4420  177.4470  145.1090 C   0  0  1  0  0  3  0  0  0  0  0  0
  190.9580  177.1010  143.0130 C   0  0  1  0  0  3  0  0  0  0  0  0
  191.3990  176.4180  145.1040 O   0  0  0  0  0  0  0  0  0  0  0  0
  190.0260  177.7490  143.8060 O   0  0  0  0  0  0  0  0  0  0  0  0
  191.5480  176.0480  143.8080 N   0  0  0  0  0  2  0  0  0  0  0  0
  189.2600  177.0650  145.9980 C   0  0  1  0  0  3  0  0  0  0  0  0
  189.4820  177.5680  147.4130 C   0  0  0  0  0  1  0  0  0  0  0  0
  187.9460  177.5990  145.4420 C   0  0  0  0  0  2  0  0  0  0  0  0
  186.9920  177.9690  146.5650 C   0  0  0  0  0  2  0  0  0  0  0  0
  186.0740  178.9170  146.1120 O   0  0  0  0  0  0  0  0  0  0  0  0
  184.8330  178.4390  146.5310 C   0  0  0  0  0  1  0  0  0  0  0  0
  188.2670  174.5220  137.1240 N   0  0  0  0  0  2  0  0  0  0  0  0
  189.1880  174.2290  136.0300 C   0  0  0  0  0  2  0  0  0  0  0  0
  192.7950  173.3010  136.5040 N   0  0  0  0  0  0  0  0  0  0  0  0
  191.0370  175.2270  137.4060 C   0  0  0  0  0  3  0  0  0  0  0  0
  192.3660  175.2380  137.8310 C   0  0  0  0  0  0  0  0  0  0  0  0
  193.2410  174.2560  137.3640 C   0  0  0  0  0  3  0  0  0  0  0  0
  190.5950  174.2350  136.5290 C   0  0  0  0  0  0  0  0  0  0  0  0
  191.5030  173.2740  136.0770 C   0  0  0  0  0  3  0  0  0  0  0  0
  192.8070  176.2040  138.6730 F   0  0  0  0  0  0  0  0  0  0  0  0
  2  1  2  0  0  0  0
  4 12  2  0  0  0  0
  5  4  2  0  0  0  0
  5 31  1  0  0  0  0
  6  8  1  0  0  0  0
  6  2  1  0  0  0  0
  7  5  1  0  0  0  0
  7 17  1  1  0  0  0
  8 12  1  1  0  0  0
  8  2  1  0  0  0  0
  9  3  1  0  0  0  0
  9  8  1  0  0  0  0
 10 11  2  0  0  0  0
 11  3  1  0  0  0  0
 11  7  1  0  0  0  0
 14 15  1  0  0  0  0
 15 18  1  0  0  0  0
 15 16  2  0  0  0  0
 17 13  2  0  0  0  0
 17 14  1  0  0  0  0
 18 19  1  0  0  0  0
 20 25  1  1  0  0  0
 21 19  1  6  0  0  0
 21 23  1  0  0  0  0
 21 24  1  0  0  0  0
 22 20  1  0  0  0  0
 23 20  1  0  0  0  0
 24 22  1  0  0  0  0
 25 26  1  1  0  0  0
 27 25  1  0  0  0  0
 27 28  1  0  0  0  0
 29 30  1  0  0  0  0
 29 28  1  0  0  0  0
 32 37  1  0  0  0  0
 32 31  1  0  0  0  0
 33 36  1  0  0  0  0
 34 35  1  0  0  0  0
 35 39  1  0  0  0  0
 36 35  2  0  0  0  0
 37 34  2  0  0  0  0
 38 33  2  0  0  0  0
 38 37  1  0  0  0  0
M  END
>  <MODEL>
7

>  <REMARK>
 VINA RESULT:      -7.1      3.540      9.410
  Name = 
  11 active torsions:
  status: ('A' for Active; 'I' for Inactive)
    1  A    between atoms: C_3  and  C_25
    2  A    between atoms: C_4  and  C_23
    3  A    between atoms: C_8  and  C_27
    4  A    between atoms: C_8  and  N_34
    5  A    between atoms: C_13  and  C_25
    6  A    between atoms: C_13  and  C_31
    7  A    between atoms: O_14  and  C_31
    8  A    between atoms: C_15  and  N_34
    9  A    between atoms: C_20  and  C_32
   10  A    between atoms: C_21  and  C_38
   11  A    between atoms: C_23  and  C_38
                            x       y       z     vdW  Elec       q    Type
                         _______ _______ _______ _____ _____    ______ ____

>  <TORSDO>
F 11

$$$$
=
 OpenBabel10232412453D

 39 42  0  0  1  0  0  0  0  0999 V2000
  190.8420  180.4830  144.0890 N   0  0  0  0  0  2  0  0  0  0  0  0
  191.4080  179.3240  144.0420 C   0  0  0  0  0  0  0  0  0  0  0  0
  189.3180  177.2610  143.5210 O   0  0  0  0  0  0  0  0  0  0  0  0
  191.0850  177.4850  141.2690 C   0  0  0  0  0  0  0  0  0  0  0  0
  190.0950  177.1120  140.4960 C   0  0  0  0  0  0  0  0  0  0  0  0
  192.5160  178.3470  144.4630 N   0  0  0  0  0  2  0  0  0  0  0  0
  188.7560  176.7850  141.1200 C   0  0  1  0  0  3  0  0  0  0  0  0
  191.4910  178.0230  143.5810 C   0  0  1  0  0  0  0  0  0  0  0  0
  190.5280  177.0860  144.1670 N   0  0  0  0  0  2  0  0  0  0  0  0
  188.7300  175.1340  142.8590 O   0  0  0  0  0  0  0  0  0  0  0  0
  188.8870  176.3460  142.5570 C   0  0  0  0  0  0  0  0  0  0  0  0
  191.9630  177.8090  142.1760 C   0  0  0  0  0  3  0  0  0  0  0  0
  188.0270  178.8600  140.1800 O   0  0  0  0  0  0  0  0  0  0  0  0
  186.6600  177.9760  141.8640 N   0  0  0  0  0  2  0  0  0  0  0  0
  185.6550  178.9950  141.8460 C   0  0  0  0  0  0  0  0  0  0  0  0
  185.6320  179.8580  140.9270 O   0  0  0  0  0  0  0  0  0  0  0  0
  187.7970  177.9280  140.9970 C   0  0  0  0  0  0  0  0  0  0  0  0
  184.6200  179.0000  142.9310 C   0  0  0  0  0  2  0  0  0  0  0  0
  185.1690  179.4980  144.2620 C   0  0  0  0  0  2  0  0  0  0  0  0
  186.7710  177.5690  146.6310 C   0  0  1  0  0  3  0  0  0  0  0  0
  185.2600  178.3600  145.2640 C   0  0  1  0  0  3  0  0  0  0  0  0
  185.7770  178.1490  147.4370 O   0  0  0  0  0  0  0  0  0  0  0  0
  186.5510  177.8590  145.2780 O   0  0  0  0  0  0  0  0  0  0  0  0
  184.9620  178.8340  146.5960 N   0  0  0  0  0  2  0  0  0  0  0  0
  188.1550  178.0340  147.0830 C   0  0  1  0  0  3  0  0  0  0  0  0
  188.1140  178.4700  148.5370 C   0  0  0  0  0  1  0  0  0  0  0  0
  189.2030  176.9460  146.8810 C   0  0  0  0  0  2  0  0  0  0  0  0
  190.3480  177.1080  147.8670 C   0  0  0  0  0  2  0  0  0  0  0  0
  191.5670  177.0000  147.1960 O   0  0  0  0  0  0  0  0  0  0  0  0
  192.0410  175.7310  147.5220 C   0  0  0  0  0  1  0  0  0  0  0  0
  190.2470  177.0340  139.0750 N   0  0  0  0  0  2  0  0  0  0  0  0
  190.2960  175.7760  138.3340 C   0  0  0  0  0  2  0  0  0  0  0  0
  193.9860  176.1570  137.7540 N   0  0  0  0  0  0  0  0  0  0  0  0
  192.0310  174.2530  137.3460 C   0  0  0  0  0  3  0  0  0  0  0  0
  193.3520  173.9870  136.9870 C   0  0  0  0  0  0  0  0  0  0  0  0
  194.3280  174.9620  137.2020 C   0  0  0  0  0  3  0  0  0  0  0  0
  191.6970  175.4870  137.9060 C   0  0  0  0  0  0  0  0  0  0  0  0
  192.7020  176.4350  138.1120 C   0  0  0  0  0  3  0  0  0  0  0  0
  193.6890  172.7870  136.4550 F   0  0  0  0  0  0  0  0  0  0  0  0
  2  1  2  0  0  0  0
  2  6  1  0  0  0  0
  3  9  1  0  0  0  0
  4 12  2  0  0  0  0
  5  7  1  0  0  0  0
  5  4  2  0  0  0  0
  7 17  1  1  0  0  0
  7 11  1  0  0  0  0
  8 12  1  6  0  0  0
  8  2  1  0  0  0  0
  8  9  1  0  0  0  0
  8  6  1  0  0  0  0
 11 10  2  0  0  0  0
 11  3  1  0  0  0  0
 13 17  2  0  0  0  0
 15 14  1  0  0  0  0
 15 18  1  0  0  0  0
 16 15  2  0  0  0  0
 17 14  1  0  0  0  0
 18 19  1  0  0  0  0
 20 25  1  1  0  0  0
 20 22  1  0  0  0  0
 21 19  1  6  0  0  0
 21 23  1  0  0  0  0
 21 24  1  0  0  0  0
 23 20  1  0  0  0  0
 24 22  1  0  0  0  0
 25 26  1  1  0  0  0
 27 25  1  0  0  0  0
 27 28  1  0  0  0  0
 29 30  1  0  0  0  0
 29 28  1  0  0  0  0
 31  5  1  0  0  0  0
 32 31  1  0  0  0  0
 33 38  1  0  0  0  0
 34 37  1  0  0  0  0
 35 36  1  0  0  0  0
 35 34  2  0  0  0  0
 36 33  2  0  0  0  0
 37 38  2  0  0  0  0
 37 32  1  0  0  0  0
 39 35  1  0  0  0  0
M  END
>  <MODEL>
8

>  <REMARK>
 VINA RESULT:      -7.0      3.924      8.569
  Name = 
  11 active torsions:
  status: ('A' for Active; 'I' for Inactive)
    1  A    between atoms: C_3  and  C_25
    2  A    between atoms: C_4  and  C_23
    3  A    between atoms: C_8  and  C_27
    4  A    between atoms: C_8  and  N_34
    5  A    between atoms: C_13  and  C_25
    6  A    between atoms: C_13  and  C_31
    7  A    between atoms: O_14  and  C_31
    8  A    between atoms: C_15  and  N_34
    9  A    between atoms: C_20  and  C_32
   10  A    between atoms: C_21  and  C_38
   11  A    between atoms: C_23  and  C_38
                            x       y       z     vdW  Elec       q    Type
                         _______ _______ _______ _____ _____    ______ ____

>  <TORSDO>
F 11

$$$$
=
 OpenBabel10232412453D

 39 42  0  0  1  0  0  0  0  0999 V2000
  187.0770  178.7130  140.2900 N   0  0  0  0  0  2  0  0  0  0  0  0
  186.5810  178.4570  139.1270 C   0  0  0  0  0  0  0  0  0  0  0  0
  188.7770  178.5470  137.1110 O   0  0  0  0  0  0  0  0  0  0  0  0
  187.7860  175.8660  137.3930 C   0  0  0  0  0  0  0  0  0  0  0  0
  188.9760  175.4270  137.0600 C   0  0  0  0  0  0  0  0  0  0  0  0
  185.4200  178.4850  138.1200 N   0  0  0  0  0  2  0  0  0  0  0  0
  190.0630  176.4240  136.7280 C   0  0  1  0  0  3  0  0  0  0  0  0
  186.6740  177.9540  137.8410 C   0  0  1  0  0  0  0  0  0  0  0  0
  187.4310  178.7810  136.8970 N   0  0  0  0  0  2  0  0  0  0  0  0
  189.5900  178.0340  135.0160 O   0  0  0  0  0  0  0  0  0  0  0  0
  189.5060  177.7350  136.2370 C   0  0  0  0  0  0  0  0  0  0  0  0
  186.6640  176.4670  137.6720 C   0  0  0  0  0  3  0  0  0  0  0  0
  192.2270  176.4680  137.7480 O   0  0  0  0  0  0  0  0  0  0  0  0
  190.4310  176.9710  139.1640 N   0  0  0  0  0  2  0  0  0  0  0  0
  191.1910  177.2210  140.3510 C   0  0  0  0  0  0  0  0  0  0  0  0
  192.4470  177.3170  140.3010 O   0  0  0  0  0  0  0  0  0  0  0  0
  190.9860  176.6380  137.8880 C   0  0  0  0  0  0  0  0  0  0  0  0
  190.4580  177.3870  141.6480 C   0  0  0  0  0  2  0  0  0  0  0  0
  190.8820  176.3650  142.6960 C   0  0  0  0  0  2  0  0  0  0  0  0
  190.3750  177.6020  145.8750 C   0  0  1  0  0  3  0  0  0  0  0  0
  191.3130  177.0580  143.9780 C   0  0  1  0  0  3  0  0  0  0  0  0
  191.2900  176.5760  146.1680 O   0  0  0  0  0  0  0  0  0  0  0  0
  190.2490  177.7790  144.4920 O   0  0  0  0  0  0  0  0  0  0  0  0
  191.7010  176.0850  144.9730 N   0  0  0  0  0  2  0  0  0  0  0  0
  189.0250  177.3070  146.5270 C   0  0  1  0  0  3  0  0  0  0  0  0
  188.9630  177.9250  147.9120 C   0  0  0  0  0  1  0  0  0  0  0  0
  187.8690  177.8070  145.6680 C   0  0  0  0  0  2  0  0  0  0  0  0
  186.5810  177.8620  146.4720 C   0  0  0  0  0  2  0  0  0  0  0  0
  185.9400  179.0820  146.2530 O   0  0  0  0  0  0  0  0  0  0  0  0
  185.2740  178.9210  145.0390 C   0  0  0  0  0  1  0  0  0  0  0  0
  189.2710  174.0260  137.0320 N   0  0  0  0  0  2  0  0  0  0  0  0
  189.6740  173.3090  135.8250 C   0  0  0  0  0  2  0  0  0  0  0  0
  188.1750  170.0920  134.5980 N   0  0  0  0  0  0  0  0  0  0  0  0
  187.3380  172.3890  135.8780 C   0  0  0  0  0  3  0  0  0  0  0  0
  186.4250  171.3710  135.5990 C   0  0  0  0  0  0  0  0  0  0  0  0
  186.8670  170.2160  134.9520 C   0  0  0  0  0  3  0  0  0  0  0  0
  188.6740  172.2480  135.5010 C   0  0  0  0  0  0  0  0  0  0  0  0
  189.0800  171.0750  134.8610 C   0  0  0  0  0  3  0  0  0  0  0  0
  185.1280  171.4930  135.9720 F   0  0  0  0  0  0  0  0  0  0  0  0
  2  1  2  0  0  0  0
  4 12  2  0  0  0  0
  5  4  2  0  0  0  0
  6  2  1  0  0  0  0
  7  5  1  0  0  0  0
  7 17  1  1  0  0  0
  8 12  1  6  0  0  0
  8  6  1  0  0  0  0
  8  2  1  0  0  0  0
  9  3  1  0  0  0  0
  9  8  1  0  0  0  0
 10 11  2  0  0  0  0
 11  7  1  0  0  0  0
 11  3  1  0  0  0  0
 13 17  2  0  0  0  0
 14 15  1  0  0  0  0
 15 18  1  0  0  0  0
 16 15  2  0  0  0  0
 17 14  1  0  0  0  0
 18 19  1  0  0  0  0
 20 22  1  0  0  0  0
 20 25  1  6  0  0  0
 21 19  1  6  0  0  0
 21 23  1  0  0  0  0
 21 24  1  0  0  0  0
 23 20  1  0  0  0  0
 24 22  1  0  0  0  0
 25 26  1  1  0  0  0
 27 28  1  0  0  0  0
 27 25  1  0  0  0  0
 29 28  1  0  0  0  0
 30 29  1  0  0  0  0
 31  5  1  0  0  0  0
 32 31  1  0  0  0  0
 33 38  2  0  0  0  0
 33 36  1  0  0  0  0
 35 34  1  0  0  0  0
 35 39  1  0  0  0  0
 36 35  2  0  0  0  0
 37 32  1  0  0  0  0
 37 34  2  0  0  0  0
 38 37  1  0  0  0  0
M  END
>  <MODEL>
9

>  <REMARK>
 VINA RESULT:      -7.0      3.598      8.985
  Name = 
  11 active torsions:
  status: ('A' for Active; 'I' for Inactive)
    1  A    between atoms: C_3  and  C_25
    2  A    between atoms: C_4  and  C_23
    3  A    between atoms: C_8  and  C_27
    4  A    between atoms: C_8  and  N_34
    5  A    between atoms: C_13  and  C_25
    6  A    between atoms: C_13  and  C_31
    7  A    between atoms: O_14  and  C_31
    8  A    between atoms: C_15  and  N_34
    9  A    between atoms: C_20  and  C_32
   10  A    between atoms: C_21  and  C_38
   11  A    between atoms: C_23  and  C_38
                            x       y       z     vdW  Elec       q    Type
                         _______ _______ _______ _____ _____    ______ ____

>  <TORSDO>
F 11

$$$$
