=
 OpenBabel10232408363D

 28 32  0  0  1  0  0  0  0  0999 V2000
  186.3210  178.0390  143.8840 C   0  0  1  0  0  3  0  0  0  0  0  0
  190.0830  176.4240  144.1030 O   0  0  0  0  0  0  0  0  0  0  0  0
  189.1000  177.4050  144.1840 C   0  0  1  0  0  0  0  0  0  0  0  0
  186.0870  178.2050  146.7580 S   0  0  0  0  0  0  0  0  0  0  0  0
  189.0190  176.6990  142.0320 O   0  0  0  0  0  0  0  0  0  0  0  0
  187.2550  178.0560  142.8040 O   0  0  0  0  0  0  0  0  0  0  0  0
  189.3970  176.3700  147.3630 C   0  0  0  0  0  1  0  0  0  0  0  0
  190.0680  176.0490  142.7290 C   0  0  1  0  0  3  0  0  0  0  0  0
  187.6820  178.1380  147.5830 C   0  0  0  0  0  0  0  0  0  0  0  0
  189.7340  178.7910  144.0000 C   0  0  0  0  0  1  0  0  0  0  0  0
  188.1780  177.0310  143.0770 C   0  0  2  0  0  3  0  0  0  0  0  0
  187.8380  178.5930  148.7040 O   0  0  0  0  0  0  0  0  0  0  0  0
  187.0510  178.3300  145.2290 C   0  0  1  0  0  3  0  0  0  0  0  0
  188.8330  177.6450  146.7650 C   0  0  2  0  0  3  0  0  0  0  0  0
  188.2080  177.3450  145.4160 C   0  0  2  0  0  3  0  0  0  0  0  0
  183.8290  178.4860  143.8960 C   0  0  0  0  0  1  0  0  0  0  0  0
  185.2070  179.0640  143.6160 C   0  0  2  0  0  3  0  0  0  0  0  0
  184.5840  179.0310  141.1120 C   0  0  0  0  0  0  0  0  0  0  0  0
  184.7330  179.6250  139.8960 N   0  0  0  0  0  0  0  0  0  0  0  0
  183.7800  177.8860  141.2260 C   0  0  0  0  0  3  0  0  0  0  0  0
  185.2590  179.5860  142.2490 N   0  0  0  0  0  2  0  0  0  0  0  0
  183.3140  178.0070  138.8610 C   0  0  0  0  0  3  0  0  0  0  0  0
  184.1210  179.1430  138.7810 C   0  0  0  0  0  3  0  0  0  0  0  0
  183.1450  177.3770  140.0940 C   0  0  0  0  0  3  0  0  0  0  0  0
  191.4080  176.3810  142.0910 C   0  0  0  0  0  2  0  0  0  0  0  0
  191.2250  177.3890  140.9740 C   0  0  0  0  0  3  0  0  0  0  0  0
  192.4130  177.5440  140.2960 O   0  0  0  0  0  0  0  0  0  0  0  0
  191.4490  176.7790  139.7610 O   0  0  0  0  0  0  0  0  0  0  0  0
  1 17  1  6  0  0  0
  1 13  1  0  0  0  0
  2  3  1  0  0  0  0
  3 10  1  6  0  0  0
  3 15  1  0  0  0  0
  4  9  1  0  0  0  0
  5  8  1  0  0  0  0
  6 11  1  0  0  0  0
  6  1  1  0  0  0  0
  8 25  1  6  0  0  0
  8  2  1  0  0  0  0
  9 12  2  0  0  0  0
 11  5  1  6  0  0  0
 11  3  1  0  0  0  0
 13 15  1  0  0  0  0
 13  4  1  1  0  0  0
 14  7  1  1  0  0  0
 14  9  1  0  0  0  0
 15 14  1  0  0  0  0
 17 16  1  0  0  0  0
 18 20  1  0  0  0  0
 18 21  1  0  0  0  0
 19 18  2  0  0  0  0
 21 17  1  0  0  0  0
 22 24  1  0  0  0  0
 23 22  2  0  0  0  0
 23 19  1  0  0  0  0
 24 20  2  0  0  0  0
 26 25  1  0  0  0  0
 27 26  1  0  0  0  0
 28 27  1  0  0  0  0
 28 26  1  0  0  0  0
M  END
>  <MODEL>
1

>  <REMARK>
 VINA RESULT:      -8.6      0.000      0.000
  Name = 
  4 active torsions:
  status: ('A' for Active; 'I' for Inactive)
    1  A    between atoms: C_1  and  C_17
    2  A    between atoms: C_9  and  C_19
    3  A    between atoms: N_12  and  C_17
    4  A    between atoms: C_14  and  C_19
                            x       y       z     vdW  Elec       q    Type
                         _______ _______ _______ _____ _____    ______ ____

>  <TORSDO>
F 4

$$$$
=
 OpenBabel10232408363D

 28 32  0  0  1  0  0  0  0  0999 V2000
  187.9920  178.1740  142.3810 C   0  0  1  0  0  3  0  0  0  0  0  0
  191.7160  176.9820  143.6140 O   0  0  0  0  0  0  0  0  0  0  0  0
  190.4630  176.8710  143.0180 C   0  0  1  0  0  0  0  0  0  0  0  0
  188.8040  178.2750  139.6100 S   0  0  0  0  0  0  0  0  0  0  0  0
  190.0180  177.4040  145.1750 O   0  0  0  0  0  0  0  0  0  0  0  0
  188.2450  177.5300  143.6290 O   0  0  0  0  0  0  0  0  0  0  0  0
  192.4790  177.5530  140.4210 C   0  0  0  0  0  1  0  0  0  0  0  0
  191.4130  177.2410  144.9820 C   0  0  1  0  0  3  0  0  0  0  0  0
  190.2900  177.3180  139.2930 C   0  0  0  0  0  0  0  0  0  0  0  0
  190.0270  175.3990  142.9980 C   0  0  0  0  0  1  0  0  0  0  0  0
  189.6130  177.7230  143.8930 C   0  0  2  0  0  3  0  0  0  0  0  0
  190.5520  176.9000  138.1780 O   0  0  0  0  0  0  0  0  0  0  0  0
  188.8460  177.5170  141.2550 C   0  0  1  0  0  3  0  0  0  0  0  0
  191.0980  176.9280  140.4910 C   0  0  2  0  0  3  0  0  0  0  0  0
  190.3240  177.5250  141.6510 C   0  0  2  0  0  3  0  0  0  0  0  0
  186.0920  179.1190  141.0000 C   0  0  0  0  0  1  0  0  0  0  0  0
  186.4910  178.1060  142.0610 C   0  0  2  0  0  3  0  0  0  0  0  0
  184.2470  178.4930  143.2760 C   0  0  0  0  0  0  0  0  0  0  0  0
  183.6150  178.6540  144.4700 N   0  0  0  0  0  0  0  0  0  0  0  0
  183.4990  178.5360  142.0890 C   0  0  0  0  0  3  0  0  0  0  0  0
  185.6660  178.2880  143.2570 N   0  0  0  0  0  2  0  0  0  0  0  0
  181.5000  178.9030  143.3900 C   0  0  0  0  0  3  0  0  0  0  0  0
  182.2720  178.8540  144.5520 C   0  0  0  0  0  3  0  0  0  0  0  0
  182.1210  178.7420  142.1520 C   0  0  0  0  0  3  0  0  0  0  0  0
  191.9340  176.1050  145.8480 C   0  0  0  0  0  2  0  0  0  0  0  0
  191.3590  176.2030  147.2480 C   0  0  0  0  0  3  0  0  0  0  0  0
  192.3470  175.9360  148.1690 O   0  0  0  0  0  0  0  0  0  0  0  0
  191.9950  177.2100  147.9370 O   0  0  0  0  0  0  0  0  0  0  0  0
  1 17  1  6  0  0  0
  1  6  1  0  0  0  0
  2  8  1  0  0  0  0
  3 10  1  6  0  0  0
  3  2  1  0  0  0  0
  3 11  1  0  0  0  0
  8  5  1  0  0  0  0
  8 25  1  1  0  0  0
  9  4  1  0  0  0  0
  9 14  1  0  0  0  0
 11  6  1  1  0  0  0
 11  5  1  0  0  0  0
 12  9  2  0  0  0  0
 13  4  1  6  0  0  0
 13 15  1  0  0  0  0
 13  1  1  0  0  0  0
 14  7  1  6  0  0  0
 14 15  1  0  0  0  0
 15  3  1  0  0  0  0
 16 17  1  0  0  0  0
 17 21  1  0  0  0  0
 18 19  2  0  0  0  0
 19 23  1  0  0  0  0
 20 24  2  0  0  0  0
 20 18  1  0  0  0  0
 21 18  1  0  0  0  0
 22 23  2  0  0  0  0
 24 22  1  0  0  0  0
 25 26  1  0  0  0  0
 26 28  1  0  0  0  0
 26 27  1  0  0  0  0
 28 27  1  0  0  0  0
M  END
>  <MODEL>
2

>  <REMARK>
 VINA RESULT:      -8.2      2.651      5.190
  Name = 
  4 active torsions:
  status: ('A' for Active; 'I' for Inactive)
    1  A    between atoms: C_1  and  C_17
    2  A    between atoms: C_9  and  C_19
    3  A    between atoms: N_12  and  C_17
    4  A    between atoms: C_14  and  C_19
                            x       y       z     vdW  Elec       q    Type
                         _______ _______ _______ _____ _____    ______ ____

>  <TORSDO>
F 4

$$$$
=
 OpenBabel10232408363D

 28 32  0  0  1  0  0  0  0  0999 V2000
  186.6660  177.7480  144.5160 C   0  0  1  0  0  3  0  0  0  0  0  0
  190.4940  176.4800  143.7720 O   0  0  0  0  0  0  0  0  0  0  0  0
  189.4780  177.3680  144.1130 C   0  0  1  0  0  0  0  0  0  0  0  0
  187.1330  177.8920  147.3630 S   0  0  0  0  0  0  0  0  0  0  0  0
  188.9330  176.6570  142.0310 O   0  0  0  0  0  0  0  0  0  0  0  0
  187.3010  177.8480  143.2410 O   0  0  0  0  0  0  0  0  0  0  0  0
  190.6380  176.3640  147.0990 C   0  0  0  0  0  1  0  0  0  0  0  0
  190.1740  176.1050  142.4350 C   0  0  1  0  0  3  0  0  0  0  0  0
  188.8800  177.9700  147.7710 C   0  0  0  0  0  0  0  0  0  0  0  0
  189.9230  178.8050  143.8090 C   0  0  0  0  0  1  0  0  0  0  0  0
  188.3490  176.9110  143.2570 C   0  0  2  0  0  3  0  0  0  0  0  0
  189.2670  178.4380  148.8290 O   0  0  0  0  0  0  0  0  0  0  0  0
  187.6760  178.1030  145.6470 C   0  0  1  0  0  3  0  0  0  0  0  0
  189.8340  177.5830  146.6850 C   0  0  2  0  0  3  0  0  0  0  0  0
  188.9260  177.2270  145.5240 C   0  0  2  0  0  3  0  0  0  0  0  0
  184.4630  178.2660  145.6510 C   0  0  0  0  0  1  0  0  0  0  0  0
  185.4350  178.6670  144.5520 C   0  0  2  0  0  3  0  0  0  0  0  0
  183.3200  178.7530  143.0760 C   0  0  0  0  0  0  0  0  0  0  0  0
  182.8180  178.7780  141.8110 N   0  0  0  0  0  0  0  0  0  0  0  0
  182.4390  178.7680  144.1680 C   0  0  0  0  0  3  0  0  0  0  0  0
  184.7410  178.7050  143.2630 N   0  0  0  0  0  2  0  0  0  0  0  0
  180.5770  178.8360  142.6340 C   0  0  0  0  0  3  0  0  0  0  0  0
  181.4800  178.8200  141.5700 C   0  0  0  0  0  3  0  0  0  0  0  0
  181.0630  178.8100  143.9410 C   0  0  0  0  0  3  0  0  0  0  0  0
  191.2820  176.5570  141.4960 C   0  0  0  0  0  2  0  0  0  0  0  0
  190.6990  176.9930  140.1660 C   0  0  0  0  0  3  0  0  0  0  0  0
  191.6550  176.8650  139.1830 O   0  0  0  0  0  0  0  0  0  0  0  0
  190.6990  175.9290  139.2920 O   0  0  0  0  0  0  0  0  0  0  0  0
  1 17  1  6  0  0  0
  1 13  1  0  0  0  0
  2  3  1  0  0  0  0
  3 10  1  6  0  0  0
  3 15  1  0  0  0  0
  4  9  1  0  0  0  0
  5  8  1  0  0  0  0
  6 11  1  0  0  0  0
  6  1  1  0  0  0  0
  8 25  1  6  0  0  0
  8  2  1  0  0  0  0
  9 12  2  0  0  0  0
 11  5  1  6  0  0  0
 11  3  1  0  0  0  0
 13  4  1  1  0  0  0
 14  7  1  1  0  0  0
 14  9  1  0  0  0  0
 15 13  1  0  0  0  0
 15 14  1  0  0  0  0
 17 16  1  0  0  0  0
 18 21  1  0  0  0  0
 18 20  1  0  0  0  0
 19 18  2  0  0  0  0
 21 17  1  0  0  0  0
 22 24  1  0  0  0  0
 23 19  1  0  0  0  0
 23 22  2  0  0  0  0
 24 20  2  0  0  0  0
 26 25  1  0  0  0  0
 27 28  1  0  0  0  0
 27 26  1  0  0  0  0
 28 26  1  0  0  0  0
M  END
>  <MODEL>
3

>  <REMARK>
 VINA RESULT:      -8.2      1.580      1.943
  Name = 
  4 active torsions:
  status: ('A' for Active; 'I' for Inactive)
    1  A    between atoms: C_1  and  C_17
    2  A    between atoms: C_9  and  C_19
    3  A    between atoms: N_12  and  C_17
    4  A    between atoms: C_14  and  C_19
                            x       y       z     vdW  Elec       q    Type
                         _______ _______ _______ _____ _____    ______ ____

>  <TORSDO>
F 4

$$$$
=
 OpenBabel10232408363D

 28 32  0  0  1  0  0  0  0  0999 V2000
  186.5250  177.7540  144.0880 C   0  0  1  0  0  3  0  0  0  0  0  0
  190.4270  176.5440  143.7440 O   0  0  0  0  0  0  0  0  0  0  0  0
  189.3690  177.4160  143.9790 C   0  0  1  0  0  0  0  0  0  0  0  0
  186.6910  177.8940  146.9680 S   0  0  0  0  0  0  0  0  0  0  0  0
  189.0540  176.7060  141.8500 O   0  0  0  0  0  0  0  0  0  0  0  0
  187.2880  177.8690  142.8860 O   0  0  0  0  0  0  0  0  0  0  0  0
  190.2260  176.4170  147.0670 C   0  0  0  0  0  1  0  0  0  0  0  0
  190.2550  176.1700  142.3790 C   0  0  1  0  0  3  0  0  0  0  0  0
  188.3850  177.9950  147.5560 C   0  0  0  0  0  0  0  0  0  0  0  0
  189.8220  178.8610  143.7270 C   0  0  0  0  0  1  0  0  0  0  0  0
  188.3420  176.9470  143.0090 C   0  0  2  0  0  3  0  0  0  0  0  0
  188.6530  178.4640  148.6500 O   0  0  0  0  0  0  0  0  0  0  0  0
  187.4070  178.1200  145.3190 C   0  0  1  0  0  3  0  0  0  0  0  0
  189.4520  177.6260  146.5740 C   0  0  2  0  0  3  0  0  0  0  0  0
  188.6750  177.2620  145.3250 C   0  0  2  0  0  3  0  0  0  0  0  0
  184.7180  178.9780  145.3720 C   0  0  0  0  0  1  0  0  0  0  0  0
  185.2840  178.6560  143.9980 C   0  0  2  0  0  3  0  0  0  0  0  0
  184.0840  178.2770  141.7440 C   0  0  0  0  0  0  0  0  0  0  0  0
  183.0560  177.6660  141.0930 N   0  0  0  0  0  0  0  0  0  0  0  0
  184.9640  179.1000  141.0250 C   0  0  0  0  0  3  0  0  0  0  0  0
  184.2400  178.0690  143.1550 N   0  0  0  0  0  2  0  0  0  0  0  0
  183.7120  178.6400  139.0130 C   0  0  0  0  0  3  0  0  0  0  0  0
  182.8550  177.8280  139.7580 C   0  0  0  0  0  3  0  0  0  0  0  0
  184.7730  179.2780  139.6550 C   0  0  0  0  0  3  0  0  0  0  0  0
  191.4470  176.6410  141.5620 C   0  0  0  0  0  2  0  0  0  0  0  0
  190.9900  177.1480  140.2080 C   0  0  0  0  0  3  0  0  0  0  0  0
  191.9460  176.8510  139.2620 O   0  0  0  0  0  0  0  0  0  0  0  0
  190.8460  176.0870  139.3440 O   0  0  0  0  0  0  0  0  0  0  0  0
  1 17  1  6  0  0  0
  1 13  1  0  0  0  0
  2  3  1  0  0  0  0
  3 10  1  6  0  0  0
  3 15  1  0  0  0  0
  4  9  1  0  0  0  0
  5  8  1  0  0  0  0
  6 11  1  0  0  0  0
  6  1  1  0  0  0  0
  8 25  1  6  0  0  0
  8  2  1  0  0  0  0
  9 12  2  0  0  0  0
 11  5  1  6  0  0  0
 11  3  1  0  0  0  0
 13 15  1  0  0  0  0
 13  4  1  1  0  0  0
 14  7  1  1  0  0  0
 14  9  1  0  0  0  0
 15 14  1  0  0  0  0
 17 16  1  0  0  0  0
 18 21  1  0  0  0  0
 19 18  2  0  0  0  0
 20 18  1  0  0  0  0
 21 17  1  0  0  0  0
 22 24  1  0  0  0  0
 22 23  2  0  0  0  0
 23 19  1  0  0  0  0
 24 20  2  0  0  0  0
 26 25  1  0  0  0  0
 27 28  1  0  0  0  0
 27 26  1  0  0  0  0
 28 26  1  0  0  0  0
M  END
>  <MODEL>
4

>  <REMARK>
 VINA RESULT:      -8.1      0.951      1.185
  Name = 
  4 active torsions:
  status: ('A' for Active; 'I' for Inactive)
    1  A    between atoms: C_1  and  C_17
    2  A    between atoms: C_9  and  C_19
    3  A    between atoms: N_12  and  C_17
    4  A    between atoms: C_14  and  C_19
                            x       y       z     vdW  Elec       q    Type
                         _______ _______ _______ _____ _____    ______ ____

>  <TORSDO>
F 4

$$$$
=
 OpenBabel10232408363D

 28 32  0  0  1  0  0  0  0  0999 V2000
  188.1110  178.7250  141.8030 C   0  0  1  0  0  3  0  0  0  0  0  0
  191.6440  177.1480  143.1570 O   0  0  0  0  0  0  0  0  0  0  0  0
  190.3810  177.1560  142.5740 C   0  0  1  0  0  0  0  0  0  0  0  0
  188.8900  178.4230  139.0370 S   0  0  0  0  0  0  0  0  0  0  0  0
  190.0440  177.9660  144.6630 O   0  0  0  0  0  0  0  0  0  0  0  0
  188.2870  178.1830  143.1110 O   0  0  0  0  0  0  0  0  0  0  0  0
  192.4370  177.2730  139.9230 C   0  0  0  0  0  1  0  0  0  0  0  0
  191.4000  177.5870  144.4910 C   0  0  1  0  0  3  0  0  0  0  0  0
  190.2220  177.2370  138.8230 C   0  0  0  0  0  0  0  0  0  0  0  0
  189.7410  175.7670  142.7070 C   0  0  0  0  0  1  0  0  0  0  0  0
  189.6710  178.2060  143.3550 C   0  0  2  0  0  3  0  0  0  0  0  0
  190.4070  176.6730  137.7570 O   0  0  0  0  0  0  0  0  0  0  0  0
  188.8470  177.8400  140.7520 C   0  0  1  0  0  3  0  0  0  0  0  0
  190.9820  176.8620  140.0560 C   0  0  2  0  0  3  0  0  0  0  0  0
  190.3170  177.6790  141.1460 C   0  0  2  0  0  3  0  0  0  0  0  0
  185.7560  178.2190  142.5850 C   0  0  0  0  0  1  0  0  0  0  0  0
  186.6100  178.8380  141.4900 C   0  0  2  0  0  3  0  0  0  0  0  0
  185.0500  178.4330  139.4730 C   0  0  0  0  0  0  0  0  0  0  0  0
  184.8760  177.8010  138.2810 N   0  0  0  0  0  0  0  0  0  0  0  0
  184.0300  179.2570  139.9730 C   0  0  0  0  0  3  0  0  0  0  0  0
  186.2730  178.2370  140.1970 N   0  0  0  0  0  2  0  0  0  0  0  0
  182.7030  178.7570  138.0190 C   0  0  0  0  0  3  0  0  0  0  0  0
  183.7370  177.9440  137.5510 C   0  0  0  0  0  3  0  0  0  0  0  0
  182.8540  179.4170  139.2390 C   0  0  0  0  0  3  0  0  0  0  0  0
  191.7670  176.4840  145.4710 C   0  0  0  0  0  2  0  0  0  0  0  0
  191.0790  176.7130  146.8030 C   0  0  0  0  0  3  0  0  0  0  0  0
  191.4380  175.7150  147.6810 O   0  0  0  0  0  0  0  0  0  0  0  0
  192.0260  176.9170  147.7800 O   0  0  0  0  0  0  0  0  0  0  0  0
  1 17  1  6  0  0  0
  1  6  1  0  0  0  0
  2  8  1  0  0  0  0
  3 10  1  1  0  0  0
  3  2  1  0  0  0  0
  3 11  1  0  0  0  0
  8  5  1  0  0  0  0
  8 25  1  1  0  0  0
  9  4  1  0  0  0  0
  9 14  1  0  0  0  0
 11  6  1  1  0  0  0
 11  5  1  0  0  0  0
 12  9  2  0  0  0  0
 13  4  1  6  0  0  0
 13 15  1  0  0  0  0
 13  1  1  0  0  0  0
 14  7  1  6  0  0  0
 14 15  1  0  0  0  0
 15  3  1  0  0  0  0
 17 16  1  0  0  0  0
 18 20  1  0  0  0  0
 18 21  1  0  0  0  0
 19 18  2  0  0  0  0
 21 17  1  0  0  0  0
 22 24  1  0  0  0  0
 23 22  2  0  0  0  0
 23 19  1  0  0  0  0
 24 20  2  0  0  0  0
 25 26  1  0  0  0  0
 26 27  1  0  0  0  0
 26 28  1  0  0  0  0
 27 28  1  0  0  0  0
M  END
>  <MODEL>
5

>  <REMARK>
 VINA RESULT:      -7.7      2.622      5.012
  Name = 
  4 active torsions:
  status: ('A' for Active; 'I' for Inactive)
    1  A    between atoms: C_1  and  C_17
    2  A    between atoms: C_9  and  C_19
    3  A    between atoms: N_12  and  C_17
    4  A    between atoms: C_14  and  C_19
                            x       y       z     vdW  Elec       q    Type
                         _______ _______ _______ _____ _____    ______ ____

>  <TORSDO>
F 4

$$$$
=
 OpenBabel10232408363D

 28 32  0  0  1  0  0  0  0  0999 V2000
  187.9450  177.7010  145.6170 C   0  0  1  0  0  3  0  0  0  0  0  0
  190.4040  176.5800  142.5340 O   0  0  0  0  0  0  0  0  0  0  0  0
  189.9720  177.3260  143.6270 C   0  0  1  0  0  0  0  0  0  0  0  0
  189.7660  176.6720  147.6100 S   0  0  0  0  0  0  0  0  0  0  0  0
  188.3070  177.5380  142.1040 O   0  0  0  0  0  0  0  0  0  0  0  0
  187.8740  178.2560  144.3050 O   0  0  0  0  0  0  0  0  0  0  0  0
  192.1220  175.1450  145.0020 C   0  0  0  0  0  1  0  0  0  0  0  0
  189.3830  176.7890  141.5630 C   0  0  1  0  0  3  0  0  0  0  0  0
  191.4340  176.4650  146.9770 C   0  0  0  0  0  0  0  0  0  0  0  0
  190.5840  178.7320  143.5690 C   0  0  0  0  0  1  0  0  0  0  0  0
  188.4940  177.3220  143.4560 C   0  0  2  0  0  3  0  0  0  0  0  0
  192.4010  176.4480  147.7220 O   0  0  0  0  0  0  0  0  0  0  0  0
  189.4330  177.5100  146.0390 C   0  0  1  0  0  3  0  0  0  0  0  0
  191.5860  176.4790  145.4890 C   0  0  2  0  0  3  0  0  0  0  0  0
  190.1690  176.6740  144.9880 C   0  0  2  0  0  3  0  0  0  0  0  0
  187.7300  178.4720  148.0190 C   0  0  0  0  0  1  0  0  0  0  0  0
  187.1940  178.6100  146.6030 C   0  0  2  0  0  3  0  0  0  0  0  0
  184.8450  178.7220  145.5390 C   0  0  0  0  0  0  0  0  0  0  0  0
  183.5230  178.4270  145.6710 N   0  0  0  0  0  0  0  0  0  0  0  0
  185.2930  179.3780  144.3830 C   0  0  0  0  0  3  0  0  0  0  0  0
  185.7510  178.3590  146.5900 N   0  0  0  0  0  2  0  0  0  0  0  0
  183.0280  179.4020  143.5480 C   0  0  0  0  0  3  0  0  0  0  0  0
  182.6160  178.7490  144.7110 C   0  0  0  0  0  3  0  0  0  0  0  0
  184.3770  179.7170  143.3860 C   0  0  0  0  0  3  0  0  0  0  0  0
  189.9630  177.5010  140.3510 C   0  0  0  0  0  2  0  0  0  0  0  0
  188.8740  177.7840  139.3350 C   0  0  0  0  0  3  0  0  0  0  0  0
  188.9880  179.0820  138.8890 O   0  0  0  0  0  0  0  0  0  0  0  0
  189.4450  178.0830  138.1190 O   0  0  0  0  0  0  0  0  0  0  0  0
  1 13  1  0  0  0  0
  1 17  1  1  0  0  0
  2  3  1  0  0  0  0
  3 10  1  6  0  0  0
  3 15  1  0  0  0  0
  6  1  1  0  0  0  0
  8 25  1  6  0  0  0
  8  5  1  0  0  0  0
  8  2  1  0  0  0  0
  9  4  1  0  0  0  0
  9 12  2  0  0  0  0
 11  5  1  6  0  0  0
 11  3  1  0  0  0  0
 11  6  1  0  0  0  0
 13  4  1  1  0  0  0
 14  7  1  6  0  0  0
 14  9  1  0  0  0  0
 15 14  1  0  0  0  0
 15 13  1  0  0  0  0
 17 16  1  0  0  0  0
 18 19  2  0  0  0  0
 18 21  1  0  0  0  0
 20 18  1  0  0  0  0
 21 17  1  0  0  0  0
 22 23  2  0  0  0  0
 23 19  1  0  0  0  0
 24 22  1  0  0  0  0
 24 20  2  0  0  0  0
 26 25  1  0  0  0  0
 27 26  1  0  0  0  0
 28 27  1  0  0  0  0
 28 26  1  0  0  0  0
M  END
>  <MODEL>
6

>  <REMARK>
 VINA RESULT:      -7.7      2.741      3.629
  Name = 
  4 active torsions:
  status: ('A' for Active; 'I' for Inactive)
    1  A    between atoms: C_1  and  C_17
    2  A    between atoms: C_9  and  C_19
    3  A    between atoms: N_12  and  C_17
    4  A    between atoms: C_14  and  C_19
                            x       y       z     vdW  Elec       q    Type
                         _______ _______ _______ _____ _____    ______ ____

>  <TORSDO>
F 4

$$$$
=
 OpenBabel10232408363D

 28 32  0  0  1  0  0  0  0  0999 V2000
  189.6730  177.0370  140.4320 C   0  0  1  0  0  3  0  0  0  0  0  0
  189.6270  176.9580  144.5310 O   0  0  0  0  0  0  0  0  0  0  0  0
  189.6660  177.5170  143.2570 C   0  0  1  0  0  0  0  0  0  0  0  0
  186.9630  178.0280  140.2950 S   0  0  0  0  0  0  0  0  0  0  0  0
  191.4890  176.1740  143.3400 O   0  0  0  0  0  0  0  0  0  0  0  0
  190.8510  177.0210  141.2380 O   0  0  0  0  0  0  0  0  0  0  0  0
  186.4170  177.7250  144.0760 C   0  0  0  0  0  1  0  0  0  0  0  0
  190.8190  176.1800  144.5900 C   0  0  1  0  0  3  0  0  0  0  0  0
  186.4250  178.7760  141.8370 C   0  0  0  0  0  0  0  0  0  0  0  0
  190.3330  178.8980  143.3170 C   0  0  0  0  0  1  0  0  0  0  0  0
  190.4560  176.5170  142.4890 C   0  0  2  0  0  3  0  0  0  0  0  0
  185.5180  179.5920  141.8670 O   0  0  0  0  0  0  0  0  0  0  0  0
  188.6020  177.9740  141.0660 C   0  0  1  0  0  3  0  0  0  0  0  0
  187.2490  178.4680  143.0480 C   0  0  2  0  0  3  0  0  0  0  0  0
  188.3370  177.5570  142.5150 C   0  0  2  0  0  3  0  0  0  0  0  0
  189.3570  178.7880  138.6310 C   0  0  0  0  0  1  0  0  0  0  0  0
  190.0310  177.4780  139.0040 C   0  0  2  0  0  3  0  0  0  0  0  0
  190.6060  175.4670  137.4910 C   0  0  0  0  0  0  0  0  0  0  0  0
  190.1560  174.5760  136.5670 N   0  0  0  0  0  0  0  0  0  0  0  0
  191.9450  175.4100  137.9090 C   0  0  0  0  0  3  0  0  0  0  0  0
  189.7020  176.4500  138.0140 N   0  0  0  0  0  2  0  0  0  0  0  0
  192.3030  173.5390  136.4260 C   0  0  0  0  0  3  0  0  0  0  0  0
  190.9660  173.6230  136.0320 C   0  0  0  0  0  3  0  0  0  0  0  0
  192.7920  174.4410  137.3720 C   0  0  0  0  0  3  0  0  0  0  0  0
  191.7350  176.7230  145.6750 C   0  0  0  0  0  2  0  0  0  0  0  0
  191.2650  176.2620  147.0410 C   0  0  0  0  0  3  0  0  0  0  0  0
  192.3060  175.6510  147.7020 O   0  0  0  0  0  0  0  0  0  0  0  0
  191.9820  176.9130  148.0190 O   0  0  0  0  0  0  0  0  0  0  0  0
  1 17  1  6  0  0  0
  1 13  1  0  0  0  0
  1  6  1  0  0  0  0
  2  8  1  0  0  0  0
  3 10  1  1  0  0  0
  3  2  1  0  0  0  0
  4  9  1  0  0  0  0
  5  8  1  0  0  0  0
  8 25  1  1  0  0  0
  9 12  2  0  0  0  0
  9 14  1  0  0  0  0
 11  6  1  6  0  0  0
 11  3  1  0  0  0  0
 11  5  1  0  0  0  0
 13  4  1  6  0  0  0
 13 15  1  0  0  0  0
 14  7  1  1  0  0  0
 15 14  1  0  0  0  0
 15  3  1  0  0  0  0
 16 17  1  0  0  0  0
 18 20  1  0  0  0  0
 18 21  1  0  0  0  0
 19 18  2  0  0  0  0
 21 17  1  0  0  0  0
 22 24  1  0  0  0  0
 23 22  2  0  0  0  0
 23 19  1  0  0  0  0
 24 20  2  0  0  0  0
 25 26  1  0  0  0  0
 26 27  1  0  0  0  0
 26 28  1  0  0  0  0
 27 28  1  0  0  0  0
M  END
>  <MODEL>
7

>  <REMARK>
 VINA RESULT:      -7.7      3.662      6.274
  Name = 
  4 active torsions:
  status: ('A' for Active; 'I' for Inactive)
    1  A    between atoms: C_1  and  C_17
    2  A    between atoms: C_9  and  C_19
    3  A    between atoms: N_12  and  C_17
    4  A    between atoms: C_14  and  C_19
                            x       y       z     vdW  Elec       q    Type
                         _______ _______ _______ _____ _____    ______ ____

>  <TORSDO>
F 4

$$$$
=
 OpenBabel10232408363D

 28 32  0  0  1  0  0  0  0  0999 V2000
  189.8350  177.5570  141.9720 C   0  0  1  0  0  3  0  0  0  0  0  0
  186.6320  178.4050  144.3870 O   0  0  0  0  0  0  0  0  0  0  0  0
  187.6110  177.6260  143.7770 C   0  0  1  0  0  0  0  0  0  0  0  0
  191.6070  177.2160  144.2290 S   0  0  0  0  0  0  0  0  0  0  0  0
  186.4290  178.4990  142.0520 O   0  0  0  0  0  0  0  0  0  0  0  0
  188.4750  177.4470  141.5530 O   0  0  0  0  0  0  0  0  0  0  0  0
  188.9620  178.3350  146.7670 C   0  0  0  0  0  1  0  0  0  0  0  0
  185.8550  178.8820  143.2910 C   0  0  1  0  0  3  0  0  0  0  0  0
  190.7190  176.9140  145.7610 C   0  0  0  0  0  0  0  0  0  0  0  0
  187.1480  176.1630  143.7210 C   0  0  0  0  0  1  0  0  0  0  0  0
  187.7330  178.2540  142.4330 C   0  0  2  0  0  3  0  0  0  0  0  0
  191.2500  176.3520  146.7040 O   0  0  0  0  0  0  0  0  0  0  0  0
  189.9910  177.0300  143.4300 C   0  0  1  0  0  3  0  0  0  0  0  0
  189.2590  177.2410  145.7580 C   0  0  2  0  0  3  0  0  0  0  0  0
  189.0130  177.7590  144.3550 C   0  0  2  0  0  3  0  0  0  0  0  0
  191.8560  177.6630  140.4500 C   0  0  0  0  0  1  0  0  0  0  0  0
  190.7390  176.7880  140.9960 C   0  0  2  0  0  3  0  0  0  0  0  0
  189.4160  176.9230  138.7840 C   0  0  0  0  0  0  0  0  0  0  0  0
  188.7260  176.2410  137.8300 N   0  0  0  0  0  0  0  0  0  0  0  0
  189.5580  178.3140  138.6710 C   0  0  0  0  0  3  0  0  0  0  0  0
  189.9790  176.2030  139.8900 N   0  0  0  0  0  2  0  0  0  0  0  0
  188.2890  178.2510  136.6180 C   0  0  0  0  0  3  0  0  0  0  0  0
  188.1670  176.8680  136.7610 C   0  0  0  0  0  3  0  0  0  0  0  0
  188.9900  178.9760  137.5820 C   0  0  0  0  0  3  0  0  0  0  0  0
  184.4340  178.3520  143.4000 C   0  0  0  0  0  2  0  0  0  0  0  0
  183.5250  179.4030  144.0060 C   0  0  0  0  0  3  0  0  0  0  0  0
  182.3860  178.7990  144.4910 O   0  0  0  0  0  0  0  0  0  0  0  0
  183.3580  179.1480  145.3480 O   0  0  0  0  0  0  0  0  0  0  0  0
  1 17  1  6  0  0  0
  1 13  1  0  0  0  0
  3 10  1  6  0  0  0
  3 15  1  0  0  0  0
  3  2  1  0  0  0  0
  4  9  1  0  0  0  0
  5 11  1  0  0  0  0
  5  8  1  0  0  0  0
  6  1  1  0  0  0  0
  8 25  1  1  0  0  0
  8  2  1  0  0  0  0
  9 12  2  0  0  0  0
 11  6  1  6  0  0  0
 11  3  1  0  0  0  0
 13  4  1  1  0  0  0
 13 15  1  0  0  0  0
 14  9  1  0  0  0  0
 14  7  1  1  0  0  0
 15 14  1  0  0  0  0
 16 17  1  0  0  0  0
 18 21  1  0  0  0  0
 19 18  2  0  0  0  0
 20 18  1  0  0  0  0
 21 17  1  0  0  0  0
 22 23  2  0  0  0  0
 22 24  1  0  0  0  0
 23 19  1  0  0  0  0
 24 20  2  0  0  0  0
 25 26  1  0  0  0  0
 26 27  1  0  0  0  0
 26 28  1  0  0  0  0
 27 28  1  0  0  0  0
M  END
>  <MODEL>
8

>  <REMARK>
 VINA RESULT:      -7.6      3.145      5.653
  Name = 
  4 active torsions:
  status: ('A' for Active; 'I' for Inactive)
    1  A    between atoms: C_1  and  C_17
    2  A    between atoms: C_9  and  C_19
    3  A    between atoms: N_12  and  C_17
    4  A    between atoms: C_14  and  C_19
                            x       y       z     vdW  Elec       q    Type
                         _______ _______ _______ _____ _____    ______ ____

>  <TORSDO>
F 4

$$$$
=
 OpenBabel10232408363D

 28 32  0  0  1  0  0  0  0  0999 V2000
  189.6660  177.8810  141.9620 C   0  0  1  0  0  3  0  0  0  0  0  0
  186.5900  178.2800  144.6430 O   0  0  0  0  0  0  0  0  0  0  0  0
  187.5650  177.6280  143.8940 C   0  0  1  0  0  0  0  0  0  0  0  0
  191.5970  177.4050  144.0570 S   0  0  0  0  0  0  0  0  0  0  0  0
  186.2280  178.6090  142.3500 O   0  0  0  0  0  0  0  0  0  0  0  0
  188.2880  177.7370  141.6160 O   0  0  0  0  0  0  0  0  0  0  0  0
  189.0730  178.0930  146.8570 C   0  0  0  0  0  1  0  0  0  0  0  0
  185.7180  178.8240  143.6560 C   0  0  1  0  0  3  0  0  0  0  0  0
  190.8300  176.8910  145.5970 C   0  0  0  0  0  0  0  0  0  0  0  0
  187.1750  176.1550  143.7060 C   0  0  0  0  0  1  0  0  0  0  0  0
  187.5660  178.4010  142.6230 C   0  0  2  0  0  3  0  0  0  0  0  0
  191.4500  176.2640  146.4400 O   0  0  0  0  0  0  0  0  0  0  0  0
  189.9440  177.2110  143.3410 C   0  0  1  0  0  3  0  0  0  0  0  0
  189.3570  177.1310  145.7180 C   0  0  2  0  0  3  0  0  0  0  0  0
  188.9930  177.7800  144.3970 C   0  0  2  0  0  3  0  0  0  0  0  0
  192.0040  177.6550  141.0180 C   0  0  0  0  0  1  0  0  0  0  0  0
  190.5410  177.2730  140.8550 C   0  0  2  0  0  3  0  0  0  0  0  0
  190.2520  176.8810  138.3210 C   0  0  0  0  0  0  0  0  0  0  0  0
  189.7670  177.3640  137.1450 N   0  0  0  0  0  0  0  0  0  0  0  0
  190.9190  175.6460  138.3370 C   0  0  0  0  0  3  0  0  0  0  0  0
  190.0750  177.6490  139.5190 N   0  0  0  0  0  2  0  0  0  0  0  0
  190.5650  175.4520  135.9560 C   0  0  0  0  0  3  0  0  0  0  0  0
  189.9070  176.6830  135.9750 C   0  0  0  0  0  3  0  0  0  0  0  0
  191.0730  174.9330  137.1470 C   0  0  0  0  0  3  0  0  0  0  0  0
  184.3370  178.2030  143.7900 C   0  0  0  0  0  2  0  0  0  0  0  0
  183.2860  179.2860  143.9450 C   0  0  0  0  0  3  0  0  0  0  0  0
  182.3030  179.1090  142.9970 O   0  0  0  0  0  0  0  0  0  0  0  0
  182.0760  178.7110  144.2580 O   0  0  0  0  0  0  0  0  0  0  0  0
  1 17  1  6  0  0  0
  1 13  1  0  0  0  0
  3 10  1  6  0  0  0
  3 15  1  0  0  0  0
  3  2  1  0  0  0  0
  4  9  1  0  0  0  0
  5 11  1  0  0  0  0
  5  8  1  0  0  0  0
  6  1  1  0  0  0  0
  8 25  1  6  0  0  0
  8  2  1  0  0  0  0
  9 14  1  0  0  0  0
  9 12  2  0  0  0  0
 11  6  1  6  0  0  0
 11  3  1  0  0  0  0
 13  4  1  1  0  0  0
 13 15  1  0  0  0  0
 14  7  1  1  0  0  0
 15 14  1  0  0  0  0
 17 16  1  0  0  0  0
 18 20  1  0  0  0  0
 18 21  1  0  0  0  0
 19 18  2  0  0  0  0
 21 17  1  0  0  0  0
 22 23  2  0  0  0  0
 22 24  1  0  0  0  0
 23 19  1  0  0  0  0
 24 20  2  0  0  0  0
 25 26  1  0  0  0  0
 26 28  1  0  0  0  0
 27 26  1  0  0  0  0
 27 28  1  0  0  0  0
M  END
>  <MODEL>
9

>  <REMARK>
 VINA RESULT:      -7.4      3.247      6.073
  Name = 
  4 active torsions:
  status: ('A' for Active; 'I' for Inactive)
    1  A    between atoms: C_1  and  C_17
    2  A    between atoms: C_9  and  C_19
    3  A    between atoms: N_12  and  C_17
    4  A    between atoms: C_14  and  C_19
                            x       y       z     vdW  Elec       q    Type
                         _______ _______ _______ _____ _____    ______ ____

>  <TORSDO>
F 4

$$$$
