=
 OpenBabel10232409453D

 25 28  0  0  1  0  0  0  0  0999 V2000
  191.2410  177.2450  143.1900 C   0  0  0  0  0  0  0  0  0  0  0  0
  191.5900  178.3060  142.6960 O   0  0  0  0  0  0  0  0  0  0  0  0
  191.7770  176.8160  144.5220 C   0  0  2  0  0  3  0  0  0  0  0  0
  191.8300  175.4230  144.5780 O   0  0  0  0  0  1  0  0  0  0  0  0
  190.8980  177.3370  145.6490 C   0  0  0  0  0  2  0  0  0  0  0  0
  191.9750  176.9680  147.7380 O   0  0  0  0  0  1  0  0  0  0  0  0
  191.0100  176.4470  146.8750 C   0  0  1  0  0  3  0  0  0  0  0  0
  189.7260  176.3970  147.5600 N   0  0  0  0  0  2  0  0  0  0  0  0
  188.9480  178.3790  148.5360 C   0  0  0  0  0  2  0  0  0  0  0  0
  187.7920  177.2550  146.7060 O   0  0  0  0  0  0  0  0  0  0  0  0
  189.0210  177.6280  147.2490 C   0  0  1  0  0  0  0  0  0  0  0  0
  186.9130  178.9110  147.8120 F   0  0  0  0  0  0  0  0  0  0  0  0
  187.6830  177.7800  147.9990 C   0  0  2  0  0  0  0  0  0  0  0  0
  190.2770  176.3730  142.4500 C   0  0  0  0  0  2  0  0  0  0  0  0
  186.6210  178.4330  141.6740 C   0  0  0  0  0  0  0  0  0  0  0  0
  184.3590  179.1180  142.4980 N   0  0  0  0  0  0  0  0  0  0  0  0
  188.0540  177.1970  143.1310 N   0  0  0  0  0  0  0  0  0  0  0  0
  186.8770  177.8440  142.9210 C   0  0  0  0  0  0  0  0  0  0  0  0
  189.0030  177.0940  142.1610 C   0  0  0  0  0  0  0  0  0  0  0  0
  187.5860  178.3470  140.6650 C   0  0  0  0  0  3  0  0  0  0  0  0
  184.5760  178.5900  143.6650 C   0  0  0  0  0  3  0  0  0  0  0  0
  188.7860  177.6780  140.9080 C   0  0  0  0  0  3  0  0  0  0  0  0
  185.0800  179.6690  140.3540 O   0  0  0  0  0  0  0  0  0  0  0  0
  185.3370  179.1110  141.4540 C   0  0  0  0  0  0  0  0  0  0  0  0
  185.8860  177.9460  144.0490 C   0  0  0  0  0  2  0  0  0  0  0  0
  1  3  1  0  0  0  0
  2  1  2  0  0  0  0
  3  4  1  6  0  0  0
  3  5  1  0  0  0  0
  5  7  1  0  0  0  0
  7  8  1  0  0  0  0
  7  6  1  1  0  0  0
 10 11  1  0  0  0  0
 10 13  1  0  0  0  0
 11  8  1  1  0  0  0
 11 13  1  0  0  0  0
 11  9  1  0  0  0  0
 13 12  1  6  0  0  0
 13  9  1  0  0  0  0
 14  1  1  0  0  0  0
 15 18  1  0  0  0  0
 16 21  2  0  0  0  0
 18 17  2  0  0  0  0
 18 25  1  0  0  0  0
 19 14  1  0  0  0  0
 19 17  1  0  0  0  0
 20 22  1  0  0  0  0
 20 15  2  0  0  0  0
 21 25  1  0  0  0  0
 22 19  2  0  0  0  0
 23 24  2  0  0  0  0
 24 15  1  0  0  0  0
 24 16  1  0  0  0  0
M  END
>  <MODEL>
1

>  <REMARK>
 VINA RESULT:      -8.0      0.000      0.000
  Name = 
  7 active torsions:
  status: ('A' for Active; 'I' for Inactive)
    1  A    between atoms: C_2  and  C_6
    2  A    between atoms: C_2  and  C_25
    3  A    between atoms: C_6  and  C_13
    4  A    between atoms: C_9  and  N_24
    5  A    between atoms: C_13  and  C_22
    6  A    between atoms: C_14  and  C_25
    7  A    between atoms: C_22  and  N_24
                            x       y       z     vdW  Elec       q    Type
                         _______ _______ _______ _____ _____    ______ ____

>  <TORSDO>
F 7

$$$$
=
 OpenBabel10232409453D

 25 28  0  0  1  0  0  0  0  0999 V2000
  189.8270  176.6150  142.9030 C   0  0  0  0  0  0  0  0  0  0  0  0
  190.0820  175.4240  142.8180 O   0  0  0  0  0  0  0  0  0  0  0  0
  190.5820  177.4850  143.8620 C   0  0  2  0  0  3  0  0  0  0  0  0
  191.2630  178.4780  143.1580 O   0  0  0  0  0  1  0  0  0  0  0  0
  191.5770  176.6610  144.6670 C   0  0  0  0  0  2  0  0  0  0  0  0
  192.1920  176.6220  146.9650 O   0  0  0  0  0  1  0  0  0  0  0  0
  191.1040  176.4950  146.1000 C   0  0  1  0  0  3  0  0  0  0  0  0
  190.1180  177.5220  146.4100 N   0  0  0  0  0  2  0  0  0  0  0  0
  188.3480  176.7520  147.7370 C   0  0  0  0  0  2  0  0  0  0  0  0
  189.8110  178.5860  148.4050 O   0  0  0  0  0  0  0  0  0  0  0  0
  189.7200  177.3350  147.7940 C   0  0  1  0  0  0  0  0  0  0  0  0
  187.9900  178.0810  149.4850 F   0  0  0  0  0  0  0  0  0  0  0  0
  188.4910  178.1710  148.2020 C   0  0  2  0  0  0  0  0  0  0  0  0
  188.7510  177.1990  142.0450 C   0  0  0  0  0  2  0  0  0  0  0  0
  185.3180  178.3120  144.3250 C   0  0  0  0  0  0  0  0  0  0  0  0
  182.9340  179.0760  144.3290 N   0  0  0  0  0  0  0  0  0  0  0  0
  186.3860  177.8770  142.2330 N   0  0  0  0  0  0  0  0  0  0  0  0
  185.2710  178.2360  142.9240 C   0  0  0  0  0  0  0  0  0  0  0  0
  187.5600  177.5900  142.8570 C   0  0  0  0  0  0  0  0  0  0  0  0
  186.5120  178.0120  144.9870 C   0  0  0  0  0  3  0  0  0  0  0  0
  182.8620  179.0040  143.0330 C   0  0  0  0  0  3  0  0  0  0  0  0
  187.6400  177.6450  144.2530 C   0  0  0  0  0  3  0  0  0  0  0  0
  184.1100  178.7800  146.3150 O   0  0  0  0  0  0  0  0  0  0  0  0
  184.1130  178.7200  145.0570 C   0  0  0  0  0  0  0  0  0  0  0  0
  183.9980  178.5100  142.1700 C   0  0  0  0  0  2  0  0  0  0  0  0
  1  3  1  0  0  0  0
  2  1  2  0  0  0  0
  3  4  1  6  0  0  0
  3  5  1  0  0  0  0
  5  7  1  0  0  0  0
  7  8  1  0  0  0  0
  7  6  1  1  0  0  0
  9 11  1  0  0  0  0
  9 13  1  0  0  0  0
 11  8  1  6  0  0  0
 11 13  1  0  0  0  0
 11 10  1  0  0  0  0
 13 10  1  0  0  0  0
 13 12  1  1  0  0  0
 14 19  1  0  0  0  0
 14  1  1  0  0  0  0
 15 20  1  0  0  0  0
 15 24  1  0  0  0  0
 16 24  1  0  0  0  0
 17 19  2  0  0  0  0
 17 18  1  0  0  0  0
 18 15  2  0  0  0  0
 19 22  1  0  0  0  0
 21 16  2  0  0  0  0
 22 20  2  0  0  0  0
 24 23  2  0  0  0  0
 25 18  1  0  0  0  0
 25 21  1  0  0  0  0
M  END
>  <MODEL>
2

>  <REMARK>
 VINA RESULT:      -7.9      1.889      2.638
  Name = 
  7 active torsions:
  status: ('A' for Active; 'I' for Inactive)
    1  A    between atoms: C_2  and  C_6
    2  A    between atoms: C_2  and  C_25
    3  A    between atoms: C_6  and  C_13
    4  A    between atoms: C_9  and  N_24
    5  A    between atoms: C_13  and  C_22
    6  A    between atoms: C_14  and  C_25
    7  A    between atoms: C_22  and  N_24
                            x       y       z     vdW  Elec       q    Type
                         _______ _______ _______ _____ _____    ______ ____

>  <TORSDO>
F 7

$$$$
=
 OpenBabel10232409453D

 25 28  0  0  1  0  0  0  0  0999 V2000
  191.3400  177.1170  145.3160 C   0  0  0  0  0  0  0  0  0  0  0  0
  191.9870  178.1440  145.1870 O   0  0  0  0  0  0  0  0  0  0  0  0
  191.3410  176.0800  144.2340 C   0  0  2  0  0  3  0  0  0  0  0  0
  192.3220  175.1250  144.5010 O   0  0  0  0  0  1  0  0  0  0  0  0
  191.6100  176.7170  142.8780 C   0  0  0  0  0  2  0  0  0  0  0  0
  189.5200  175.6300  142.5460 O   0  0  0  0  0  1  0  0  0  0  0  0
  190.4940  176.3940  141.9010 C   0  0  1  0  0  3  0  0  0  0  0  0
  189.8950  177.6320  141.4190 N   0  0  0  0  0  2  0  0  0  0  0  0
  190.1200  177.6010  139.0880 C   0  0  0  0  0  2  0  0  0  0  0  0
  188.0150  178.0980  140.2140 O   0  0  0  0  0  0  0  0  0  0  0  0
  189.1690  177.3160  140.2020 C   0  0  1  0  0  0  0  0  0  0  0  0
  188.2970  178.3740  138.0730 F   0  0  0  0  0  0  0  0  0  0  0  0
  188.9580  178.5300  139.2760 C   0  0  2  0  0  0  0  0  0  0  0  0
  190.5410  176.9030  146.5620 C   0  0  0  0  0  2  0  0  0  0  0  0
  186.4840  178.0950  145.9790 C   0  0  0  0  0  0  0  0  0  0  0  0
  184.6300  178.5840  144.3700 N   0  0  0  0  0  0  0  0  0  0  0  0
  188.5860  177.3480  145.1250 N   0  0  0  0  0  0  0  0  0  0  0  0
  187.2980  177.7230  144.8980 C   0  0  0  0  0  0  0  0  0  0  0  0
  189.1210  177.3260  146.3760 C   0  0  0  0  0  0  0  0  0  0  0  0
  187.0110  178.0700  147.2740 C   0  0  0  0  0  3  0  0  0  0  0  0
  185.3600  178.2340  143.3530 C   0  0  0  0  0  3  0  0  0  0  0  0
  188.3350  177.6800  147.4770 C   0  0  0  0  0  3  0  0  0  0  0  0
  184.3350  178.8380  146.6640 O   0  0  0  0  0  0  0  0  0  0  0  0
  185.1020  178.5170  145.7190 C   0  0  0  0  0  0  0  0  0  0  0  0
  186.7630  177.6950  143.4920 C   0  0  0  0  0  2  0  0  0  0  0  0
  1 14  1  0  0  0  0
  2  1  2  0  0  0  0
  3  4  1  1  0  0  0
  3  1  1  0  0  0  0
  5  3  1  0  0  0  0
  7  6  1  1  0  0  0
  7  5  1  0  0  0  0
  8  7  1  0  0  0  0
  9 13  1  0  0  0  0
  9 11  1  0  0  0  0
 11 10  1  0  0  0  0
 11  8  1  1  0  0  0
 13 12  1  6  0  0  0
 13 11  1  0  0  0  0
 13 10  1  0  0  0  0
 15 20  1  0  0  0  0
 16 24  1  0  0  0  0
 17 19  2  0  0  0  0
 18 17  1  0  0  0  0
 18 15  2  0  0  0  0
 19 14  1  0  0  0  0
 19 22  1  0  0  0  0
 20 22  2  0  0  0  0
 21 25  1  0  0  0  0
 21 16  2  0  0  0  0
 24 15  1  0  0  0  0
 24 23  2  0  0  0  0
 25 18  1  0  0  0  0
M  END
>  <MODEL>
3

>  <REMARK>
 VINA RESULT:      -7.9      2.680      5.269
  Name = 
  7 active torsions:
  status: ('A' for Active; 'I' for Inactive)
    1  A    between atoms: C_2  and  C_6
    2  A    between atoms: C_2  and  C_25
    3  A    between atoms: C_6  and  C_13
    4  A    between atoms: C_9  and  N_24
    5  A    between atoms: C_13  and  C_22
    6  A    between atoms: C_14  and  C_25
    7  A    between atoms: C_22  and  N_24
                            x       y       z     vdW  Elec       q    Type
                         _______ _______ _______ _____ _____    ______ ____

>  <TORSDO>
F 7

$$$$
=
 OpenBabel10232409453D

 25 28  0  0  1  0  0  0  0  0999 V2000
  191.1860  177.4130  145.1910 C   0  0  0  0  0  0  0  0  0  0  0  0
  191.7980  178.3630  144.7280 O   0  0  0  0  0  0  0  0  0  0  0  0
  190.8950  177.3410  146.6590 C   0  0  2  0  0  3  0  0  0  0  0  0
  191.9300  176.6680  147.3090 O   0  0  0  0  0  1  0  0  0  0  0  0
  189.5820  176.6160  146.9130 C   0  0  0  0  0  2  0  0  0  0  0  0
  189.3150  178.3430  148.5260 O   0  0  0  0  0  1  0  0  0  0  0  0
  188.6070  177.5100  147.6580 C   0  0  1  0  0  3  0  0  0  0  0  0
  187.8670  178.3250  146.7040 N   0  0  0  0  0  2  0  0  0  0  0  0
  185.9430  177.4630  145.6820 C   0  0  0  0  0  2  0  0  0  0  0  0
  185.8920  179.3220  147.2600 O   0  0  0  0  0  0  0  0  0  0  0  0
  186.4530  178.0870  146.9370 C   0  0  1  0  0  0  0  0  0  0  0  0
  184.1590  178.7300  146.0830 F   0  0  0  0  0  0  0  0  0  0  0  0
  185.5290  178.8720  145.9860 C   0  0  2  0  0  0  0  0  0  0  0  0
  190.7340  176.3160  144.2800 C   0  0  0  0  0  2  0  0  0  0  0  0
  188.4060  177.8240  141.0360 C   0  0  0  0  0  0  0  0  0  0  0  0
  188.3060  178.4670  138.6190 N   0  0  0  0  0  0  0  0  0  0  0  0
  190.4390  176.9220  141.9070 N   0  0  0  0  0  0  0  0  0  0  0  0
  189.7300  177.3980  140.8490 C   0  0  0  0  0  0  0  0  0  0  0  0
  189.9070  176.8490  143.1570 C   0  0  0  0  0  0  0  0  0  0  0  0
  187.8370  177.7490  142.3110 C   0  0  0  0  0  3  0  0  0  0  0  0
  189.5270  178.0700  138.4170 C   0  0  0  0  0  3  0  0  0  0  0  0
  188.5870  177.2550  143.3780 C   0  0  0  0  0  3  0  0  0  0  0  0
  186.4620  178.7270  140.0140 O   0  0  0  0  0  0  0  0  0  0  0  0
  187.6580  178.3540  139.8890 C   0  0  0  0  0  0  0  0  0  0  0  0
  190.3710  177.4220  139.4870 C   0  0  0  0  0  2  0  0  0  0  0  0
  1  3  1  0  0  0  0
  2  1  2  0  0  0  0
  3  5  1  0  0  0  0
  3  4  1  1  0  0  0
  5  7  1  0  0  0  0
  7  6  1  1  0  0  0
  8  7  1  0  0  0  0
  9 13  1  0  0  0  0
  9 11  1  0  0  0  0
 11  8  1  6  0  0  0
 11 10  1  0  0  0  0
 13 12  1  1  0  0  0
 13 11  1  0  0  0  0
 13 10  1  0  0  0  0
 14  1  1  0  0  0  0
 15 20  1  0  0  0  0
 16 24  1  0  0  0  0
 17 19  2  0  0  0  0
 18 15  2  0  0  0  0
 18 17  1  0  0  0  0
 19 22  1  0  0  0  0
 19 14  1  0  0  0  0
 20 22  2  0  0  0  0
 21 16  2  0  0  0  0
 21 25  1  0  0  0  0
 24 23  2  0  0  0  0
 24 15  1  0  0  0  0
 25 18  1  0  0  0  0
M  END
>  <MODEL>
4

>  <REMARK>
 VINA RESULT:      -7.8      2.109      3.346
  Name = 
  7 active torsions:
  status: ('A' for Active; 'I' for Inactive)
    1  A    between atoms: C_2  and  C_6
    2  A    between atoms: C_2  and  C_25
    3  A    between atoms: C_6  and  C_13
    4  A    between atoms: C_9  and  N_24
    5  A    between atoms: C_13  and  C_22
    6  A    between atoms: C_14  and  C_25
    7  A    between atoms: C_22  and  N_24
                            x       y       z     vdW  Elec       q    Type
                         _______ _______ _______ _____ _____    ______ ____

>  <TORSDO>
F 7

$$$$
=
 OpenBabel10232409453D

 25 28  0  0  1  0  0  0  0  0999 V2000
  189.5620  177.5070  141.7550 C   0  0  0  0  0  0  0  0  0  0  0  0
  188.9050  178.0940  140.9090 O   0  0  0  0  0  0  0  0  0  0  0  0
  191.0110  177.8350  141.9520 C   0  0  2  0  0  3  0  0  0  0  0  0
  191.7280  177.4910  140.8060 O   0  0  0  0  0  1  0  0  0  0  0  0
  191.5760  177.0820  143.1480 C   0  0  0  0  0  2  0  0  0  0  0  0
  190.9530  179.1720  144.0990 O   0  0  0  0  0  1  0  0  0  0  0  0
  191.6130  177.9730  144.3760 C   0  0  1  0  0  3  0  0  0  0  0  0
  190.9480  177.3020  145.4850 N   0  0  0  0  0  2  0  0  0  0  0  0
  192.0630  175.3670  146.1890 C   0  0  0  0  0  2  0  0  0  0  0  0
  191.5950  177.2440  147.6730 O   0  0  0  0  0  0  0  0  0  0  0  0
  191.9820  176.8420  146.3950 C   0  0  1  0  0  0  0  0  0  0  0  0
  192.3460  175.3340  148.3950 F   0  0  0  0  0  0  0  0  0  0  0  0
  191.4680  175.8660  147.4720 C   0  0  2  0  0  0  0  0  0  0  0  0
  188.9090  176.4520  142.5900 C   0  0  0  0  0  2  0  0  0  0  0  0
  185.8460  178.1100  145.0570 C   0  0  0  0  0  0  0  0  0  0  0  0
  183.6130  179.2320  145.1950 N   0  0  0  0  0  0  0  0  0  0  0  0
  186.6940  177.4880  142.9120 N   0  0  0  0  0  0  0  0  0  0  0  0
  185.6960  178.0240  143.6650 C   0  0  0  0  0  0  0  0  0  0  0  0
  187.8490  177.0320  143.4670 C   0  0  0  0  0  0  0  0  0  0  0  0
  187.0220  177.6390  145.6490 C   0  0  0  0  0  3  0  0  0  0  0  0
  183.4450  179.1550  143.9090 C   0  0  0  0  0  3  0  0  0  0  0  0
  188.0290  177.0930  144.8530 C   0  0  0  0  0  3  0  0  0  0  0  0
  184.8600  178.7860  147.1090 O   0  0  0  0  0  0  0  0  0  0  0  0
  184.7690  178.7090  145.8550 C   0  0  0  0  0  0  0  0  0  0  0  0
  184.4310  178.4800  142.9870 C   0  0  0  0  0  2  0  0  0  0  0  0
  1  3  1  0  0  0  0
  1 14  1  0  0  0  0
  2  1  2  0  0  0  0
  3  4  1  6  0  0  0
  3  5  1  0  0  0  0
  5  7  1  0  0  0  0
  7  6  1  6  0  0  0
  7  8  1  0  0  0  0
  9 11  1  0  0  0  0
  9 13  1  0  0  0  0
 11  8  1  6  0  0  0
 11 13  1  0  0  0  0
 11 10  1  0  0  0  0
 13 10  1  0  0  0  0
 13 12  1  1  0  0  0
 14 19  1  0  0  0  0
 15 20  1  0  0  0  0
 15 24  1  0  0  0  0
 16 24  1  0  0  0  0
 17 19  2  0  0  0  0
 17 18  1  0  0  0  0
 18 15  2  0  0  0  0
 19 22  1  0  0  0  0
 21 16  2  0  0  0  0
 22 20  2  0  0  0  0
 24 23  2  0  0  0  0
 25 18  1  0  0  0  0
 25 21  1  0  0  0  0
M  END
>  <MODEL>
5

>  <REMARK>
 VINA RESULT:      -7.8      2.484      3.671
  Name = 
  7 active torsions:
  status: ('A' for Active; 'I' for Inactive)
    1  A    between atoms: C_2  and  C_6
    2  A    between atoms: C_2  and  C_25
    3  A    between atoms: C_6  and  C_13
    4  A    between atoms: C_9  and  N_24
    5  A    between atoms: C_13  and  C_22
    6  A    between atoms: C_14  and  C_25
    7  A    between atoms: C_22  and  N_24
                            x       y       z     vdW  Elec       q    Type
                         _______ _______ _______ _____ _____    ______ ____

>  <TORSDO>
F 7

$$$$
=
 OpenBabel10232409453D

 25 28  0  0  1  0  0  0  0  0999 V2000
  190.5510  176.2360  143.1160 C   0  0  0  0  0  0  0  0  0  0  0  0
  190.1090  175.1220  142.8830 O   0  0  0  0  0  0  0  0  0  0  0  0
  191.1170  177.0730  142.0090 C   0  0  2  0  0  3  0  0  0  0  0  0
  191.5180  178.3100  142.5160 O   0  0  0  0  0  1  0  0  0  0  0  0
  190.0840  177.2860  140.9120 C   0  0  0  0  0  2  0  0  0  0  0  0
  190.8600  175.7870  139.2350 O   0  0  0  0  0  1  0  0  0  0  0  0
  190.7180  177.1420  139.5400 C   0  0  1  0  0  3  0  0  0  0  0  0
  189.8680  177.7750  138.5410 N   0  0  0  0  0  2  0  0  0  0  0  0
  187.9290  176.6430  137.8760 C   0  0  0  0  0  2  0  0  0  0  0  0
  187.8850  178.7870  139.0370 O   0  0  0  0  0  0  0  0  0  0  0  0
  188.4900  177.5350  138.9310 C   0  0  1  0  0  0  0  0  0  0  0  0
  186.1090  177.8940  138.1490 F   0  0  0  0  0  0  0  0  0  0  0  0
  187.4590  178.0670  137.9160 C   0  0  2  0  0  0  0  0  0  0  0  0
  190.5270  176.7570  144.5170 C   0  0  0  0  0  2  0  0  0  0  0  0
  186.5900  178.0080  145.5910 C   0  0  0  0  0  0  0  0  0  0  0  0
  184.3240  178.7560  144.8350 N   0  0  0  0  0  0  0  0  0  0  0  0
  188.2240  177.4310  143.9470 N   0  0  0  0  0  0  0  0  0  0  0  0
  186.9600  177.8320  144.2490 C   0  0  0  0  0  0  0  0  0  0  0  0
  189.1560  177.1970  144.9100 C   0  0  0  0  0  0  0  0  0  0  0  0
  187.5300  177.7650  146.5980 C   0  0  0  0  0  3  0  0  0  0  0  0
  184.6390  178.5900  143.5850 C   0  0  0  0  0  3  0  0  0  0  0  0
  188.8190  177.3530  146.2590 C   0  0  0  0  0  3  0  0  0  0  0  0
  184.8550  178.6110  147.0960 O   0  0  0  0  0  0  0  0  0  0  0  0
  185.2290  178.4610  145.9030 C   0  0  0  0  0  0  0  0  0  0  0  0
  185.9710  178.0430  143.1340 C   0  0  0  0  0  2  0  0  0  0  0  0
  1 14  1  0  0  0  0
  2  1  2  0  0  0  0
  3  4  1  1  0  0  0
  3  1  1  0  0  0  0
  5  3  1  0  0  0  0
  7  6  1  6  0  0  0
  7  5  1  0  0  0  0
  8  7  1  0  0  0  0
  9 13  1  0  0  0  0
  9 11  1  0  0  0  0
 11  8  1  6  0  0  0
 11 10  1  0  0  0  0
 13 12  1  1  0  0  0
 13 11  1  0  0  0  0
 13 10  1  0  0  0  0
 14 19  1  0  0  0  0
 15 24  1  0  0  0  0
 15 20  1  0  0  0  0
 16 24  1  0  0  0  0
 17 18  1  0  0  0  0
 17 19  2  0  0  0  0
 18 15  2  0  0  0  0
 19 22  1  0  0  0  0
 21 16  2  0  0  0  0
 22 20  2  0  0  0  0
 24 23  2  0  0  0  0
 25 21  1  0  0  0  0
 25 18  1  0  0  0  0
M  END
>  <MODEL>
6

>  <REMARK>
 VINA RESULT:      -7.7      2.976      5.940
  Name = 
  7 active torsions:
  status: ('A' for Active; 'I' for Inactive)
    1  A    between atoms: C_2  and  C_6
    2  A    between atoms: C_2  and  C_25
    3  A    between atoms: C_6  and  C_13
    4  A    between atoms: C_9  and  N_24
    5  A    between atoms: C_13  and  C_22
    6  A    between atoms: C_14  and  C_25
    7  A    between atoms: C_22  and  N_24
                            x       y       z     vdW  Elec       q    Type
                         _______ _______ _______ _____ _____    ______ ____

>  <TORSDO>
F 7

$$$$
=
 OpenBabel10232409453D

 25 28  0  0  1  0  0  0  0  0999 V2000
  190.2890  177.0840  142.4230 C   0  0  0  0  0  0  0  0  0  0  0  0
  191.1510  177.7510  142.9720 O   0  0  0  0  0  0  0  0  0  0  0  0
  190.0320  177.2370  140.9540 C   0  0  2  0  0  3  0  0  0  0  0  0
  191.2440  177.3860  140.2800 O   0  0  0  0  0  1  0  0  0  0  0  0
  189.1500  178.4480  140.6850 C   0  0  0  0  0  2  0  0  0  0  0  0
  186.8520  178.7860  140.1710 O   0  0  0  0  0  1  0  0  0  0  0  0
  187.9900  178.0790  139.7790 C   0  0  1  0  0  3  0  0  0  0  0  0
  188.3200  178.4200  138.4020 N   0  0  0  0  0  2  0  0  0  0  0  0
  187.2850  176.7910  137.0750 C   0  0  0  0  0  2  0  0  0  0  0  0
  187.0990  179.1810  136.6310 O   0  0  0  0  0  0  0  0  0  0  0  0
  187.1330  178.1790  137.6000 C   0  0  1  0  0  0  0  0  0  0  0  0
  186.4020  177.6670  135.2310 F   0  0  0  0  0  0  0  0  0  0  0  0
  187.4350  177.9280  136.1090 C   0  0  2  0  0  0  0  0  0  0  0  0
  189.4850  176.1140  143.2300 C   0  0  0  0  0  2  0  0  0  0  0  0
  186.3480  178.0840  145.3510 C   0  0  0  0  0  0  0  0  0  0  0  0
  184.0910  179.1630  145.2740 N   0  0  0  0  0  0  0  0  0  0  0  0
  187.2440  177.1390  143.3490 N   0  0  0  0  0  0  0  0  0  0  0  0
  186.2230  177.7680  143.9900 C   0  0  0  0  0  0  0  0  0  0  0  0
  188.3990  176.8060  143.9860 C   0  0  0  0  0  0  0  0  0  0  0  0
  187.5240  177.7420  146.0280 C   0  0  0  0  0  3  0  0  0  0  0  0
  183.9460  178.8720  144.0160 C   0  0  0  0  0  3  0  0  0  0  0  0
  188.5550  177.0960  145.3460 C   0  0  0  0  0  3  0  0  0  0  0  0
  185.3140  179.0630  147.2520 O   0  0  0  0  0  0  0  0  0  0  0  0
  185.2470  178.7810  146.0260 C   0  0  0  0  0  0  0  0  0  0  0  0
  184.9620  178.0790  143.2300 C   0  0  0  0  0  2  0  0  0  0  0  0
  1  2  2  0  0  0  0
  1 14  1  0  0  0  0
  3  4  1  6  0  0  0
  3  1  1  0  0  0  0
  5  3  1  0  0  0  0
  7  6  1  1  0  0  0
  7  5  1  0  0  0  0
  8  7  1  0  0  0  0
  9 11  1  0  0  0  0
 10 11  1  0  0  0  0
 11  8  1  1  0  0  0
 13 12  1  6  0  0  0
 13 10  1  0  0  0  0
 13  9  1  0  0  0  0
 13 11  1  0  0  0  0
 14 19  1  0  0  0  0
 15 24  1  0  0  0  0
 15 20  1  0  0  0  0
 16 24  1  0  0  0  0
 17 19  2  0  0  0  0
 17 18  1  0  0  0  0
 18 15  2  0  0  0  0
 19 22  1  0  0  0  0
 21 16  2  0  0  0  0
 22 20  2  0  0  0  0
 24 23  2  0  0  0  0
 25 18  1  0  0  0  0
 25 21  1  0  0  0  0
M  END
>  <MODEL>
7

>  <REMARK>
 VINA RESULT:      -7.6      3.482      6.629
  Name = 
  7 active torsions:
  status: ('A' for Active; 'I' for Inactive)
    1  A    between atoms: C_2  and  C_6
    2  A    between atoms: C_2  and  C_25
    3  A    between atoms: C_6  and  C_13
    4  A    between atoms: C_9  and  N_24
    5  A    between atoms: C_13  and  C_22
    6  A    between atoms: C_14  and  C_25
    7  A    between atoms: C_22  and  N_24
                            x       y       z     vdW  Elec       q    Type
                         _______ _______ _______ _____ _____    ______ ____

>  <TORSDO>
F 7

$$$$
=
 OpenBabel10232409453D

 25 28  0  0  1  0  0  0  0  0999 V2000
  185.3260  179.0790  145.5460 C   0  0  0  0  0  0  0  0  0  0  0  0
  185.6060  180.1850  145.9810 O   0  0  0  0  0  0  0  0  0  0  0  0
  184.7230  178.9310  144.1820 C   0  0  2  0  0  3  0  0  0  0  0  0
  183.4240  178.4360  144.2950 O   0  0  0  0  0  1  0  0  0  0  0  0
  185.5530  177.9840  143.3260 C   0  0  0  0  0  2  0  0  0  0  0  0
  185.3660  179.9140  141.9480 O   0  0  0  0  0  1  0  0  0  0  0  0
  185.8960  178.6240  141.9930 C   0  0  1  0  0  3  0  0  0  0  0  0
  187.3440  178.6920  141.8430 N   0  0  0  0  0  2  0  0  0  0  0  0
  189.0500  177.3570  140.9530 C   0  0  0  0  0  2  0  0  0  0  0  0
  187.6210  178.7790  139.5800 O   0  0  0  0  0  0  0  0  0  0  0  0
  187.6940  177.9120  140.6700 C   0  0  1  0  0  0  0  0  0  0  0  0
  189.3930  177.7870  138.7970 F   0  0  0  0  0  0  0  0  0  0  0  0
  188.9340  178.4420  139.9230 C   0  0  2  0  0  0  0  0  0  0  0  0
  185.5830  177.8710  146.3900 C   0  0  0  0  0  2  0  0  0  0  0  0
  189.7710  177.2720  146.9580 C   0  0  0  0  0  0  0  0  0  0  0  0
  191.9790  176.6610  145.9510 N   0  0  0  0  0  0  0  0  0  0  0  0
  187.8460  177.3690  145.5460 N   0  0  0  0  0  0  0  0  0  0  0  0
  189.1840  177.1700  145.6880 C   0  0  0  0  0  0  0  0  0  0  0  0
  187.0450  177.6620  146.6070 C   0  0  0  0  0  0  0  0  0  0  0  0
  188.9670  177.5810  148.0600 C   0  0  0  0  0  3  0  0  0  0  0  0
  191.4620  176.5710  144.7620 C   0  0  0  0  0  3  0  0  0  0  0  0
  187.5980  177.7810  147.8870 C   0  0  0  0  0  3  0  0  0  0  0  0
  191.7780  177.1370  148.2200 O   0  0  0  0  0  0  0  0  0  0  0  0
  191.2120  177.0350  147.1000 C   0  0  0  0  0  0  0  0  0  0  0  0
  190.0140  176.8800  144.4660 C   0  0  0  0  0  2  0  0  0  0  0  0
  1  2  2  0  0  0  0
  1 14  1  0  0  0  0
  3  4  1  1  0  0  0
  3  1  1  0  0  0  0
  5  3  1  0  0  0  0
  7  6  1  1  0  0  0
  7  5  1  0  0  0  0
  8  7  1  0  0  0  0
 10 13  1  0  0  0  0
 10 11  1  0  0  0  0
 11  9  1  0  0  0  0
 11  8  1  1  0  0  0
 13 12  1  6  0  0  0
 13 11  1  0  0  0  0
 13  9  1  0  0  0  0
 14 19  1  0  0  0  0
 15 24  1  0  0  0  0
 15 20  1  0  0  0  0
 16 24  1  0  0  0  0
 17 18  1  0  0  0  0
 17 19  2  0  0  0  0
 18 15  2  0  0  0  0
 19 22  1  0  0  0  0
 21 16  2  0  0  0  0
 22 20  2  0  0  0  0
 24 23  2  0  0  0  0
 25 21  1  0  0  0  0
 25 18  1  0  0  0  0
M  END
>  <MODEL>
8

>  <REMARK>
 VINA RESULT:      -7.5      2.733      7.266
  Name = 
  7 active torsions:
  status: ('A' for Active; 'I' for Inactive)
    1  A    between atoms: C_2  and  C_6
    2  A    between atoms: C_2  and  C_25
    3  A    between atoms: C_6  and  C_13
    4  A    between atoms: C_9  and  N_24
    5  A    between atoms: C_13  and  C_22
    6  A    between atoms: C_14  and  C_25
    7  A    between atoms: C_22  and  N_24
                            x       y       z     vdW  Elec       q    Type
                         _______ _______ _______ _____ _____    ______ ____

>  <TORSDO>
F 7

$$$$
=
 OpenBabel10232409453D

 25 28  0  0  1  0  0  0  0  0999 V2000
  190.3570  176.9280  141.9360 C   0  0  0  0  0  0  0  0  0  0  0  0
  191.2960  177.5680  142.3830 O   0  0  0  0  0  0  0  0  0  0  0  0
  189.8840  177.1570  140.5320 C   0  0  2  0  0  3  0  0  0  0  0  0
  190.9820  177.3480  139.6930 O   0  0  0  0  0  1  0  0  0  0  0  0
  188.9750  178.3760  140.4620 C   0  0  0  0  0  2  0  0  0  0  0  0
  186.6340  178.6820  140.1670 O   0  0  0  0  0  1  0  0  0  0  0  0
  187.7620  178.0930  139.5930 C   0  0  1  0  0  3  0  0  0  0  0  0
  187.9740  178.6510  138.2640 N   0  0  0  0  0  2  0  0  0  0  0  0
  189.1960  177.6470  136.5360 C   0  0  0  0  0  2  0  0  0  0  0  0
  186.7580  177.7040  136.5820 O   0  0  0  0  0  0  0  0  0  0  0  0
  187.9310  177.5480  137.3210 C   0  0  1  0  0  0  0  0  0  0  0  0
  187.8870  177.0530  134.8380 F   0  0  0  0  0  0  0  0  0  0  0  0
  187.9110  177.9970  135.8460 C   0  0  2  0  0  0  0  0  0  0  0  0
  189.6760  175.9180  142.8030 C   0  0  0  0  0  2  0  0  0  0  0  0
  187.2670  177.8040  145.7800 C   0  0  0  0  0  0  0  0  0  0  0  0
  187.0450  178.5730  148.1520 N   0  0  0  0  0  0  0  0  0  0  0  0
  189.3200  176.8050  145.0780 N   0  0  0  0  0  0  0  0  0  0  0  0
  188.5830  177.4020  146.0530 C   0  0  0  0  0  0  0  0  0  0  0  0
  188.8180  176.5760  143.8340 C   0  0  0  0  0  0  0  0  0  0  0  0
  186.7350  177.5860  144.5050 C   0  0  0  0  0  3  0  0  0  0  0  0
  188.2650  178.2190  148.4270 C   0  0  0  0  0  3  0  0  0  0  0  0
  187.5130  176.9730  143.5230 C   0  0  0  0  0  3  0  0  0  0  0  0
  185.2980  178.8200  146.6340 O   0  0  0  0  0  0  0  0  0  0  0  0
  186.4750  178.4290  146.8470 C   0  0  0  0  0  0  0  0  0  0  0  0
  189.2120  177.6520  147.3970 C   0  0  0  0  0  2  0  0  0  0  0  0
  1  2  2  0  0  0  0
  1 14  1  0  0  0  0
  3  4  1  6  0  0  0
  3  1  1  0  0  0  0
  5  3  1  0  0  0  0
  7  6  1  1  0  0  0
  7  5  1  0  0  0  0
  8  7  1  0  0  0  0
  9 11  1  0  0  0  0
 10 11  1  0  0  0  0
 11  8  1  1  0  0  0
 13 12  1  6  0  0  0
 13  9  1  0  0  0  0
 13 10  1  0  0  0  0
 13 11  1  0  0  0  0
 14 19  1  0  0  0  0
 15 18  1  0  0  0  0
 15 24  1  0  0  0  0
 16 21  2  0  0  0  0
 17 18  2  0  0  0  0
 18 25  1  0  0  0  0
 19 17  1  0  0  0  0
 20 15  2  0  0  0  0
 22 19  2  0  0  0  0
 22 20  1  0  0  0  0
 23 24  2  0  0  0  0
 24 16  1  0  0  0  0
 25 21  1  0  0  0  0
M  END
>  <MODEL>
9

>  <REMARK>
 VINA RESULT:      -7.5      3.666      7.029
  Name = 
  7 active torsions:
  status: ('A' for Active; 'I' for Inactive)
    1  A    between atoms: C_2  and  C_6
    2  A    between atoms: C_2  and  C_25
    3  A    between atoms: C_6  and  C_13
    4  A    between atoms: C_9  and  N_24
    5  A    between atoms: C_13  and  C_22
    6  A    between atoms: C_14  and  C_25
    7  A    between atoms: C_22  and  N_24
                            x       y       z     vdW  Elec       q    Type
                         _______ _______ _______ _____ _____    ______ ____

>  <TORSDO>
F 7

$$$$
