=
 OpenBabel10232407423D

 36 39  0  0  1  0  0  0  0  0999 V2000
  188.5420  176.8310  142.8140 N   0  0  2  0  0  0  0  0  0  0  0  0
  190.0560  177.6720  144.4410 N   0  0  0  0  0  0  0  0  0  0  0  0
  190.4400  178.0670  142.0780 C   0  0  0  0  0  2  0  0  0  0  0  0
  188.5280  176.7830  141.3560 C   0  0  0  0  0  2  0  0  0  0  0  0
  188.0560  177.0410  145.6710 N   0  0  0  0  0  0  0  0  0  0  0  0
  189.4680  177.3280  145.5520 C   0  0  0  0  0  0  0  0  0  0  0  0
  187.1960  177.1190  143.3110 C   0  0  1  0  0  3  0  0  0  0  0  0
  189.4100  177.9370  143.1720 C   0  0  1  0  0  3  0  0  0  0  0  0
  187.0960  176.9330  144.7950 C   0  0  0  0  0  3  0  0  0  0  0  0
  189.7610  177.5080  140.8490 C   0  0  2  0  0  3  0  0  0  0  0  0
  191.6530  177.2850  146.4170 F   0  0  0  0  0  0  0  0  0  0  0  0
  190.1410  175.8480  147.2700 F   0  0  0  0  0  0  0  0  0  0  0  0
  189.9950  178.0420  147.7430 F   0  0  0  0  0  0  0  0  0  0  0  0
  190.3250  177.1230  146.7640 C   0  0  0  0  0  0  0  0  0  0  0  0
  190.6400  176.5600  140.1830 N   0  0  0  0  0  2  0  0  0  0  0  0
  190.8220  176.5320  138.7630 C   0  0  0  0  0  0  0  0  0  0  0  0
  190.1870  177.3530  138.0440 O   0  0  0  0  0  0  0  0  0  0  0  0
  189.8770  174.1280  137.1100 C   0  0  0  0  0  1  0  0  0  0  0  0
  193.1270  175.7640  138.2830 C   0  0  0  0  0  3  0  0  0  0  0  0
  191.7460  175.5600  138.1200 C   0  0  0  0  0  0  0  0  0  0  0  0
  191.3140  174.4440  137.3550 C   0  0  0  0  0  0  0  0  0  0  0  0
  192.2580  173.5830  136.7850 C   0  0  0  0  0  3  0  0  0  0  0  0
  193.6230  173.8060  136.9610 C   0  0  0  0  0  3  0  0  0  0  0  0
  194.0580  174.8970  137.7100 C   0  0  0  0  0  0  0  0  0  0  0  0
  195.3840  175.1160  137.8830 F   0  0  0  0  0  0  0  0  0  0  0  0
  186.7300  178.4580  142.9400 N   0  0  0  0  0  2  0  0  0  0  0  0
  184.0690  178.8540  146.2240 N   0  0  0  0  0  1  0  0  0  0  0  0
  180.8010  179.0940  142.7190 C   0  0  0  0  0  1  0  0  0  0  0  0
  183.8310  179.0890  144.8410 C   0  0  0  0  0  0  0  0  0  0  0  0
  185.3540  178.8520  142.9510 C   0  0  0  0  0  0  0  0  0  0  0  0
  182.5450  178.7850  140.6520 F   0  0  0  0  0  0  0  0  0  0  0  0
  182.2610  178.9180  142.9610 C   0  0  0  0  0  0  0  0  0  0  0  0
  183.0810  178.7660  141.9000 C   0  0  0  0  0  0  0  0  0  0  0  0
  184.5230  178.4570  141.9810 C   0  0  0  0  0  3  0  0  0  0  0  0
  182.6790  178.7720  144.3320 N   0  0  0  0  0  0  0  0  0  0  0  0
  184.8870  179.7590  144.0330 C   0  0  0  0  0  2  0  0  0  0  0  0
  1  4  1  6  0  0  0
  1  8  1  0  0  0  0
  1  7  1  0  0  0  0
  2  6  2  0  0  0  0
  6  5  1  0  0  0  0
  6 14  1  0  0  0  0
  7 26  1  1  0  0  0
  7  9  1  0  0  0  0
  8  3  1  6  0  0  0
  8  2  1  0  0  0  0
  9  5  2  0  0  0  0
 10 15  1  1  0  0  0
 10  4  1  0  0  0  0
 10  3  1  0  0  0  0
 11 14  1  0  0  0  0
 14 12  1  0  0  0  0
 14 13  1  0  0  0  0
 16 15  1  0  0  0  0
 17 16  2  0  0  0  0
 18 21  1  0  0  0  0
 20 19  1  0  0  0  0
 20 16  1  0  0  0  0
 21 20  2  0  0  0  0
 22 23  2  0  0  0  0
 22 21  1  0  0  0  0
 23 24  1  0  0  0  0
 24 25  1  0  0  0  0
 24 19  2  0  0  0  0
 26 30  1  0  0  0  0
 28 32  1  0  0  0  0
 29 27  1  0  0  0  0
 30 36  1  0  0  0  0
 31 33  1  0  0  0  0
 32 35  1  0  0  0  0
 33 34  1  0  0  0  0
 33 32  2  0  0  0  0
 34 30  2  0  0  0  0
 35 29  2  0  0  0  0
 36 29  1  0  0  0  0
M  END
>  <MODEL>
1

>  <REMARK>
 VINA RESULT:      -9.0      0.000      0.000
  Name = 
  5 active torsions:
  status: ('A' for Active; 'I' for Inactive)
    1  A    between atoms: N_5  and  C_31
    2  A    between atoms: C_7  and  C_15
    3  A    between atoms: C_12  and  C_28
    4  A    between atoms: C_13  and  N_33
    5  A    between atoms: C_21  and  N_33
                            x       y       z     vdW  Elec       q    Type
                         _______ _______ _______ _____ _____    ______ ____

>  <TORSDO>
F 5

$$$$
=
 OpenBabel10232407423D

 36 39  0  0  1  0  0  0  0  0999 V2000
  190.0920  176.2390  139.5730 N   0  0  2  0  0  0  0  0  0  0  0  0
  188.6820  177.8630  138.5630 N   0  0  0  0  0  0  0  0  0  0  0  0
  189.8450  178.3570  140.6340 C   0  0  0  0  0  2  0  0  0  0  0  0
  190.8240  176.1590  140.8330 C   0  0  0  0  0  2  0  0  0  0  0  0
  189.0650  176.1750  136.8560 N   0  0  0  0  0  0  0  0  0  0  0  0
  188.3260  177.2580  137.4650 C   0  0  0  0  0  0  0  0  0  0  0  0
  190.8980  175.6610  138.4980 C   0  0  1  0  0  3  0  0  0  0  0  0
  189.9090  177.6520  139.3030 C   0  0  1  0  0  3  0  0  0  0  0  0
  190.1050  175.4860  137.2370 C   0  0  0  0  0  3  0  0  0  0  0  0
  190.6360  177.4730  141.5710 C   0  0  2  0  0  3  0  0  0  0  0  0
  186.1720  178.1280  137.8260 F   0  0  0  0  0  0  0  0  0  0  0  0
  186.4300  176.5440  136.2440 F   0  0  0  0  0  0  0  0  0  0  0  0
  187.2120  178.6220  135.8880 F   0  0  0  0  0  0  0  0  0  0  0  0
  187.0180  177.6430  136.8450 C   0  0  0  0  0  0  0  0  0  0  0  0
  189.8820  177.2390  142.7910 N   0  0  0  0  0  2  0  0  0  0  0  0
  190.0460  178.0320  143.9720 C   0  0  0  0  0  0  0  0  0  0  0  0
  190.8900  178.9710  143.9710 O   0  0  0  0  0  0  0  0  0  0  0  0
  191.2210  176.9160  146.5760 C   0  0  0  0  0  1  0  0  0  0  0  0
  187.8660  178.0650  145.1470 C   0  0  0  0  0  3  0  0  0  0  0  0
  189.2410  177.7750  145.1950 C   0  0  0  0  0  0  0  0  0  0  0  0
  189.7790  177.2560  146.4040 C   0  0  0  0  0  0  0  0  0  0  0  0
  188.9430  177.0490  147.5060 C   0  0  0  0  0  3  0  0  0  0  0  0
  187.5820  177.3440  147.4330 C   0  0  0  0  0  3  0  0  0  0  0  0
  187.0440  177.8520  146.2530 C   0  0  0  0  0  0  0  0  0  0  0  0
  185.7210  178.1390  146.1790 F   0  0  0  0  0  0  0  0  0  0  0  0
  192.1130  176.4330  138.2240 N   0  0  0  0  0  2  0  0  0  0  0  0
  195.4430  173.9970  139.2270 N   0  0  0  0  0  1  0  0  0  0  0  0
  196.9800  175.4410  134.9160 C   0  0  0  0  0  1  0  0  0  0  0  0
  195.0850  174.5570  137.9680 C   0  0  0  0  0  0  0  0  0  0  0  0
  193.1800  175.9660  137.3910 C   0  0  0  0  0  0  0  0  0  0  0  0
  194.8440  177.0310  134.3460 F   0  0  0  0  0  0  0  0  0  0  0  0
  195.8540  175.5960  135.8810 C   0  0  0  0  0  0  0  0  0  0  0  0
  194.8210  176.3980  135.5480 C   0  0  0  0  0  0  0  0  0  0  0  0
  193.7000  176.7510  136.4430 C   0  0  0  0  0  3  0  0  0  0  0  0
  196.0200  174.9890  137.1760 N   0  0  0  0  0  0  0  0  0  0  0  0
  193.6510  174.5660  137.5670 C   0  0  0  0  0  2  0  0  0  0  0  0
  1  4  1  1  0  0  0
  2  8  1  0  0  0  0
  3 10  1  0  0  0  0
  4 10  1  0  0  0  0
  5  9  2  0  0  0  0
  5  6  1  0  0  0  0
  6  2  2  0  0  0  0
  7 26  1  6  0  0  0
  7  1  1  0  0  0  0
  8  1  1  0  0  0  0
  8  3  1  1  0  0  0
  9  7  1  0  0  0  0
 10 15  1  1  0  0  0
 12 14  1  0  0  0  0
 13 14  1  0  0  0  0
 14  6  1  0  0  0  0
 14 11  1  0  0  0  0
 15 16  1  0  0  0  0
 16 20  1  0  0  0  0
 17 16  2  0  0  0  0
 19 20  2  0  0  0  0
 19 24  1  0  0  0  0
 20 21  1  0  0  0  0
 21 18  1  0  0  0  0
 21 22  2  0  0  0  0
 23 22  1  0  0  0  0
 24 23  2  0  0  0  0
 25 24  1  0  0  0  0
 28 32  1  0  0  0  0
 29 27  1  0  0  0  0
 30 36  1  0  0  0  0
 30 26  1  0  0  0  0
 31 33  1  0  0  0  0
 32 35  1  0  0  0  0
 33 32  2  0  0  0  0
 33 34  1  0  0  0  0
 34 30  2  0  0  0  0
 35 29  2  0  0  0  0
 36 29  1  0  0  0  0
M  END
>  <MODEL>
2

>  <REMARK>
 VINA RESULT:      -8.4      3.730     10.346
  Name = 
  5 active torsions:
  status: ('A' for Active; 'I' for Inactive)
    1  A    between atoms: N_5  and  C_31
    2  A    between atoms: C_7  and  C_15
    3  A    between atoms: C_12  and  C_28
    4  A    between atoms: C_13  and  N_33
    5  A    between atoms: C_21  and  N_33
                            x       y       z     vdW  Elec       q    Type
                         _______ _______ _______ _____ _____    ______ ____

>  <TORSDO>
F 5

$$$$
=
 OpenBabel10232407423D

 36 39  0  0  1  0  0  0  0  0999 V2000
  190.1050  176.1720  139.3080 N   0  0  2  0  0  0  0  0  0  0  0  0
  188.7040  177.7130  138.1650 N   0  0  0  0  0  0  0  0  0  0  0  0
  189.7470  178.3220  140.2690 C   0  0  0  0  0  2  0  0  0  0  0  0
  190.7750  176.1630  140.6040 C   0  0  0  0  0  2  0  0  0  0  0  0
  189.2180  175.9730  136.5480 N   0  0  0  0  0  0  0  0  0  0  0  0
  188.4200  177.0560  137.0770 C   0  0  0  0  0  0  0  0  0  0  0  0
  190.9800  175.5770  138.2970 C   0  0  1  0  0  3  0  0  0  0  0  0
  189.8980  177.5680  138.9720 C   0  0  1  0  0  3  0  0  0  0  0  0
  190.2560  175.3300  137.0070 C   0  0  0  0  0  3  0  0  0  0  0  0
  190.5150  177.4980  141.2780 C   0  0  2  0  0  3  0  0  0  0  0  0
  186.3950  176.2190  136.2270 F   0  0  0  0  0  0  0  0  0  0  0  0
  187.3880  177.9190  135.1310 F   0  0  0  0  0  0  0  0  0  0  0  0
  186.4020  178.2890  137.1180 F   0  0  0  0  0  0  0  0  0  0  0  0
  187.1340  177.3770  136.3780 C   0  0  0  0  0  0  0  0  0  0  0  0
  189.7070  177.2900  142.4690 N   0  0  0  0  0  2  0  0  0  0  0  0
  189.8040  178.1220  143.6300 C   0  0  0  0  0  0  0  0  0  0  0  0
  190.6330  179.0740  143.6390 O   0  0  0  0  0  0  0  0  0  0  0  0
  186.7740  177.6640  143.4810 C   0  0  0  0  0  1  0  0  0  0  0  0
  189.5670  177.8770  146.0830 C   0  0  0  0  0  3  0  0  0  0  0  0
  188.9460  177.8890  144.8220 C   0  0  0  0  0  0  0  0  0  0  0  0
  187.5420  177.6780  144.7600 C   0  0  0  0  0  0  0  0  0  0  0  0
  186.8170  177.4650  145.9370 C   0  0  0  0  0  3  0  0  0  0  0  0
  187.4560  177.4590  147.1760 C   0  0  0  0  0  3  0  0  0  0  0  0
  188.8320  177.6650  147.2490 C   0  0  0  0  0  0  0  0  0  0  0  0
  189.4560  177.6600  148.4520 F   0  0  0  0  0  0  0  0  0  0  0  0
  192.1860  176.3740  138.0520 N   0  0  0  0  0  2  0  0  0  0  0  0
  195.4460  173.9180  139.2190 N   0  0  0  0  0  1  0  0  0  0  0  0
  197.2340  175.4050  135.0210 C   0  0  0  0  0  1  0  0  0  0  0  0
  195.1630  174.4930  137.9480 C   0  0  0  0  0  0  0  0  0  0  0  0
  193.2980  175.9130  137.2780 C   0  0  0  0  0  0  0  0  0  0  0  0
  195.1390  177.0070  134.3460 F   0  0  0  0  0  0  0  0  0  0  0  0
  196.0540  175.5520  135.9210 C   0  0  0  0  0  0  0  0  0  0  0  0
  195.0440  176.3610  135.5380 C   0  0  0  0  0  0  0  0  0  0  0  0
  193.8740  176.7070  136.3700 C   0  0  0  0  0  3  0  0  0  0  0  0
  196.1430  174.9300  137.2170 N   0  0  0  0  0  0  0  0  0  0  0  0
  193.7550  174.5100  137.4640 C   0  0  0  0  0  2  0  0  0  0  0  0
  1  4  1  1  0  0  0
  2  8  1  0  0  0  0
  3 10  1  0  0  0  0
  4 10  1  0  0  0  0
  5  9  2  0  0  0  0
  5  6  1  0  0  0  0
  6  2  2  0  0  0  0
  7 26  1  6  0  0  0
  7  1  1  0  0  0  0
  8  1  1  0  0  0  0
  8  3  1  1  0  0  0
  9  7  1  0  0  0  0
 10 15  1  1  0  0  0
 11 14  1  0  0  0  0
 12 14  1  0  0  0  0
 14  6  1  0  0  0  0
 14 13  1  0  0  0  0
 15 16  1  0  0  0  0
 16 17  2  0  0  0  0
 16 20  1  0  0  0  0
 18 21  1  0  0  0  0
 19 24  1  0  0  0  0
 20 19  2  0  0  0  0
 21 20  1  0  0  0  0
 21 22  2  0  0  0  0
 22 23  1  0  0  0  0
 23 24  2  0  0  0  0
 24 25  1  0  0  0  0
 28 32  1  0  0  0  0
 29 27  1  0  0  0  0
 30 36  1  0  0  0  0
 30 26  1  0  0  0  0
 31 33  1  0  0  0  0
 32 35  1  0  0  0  0
 33 32  2  0  0  0  0
 33 34  1  0  0  0  0
 34 30  2  0  0  0  0
 35 29  2  0  0  0  0
 36 29  1  0  0  0  0
M  END
>  <MODEL>
3

>  <REMARK>
 VINA RESULT:      -8.4      3.220     10.368
  Name = 
  5 active torsions:
  status: ('A' for Active; 'I' for Inactive)
    1  A    between atoms: N_5  and  C_31
    2  A    between atoms: C_7  and  C_15
    3  A    between atoms: C_12  and  C_28
    4  A    between atoms: C_13  and  N_33
    5  A    between atoms: C_21  and  N_33
                            x       y       z     vdW  Elec       q    Type
                         _______ _______ _______ _____ _____    ______ ____

>  <TORSDO>
F 5

$$$$
=
 OpenBabel10232407423D

 36 39  0  0  1  0  0  0  0  0999 V2000
  190.2380  177.4480  139.2730 N   0  0  2  0  0  0  0  0  0  0  0  0
  188.5450  176.8540  137.7150 N   0  0  0  0  0  0  0  0  0  0  0  0
  190.5960  175.5660  137.8580 C   0  0  0  0  0  2  0  0  0  0  0  0
  191.5960  176.9830  139.5380 C   0  0  0  0  0  2  0  0  0  0  0  0
  187.4920  178.3950  139.2720 N   0  0  0  0  0  0  0  0  0  0  0  0
  187.6080  177.7120  138.0030 C   0  0  0  0  0  0  0  0  0  0  0  0
  189.5590  177.7310  140.5380 C   0  0  1  0  0  3  0  0  0  0  0  0
  189.5560  176.3470  138.6200 C   0  0  1  0  0  3  0  0  0  0  0  0
  188.2580  178.4460  140.3260 C   0  0  0  0  0  3  0  0  0  0  0  0
  191.8850  175.8200  138.6060 C   0  0  2  0  0  3  0  0  0  0  0  0
  186.4970  177.0250  136.0490 F   0  0  0  0  0  0  0  0  0  0  0  0
  187.1160  179.1850  136.2180 F   0  0  0  0  0  0  0  0  0  0  0  0
  185.4130  178.4050  137.4630 F   0  0  0  0  0  0  0  0  0  0  0  0
  186.6450  178.0890  136.9190 C   0  0  0  0  0  0  0  0  0  0  0  0
  192.9360  176.1970  137.6740 N   0  0  0  0  0  2  0  0  0  0  0  0
  193.8820  175.2600  137.1480 C   0  0  0  0  0  0  0  0  0  0  0  0
  193.8230  174.0530  137.5140 O   0  0  0  0  0  0  0  0  0  0  0  0
  195.9980  173.3560  136.0040 C   0  0  0  0  0  1  0  0  0  0  0  0
  194.9430  177.0240  135.7720 C   0  0  0  0  0  3  0  0  0  0  0  0
  194.9310  175.6790  136.1810 C   0  0  0  0  0  0  0  0  0  0  0  0
  195.9150  174.8030  135.6490 C   0  0  0  0  0  0  0  0  0  0  0  0
  196.8610  175.2880  134.7400 C   0  0  0  0  0  3  0  0  0  0  0  0
  196.8530  176.6270  134.3510 C   0  0  0  0  0  3  0  0  0  0  0  0
  195.8940  177.4950  134.8670 C   0  0  0  0  0  0  0  0  0  0  0  0
  195.8840  178.7970  134.4900 F   0  0  0  0  0  0  0  0  0  0  0  0
  189.3450  176.5280  141.3460 N   0  0  0  0  0  2  0  0  0  0  0  0
  186.1250  177.9250  143.7340 N   0  0  0  0  0  1  0  0  0  0  0  0
  189.3700  177.4680  147.2390 C   0  0  0  0  0  1  0  0  0  0  0  0
  187.3550  177.3350  144.1390 C   0  0  0  0  0  0  0  0  0  0  0  0
  189.2110  176.5420  142.7710 C   0  0  0  0  0  0  0  0  0  0  0  0
  191.4170  176.6240  145.6540 F   0  0  0  0  0  0  0  0  0  0  0  0
  189.1930  177.3140  145.7670 C   0  0  0  0  0  0  0  0  0  0  0  0
  190.2410  176.8940  145.0280 C   0  0  0  0  0  0  0  0  0  0  0  0
  190.2600  176.8150  143.5530 C   0  0  0  0  0  3  0  0  0  0  0  0
  187.9450  177.7710  145.2120 N   0  0  0  0  0  0  0  0  0  0  0  0
  187.8920  176.1860  143.3600 C   0  0  0  0  0  2  0  0  0  0  0  0
  1  4  1  1  0  0  0
  1  7  1  0  0  0  0
  2  6  2  0  0  0  0
  2  8  1  0  0  0  0
  3 10  1  0  0  0  0
  5  9  2  0  0  0  0
  6  5  1  0  0  0  0
  7 26  1  6  0  0  0
  8  3  1  6  0  0  0
  8  1  1  0  0  0  0
  9  7  1  0  0  0  0
 10 15  1  6  0  0  0
 10  4  1  0  0  0  0
 11 14  1  0  0  0  0
 12 14  1  0  0  0  0
 14 13  1  0  0  0  0
 14  6  1  0  0  0  0
 16 17  2  0  0  0  0
 16 15  1  0  0  0  0
 19 20  1  0  0  0  0
 20 16  1  0  0  0  0
 21 18  1  0  0  0  0
 21 20  2  0  0  0  0
 22 21  1  0  0  0  0
 23 22  2  0  0  0  0
 23 24  1  0  0  0  0
 24 19  2  0  0  0  0
 25 24  1  0  0  0  0
 26 30  1  0  0  0  0
 27 29  1  0  0  0  0
 29 35  2  0  0  0  0
 30 36  1  0  0  0  0
 30 34  2  0  0  0  0
 32 28  1  0  0  0  0
 33 31  1  0  0  0  0
 33 32  2  0  0  0  0
 34 33  1  0  0  0  0
 35 32  1  0  0  0  0
 36 29  1  0  0  0  0
M  END
>  <MODEL>
4

>  <REMARK>
 VINA RESULT:      -8.2      3.030      6.468
  Name = 
  5 active torsions:
  status: ('A' for Active; 'I' for Inactive)
    1  A    between atoms: N_5  and  C_31
    2  A    between atoms: C_7  and  C_15
    3  A    between atoms: C_12  and  C_28
    4  A    between atoms: C_13  and  N_33
    5  A    between atoms: C_21  and  N_33
                            x       y       z     vdW  Elec       q    Type
                         _______ _______ _______ _____ _____    ______ ____

>  <TORSDO>
F 5

$$$$
=
 OpenBabel10232407423D

 36 39  0  0  1  0  0  0  0  0999 V2000
  189.5640  176.2500  138.6840 N   0  0  2  0  0  0  0  0  0  0  0  0
  188.0580  177.7380  137.6040 N   0  0  0  0  0  0  0  0  0  0  0  0
  189.1870  178.3950  139.6490 C   0  0  0  0  0  2  0  0  0  0  0  0
  190.2990  176.2730  139.9440 C   0  0  0  0  0  2  0  0  0  0  0  0
  188.5440  176.0010  135.9750 N   0  0  0  0  0  0  0  0  0  0  0  0
  187.7400  177.0630  136.5360 C   0  0  0  0  0  0  0  0  0  0  0  0
  190.4040  175.6750  137.6330 C   0  0  1  0  0  3  0  0  0  0  0  0
  189.2950  177.6360  138.3500 C   0  0  1  0  0  3  0  0  0  0  0  0
  189.6240  175.3950  136.3840 C   0  0  0  0  0  3  0  0  0  0  0  0
  190.0310  177.6040  140.6220 C   0  0  2  0  0  3  0  0  0  0  0  0
  185.7980  176.1400  135.5880 F   0  0  0  0  0  0  0  0  0  0  0  0
  186.5750  178.0800  134.7460 F   0  0  0  0  0  0  0  0  0  0  0  0
  185.6030  178.0460  136.7740 F   0  0  0  0  0  0  0  0  0  0  0  0
  186.4100  177.3390  135.9020 C   0  0  0  0  0  0  0  0  0  0  0  0
  189.2920  177.3800  141.8540 N   0  0  0  0  0  2  0  0  0  0  0  0
  189.6410  178.0020  143.0950 C   0  0  0  0  0  0  0  0  0  0  0  0
  190.6420  178.7710  143.1390 O   0  0  0  0  0  0  0  0  0  0  0  0
  186.5750  178.0020  143.1730 C   0  0  0  0  0  1  0  0  0  0  0  0
  189.5520  177.5230  145.5230 C   0  0  0  0  0  3  0  0  0  0  0  0
  188.8480  177.7630  144.3300 C   0  0  0  0  0  0  0  0  0  0  0  0
  187.4280  177.7640  144.3730 C   0  0  0  0  0  0  0  0  0  0  0  0
  186.7670  177.5270  145.5840 C   0  0  0  0  0  3  0  0  0  0  0  0
  187.4890  177.2920  146.7540 C   0  0  0  0  0  3  0  0  0  0  0  0
  188.8810  177.2890  146.7240 C   0  0  0  0  0  0  0  0  0  0  0  0
  189.5840  177.0610  147.8600 F   0  0  0  0  0  0  0  0  0  0  0  0
  191.5700  176.5070  137.3220 N   0  0  0  0  0  2  0  0  0  0  0  0
  194.5490  177.0500  134.3460 N   0  0  0  0  0  1  0  0  0  0  0  0
  196.7200  173.5380  136.7920 C   0  0  0  0  0  1  0  0  0  0  0  0
  194.6230  176.3330  135.5730 C   0  0  0  0  0  0  0  0  0  0  0  0
  192.9120  176.0090  137.2780 C   0  0  0  0  0  0  0  0  0  0  0  0
  194.7550  173.1960  138.6450 F   0  0  0  0  0  0  0  0  0  0  0  0
  195.4740  174.3570  136.7560 C   0  0  0  0  0  0  0  0  0  0  0  0
  194.5320  174.1440  137.6980 C   0  0  0  0  0  0  0  0  0  0  0  0
  193.1990  174.7810  137.7220 C   0  0  0  0  0  3  0  0  0  0  0  0
  195.2980  175.2240  135.6190 N   0  0  0  0  0  0  0  0  0  0  0  0
  193.9840  176.9130  136.7850 C   0  0  0  0  0  2  0  0  0  0  0  0
  1  4  1  1  0  0  0
  2  8  1  0  0  0  0
  3 10  1  0  0  0  0
  4 10  1  0  0  0  0
  5  9  2  0  0  0  0
  5  6  1  0  0  0  0
  6  2  2  0  0  0  0
  7 26  1  6  0  0  0
  7  1  1  0  0  0  0
  8  1  1  0  0  0  0
  8  3  1  1  0  0  0
  9  7  1  0  0  0  0
 10 15  1  1  0  0  0
 11 14  1  0  0  0  0
 12 14  1  0  0  0  0
 14  6  1  0  0  0  0
 14 13  1  0  0  0  0
 15 16  1  0  0  0  0
 16 17  2  0  0  0  0
 16 20  1  0  0  0  0
 18 21  1  0  0  0  0
 19 24  1  0  0  0  0
 20 21  1  0  0  0  0
 20 19  2  0  0  0  0
 21 22  2  0  0  0  0
 22 23  1  0  0  0  0
 24 23  2  0  0  0  0
 24 25  1  0  0  0  0
 27 29  1  0  0  0  0
 29 35  2  0  0  0  0
 29 36  1  0  0  0  0
 30 26  1  0  0  0  0
 30 34  2  0  0  0  0
 32 28  1  0  0  0  0
 32 33  2  0  0  0  0
 33 34  1  0  0  0  0
 33 31  1  0  0  0  0
 35 32  1  0  0  0  0
 36 30  1  0  0  0  0
M  END
>  <MODEL>
5

>  <REMARK>
 VINA RESULT:      -8.2      3.276     10.367
  Name = 
  5 active torsions:
  status: ('A' for Active; 'I' for Inactive)
    1  A    between atoms: N_5  and  C_31
    2  A    between atoms: C_7  and  C_15
    3  A    between atoms: C_12  and  C_28
    4  A    between atoms: C_13  and  N_33
    5  A    between atoms: C_21  and  N_33
                            x       y       z     vdW  Elec       q    Type
                         _______ _______ _______ _____ _____    ______ ____

>  <TORSDO>
F 5

$$$$
=
 OpenBabel10232407423D

 36 39  0  0  1  0  0  0  0  0999 V2000
  189.3180  176.6430  142.0590 N   0  0  2  0  0  0  0  0  0  0  0  0
  190.9200  177.2920  143.6900 N   0  0  0  0  0  0  0  0  0  0  0  0
  191.3240  177.7030  141.3330 C   0  0  0  0  0  2  0  0  0  0  0  0
  189.2890  176.6310  140.6000 C   0  0  0  0  0  2  0  0  0  0  0  0
  188.8770  176.8320  144.9240 N   0  0  0  0  0  0  0  0  0  0  0  0
  190.3100  176.9810  144.7980 C   0  0  0  0  0  0  0  0  0  0  0  0
  188.0110  177.0500  142.5750 C   0  0  1  0  0  3  0  0  0  0  0  0
  190.2940  177.6490  142.4330 C   0  0  1  0  0  3  0  0  0  0  0  0
  187.9040  176.8400  144.0550 C   0  0  0  0  0  3  0  0  0  0  0  0
  190.5840  177.2430  140.0970 C   0  0  2  0  0  3  0  0  0  0  0  0
  191.9920  175.6070  145.6970 F   0  0  0  0  0  0  0  0  0  0  0  0
  190.3470  176.3130  147.0670 F   0  0  0  0  0  0  0  0  0  0  0  0
  191.9110  177.7630  146.3520 F   0  0  0  0  0  0  0  0  0  0  0  0
  191.1510  176.6630  145.9960 C   0  0  0  0  0  0  0  0  0  0  0  0
  191.3600  176.2290  139.4010 N   0  0  0  0  0  2  0  0  0  0  0  0
  191.3860  176.1110  137.9750 C   0  0  0  0  0  0  0  0  0  0  0  0
  190.6970  176.9080  137.2780 O   0  0  0  0  0  0  0  0  0  0  0  0
  190.2220  173.5460  136.7620 C   0  0  0  0  0  1  0  0  0  0  0  0
  193.5940  175.2900  137.2120 C   0  0  0  0  0  3  0  0  0  0  0  0
  192.2080  175.0730  137.2980 C   0  0  0  0  0  0  0  0  0  0  0  0
  191.6750  173.8820  136.7360 C   0  0  0  0  0  0  0  0  0  0  0  0
  192.5270  172.9620  136.1160 C   0  0  0  0  0  3  0  0  0  0  0  0
  193.9000  173.2000  136.0440 C   0  0  0  0  0  3  0  0  0  0  0  0
  194.4330  174.3640  136.5920 C   0  0  0  0  0  0  0  0  0  0  0  0
  195.7660  174.5970  136.5240 F   0  0  0  0  0  0  0  0  0  0  0  0
  187.6770  178.4370  142.2390 N   0  0  0  0  0  2  0  0  0  0  0  0
  183.8540  178.4040  144.0840 N   0  0  0  0  0  1  0  0  0  0  0  0
  182.3860  179.1760  139.5820 C   0  0  0  0  0  1  0  0  0  0  0  0
  184.2180  178.8340  142.7770 C   0  0  0  0  0  0  0  0  0  0  0  0
  186.4100  178.8430  141.7110 C   0  0  0  0  0  0  0  0  0  0  0  0
  184.8580  179.1360  138.4420 F   0  0  0  0  0  0  0  0  0  0  0  0
  183.6100  178.9480  140.4020 C   0  0  0  0  0  0  0  0  0  0  0  0
  184.8100  178.9360  139.7850 C   0  0  0  0  0  0  0  0  0  0  0  0
  186.0930  178.6000  140.4350 C   0  0  0  0  0  3  0  0  0  0  0  0
  183.4100  178.6060  141.7860 N   0  0  0  0  0  0  0  0  0  0  0  0
  185.4840  179.5960  142.5980 C   0  0  0  0  0  2  0  0  0  0  0  0
  1  4  1  6  0  0  0
  1  8  1  0  0  0  0
  1  7  1  0  0  0  0
  2  6  2  0  0  0  0
  6  5  1  0  0  0  0
  6 14  1  0  0  0  0
  7 26  1  1  0  0  0
  7  9  1  0  0  0  0
  8  3  1  6  0  0  0
  8  2  1  0  0  0  0
  9  5  2  0  0  0  0
 10 15  1  1  0  0  0
 10  4  1  0  0  0  0
 10  3  1  0  0  0  0
 11 14  1  0  0  0  0
 14 13  1  0  0  0  0
 14 12  1  0  0  0  0
 16 15  1  0  0  0  0
 17 16  2  0  0  0  0
 19 20  1  0  0  0  0
 20 16  1  0  0  0  0
 21 18  1  0  0  0  0
 21 20  2  0  0  0  0
 22 21  1  0  0  0  0
 23 22  2  0  0  0  0
 23 24  1  0  0  0  0
 24 19  2  0  0  0  0
 25 24  1  0  0  0  0
 28 32  1  0  0  0  0
 29 27  1  0  0  0  0
 30 26  1  0  0  0  0
 30 36  1  0  0  0  0
 31 33  1  0  0  0  0
 32 35  1  0  0  0  0
 33 32  2  0  0  0  0
 33 34  1  0  0  0  0
 34 30  2  0  0  0  0
 35 29  2  0  0  0  0
 36 29  1  0  0  0  0
M  END
>  <MODEL>
6

>  <REMARK>
 VINA RESULT:      -8.1      1.423      1.699
  Name = 
  5 active torsions:
  status: ('A' for Active; 'I' for Inactive)
    1  A    between atoms: N_5  and  C_31
    2  A    between atoms: C_7  and  C_15
    3  A    between atoms: C_12  and  C_28
    4  A    between atoms: C_13  and  N_33
    5  A    between atoms: C_21  and  N_33
                            x       y       z     vdW  Elec       q    Type
                         _______ _______ _______ _____ _____    ______ ____

>  <TORSDO>
F 5

$$$$
=
 OpenBabel10232407423D

 36 39  0  0  1  0  0  0  0  0999 V2000
  188.2570  176.8140  139.6160 N   0  0  2  0  0  0  0  0  0  0  0  0
  186.6040  178.4990  139.3430 N   0  0  0  0  0  0  0  0  0  0  0  0
  188.4080  178.7880  140.9410 C   0  0  0  0  0  2  0  0  0  0  0  0
  189.3740  176.6130  140.5330 C   0  0  0  0  0  2  0  0  0  0  0  0
  186.3660  177.0310  137.4210 N   0  0  0  0  0  0  0  0  0  0  0  0
  185.8900  178.0130  138.3690 C   0  0  0  0  0  0  0  0  0  0  0  0
  188.6430  176.3880  138.2700 C   0  0  1  0  0  3  0  0  0  0  0  0
  188.0080  178.2430  139.5930 C   0  0  1  0  0  3  0  0  0  0  0  0
  187.4670  176.3350  137.3420 C   0  0  0  0  0  3  0  0  0  0  0  0
  189.4620  177.8270  141.4410 C   0  0  2  0  0  3  0  0  0  0  0  0
  183.9600  178.0990  137.0290 F   0  0  0  0  0  0  0  0  0  0  0  0
  184.3320  179.7900  138.4710 F   0  0  0  0  0  0  0  0  0  0  0  0
  183.7070  177.7740  139.2450 F   0  0  0  0  0  0  0  0  0  0  0  0
  184.4520  178.4250  138.2790 C   0  0  0  0  0  0  0  0  0  0  0  0
  189.1660  177.4310  142.8090 N   0  0  0  0  0  2  0  0  0  0  0  0
  189.7020  178.1120  143.9490 C   0  0  0  0  0  0  0  0  0  0  0  0
  190.4780  179.0920  143.7730 O   0  0  0  0  0  0  0  0  0  0  0  0
  191.6080  176.5380  145.7650 C   0  0  0  0  0  1  0  0  0  0  0  0
  188.0920  178.0380  145.8280 C   0  0  0  0  0  3  0  0  0  0  0  0
  189.3600  177.6900  145.3330 C   0  0  0  0  0  0  0  0  0  0  0  0
  190.2370  176.9590  146.1780 C   0  0  0  0  0  0  0  0  0  0  0  0
  189.8290  176.6070  147.4690 C   0  0  0  0  0  3  0  0  0  0  0  0
  188.5650  176.9640  147.9380 C   0  0  0  0  0  3  0  0  0  0  0  0
  187.6960  177.6800  147.1170 C   0  0  0  0  0  0  0  0  0  0  0  0
  186.4670  178.0280  147.5700 F   0  0  0  0  0  0  0  0  0  0  0  0
  189.7000  177.2240  137.6930 N   0  0  0  0  0  2  0  0  0  0  0  0
  190.8330  174.3680  134.7630 N   0  0  0  0  0  1  0  0  0  0  0  0
  195.0060  174.5540  137.1250 C   0  0  0  0  0  1  0  0  0  0  0  0
  191.6510  175.1040  135.6650 C   0  0  0  0  0  0  0  0  0  0  0  0
  191.0030  176.7360  137.3570 C   0  0  0  0  0  0  0  0  0  0  0  0
  194.2110  176.3480  139.0110 F   0  0  0  0  0  0  0  0  0  0  0  0
  193.6190  175.1020  137.1320 C   0  0  0  0  0  0  0  0  0  0  0  0
  193.2780  175.9870  138.0920 C   0  0  0  0  0  0  0  0  0  0  0  0
  191.9170  176.5200  138.3080 C   0  0  0  0  0  3  0  0  0  0  0  0
  192.6890  174.5290  136.1940 N   0  0  0  0  0  0  0  0  0  0  0  0
  191.3330  176.5360  135.9200 C   0  0  0  0  0  2  0  0  0  0  0  0
  1  4  1  1  0  0  0
  2  8  1  0  0  0  0
  3 10  1  0  0  0  0
  4 10  1  0  0  0  0
  5  6  1  0  0  0  0
  6  2  2  0  0  0  0
  7 26  1  6  0  0  0
  7  1  1  0  0  0  0
  8  1  1  0  0  0  0
  8  3  1  1  0  0  0
  9  5  2  0  0  0  0
  9  7  1  0  0  0  0
 10 15  1  1  0  0  0
 11 14  1  0  0  0  0
 14  6  1  0  0  0  0
 14 12  1  0  0  0  0
 14 13  1  0  0  0  0
 15 16  1  0  0  0  0
 16 20  1  0  0  0  0
 17 16  2  0  0  0  0
 18 21  1  0  0  0  0
 19 24  1  0  0  0  0
 20 19  2  0  0  0  0
 20 21  1  0  0  0  0
 21 22  2  0  0  0  0
 22 23  1  0  0  0  0
 24 25  1  0  0  0  0
 24 23  2  0  0  0  0
 27 29  1  0  0  0  0
 28 32  1  0  0  0  0
 29 36  1  0  0  0  0
 29 35  2  0  0  0  0
 30 26  1  0  0  0  0
 30 34  2  0  0  0  0
 32 33  2  0  0  0  0
 33 34  1  0  0  0  0
 33 31  1  0  0  0  0
 35 32  1  0  0  0  0
 36 30  1  0  0  0  0
M  END
>  <MODEL>
7

>  <REMARK>
 VINA RESULT:      -8.0      3.267      9.611
  Name = 
  5 active torsions:
  status: ('A' for Active; 'I' for Inactive)
    1  A    between atoms: N_5  and  C_31
    2  A    between atoms: C_7  and  C_15
    3  A    between atoms: C_12  and  C_28
    4  A    between atoms: C_13  and  N_33
    5  A    between atoms: C_21  and  N_33
                            x       y       z     vdW  Elec       q    Type
                         _______ _______ _______ _____ _____    ______ ____

>  <TORSDO>
F 5

$$$$
=
 OpenBabel10232407423D

 36 39  0  0  1  0  0  0  0  0999 V2000
  189.3850  176.2310  137.9910 N   0  0  2  0  0  0  0  0  0  0  0  0
  188.0140  177.7930  136.8390 N   0  0  0  0  0  0  0  0  0  0  0  0
  189.2620  178.4660  138.8080 C   0  0  0  0  0  2  0  0  0  0  0  0
  190.1530  176.2620  139.2320 C   0  0  0  0  0  2  0  0  0  0  0  0
  188.2700  175.9060  135.3280 N   0  0  0  0  0  0  0  0  0  0  0  0
  187.5970  177.0840  135.8290 C   0  0  0  0  0  0  0  0  0  0  0  0
  190.1310  175.4980  136.9680 C   0  0  1  0  0  3  0  0  0  0  0  0
  189.2540  177.6120  137.5650 C   0  0  1  0  0  3  0  0  0  0  0  0
  189.2920  175.2180  135.7580 C   0  0  0  0  0  3  0  0  0  0  0  0
  190.0450  177.6580  139.8180 C   0  0  2  0  0  3  0  0  0  0  0  0
  185.3830  177.7810  136.1980 F   0  0  0  0  0  0  0  0  0  0  0  0
  185.7890  176.3940  134.4690 F   0  0  0  0  0  0  0  0  0  0  0  0
  186.4490  178.5420  134.3630 F   0  0  0  0  0  0  0  0  0  0  0  0
  186.2870  177.4550  135.2040 C   0  0  0  0  0  0  0  0  0  0  0  0
  189.3210  177.5990  141.0780 N   0  0  0  0  0  2  0  0  0  0  0  0
  189.9690  177.6710  142.3520 C   0  0  0  0  0  0  0  0  0  0  0  0
  191.2260  177.7740  142.3990 O   0  0  0  0  0  0  0  0  0  0  0  0
  191.2560  177.4860  145.1300 C   0  0  0  0  0  1  0  0  0  0  0  0
  187.7900  177.6770  143.5290 C   0  0  0  0  0  3  0  0  0  0  0  0
  189.1920  177.6270  143.6190 C   0  0  0  0  0  0  0  0  0  0  0  0
  189.7820  177.5400  144.9090 C   0  0  0  0  0  0  0  0  0  0  0  0
  188.9680  177.5070  146.0460 C   0  0  0  0  0  3  0  0  0  0  0  0
  187.5790  177.5570  145.9300 C   0  0  0  0  0  3  0  0  0  0  0  0
  186.9900  177.6420  144.6710 C   0  0  0  0  0  0  0  0  0  0  0  0
  185.6410  177.6900  144.5550 F   0  0  0  0  0  0  0  0  0  0  0  0
  191.3680  176.1780  136.5750 N   0  0  0  0  0  2  0  0  0  0  0  0
  195.1140  177.7120  135.2960 N   0  0  0  0  0  1  0  0  0  0  0  0
  196.3850  173.0950  135.6060 C   0  0  0  0  0  1  0  0  0  0  0  0
  194.8030  176.4320  135.8340 C   0  0  0  0  0  0  0  0  0  0  0  0
  192.6520  175.5440  136.5590 C   0  0  0  0  0  0  0  0  0  0  0  0
  193.9470  172.1580  136.3740 F   0  0  0  0  0  0  0  0  0  0  0  0
  195.2230  174.0140  135.7740 C   0  0  0  0  0  0  0  0  0  0  0  0
  194.0370  173.4950  136.1540 C   0  0  0  0  0  0  0  0  0  0  0  0
  192.7700  174.2510  136.2400 C   0  0  0  0  0  3  0  0  0  0  0  0
  195.4130  175.3830  135.3700 N   0  0  0  0  0  0  0  0  0  0  0  0
  193.8390  176.3420  136.9640 C   0  0  0  0  0  2  0  0  0  0  0  0
  1  4  1  1  0  0  0
  2  8  1  0  0  0  0
  3 10  1  0  0  0  0
  4 10  1  0  0  0  0
  5  9  2  0  0  0  0
  5  6  1  0  0  0  0
  6  2  2  0  0  0  0
  7 26  1  6  0  0  0
  7  1  1  0  0  0  0
  8  1  1  0  0  0  0
  8  3  1  1  0  0  0
  9  7  1  0  0  0  0
 10 15  1  1  0  0  0
 12 14  1  0  0  0  0
 13 14  1  0  0  0  0
 14  6  1  0  0  0  0
 14 11  1  0  0  0  0
 15 16  1  0  0  0  0
 16 17  2  0  0  0  0
 16 20  1  0  0  0  0
 19 20  2  0  0  0  0
 19 24  1  0  0  0  0
 20 21  1  0  0  0  0
 21 18  1  0  0  0  0
 21 22  2  0  0  0  0
 23 22  1  0  0  0  0
 24 23  2  0  0  0  0
 25 24  1  0  0  0  0
 27 29  1  0  0  0  0
 28 32  1  0  0  0  0
 29 36  1  0  0  0  0
 30 26  1  0  0  0  0
 30 36  1  0  0  0  0
 32 33  2  0  0  0  0
 33 34  1  0  0  0  0
 33 31  1  0  0  0  0
 34 30  2  0  0  0  0
 35 32  1  0  0  0  0
 35 29  2  0  0  0  0
M  END
>  <MODEL>
8

>  <REMARK>
 VINA RESULT:      -7.9      3.682     10.568
  Name = 
  5 active torsions:
  status: ('A' for Active; 'I' for Inactive)
    1  A    between atoms: N_5  and  C_31
    2  A    between atoms: C_7  and  C_15
    3  A    between atoms: C_12  and  C_28
    4  A    between atoms: C_13  and  N_33
    5  A    between atoms: C_21  and  N_33
                            x       y       z     vdW  Elec       q    Type
                         _______ _______ _______ _____ _____    ______ ____

>  <TORSDO>
F 5

$$$$
=
 OpenBabel10232407423D

 36 39  0  0  1  0  0  0  0  0999 V2000
  188.1220  176.8950  143.5270 N   0  0  2  0  0  0  0  0  0  0  0  0
  189.5750  177.9250  145.1010 N   0  0  0  0  0  0  0  0  0  0  0  0
  189.7830  178.4070  142.7320 C   0  0  0  0  0  2  0  0  0  0  0  0
  188.0450  176.8670  142.0700 C   0  0  0  0  0  2  0  0  0  0  0  0
  187.7510  176.9910  146.4070 N   0  0  0  0  0  0  0  0  0  0  0  0
  189.0990  177.4830  146.2290 C   0  0  0  0  0  0  0  0  0  0  0  0
  186.7750  176.9760  144.0910 C   0  0  1  0  0  3  0  0  0  0  0  0
  188.8370  178.1110  143.8680 C   0  0  1  0  0  3  0  0  0  0  0  0
  186.7750  176.7560  145.5740 C   0  0  0  0  0  3  0  0  0  0  0  0
  189.1340  177.7720  141.5230 C   0  0  2  0  0  3  0  0  0  0  0  0
  189.6580  178.3070  148.3580 F   0  0  0  0  0  0  0  0  0  0  0  0
  191.3300  177.6540  146.9950 F   0  0  0  0  0  0  0  0  0  0  0  0
  189.9890  176.1170  147.9410 F   0  0  0  0  0  0  0  0  0  0  0  0
  190.0330  177.3870  147.3960 C   0  0  0  0  0  0  0  0  0  0  0  0
  190.1080  176.9720  140.7970 N   0  0  0  0  0  2  0  0  0  0  0  0
  190.2970  177.0720  139.3810 C   0  0  0  0  0  0  0  0  0  0  0  0
  189.5820  177.8750  138.7190 O   0  0  0  0  0  0  0  0  0  0  0  0
  193.3200  177.4870  139.6910 C   0  0  0  0  0  1  0  0  0  0  0  0
  190.8610  175.2290  137.8270 C   0  0  0  0  0  3  0  0  0  0  0  0
  191.3170  176.2510  138.6770 C   0  0  0  0  0  0  0  0  0  0  0  0
  192.7190  176.4400  138.8150 C   0  0  0  0  0  0  0  0  0  0  0  0
  193.6050  175.6150  138.1130 C   0  0  0  0  0  3  0  0  0  0  0  0
  193.1280  174.6080  137.2740 C   0  0  0  0  0  3  0  0  0  0  0  0
  191.7560  174.4150  137.1310 C   0  0  0  0  0  0  0  0  0  0  0  0
  191.2890  173.4370  136.3160 F   0  0  0  0  0  0  0  0  0  0  0  0
  186.1020  178.2380  143.7710 N   0  0  0  0  0  2  0  0  0  0  0  0
  184.8630  179.4600  139.8980 N   0  0  0  0  0  1  0  0  0  0  0  0
  180.5460  179.4940  141.9930 C   0  0  0  0  0  1  0  0  0  0  0  0
  184.0750  179.0090  140.9940 C   0  0  0  0  0  0  0  0  0  0  0  0
  184.7820  178.3170  143.2220 C   0  0  0  0  0  0  0  0  0  0  0  0
  181.4010  178.7580  144.4700 F   0  0  0  0  0  0  0  0  0  0  0  0
  181.9900  179.2450  142.2680 C   0  0  0  0  0  0  0  0  0  0  0  0
  182.3590  178.8850  143.5150 C   0  0  0  0  0  0  0  0  0  0  0  0
  183.7540  178.7280  143.9730 C   0  0  0  0  0  3  0  0  0  0  0  0
  182.9160  179.5550  141.2090 N   0  0  0  0  0  0  0  0  0  0  0  0
  184.5730  177.8740  141.8180 C   0  0  0  0  0  2  0  0  0  0  0  0
  1  4  1  6  0  0  0
  1  8  1  0  0  0  0
  1  7  1  0  0  0  0
  2  6  2  0  0  0  0
  6  5  1  0  0  0  0
  6 14  1  0  0  0  0
  7 26  1  1  0  0  0
  7  9  1  0  0  0  0
  8  3  1  6  0  0  0
  8  2  1  0  0  0  0
  9  5  2  0  0  0  0
 10 15  1  1  0  0  0
 10  4  1  0  0  0  0
 10  3  1  0  0  0  0
 12 14  1  0  0  0  0
 14 13  1  0  0  0  0
 14 11  1  0  0  0  0
 16 15  1  0  0  0  0
 17 16  2  0  0  0  0
 19 20  1  0  0  0  0
 20 21  2  0  0  0  0
 20 16  1  0  0  0  0
 21 18  1  0  0  0  0
 22 21  1  0  0  0  0
 23 22  2  0  0  0  0
 24 23  1  0  0  0  0
 24 19  2  0  0  0  0
 25 24  1  0  0  0  0
 27 29  1  0  0  0  0
 28 32  1  0  0  0  0
 29 35  2  0  0  0  0
 29 36  1  0  0  0  0
 30 26  1  0  0  0  0
 30 34  2  0  0  0  0
 32 33  2  0  0  0  0
 33 34  1  0  0  0  0
 33 31  1  0  0  0  0
 35 32  1  0  0  0  0
 36 30  1  0  0  0  0
M  END
>  <MODEL>
9

>  <REMARK>
 VINA RESULT:      -7.8      1.575      2.422
  Name = 
  5 active torsions:
  status: ('A' for Active; 'I' for Inactive)
    1  A    between atoms: N_5  and  C_31
    2  A    between atoms: C_7  and  C_15
    3  A    between atoms: C_12  and  C_28
    4  A    between atoms: C_13  and  N_33
    5  A    between atoms: C_21  and  N_33
                            x       y       z     vdW  Elec       q    Type
                         _______ _______ _______ _____ _____    ______ ____

>  <TORSDO>
F 5

$$$$
