=
 OpenBabel10232410213D

 29 31  0  0  1  0  0  0  0  0999 V2000
  189.9090  176.9470  144.8960 C   0  0  0  0  0  0  0  0  0  0  0  0
  192.0490  176.9270  147.8910 N   0  0  0  0  0  1  0  0  0  0  0  0
  189.6290  177.1340  147.6690 C   0  0  0  0  0  3  0  0  0  0  0  0
  190.9920  176.8910  145.7280 N   0  0  0  0  0  0  0  0  0  0  0  0
  188.6200  177.0880  145.4690 C   0  0  0  0  0  0  0  0  0  0  0  0
  190.8830  176.9880  147.0780 C   0  0  0  0  0  0  0  0  0  0  0  0
  188.4970  177.1790  146.8570 C   0  0  0  0  0  3  0  0  0  0  0  0
  189.5380  175.5930  142.9670 O   0  0  0  0  0  1  0  0  0  0  0  0
  190.1140  176.7950  143.3960 C   0  0  2  0  0  0  0  0  0  0  0  0
  191.5930  176.7770  143.1220 C   0  0  0  0  0  3  0  0  0  0  0  0
  192.0560  177.2620  142.1010 O   0  0  0  0  0  0  0  0  0  0  0  0
  189.4520  177.9580  142.6380 C   0  0  0  0  0  2  0  0  0  0  0  0
  187.9280  178.5480  140.8940 C   0  0  0  0  0  2  0  0  0  0  0  0
  188.9030  177.6040  140.2780 N   0  0  0  0  0  0  0  0  0  0  0  0
  188.3710  177.4960  141.6690 C   0  0  1  0  0  3  0  0  0  0  0  0
  189.7300  177.1620  139.2080 C   0  0  0  0  0  0  0  0  0  0  0  0
  190.4800  176.1640  139.3650 O   0  0  0  0  0  0  0  0  0  0  0  0
  189.6930  177.8690  137.9000 C   0  0  0  0  0  2  0  0  0  0  0  0
  189.1420  179.1390  138.0700 O   0  0  0  0  0  1  0  0  0  0  0  0
  187.3720  177.0760  144.6460 C   0  0  0  0  0  2  0  0  0  0  0  0
  186.5820  178.2650  144.9320 N   0  0  0  0  0  2  0  0  0  0  0  0
  182.9270  178.9830  144.7180 C   0  0  0  0  0  3  0  0  0  0  0  0
  185.0590  178.4220  143.0000 C   0  0  0  0  0  3  0  0  0  0  0  0
  182.7130  178.9120  143.3380 C   0  0  0  0  0  3  0  0  0  0  0  0
  184.4010  178.8370  146.6170 O   0  0  0  0  0  1  0  0  0  0  0  0
  183.7790  178.6320  142.4800 C   0  0  0  0  0  0  0  0  0  0  0  0
  183.5500  178.5430  141.0140 C   0  0  0  0  0  1  0  0  0  0  0  0
  184.2060  178.7740  145.2430 C   0  0  0  0  0  0  0  0  0  0  0  0
  185.2800  178.4890  144.3850 C   0  0  0  0  0  0  0  0  0  0  0  0
  1  5  2  0  0  0  0
  1  4  1  0  0  0  0
  4  6  2  0  0  0  0
  5  7  1  0  0  0  0
  6  3  1  0  0  0  0
  6  2  1  0  0  0  0
  7  3  2  0  0  0  0
  9  8  1  6  0  0  0
  9  1  1  0  0  0  0
 10  9  1  0  0  0  0
 11 10  2  0  0  0  0
 12  9  1  0  0  0  0
 13 15  1  0  0  0  0
 14 13  1  0  0  0  0
 14 15  1  0  0  0  0
 15 12  1  1  0  0  0
 16 17  2  0  0  0  0
 16 14  1  0  0  0  0
 18 19  1  0  0  0  0
 18 16  1  0  0  0  0
 20 21  1  0  0  0  0
 20  5  1  0  0  0  0
 22 28  1  0  0  0  0
 23 29  1  0  0  0  0
 24 22  2  0  0  0  0
 26 23  2  0  0  0  0
 26 24  1  0  0  0  0
 27 26  1  0  0  0  0
 28 25  1  0  0  0  0
 29 21  1  0  0  0  0
 29 28  2  0  0  0  0
M  END
>  <MODEL>
1

>  <REMARK>
 VINA RESULT:      -9.3      0.000      0.000
  Name = 
  8 active torsions:
  status: ('A' for Active; 'I' for Inactive)
    1  A    between atoms: C_2  and  C_25
    2  A    between atoms: C_8  and  C_25
    3  A    between atoms: C_11  and  C_17
    4  A    between atoms: C_12  and  C_27
    5  A    between atoms: C_14  and  C_22
    6  A    between atoms: C_21  and  N_24
    7  A    between atoms: C_22  and  C_25
    8  A    between atoms: N_24  and  C_27
                            x       y       z     vdW  Elec       q    Type
                         _______ _______ _______ _____ _____    ______ ____

>  <TORSDO>
F 8

$$$$
=
 OpenBabel10232410213D

 29 31  0  0  1  0  0  0  0  0999 V2000
  187.0540  177.9620  143.2270 C   0  0  0  0  0  0  0  0  0  0  0  0
  183.5570  178.5380  144.2220 N   0  0  0  0  0  1  0  0  0  0  0  0
  184.7020  178.9790  142.1150 C   0  0  0  0  0  3  0  0  0  0  0  0
  185.8890  178.0110  143.9410 N   0  0  0  0  0  0  0  0  0  0  0  0
  187.0480  178.4270  141.8880 C   0  0  0  0  0  0  0  0  0  0  0  0
  184.7360  178.5090  143.4260 C   0  0  0  0  0  0  0  0  0  0  0  0
  185.8640  178.9310  141.3460 C   0  0  0  0  0  3  0  0  0  0  0  0
  189.3820  178.2200  143.6790 O   0  0  0  0  0  1  0  0  0  0  0  0
  188.2950  177.3570  143.8670 C   0  0  2  0  0  0  0  0  0  0  0  0
  188.5720  176.0380  143.2000 C   0  0  0  0  0  3  0  0  0  0  0  0
  189.7070  175.7100  142.8860 O   0  0  0  0  0  0  0  0  0  0  0  0
  188.0820  177.1520  145.3760 C   0  0  0  0  0  2  0  0  0  0  0  0
  189.0730  177.5080  147.5210 C   0  0  0  0  0  2  0  0  0  0  0  0
  190.1950  177.1380  146.6130 N   0  0  0  0  0  0  0  0  0  0  0  0
  189.0290  177.9870  146.2280 C   0  0  1  0  0  3  0  0  0  0  0  0
  191.4160  176.4680  146.3220 C   0  0  0  0  0  0  0  0  0  0  0  0
  191.8940  176.5110  145.1590 O   0  0  0  0  0  0  0  0  0  0  0  0
  192.1340  175.7320  147.3960 C   0  0  0  0  0  2  0  0  0  0  0  0
  192.5770  176.6340  148.3650 O   0  0  0  0  0  1  0  0  0  0  0  0
  188.2510  178.3370  141.0030 C   0  0  0  0  0  2  0  0  0  0  0  0
  187.8490  178.4790  139.6110 N   0  0  0  0  0  2  0  0  0  0  0  0
  189.0750  177.8600  136.1420 C   0  0  0  0  0  3  0  0  0  0  0  0
  189.5910  176.9680  138.7390 C   0  0  0  0  0  3  0  0  0  0  0  0
  190.0560  176.8890  136.3660 C   0  0  0  0  0  3  0  0  0  0  0  0
  187.3720  179.3450  136.9760 O   0  0  0  0  0  1  0  0  0  0  0  0
  190.3140  176.4440  137.6640 C   0  0  0  0  0  0  0  0  0  0  0  0
  191.3470  175.4020  137.9020 C   0  0  0  0  0  1  0  0  0  0  0  0
  188.3500  178.3880  137.2150 C   0  0  0  0  0  0  0  0  0  0  0  0
  188.6040  177.9420  138.5220 C   0  0  0  0  0  0  0  0  0  0  0  0
  1  9  1  0  0  0  0
  1  4  1  0  0  0  0
  3  6  1  0  0  0  0
  5  1  2  0  0  0  0
  6  4  2  0  0  0  0
  6  2  1  0  0  0  0
  7  5  1  0  0  0  0
  7  3  2  0  0  0  0
  9  8  1  6  0  0  0
  9 12  1  0  0  0  0
 10  9  1  0  0  0  0
 11 10  2  0  0  0  0
 14 13  1  0  0  0  0
 15 12  1  6  0  0  0
 15 14  1  0  0  0  0
 15 13  1  0  0  0  0
 16 14  1  0  0  0  0
 16 18  1  0  0  0  0
 17 16  2  0  0  0  0
 18 19  1  0  0  0  0
 20  5  1  0  0  0  0
 21 20  1  0  0  0  0
 22 24  2  0  0  0  0
 22 28  1  0  0  0  0
 24 26  1  0  0  0  0
 25 28  1  0  0  0  0
 26 27  1  0  0  0  0
 26 23  2  0  0  0  0
 28 29  2  0  0  0  0
 29 23  1  0  0  0  0
 29 21  1  0  0  0  0
M  END
>  <MODEL>
2

>  <REMARK>
 VINA RESULT:      -8.5      2.021      7.071
  Name = 
  8 active torsions:
  status: ('A' for Active; 'I' for Inactive)
    1  A    between atoms: C_2  and  C_25
    2  A    between atoms: C_8  and  C_25
    3  A    between atoms: C_11  and  C_17
    4  A    between atoms: C_12  and  C_27
    5  A    between atoms: C_14  and  C_22
    6  A    between atoms: C_21  and  N_24
    7  A    between atoms: C_22  and  C_25
    8  A    between atoms: N_24  and  C_27
                            x       y       z     vdW  Elec       q    Type
                         _______ _______ _______ _____ _____    ______ ____

>  <TORSDO>
F 8

$$$$
=
 OpenBabel10232410213D

 29 31  0  0  1  0  0  0  0  0999 V2000
  189.3240  177.3550  141.0940 C   0  0  0  0  0  0  0  0  0  0  0  0
  190.4480  176.0410  137.8440 N   0  0  0  0  0  1  0  0  0  0  0  0
  188.5280  177.4310  138.4170 C   0  0  0  0  0  3  0  0  0  0  0  0
  190.0380  176.7160  140.1180 N   0  0  0  0  0  0  0  0  0  0  0  0
  188.1650  178.0810  140.7210 C   0  0  0  0  0  0  0  0  0  0  0  0
  189.6660  176.7300  138.8130 C   0  0  0  0  0  0  0  0  0  0  0  0
  187.7810  178.1100  139.3790 C   0  0  0  0  0  3  0  0  0  0  0  0
  190.3740  178.5640  142.8610 O   0  0  0  0  0  1  0  0  0  0  0  0
  189.8270  177.3190  142.5290 C   0  0  2  0  0  0  0  0  0  0  0  0
  190.8860  176.2550  142.6300 C   0  0  0  0  0  3  0  0  0  0  0  0
  190.6210  175.1310  143.0300 O   0  0  0  0  0  0  0  0  0  0  0  0
  188.6750  177.0100  143.5000 C   0  0  0  0  0  2  0  0  0  0  0  0
  188.1180  177.2550  145.8100 C   0  0  0  0  0  2  0  0  0  0  0  0
  189.6060  177.3130  145.7440 N   0  0  0  0  0  0  0  0  0  0  0  0
  188.6810  177.9050  144.7320 C   0  0  1  0  0  3  0  0  0  0  0  0
  190.9050  177.0120  146.2390 C   0  0  0  0  0  0  0  0  0  0  0  0
  191.9230  177.3500  145.5810 O   0  0  0  0  0  0  0  0  0  0  0  0
  191.0600  176.3120  147.5430 C   0  0  0  0  0  2  0  0  0  0  0  0
  192.4010  176.3380  147.9300 O   0  0  0  0  0  1  0  0  0  0  0  0
  187.3690  178.8790  141.7030 C   0  0  0  0  0  2  0  0  0  0  0  0
  185.9470  178.7090  141.4370 N   0  0  0  0  0  2  0  0  0  0  0  0
  182.6160  178.8610  143.1110 C   0  0  0  0  0  3  0  0  0  0  0  0
  185.3130  178.6710  143.8190 C   0  0  0  0  0  3  0  0  0  0  0  0
  182.9820  178.8010  144.4590 C   0  0  0  0  0  3  0  0  0  0  0  0
  183.2170  178.8960  140.7780 O   0  0  0  0  0  1  0  0  0  0  0  0
  184.3300  178.7060  144.8120 C   0  0  0  0  0  0  0  0  0  0  0  0
  184.7210  178.6570  146.2450 C   0  0  0  0  0  1  0  0  0  0  0  0
  183.5960  178.8250  142.1140 C   0  0  0  0  0  0  0  0  0  0  0  0
  184.9520  178.7330  142.4640 C   0  0  0  0  0  0  0  0  0  0  0  0
  1  9  1  0  0  0  0
  2  6  1  0  0  0  0
  3  6  2  0  0  0  0
  3  7  1  0  0  0  0
  4  1  2  0  0  0  0
  5  1  1  0  0  0  0
  5 20  1  0  0  0  0
  6  4  1  0  0  0  0
  7  5  2  0  0  0  0
  9 10  1  0  0  0  0
  9  8  1  1  0  0  0
  9 12  1  0  0  0  0
 10 11  2  0  0  0  0
 14 13  1  0  0  0  0
 14 16  1  0  0  0  0
 15 12  1  6  0  0  0
 15 14  1  0  0  0  0
 15 13  1  0  0  0  0
 16 18  1  0  0  0  0
 17 16  2  0  0  0  0
 18 19  1  0  0  0  0
 21 20  1  0  0  0  0
 21 29  1  0  0  0  0
 22 24  1  0  0  0  0
 23 26  1  0  0  0  0
 24 26  2  0  0  0  0
 25 28  1  0  0  0  0
 26 27  1  0  0  0  0
 28 29  1  0  0  0  0
 28 22  2  0  0  0  0
 29 23  2  0  0  0  0
M  END
>  <MODEL>
3

>  <REMARK>
 VINA RESULT:      -8.4      2.121      5.560
  Name = 
  8 active torsions:
  status: ('A' for Active; 'I' for Inactive)
    1  A    between atoms: C_2  and  C_25
    2  A    between atoms: C_8  and  C_25
    3  A    between atoms: C_11  and  C_17
    4  A    between atoms: C_12  and  C_27
    5  A    between atoms: C_14  and  C_22
    6  A    between atoms: C_21  and  N_24
    7  A    between atoms: C_22  and  C_25
    8  A    between atoms: N_24  and  C_27
                            x       y       z     vdW  Elec       q    Type
                         _______ _______ _______ _____ _____    ______ ____

>  <TORSDO>
F 8

$$$$
=
 OpenBabel10232410213D

 29 31  0  0  1  0  0  0  0  0999 V2000
  189.5760  177.1070  141.1580 C   0  0  0  0  0  0  0  0  0  0  0  0
  191.3390  175.5360  138.3330 N   0  0  0  0  0  1  0  0  0  0  0  0
  189.3870  176.9980  138.3730 C   0  0  0  0  0  3  0  0  0  0  0  0
  190.4630  176.3840  140.4090 N   0  0  0  0  0  0  0  0  0  0  0  0
  188.5510  177.8240  140.4890 C   0  0  0  0  0  0  0  0  0  0  0  0
  190.3870  176.3080  139.0560 C   0  0  0  0  0  0  0  0  0  0  0  0
  188.4710  177.7600  139.0960 C   0  0  0  0  0  3  0  0  0  0  0  0
  189.9760  178.4940  143.0560 O   0  0  0  0  0  1  0  0  0  0  0  0
  189.7510  177.1680  142.6680 C   0  0  2  0  0  0  0  0  0  0  0  0
  190.9380  176.3220  143.0380 C   0  0  0  0  0  3  0  0  0  0  0  0
  191.3010  176.2110  144.1990 O   0  0  0  0  0  0  0  0  0  0  0  0
  188.4910  176.6510  143.3810 C   0  0  0  0  0  2  0  0  0  0  0  0
  186.7810  177.1680  144.9680 C   0  0  0  0  0  2  0  0  0  0  0  0
  188.0720  177.4030  145.6740 N   0  0  0  0  0  0  0  0  0  0  0  0
  187.8140  177.7150  144.2360 C   0  0  1  0  0  3  0  0  0  0  0  0
  188.9150  177.3450  146.8190 C   0  0  0  0  0  0  0  0  0  0  0  0
  190.1170  177.7070  146.7330 O   0  0  0  0  0  0  0  0  0  0  0  0
  188.3690  176.8740  148.1200 C   0  0  0  0  0  2  0  0  0  0  0  0
  188.0820  177.9730  148.9310 O   0  0  0  0  0  1  0  0  0  0  0  0
  187.5860  178.7060  141.2150 C   0  0  0  0  0  2  0  0  0  0  0  0
  186.3580  178.8320  140.4430 N   0  0  0  0  0  2  0  0  0  0  0  0
  182.6440  178.7150  140.7800 C   0  0  0  0  0  3  0  0  0  0  0  0
  184.8980  178.8400  142.4290 C   0  0  0  0  0  3  0  0  0  0  0  0
  182.4930  178.7580  142.1700 C   0  0  0  0  0  3  0  0  0  0  0  0
  184.0560  178.7020  138.8290 O   0  0  0  0  0  1  0  0  0  0  0  0
  183.6200  178.8200  142.9930 C   0  0  0  0  0  0  0  0  0  0  0  0
  183.4590  178.8790  144.4700 C   0  0  0  0  0  1  0  0  0  0  0  0
  183.9220  178.7340  140.2110 C   0  0  0  0  0  0  0  0  0  0  0  0
  185.0570  178.8000  141.0350 C   0  0  0  0  0  0  0  0  0  0  0  0
  1  9  1  0  0  0  0
  2  6  1  0  0  0  0
  3  6  2  0  0  0  0
  3  7  1  0  0  0  0
  4  1  2  0  0  0  0
  5  1  1  0  0  0  0
  5 20  1  0  0  0  0
  6  4  1  0  0  0  0
  7  5  2  0  0  0  0
  9 10  1  0  0  0  0
  9  8  1  1  0  0  0
  9 12  1  0  0  0  0
 10 11  2  0  0  0  0
 13 14  1  0  0  0  0
 14 16  1  0  0  0  0
 15 12  1  6  0  0  0
 15 13  1  0  0  0  0
 15 14  1  0  0  0  0
 16 18  1  0  0  0  0
 17 16  2  0  0  0  0
 18 19  1  0  0  0  0
 21 29  1  0  0  0  0
 21 20  1  0  0  0  0
 22 24  1  0  0  0  0
 23 26  1  0  0  0  0
 24 26  2  0  0  0  0
 25 28  1  0  0  0  0
 26 27  1  0  0  0  0
 28 22  2  0  0  0  0
 28 29  1  0  0  0  0
 29 23  2  0  0  0  0
M  END
>  <MODEL>
4

>  <REMARK>
 VINA RESULT:      -8.2      2.190      5.741
  Name = 
  8 active torsions:
  status: ('A' for Active; 'I' for Inactive)
    1  A    between atoms: C_2  and  C_25
    2  A    between atoms: C_8  and  C_25
    3  A    between atoms: C_11  and  C_17
    4  A    between atoms: C_12  and  C_27
    5  A    between atoms: C_14  and  C_22
    6  A    between atoms: C_21  and  N_24
    7  A    between atoms: C_22  and  C_25
    8  A    between atoms: N_24  and  C_27
                            x       y       z     vdW  Elec       q    Type
                         _______ _______ _______ _____ _____    ______ ____

>  <TORSDO>
F 8

$$$$
=
 OpenBabel10232410213D

 29 31  0  0  1  0  0  0  0  0999 V2000
  184.1570  178.8280  142.4660 C   0  0  0  0  0  0  0  0  0  0  0  0
  180.5180  178.5450  141.9850 N   0  0  0  0  0  1  0  0  0  0  0  0
  181.8370  178.8050  144.0210 C   0  0  0  0  0  3  0  0  0  0  0  0
  182.9190  178.7030  141.8990 N   0  0  0  0  0  0  0  0  0  0  0  0
  184.2480  178.9620  143.8740 C   0  0  0  0  0  0  0  0  0  0  0  0
  181.7780  178.6810  142.6340 C   0  0  0  0  0  0  0  0  0  0  0  0
  183.0780  178.9500  144.6370 C   0  0  0  0  0  3  0  0  0  0  0  0
  186.0970  180.0570  141.8230 O   0  0  0  0  0  1  0  0  0  0  0  0
  185.3850  178.8790  141.5690 C   0  0  2  0  0  0  0  0  0  0  0  0
  184.9230  178.8610  140.1380 C   0  0  0  0  0  3  0  0  0  0  0  0
  184.7530  179.8980  139.5130 O   0  0  0  0  0  0  0  0  0  0  0  0
  186.3060  177.6770  141.8410 C   0  0  0  0  0  2  0  0  0  0  0  0
  188.5670  176.9640  142.1360 C   0  0  0  0  0  2  0  0  0  0  0  0
  188.5400  177.6980  140.8390 N   0  0  0  0  0  0  0  0  0  0  0  0
  187.7590  178.0790  142.0540 C   0  0  1  0  0  3  0  0  0  0  0  0
  188.9270  177.8810  139.4820 C   0  0  0  0  0  0  0  0  0  0  0  0
  188.4230  178.8140  138.8050 O   0  0  0  0  0  0  0  0  0  0  0  0
  189.9400  176.9800  138.8710 C   0  0  0  0  0  2  0  0  0  0  0  0
  190.7210  176.4050  139.8740 O   0  0  0  0  0  1  0  0  0  0  0  0
  185.5490  179.1850  144.5760 C   0  0  0  0  0  2  0  0  0  0  0  0
  185.9850  177.9490  145.2090 N   0  0  0  0  0  2  0  0  0  0  0  0
  187.8730  178.3420  148.4040 C   0  0  0  0  0  3  0  0  0  0  0  0
  188.3000  177.3640  145.8210 C   0  0  0  0  0  3  0  0  0  0  0  0
  189.1190  177.8150  148.0530 C   0  0  0  0  0  3  0  0  0  0  0  0
  185.6060  178.9170  147.8250 O   0  0  0  0  0  1  0  0  0  0  0  0
  189.3330  177.3250  146.7620 C   0  0  0  0  0  0  0  0  0  0  0  0
  190.6620  176.7780  146.3850 C   0  0  0  0  0  1  0  0  0  0  0  0
  186.8370  178.3810  147.4650 C   0  0  0  0  0  0  0  0  0  0  0  0
  187.0470  177.8930  146.1660 C   0  0  0  0  0  0  0  0  0  0  0  0
  1  5  1  0  0  0  0
  2  6  1  0  0  0  0
  3  7  1  0  0  0  0
  4  1  2  0  0  0  0
  4  6  1  0  0  0  0
  5 20  1  0  0  0  0
  5  7  2  0  0  0  0
  6  3  2  0  0  0  0
  9  8  1  1  0  0  0
  9 12  1  0  0  0  0
  9  1  1  0  0  0  0
 10  9  1  0  0  0  0
 11 10  2  0  0  0  0
 14 15  1  0  0  0  0
 14 13  1  0  0  0  0
 15 12  1  6  0  0  0
 15 13  1  0  0  0  0
 16 14  1  0  0  0  0
 17 16  2  0  0  0  0
 18 16  1  0  0  0  0
 18 19  1  0  0  0  0
 20 21  1  0  0  0  0
 21 29  1  0  0  0  0
 23 29  2  0  0  0  0
 23 26  1  0  0  0  0
 24 22  1  0  0  0  0
 26 24  2  0  0  0  0
 27 26  1  0  0  0  0
 28 25  1  0  0  0  0
 28 22  2  0  0  0  0
 29 28  1  0  0  0  0
M  END
>  <MODEL>
5

>  <REMARK>
 VINA RESULT:      -8.1      2.279      6.043
  Name = 
  8 active torsions:
  status: ('A' for Active; 'I' for Inactive)
    1  A    between atoms: C_2  and  C_25
    2  A    between atoms: C_8  and  C_25
    3  A    between atoms: C_11  and  C_17
    4  A    between atoms: C_12  and  C_27
    5  A    between atoms: C_14  and  C_22
    6  A    between atoms: C_21  and  N_24
    7  A    between atoms: C_22  and  C_25
    8  A    between atoms: N_24  and  C_27
                            x       y       z     vdW  Elec       q    Type
                         _______ _______ _______ _____ _____    ______ ____

>  <TORSDO>
F 8

$$$$
=
 OpenBabel10232410213D

 29 31  0  0  1  0  0  0  0  0999 V2000
  188.6970  177.3170  144.3310 C   0  0  0  0  0  0  0  0  0  0  0  0
  189.7830  177.2930  147.8480 N   0  0  0  0  0  1  0  0  0  0  0  0
  187.5800  177.6570  146.8680 C   0  0  0  0  0  3  0  0  0  0  0  0
  189.4570  177.2260  145.4640 N   0  0  0  0  0  0  0  0  0  0  0  0
  187.3100  177.5750  144.4640 C   0  0  0  0  0  0  0  0  0  0  0  0
  188.9390  177.3960  146.7070 C   0  0  0  0  0  0  0  0  0  0  0  0
  186.7660  177.7420  145.7400 C   0  0  0  0  0  3  0  0  0  0  0  0
  189.7440  175.7400  142.8800 O   0  0  0  0  0  1  0  0  0  0  0  0
  189.3480  177.0790  142.9760 C   0  0  2  0  0  0  0  0  0  0  0  0
  190.5520  177.9750  142.8690 C   0  0  0  0  0  3  0  0  0  0  0  0
  191.6840  177.5160  142.8420 O   0  0  0  0  0  0  0  0  0  0  0  0
  188.3600  177.3860  141.8380 C   0  0  0  0  0  2  0  0  0  0  0  0
  189.5500  177.3340  139.7670 C   0  0  0  0  0  2  0  0  0  0  0  0
  188.2150  177.9190  139.4530 N   0  0  0  0  0  0  0  0  0  0  0  0
  188.9910  178.1800  140.7020 C   0  0  1  0  0  3  0  0  0  0  0  0
  187.0700  178.0810  138.6250 C   0  0  0  0  0  0  0  0  0  0  0  0
  186.1030  178.7830  139.0200 O   0  0  0  0  0  0  0  0  0  0  0  0
  187.0250  177.4350  137.2850 C   0  0  0  0  0  2  0  0  0  0  0  0
  186.7700  176.0710  137.4320 O   0  0  0  0  0  1  0  0  0  0  0  0
  186.3850  177.6110  143.2900 C   0  0  0  0  0  2  0  0  0  0  0  0
  185.5460  178.7990  143.3590 N   0  0  0  0  0  2  0  0  0  0  0  0
  181.8450  178.9350  143.8120 C   0  0  0  0  0  3  0  0  0  0  0  0
  183.6950  178.6000  141.7440 C   0  0  0  0  0  3  0  0  0  0  0  0
  181.4010  178.7470  142.5000 C   0  0  0  0  0  3  0  0  0  0  0  0
  183.6410  179.1350  145.4040 O   0  0  0  0  0  1  0  0  0  0  0  0
  182.3260  178.5800  141.4660 C   0  0  0  0  0  0  0  0  0  0  0  0
  181.8540  178.3650  140.0730 C   0  0  0  0  0  1  0  0  0  0  0  0
  183.2150  178.9570  144.0940 C   0  0  0  0  0  0  0  0  0  0  0  0
  184.1480  178.7870  143.0590 C   0  0  0  0  0  0  0  0  0  0  0  0
  1  5  2  0  0  0  0
  1  4  1  0  0  0  0
  4  6  2  0  0  0  0
  5  7  1  0  0  0  0
  6  3  1  0  0  0  0
  6  2  1  0  0  0  0
  7  3  2  0  0  0  0
  9  8  1  6  0  0  0
  9  1  1  0  0  0  0
 10  9  1  0  0  0  0
 11 10  2  0  0  0  0
 12  9  1  0  0  0  0
 13 15  1  0  0  0  0
 14 13  1  0  0  0  0
 14 15  1  0  0  0  0
 15 12  1  1  0  0  0
 16 17  2  0  0  0  0
 16 14  1  0  0  0  0
 18 19  1  0  0  0  0
 18 16  1  0  0  0  0
 20 21  1  0  0  0  0
 20  5  1  0  0  0  0
 22 28  1  0  0  0  0
 23 29  1  0  0  0  0
 24 22  2  0  0  0  0
 26 23  2  0  0  0  0
 26 24  1  0  0  0  0
 27 26  1  0  0  0  0
 28 25  1  0  0  0  0
 29 21  1  0  0  0  0
 29 28  2  0  0  0  0
M  END
>  <MODEL>
6

>  <REMARK>
 VINA RESULT:      -7.7      1.631      2.102
  Name = 
  8 active torsions:
  status: ('A' for Active; 'I' for Inactive)
    1  A    between atoms: C_2  and  C_25
    2  A    between atoms: C_8  and  C_25
    3  A    between atoms: C_11  and  C_17
    4  A    between atoms: C_12  and  C_27
    5  A    between atoms: C_14  and  C_22
    6  A    between atoms: C_21  and  N_24
    7  A    between atoms: C_22  and  C_25
    8  A    between atoms: N_24  and  C_27
                            x       y       z     vdW  Elec       q    Type
                         _______ _______ _______ _____ _____    ______ ____

>  <TORSDO>
F 8

$$$$
=
 OpenBabel10232410213D

 29 31  0  0  1  0  0  0  0  0999 V2000
  190.3600  177.1700  144.6510 C   0  0  0  0  0  0  0  0  0  0  0  0
  192.5550  175.6160  147.1650 N   0  0  0  0  0  1  0  0  0  0  0  0
  190.5050  176.9090  147.4290 C   0  0  0  0  0  3  0  0  0  0  0  0
  191.3750  176.4780  145.2520 N   0  0  0  0  0  0  0  0  0  0  0  0
  189.3580  177.7490  145.4690 C   0  0  0  0  0  0  0  0  0  0  0  0
  191.4720  176.3450  146.5990 C   0  0  0  0  0  0  0  0  0  0  0  0
  189.4440  177.6090  146.8560 C   0  0  0  0  0  3  0  0  0  0  0  0
  189.9180  178.5310  142.7440 O   0  0  0  0  0  1  0  0  0  0  0  0
  190.3050  177.2430  143.1330 C   0  0  2  0  0  0  0  0  0  0  0  0
  189.2940  176.2410  142.6500 C   0  0  0  0  0  3  0  0  0  0  0  0
  189.4860  175.0390  142.7630 O   0  0  0  0  0  0  0  0  0  0  0  0
  191.6840  176.9360  142.5240 C   0  0  0  0  0  2  0  0  0  0  0  0
  192.9830  177.2230  140.5400 C   0  0  0  0  0  2  0  0  0  0  0  0
  191.5690  177.0990  140.0840 N   0  0  0  0  0  0  0  0  0  0  0  0
  192.0100  177.8110  141.3210 C   0  0  1  0  0  3  0  0  0  0  0  0
  190.5680  176.6340  139.1870 C   0  0  0  0  0  0  0  0  0  0  0  0
  189.3530  176.8530  139.4340 O   0  0  0  0  0  0  0  0  0  0  0  0
  190.9570  175.9070  137.9500 C   0  0  0  0  0  2  0  0  0  0  0  0
  192.0480  176.5440  137.3570 O   0  0  0  0  0  1  0  0  0  0  0  0
  188.1680  178.4530  144.9010 C   0  0  0  0  0  2  0  0  0  0  0  0
  186.9500  177.7650  145.3040 N   0  0  0  0  0  2  0  0  0  0  0  0
  183.3630  178.7920  145.2290 C   0  0  0  0  0  3  0  0  0  0  0  0
  185.3850  178.0960  143.4290 C   0  0  0  0  0  3  0  0  0  0  0  0
  183.1010  178.7740  143.8560 C   0  0  0  0  0  3  0  0  0  0  0  0
  184.8800  178.4770  147.0740 O   0  0  0  0  0  1  0  0  0  0  0  0
  184.1120  178.4260  142.9560 C   0  0  0  0  0  0  0  0  0  0  0  0
  183.8290  178.3930  141.4970 C   0  0  0  0  0  1  0  0  0  0  0  0
  184.6370  178.4640  145.7060 C   0  0  0  0  0  0  0  0  0  0  0  0
  185.6550  178.1110  144.8060 C   0  0  0  0  0  0  0  0  0  0  0  0
  1  4  2  0  0  0  0
  1  5  1  0  0  0  0
  4  6  1  0  0  0  0
  5  7  2  0  0  0  0
  6  2  1  0  0  0  0
  6  3  2  0  0  0  0
  7  3  1  0  0  0  0
  9  8  1  6  0  0  0
  9  1  1  0  0  0  0
 10 11  2  0  0  0  0
 10  9  1  0  0  0  0
 12  9  1  0  0  0  0
 13 15  1  0  0  0  0
 14 13  1  0  0  0  0
 14 15  1  0  0  0  0
 15 12  1  1  0  0  0
 16 17  2  0  0  0  0
 16 14  1  0  0  0  0
 18 16  1  0  0  0  0
 19 18  1  0  0  0  0
 20 21  1  0  0  0  0
 20  5  1  0  0  0  0
 22 28  1  0  0  0  0
 23 29  1  0  0  0  0
 24 22  2  0  0  0  0
 26 23  2  0  0  0  0
 26 24  1  0  0  0  0
 27 26  1  0  0  0  0
 28 25  1  0  0  0  0
 29 21  1  0  0  0  0
 29 28  2  0  0  0  0
M  END
>  <MODEL>
7

>  <REMARK>
 VINA RESULT:      -7.7      1.405      2.026
  Name = 
  8 active torsions:
  status: ('A' for Active; 'I' for Inactive)
    1  A    between atoms: C_2  and  C_25
    2  A    between atoms: C_8  and  C_25
    3  A    between atoms: C_11  and  C_17
    4  A    between atoms: C_12  and  C_27
    5  A    between atoms: C_14  and  C_22
    6  A    between atoms: C_21  and  N_24
    7  A    between atoms: C_22  and  C_25
    8  A    between atoms: N_24  and  C_27
                            x       y       z     vdW  Elec       q    Type
                         _______ _______ _______ _____ _____    ______ ____

>  <TORSDO>
F 8

$$$$
=
 OpenBabel10232410213D

 29 31  0  0  1  0  0  0  0  0999 V2000
  188.2610  177.4680  145.0690 C   0  0  0  0  0  0  0  0  0  0  0  0
  189.1290  178.0950  148.5910 N   0  0  0  0  0  1  0  0  0  0  0  0
  187.0120  178.3460  147.4080 C   0  0  0  0  0  3  0  0  0  0  0  0
  188.9450  177.5720  146.2490 N   0  0  0  0  0  0  0  0  0  0  0  0
  186.8840  177.8030  145.0530 C   0  0  0  0  0  0  0  0  0  0  0  0
  188.3630  178.0050  147.3960 C   0  0  0  0  0  0  0  0  0  0  0  0
  186.2740  178.2390  146.2310 C   0  0  0  0  0  3  0  0  0  0  0  0
  188.2990  175.8220  143.3440 O   0  0  0  0  0  1  0  0  0  0  0  0
  188.9790  176.9420  143.8350 C   0  0  2  0  0  0  0  0  0  0  0  0
  190.3770  176.5540  144.2350 C   0  0  0  0  0  3  0  0  0  0  0  0
  191.3510  177.1400  143.7870 O   0  0  0  0  0  0  0  0  0  0  0  0
  189.0240  178.0150  142.7350 C   0  0  0  0  0  2  0  0  0  0  0  0
  188.0620  178.7500  140.6750 C   0  0  0  0  0  2  0  0  0  0  0  0
  188.9880  177.6380  140.3160 N   0  0  0  0  0  0  0  0  0  0  0  0
  188.1380  177.6800  141.5430 C   0  0  1  0  0  3  0  0  0  0  0  0
  189.9590  177.0240  139.4760 C   0  0  0  0  0  0  0  0  0  0  0  0
  190.4820  175.9310  139.8160 O   0  0  0  0  0  0  0  0  0  0  0  0
  190.3410  177.6650  138.1900 C   0  0  0  0  0  2  0  0  0  0  0  0
  189.3840  178.6190  137.8400 O   0  0  0  0  0  1  0  0  0  0  0  0
  186.0350  177.6430  143.8320 C   0  0  0  0  0  2  0  0  0  0  0  0
  185.2260  178.8370  143.6350 N   0  0  0  0  0  2  0  0  0  0  0  0
  182.5220  178.7880  141.0650 C   0  0  0  0  0  3  0  0  0  0  0  0
  182.7710  178.7990  143.8490 C   0  0  0  0  0  3  0  0  0  0  0  0
  181.3780  178.7780  141.8690 C   0  0  0  0  0  3  0  0  0  0  0  0
  184.9190  178.8220  140.8370 O   0  0  0  0  0  1  0  0  0  0  0  0
  181.5030  178.7830  143.2610 C   0  0  0  0  0  0  0  0  0  0  0  0
  180.2880  178.7880  144.1160 C   0  0  0  0  0  1  0  0  0  0  0  0
  183.7920  178.8020  141.6490 C   0  0  0  0  0  0  0  0  0  0  0  0
  183.9230  178.8100  143.0470 C   0  0  0  0  0  0  0  0  0  0  0  0
  1  4  1  0  0  0  0
  4  6  2  0  0  0  0
  5  1  2  0  0  0  0
  5  7  1  0  0  0  0
  6  3  1  0  0  0  0
  6  2  1  0  0  0  0
  7  3  2  0  0  0  0
  9  8  1  6  0  0  0
  9 10  1  0  0  0  0
  9  1  1  0  0  0  0
 11 10  2  0  0  0  0
 12  9  1  0  0  0  0
 13 15  1  0  0  0  0
 14 13  1  0  0  0  0
 14 15  1  0  0  0  0
 15 12  1  1  0  0  0
 16 17  2  0  0  0  0
 16 14  1  0  0  0  0
 18 16  1  0  0  0  0
 19 18  1  0  0  0  0
 20  5  1  0  0  0  0
 21 20  1  0  0  0  0
 22 28  2  0  0  0  0
 22 24  1  0  0  0  0
 24 26  2  0  0  0  0
 25 28  1  0  0  0  0
 26 23  1  0  0  0  0
 26 27  1  0  0  0  0
 28 29  1  0  0  0  0
 29 21  1  0  0  0  0
 29 23  2  0  0  0  0
M  END
>  <MODEL>
8

>  <REMARK>
 VINA RESULT:      -7.6      1.716      2.366
  Name = 
  8 active torsions:
  status: ('A' for Active; 'I' for Inactive)
    1  A    between atoms: C_2  and  C_25
    2  A    between atoms: C_8  and  C_25
    3  A    between atoms: C_11  and  C_17
    4  A    between atoms: C_12  and  C_27
    5  A    between atoms: C_14  and  C_22
    6  A    between atoms: C_21  and  N_24
    7  A    between atoms: C_22  and  C_25
    8  A    between atoms: N_24  and  C_27
                            x       y       z     vdW  Elec       q    Type
                         _______ _______ _______ _____ _____    ______ ____

>  <TORSDO>
F 8

$$$$
=
 OpenBabel10232410213D

 29 31  0  0  1  0  0  0  0  0999 V2000
  187.0080  178.4100  139.7400 C   0  0  0  0  0  0  0  0  0  0  0  0
  183.4190  179.1690  140.0560 N   0  0  0  0  0  1  0  0  0  0  0  0
  185.1130  178.7630  141.7620 C   0  0  0  0  0  3  0  0  0  0  0  0
  185.7030  178.7030  139.4540 N   0  0  0  0  0  0  0  0  0  0  0  0
  187.3950  178.3020  141.1000 C   0  0  0  0  0  0  0  0  0  0  0  0
  184.7620  178.8700  140.4180 C   0  0  0  0  0  0  0  0  0  0  0  0
  186.4360  178.4820  142.0990 C   0  0  0  0  0  3  0  0  0  0  0  0
  189.0270  179.2190  138.7620 O   0  0  0  0  0  1  0  0  0  0  0  0
  188.0080  178.2720  138.6020 C   0  0  2  0  0  0  0  0  0  0  0  0
  187.2830  178.5190  137.3070 C   0  0  0  0  0  3  0  0  0  0  0  0
  187.4790  179.5330  136.6530 O   0  0  0  0  0  0  0  0  0  0  0  0
  188.6330  176.8680  138.5970 C   0  0  0  0  0  2  0  0  0  0  0  0
  189.1750  174.9610  137.2630 C   0  0  0  0  0  2  0  0  0  0  0  0
  187.7080  175.1670  137.0990 N   0  0  0  0  0  0  0  0  0  0  0  0
  188.7180  176.2610  137.2030 C   0  0  1  0  0  3  0  0  0  0  0  0
  186.3720  174.6930  136.9750 C   0  0  0  0  0  0  0  0  0  0  0  0
  185.4180  175.5120  136.9200 O   0  0  0  0  0  0  0  0  0  0  0  0
  186.1060  173.2320  136.8910 C   0  0  0  0  0  2  0  0  0  0  0  0
  185.5570  172.7870  138.0950 O   0  0  0  0  0  1  0  0  0  0  0  0
  188.8130  178.0670  141.5120 C   0  0  0  0  0  2  0  0  0  0  0  0
  188.8800  176.9280  142.4170 N   0  0  0  0  0  2  0  0  0  0  0  0
  191.2260  176.9070  145.3180 C   0  0  0  0  0  3  0  0  0  0  0  0
  188.5030  177.2980  144.8250 C   0  0  0  0  0  3  0  0  0  0  0  0
  190.3550  177.1800  146.3780 C   0  0  0  0  0  3  0  0  0  0  0  0
  191.6140  176.5460  142.9690 O   0  0  0  0  0  1  0  0  0  0  0  0
  188.9940  177.3760  146.1310 C   0  0  0  0  0  0  0  0  0  0  0  0
  188.0660  177.6530  147.2580 C   0  0  0  0  0  1  0  0  0  0  0  0
  190.7380  176.8290  144.0100 C   0  0  0  0  0  0  0  0  0  0  0  0
  189.3710  177.0220  143.7570 C   0  0  0  0  0  0  0  0  0  0  0  0
  1  5  1  0  0  0  0
  2  6  1  0  0  0  0
  3  7  1  0  0  0  0
  4  1  2  0  0  0  0
  4  6  1  0  0  0  0
  5 20  1  0  0  0  0
  5  7  2  0  0  0  0
  6  3  2  0  0  0  0
  9  8  1  1  0  0  0
  9  1  1  0  0  0  0
 10  9  1  0  0  0  0
 11 10  2  0  0  0  0
 12  9  1  0  0  0  0
 14 15  1  0  0  0  0
 14 13  1  0  0  0  0
 15 13  1  0  0  0  0
 15 12  1  1  0  0  0
 16 14  1  0  0  0  0
 17 16  2  0  0  0  0
 18 16  1  0  0  0  0
 18 19  1  0  0  0  0
 20 21  1  0  0  0  0
 21 29  1  0  0  0  0
 22 24  1  0  0  0  0
 23 26  1  0  0  0  0
 25 28  1  0  0  0  0
 26 24  2  0  0  0  0
 26 27  1  0  0  0  0
 28 22  2  0  0  0  0
 29 28  1  0  0  0  0
 29 23  2  0  0  0  0
M  END
>  <MODEL>
9

>  <REMARK>
 VINA RESULT:      -7.6      2.851      6.616
  Name = 
  8 active torsions:
  status: ('A' for Active; 'I' for Inactive)
    1  A    between atoms: C_2  and  C_25
    2  A    between atoms: C_8  and  C_25
    3  A    between atoms: C_11  and  C_17
    4  A    between atoms: C_12  and  C_27
    5  A    between atoms: C_14  and  C_22
    6  A    between atoms: C_21  and  N_24
    7  A    between atoms: C_22  and  C_25
    8  A    between atoms: N_24  and  C_27
                            x       y       z     vdW  Elec       q    Type
                         _______ _______ _______ _____ _____    ______ ____

>  <TORSDO>
F 8

$$$$
