=
 OpenBabel10232409223D

 60 66  0  0  1  0  0  0  0  0999 V2000
  186.5020  177.8990  138.0940 C   0  0  2  0  0  3  0  0  0  0  0  0
  188.7540  176.4290  139.0820 O   0  0  0  0  0  0  0  0  0  0  0  0
  187.5710  178.4400  138.9230 N   0  0  0  0  0  2  0  0  0  0  0  0
  188.6590  177.6450  139.4010 C   0  0  0  0  0  0  0  0  0  0  0  0
  189.6970  178.2680  140.2670 C   0  0  0  0  0  2  0  0  0  0  0  0
  189.3670  178.0380  141.6640 N   0  0  0  0  0  2  0  0  0  0  0  0
  190.8940  177.8090  142.5220 S   0  0  0  0  0  0  0  0  0  0  0  0
  191.0200  177.2870  147.3400 C   0  0  0  0  0  2  0  0  0  0  0  0
  190.3970  177.4520  145.9460 C   0  0  2  0  0  3  0  0  0  0  0  0
  188.2030  177.1210  144.8670 C   0  0  0  0  0  0  0  0  0  0  0  0
  191.4360  175.8450  147.6140 C   0  0  0  0  0  2  0  0  0  0  0  0
  191.7910  175.5180  145.1850 C   0  0  0  0  0  3  0  0  0  0  0  0
  190.2010  176.5030  143.5850 C   0  0  1  0  0  3  0  0  0  0  0  0
  192.4230  175.4060  146.5390 C   0  0  0  0  0  2  0  0  0  0  0  0
  188.9780  177.3590  146.0140 O   0  0  0  0  0  0  0  0  0  0  0  0
  190.9070  176.4880  144.9030 C   0  0  0  0  0  0  0  0  0  0  0  0
  188.7580  176.7130  143.7600 N   0  0  0  0  0  0  0  0  0  0  0  0
  186.2200  177.3560  146.3500 C   0  0  0  0  0  1  0  0  0  0  0  0
  186.7140  177.2770  144.9140 C   0  0  1  0  0  3  0  0  0  0  0  0
  184.1950  178.5650  142.6340 C   0  0  0  0  0  2  0  0  0  0  0  0
  186.1670  178.4310  144.0630 C   0  0  0  0  0  3  0  0  0  0  0  0
  184.1120  179.6330  143.7020 C   0  0  0  0  0  2  0  0  0  0  0  0
  185.5940  177.9880  142.7210 C   0  0  0  0  0  2  0  0  0  0  0  0
  185.0750  179.2010  144.7840 C   0  0  0  0  0  2  0  0  0  0  0  0
  186.7780  178.2340  136.6330 C   0  0  0  0  0  2  0  0  0  0  0  0
  186.8580  176.1790  135.4340 O   0  0  0  0  0  0  0  0  0  0  0  0
  187.5050  177.1280  135.9470 C   0  0  0  0  0  0  0  0  0  0  0  0
  188.8970  177.1590  135.8840 O   0  0  0  0  0  0  0  0  0  0  0  0
  189.5970  177.0450  134.6530 C   0  0  0  0  0  2  0  0  0  0  0  0
  190.0830  175.6210  134.4780 C   0  0  0  0  0  2  0  0  0  0  0  0
  193.1890  174.2420  135.2080 C   0  0  0  0  0  2  0  0  0  0  0  0
  192.0190  174.2390  134.4580 O   0  0  0  0  0  0  0  0  0  0  0  0
  193.1820  175.5060  136.0270 C   0  0  1  0  0  0  0  0  0  0  0  0
  191.6000  175.5770  134.4430 C   0  0  2  0  0  3  0  0  0  0  0  0
  192.1200  176.2800  135.5470 O   0  0  0  0  0  0  0  0  0  0  0  0
  194.1710  175.0030  138.1700 O   0  0  0  0  0  1  0  0  0  0  0  0
  192.9500  175.2010  137.5200 C   0  0  1  0  0  3  0  0  0  0  0  0
  192.1680  176.3050  138.2270 C   0  0  0  0  0  2  0  0  0  0  0  0
  193.0130  176.9210  139.3230 C   0  0  0  0  0  1  0  0  0  0  0  0
  194.5120  177.4950  135.8780 O   0  0  0  0  0  0  0  0  0  0  0  0
  194.4960  176.2380  135.8170 C   0  0  0  0  0  0  0  0  0  0  0  0
  195.7000  175.5790  135.5270 O   0  0  0  0  0  0  0  0  0  0  0  0
  196.9280  176.2390  135.2410 C   0  0  0  0  0  2  0  0  0  0  0  0
  197.9120  175.8210  136.1370 O   0  0  0  0  0  0  0  0  0  0  0  0
  197.3670  174.6970  136.7560 C   0  0  0  0  0  1  0  0  0  0  0  0
  185.1710  178.5050  138.5290 C   0  0  0  0  0  2  0  0  0  0  0  0
  183.3820  177.0400  139.3140 C   0  0  0  0  0  2  0  0  0  0  0  0
  182.3080  175.8640  137.4230 C   0  0  2  0  0  3  0  0  0  0  0  0
  181.6120  175.5110  139.7010 O   0  0  0  0  0  0  0  0  0  0  0  0
  183.9970  177.6060  138.2940 C   0  0  2  0  0  3  0  0  0  0  0  0
  183.3640  177.1590  136.6650 S   0  0  0  0  0  0  0  0  0  0  0  0
  182.3630  176.1060  138.8880 C   0  0  0  0  0  0  0  0  0  0  0  0
  184.1000  174.1650  136.9500 C   0  0  0  0  0  3  0  0  0  0  0  0
  184.0650  172.7890  136.8140 C   0  0  0  0  0  0  0  0  0  0  0  0
  182.8120  174.5260  137.1200 N   0  0  0  0  0  0  0  0  0  0  0  0
  182.0500  173.4450  137.1060 N   0  0  0  0  0  0  0  0  0  0  0  0
  182.7890  172.3650  136.9070 N   0  0  0  0  0  0  0  0  0  0  0  0
  185.4450  171.7020  135.0650 C   0  0  0  0  0  2  0  0  0  0  0  0
  185.2270  171.8840  136.5550 C   0  0  0  0  0  3  0  0  0  0  0  0
  186.3190  172.6600  135.8420 C   0  0  0  0  0  2  0  0  0  0  0  0
  1 25  1  6  0  0  0
  1 46  1  0  0  0  0
  1  3  1  0  0  0  0
  2  4  2  0  0  0  0
  3  4  1  0  0  0  0
  4  5  1  0  0  0  0
  5  6  1  0  0  0  0
  6  7  1  0  0  0  0
  8 11  1  0  0  0  0
  9 15  1  0  0  0  0
  9  8  1  1  0  0  0
 10 19  1  0  0  0  0
 10 15  1  0  0  0  0
 12 14  1  0  0  0  0
 13  7  1  6  0  0  0
 13 17  1  0  0  0  0
 13 16  1  0  0  0  0
 14 11  1  0  0  0  0
 16 12  2  0  0  0  0
 16  9  1  0  0  0  0
 17 10  2  0  0  0  0
 19 18  1  1  0  0  0
 20 23  1  0  0  0  0
 20 22  1  0  0  0  0
 21 24  1  0  0  0  0
 21 19  1  0  0  0  0
 22 24  1  0  0  0  0
 23 21  1  0  0  0  0
 26 27  2  0  0  0  0
 27 25  1  0  0  0  0
 28 27  1  0  0  0  0
 29 28  1  0  0  0  0
 30 29  1  0  0  0  0
 31 33  1  0  0  0  0
 32 31  1  0  0  0  0
 33 41  1  6  0  0  0
 33 37  1  0  0  0  0
 34 32  1  0  0  0  0
 34 30  1  1  0  0  0
 34 35  1  0  0  0  0
 35 33  1  0  0  0  0
 37 36  1  1  0  0  0
 37 38  1  0  0  0  0
 38 39  1  0  0  0  0
 41 40  2  0  0  0  0
 42 41  1  0  0  0  0
 43 42  1  0  0  0  0
 43 44  1  0  0  0  0
 44 45  1  0  0  0  0
 48 55  1  1  0  0  0
 48 52  1  0  0  0  0
 50 46  1  6  0  0  0
 50 47  1  0  0  0  0
 51 48  1  0  0  0  0
 51 50  1  0  0  0  0
 52 47  1  0  0  0  0
 52 49  2  0  0  0  0
 53 55  1  0  0  0  0
 54 57  1  0  0  0  0
 54 53  2  0  0  0  0
 56 55  1  0  0  0  0
 57 56  2  0  0  0  0
 58 60  1  0  0  0  0
 58 59  1  0  0  0  0
 59 54  1  0  0  0  0
 60 59  1  0  0  0  0
M  END
>  <MODEL>
1

>  <REMARK>
 VINA RESULT:      -7.1      0.000      0.000
  Name = 
  23 active torsions:
  status: ('A' for Active; 'I' for Inactive)
    1  A    between atoms: C_1  and  C_31
    2  A    between atoms: C_1  and  N_52
    3  A    between atoms: C_1  and  C_56
    4  A    between atoms: O_3  and  C_39
    5  A    between atoms: N_4  and  C_32
    6  A    between atoms: N_4  and  S_54
    7  A    between atoms: C_9  and  N_16
    8  A    between atoms: O_11  and  C_39
    9  A    between atoms: O_11  and  C_57
   10  A    between atoms: C_14  and  C_33
   11  A    between atoms: C_17  and  C_18
   12  A    between atoms: C_18  and  C_24
   13  A    between atoms: C_19  and  O_30
   14  A    between atoms: C_19  and  C_31
   15  A    between atoms: C_22  and  C_55
   16  A    between atoms: C_22  and  C_57
   17  A    between atoms: C_23  and  C_55
   18  A    between atoms: C_29  and  S_54
   19  A    between atoms: O_30  and  C_41
   20  A    between atoms: C_32  and  C_53
   21  A    between atoms: C_41  and  C_58
   22  A    between atoms: C_42  and  C_58
   23  A    between atoms: C_45  and  C_56
                            x       y       z     vdW  Elec       q    Type
                         _______ _______ _______ _____ _____    ______ ____

>  <TORSDO>
F 23

$$$$
=
 OpenBabel10232409223D

 60 66  0  0  1  0  0  0  0  0999 V2000
  188.7550  177.6430  142.5350 C   0  0  2  0  0  3  0  0  0  0  0  0
  188.7460  176.7270  139.8200 O   0  0  0  0  0  0  0  0  0  0  0  0
  188.7650  178.4940  141.3530 N   0  0  0  0  0  2  0  0  0  0  0  0
  188.7810  177.9710  140.0220 C   0  0  0  0  0  0  0  0  0  0  0  0
  188.8190  178.9090  138.8670 C   0  0  0  0  0  2  0  0  0  0  0  0
  187.9700  178.4030  137.8010 N   0  0  0  0  0  2  0  0  0  0  0  0
  189.0190  178.0790  136.4180 S   0  0  0  0  0  0  0  0  0  0  0  0
  188.0310  173.3480  136.8010 C   0  0  0  0  0  2  0  0  0  0  0  0
  187.7760  174.8610  136.8680 C   0  0  2  0  0  3  0  0  0  0  0  0
  185.8460  176.3940  136.9720 C   0  0  0  0  0  0  0  0  0  0  0  0
  187.9060  172.8100  135.3780 C   0  0  0  0  0  2  0  0  0  0  0  0
  188.6050  175.0220  134.5120 C   0  0  0  0  0  3  0  0  0  0  0  0
  187.7540  177.0680  135.5860 C   0  0  1  0  0  3  0  0  0  0  0  0
  188.8930  173.5520  134.4850 C   0  0  0  0  0  2  0  0  0  0  0  0
  186.4170  175.1300  137.1940 O   0  0  0  0  0  0  0  0  0  0  0  0
  188.1480  175.6240  135.6210 C   0  0  0  0  0  0  0  0  0  0  0  0
  186.4480  177.2750  136.2230 N   0  0  0  0  0  0  0  0  0  0  0  0
  184.5510  178.0450  138.3080 C   0  0  0  0  0  1  0  0  0  0  0  0
  184.5040  176.7290  137.5470 C   0  0  1  0  0  3  0  0  0  0  0  0
  181.0260  176.0150  136.7760 C   0  0  0  0  0  2  0  0  0  0  0  0
  183.3520  176.7030  136.5320 C   0  0  0  0  0  3  0  0  0  0  0  0
  181.0750  177.4550  136.3190 C   0  0  0  0  0  2  0  0  0  0  0  0
  182.4420  175.4870  136.6650 C   0  0  0  0  0  2  0  0  0  0  0  0
  182.4720  177.9350  136.6400 C   0  0  0  0  0  2  0  0  0  0  0  0
  189.7760  176.5240  142.3610 C   0  0  0  0  0  2  0  0  0  0  0  0
  191.3440  176.6340  144.1490 O   0  0  0  0  0  0  0  0  0  0  0  0
  191.0970  176.8950  142.9440 C   0  0  0  0  0  0  0  0  0  0  0  0
  192.0440  177.5320  142.1430 O   0  0  0  0  0  0  0  0  0  0  0  0
  191.9700  177.5040  140.7260 C   0  0  0  0  0  2  0  0  0  0  0  0
  193.2880  177.0140  140.1590 C   0  0  0  0  0  2  0  0  0  0  0  0
  192.1810  175.4700  137.2490 C   0  0  0  0  0  2  0  0  0  0  0  0
  191.9380  176.3040  138.3340 O   0  0  0  0  0  0  0  0  0  0  0  0
  193.6550  175.1660  137.2500 C   0  0  1  0  0  0  0  0  0  0  0  0
  193.1910  176.8480  138.6530 C   0  0  2  0  0  3  0  0  0  0  0  0
  194.2320  176.0150  138.2000 O   0  0  0  0  0  0  0  0  0  0  0  0
  194.0310  172.8970  136.5160 O   0  0  0  0  0  1  0  0  0  0  0  0
  193.9210  173.7020  137.6530 C   0  0  1  0  0  3  0  0  0  0  0  0
  195.1760  173.5510  138.5090 C   0  0  0  0  0  2  0  0  0  0  0  0
  196.1520  172.6050  137.8390 C   0  0  0  0  0  1  0  0  0  0  0  0
  193.4810  176.0050  135.0110 O   0  0  0  0  0  0  0  0  0  0  0  0
  194.2220  175.4640  135.8730 C   0  0  0  0  0  0  0  0  0  0  0  0
  195.5340  175.1390  135.4990 O   0  0  0  0  0  0  0  0  0  0  0  0
  196.5600  176.0940  135.2510 C   0  0  0  0  0  2  0  0  0  0  0  0
  197.5560  175.9840  136.2200 O   0  0  0  0  0  0  0  0  0  0  0  0
  198.4000  174.9830  135.7430 C   0  0  0  0  0  1  0  0  0  0  0  0
  187.3590  177.0550  142.7200 C   0  0  0  0  0  2  0  0  0  0  0  0
  185.9690  177.8420  144.5670 C   0  0  0  0  0  2  0  0  0  0  0  0
  184.4400  179.6370  143.8220 C   0  0  2  0  0  3  0  0  0  0  0  0
  184.4500  178.8350  146.0930 O   0  0  0  0  0  0  0  0  0  0  0  0
  186.3800  178.0130  143.3270 C   0  0  2  0  0  3  0  0  0  0  0  0
  185.6340  179.4020  142.4490 S   0  0  0  0  0  0  0  0  0  0  0  0
  184.9300  178.7810  144.9330 C   0  0  0  0  0  0  0  0  0  0  0  0
  182.7050  178.7750  142.2200 C   0  0  0  0  0  3  0  0  0  0  0  0
  181.3860  178.3950  142.3930 C   0  0  0  0  0  0  0  0  0  0  0  0
  183.0950  179.2230  143.4310 N   0  0  0  0  0  0  0  0  0  0  0  0
  182.0900  179.1070  144.2830 N   0  0  0  0  0  0  0  0  0  0  0  0
  181.0240  178.6140  143.6720 N   0  0  0  0  0  0  0  0  0  0  0  0
  180.0540  178.9700  140.3830 C   0  0  0  0  0  2  0  0  0  0  0  0
  180.4610  177.8690  141.3430 C   0  0  0  0  0  3  0  0  0  0  0  0
  181.1250  177.9820  139.9850 C   0  0  0  0  0  2  0  0  0  0  0  0
  1 25  1  6  0  0  0
  1 46  1  0  0  0  0
  2  4  2  0  0  0  0
  3  1  1  0  0  0  0
  4  3  1  0  0  0  0
  5  4  1  0  0  0  0
  6  5  1  0  0  0  0
  7  6  1  0  0  0  0
  9  8  1  6  0  0  0
  9 15  1  0  0  0  0
 10 15  1  0  0  0  0
 10 19  1  0  0  0  0
 11  8  1  0  0  0  0
 12 16  2  0  0  0  0
 13 16  1  0  0  0  0
 13 17  1  0  0  0  0
 13  7  1  1  0  0  0
 14 12  1  0  0  0  0
 14 11  1  0  0  0  0
 16  9  1  0  0  0  0
 17 10  2  0  0  0  0
 19 18  1  6  0  0  0
 21 24  1  0  0  0  0
 21 23  1  0  0  0  0
 21 19  1  0  0  0  0
 22 24  1  0  0  0  0
 22 20  1  0  0  0  0
 23 20  1  0  0  0  0
 25 27  1  0  0  0  0
 27 26  2  0  0  0  0
 28 27  1  0  0  0  0
 29 28  1  0  0  0  0
 30 29  1  0  0  0  0
 31 33  1  0  0  0  0
 31 32  1  0  0  0  0
 32 34  1  0  0  0  0
 33 41  1  6  0  0  0
 33 37  1  0  0  0  0
 33 35  1  0  0  0  0
 34 30  1  1  0  0  0
 35 34  1  0  0  0  0
 37 36  1  6  0  0  0
 37 38  1  0  0  0  0
 39 38  1  0  0  0  0
 40 41  2  0  0  0  0
 42 41  1  0  0  0  0
 43 42  1  0  0  0  0
 43 44  1  0  0  0  0
 45 44  1  0  0  0  0
 47 52  1  0  0  0  0
 48 55  1  6  0  0  0
 48 52  1  0  0  0  0
 50 46  1  6  0  0  0
 50 47  1  0  0  0  0
 51 50  1  0  0  0  0
 51 48  1  0  0  0  0
 52 49  2  0  0  0  0
 53 54  2  0  0  0  0
 53 55  1  0  0  0  0
 54 57  1  0  0  0  0
 55 56  1  0  0  0  0
 57 56  2  0  0  0  0
 58 59  1  0  0  0  0
 59 54  1  0  0  0  0
 60 58  1  0  0  0  0
 60 59  1  0  0  0  0
M  END
>  <MODEL>
2

>  <REMARK>
 VINA RESULT:      -6.2      2.702      7.069
  Name = 
  23 active torsions:
  status: ('A' for Active; 'I' for Inactive)
    1  A    between atoms: C_1  and  C_31
    2  A    between atoms: C_1  and  N_52
    3  A    between atoms: C_1  and  C_56
    4  A    between atoms: O_3  and  C_39
    5  A    between atoms: N_4  and  C_32
    6  A    between atoms: N_4  and  S_54
    7  A    between atoms: C_9  and  N_16
    8  A    between atoms: O_11  and  C_39
    9  A    between atoms: O_11  and  C_57
   10  A    between atoms: C_14  and  C_33
   11  A    between atoms: C_17  and  C_18
   12  A    between atoms: C_18  and  C_24
   13  A    between atoms: C_19  and  O_30
   14  A    between atoms: C_19  and  C_31
   15  A    between atoms: C_22  and  C_55
   16  A    between atoms: C_22  and  C_57
   17  A    between atoms: C_23  and  C_55
   18  A    between atoms: C_29  and  S_54
   19  A    between atoms: O_30  and  C_41
   20  A    between atoms: C_32  and  C_53
   21  A    between atoms: C_41  and  C_58
   22  A    between atoms: C_42  and  C_58
   23  A    between atoms: C_45  and  C_56
                            x       y       z     vdW  Elec       q    Type
                         _______ _______ _______ _____ _____    ______ ____

>  <TORSDO>
F 23

$$$$
=
 OpenBabel10232409223D

 60 66  0  0  1  0  0  0  0  0999 V2000
  189.0160  176.9930  137.0770 C   0  0  2  0  0  3  0  0  0  0  0  0
  188.2220  178.6310  139.2890 O   0  0  0  0  0  0  0  0  0  0  0  0
  189.2990  176.7200  138.4800 N   0  0  0  0  0  2  0  0  0  0  0  0
  188.8910  177.5910  139.5360 C   0  0  0  0  0  0  0  0  0  0  0  0
  189.2430  177.2540  140.9430 C   0  0  0  0  0  2  0  0  0  0  0  0
  189.0180  178.4110  141.7920 N   0  0  0  0  0  2  0  0  0  0  0  0
  190.3660  178.4850  142.9300 S   0  0  0  0  0  0  0  0  0  0  0  0
  191.0750  177.2180  147.5560 C   0  0  0  0  0  2  0  0  0  0  0  0
  190.2890  177.6020  146.2950 C   0  0  2  0  0  3  0  0  0  0  0  0
  187.9690  177.4630  145.4650 C   0  0  0  0  0  0  0  0  0  0  0  0
  191.4820  175.7460  147.5500 C   0  0  0  0  0  2  0  0  0  0  0  0
  191.5220  175.7990  145.0740 C   0  0  0  0  0  3  0  0  0  0  0  0
  189.7740  177.0360  143.8600 C   0  0  1  0  0  3  0  0  0  0  0  0
  192.3140  175.4730  146.3030 C   0  0  0  0  0  2  0  0  0  0  0  0
  188.8870  177.5130  146.5270 O   0  0  0  0  0  0  0  0  0  0  0  0
  190.6380  176.8090  145.0600 C   0  0  0  0  0  0  0  0  0  0  0  0
  188.3710  177.2280  144.2480 N   0  0  0  0  0  0  0  0  0  0  0  0
  186.2400  177.9400  147.1880 C   0  0  0  0  0  1  0  0  0  0  0  0
  186.5030  177.6220  145.7250 C   0  0  1  0  0  3  0  0  0  0  0  0
  184.0640  178.2730  143.1110 C   0  0  0  0  0  2  0  0  0  0  0  0
  185.7950  178.6170  144.7930 C   0  0  0  0  0  3  0  0  0  0  0  0
  183.5670  179.2590  144.1450 C   0  0  0  0  0  2  0  0  0  0  0  0
  185.5400  178.0730  143.3920 C   0  0  0  0  0  2  0  0  0  0  0  0
  184.4560  179.0630  145.3510 C   0  0  0  0  0  2  0  0  0  0  0  0
  188.0240  175.9610  136.5520 C   0  0  0  0  0  2  0  0  0  0  0  0
  187.7550  177.1910  134.5310 O   0  0  0  0  0  0  0  0  0  0  0  0
  187.2030  176.5120  135.4350 C   0  0  0  0  0  0  0  0  0  0  0  0
  185.8310  176.2700  135.4090 O   0  0  0  0  0  0  0  0  0  0  0  0
  184.9010  177.2570  134.9890 C   0  0  0  0  0  2  0  0  0  0  0  0
  183.4900  176.7370  135.1760 C   0  0  0  0  0  2  0  0  0  0  0  0
  182.9730  174.8850  138.0710 C   0  0  0  0  0  2  0  0  0  0  0  0
  183.8400  175.4310  137.1330 O   0  0  0  0  0  0  0  0  0  0  0  0
  181.6050  175.4410  137.7800 C   0  0  1  0  0  0  0  0  0  0  0  0
  183.1760  176.5690  136.6520 C   0  0  2  0  0  3  0  0  0  0  0  0
  181.7840  176.4520  136.8300 O   0  0  0  0  0  0  0  0  0  0  0  0
  180.2400  174.7280  135.9210 O   0  0  0  0  0  1  0  0  0  0  0  0
  180.6770  174.3570  137.1950 C   0  0  1  0  0  3  0  0  0  0  0  0
  181.3490  172.9890  137.1260 C   0  0  0  0  0  2  0  0  0  0  0  0
  180.4640  171.9410  137.7710 C   0  0  0  0  0  1  0  0  0  0  0  0
  180.4960  175.2490  139.8970 O   0  0  0  0  0  0  0  0  0  0  0  0
  181.0260  176.0230  139.0570 C   0  0  0  0  0  0  0  0  0  0  0  0
  181.0250  177.3980  139.3400 O   0  0  0  0  0  0  0  0  0  0  0  0
  182.0320  178.0640  140.0920 C   0  0  0  0  0  2  0  0  0  0  0  0
  181.5300  179.2620  140.6010 O   0  0  0  0  0  0  0  0  0  0  0  0
  180.6230  178.8720  141.5850 C   0  0  0  0  0  1  0  0  0  0  0  0
  190.3150  176.9250  136.2790 C   0  0  0  0  0  2  0  0  0  0  0  0
  192.3340  176.6500  137.6240 C   0  0  0  0  0  2  0  0  0  0  0  0
  193.1590  174.3220  137.5170 C   0  0  2  0  0  3  0  0  0  0  0  0
  194.2970  176.0170  138.7940 O   0  0  0  0  0  0  0  0  0  0  0  0
  191.3720  176.0820  136.9240 C   0  0  2  0  0  3  0  0  0  0  0  0
  191.4850  174.2890  136.7670 S   0  0  0  0  0  0  0  0  0  0  0  0
  193.3320  175.6950  138.0560 C   0  0  0  0  0  0  0  0  0  0  0  0
  195.2390  174.8280  136.1990 C   0  0  0  0  0  3  0  0  0  0  0  0
  195.9830  174.0740  135.3100 C   0  0  0  0  0  0  0  0  0  0  0  0
  194.1910  174.0430  136.5210 N   0  0  0  0  0  0  0  0  0  0  0  0
  194.2990  172.8880  135.8860 N   0  0  0  0  0  0  0  0  0  0  0  0
  195.3820  172.8820  135.1250 N   0  0  0  0  0  0  0  0  0  0  0  0
  198.3150  174.8630  135.6020 C   0  0  0  0  0  2  0  0  0  0  0  0
  197.2330  174.4960  134.6060 C   0  0  0  0  0  3  0  0  0  0  0  0
  198.3440  173.5140  134.9210 C   0  0  0  0  0  2  0  0  0  0  0  0
  1 46  1  6  0  0  0
  1  3  1  0  0  0  0
  2  4  2  0  0  0  0
  3  4  1  0  0  0  0
  4  5  1  0  0  0  0
  5  6  1  0  0  0  0
  6  7  1  0  0  0  0
  9 15  1  0  0  0  0
  9  8  1  1  0  0  0
 10 19  1  0  0  0  0
 10 15  1  0  0  0  0
 11  8  1  0  0  0  0
 12 14  1  0  0  0  0
 13  7  1  1  0  0  0
 13 17  1  0  0  0  0
 13 16  1  0  0  0  0
 14 11  1  0  0  0  0
 16 12  2  0  0  0  0
 16  9  1  0  0  0  0
 17 10  2  0  0  0  0
 19 18  1  1  0  0  0
 20 23  1  0  0  0  0
 20 22  1  0  0  0  0
 21 24  1  0  0  0  0
 21 19  1  0  0  0  0
 22 24  1  0  0  0  0
 23 21  1  0  0  0  0
 25  1  1  0  0  0  0
 26 27  2  0  0  0  0
 27 25  1  0  0  0  0
 28 27  1  0  0  0  0
 29 30  1  0  0  0  0
 29 28  1  0  0  0  0
 32 31  1  0  0  0  0
 33 31  1  0  0  0  0
 33 41  1  1  0  0  0
 34 30  1  6  0  0  0
 34 35  1  0  0  0  0
 34 32  1  0  0  0  0
 35 33  1  0  0  0  0
 37 36  1  6  0  0  0
 37 33  1  0  0  0  0
 38 37  1  0  0  0  0
 38 39  1  0  0  0  0
 41 42  1  0  0  0  0
 41 40  2  0  0  0  0
 42 43  1  0  0  0  0
 43 44  1  0  0  0  0
 44 45  1  0  0  0  0
 47 52  1  0  0  0  0
 48 55  1  6  0  0  0
 48 52  1  0  0  0  0
 50 46  1  6  0  0  0
 50 47  1  0  0  0  0
 51 50  1  0  0  0  0
 51 48  1  0  0  0  0
 52 49  2  0  0  0  0
 53 55  1  0  0  0  0
 54 53  2  0  0  0  0
 56 55  1  0  0  0  0
 57 54  1  0  0  0  0
 57 56  2  0  0  0  0
 59 60  1  0  0  0  0
 59 54  1  0  0  0  0
 59 58  1  0  0  0  0
 60 58  1  0  0  0  0
M  END
>  <MODEL>
3

>  <REMARK>
 VINA RESULT:      -6.1      2.890      8.804
  Name = 
  23 active torsions:
  status: ('A' for Active; 'I' for Inactive)
    1  A    between atoms: C_1  and  C_31
    2  A    between atoms: C_1  and  N_52
    3  A    between atoms: C_1  and  C_56
    4  A    between atoms: O_3  and  C_39
    5  A    between atoms: N_4  and  C_32
    6  A    between atoms: N_4  and  S_54
    7  A    between atoms: C_9  and  N_16
    8  A    between atoms: O_11  and  C_39
    9  A    between atoms: O_11  and  C_57
   10  A    between atoms: C_14  and  C_33
   11  A    between atoms: C_17  and  C_18
   12  A    between atoms: C_18  and  C_24
   13  A    between atoms: C_19  and  O_30
   14  A    between atoms: C_19  and  C_31
   15  A    between atoms: C_22  and  C_55
   16  A    between atoms: C_22  and  C_57
   17  A    between atoms: C_23  and  C_55
   18  A    between atoms: C_29  and  S_54
   19  A    between atoms: O_30  and  C_41
   20  A    between atoms: C_32  and  C_53
   21  A    between atoms: C_41  and  C_58
   22  A    between atoms: C_42  and  C_58
   23  A    between atoms: C_45  and  C_56
                            x       y       z     vdW  Elec       q    Type
                         _______ _______ _______ _____ _____    ______ ____

>  <TORSDO>
F 23

$$$$
=
 OpenBabel10232409223D

 60 66  0  0  1  0  0  0  0  0999 V2000
  190.4050  177.8810  140.4920 C   0  0  2  0  0  3  0  0  0  0  0  0
  188.9840  179.1440  138.3490 O   0  0  0  0  0  0  0  0  0  0  0  0
  189.3220  177.2830  139.7220 N   0  0  0  0  0  2  0  0  0  0  0  0
  188.6390  177.9770  138.6760 C   0  0  0  0  0  0  0  0  0  0  0  0
  187.5240  177.3030  137.9560 C   0  0  0  0  0  2  0  0  0  0  0  0
  187.4490  177.8070  136.5950 N   0  0  0  0  0  2  0  0  0  0  0  0
  188.1210  176.5550  135.5450 S   0  0  0  0  0  0  0  0  0  0  0  0
  185.5810  172.8760  137.4200 C   0  0  0  0  0  2  0  0  0  0  0  0
  185.8930  174.3240  137.0160 C   0  0  2  0  0  3  0  0  0  0  0  0
  184.6720  176.4420  136.6870 C   0  0  0  0  0  0  0  0  0  0  0  0
  185.0680  172.0520  136.2420 C   0  0  0  0  0  2  0  0  0  0  0  0
  186.3760  173.4900  134.7070 C   0  0  0  0  0  3  0  0  0  0  0  0
  186.4730  175.9160  135.1080 C   0  0  1  0  0  3  0  0  0  0  0  0
  186.1140  172.0770  135.1340 C   0  0  0  0  0  2  0  0  0  0  0  0
  184.7810  175.1720  137.2790 O   0  0  0  0  0  0  0  0  0  0  0  0
  186.3280  174.5050  135.5820 C   0  0  0  0  0  0  0  0  0  0  0  0
  185.4330  176.7770  135.6840 N   0  0  0  0  0  0  0  0  0  0  0  0
  182.2340  176.8900  136.8890 C   0  0  0  0  0  1  0  0  0  0  0  0
  183.6350  177.4120  137.1650 C   0  0  1  0  0  3  0  0  0  0  0  0
  182.4720  179.3720  139.9940 C   0  0  0  0  0  2  0  0  0  0  0  0
  183.7990  177.8510  138.6270 C   0  0  0  0  0  3  0  0  0  0  0  0
  182.5060  178.0110  140.6520 C   0  0  0  0  0  2  0  0  0  0  0  0
  183.4830  179.3230  138.8660 C   0  0  0  0  0  2  0  0  0  0  0  0
  182.9170  177.0450  139.5640 C   0  0  0  0  0  2  0  0  0  0  0  0
  191.7340  177.2870  140.0410 C   0  0  0  0  0  2  0  0  0  0  0  0
  190.8930  175.4050  138.8480 O   0  0  0  0  0  0  0  0  0  0  0  0
  191.5730  176.4630  138.8080 C   0  0  0  0  0  0  0  0  0  0  0  0
  192.1820  176.8750  137.6240 O   0  0  0  0  0  0  0  0  0  0  0  0
  192.2840  176.0210  136.4940 C   0  0  0  0  0  2  0  0  0  0  0  0
  193.7210  175.9840  136.0140 C   0  0  0  0  0  2  0  0  0  0  0  0
  196.1520  174.2850  137.8260 C   0  0  0  0  0  2  0  0  0  0  0  0
  194.9650  175.0060  137.7910 O   0  0  0  0  0  0  0  0  0  0  0  0
  196.5270  173.9850  136.3990 C   0  0  1  0  0  0  0  0  0  0  0  0
  194.4210  174.7380  136.5260 C   0  0  2  0  0  3  0  0  0  0  0  0
  195.4260  174.3530  135.6170 O   0  0  0  0  0  0  0  0  0  0  0  0
  197.5600  176.1620  136.2520 O   0  0  0  0  0  1  0  0  0  0  0  0
  197.7540  174.8090  135.9610 C   0  0  1  0  0  3  0  0  0  0  0  0
  199.0450  174.3250  136.6170 C   0  0  0  0  0  2  0  0  0  0  0  0
  200.2310  174.6460  135.7310 C   0  0  0  0  0  1  0  0  0  0  0  0
  196.8500  171.9910  135.1070 O   0  0  0  0  0  0  0  0  0  0  0  0
  196.7900  172.4960  136.2590 C   0  0  0  0  0  0  0  0  0  0  0  0
  196.9440  171.6400  137.3600 O   0  0  0  0  0  0  0  0  0  0  0  0
  197.8050  170.5080  137.3840 C   0  0  0  0  0  2  0  0  0  0  0  0
  197.0690  169.3470  137.1480 O   0  0  0  0  0  0  0  0  0  0  0  0
  195.9870  169.4330  138.0220 C   0  0  0  0  0  1  0  0  0  0  0  0
  190.1820  177.6030  141.9750 C   0  0  0  0  0  2  0  0  0  0  0  0
  187.9440  178.5760  142.0540 C   0  0  0  0  0  2  0  0  0  0  0  0
  186.4700  177.2840  143.5620 C   0  0  2  0  0  3  0  0  0  0  0  0
  185.6950  179.2440  142.3960 O   0  0  0  0  0  0  0  0  0  0  0  0
  188.7370  177.5710  142.3700 C   0  0  2  0  0  3  0  0  0  0  0  0
  187.9720  176.2550  143.3360 S   0  0  0  0  0  0  0  0  0  0  0  0
  186.6250  178.4320  142.6310 C   0  0  0  0  0  0  0  0  0  0  0  0
  187.3580  177.8700  145.8400 C   0  0  0  0  0  3  0  0  0  0  0  0
  186.7810  178.4950  146.9310 C   0  0  0  0  0  0  0  0  0  0  0  0
  186.3620  177.7680  144.9360 N   0  0  0  0  0  0  0  0  0  0  0  0
  185.2630  178.3080  145.4360 N   0  0  0  0  0  0  0  0  0  0  0  0
  185.4850  178.7510  146.6630 N   0  0  0  0  0  0  0  0  0  0  0  0
  187.8430  177.5360  148.9550 C   0  0  0  0  0  2  0  0  0  0  0  0
  187.4410  178.8090  148.2350 C   0  0  0  0  0  3  0  0  0  0  0  0
  188.8800  178.3330  148.1980 C   0  0  0  0  0  2  0  0  0  0  0  0
  1 25  1  6  0  0  0
  1 46  1  0  0  0  0
  2  4  2  0  0  0  0
  3  1  1  0  0  0  0
  4  3  1  0  0  0  0
  5  4  1  0  0  0  0
  6  5  1  0  0  0  0
  7  6  1  0  0  0  0
  9 15  1  0  0  0  0
  9  8  1  6  0  0  0
 10 19  1  0  0  0  0
 10 15  1  0  0  0  0
 11  8  1  0  0  0  0
 12 14  1  0  0  0  0
 12 16  2  0  0  0  0
 13  7  1  1  0  0  0
 13 16  1  0  0  0  0
 13 17  1  0  0  0  0
 14 11  1  0  0  0  0
 16  9  1  0  0  0  0
 17 10  2  0  0  0  0
 19 18  1  1  0  0  0
 19 21  1  0  0  0  0
 20 22  1  0  0  0  0
 21 23  1  0  0  0  0
 21 24  1  0  0  0  0
 23 20  1  0  0  0  0
 24 22  1  0  0  0  0
 27 26  2  0  0  0  0
 27 25  1  0  0  0  0
 28 27  1  0  0  0  0
 29 28  1  0  0  0  0
 30 29  1  0  0  0  0
 32 31  1  0  0  0  0
 33 41  1  6  0  0  0
 33 31  1  0  0  0  0
 34 30  1  6  0  0  0
 34 32  1  0  0  0  0
 35 33  1  0  0  0  0
 35 34  1  0  0  0  0
 37 36  1  1  0  0  0
 37 33  1  0  0  0  0
 37 38  1  0  0  0  0
 39 38  1  0  0  0  0
 40 41  2  0  0  0  0
 41 42  1  0  0  0  0
 42 43  1  0  0  0  0
 44 43  1  0  0  0  0
 44 45  1  0  0  0  0
 47 50  1  0  0  0  0
 47 52  1  0  0  0  0
 48 55  1  1  0  0  0
 49 52  2  0  0  0  0
 50 46  1  1  0  0  0
 50 51  1  0  0  0  0
 51 48  1  0  0  0  0
 52 48  1  0  0  0  0
 53 54  2  0  0  0  0
 54 59  1  0  0  0  0
 55 56  1  0  0  0  0
 55 53  1  0  0  0  0
 56 57  2  0  0  0  0
 57 54  1  0  0  0  0
 59 58  1  0  0  0  0
 60 59  1  0  0  0  0
 60 58  1  0  0  0  0
M  END
>  <MODEL>
4

>  <REMARK>
 VINA RESULT:      -5.9      2.594      7.859
  Name = 
  23 active torsions:
  status: ('A' for Active; 'I' for Inactive)
    1  A    between atoms: C_1  and  C_31
    2  A    between atoms: C_1  and  N_52
    3  A    between atoms: C_1  and  C_56
    4  A    between atoms: O_3  and  C_39
    5  A    between atoms: N_4  and  C_32
    6  A    between atoms: N_4  and  S_54
    7  A    between atoms: C_9  and  N_16
    8  A    between atoms: O_11  and  C_39
    9  A    between atoms: O_11  and  C_57
   10  A    between atoms: C_14  and  C_33
   11  A    between atoms: C_17  and  C_18
   12  A    between atoms: C_18  and  C_24
   13  A    between atoms: C_19  and  O_30
   14  A    between atoms: C_19  and  C_31
   15  A    between atoms: C_22  and  C_55
   16  A    between atoms: C_22  and  C_57
   17  A    between atoms: C_23  and  C_55
   18  A    between atoms: C_29  and  S_54
   19  A    between atoms: O_30  and  C_41
   20  A    between atoms: C_32  and  C_53
   21  A    between atoms: C_41  and  C_58
   22  A    between atoms: C_42  and  C_58
   23  A    between atoms: C_45  and  C_56
                            x       y       z     vdW  Elec       q    Type
                         _______ _______ _______ _____ _____    ______ ____

>  <TORSDO>
F 23

$$$$
=
 OpenBabel10232409223D

 60 66  0  0  1  0  0  0  0  0999 V2000
  188.3410  175.9890  136.3150 C   0  0  2  0  0  3  0  0  0  0  0  0
  190.8800  176.1260  134.9940 O   0  0  0  0  0  0  0  0  0  0  0  0
  189.6210  175.6030  136.8940 N   0  0  0  0  0  2  0  0  0  0  0  0
  190.8520  175.6780  136.1720 C   0  0  0  0  0  0  0  0  0  0  0  0
  192.1140  175.2380  136.8270 C   0  0  0  0  0  2  0  0  0  0  0  0
  192.9270  174.5010  135.8740 N   0  0  0  0  0  2  0  0  0  0  0  0
  192.5000  172.7960  136.0430 S   0  0  0  0  0  0  0  0  0  0  0  0
  196.3300  173.9660  138.7750 C   0  0  0  0  0  2  0  0  0  0  0  0
  195.2800  173.0590  138.1180 C   0  0  2  0  0  3  0  0  0  0  0  0
  194.9720  170.6590  137.6350 C   0  0  0  0  0  0  0  0  0  0  0  0
  197.4630  174.3190  137.8140 C   0  0  0  0  0  2  0  0  0  0  0  0
  195.8850  174.0880  135.9190 C   0  0  0  0  0  3  0  0  0  0  0  0
  194.2360  172.2600  135.9300 C   0  0  1  0  0  3  0  0  0  0  0  0
  196.8700  175.0000  136.5870 C   0  0  0  0  0  2  0  0  0  0  0  0
  195.5530  171.6890  138.3930 O   0  0  0  0  0  0  0  0  0  0  0  0
  195.1220  173.2430  136.6280 C   0  0  0  0  0  0  0  0  0  0  0  0
  194.3850  170.9160  136.5010 N   0  0  0  0  0  0  0  0  0  0  0  0
  193.8500  168.4390  137.6570 C   0  0  0  0  0  1  0  0  0  0  0  0
  195.0700  169.2360  138.0930 C   0  0  1  0  0  3  0  0  0  0  0  0
  198.6900  169.2970  137.7820 C   0  0  0  0  0  2  0  0  0  0  0  0
  196.3760  168.5300  137.7030 C   0  0  0  0  0  3  0  0  0  0  0  0
  198.5490  168.0480  138.6230 C   0  0  0  0  0  2  0  0  0  0  0  0
  197.3880  169.4430  137.0190 C   0  0  0  0  0  2  0  0  0  0  0  0
  197.0700  167.9130  138.9040 C   0  0  0  0  0  2  0  0  0  0  0  0
  187.4750  176.6370  137.3890 C   0  0  0  0  0  2  0  0  0  0  0  0
  187.8760  178.9840  137.4210 O   0  0  0  0  0  0  0  0  0  0  0  0
  188.1180  177.8640  137.9410 C   0  0  0  0  0  0  0  0  0  0  0  0
  188.9840  177.7550  139.0280 O   0  0  0  0  0  0  0  0  0  0  0  0
  188.5770  178.0830  140.3480 C   0  0  0  0  0  2  0  0  0  0  0  0
  189.6840  177.7300  141.3210 C   0  0  0  0  0  2  0  0  0  0  0  0
  190.3820  178.6630  144.5960 C   0  0  0  0  0  2  0  0  0  0  0  0
  190.3200  178.9780  143.2440 O   0  0  0  0  0  0  0  0  0  0  0  0
  189.7350  177.3140  144.7620 C   0  0  1  0  0  0  0  0  0  0  0  0
  189.3090  178.1530  142.7300 C   0  0  2  0  0  3  0  0  0  0  0  0
  189.1320  177.0120  143.5360 O   0  0  0  0  0  0  0  0  0  0  0  0
  191.4290  175.8130  143.9240 O   0  0  0  0  0  1  0  0  0  0  0  0
  190.7830  176.2310  145.0890 C   0  0  1  0  0  3  0  0  0  0  0  0
  191.8180  176.7090  146.1050 C   0  0  0  0  0  2  0  0  0  0  0  0
  192.1370  175.5980  147.0850 C   0  0  0  0  0  1  0  0  0  0  0  0
  188.8650  176.7770  146.9310 O   0  0  0  0  0  0  0  0  0  0  0  0
  188.6820  177.4020  145.8530 C   0  0  0  0  0  0  0  0  0  0  0  0
  187.4900  178.1280  145.7090 O   0  0  0  0  0  0  0  0  0  0  0  0
  186.1900  177.5880  145.9170 C   0  0  0  0  0  2  0  0  0  0  0  0
  185.4160  178.4860  146.6520 O   0  0  0  0  0  0  0  0  0  0  0  0
  184.3650  178.8230  145.8000 C   0  0  0  0  0  1  0  0  0  0  0  0
  187.6460  174.7490  135.7590 C   0  0  0  0  0  2  0  0  0  0  0  0
  185.3990  175.5390  135.2190 C   0  0  0  0  0  2  0  0  0  0  0  0
  183.7550  174.7330  136.8800 C   0  0  2  0  0  3  0  0  0  0  0  0
  183.1110  176.1300  135.0270 O   0  0  0  0  0  0  0  0  0  0  0  0
  186.1610  174.7550  135.9560 C   0  0  2  0  0  3  0  0  0  0  0  0
  185.2940  173.7910  137.2100 S   0  0  0  0  0  0  0  0  0  0  0  0
  184.0150  175.5090  135.6400 C   0  0  0  0  0  0  0  0  0  0  0  0
  183.8860  176.9070  138.1360 C   0  0  0  0  0  3  0  0  0  0  0  0
  183.2160  177.3800  139.2500 C   0  0  0  0  0  0  0  0  0  0  0  0
  183.4450  175.6430  137.9810 N   0  0  0  0  0  0  0  0  0  0  0  0
  182.5580  175.3710  138.9250 N   0  0  0  0  0  0  0  0  0  0  0  0
  182.4070  176.4140  139.7260 N   0  0  0  0  0  0  0  0  0  0  0  0
  184.6610  178.7920  140.6870 C   0  0  0  0  0  2  0  0  0  0  0  0
  183.3750  178.7240  139.8870 C   0  0  0  0  0  3  0  0  0  0  0  0
  184.5970  179.4120  139.3110 C   0  0  0  0  0  2  0  0  0  0  0  0
  1 46  1  1  0  0  0
  1  3  1  0  0  0  0
  1 25  1  0  0  0  0
  2  4  2  0  0  0  0
  4  5  1  0  0  0  0
  4  3  1  0  0  0  0
  6  7  1  0  0  0  0
  6  5  1  0  0  0  0
  9 15  1  0  0  0  0
  9  8  1  6  0  0  0
 10 19  1  0  0  0  0
 10 15  1  0  0  0  0
 11  8  1  0  0  0  0
 12 14  1  0  0  0  0
 12 16  2  0  0  0  0
 13  7  1  1  0  0  0
 13 17  1  0  0  0  0
 13 16  1  0  0  0  0
 14 11  1  0  0  0  0
 16  9  1  0  0  0  0
 17 10  2  0  0  0  0
 19 18  1  6  0  0  0
 20 22  1  0  0  0  0
 21 19  1  0  0  0  0
 21 24  1  0  0  0  0
 22 24  1  0  0  0  0
 23 21  1  0  0  0  0
 23 20  1  0  0  0  0
 25 27  1  0  0  0  0
 26 27  2  0  0  0  0
 27 28  1  0  0  0  0
 28 29  1  0  0  0  0
 29 30  1  0  0  0  0
 31 33  1  0  0  0  0
 32 31  1  0  0  0  0
 33 37  1  0  0  0  0
 33 41  1  1  0  0  0
 34 30  1  6  0  0  0
 34 32  1  0  0  0  0
 34 35  1  0  0  0  0
 35 33  1  0  0  0  0
 37 36  1  6  0  0  0
 37 38  1  0  0  0  0
 38 39  1  0  0  0  0
 41 40  2  0  0  0  0
 42 41  1  0  0  0  0
 42 43  1  0  0  0  0
 43 44  1  0  0  0  0
 45 44  1  0  0  0  0
 47 52  1  0  0  0  0
 47 50  1  0  0  0  0
 48 51  1  0  0  0  0
 48 55  1  1  0  0  0
 49 52  2  0  0  0  0
 50 46  1  1  0  0  0
 50 51  1  0  0  0  0
 52 48  1  0  0  0  0
 53 54  2  0  0  0  0
 54 57  1  0  0  0  0
 54 59  1  0  0  0  0
 55 53  1  0  0  0  0
 55 56  1  0  0  0  0
 56 57  2  0  0  0  0
 59 58  1  0  0  0  0
 60 59  1  0  0  0  0
 60 58  1  0  0  0  0
M  END
>  <MODEL>
5

>  <REMARK>
 VINA RESULT:      -5.8      3.539      9.753
  Name = 
  23 active torsions:
  status: ('A' for Active; 'I' for Inactive)
    1  A    between atoms: C_1  and  C_31
    2  A    between atoms: C_1  and  N_52
    3  A    between atoms: C_1  and  C_56
    4  A    between atoms: O_3  and  C_39
    5  A    between atoms: N_4  and  C_32
    6  A    between atoms: N_4  and  S_54
    7  A    between atoms: C_9  and  N_16
    8  A    between atoms: O_11  and  C_39
    9  A    between atoms: O_11  and  C_57
   10  A    between atoms: C_14  and  C_33
   11  A    between atoms: C_17  and  C_18
   12  A    between atoms: C_18  and  C_24
   13  A    between atoms: C_19  and  O_30
   14  A    between atoms: C_19  and  C_31
   15  A    between atoms: C_22  and  C_55
   16  A    between atoms: C_22  and  C_57
   17  A    between atoms: C_23  and  C_55
   18  A    between atoms: C_29  and  S_54
   19  A    between atoms: O_30  and  C_41
   20  A    between atoms: C_32  and  C_53
   21  A    between atoms: C_41  and  C_58
   22  A    between atoms: C_42  and  C_58
   23  A    between atoms: C_45  and  C_56
                            x       y       z     vdW  Elec       q    Type
                         _______ _______ _______ _____ _____    ______ ____

>  <TORSDO>
F 23

$$$$
=
 OpenBabel10232409223D

 60 66  0  0  1  0  0  0  0  0999 V2000
  189.4520  178.0610  139.7440 C   0  0  2  0  0  3  0  0  0  0  0  0
  187.5100  178.8360  137.7850 O   0  0  0  0  0  0  0  0  0  0  0  0
  188.7040  177.1520  138.8840 N   0  0  0  0  0  2  0  0  0  0  0  0
  187.7320  177.6040  137.9390 C   0  0  0  0  0  0  0  0  0  0  0  0
  186.9910  176.6090  137.1170 C   0  0  0  0  0  2  0  0  0  0  0  0
  185.6040  177.0230  136.9840 N   0  0  0  0  0  2  0  0  0  0  0  0
  185.2280  177.0150  135.2580 S   0  0  0  0  0  0  0  0  0  0  0  0
  184.5180  172.8310  137.6000 C   0  0  0  0  0  2  0  0  0  0  0  0
  184.3470  174.3210  137.2750 C   0  0  2  0  0  3  0  0  0  0  0  0
  182.7430  176.1330  137.7590 C   0  0  0  0  0  0  0  0  0  0  0  0
  183.6930  171.9440  136.6730 C   0  0  0  0  0  2  0  0  0  0  0  0
  183.8860  173.6660  134.9040 C   0  0  0  0  0  3  0  0  0  0  0  0
  183.7070  176.0460  135.5050 C   0  0  1  0  0  3  0  0  0  0  0  0
  184.1070  172.2210  135.2330 C   0  0  0  0  0  2  0  0  0  0  0  0
  183.3360  174.9030  138.0910 O   0  0  0  0  0  0  0  0  0  0  0  0
  184.0510  174.6260  135.8260 C   0  0  0  0  0  0  0  0  0  0  0  0
  182.8980  176.6480  136.5720 N   0  0  0  0  0  0  0  0  0  0  0  0
  181.3760  175.8890  139.8230 C   0  0  0  0  0  1  0  0  0  0  0  0
  181.8730  176.8440  138.7490 C   0  0  1  0  0  3  0  0  0  0  0  0
  182.7810  178.7830  141.6850 C   0  0  0  0  0  2  0  0  0  0  0  0
  182.5020  178.1050  139.3600 C   0  0  0  0  0  3  0  0  0  0  0  0
  184.1360  178.7240  141.0160 C   0  0  0  0  0  2  0  0  0  0  0  0
  181.7550  178.6360  140.5790 C   0  0  0  0  0  2  0  0  0  0  0  0
  183.9420  177.8750  139.7810 C   0  0  0  0  0  2  0  0  0  0  0  0
  190.9310  177.6940  139.7010 C   0  0  0  0  0  2  0  0  0  0  0  0
  190.4360  175.4640  139.0280 O   0  0  0  0  0  0  0  0  0  0  0  0
  191.1680  176.4760  138.8740 C   0  0  0  0  0  0  0  0  0  0  0  0
  192.2010  176.4740  137.9390 O   0  0  0  0  0  0  0  0  0  0  0  0
  191.9980  176.0630  136.5950 C   0  0  0  0  0  2  0  0  0  0  0  0
  192.6240  174.6990  136.3820 C   0  0  0  0  0  2  0  0  0  0  0  0
  195.6710  173.5040  135.2130 C   0  0  0  0  0  2  0  0  0  0  0  0
  194.2930  173.6170  135.0770 O   0  0  0  0  0  0  0  0  0  0  0  0
  196.0790  174.4250  136.3310 C   0  0  1  0  0  0  0  0  0  0  0  0
  193.9720  174.8340  135.6950 C   0  0  2  0  0  3  0  0  0  0  0  0
  194.9510  175.1930  136.6400 O   0  0  0  0  0  0  0  0  0  0  0  0
  196.5570  174.4680  138.6970 O   0  0  0  0  0  1  0  0  0  0  0  0
  196.5060  173.6290  137.5810 C   0  0  1  0  0  3  0  0  0  0  0  0
  195.5780  172.4520  137.8680 C   0  0  0  0  0  2  0  0  0  0  0  0
  196.2380  171.1540  137.4490 C   0  0  0  0  0  1  0  0  0  0  0  0
  197.1730  176.5490  136.1320 O   0  0  0  0  0  0  0  0  0  0  0  0
  197.2040  175.3230  135.8460 C   0  0  0  0  0  0  0  0  0  0  0  0
  198.2710  174.8580  135.0640 O   0  0  0  0  0  0  0  0  0  0  0  0
  199.6380  174.9110  135.4560 C   0  0  0  0  0  2  0  0  0  0  0  0
  200.0730  173.6400  135.8320 O   0  0  0  0  0  0  0  0  0  0  0  0
  199.9650  173.6300  137.2220 C   0  0  0  0  0  1  0  0  0  0  0  0
  188.9250  177.9510  141.1710 C   0  0  0  0  0  2  0  0  0  0  0  0
  190.2530  176.2990  142.3830 C   0  0  0  0  0  2  0  0  0  0  0  0
  191.5350  177.3620  144.2110 C   0  0  2  0  0  3  0  0  0  0  0  0
  191.6420  174.9920  143.7930 O   0  0  0  0  0  0  0  0  0  0  0  0
  189.9740  177.5690  142.1700 C   0  0  2  0  0  3  0  0  0  0  0  0
  190.8820  178.7430  143.1960 S   0  0  0  0  0  0  0  0  0  0  0  0
  191.1900  176.1200  143.4720 C   0  0  0  0  0  0  0  0  0  0  0  0
  189.6100  177.5000  145.8220 C   0  0  0  0  0  3  0  0  0  0  0  0
  189.5160  177.2690  147.1830 C   0  0  0  0  0  0  0  0  0  0  0  0
  190.9170  177.3400  145.5350 N   0  0  0  0  0  0  0  0  0  0  0  0
  191.5700  177.0180  146.6400 N   0  0  0  0  0  0  0  0  0  0  0  0
  190.7390  176.9800  147.6690 N   0  0  0  0  0  0  0  0  0  0  0  0
  187.6080  178.7090  147.8400 C   0  0  0  0  0  2  0  0  0  0  0  0
  188.2850  177.3640  148.0250 C   0  0  0  0  0  3  0  0  0  0  0  0
  187.0690  177.4900  147.1270 C   0  0  0  0  0  2  0  0  0  0  0  0
  1 25  1  1  0  0  0
  1 46  1  0  0  0  0
  2  4  2  0  0  0  0
  3  1  1  0  0  0  0
  4  3  1  0  0  0  0
  5  4  1  0  0  0  0
  6  5  1  0  0  0  0
  7  6  1  0  0  0  0
  9  8  1  6  0  0  0
  9 15  1  0  0  0  0
 10 15  1  0  0  0  0
 10 19  1  0  0  0  0
 11  8  1  0  0  0  0
 12 14  1  0  0  0  0
 12 16  2  0  0  0  0
 13  7  1  1  0  0  0
 13 16  1  0  0  0  0
 13 17  1  0  0  0  0
 14 11  1  0  0  0  0
 16  9  1  0  0  0  0
 17 10  2  0  0  0  0
 19 21  1  0  0  0  0
 19 18  1  1  0  0  0
 21 24  1  0  0  0  0
 21 23  1  0  0  0  0
 22 20  1  0  0  0  0
 23 20  1  0  0  0  0
 24 22  1  0  0  0  0
 27 26  2  0  0  0  0
 27 25  1  0  0  0  0
 28 27  1  0  0  0  0
 29 28  1  0  0  0  0
 30 29  1  0  0  0  0
 31 33  1  0  0  0  0
 32 31  1  0  0  0  0
 32 34  1  0  0  0  0
 33 41  1  6  0  0  0
 33 35  1  0  0  0  0
 33 37  1  0  0  0  0
 34 30  1  1  0  0  0
 34 35  1  0  0  0  0
 37 38  1  0  0  0  0
 37 36  1  1  0  0  0
 39 38  1  0  0  0  0
 41 40  2  0  0  0  0
 42 43  1  0  0  0  0
 42 41  1  0  0  0  0
 43 44  1  0  0  0  0
 44 45  1  0  0  0  0
 47 52  1  0  0  0  0
 48 55  1  1  0  0  0
 50 46  1  1  0  0  0
 50 47  1  0  0  0  0
 50 51  1  0  0  0  0
 51 48  1  0  0  0  0
 52 49  2  0  0  0  0
 52 48  1  0  0  0  0
 53 54  2  0  0  0  0
 54 57  1  0  0  0  0
 54 59  1  0  0  0  0
 55 53  1  0  0  0  0
 55 56  1  0  0  0  0
 56 57  2  0  0  0  0
 58 59  1  0  0  0  0
 60 58  1  0  0  0  0
 60 59  1  0  0  0  0
M  END
>  <MODEL>
6

>  <REMARK>
 VINA RESULT:      -5.7      2.128      8.154
  Name = 
  23 active torsions:
  status: ('A' for Active; 'I' for Inactive)
    1  A    between atoms: C_1  and  C_31
    2  A    between atoms: C_1  and  N_52
    3  A    between atoms: C_1  and  C_56
    4  A    between atoms: O_3  and  C_39
    5  A    between atoms: N_4  and  C_32
    6  A    between atoms: N_4  and  S_54
    7  A    between atoms: C_9  and  N_16
    8  A    between atoms: O_11  and  C_39
    9  A    between atoms: O_11  and  C_57
   10  A    between atoms: C_14  and  C_33
   11  A    between atoms: C_17  and  C_18
   12  A    between atoms: C_18  and  C_24
   13  A    between atoms: C_19  and  O_30
   14  A    between atoms: C_19  and  C_31
   15  A    between atoms: C_22  and  C_55
   16  A    between atoms: C_22  and  C_57
   17  A    between atoms: C_23  and  C_55
   18  A    between atoms: C_29  and  S_54
   19  A    between atoms: O_30  and  C_41
   20  A    between atoms: C_32  and  C_53
   21  A    between atoms: C_41  and  C_58
   22  A    between atoms: C_42  and  C_58
   23  A    between atoms: C_45  and  C_56
                            x       y       z     vdW  Elec       q    Type
                         _______ _______ _______ _____ _____    ______ ____

>  <TORSDO>
F 23

$$$$
=
 OpenBabel10232409223D

 60 66  0  0  1  0  0  0  0  0999 V2000
  189.5290  177.5710  138.3290 C   0  0  2  0  0  3  0  0  0  0  0  0
  191.1060  175.1860  138.5040 O   0  0  0  0  0  0  0  0  0  0  0  0
  190.9350  177.4550  137.9660 N   0  0  0  0  0  2  0  0  0  0  0  0
  191.6710  176.2370  138.0970 C   0  0  0  0  0  0  0  0  0  0  0  0
  193.1140  176.2080  137.7290 C   0  0  0  0  0  2  0  0  0  0  0  0
  193.2490  175.9200  136.3110 N   0  0  0  0  0  2  0  0  0  0  0  0
  194.7280  176.7140  135.7630 S   0  0  0  0  0  0  0  0  0  0  0  0
  198.2000  173.9190  137.6700 C   0  0  0  0  0  2  0  0  0  0  0  0
  196.8070  174.2890  137.1430 C   0  0  2  0  0  3  0  0  0  0  0  0
  194.7680  173.1310  136.3750 C   0  0  0  0  0  0  0  0  0  0  0  0
  199.1710  173.5930  136.5380 C   0  0  0  0  0  2  0  0  0  0  0  0
  197.9060  175.1190  135.0540 C   0  0  0  0  0  3  0  0  0  0  0  0
  195.4470  175.1530  135.1630 C   0  0  1  0  0  3  0  0  0  0  0  0
  199.2610  174.7960  135.6070 C   0  0  0  0  0  2  0  0  0  0  0  0
  195.9540  173.1500  137.1280 O   0  0  0  0  0  0  0  0  0  0  0  0
  196.7930  174.9380  135.7800 C   0  0  0  0  0  0  0  0  0  0  0  0
  194.5420  174.0360  135.4650 N   0  0  0  0  0  0  0  0  0  0  0  0
  192.4500  172.3720  135.8870 C   0  0  0  0  0  1  0  0  0  0  0  0
  193.7670  172.0330  136.5670 C   0  0  1  0  0  3  0  0  0  0  0  0
  194.5410  168.6030  137.4820 C   0  0  0  0  0  2  0  0  0  0  0  0
  194.2680  170.6380  136.1670 C   0  0  0  0  0  3  0  0  0  0  0  0
  193.6000  168.3310  136.3300 C   0  0  0  0  0  2  0  0  0  0  0  0
  195.1400  169.9710  137.2250 C   0  0  0  0  0  2  0  0  0  0  0  0
  193.1230  169.6880  135.8670 C   0  0  0  0  0  2  0  0  0  0  0  0
  188.7410  178.0970  137.1350 C   0  0  0  0  0  2  0  0  0  0  0  0
  188.0550  175.8900  136.5610 O   0  0  0  0  0  0  0  0  0  0  0  0
  187.7340  177.1020  136.6660 C   0  0  0  0  0  0  0  0  0  0  0  0
  186.4470  177.5290  136.3450 O   0  0  0  0  0  0  0  0  0  0  0  0
  185.4980  176.6660  135.7360 C   0  0  0  0  0  2  0  0  0  0  0  0
  184.0990  177.0870  136.1380 C   0  0  0  0  0  2  0  0  0  0  0  0
  182.9220  176.5790  139.3690 C   0  0  0  0  0  2  0  0  0  0  0  0
  183.7220  176.1800  138.3050 O   0  0  0  0  0  0  0  0  0  0  0  0
  182.3830  177.9420  139.0260 C   0  0  1  0  0  0  0  0  0  0  0  0
  184.0360  177.3680  137.6290 C   0  0  2  0  0  3  0  0  0  0  0  0
  183.0730  178.3620  137.8830 O   0  0  0  0  0  0  0  0  0  0  0  0
  180.4800  179.0190  138.0040 O   0  0  0  0  0  1  0  0  0  0  0  0
  180.8750  177.8810  138.7120 C   0  0  1  0  0  3  0  0  0  0  0  0
  180.4930  176.6310  137.9240 C   0  0  0  0  0  2  0  0  0  0  0  0
  180.2180  176.9900  136.4780 C   0  0  0  0  0  1  0  0  0  0  0  0
  183.4640  179.8450  140.0060 O   0  0  0  0  0  0  0  0  0  0  0  0
  182.6630  178.8890  140.1800 C   0  0  0  0  0  0  0  0  0  0  0  0
  182.0900  178.7350  141.4510 O   0  0  0  0  0  0  0  0  0  0  0  0
  182.8330  178.5470  142.6500 C   0  0  0  0  0  2  0  0  0  0  0  0
  182.5360  179.5640  143.5570 O   0  0  0  0  0  0  0  0  0  0  0  0
  183.7700  179.9270  144.0940 C   0  0  0  0  0  1  0  0  0  0  0  0
  189.3920  178.5280  139.5100 C   0  0  0  0  0  2  0  0  0  0  0  0
  187.6140  178.4860  141.1840 C   0  0  0  0  0  2  0  0  0  0  0  0
  188.0780  176.7930  142.9260 C   0  0  2  0  0  3  0  0  0  0  0  0
  186.1100  178.1800  142.9910 O   0  0  0  0  0  0  0  0  0  0  0  0
  188.7010  177.9230  140.6950 C   0  0  2  0  0  3  0  0  0  0  0  0
  189.2870  176.4690  141.5850 S   0  0  0  0  0  0  0  0  0  0  0  0
  187.1670  177.8430  142.4010 C   0  0  0  0  0  0  0  0  0  0  0  0
  188.4970  176.8860  145.4030 C   0  0  0  0  0  3  0  0  0  0  0  0
  189.4650  177.5220  146.1600 C   0  0  0  0  0  0  0  0  0  0  0  0
  188.7440  177.2720  144.1350 N   0  0  0  0  0  0  0  0  0  0  0  0
  189.7980  178.0710  144.1200 N   0  0  0  0  0  0  0  0  0  0  0  0
  190.2540  178.2530  145.3490 N   0  0  0  0  0  0  0  0  0  0  0  0
  188.9820  178.6890  148.2930 C   0  0  0  0  0  2  0  0  0  0  0  0
  189.6150  177.4710  147.6470 C   0  0  0  0  0  3  0  0  0  0  0  0
  188.2450  177.3700  148.2880 C   0  0  0  0  0  2  0  0  0  0  0  0
  1 25  1  6  0  0  0
  1 46  1  0  0  0  0
  3  4  1  0  0  0  0
  3  1  1  0  0  0  0
  4  2  2  0  0  0  0
  5  4  1  0  0  0  0
  6  5  1  0  0  0  0
  7  6  1  0  0  0  0
  9  8  1  6  0  0  0
 10 19  1  0  0  0  0
 10 15  1  0  0  0  0
 11  8  1  0  0  0  0
 12 14  1  0  0  0  0
 12 16  2  0  0  0  0
 13 17  1  0  0  0  0
 13  7  1  1  0  0  0
 13 16  1  0  0  0  0
 14 11  1  0  0  0  0
 15  9  1  0  0  0  0
 16  9  1  0  0  0  0
 17 10  2  0  0  0  0
 19 18  1  6  0  0  0
 21 19  1  0  0  0  0
 21 23  1  0  0  0  0
 22 20  1  0  0  0  0
 23 20  1  0  0  0  0
 24 21  1  0  0  0  0
 24 22  1  0  0  0  0
 26 27  2  0  0  0  0
 27 25  1  0  0  0  0
 28 27  1  0  0  0  0
 29 30  1  0  0  0  0
 29 28  1  0  0  0  0
 32 31  1  0  0  0  0
 33 31  1  0  0  0  0
 33 41  1  1  0  0  0
 34 30  1  6  0  0  0
 34 35  1  0  0  0  0
 34 32  1  0  0  0  0
 35 33  1  0  0  0  0
 37 36  1  6  0  0  0
 37 33  1  0  0  0  0
 38 37  1  0  0  0  0
 39 38  1  0  0  0  0
 40 41  2  0  0  0  0
 41 42  1  0  0  0  0
 42 43  1  0  0  0  0
 43 44  1  0  0  0  0
 44 45  1  0  0  0  0
 47 52  1  0  0  0  0
 48 55  1  1  0  0  0
 50 46  1  1  0  0  0
 50 47  1  0  0  0  0
 50 51  1  0  0  0  0
 51 48  1  0  0  0  0
 52 48  1  0  0  0  0
 52 49  2  0  0  0  0
 53 54  2  0  0  0  0
 54 59  1  0  0  0  0
 55 53  1  0  0  0  0
 56 55  1  0  0  0  0
 56 57  2  0  0  0  0
 57 54  1  0  0  0  0
 59 60  1  0  0  0  0
 59 58  1  0  0  0  0
 60 58  1  0  0  0  0
M  END
>  <MODEL>
7

>  <REMARK>
 VINA RESULT:      -5.7      3.398     10.876
  Name = 
  23 active torsions:
  status: ('A' for Active; 'I' for Inactive)
    1  A    between atoms: C_1  and  C_31
    2  A    between atoms: C_1  and  N_52
    3  A    between atoms: C_1  and  C_56
    4  A    between atoms: O_3  and  C_39
    5  A    between atoms: N_4  and  C_32
    6  A    between atoms: N_4  and  S_54
    7  A    between atoms: C_9  and  N_16
    8  A    between atoms: O_11  and  C_39
    9  A    between atoms: O_11  and  C_57
   10  A    between atoms: C_14  and  C_33
   11  A    between atoms: C_17  and  C_18
   12  A    between atoms: C_18  and  C_24
   13  A    between atoms: C_19  and  O_30
   14  A    between atoms: C_19  and  C_31
   15  A    between atoms: C_22  and  C_55
   16  A    between atoms: C_22  and  C_57
   17  A    between atoms: C_23  and  C_55
   18  A    between atoms: C_29  and  S_54
   19  A    between atoms: O_30  and  C_41
   20  A    between atoms: C_32  and  C_53
   21  A    between atoms: C_41  and  C_58
   22  A    between atoms: C_42  and  C_58
   23  A    between atoms: C_45  and  C_56
                            x       y       z     vdW  Elec       q    Type
                         _______ _______ _______ _____ _____    ______ ____

>  <TORSDO>
F 23

$$$$
=
 OpenBabel10232409223D

 60 66  0  0  1  0  0  0  0  0999 V2000
  190.2000  175.1660  136.9650 C   0  0  2  0  0  3  0  0  0  0  0  0
  191.0370  176.5090  139.3530 O   0  0  0  0  0  0  0  0  0  0  0  0
  189.4450  176.1930  137.6700 N   0  0  0  0  0  2  0  0  0  0  0  0
  189.9120  176.8110  138.8710 C   0  0  0  0  0  0  0  0  0  0  0  0
  189.0660  177.8340  139.5450 C   0  0  0  0  0  2  0  0  0  0  0  0
  189.3240  177.8120  140.9760 N   0  0  0  0  0  2  0  0  0  0  0  0
  187.8280  178.3060  141.7750 S   0  0  0  0  0  0  0  0  0  0  0  0
  191.2060  177.6910  145.1970 C   0  0  0  0  0  2  0  0  0  0  0  0
  189.8060  177.9150  144.6100 C   0  0  2  0  0  3  0  0  0  0  0  0
  187.4570  177.7300  145.3450 C   0  0  0  0  0  0  0  0  0  0  0  0
  191.6190  176.2220  145.1470 C   0  0  0  0  0  2  0  0  0  0  0  0
  190.1860  175.9200  143.1490 C   0  0  0  0  0  3  0  0  0  0  0  0
  187.9870  177.0230  143.0570 C   0  0  1  0  0  3  0  0  0  0  0  0
  191.5690  175.7480  143.6990 C   0  0  0  0  0  2  0  0  0  0  0  0
  188.8200  177.9030  145.6380 O   0  0  0  0  0  0  0  0  0  0  0  0
  189.4050  176.9430  143.5280 C   0  0  0  0  0  0  0  0  0  0  0  0
  187.0760  177.3120  144.1710 N   0  0  0  0  0  0  0  0  0  0  0  0
  187.0690  178.2850  147.7380 C   0  0  0  0  0  1  0  0  0  0  0  0
  186.4210  177.9690  146.3990 C   0  0  1  0  0  3  0  0  0  0  0  0
  184.3210  179.5320  143.8790 C   0  0  0  0  0  2  0  0  0  0  0  0
  185.3590  179.0120  146.0240 C   0  0  0  0  0  3  0  0  0  0  0  0
  183.2480  179.1520  144.8750 C   0  0  0  0  0  2  0  0  0  0  0  0
  185.6030  179.6810  144.6750 C   0  0  0  0  0  2  0  0  0  0  0  0
  183.9640  178.4140  145.9820 C   0  0  0  0  0  2  0  0  0  0  0  0
  191.0140  175.8120  135.8500 C   0  0  0  0  0  2  0  0  0  0  0  0
  192.5470  174.0550  135.3700 O   0  0  0  0  0  0  0  0  0  0  0  0
  192.3870  175.2360  135.7730 C   0  0  0  0  0  0  0  0  0  0  0  0
  193.4790  176.0150  136.1510 O   0  0  0  0  0  0  0  0  0  0  0  0
  194.4130  176.5110  135.2040 C   0  0  0  0  0  2  0  0  0  0  0  0
  195.7480  175.8210  135.4000 C   0  0  0  0  0  2  0  0  0  0  0  0
  197.0840  173.7620  137.8620 C   0  0  0  0  0  2  0  0  0  0  0  0
  196.7210  175.0290  137.4220 O   0  0  0  0  0  0  0  0  0  0  0  0
  196.5510  172.7780  136.8550 C   0  0  1  0  0  0  0  0  0  0  0  0
  195.6630  174.8080  136.5280 C   0  0  2  0  0  3  0  0  0  0  0  0
  195.7150  173.5040  135.9990 O   0  0  0  0  0  0  0  0  0  0  0  0
  197.3830  172.1790  134.6700 O   0  0  0  0  0  1  0  0  0  0  0  0
  197.6930  172.1500  136.0320 C   0  0  1  0  0  3  0  0  0  0  0  0
  199.0320  172.8470  136.2650 C   0  0  0  0  0  2  0  0  0  0  0  0
  199.2890  173.8610  135.1700 C   0  0  0  0  0  1  0  0  0  0  0  0
  195.6570  171.7670  138.8360 O   0  0  0  0  0  0  0  0  0  0  0  0
  195.7520  171.7110  137.5820 C   0  0  0  0  0  0  0  0  0  0  0  0
  195.1300  170.6400  136.9230 O   0  0  0  0  0  0  0  0  0  0  0  0
  195.2040  169.2840  137.3480 C   0  0  0  0  0  2  0  0  0  0  0  0
  194.7400  168.4430  136.3350 O   0  0  0  0  0  0  0  0  0  0  0  0
  195.8050  168.3540  135.4400 C   0  0  0  0  0  1  0  0  0  0  0  0
  189.2320  174.1410  136.3810 C   0  0  0  0  0  2  0  0  0  0  0  0
  187.8490  176.0140  135.6450 C   0  0  0  0  0  2  0  0  0  0  0  0
  185.4580  175.3870  135.6060 C   0  0  2  0  0  3  0  0  0  0  0  0
  186.2040  177.5950  135.0000 O   0  0  0  0  0  0  0  0  0  0  0  0
  187.9280  174.7310  135.9390 C   0  0  2  0  0  3  0  0  0  0  0  0
  186.3780  173.8160  135.8290 S   0  0  0  0  0  0  0  0  0  0  0  0
  186.4900  176.4280  135.3690 C   0  0  0  0  0  0  0  0  0  0  0  0
  184.3920  176.9520  137.2600 C   0  0  0  0  0  3  0  0  0  0  0  0
  183.5340  176.7380  138.3240 C   0  0  0  0  0  0  0  0  0  0  0  0
  184.6800  175.7180  136.7970 N   0  0  0  0  0  0  0  0  0  0  0  0
  184.0300  174.8200  137.5180 N   0  0  0  0  0  0  0  0  0  0  0  0
  183.3290  175.4140  138.4700 N   0  0  0  0  0  0  0  0  0  0  0  0
  183.5570  177.6960  140.6100 C   0  0  0  0  0  2  0  0  0  0  0  0
  182.9470  177.7780  139.2240 C   0  0  0  0  0  3  0  0  0  0  0  0
  184.0310  178.7530  139.6390 C   0  0  0  0  0  2  0  0  0  0  0  0
  1 25  1  6  0  0  0
  1  3  1  0  0  0  0
  3  4  1  0  0  0  0
  4  2  2  0  0  0  0
  4  5  1  0  0  0  0
  5  6  1  0  0  0  0
  6  7  1  0  0  0  0
  9  8  1  1  0  0  0
  9 15  1  0  0  0  0
 10 15  1  0  0  0  0
 10 19  1  0  0  0  0
 11  8  1  0  0  0  0
 12 16  2  0  0  0  0
 12 14  1  0  0  0  0
 13  7  1  6  0  0  0
 13 16  1  0  0  0  0
 13 17  1  0  0  0  0
 14 11  1  0  0  0  0
 16  9  1  0  0  0  0
 17 10  2  0  0  0  0
 19 18  1  1  0  0  0
 20 23  1  0  0  0  0
 20 22  1  0  0  0  0
 21 19  1  0  0  0  0
 22 24  1  0  0  0  0
 23 21  1  0  0  0  0
 24 21  1  0  0  0  0
 26 27  2  0  0  0  0
 27 25  1  0  0  0  0
 27 28  1  0  0  0  0
 29 30  1  0  0  0  0
 29 28  1  0  0  0  0
 32 31  1  0  0  0  0
 33 41  1  1  0  0  0
 33 31  1  0  0  0  0
 34 30  1  6  0  0  0
 34 32  1  0  0  0  0
 35 34  1  0  0  0  0
 35 33  1  0  0  0  0
 37 36  1  6  0  0  0
 37 38  1  0  0  0  0
 37 33  1  0  0  0  0
 39 38  1  0  0  0  0
 41 40  2  0  0  0  0
 42 43  1  0  0  0  0
 42 41  1  0  0  0  0
 44 43  1  0  0  0  0
 45 44  1  0  0  0  0
 46  1  1  0  0  0  0
 47 50  1  0  0  0  0
 48 51  1  0  0  0  0
 48 55  1  1  0  0  0
 49 52  2  0  0  0  0
 50 46  1  1  0  0  0
 51 50  1  0  0  0  0
 52 48  1  0  0  0  0
 52 47  1  0  0  0  0
 53 54  2  0  0  0  0
 54 57  1  0  0  0  0
 54 59  1  0  0  0  0
 55 53  1  0  0  0  0
 55 56  1  0  0  0  0
 56 57  2  0  0  0  0
 59 60  1  0  0  0  0
 59 58  1  0  0  0  0
 60 58  1  0  0  0  0
M  END
>  <MODEL>
8

>  <REMARK>
 VINA RESULT:      -5.6      2.427      4.650
  Name = 
  23 active torsions:
  status: ('A' for Active; 'I' for Inactive)
    1  A    between atoms: C_1  and  C_31
    2  A    between atoms: C_1  and  N_52
    3  A    between atoms: C_1  and  C_56
    4  A    between atoms: O_3  and  C_39
    5  A    between atoms: N_4  and  C_32
    6  A    between atoms: N_4  and  S_54
    7  A    between atoms: C_9  and  N_16
    8  A    between atoms: O_11  and  C_39
    9  A    between atoms: O_11  and  C_57
   10  A    between atoms: C_14  and  C_33
   11  A    between atoms: C_17  and  C_18
   12  A    between atoms: C_18  and  C_24
   13  A    between atoms: C_19  and  O_30
   14  A    between atoms: C_19  and  C_31
   15  A    between atoms: C_22  and  C_55
   16  A    between atoms: C_22  and  C_57
   17  A    between atoms: C_23  and  C_55
   18  A    between atoms: C_29  and  S_54
   19  A    between atoms: O_30  and  C_41
   20  A    between atoms: C_32  and  C_53
   21  A    between atoms: C_41  and  C_58
   22  A    between atoms: C_42  and  C_58
   23  A    between atoms: C_45  and  C_56
                            x       y       z     vdW  Elec       q    Type
                         _______ _______ _______ _____ _____    ______ ____

>  <TORSDO>
F 23

$$$$
=
 OpenBabel10232409223D

 60 66  0  0  1  0  0  0  0  0999 V2000
  190.7550  177.2330  139.0650 C   0  0  2  0  0  3  0  0  0  0  0  0
  189.3630  177.5250  136.5780 O   0  0  0  0  0  0  0  0  0  0  0  0
  189.4000  176.7720  138.7910 N   0  0  0  0  0  2  0  0  0  0  0  0
  188.7550  176.9680  137.5310 C   0  0  0  0  0  0  0  0  0  0  0  0
  187.3570  176.4900  137.3420 C   0  0  0  0  0  2  0  0  0  0  0  0
  186.5440  177.5670  136.8010 N   0  0  0  0  0  2  0  0  0  0  0  0
  185.1210  176.8190  136.0700 S   0  0  0  0  0  0  0  0  0  0  0  0
  180.8660  175.4890  137.9740 C   0  0  0  0  0  2  0  0  0  0  0  0
  182.2640  175.3140  137.3650 C   0  0  2  0  0  3  0  0  0  0  0  0
  183.9850  173.5550  137.1950 C   0  0  0  0  0  0  0  0  0  0  0  0
  180.9280  175.8220  139.4620 C   0  0  0  0  0  2  0  0  0  0  0  0
  183.1280  176.9000  139.0970 C   0  0  0  0  0  3  0  0  0  0  0  0
  184.7500  175.8550  137.5690 C   0  0  1  0  0  3  0  0  0  0  0  0
  181.7460  177.0940  139.6460 C   0  0  0  0  0  2  0  0  0  0  0  0
  182.6450  173.9430  137.3610 O   0  0  0  0  0  0  0  0  0  0  0  0
  183.3510  176.1300  138.0220 C   0  0  0  0  0  0  0  0  0  0  0  0
  184.9500  174.4240  137.3070 N   0  0  0  0  0  0  0  0  0  0  0  0
  183.0860  171.2480  136.9600 C   0  0  0  0  0  1  0  0  0  0  0  0
  184.3310  172.1190  136.9440 C   0  0  1  0  0  3  0  0  0  0  0  0
  187.2480  170.6340  135.3660 C   0  0  0  0  0  2  0  0  0  0  0  0
  185.1750  171.8780  135.6840 C   0  0  0  0  0  3  0  0  0  0  0  0
  186.1770  170.0600  134.4650 C   0  0  0  0  0  2  0  0  0  0  0  0
  186.6790  171.9190  135.9330 C   0  0  0  0  0  2  0  0  0  0  0  0
  184.8640  170.5390  135.0400 C   0  0  0  0  0  2  0  0  0  0  0  0
  191.7450  176.1290  138.7130 C   0  0  0  0  0  2  0  0  0  0  0  0
  193.6460  177.2810  137.8600 O   0  0  0  0  0  0  0  0  0  0  0  0
  192.6580  176.5440  137.6090 C   0  0  0  0  0  0  0  0  0  0  0  0
  192.4020  176.1120  136.3090 O   0  0  0  0  0  0  0  0  0  0  0  0
  193.4470  175.8410  135.3880 C   0  0  0  0  0  2  0  0  0  0  0  0
  193.0340  174.7070  134.4720 C   0  0  0  0  0  2  0  0  0  0  0  0
  194.0150  171.6830  135.8760 C   0  0  0  0  0  2  0  0  0  0  0  0
  193.2050  172.3930  134.9990 O   0  0  0  0  0  0  0  0  0  0  0  0
  195.0490  172.6450  136.3970 C   0  0  1  0  0  0  0  0  0  0  0  0
  193.9630  173.5190  134.6430 C   0  0  2  0  0  3  0  0  0  0  0  0
  194.9260  173.8090  135.6290 O   0  0  0  0  0  0  0  0  0  0  0  0
  195.4200  172.0540  138.7070 O   0  0  0  0  0  1  0  0  0  0  0  0
  194.7930  172.9880  137.8780 C   0  0  1  0  0  3  0  0  0  0  0  0
  195.2660  174.3930  138.2410 C   0  0  0  0  0  2  0  0  0  0  0  0
  196.3840  174.3180  139.2620 C   0  0  0  0  0  1  0  0  0  0  0  0
  196.5330  170.7950  136.0500 O   0  0  0  0  0  0  0  0  0  0  0  0
  196.4280  172.0400  136.2070 C   0  0  0  0  0  0  0  0  0  0  0  0
  197.6070  172.8000  136.2250 O   0  0  0  0  0  0  0  0  0  0  0  0
  198.7820  172.4460  136.9450 C   0  0  0  0  0  2  0  0  0  0  0  0
  199.5840  173.5720  137.1280 O   0  0  0  0  0  0  0  0  0  0  0  0
  199.3330  174.3670  136.0110 C   0  0  0  0  0  1  0  0  0  0  0  0
  190.8750  177.5940  140.5420 C   0  0  0  0  0  2  0  0  0  0  0  0
  188.5580  177.9610  141.2210 C   0  0  0  0  0  2  0  0  0  0  0  0
  187.9720  176.5520  143.1660 C   0  0  2  0  0  3  0  0  0  0  0  0
  186.3880  178.0690  142.1710 O   0  0  0  0  0  0  0  0  0  0  0  0
  189.6590  177.2470  141.3460 C   0  0  2  0  0  3  0  0  0  0  0  0
  189.5880  175.9220  142.5680 S   0  0  0  0  0  0  0  0  0  0  0  0
  187.5390  177.5630  142.1680 C   0  0  0  0  0  0  0  0  0  0  0  0
  187.1050  177.4810  145.3360 C   0  0  0  0  0  3  0  0  0  0  0  0
  187.7430  177.9260  146.4790 C   0  0  0  0  0  0  0  0  0  0  0  0
  188.1020  177.1760  144.4820 N   0  0  0  0  0  0  0  0  0  0  0  0
  189.2650  177.4020  145.0700 N   0  0  0  0  0  0  0  0  0  0  0  0
  189.0770  177.8760  146.2920 N   0  0  0  0  0  0  0  0  0  0  0  0
  186.4930  179.8110  147.4950 C   0  0  0  0  0  2  0  0  0  0  0  0
  187.0950  178.4380  147.7250 C   0  0  0  0  0  3  0  0  0  0  0  0
  185.6040  178.5890  147.4910 C   0  0  0  0  0  2  0  0  0  0  0  0
  1 25  1  1  0  0  0
  1 46  1  0  0  0  0
  2  4  2  0  0  0  0
  3  1  1  0  0  0  0
  4  3  1  0  0  0  0
  5  4  1  0  0  0  0
  6  5  1  0  0  0  0
  7  6  1  0  0  0  0
  8 11  1  0  0  0  0
  9  8  1  1  0  0  0
  9 16  1  0  0  0  0
 10 17  2  0  0  0  0
 10 15  1  0  0  0  0
 11 14  1  0  0  0  0
 12 14  1  0  0  0  0
 13  7  1  6  0  0  0
 13 16  1  0  0  0  0
 15  9  1  0  0  0  0
 16 12  2  0  0  0  0
 17 13  1  0  0  0  0
 19 18  1  6  0  0  0
 19 10  1  0  0  0  0
 20 23  1  0  0  0  0
 21 23  1  0  0  0  0
 21 19  1  0  0  0  0
 22 24  1  0  0  0  0
 22 20  1  0  0  0  0
 24 21  1  0  0  0  0
 27 26  2  0  0  0  0
 27 25  1  0  0  0  0
 28 27  1  0  0  0  0
 29 28  1  0  0  0  0
 30 29  1  0  0  0  0
 31 33  1  0  0  0  0
 32 31  1  0  0  0  0
 33 41  1  6  0  0  0
 33 37  1  0  0  0  0
 34 30  1  1  0  0  0
 34 32  1  0  0  0  0
 34 35  1  0  0  0  0
 35 33  1  0  0  0  0
 37 38  1  0  0  0  0
 37 36  1  1  0  0  0
 38 39  1  0  0  0  0
 40 41  2  0  0  0  0
 41 42  1  0  0  0  0
 42 43  1  0  0  0  0
 43 44  1  0  0  0  0
 45 44  1  0  0  0  0
 47 50  1  0  0  0  0
 47 52  1  0  0  0  0
 48 55  1  1  0  0  0
 50 46  1  1  0  0  0
 50 51  1  0  0  0  0
 51 48  1  0  0  0  0
 52 49  2  0  0  0  0
 52 48  1  0  0  0  0
 53 54  2  0  0  0  0
 54 59  1  0  0  0  0
 55 56  1  0  0  0  0
 55 53  1  0  0  0  0
 56 57  2  0  0  0  0
 57 54  1  0  0  0  0
 58 59  1  0  0  0  0
 60 58  1  0  0  0  0
 60 59  1  0  0  0  0
M  END
>  <MODEL>
9

>  <REMARK>
 VINA RESULT:      -5.5      2.414      8.340
  Name = 
  23 active torsions:
  status: ('A' for Active; 'I' for Inactive)
    1  A    between atoms: C_1  and  C_31
    2  A    between atoms: C_1  and  N_52
    3  A    between atoms: C_1  and  C_56
    4  A    between atoms: O_3  and  C_39
    5  A    between atoms: N_4  and  C_32
    6  A    between atoms: N_4  and  S_54
    7  A    between atoms: C_9  and  N_16
    8  A    between atoms: O_11  and  C_39
    9  A    between atoms: O_11  and  C_57
   10  A    between atoms: C_14  and  C_33
   11  A    between atoms: C_17  and  C_18
   12  A    between atoms: C_18  and  C_24
   13  A    between atoms: C_19  and  O_30
   14  A    between atoms: C_19  and  C_31
   15  A    between atoms: C_22  and  C_55
   16  A    between atoms: C_22  and  C_57
   17  A    between atoms: C_23  and  C_55
   18  A    between atoms: C_29  and  S_54
   19  A    between atoms: O_30  and  C_41
   20  A    between atoms: C_32  and  C_53
   21  A    between atoms: C_41  and  C_58
   22  A    between atoms: C_42  and  C_58
   23  A    between atoms: C_45  and  C_56
                            x       y       z     vdW  Elec       q    Type
                         _______ _______ _______ _____ _____    ______ ____

>  <TORSDO>
F 23

$$$$
