=
 OpenBabel10232408513D

 25 28  0  0  1  0  0  0  0  0999 V2000
  186.3710  177.8490  146.7030 C   0  0  0  0  0  3  0  0  0  0  0  0
  183.6000  178.6690  142.1100 C   0  0  0  0  0  0  0  0  0  0  0  0
  187.0430  177.3540  145.6760 C   0  0  0  0  0  3  0  0  0  0  0  0
  182.6080  178.7890  141.2140 N   0  0  0  0  0  0  0  0  0  0  0  0
  185.5860  179.0860  146.5610 C   0  0  0  0  0  2  0  0  0  0  0  0
  184.6350  178.8040  140.1630 N   0  0  0  0  0  2  0  0  0  0  0  0
  185.9630  178.3750  143.6210 C   0  0  0  0  0  0  0  0  0  0  0  0
  183.2870  178.8610  140.0440 C   0  0  0  0  0  0  0  0  0  0  0  0
  182.6360  178.9970  138.7880 N   0  0  0  0  0  1  0  0  0  0  0  0
  182.1910  178.7290  144.0880 N   0  0  0  0  0  1  0  0  0  0  0  0
  187.2560  178.6350  141.3630 C   0  0  0  0  0  1  0  0  0  0  0  0
  184.8030  178.6830  141.4920 C   0  0  0  0  0  0  0  0  0  0  0  0
  184.6710  178.5780  144.2670 C   0  0  0  0  0  0  0  0  0  0  0  0
  184.5060  178.8620  145.5700 C   0  0  0  0  0  2  0  0  0  0  0  0
  187.0760  177.9130  144.2990 C   0  0  2  0  0  3  0  0  0  0  0  0
  183.4840  178.6250  143.4870 C   0  0  0  0  0  0  0  0  0  0  0  0
  186.0050  178.5640  142.1870 C   0  0  0  0  0  0  0  0  0  0  0  0
  188.3230  177.7320  143.6100 N   0  0  0  0  0  2  0  0  0  0  0  0
  190.6730  177.7050  144.3320 C   0  0  0  0  0  2  0  0  0  0  0  0
  189.6930  175.7870  143.0330 C   0  0  0  0  0  2  0  0  0  0  0  0
  190.3520  176.3860  141.7910 C   0  0  0  0  0  2  0  0  0  0  0  0
  191.2760  178.1930  143.0150 C   0  0  0  0  0  2  0  0  0  0  0  0
  189.4120  176.8750  144.0690 C   0  0  0  0  0  3  0  0  0  0  0  0
  192.1590  177.5960  140.9360 C   0  0  0  0  0  1  0  0  0  0  0  0
  191.5990  177.0530  142.1600 N   0  0  0  0  0  0  0  0  0  0  0  0
  2 16  1  0  0  0  0
  3  1  2  0  0  0  0
  4  2  1  0  0  0  0
  5  1  1  0  0  0  0
  6 12  1  0  0  0  0
  7 13  1  0  0  0  0
  7 15  1  0  0  0  0
  8  6  1  0  0  0  0
  8  4  2  0  0  0  0
  9  8  1  0  0  0  0
 11 17  1  0  0  0  0
 12  2  2  0  0  0  0
 12 17  1  0  0  0  0
 13 14  1  0  0  0  0
 14  5  1  0  0  0  0
 15 18  1  6  0  0  0
 15  3  1  0  0  0  0
 16 10  1  0  0  0  0
 16 13  2  0  0  0  0
 17  7  2  0  0  0  0
 18 23  1  0  0  0  0
 20 23  1  0  0  0  0
 21 25  1  0  0  0  0
 21 20  1  0  0  0  0
 22 19  1  0  0  0  0
 23 19  1  0  0  0  0
 24 25  1  0  0  0  0
 25 22  1  0  0  0  0
M  END
>  <MODEL>
1

>  <REMARK>
 VINA RESULT:      -9.4      0.000      0.000
  Name = 
  2 active torsions:
  status: ('A' for Active; 'I' for Inactive)
    1  A    between atoms: C_18  and  N_21
    2  A    between atoms: N_21  and  C_23
                            x       y       z     vdW  Elec       q    Type
                         _______ _______ _______ _____ _____    ______ ____

>  <TORSDO>
F 2

$$$$
=
 OpenBabel10232408513D

 25 28  0  0  1  0  0  0  0  0999 V2000
  185.6440  178.7100  142.5100 C   0  0  0  0  0  3  0  0  0  0  0  0
  189.3730  177.3530  146.2110 C   0  0  0  0  0  0  0  0  0  0  0  0
  186.8330  178.6140  141.9380 C   0  0  0  0  0  3  0  0  0  0  0  0
  190.0760  177.2640  147.3510 N   0  0  0  0  0  0  0  0  0  0  0  0
  185.2600  177.7990  143.6020 C   0  0  0  0  0  2  0  0  0  0  0  0
  191.2180  176.2850  145.6310 N   0  0  0  0  0  2  0  0  0  0  0  0
  188.2780  177.3720  143.6120 C   0  0  0  0  0  0  0  0  0  0  0  0
  191.1930  176.6120  146.9460 C   0  0  0  0  0  0  0  0  0  0  0  0
  192.2550  176.2870  147.8350 N   0  0  0  0  0  1  0  0  0  0  0  0
  187.3970  178.3720  147.1890 N   0  0  0  0  0  1  0  0  0  0  0  0
  190.3880  176.0130  142.8800 C   0  0  0  0  0  1  0  0  0  0  0  0
  190.0430  176.7700  145.1920 C   0  0  0  0  0  0  0  0  0  0  0  0
  187.4950  177.7980  144.7680 C   0  0  0  0  0  0  0  0  0  0  0  0
  186.1690  178.0150  144.7530 C   0  0  0  0  0  2  0  0  0  0  0  0
  187.9110  177.6600  142.3100 C   0  0  2  0  0  3  0  0  0  0  0  0
  188.1010  177.8720  146.0500 C   0  0  0  0  0  0  0  0  0  0  0  0
  189.5430  176.7280  143.8910 C   0  0  0  0  0  0  0  0  0  0  0  0
  188.7210  177.2140  141.2120 N   0  0  0  0  0  2  0  0  0  0  0  0
  188.2450  177.9880  138.9270 C   0  0  0  0  0  2  0  0  0  0  0  0
  190.6100  177.6550  139.7180 C   0  0  0  0  0  2  0  0  0  0  0  0
  190.5870  176.3110  138.9890 C   0  0  0  0  0  2  0  0  0  0  0  0
  188.3590  176.6250  138.2440 C   0  0  0  0  0  2  0  0  0  0  0  0
  189.1950  178.0670  140.1260 C   0  0  0  0  0  3  0  0  0  0  0  0
  189.7610  175.0930  137.1740 C   0  0  0  0  0  1  0  0  0  0  0  0
  189.7340  176.4000  137.8060 N   0  0  0  0  0  0  0  0  0  0  0  0
  1  5  1  0  0  0  0
  2  4  1  0  0  0  0
  3 15  1  0  0  0  0
  3  1  2  0  0  0  0
  5 14  1  0  0  0  0
  6  8  1  0  0  0  0
  7 17  2  0  0  0  0
  7 13  1  0  0  0  0
  8  4  2  0  0  0  0
  8  9  1  0  0  0  0
 11 17  1  0  0  0  0
 12  6  1  0  0  0  0
 12  2  2  0  0  0  0
 13 16  2  0  0  0  0
 14 13  1  0  0  0  0
 15 18  1  6  0  0  0
 15  7  1  0  0  0  0
 16  2  1  0  0  0  0
 16 10  1  0  0  0  0
 17 12  1  0  0  0  0
 19 23  1  0  0  0  0
 20 23  1  0  0  0  0
 21 20  1  0  0  0  0
 22 19  1  0  0  0  0
 23 18  1  0  0  0  0
 24 25  1  0  0  0  0
 25 22  1  0  0  0  0
 25 21  1  0  0  0  0
M  END
>  <MODEL>
2

>  <REMARK>
 VINA RESULT:      -8.9      2.901      6.018
  Name = 
  2 active torsions:
  status: ('A' for Active; 'I' for Inactive)
    1  A    between atoms: C_18  and  N_21
    2  A    between atoms: N_21  and  C_23
                            x       y       z     vdW  Elec       q    Type
                         _______ _______ _______ _____ _____    ______ ____

>  <TORSDO>
F 2

$$$$
=
 OpenBabel10232408513D

 25 28  0  0  1  0  0  0  0  0999 V2000
  184.7010  178.8950  140.8310 C   0  0  0  0  0  3  0  0  0  0  0  0
  186.4360  178.2500  145.9310 C   0  0  0  0  0  0  0  0  0  0  0  0
  186.0230  178.8630  140.8560 C   0  0  0  0  0  3  0  0  0  0  0  0
  186.5590  178.3330  147.2650 N   0  0  0  0  0  0  0  0  0  0  0  0
  183.9110  178.0540  141.7470 C   0  0  0  0  0  2  0  0  0  0  0  0
  188.3940  177.3180  146.3600 N   0  0  0  0  0  2  0  0  0  0  0  0
  186.6210  177.9250  143.1360 C   0  0  0  0  0  0  0  0  0  0  0  0
  187.7680  177.7590  147.4770 C   0  0  0  0  0  0  0  0  0  0  0  0
  188.3330  177.6220  148.7750 N   0  0  0  0  0  1  0  0  0  0  0  0
  184.1870  179.1560  145.8060 N   0  0  0  0  0  1  0  0  0  0  0  0
  188.8970  176.7170  143.5810 C   0  0  0  0  0  1  0  0  0  0  0  0
  187.5190  177.6440  145.3920 C   0  0  0  0  0  0  0  0  0  0  0  0
  185.3850  178.3770  143.7670 C   0  0  0  0  0  0  0  0  0  0  0  0
  184.1980  178.4610  143.1440 C   0  0  0  0  0  2  0  0  0  0  0  0
  186.8630  178.0570  141.7800 C   0  0  2  0  0  3  0  0  0  0  0  0
  185.3490  178.6250  145.1650 C   0  0  0  0  0  0  0  0  0  0  0  0
  187.6560  177.4350  144.0200 C   0  0  0  0  0  0  0  0  0  0  0  0
  188.0990  177.5940  141.2150 N   0  0  0  0  0  2  0  0  0  0  0  0
  188.4100  178.3200  138.8870 C   0  0  0  0  0  2  0  0  0  0  0  0
  190.3840  177.8470  140.3730 C   0  0  0  0  0  2  0  0  0  0  0  0
  190.4810  176.4840  139.6880 C   0  0  0  0  0  2  0  0  0  0  0  0
  188.6210  176.9300  138.2870 C   0  0  0  0  0  2  0  0  0  0  0  0
  188.9490  178.3730  140.3200 C   0  0  0  0  0  3  0  0  0  0  0  0
  190.1600  175.2660  137.7200 C   0  0  0  0  0  1  0  0  0  0  0  0
  190.0420  176.5920  138.2980 N   0  0  0  0  0  0  0  0  0  0  0  0
  1  3  2  0  0  0  0
  1  5  1  0  0  0  0
  2  4  1  0  0  0  0
  3 15  1  0  0  0  0
  4  8  2  0  0  0  0
  5 14  1  0  0  0  0
  6  8  1  0  0  0  0
  7 13  2  0  0  0  0
  7 17  1  0  0  0  0
  8  9  1  0  0  0  0
 11 17  1  0  0  0  0
 12  2  1  0  0  0  0
 12  6  1  0  0  0  0
 13 16  1  0  0  0  0
 14 13  1  0  0  0  0
 15 18  1  1  0  0  0
 15  7  1  0  0  0  0
 16 10  1  0  0  0  0
 16  2  2  0  0  0  0
 17 12  2  0  0  0  0
 19 23  1  0  0  0  0
 21 20  1  0  0  0  0
 22 25  1  0  0  0  0
 22 19  1  0  0  0  0
 23 20  1  0  0  0  0
 23 18  1  0  0  0  0
 24 25  1  0  0  0  0
 25 21  1  0  0  0  0
M  END
>  <MODEL>
3

>  <REMARK>
 VINA RESULT:      -8.8      2.406      5.078
  Name = 
  2 active torsions:
  status: ('A' for Active; 'I' for Inactive)
    1  A    between atoms: C_18  and  N_21
    2  A    between atoms: N_21  and  C_23
                            x       y       z     vdW  Elec       q    Type
                         _______ _______ _______ _____ _____    ______ ____

>  <TORSDO>
F 2

$$$$
=
 OpenBabel10232408513D

 25 28  0  0  1  0  0  0  0  0999 V2000
  191.4420  176.1360  143.7200 C   0  0  0  0  0  3  0  0  0  0  0  0
  186.5790  177.9470  145.3090 C   0  0  0  0  0  0  0  0  0  0  0  0
  190.5660  175.9970  142.7380 C   0  0  0  0  0  3  0  0  0  0  0  0
  185.4910  178.2250  146.0430 N   0  0  0  0  0  0  0  0  0  0  0  0
  191.3790  177.2960  144.6250 C   0  0  0  0  0  2  0  0  0  0  0  0
  185.1060  178.6930  143.8410 N   0  0  0  0  0  2  0  0  0  0  0  0
  188.5930  177.4480  143.3980 C   0  0  0  0  0  0  0  0  0  0  0  0
  184.6200  178.6700  145.1050 C   0  0  0  0  0  0  0  0  0  0  0  0
  183.2990  179.0890  145.4250 N   0  0  0  0  0  1  0  0  0  0  0  0
  188.0200  177.3480  147.1700 N   0  0  0  0  0  1  0  0  0  0  0  0
  186.9350  178.4190  141.6240 C   0  0  0  0  0  1  0  0  0  0  0  0
  186.3570  178.2280  144.0050 C   0  0  0  0  0  0  0  0  0  0  0  0
  188.8660  177.3590  144.8280 C   0  0  0  0  0  0  0  0  0  0  0  0
  190.0940  177.2620  145.3650 C   0  0  0  0  0  2  0  0  0  0  0  0
  189.4330  176.9110  142.4390 C   0  0  2  0  0  3  0  0  0  0  0  0
  187.8120  177.5200  145.7660 C   0  0  0  0  0  0  0  0  0  0  0  0
  187.3210  178.0240  143.0180 C   0  0  0  0  0  0  0  0  0  0  0  0
  189.1110  177.0290  141.0450 N   0  0  0  0  0  2  0  0  0  0  0  0
  189.1290  178.5610  139.1210 C   0  0  0  0  0  2  0  0  0  0  0  0
  190.7010  176.6000  139.2330 C   0  0  0  0  0  2  0  0  0  0  0  0
  189.7330  175.8640  138.3070 C   0  0  0  0  0  2  0  0  0  0  0  0
  188.2520  177.7110  138.2010 C   0  0  0  0  0  2  0  0  0  0  0  0
  189.9620  177.6660  140.0440 C   0  0  0  0  0  3  0  0  0  0  0  0
  188.1860  176.0450  136.5660 C   0  0  0  0  0  1  0  0  0  0  0  0
  189.0860  176.8140  137.4050 N   0  0  0  0  0  0  0  0  0  0  0  0
  1  5  1  0  0  0  0
  2 16  1  0  0  0  0
  2  4  1  0  0  0  0
  3  1  2  0  0  0  0
  5 14  1  0  0  0  0
  6 12  1  0  0  0  0
  6  8  1  0  0  0  0
  7 13  1  0  0  0  0
  8  9  1  0  0  0  0
  8  4  2  0  0  0  0
 11 17  1  0  0  0  0
 12  2  2  0  0  0  0
 13 14  1  0  0  0  0
 13 16  2  0  0  0  0
 15 18  1  6  0  0  0
 15  3  1  0  0  0  0
 15  7  1  0  0  0  0
 16 10  1  0  0  0  0
 17  7  2  0  0  0  0
 17 12  1  0  0  0  0
 19 23  1  0  0  0  0
 20 23  1  0  0  0  0
 21 20  1  0  0  0  0
 22 19  1  0  0  0  0
 23 18  1  0  0  0  0
 24 25  1  0  0  0  0
 25 22  1  0  0  0  0
 25 21  1  0  0  0  0
M  END
>  <MODEL>
4

>  <REMARK>
 VINA RESULT:      -8.7      2.565      4.794
  Name = 
  2 active torsions:
  status: ('A' for Active; 'I' for Inactive)
    1  A    between atoms: C_18  and  N_21
    2  A    between atoms: N_21  and  C_23
                            x       y       z     vdW  Elec       q    Type
                         _______ _______ _______ _____ _____    ______ ____

>  <TORSDO>
F 2

$$$$
=
 OpenBabel10232408513D

 25 28  0  0  1  0  0  0  0  0999 V2000
  186.5530  177.5560  146.4210 C   0  0  0  0  0  3  0  0  0  0  0  0
  184.1300  178.7880  141.7250 C   0  0  0  0  0  0  0  0  0  0  0  0
  187.2260  177.0250  145.4140 C   0  0  0  0  0  3  0  0  0  0  0  0
  183.2050  179.0360  140.7840 N   0  0  0  0  0  0  0  0  0  0  0  0
  185.9040  178.8710  146.2820 C   0  0  0  0  0  2  0  0  0  0  0  0
  185.2780  178.8740  139.8380 N   0  0  0  0  0  2  0  0  0  0  0  0
  186.3670  178.2110  143.3430 C   0  0  0  0  0  0  0  0  0  0  0  0
  183.9510  179.0720  139.6530 C   0  0  0  0  0  0  0  0  0  0  0  0
  183.3850  179.3100  138.3710 N   0  0  0  0  0  1  0  0  0  0  0  0
  182.6300  178.9340  143.6290 N   0  0  0  0  0  1  0  0  0  0  0  0
  187.7990  178.4030  141.1630 C   0  0  0  0  0  1  0  0  0  0  0  0
  185.3600  178.6980  141.1690 C   0  0  0  0  0  0  0  0  0  0  0  0
  185.0680  178.5260  143.9290 C   0  0  0  0  0  0  0  0  0  0  0  0
  184.8620  178.7870  145.2310 C   0  0  0  0  0  2  0  0  0  0  0  0
  187.3900  177.6180  144.0600 C   0  0  2  0  0  3  0  0  0  0  0  0
  183.9370  178.7170  143.0920 C   0  0  0  0  0  0  0  0  0  0  0  0
  186.5050  178.4370  141.9200 C   0  0  0  0  0  0  0  0  0  0  0  0
  188.6470  177.3310  143.4300 N   0  0  0  0  0  2  0  0  0  0  0  0
  191.0780  177.3780  143.0620 C   0  0  0  0  0  2  0  0  0  0  0  0
  190.0380  178.5720  145.0170 C   0  0  0  0  0  2  0  0  0  0  0  0
  190.4530  177.3770  145.8740 C   0  0  0  0  0  2  0  0  0  0  0  0
  191.4330  176.2520  144.0330 C   0  0  0  0  0  2  0  0  0  0  0  0
  189.8500  178.1480  143.5600 C   0  0  0  0  0  3  0  0  0  0  0  0
  192.0180  175.6770  146.2200 C   0  0  0  0  0  1  0  0  0  0  0  0
  191.6940  176.8010  145.3610 N   0  0  0  0  0  0  0  0  0  0  0  0
  2 16  1  0  0  0  0
  3  1  2  0  0  0  0
  4  2  1  0  0  0  0
  5  1  1  0  0  0  0
  6 12  1  0  0  0  0
  7 13  1  0  0  0  0
  7 15  1  0  0  0  0
  8  6  1  0  0  0  0
  8  4  2  0  0  0  0
  9  8  1  0  0  0  0
 11 17  1  0  0  0  0
 12  2  2  0  0  0  0
 12 17  1  0  0  0  0
 13 14  1  0  0  0  0
 14  5  1  0  0  0  0
 15 18  1  6  0  0  0
 15  3  1  0  0  0  0
 16 10  1  0  0  0  0
 16 13  2  0  0  0  0
 17  7  2  0  0  0  0
 18 23  1  0  0  0  0
 19 23  1  0  0  0  0
 19 22  1  0  0  0  0
 20 21  1  0  0  0  0
 22 25  1  0  0  0  0
 23 20  1  0  0  0  0
 25 21  1  0  0  0  0
 25 24  1  0  0  0  0
M  END
>  <MODEL>
5

>  <REMARK>
 VINA RESULT:      -8.7      1.198      1.867
  Name = 
  2 active torsions:
  status: ('A' for Active; 'I' for Inactive)
    1  A    between atoms: C_18  and  N_21
    2  A    between atoms: N_21  and  C_23
                            x       y       z     vdW  Elec       q    Type
                         _______ _______ _______ _____ _____    ______ ____

>  <TORSDO>
F 2

$$$$
=
 OpenBabel10232408513D

 25 28  0  0  1  0  0  0  0  0999 V2000
  185.5730  177.8570  146.0720 C   0  0  0  0  0  3  0  0  0  0  0  0
  185.7190  178.4730  140.6830 C   0  0  0  0  0  0  0  0  0  0  0  0
  186.6450  177.2590  145.5790 C   0  0  0  0  0  3  0  0  0  0  0  0
  185.3630  178.5750  139.3930 N   0  0  0  0  0  0  0  0  0  0  0  0
  185.0810  179.1170  145.4900 C   0  0  0  0  0  2  0  0  0  0  0  0
  187.6340  178.4180  139.5810 N   0  0  0  0  0  2  0  0  0  0  0  0
  186.8970  178.1790  143.2290 C   0  0  0  0  0  0  0  0  0  0  0  0
  186.5610  178.5310  138.7620 C   0  0  0  0  0  0  0  0  0  0  0  0
  186.6840  178.6060  137.3470 N   0  0  0  0  0  1  0  0  0  0  0  0
  183.4880  178.7420  141.6050 N   0  0  0  0  0  1  0  0  0  0  0  0
  189.2030  178.2130  141.9970 C   0  0  0  0  0  1  0  0  0  0  0  0
  187.0640  178.3860  140.7990 C   0  0  0  0  0  0  0  0  0  0  0  0
  185.4780  178.4880  143.0810 C   0  0  0  0  0  0  0  0  0  0  0  0
  184.6730  178.8730  144.0850 C   0  0  0  0  0  2  0  0  0  0  0  0
  187.4430  177.7150  144.4110 C   0  0  2  0  0  3  0  0  0  0  0  0
  184.8910  178.5350  141.7880 C   0  0  0  0  0  0  0  0  0  0  0  0
  187.7040  178.2620  142.0310 C   0  0  0  0  0  0  0  0  0  0  0  0
  188.8470  177.4260  144.4980 N   0  0  0  0  0  2  0  0  0  0  0  0
  191.2440  177.9620  144.6160 C   0  0  0  0  0  2  0  0  0  0  0  0
  189.7730  178.1390  146.6500 C   0  0  0  0  0  2  0  0  0  0  0  0
  190.3230  176.7770  147.0750 C   0  0  0  0  0  2  0  0  0  0  0  0
  191.7090  176.6120  145.1590 C   0  0  0  0  0  2  0  0  0  0  0  0
  189.8380  178.2920  145.1300 C   0  0  0  0  0  3  0  0  0  0  0  0
  192.1510  175.3220  147.0560 C   0  0  0  0  0  1  0  0  0  0  0  0
  191.7040  176.6320  146.6200 N   0  0  0  0  0  0  0  0  0  0  0  0
  2 12  2  0  0  0  0
  2 16  1  0  0  0  0
  3  1  2  0  0  0  0
  4  2  1  0  0  0  0
  5  1  1  0  0  0  0
  6 12  1  0  0  0  0
  7 15  1  0  0  0  0
  8  4  2  0  0  0  0
  8  6  1  0  0  0  0
  9  8  1  0  0  0  0
 10 16  1  0  0  0  0
 11 17  1  0  0  0  0
 12 17  1  0  0  0  0
 13  7  1  0  0  0  0
 13 14  1  0  0  0  0
 14  5  1  0  0  0  0
 15 18  1  6  0  0  0
 15  3  1  0  0  0  0
 16 13  2  0  0  0  0
 17  7  2  0  0  0  0
 18 23  1  0  0  0  0
 19 23  1  0  0  0  0
 19 22  1  0  0  0  0
 20 21  1  0  0  0  0
 22 25  1  0  0  0  0
 23 20  1  0  0  0  0
 25 24  1  0  0  0  0
 25 21  1  0  0  0  0
M  END
>  <MODEL>
6

>  <REMARK>
 VINA RESULT:      -8.6      1.982      2.923
  Name = 
  2 active torsions:
  status: ('A' for Active; 'I' for Inactive)
    1  A    between atoms: C_18  and  N_21
    2  A    between atoms: N_21  and  C_23
                            x       y       z     vdW  Elec       q    Type
                         _______ _______ _______ _____ _____    ______ ____

>  <TORSDO>
F 2

$$$$
=
 OpenBabel10232408513D

 25 28  0  0  1  0  0  0  0  0999 V2000
  187.4970  177.8490  148.1600 C   0  0  0  0  0  3  0  0  0  0  0  0
  190.7640  177.3730  143.8530 C   0  0  0  0  0  0  0  0  0  0  0  0
  186.9350  178.4130  147.1040 C   0  0  0  0  0  3  0  0  0  0  0  0
  191.8490  177.3220  143.0660 N   0  0  0  0  0  0  0  0  0  0  0  0
  188.3090  176.6280  148.0180 C   0  0  0  0  0  2  0  0  0  0  0  0
  189.9490  177.3740  141.7990 N   0  0  0  0  0  2  0  0  0  0  0  0
  188.2460  177.5470  145.1130 C   0  0  0  0  0  0  0  0  0  0  0  0
  191.3020  177.3310  141.8260 C   0  0  0  0  0  0  0  0  0  0  0  0
  192.0890  177.2880  140.6420 N   0  0  0  0  0  1  0  0  0  0  0  0
  191.9480  177.1780  145.9650 N   0  0  0  0  0  1  0  0  0  0  0  0
  187.2110  177.4440  142.7130 C   0  0  0  0  0  1  0  0  0  0  0  0
  189.6360  177.3980  143.1070 C   0  0  0  0  0  0  0  0  0  0  0  0
  189.4630  177.3040  145.8800 C   0  0  0  0  0  0  0  0  0  0  0  0
  189.4880  176.9280  147.1700 C   0  0  0  0  0  2  0  0  0  0  0  0
  187.0600  177.9540  145.6950 C   0  0  2  0  0  3  0  0  0  0  0  0
  190.7270  177.3180  145.2340 C   0  0  0  0  0  0  0  0  0  0  0  0
  188.3630  177.4610  143.6730 C   0  0  0  0  0  0  0  0  0  0  0  0
  185.8940  178.1780  144.8880 N   0  0  0  0  0  2  0  0  0  0  0  0
  183.6650  179.1630  145.2210 C   0  0  0  0  0  2  0  0  0  0  0  0
  185.2320  180.0590  143.4680 C   0  0  0  0  0  2  0  0  0  0  0  0
  184.4350  179.2490  142.4460 C   0  0  0  0  0  2  0  0  0  0  0  0
  182.9590  178.4050  144.0970 C   0  0  0  0  0  2  0  0  0  0  0  0
  185.1310  179.4230  144.8540 C   0  0  0  0  0  3  0  0  0  0  0  0
  182.3500  178.3860  141.8420 C   0  0  0  0  0  1  0  0  0  0  0  0
  183.0340  179.1690  142.8540 N   0  0  0  0  0  0  0  0  0  0  0  0
  2 16  1  0  0  0  0
  3  1  2  0  0  0  0
  4  2  1  0  0  0  0
  5  1  1  0  0  0  0
  6  8  1  0  0  0  0
  6 12  1  0  0  0  0
  7 15  1  0  0  0  0
  7 13  1  0  0  0  0
  8  4  2  0  0  0  0
  9  8  1  0  0  0  0
 11 17  1  0  0  0  0
 12 17  1  0  0  0  0
 12  2  2  0  0  0  0
 13 14  1  0  0  0  0
 14  5  1  0  0  0  0
 15 18  1  6  0  0  0
 15  3  1  0  0  0  0
 16 13  2  0  0  0  0
 16 10  1  0  0  0  0
 17  7  2  0  0  0  0
 20 23  1  0  0  0  0
 21 25  1  0  0  0  0
 21 20  1  0  0  0  0
 22 19  1  0  0  0  0
 23 18  1  0  0  0  0
 23 19  1  0  0  0  0
 24 25  1  0  0  0  0
 25 22  1  0  0  0  0
M  END
>  <MODEL>
7

>  <REMARK>
 VINA RESULT:      -8.5      1.718      6.474
  Name = 
  2 active torsions:
  status: ('A' for Active; 'I' for Inactive)
    1  A    between atoms: C_18  and  N_21
    2  A    between atoms: N_21  and  C_23
                            x       y       z     vdW  Elec       q    Type
                         _______ _______ _______ _____ _____    ______ ____

>  <TORSDO>
F 2

$$$$
=
 OpenBabel10232408513D

 25 28  0  0  1  0  0  0  0  0999 V2000
  185.7590  177.8050  146.2760 C   0  0  0  0  0  3  0  0  0  0  0  0
  183.1160  178.8090  141.6440 C   0  0  0  0  0  0  0  0  0  0  0  0
  186.4140  177.2710  145.2580 C   0  0  0  0  0  3  0  0  0  0  0  0
  182.1470  178.9940  140.7340 N   0  0  0  0  0  0  0  0  0  0  0  0
  185.0560  179.0900  146.1260 C   0  0  0  0  0  2  0  0  0  0  0  0
  184.1880  178.8830  139.7130 N   0  0  0  0  0  2  0  0  0  0  0  0
  185.4330  178.3630  143.1900 C   0  0  0  0  0  0  0  0  0  0  0  0
  182.8480  179.0260  139.5740 C   0  0  0  0  0  0  0  0  0  0  0  0
  182.2250  179.2050  138.3090 N   0  0  0  0  0  1  0  0  0  0  0  0
  181.6840  178.9530  143.6010 N   0  0  0  0  0  1  0  0  0  0  0  0
  186.7740  178.5460  140.9530 C   0  0  0  0  0  1  0  0  0  0  0  0
  184.3260  178.7480  141.0450 C   0  0  0  0  0  0  0  0  0  0  0  0
  184.1450  178.6460  143.8170 C   0  0  0  0  0  0  0  0  0  0  0  0
  183.9790  178.9370  145.1180 C   0  0  0  0  0  2  0  0  0  0  0  0
  186.5040  177.8300  143.8840 C   0  0  2  0  0  3  0  0  0  0  0  0
  182.9770  178.7700  143.0190 C   0  0  0  0  0  0  0  0  0  0  0  0
  185.5080  178.5530  141.7570 C   0  0  0  0  0  0  0  0  0  0  0  0
  187.7470  177.5720  143.2130 N   0  0  0  0  0  2  0  0  0  0  0  0
  189.2740  176.9350  145.0320 C   0  0  0  0  0  2  0  0  0  0  0  0
  189.8770  176.5190  142.6260 C   0  0  0  0  0  2  0  0  0  0  0  0
  190.7350  177.7820  142.6980 C   0  0  0  0  0  2  0  0  0  0  0  0
  190.1670  178.1740  144.9650 C   0  0  0  0  0  2  0  0  0  0  0  0
  188.7350  176.5870  143.6400 C   0  0  0  0  0  3  0  0  0  0  0  0
  192.0720  179.1550  144.0350 C   0  0  0  0  0  1  0  0  0  0  0  0
  191.2770  177.9400  144.0460 N   0  0  0  0  0  0  0  0  0  0  0  0
  2 16  1  0  0  0  0
  3  1  2  0  0  0  0
  4  2  1  0  0  0  0
  5  1  1  0  0  0  0
  6 12  1  0  0  0  0
  7 13  1  0  0  0  0
  7 15  1  0  0  0  0
  8  6  1  0  0  0  0
  8  4  2  0  0  0  0
  9  8  1  0  0  0  0
 11 17  1  0  0  0  0
 12  2  2  0  0  0  0
 12 17  1  0  0  0  0
 13 14  1  0  0  0  0
 14  5  1  0  0  0  0
 15 18  1  6  0  0  0
 15  3  1  0  0  0  0
 16 10  1  0  0  0  0
 16 13  2  0  0  0  0
 17  7  2  0  0  0  0
 18 23  1  0  0  0  0
 20 21  1  0  0  0  0
 20 23  1  0  0  0  0
 21 25  1  0  0  0  0
 22 19  1  0  0  0  0
 23 19  1  0  0  0  0
 24 25  1  0  0  0  0
 25 22  1  0  0  0  0
M  END
>  <MODEL>
8

>  <REMARK>
 VINA RESULT:      -8.2      0.940      1.226
  Name = 
  2 active torsions:
  status: ('A' for Active; 'I' for Inactive)
    1  A    between atoms: C_18  and  N_21
    2  A    between atoms: N_21  and  C_23
                            x       y       z     vdW  Elec       q    Type
                         _______ _______ _______ _____ _____    ______ ____

>  <TORSDO>
F 2

$$$$
=
 OpenBabel10232408513D

 25 28  0  0  1  0  0  0  0  0999 V2000
  187.2340  178.0360  141.4630 C   0  0  0  0  0  3  0  0  0  0  0  0
  190.9050  176.7880  145.2600 C   0  0  0  0  0  0  0  0  0  0  0  0
  186.6260  177.5830  142.5470 C   0  0  0  0  0  3  0  0  0  0  0  0
  192.0140  176.3540  145.8800 N   0  0  0  0  0  0  0  0  0  0  0  0
  188.4490  178.8620  141.5730 C   0  0  0  0  0  2  0  0  0  0  0  0
  190.3820  176.8250  147.4070 N   0  0  0  0  0  2  0  0  0  0  0  0
  188.3770  177.6760  144.3800 C   0  0  0  0  0  0  0  0  0  0  0  0
  191.6440  176.3880  147.1830 C   0  0  0  0  0  0  0  0  0  0  0  0
  192.5180  176.0020  148.2360 N   0  0  0  0  0  1  0  0  0  0  0  0
  191.8350  176.8080  143.0170 N   0  0  0  0  0  1  0  0  0  0  0  0
  187.7270  177.8440  146.9070 C   0  0  0  0  0  1  0  0  0  0  0  0
  189.9380  177.0740  146.1620 C   0  0  0  0  0  0  0  0  0  0  0  0
  189.5040  177.5630  143.4600 C   0  0  0  0  0  0  0  0  0  0  0  0
  189.5210  178.0610  142.2120 C   0  0  0  0  0  2  0  0  0  0  0  0
  187.0670  177.7910  143.9520 C   0  0  2  0  0  3  0  0  0  0  0  0
  190.7380  177.0220  143.9080 C   0  0  0  0  0  0  0  0  0  0  0  0
  188.6770  177.5370  145.7890 C   0  0  0  0  0  0  0  0  0  0  0  0
  185.9980  177.8980  144.9040 N   0  0  0  0  0  2  0  0  0  0  0  0
  183.9890  178.8730  145.9340 C   0  0  0  0  0  2  0  0  0  0  0  0
  185.2090  180.0660  144.0850 C   0  0  0  0  0  2  0  0  0  0  0  0
  184.1420  179.5280  143.1320 C   0  0  0  0  0  2  0  0  0  0  0  0
  182.9930  178.4040  144.8740 C   0  0  0  0  0  2  0  0  0  0  0  0
  185.3560  179.1480  145.2990 C   0  0  0  0  0  3  0  0  0  0  0  0
  181.9090  178.8970  142.8640 C   0  0  0  0  0  1  0  0  0  0  0  0
  182.8620  179.4150  143.8280 N   0  0  0  0  0  0  0  0  0  0  0  0
  1  5  1  0  0  0  0
  1  3  2  0  0  0  0
  2  4  1  0  0  0  0
  2 12  1  0  0  0  0
  3 15  1  0  0  0  0
  4  8  2  0  0  0  0
  5 14  1  0  0  0  0
  7 17  1  0  0  0  0
  8  6  1  0  0  0  0
  8  9  1  0  0  0  0
 10 16  1  0  0  0  0
 12  6  1  0  0  0  0
 13 16  1  0  0  0  0
 13  7  2  0  0  0  0
 14 13  1  0  0  0  0
 15  7  1  0  0  0  0
 15 18  1  1  0  0  0
 16  2  2  0  0  0  0
 17 12  2  0  0  0  0
 17 11  1  0  0  0  0
 18 23  1  0  0  0  0
 20 23  1  0  0  0  0
 21 25  1  0  0  0  0
 21 20  1  0  0  0  0
 22 19  1  0  0  0  0
 23 19  1  0  0  0  0
 24 25  1  0  0  0  0
 25 22  1  0  0  0  0
M  END
>  <MODEL>
9

>  <REMARK>
 VINA RESULT:      -7.6      2.227      7.559
  Name = 
  2 active torsions:
  status: ('A' for Active; 'I' for Inactive)
    1  A    between atoms: C_18  and  N_21
    2  A    between atoms: N_21  and  C_23
                            x       y       z     vdW  Elec       q    Type
                         _______ _______ _______ _____ _____    ______ ____

>  <TORSDO>
F 2

$$$$
