=
 OpenBabel10232408363D

 28 31  0  0  1  0  0  0  0  0999 V2000
  185.0510  178.3780  144.8130 C   0  0  0  0  0  3  0  0  0  0  0  0
  191.5810  177.2180  145.1150 C   0  0  0  0  0  3  0  0  0  0  0  0
  190.6250  177.0720  147.2790 C   0  0  0  0  0  0  0  0  0  0  0  0
  189.4420  177.2190  148.0670 N   0  0  0  0  0  0  0  0  0  0  0  0
  184.9410  179.1180  142.5170 C   0  0  0  0  0  3  0  0  0  0  0  0
  188.2610  175.8160  143.2820 C   0  0  0  0  0  2  0  0  0  0  0  0
  184.3740  179.0560  143.7970 C   0  0  0  0  0  0  0  0  0  0  0  0
  191.6350  176.8810  143.3540 S   0  0  0  0  0  0  0  0  0  0  0  0
  186.1600  178.4900  142.2570 C   0  0  0  0  0  3  0  0  0  0  0  0
  191.7630  176.9740  147.8870 N   0  0  0  0  0  2  0  0  0  0  0  0
  186.2790  177.7500  144.5640 C   0  0  0  0  0  0  0  0  0  0  0  0
  186.8370  177.7910  143.2660 C   0  0  0  0  0  0  0  0  0  0  0  0
  188.3300  177.6980  147.6130 C   0  0  0  0  0  0  0  0  0  0  0  0
  187.5360  178.2290  146.6200 C   0  0  2  0  0  3  0  0  0  0  0  0
  189.1940  177.7650  141.6840 S   0  0  0  0  0  0  0  0  0  0  0  0
  186.9100  178.1220  147.8320 O   0  0  0  0  0  0  0  0  0  0  0  0
  188.0880  177.0830  142.9190 C   0  0  0  0  0  0  0  0  0  0  0  0
  190.5590  176.9200  145.8520 N   0  0  0  0  0  0  0  0  0  0  0  0
  187.0130  177.1340  145.7120 C   0  0  0  0  0  2  0  0  0  0  0  0
  190.6300  179.3170  143.2460 O   0  0  0  0  0  0  0  0  0  0  0  0
  190.4820  178.1660  142.8660 C   0  0  0  0  0  0  0  0  0  0  0  0
  183.1490  179.6630  144.0880 O   0  0  0  0  0  0  0  0  0  0  0  0
  181.9170  178.9580  144.0560 C   0  0  0  0  0  2  0  0  0  0  0  0
  181.0560  179.4970  142.9340 C   0  0  0  0  0  2  0  0  0  0  0  0
  181.3520  178.7300  141.6510 C   0  0  2  0  0  3  0  0  0  0  0  0
  180.7830  179.3140  140.3950 C   0  0  1  0  0  3  0  0  0  0  0  0
  180.1430  178.2710  141.0940 O   0  0  0  0  0  0  0  0  0  0  0  0
  179.9820  180.5990  140.5670 C   0  0  0  0  0  1  0  0  0  0  0  0
  2 18  2  0  0  0  0
  3 10  2  0  0  0  0
  3  4  1  0  0  0  0
  5  7  1  0  0  0  0
  7 22  1  0  0  0  0
  7  1  2  0  0  0  0
  8  2  1  0  0  0  0
  9  5  2  0  0  0  0
  9 12  1  0  0  0  0
 11  1  1  0  0  0  0
 11 19  1  0  0  0  0
 12 11  2  0  0  0  0
 13 16  1  0  0  0  0
 13  4  2  0  0  0  0
 14 19  1  6  0  0  0
 14 13  1  0  0  0  0
 14 16  1  0  0  0  0
 15 21  1  0  0  0  0
 15 17  1  0  0  0  0
 17 12  1  0  0  0  0
 17  6  2  0  0  0  0
 18  3  1  0  0  0  0
 21 20  2  0  0  0  0
 21  8  1  0  0  0  0
 23 22  1  0  0  0  0
 24 23  1  0  0  0  0
 25 24  1  1  0  0  0
 26 28  1  1  0  0  0
 26 27  1  0  0  0  0
 26 25  1  0  0  0  0
 27 25  1  0  0  0  0
M  END
>  <MODEL>
1

>  <REMARK>
 VINA RESULT:      -8.7      0.000      0.000
  Name = 
  4 active torsions:
  status: ('A' for Active; 'I' for Inactive)
    1  A    between atoms: C_7  and  O_28
    2  A    between atoms: C_15  and  C_26
    3  A    between atoms: C_15  and  O_28
    4  A    between atoms: C_17  and  C_26
                            x       y       z     vdW  Elec       q    Type
                         _______ _______ _______ _____ _____    ______ ____

>  <TORSDO>
F 4

$$$$
=
 OpenBabel10232408363D

 28 31  0  0  1  0  0  0  0  0999 V2000
  185.1810  178.5120  142.3170 C   0  0  0  0  0  3  0  0  0  0  0  0
  190.2980  177.7350  146.4760 C   0  0  0  0  0  3  0  0  0  0  0  0
  188.2750  177.9160  147.6960 C   0  0  0  0  0  0  0  0  0  0  0  0
  186.8650  178.1390  147.6310 N   0  0  0  0  0  0  0  0  0  0  0  0
  186.4400  178.8420  140.2830 C   0  0  0  0  0  3  0  0  0  0  0  0
  188.5340  175.8830  143.3440 C   0  0  0  0  0  2  0  0  0  0  0  0
  185.2440  178.9730  141.0010 C   0  0  0  0  0  0  0  0  0  0  0  0
  191.3250  177.1050  145.1460 S   0  0  0  0  0  0  0  0  0  0  0  0
  187.5510  178.2380  140.8730 C   0  0  0  0  0  3  0  0  0  0  0  0
  188.8560  177.9780  148.8500 N   0  0  0  0  0  2  0  0  0  0  0  0
  186.2930  177.9110  142.9220 C   0  0  0  0  0  0  0  0  0  0  0  0
  187.4920  177.7560  142.1890 C   0  0  0  0  0  0  0  0  0  0  0  0
  186.2380  178.4800  146.5520 C   0  0  0  0  0  0  0  0  0  0  0  0
  186.1840  178.7940  145.2120 C   0  0  2  0  0  3  0  0  0  0  0  0
  190.3230  177.5720  142.2630 S   0  0  0  0  0  0  0  0  0  0  0  0
  184.9750  178.8660  145.8490 O   0  0  0  0  0  0  0  0  0  0  0  0
  188.6730  177.0600  142.7410 C   0  0  0  0  0  0  0  0  0  0  0  0
  189.0230  177.5190  146.5350 N   0  0  0  0  0  0  0  0  0  0  0  0
  186.2060  177.5360  144.3670 C   0  0  0  0  0  2  0  0  0  0  0  0
  190.7050  179.4350  144.0780 O   0  0  0  0  0  0  0  0  0  0  0  0
  190.7320  178.2310  143.8810 C   0  0  0  0  0  0  0  0  0  0  0  0
  184.1090  179.5620  140.4350 O   0  0  0  0  0  0  0  0  0  0  0  0
  183.1120  178.8110  139.7570 C   0  0  0  0  0  2  0  0  0  0  0  0
  182.1710  178.1930  140.7680 C   0  0  0  0  0  2  0  0  0  0  0  0
  180.9870  179.1240  140.9990 C   0  0  2  0  0  3  0  0  0  0  0  0
  180.7330  179.5180  142.4200 C   0  0  1  0  0  3  0  0  0  0  0  0
  180.0290  178.4690  141.7960 O   0  0  0  0  0  0  0  0  0  0  0  0
  181.6940  178.9350  143.4500 C   0  0  0  0  0  1  0  0  0  0  0  0
  1 11  1  0  0  0  0
  2 18  2  0  0  0  0
  3 10  2  0  0  0  0
  4  3  1  0  0  0  0
  5  9  2  0  0  0  0
  5  7  1  0  0  0  0
  7  1  2  0  0  0  0
  8  2  1  0  0  0  0
  9 12  1  0  0  0  0
 11 19  1  0  0  0  0
 12 17  1  0  0  0  0
 12 11  2  0  0  0  0
 13  4  2  0  0  0  0
 14 19  1  6  0  0  0
 14 16  1  0  0  0  0
 14 13  1  0  0  0  0
 15 17  1  0  0  0  0
 15 21  1  0  0  0  0
 16 13  1  0  0  0  0
 17  6  2  0  0  0  0
 18  3  1  0  0  0  0
 21 20  2  0  0  0  0
 21  8  1  0  0  0  0
 22  7  1  0  0  0  0
 23 22  1  0  0  0  0
 23 24  1  0  0  0  0
 25 24  1  1  0  0  0
 25 27  1  0  0  0  0
 25 26  1  0  0  0  0
 26 28  1  1  0  0  0
 27 26  1  0  0  0  0
M  END
>  <MODEL>
2

>  <REMARK>
 VINA RESULT:      -8.2      1.550      2.326
  Name = 
  4 active torsions:
  status: ('A' for Active; 'I' for Inactive)
    1  A    between atoms: C_7  and  O_28
    2  A    between atoms: C_15  and  C_26
    3  A    between atoms: C_15  and  O_28
    4  A    between atoms: C_17  and  C_26
                            x       y       z     vdW  Elec       q    Type
                         _______ _______ _______ _____ _____    ______ ____

>  <TORSDO>
F 4

$$$$
=
 OpenBabel10232408363D

 28 31  0  0  1  0  0  0  0  0999 V2000
  185.1890  178.5620  142.2690 C   0  0  0  0  0  3  0  0  0  0  0  0
  190.1870  177.7430  146.5640 C   0  0  0  0  0  3  0  0  0  0  0  0
  188.1370  177.9740  147.7310 C   0  0  0  0  0  0  0  0  0  0  0  0
  186.7330  178.2220  147.6280 N   0  0  0  0  0  0  0  0  0  0  0  0
  186.5040  178.8450  140.2640 C   0  0  0  0  0  3  0  0  0  0  0  0
  188.4670  175.8850  143.4100 C   0  0  0  0  0  2  0  0  0  0  0  0
  185.2930  179.0060  140.9500 C   0  0  0  0  0  0  0  0  0  0  0  0
  191.2340  177.0780  145.2680 S   0  0  0  0  0  0  0  0  0  0  0  0
  187.5890  178.2280  140.8890 C   0  0  0  0  0  3  0  0  0  0  0  0
  188.6910  178.0390  148.8980 N   0  0  0  0  0  2  0  0  0  0  0  0
  186.2750  177.9480  142.9090 C   0  0  0  0  0  0  0  0  0  0  0  0
  187.4880  177.7620  142.2080 C   0  0  0  0  0  0  0  0  0  0  0  0
  186.1400  178.5600  146.5300 C   0  0  0  0  0  0  0  0  0  0  0  0
  186.1240  178.8600  145.1860 C   0  0  2  0  0  3  0  0  0  0  0  0
  190.3130  177.5280  142.3550 S   0  0  0  0  0  0  0  0  0  0  0  0
  184.9010  178.9610  145.7910 O   0  0  0  0  0  0  0  0  0  0  0  0
  188.6430  177.0520  142.7970 C   0  0  0  0  0  0  0  0  0  0  0  0
  188.9070  177.5500  146.5940 N   0  0  0  0  0  0  0  0  0  0  0  0
  186.1450  177.5910  144.3560 C   0  0  0  0  0  2  0  0  0  0  0  0
  190.6830  179.4060  144.1580 O   0  0  0  0  0  0  0  0  0  0  0  0
  190.6930  178.1990  143.9750 C   0  0  0  0  0  0  0  0  0  0  0  0
  184.1830  179.6080  140.3500 O   0  0  0  0  0  0  0  0  0  0  0  0
  184.0000  179.6480  138.9420 C   0  0  0  0  0  2  0  0  0  0  0  0
  182.7880  178.8220  138.5670 C   0  0  0  0  0  2  0  0  0  0  0  0
  183.2010  177.7200  137.5990 C   0  0  2  0  0  3  0  0  0  0  0  0
  183.1010  176.3210  138.1210 C   0  0  1  0  0  3  0  0  0  0  0  0
  184.3150  177.0360  138.1210 O   0  0  0  0  0  0  0  0  0  0  0  0
  182.6000  176.1840  139.5540 C   0  0  0  0  0  1  0  0  0  0  0  0
  1 11  1  0  0  0  0
  2 18  2  0  0  0  0
  3 10  2  0  0  0  0
  4  3  1  0  0  0  0
  5  9  2  0  0  0  0
  5  7  1  0  0  0  0
  7  1  2  0  0  0  0
  8  2  1  0  0  0  0
  9 12  1  0  0  0  0
 11 19  1  0  0  0  0
 12 17  1  0  0  0  0
 12 11  2  0  0  0  0
 13  4  2  0  0  0  0
 14 19  1  6  0  0  0
 14 16  1  0  0  0  0
 14 13  1  0  0  0  0
 15 17  1  0  0  0  0
 15 21  1  0  0  0  0
 16 13  1  0  0  0  0
 17  6  2  0  0  0  0
 18  3  1  0  0  0  0
 21 20  2  0  0  0  0
 21  8  1  0  0  0  0
 22  7  1  0  0  0  0
 23 22  1  0  0  0  0
 24 23  1  0  0  0  0
 25 27  1  0  0  0  0
 25 26  1  0  0  0  0
 25 24  1  1  0  0  0
 26 28  1  1  0  0  0
 27 26  1  0  0  0  0
M  END
>  <MODEL>
3

>  <REMARK>
 VINA RESULT:      -8.2      2.366      3.057
  Name = 
  4 active torsions:
  status: ('A' for Active; 'I' for Inactive)
    1  A    between atoms: C_7  and  O_28
    2  A    between atoms: C_15  and  C_26
    3  A    between atoms: C_15  and  O_28
    4  A    between atoms: C_17  and  C_26
                            x       y       z     vdW  Elec       q    Type
                         _______ _______ _______ _____ _____    ______ ____

>  <TORSDO>
F 4

$$$$
=
 OpenBabel10232408363D

 28 31  0  0  1  0  0  0  0  0999 V2000
  187.5190  178.5920  141.4570 C   0  0  0  0  0  3  0  0  0  0  0  0
  180.9480  177.9180  140.7810 C   0  0  0  0  0  3  0  0  0  0  0  0
  181.4750  178.6200  142.9830 C   0  0  0  0  0  0  0  0  0  0  0  0
  182.5140  178.9160  143.9180 N   0  0  0  0  0  0  0  0  0  0  0  0
  188.1810  177.6050  139.3550 C   0  0  0  0  0  3  0  0  0  0  0  0
  184.0490  179.9240  139.1350 C   0  0  0  0  0  2  0  0  0  0  0  0
  188.5000  177.9960  140.6620 C   0  0  0  0  0  0  0  0  0  0  0  0
  181.0930  177.9830  138.9940 S   0  0  0  0  0  0  0  0  0  0  0  0
  186.9010  177.8270  138.8470 C   0  0  0  0  0  3  0  0  0  0  0  0
  180.2670  178.4800  143.4270 N   0  0  0  0  0  2  0  0  0  0  0  0
  186.2270  178.8120  140.9590 C   0  0  0  0  0  0  0  0  0  0  0  0
  185.9140  178.4410  139.6320 C   0  0  0  0  0  0  0  0  0  0  0  0
  183.7690  178.7090  143.6900 C   0  0  0  0  0  0  0  0  0  0  0  0
  184.8210  178.2890  142.9050 C   0  0  2  0  0  3  0  0  0  0  0  0
  183.9150  177.5940  137.8040 S   0  0  0  0  0  0  0  0  0  0  0  0
  185.1950  178.7300  144.1450 O   0  0  0  0  0  0  0  0  0  0  0  0
  184.5960  178.7180  139.0220 C   0  0  0  0  0  0  0  0  0  0  0  0
  181.7280  178.5870  141.5690 N   0  0  0  0  0  0  0  0  0  0  0  0
  185.1850  179.3510  141.8870 C   0  0  0  0  0  2  0  0  0  0  0  0
  182.6920  175.9320  139.4340 O   0  0  0  0  0  0  0  0  0  0  0  0
  182.5990  177.0150  138.8780 C   0  0  0  0  0  0  0  0  0  0  0  0
  189.7770  177.7990  141.1970 O   0  0  0  0  0  0  0  0  0  0  0  0
  190.1790  176.5730  141.7900 C   0  0  0  0  0  2  0  0  0  0  0  0
  189.5220  176.4280  143.1460 C   0  0  0  0  0  2  0  0  0  0  0  0
  190.4060  177.0650  144.2120 C   0  0  2  0  0  3  0  0  0  0  0  0
  189.6950  177.5940  145.4180 C   0  0  1  0  0  3  0  0  0  0  0  0
  190.0680  178.4250  144.3430 O   0  0  0  0  0  0  0  0  0  0  0  0
  188.1800  177.4260  145.4200 C   0  0  0  0  0  1  0  0  0  0  0  0
  2 18  2  0  0  0  0
  3 10  2  0  0  0  0
  3  4  1  0  0  0  0
  5  7  1  0  0  0  0
  7 22  1  0  0  0  0
  7  1  2  0  0  0  0
  8  2  1  0  0  0  0
  9  5  2  0  0  0  0
  9 12  1  0  0  0  0
 11  1  1  0  0  0  0
 11 19  1  0  0  0  0
 12 11  2  0  0  0  0
 13  4  2  0  0  0  0
 13 16  1  0  0  0  0
 14 19  1  6  0  0  0
 14 13  1  0  0  0  0
 14 16  1  0  0  0  0
 15 21  1  0  0  0  0
 15 17  1  0  0  0  0
 17  6  2  0  0  0  0
 17 12  1  0  0  0  0
 18  3  1  0  0  0  0
 21  8  1  0  0  0  0
 21 20  2  0  0  0  0
 22 23  1  0  0  0  0
 23 24  1  0  0  0  0
 25 24  1  6  0  0  0
 25 27  1  0  0  0  0
 25 26  1  0  0  0  0
 26 28  1  6  0  0  0
 27 26  1  0  0  0  0
M  END
>  <MODEL>
4

>  <REMARK>
 VINA RESULT:      -7.4      4.294      8.052
  Name = 
  4 active torsions:
  status: ('A' for Active; 'I' for Inactive)
    1  A    between atoms: C_7  and  O_28
    2  A    between atoms: C_15  and  C_26
    3  A    between atoms: C_15  and  O_28
    4  A    between atoms: C_17  and  C_26
                            x       y       z     vdW  Elec       q    Type
                         _______ _______ _______ _____ _____    ______ ____

>  <TORSDO>
F 4

$$$$
=
 OpenBabel10232408363D

 28 31  0  0  1  0  0  0  0  0999 V2000
  189.1590  177.9110  142.6960 C   0  0  0  0  0  3  0  0  0  0  0  0
  185.4680  177.8280  137.1770 C   0  0  0  0  0  3  0  0  0  0  0  0
  184.3220  178.9700  138.9090 C   0  0  0  0  0  0  0  0  0  0  0  0
  184.3340  179.3640  140.2820 N   0  0  0  0  0  0  0  0  0  0  0  0
  190.8860  176.3850  141.9750 C   0  0  0  0  0  3  0  0  0  0  0  0
  189.1110  179.0280  138.4580 C   0  0  0  0  0  2  0  0  0  0  0  0
  190.2030  177.0390  143.0090 C   0  0  0  0  0  0  0  0  0  0  0  0
  186.9110  177.4490  136.1800 S   0  0  0  0  0  0  0  0  0  0  0  0
  190.5380  176.6210  140.6440 C   0  0  0  0  0  3  0  0  0  0  0  0
  183.2150  179.0740  138.2470 N   0  0  0  0  0  2  0  0  0  0  0  0
  188.7970  178.1490  141.3630 C   0  0  0  0  0  0  0  0  0  0  0  0
  189.5030  177.5090  140.3190 C   0  0  0  0  0  0  0  0  0  0  0  0
  185.2220  178.9700  141.1370 C   0  0  0  0  0  0  0  0  0  0  0  0
  186.3460  178.2620  141.5000 C   0  0  2  0  0  3  0  0  0  0  0  0
  189.4310  176.4780  137.6760 S   0  0  0  0  0  0  0  0  0  0  0  0
  185.7600  178.9410  142.5330 O   0  0  0  0  0  0  0  0  0  0  0  0
  189.2230  177.7770  138.8930 C   0  0  0  0  0  0  0  0  0  0  0  0
  185.5270  178.5740  138.2330 N   0  0  0  0  0  0  0  0  0  0  0  0
  187.6010  179.0050  141.0880 C   0  0  0  0  0  2  0  0  0  0  0  0
  187.0390  175.3970  137.8320 O   0  0  0  0  0  0  0  0  0  0  0  0
  187.6740  176.3210  137.3480 C   0  0  0  0  0  0  0  0  0  0  0  0
  190.5350  176.8350  144.3520 O   0  0  0  0  0  0  0  0  0  0  0  0
  190.1160  177.7130  145.3880 C   0  0  0  0  0  2  0  0  0  0  0  0
  188.8470  177.1800  146.0180 C   0  0  0  0  0  2  0  0  0  0  0  0
  189.0480  177.0290  147.5210 C   0  0  2  0  0  3  0  0  0  0  0  0
  188.0100  177.6720  148.3860 C   0  0  1  0  0  3  0  0  0  0  0  0
  189.2380  178.3000  148.0950 O   0  0  0  0  0  0  0  0  0  0  0  0
  186.8890  178.3950  147.6490 C   0  0  0  0  0  1  0  0  0  0  0  0
  1  7  1  0  0  0  0
  2 18  2  0  0  0  0
  3  4  1  0  0  0  0
  4 13  2  0  0  0  0
  5  7  2  0  0  0  0
  6 17  2  0  0  0  0
  7 22  1  0  0  0  0
  8  2  1  0  0  0  0
  8 21  1  0  0  0  0
  9  5  1  0  0  0  0
 10  3  2  0  0  0  0
 11  1  2  0  0  0  0
 12  9  2  0  0  0  0
 12 11  1  0  0  0  0
 13 14  1  0  0  0  0
 13 16  1  0  0  0  0
 14 19  1  6  0  0  0
 14 16  1  0  0  0  0
 15 17  1  0  0  0  0
 17 12  1  0  0  0  0
 18  3  1  0  0  0  0
 19 11  1  0  0  0  0
 21 15  1  0  0  0  0
 21 20  2  0  0  0  0
 22 23  1  0  0  0  0
 23 24  1  0  0  0  0
 25 24  1  6  0  0  0
 25 27  1  0  0  0  0
 25 26  1  0  0  0  0
 26 28  1  6  0  0  0
 27 26  1  0  0  0  0
M  END
>  <MODEL>
5

>  <REMARK>
 VINA RESULT:      -7.4      4.490      7.931
  Name = 
  4 active torsions:
  status: ('A' for Active; 'I' for Inactive)
    1  A    between atoms: C_7  and  O_28
    2  A    between atoms: C_15  and  C_26
    3  A    between atoms: C_15  and  O_28
    4  A    between atoms: C_17  and  C_26
                            x       y       z     vdW  Elec       q    Type
                         _______ _______ _______ _____ _____    ______ ____

>  <TORSDO>
F 4

$$$$
=
 OpenBabel10232408363D

 28 31  0  0  1  0  0  0  0  0999 V2000
  187.7950  178.3350  139.6290 C   0  0  0  0  0  3  0  0  0  0  0  0
  187.9870  178.0390  146.2600 C   0  0  0  0  0  3  0  0  0  0  0  0
  185.8340  178.7150  145.5350 C   0  0  0  0  0  0  0  0  0  0  0  0
  185.0120  179.0620  144.4190 N   0  0  0  0  0  0  0  0  0  0  0  0
  190.1540  178.0390  139.2050 C   0  0  0  0  0  3  0  0  0  0  0  0
  188.6100  175.6900  143.0270 C   0  0  0  0  0  2  0  0  0  0  0  0
  188.8900  178.4610  138.7720 C   0  0  0  0  0  0  0  0  0  0  0  0
  189.4530  177.0060  146.2030 S   0  0  0  0  0  0  0  0  0  0  0  0
  190.3110  177.4790  140.4740 C   0  0  0  0  0  3  0  0  0  0  0  0
  185.4070  178.9880  146.7250 N   0  0  0  0  0  2  0  0  0  0  0  0
  187.9440  177.7820  140.9080 C   0  0  0  0  0  0  0  0  0  0  0  0
  189.2140  177.3320  141.3350 C   0  0  0  0  0  0  0  0  0  0  0  0
  185.4560  179.2000  143.2120 C   0  0  0  0  0  0  0  0  0  0  0  0
  186.4540  179.1910  142.2630 C   0  0  2  0  0  3  0  0  0  0  0  0
  190.9700  176.8760  143.5170 S   0  0  0  0  0  0  0  0  0  0  0  0
  185.2250  179.5380  141.7720 O   0  0  0  0  0  0  0  0  0  0  0  0
  189.4220  176.6680  142.6390 C   0  0  0  0  0  0  0  0  0  0  0  0
  187.0550  177.9770  145.3630 N   0  0  0  0  0  0  0  0  0  0  0  0
  186.7620  177.7730  141.8260 C   0  0  0  0  0  2  0  0  0  0  0  0
  190.3850  179.0680  144.8470 O   0  0  0  0  0  0  0  0  0  0  0  0
  190.2460  177.8550  144.8350 C   0  0  0  0  0  0  0  0  0  0  0  0
  188.6950  179.0140  137.5030 O   0  0  0  0  0  0  0  0  0  0  0  0
  187.6720  178.5720  136.6220 C   0  0  0  0  0  2  0  0  0  0  0  0
  188.1110  177.2950  135.9390 C   0  0  0  0  0  2  0  0  0  0  0  0
  187.1900  176.1530  136.3510 C   0  0  2  0  0  3  0  0  0  0  0  0
  187.8590  174.9660  136.9710 C   0  0  1  0  0  3  0  0  0  0  0  0
  187.5110  175.0030  135.6060 O   0  0  0  0  0  0  0  0  0  0  0  0
  189.3740  175.0560  137.1060 C   0  0  0  0  0  1  0  0  0  0  0  0
  1 11  1  0  0  0  0
  3 10  2  0  0  0  0
  4  3  1  0  0  0  0
  5  9  2  0  0  0  0
  7  5  1  0  0  0  0
  7  1  2  0  0  0  0
  8  2  1  0  0  0  0
  9 12  1  0  0  0  0
 11 12  2  0  0  0  0
 11 19  1  0  0  0  0
 12 17  1  0  0  0  0
 13  4  2  0  0  0  0
 14 19  1  6  0  0  0
 14 13  1  0  0  0  0
 15 21  1  0  0  0  0
 16 14  1  0  0  0  0
 16 13  1  0  0  0  0
 17  6  2  0  0  0  0
 17 15  1  0  0  0  0
 18  3  1  0  0  0  0
 18  2  2  0  0  0  0
 21 20  2  0  0  0  0
 21  8  1  0  0  0  0
 22  7  1  0  0  0  0
 23 22  1  0  0  0  0
 24 23  1  0  0  0  0
 25 24  1  6  0  0  0
 25 26  1  0  0  0  0
 26 28  1  6  0  0  0
 27 25  1  0  0  0  0
 27 26  1  0  0  0  0
M  END
>  <MODEL>
6

>  <REMARK>
 VINA RESULT:      -7.2      4.167      6.227
  Name = 
  4 active torsions:
  status: ('A' for Active; 'I' for Inactive)
    1  A    between atoms: C_7  and  O_28
    2  A    between atoms: C_15  and  C_26
    3  A    between atoms: C_15  and  O_28
    4  A    between atoms: C_17  and  C_26
                            x       y       z     vdW  Elec       q    Type
                         _______ _______ _______ _____ _____    ______ ____

>  <TORSDO>
F 4

$$$$
=
 OpenBabel10232408363D

 28 31  0  0  1  0  0  0  0  0999 V2000
  187.2070  177.8580  140.5990 C   0  0  0  0  0  3  0  0  0  0  0  0
  190.0870  177.5270  146.5730 C   0  0  0  0  0  3  0  0  0  0  0  0
  187.7300  177.6320  146.8070 C   0  0  0  0  0  0  0  0  0  0  0  0
  186.4760  177.7700  146.1370 N   0  0  0  0  0  0  0  0  0  0  0  0
  189.2000  178.1890  139.2760 C   0  0  0  0  0  3  0  0  0  0  0  0
  189.8980  175.4660  143.0980 C   0  0  0  0  0  2  0  0  0  0  0  0
  187.8070  178.2750  139.4100 C   0  0  0  0  0  0  0  0  0  0  0  0
  191.6050  176.9100  145.8420 S   0  0  0  0  0  0  0  0  0  0  0  0
  189.9750  177.6710  140.3150 C   0  0  0  0  0  3  0  0  0  0  0  0
  187.7620  177.7680  148.0930 N   0  0  0  0  0  2  0  0  0  0  0  0
  187.9770  177.3440  141.6520 C   0  0  0  0  0  0  0  0  0  0  0  0
  189.3780  177.2330  141.5070 C   0  0  0  0  0  0  0  0  0  0  0  0
  186.3570  178.0360  144.8770 C   0  0  0  0  0  0  0  0  0  0  0  0
  186.8670  178.2990  143.6250 C   0  0  2  0  0  3  0  0  0  0  0  0
  191.9120  177.2160  142.7850 S   0  0  0  0  0  0  0  0  0  0  0  0
  185.5010  178.3230  143.6830 O   0  0  0  0  0  0  0  0  0  0  0  0
  190.2360  176.6260  142.5460 C   0  0  0  0  0  0  0  0  0  0  0  0
  188.9170  177.2380  146.0980 N   0  0  0  0  0  0  0  0  0  0  0  0
  187.2950  177.0160  142.9420 C   0  0  0  0  0  2  0  0  0  0  0  0
  191.4130  179.1620  144.4820 O   0  0  0  0  0  0  0  0  0  0  0  0
  191.5670  177.9550  144.3830 C   0  0  0  0  0  0  0  0  0  0  0  0
  187.0010  178.7770  138.3840 O   0  0  0  0  0  0  0  0  0  0  0  0
  185.9290  178.0360  137.8190 C   0  0  0  0  0  2  0  0  0  0  0  0
  184.6170  178.5320  138.3910 C   0  0  0  0  0  2  0  0  0  0  0  0
  183.4720  177.6870  137.8470 C   0  0  2  0  0  3  0  0  0  0  0  0
  182.6070  177.0240  138.8720 C   0  0  1  0  0  3  0  0  0  0  0  0
  183.6610  176.3460  138.2310 O   0  0  0  0  0  0  0  0  0  0  0  0
  182.9860  177.2820  140.3260 C   0  0  0  0  0  1  0  0  0  0  0  0
  1 11  1  0  0  0  0
  3 10  2  0  0  0  0
  4  3  1  0  0  0  0
  5  7  1  0  0  0  0
  5  9  2  0  0  0  0
  7  1  2  0  0  0  0
  8  2  1  0  0  0  0
  9 12  1  0  0  0  0
 11 19  1  0  0  0  0
 12 11  2  0  0  0  0
 12 17  1  0  0  0  0
 13  4  2  0  0  0  0
 14 19  1  6  0  0  0
 14 16  1  0  0  0  0
 14 13  1  0  0  0  0
 15 21  1  0  0  0  0
 16 13  1  0  0  0  0
 17 15  1  0  0  0  0
 17  6  2  0  0  0  0
 18  2  2  0  0  0  0
 18  3  1  0  0  0  0
 21 20  2  0  0  0  0
 21  8  1  0  0  0  0
 22  7  1  0  0  0  0
 23 22  1  0  0  0  0
 23 24  1  0  0  0  0
 25 27  1  0  0  0  0
 25 24  1  1  0  0  0
 25 26  1  0  0  0  0
 26 28  1  1  0  0  0
 27 26  1  0  0  0  0
M  END
>  <MODEL>
7

>  <REMARK>
 VINA RESULT:      -7.1      2.795      4.053
  Name = 
  4 active torsions:
  status: ('A' for Active; 'I' for Inactive)
    1  A    between atoms: C_7  and  O_28
    2  A    between atoms: C_15  and  C_26
    3  A    between atoms: C_15  and  O_28
    4  A    between atoms: C_17  and  C_26
                            x       y       z     vdW  Elec       q    Type
                         _______ _______ _______ _____ _____    ______ ____

>  <TORSDO>
F 4

$$$$
=
 OpenBabel10232408363D

 28 31  0  0  1  0  0  0  0  0999 V2000
  185.2260  178.5470  143.9920 C   0  0  0  0  0  3  0  0  0  0  0  0
  184.6780  178.7980  137.3790 C   0  0  0  0  0  3  0  0  0  0  0  0
  186.9130  178.3070  137.9950 C   0  0  0  0  0  0  0  0  0  0  0  0
  187.8400  178.1450  139.0700 N   0  0  0  0  0  0  0  0  0  0  0  0
  183.0360  179.3960  144.5490 C   0  0  0  0  0  3  0  0  0  0  0  0
  183.1120  176.8410  140.5530 C   0  0  0  0  0  2  0  0  0  0  0  0
  184.3610  179.1300  144.9190 C   0  0  0  0  0  0  0  0  0  0  0  0
  182.8980  178.5970  137.4880 S   0  0  0  0  0  0  0  0  0  0  0  0
  182.5820  179.0630  143.2720 C   0  0  0  0  0  3  0  0  0  0  0  0
  187.3770  178.4150  136.7920 N   0  0  0  0  0  2  0  0  0  0  0  0
  184.7830  178.2160  142.7040 C   0  0  0  0  0  0  0  0  0  0  0  0
  183.4400  178.4610  142.3400 C   0  0  0  0  0  0  0  0  0  0  0  0
  187.5620  178.4030  140.3060 C   0  0  0  0  0  0  0  0  0  0  0  0
  186.7190  178.8160  141.3140 C   0  0  2  0  0  3  0  0  0  0  0  0
  181.6050  179.0450  140.2550 S   0  0  0  0  0  0  0  0  0  0  0  0
  187.9790  178.4970  141.7410 O   0  0  0  0  0  0  0  0  0  0  0  0
  182.8890  178.0620  141.0270 C   0  0  0  0  0  0  0  0  0  0  0  0
  185.4950  178.2390  138.2140 N   0  0  0  0  0  0  0  0  0  0  0  0
  185.7790  177.6960  141.7160 C   0  0  0  0  0  2  0  0  0  0  0  0
  183.1300  180.7630  138.9750 O   0  0  0  0  0  0  0  0  0  0  0  0
  182.6650  179.6350  138.9330 C   0  0  0  0  0  0  0  0  0  0  0  0
  184.8440  179.4400  146.1940 O   0  0  0  0  0  0  0  0  0  0  0  0
  185.2730  178.4460  147.1140 C   0  0  0  0  0  2  0  0  0  0  0  0
  186.7570  178.6010  147.3680 C   0  0  0  0  0  2  0  0  0  0  0  0
  187.5110  177.4560  146.7020 C   0  0  2  0  0  3  0  0  0  0  0  0
  188.8720  177.1640  147.2510 C   0  0  1  0  0  3  0  0  0  0  0  0
  188.6810  177.9570  146.1020 O   0  0  0  0  0  0  0  0  0  0  0  0
  189.3250  178.0520  148.4030 C   0  0  0  0  0  1  0  0  0  0  0  0
  1  7  1  0  0  0  0
  2  8  1  0  0  0  0
  2 18  2  0  0  0  0
  3 18  1  0  0  0  0
  3  4  1  0  0  0  0
  4 13  2  0  0  0  0
  5  7  2  0  0  0  0
  6 17  2  0  0  0  0
  7 22  1  0  0  0  0
  8 21  1  0  0  0  0
  9  5  1  0  0  0  0
 10  3  2  0  0  0  0
 11  1  2  0  0  0  0
 12 11  1  0  0  0  0
 12  9  2  0  0  0  0
 13 14  1  0  0  0  0
 13 16  1  0  0  0  0
 14 19  1  1  0  0  0
 14 16  1  0  0  0  0
 15 17  1  0  0  0  0
 17 12  1  0  0  0  0
 19 11  1  0  0  0  0
 21 20  2  0  0  0  0
 21 15  1  0  0  0  0
 22 23  1  0  0  0  0
 23 24  1  0  0  0  0
 25 26  1  0  0  0  0
 25 24  1  1  0  0  0
 26 28  1  1  0  0  0
 27 25  1  0  0  0  0
 27 26  1  0  0  0  0
M  END
>  <MODEL>
8

>  <REMARK>
 VINA RESULT:      -6.6      4.364      7.611
  Name = 
  4 active torsions:
  status: ('A' for Active; 'I' for Inactive)
    1  A    between atoms: C_7  and  O_28
    2  A    between atoms: C_15  and  C_26
    3  A    between atoms: C_15  and  O_28
    4  A    between atoms: C_17  and  C_26
                            x       y       z     vdW  Elec       q    Type
                         _______ _______ _______ _____ _____    ______ ____

>  <TORSDO>
F 4

$$$$
=
 OpenBabel10232408363D

 28 31  0  0  1  0  0  0  0  0999 V2000
  188.3460  178.1370  139.1140 C   0  0  0  0  0  3  0  0  0  0  0  0
  182.5240  176.3320  136.4800 C   0  0  0  0  0  3  0  0  0  0  0  0
  182.2490  178.2670  137.8200 C   0  0  0  0  0  0  0  0  0  0  0  0
  182.8750  179.1960  138.7060 N   0  0  0  0  0  0  0  0  0  0  0  0
  189.6270  176.1920  138.4780 C   0  0  0  0  0  3  0  0  0  0  0  0
  186.2660  177.3520  135.3370 C   0  0  0  0  0  2  0  0  0  0  0  0
  189.4650  177.3220  139.2900 C   0  0  0  0  0  0  0  0  0  0  0  0
  183.3570  175.3390  135.2390 S   0  0  0  0  0  0  0  0  0  0  0  0
  188.6870  175.8960  137.4900 C   0  0  0  0  0  3  0  0  0  0  0  0
  180.9570  178.2610  137.7450 N   0  0  0  0  0  2  0  0  0  0  0  0
  187.3920  177.8450  138.1300 C   0  0  0  0  0  0  0  0  0  0  0  0
  187.5680  176.7200  137.2940 C   0  0  0  0  0  0  0  0  0  0  0  0
  184.0800  179.0620  139.1580 C   0  0  0  0  0  0  0  0  0  0  0  0
  185.2840  178.4020  139.2640 C   0  0  2  0  0  3  0  0  0  0  0  0
  186.3370  174.6960  135.7310 S   0  0  0  0  0  0  0  0  0  0  0  0
  185.2060  179.5390  140.0210 O   0  0  0  0  0  0  0  0  0  0  0  0
  186.6420  176.4020  136.1860 C   0  0  0  0  0  0  0  0  0  0  0  0
  183.0230  177.4340  136.9410 N   0  0  0  0  0  0  0  0  0  0  0  0
  186.1570  178.6870  138.0580 C   0  0  0  0  0  2  0  0  0  0  0  0
  184.3610  174.1860  137.3890 O   0  0  0  0  0  0  0  0  0  0  0  0
  184.6420  174.7020  136.3190 C   0  0  0  0  0  0  0  0  0  0  0  0
  190.3950  177.6530  140.2810 O   0  0  0  0  0  0  0  0  0  0  0  0
  190.4400  176.9980  141.5400 C   0  0  0  0  0  2  0  0  0  0  0  0
  189.7250  177.8430  142.5740 C   0  0  0  0  0  2  0  0  0  0  0  0
  188.3060  177.3220  142.7650 C   0  0  2  0  0  3  0  0  0  0  0  0
  187.9010  177.0370  144.1770 C   0  0  1  0  0  3  0  0  0  0  0  0
  188.3560  176.0250  143.3100 O   0  0  0  0  0  0  0  0  0  0  0  0
  188.9620  177.3040  145.2380 C   0  0  0  0  0  1  0  0  0  0  0  0
  1  7  1  0  0  0  0
  2 18  2  0  0  0  0
  3  4  1  0  0  0  0
  4 13  2  0  0  0  0
  5  7  2  0  0  0  0
  6 17  2  0  0  0  0
  7 22  1  0  0  0  0
  8 21  1  0  0  0  0
  8  2  1  0  0  0  0
  9  5  1  0  0  0  0
 10  3  2  0  0  0  0
 11  1  2  0  0  0  0
 12  9  2  0  0  0  0
 12 11  1  0  0  0  0
 13 14  1  0  0  0  0
 13 16  1  0  0  0  0
 14 19  1  6  0  0  0
 14 16  1  0  0  0  0
 15 17  1  0  0  0  0
 15 21  1  0  0  0  0
 17 12  1  0  0  0  0
 18  3  1  0  0  0  0
 19 11  1  0  0  0  0
 21 20  2  0  0  0  0
 22 23  1  0  0  0  0
 23 24  1  0  0  0  0
 25 24  1  1  0  0  0
 25 27  1  0  0  0  0
 25 26  1  0  0  0  0
 26 28  1  1  0  0  0
 27 26  1  0  0  0  0
M  END
>  <MODEL>
9

>  <REMARK>
 VINA RESULT:      -6.3      5.987      9.229
  Name = 
  4 active torsions:
  status: ('A' for Active; 'I' for Inactive)
    1  A    between atoms: C_7  and  O_28
    2  A    between atoms: C_15  and  C_26
    3  A    between atoms: C_15  and  O_28
    4  A    between atoms: C_17  and  C_26
                            x       y       z     vdW  Elec       q    Type
                         _______ _______ _______ _____ _____    ______ ____

>  <TORSDO>
F 4

$$$$
