=
 OpenBabel10232408133D

 32 34  0  0  1  0  0  0  0  0999 V2000
  188.9560  176.8950  141.5890 C   0  0  1  0  0  3  0  0  0  0  0  0
  191.7580  178.6340  143.7550 C   0  0  0  0  0  2  0  0  0  0  0  0
  191.2360  178.1220  145.1070 C   0  0  2  0  0  3  0  0  0  0  0  0
  189.9940  177.0450  142.7050 C   0  0  1  0  0  3  0  0  0  0  0  0
  189.2830  177.2980  147.5020 C   0  0  1  0  0  0  0  0  0  0  0  0
  188.9060  177.8370  148.7310 O   0  0  0  0  0  1  0  0  0  0  0  0
  188.4530  176.2240  147.2280 F   0  0  0  0  0  0  0  0  0  0  0  0
  190.7540  175.7310  142.9270 C   0  0  0  0  0  2  0  0  0  0  0  0
  189.0680  178.3520  146.4400 C   0  0  0  0  0  3  0  0  0  0  0  0
  191.7780  175.7730  144.0650 C   0  0  0  0  0  2  0  0  0  0  0  0
  191.1370  176.0190  146.4080 C   0  0  0  0  0  3  0  0  0  0  0  0
  191.3330  176.6140  145.2290 C   0  0  0  0  0  0  0  0  0  0  0  0
  189.8680  178.6830  145.4100 C   0  0  0  0  0  3  0  0  0  0  0  0
  190.7250  176.8000  147.6210 C   0  0  0  0  0  2  0  0  0  0  0  0
  190.8920  178.2830  142.5320 C   0  0  0  0  0  2  0  0  0  0  0  0
  185.9300  178.2310  142.8760 C   0  0  0  0  0  0  0  0  0  0  0  0
  186.9180  177.3250  142.9710 N   0  0  0  0  0  0  0  0  0  0  0  0
  186.1150  179.0500  141.7780 C   0  0  0  0  0  3  0  0  0  0  0  0
  187.6870  177.6230  141.9070 C   0  0  0  0  0  0  0  0  0  0  0  0
  187.2220  178.6360  141.2080 O   0  0  0  0  0  0  0  0  0  0  0  0
  184.9300  178.8460  145.1360 C   0  0  0  0  0  0  0  0  0  0  0  0
  183.7680  178.8590  145.9580 N   0  0  0  0  0  1  0  0  0  0  0  0
  184.8500  178.3030  143.8150 N   0  0  0  0  0  2  0  0  0  0  0  0
  186.0110  179.3130  145.5840 O   0  0  0  0  0  0  0  0  0  0  0  0
  189.1050  178.2650  139.6210 O   0  0  0  0  0  0  0  0  0  0  0  0
  190.4010  176.3240  139.6010 N   0  0  0  0  0  2  0  0  0  0  0  0
  189.4760  177.2170  140.2190 C   0  0  0  0  0  0  0  0  0  0  0  0
  190.9490  176.5780  138.2780 C   0  0  0  0  0  2  0  0  0  0  0  0
  191.9180  175.4720  137.8960 C   0  0  1  0  0  3  0  0  0  0  0  0
  191.1980  174.2350  137.6390 N   0  0  0  0  0  1  0  0  0  0  0  0
  192.7420  175.8680  136.6770 C   0  0  0  0  0  2  0  0  0  0  0  0
  194.1140  176.1740  137.0500 N   0  0  0  0  0  1  0  0  0  0  0  0
  1 27  1  6  0  0  0
  1 19  1  0  0  0  0
  3  2  1  6  0  0  0
  3 12  1  0  0  0  0
  3 13  1  0  0  0  0
  4  1  1  6  0  0  0
  4  8  1  0  0  0  0
  5  7  1  6  0  0  0
  5 14  1  0  0  0  0
  5  6  1  0  0  0  0
  8 10  1  0  0  0  0
  9  5  1  0  0  0  0
 10 12  1  0  0  0  0
 11 14  1  0  0  0  0
 12 11  2  0  0  0  0
 13  9  2  0  0  0  0
 15  4  1  0  0  0  0
 15  2  1  0  0  0  0
 16 17  1  0  0  0  0
 16 23  1  0  0  0  0
 18 16  2  0  0  0  0
 19 17  2  0  0  0  0
 20 18  1  0  0  0  0
 20 19  1  0  0  0  0
 21 24  2  0  0  0  0
 21 22  1  0  0  0  0
 23 21  1  0  0  0  0
 25 27  2  0  0  0  0
 26 27  1  0  0  0  0
 28 26  1  0  0  0  0
 29 30  1  6  0  0  0
 29 28  1  0  0  0  0
 31 32  1  0  0  0  0
 31 29  1  0  0  0  0
M  END
>  <MODEL>
1

>  <REMARK>
 VINA RESULT:      -8.4      0.000      0.000
  Name = 
  7 active torsions:
  status: ('A' for Active; 'I' for Inactive)
    1  A    between atoms: N_5  and  C_11
    2  A    between atoms: C_6  and  C_26
    3  A    between atoms: C_10  and  N_16
    4  A    between atoms: C_11  and  C_12
    5  A    between atoms: C_12  and  C_17
    6  A    between atoms: C_20  and  C_26
    7  A    between atoms: C_21  and  C_26
                            x       y       z     vdW  Elec       q    Type
                         _______ _______ _______ _____ _____    ______ ____

>  <TORSDO>
F 7

$$$$
=
 OpenBabel10232408133D

 32 34  0  0  1  0  0  0  0  0999 V2000
  188.9630  176.8840  141.5990 C   0  0  1  0  0  3  0  0  0  0  0  0
  191.7540  178.6520  143.7550 C   0  0  0  0  0  2  0  0  0  0  0  0
  191.2410  178.1360  145.1080 C   0  0  2  0  0  3  0  0  0  0  0  0
  190.0030  177.0450  142.7110 C   0  0  1  0  0  3  0  0  0  0  0  0
  189.3020  177.2970  147.5100 C   0  0  1  0  0  0  0  0  0  0  0  0
  188.9240  177.8340  148.7390 O   0  0  0  0  0  1  0  0  0  0  0  0
  188.4820  176.2150  147.2390 F   0  0  0  0  0  0  0  0  0  0  0  0
  190.7760  175.7390  142.9330 C   0  0  0  0  0  2  0  0  0  0  0  0
  189.0740  178.3480  146.4470 C   0  0  0  0  0  3  0  0  0  0  0  0
  191.8030  175.7920  144.0680 C   0  0  0  0  0  2  0  0  0  0  0  0
  191.1660  176.0340  146.4130 C   0  0  0  0  0  3  0  0  0  0  0  0
  191.3530  176.6300  145.2330 C   0  0  0  0  0  0  0  0  0  0  0  0
  189.8690  178.6850  145.4140 C   0  0  0  0  0  3  0  0  0  0  0  0
  190.7490  176.8130  147.6250 C   0  0  0  0  0  2  0  0  0  0  0  0
  190.8880  178.2910  142.5340 C   0  0  0  0  0  2  0  0  0  0  0  0
  185.9400  178.2530  142.8560 C   0  0  0  0  0  0  0  0  0  0  0  0
  186.9160  177.3350  142.9590 N   0  0  0  0  0  0  0  0  0  0  0  0
  186.1470  179.0720  141.7620 C   0  0  0  0  0  3  0  0  0  0  0  0
  187.6990  177.6260  141.9040 C   0  0  0  0  0  0  0  0  0  0  0  0
  187.2550  178.6460  141.2030 O   0  0  0  0  0  0  0  0  0  0  0  0
  184.9320  178.8370  145.1210 C   0  0  0  0  0  0  0  0  0  0  0  0
  183.7610  178.8670  145.9280 N   0  0  0  0  0  1  0  0  0  0  0  0
  184.8510  178.3360  143.7830 N   0  0  0  0  0  2  0  0  0  0  0  0
  186.0230  179.2510  145.5960 O   0  0  0  0  0  0  0  0  0  0  0  0
  189.2570  178.2920  139.6750 O   0  0  0  0  0  0  0  0  0  0  0  0
  190.2490  176.1830  139.5430 N   0  0  0  0  0  2  0  0  0  0  0  0
  189.4850  177.1780  140.2230 C   0  0  0  0  0  0  0  0  0  0  0  0
  190.7900  176.4050  138.2120 C   0  0  0  0  0  2  0  0  0  0  0  0
  190.2050  175.3950  137.2390 C   0  0  1  0  0  3  0  0  0  0  0  0
  190.5870  174.0450  137.6190 N   0  0  0  0  0  1  0  0  0  0  0  0
  188.6870  175.5190  137.1760 C   0  0  0  0  0  2  0  0  0  0  0  0
  188.2430  175.8340  135.8270 N   0  0  0  0  0  1  0  0  0  0  0  0
  1 27  1  6  0  0  0
  1 19  1  0  0  0  0
  3  2  1  6  0  0  0
  3 12  1  0  0  0  0
  3 13  1  0  0  0  0
  4  1  1  6  0  0  0
  4  8  1  0  0  0  0
  5  7  1  6  0  0  0
  5 14  1  0  0  0  0
  5  6  1  0  0  0  0
  8 10  1  0  0  0  0
  9  5  1  0  0  0  0
 10 12  1  0  0  0  0
 11 14  1  0  0  0  0
 12 11  2  0  0  0  0
 13  9  2  0  0  0  0
 15  4  1  0  0  0  0
 15  2  1  0  0  0  0
 16 17  1  0  0  0  0
 16 23  1  0  0  0  0
 18 16  2  0  0  0  0
 19 17  2  0  0  0  0
 20 18  1  0  0  0  0
 20 19  1  0  0  0  0
 21 24  2  0  0  0  0
 21 22  1  0  0  0  0
 23 21  1  0  0  0  0
 25 27  2  0  0  0  0
 26 27  1  0  0  0  0
 28 26  1  0  0  0  0
 29 30  1  1  0  0  0
 29 28  1  0  0  0  0
 31 29  1  0  0  0  0
 32 31  1  0  0  0  0
M  END
>  <MODEL>
2

>  <REMARK>
 VINA RESULT:      -8.2      0.911      1.333
  Name = 
  7 active torsions:
  status: ('A' for Active; 'I' for Inactive)
    1  A    between atoms: N_5  and  C_11
    2  A    between atoms: C_6  and  C_26
    3  A    between atoms: C_10  and  N_16
    4  A    between atoms: C_11  and  C_12
    5  A    between atoms: C_12  and  C_17
    6  A    between atoms: C_20  and  C_26
    7  A    between atoms: C_21  and  C_26
                            x       y       z     vdW  Elec       q    Type
                         _______ _______ _______ _____ _____    ______ ____

>  <TORSDO>
F 7

$$$$
=
 OpenBabel10232408133D

 32 34  0  0  1  0  0  0  0  0999 V2000
  188.9950  176.7330  141.6350 C   0  0  1  0  0  3  0  0  0  0  0  0
  191.8280  178.5510  143.6930 C   0  0  0  0  0  2  0  0  0  0  0  0
  191.3320  178.0830  145.0690 C   0  0  2  0  0  3  0  0  0  0  0  0
  190.0520  176.9230  142.7260 C   0  0  1  0  0  3  0  0  0  0  0  0
  189.4240  177.3310  147.5250 C   0  0  1  0  0  0  0  0  0  0  0  0
  189.0680  177.9100  148.7410 O   0  0  0  0  0  1  0  0  0  0  0  0
  188.5940  176.2470  147.3010 F   0  0  0  0  0  0  0  0  0  0  0  0
  190.8210  175.6200  142.9780 C   0  0  0  0  0  2  0  0  0  0  0  0
  189.1870  178.3490  146.4320 C   0  0  0  0  0  3  0  0  0  0  0  0
  191.8650  175.7030  144.0960 C   0  0  0  0  0  2  0  0  0  0  0  0
  191.2640  176.0240  146.4410 C   0  0  0  0  0  3  0  0  0  0  0  0
  191.4370  176.5800  145.2400 C   0  0  0  0  0  0  0  0  0  0  0  0
  189.9670  178.6490  145.3780 C   0  0  0  0  0  3  0  0  0  0  0  0
  190.8700  176.8430  147.6340 C   0  0  0  0  0  2  0  0  0  0  0  0
  190.9410  178.1570  142.4970 C   0  0  0  0  0  2  0  0  0  0  0  0
  186.0450  178.3240  142.8020 C   0  0  0  0  0  0  0  0  0  0  0  0
  186.9710  177.3630  142.9590 N   0  0  0  0  0  0  0  0  0  0  0  0
  186.2970  179.0710  141.6660 C   0  0  0  0  0  3  0  0  0  0  0  0
  187.7710  177.5550  141.8940 C   0  0  0  0  0  0  0  0  0  0  0  0
  187.3820  178.5580  141.1360 O   0  0  0  0  0  0  0  0  0  0  0  0
  183.5780  178.6200  143.3630 C   0  0  0  0  0  0  0  0  0  0  0  0
  182.6060  178.7980  144.3860 N   0  0  0  0  0  1  0  0  0  0  0  0
  184.9600  178.5130  143.7180 N   0  0  0  0  0  2  0  0  0  0  0  0
  183.2100  178.5600  142.1600 O   0  0  0  0  0  0  0  0  0  0  0  0
  190.4140  176.1340  139.7920 O   0  0  0  0  0  0  0  0  0  0  0  0
  188.9820  177.9380  139.4180 N   0  0  0  0  0  2  0  0  0  0  0  0
  189.5170  176.9010  140.2380 C   0  0  0  0  0  0  0  0  0  0  0  0
  189.4380  178.1520  138.0540 C   0  0  0  0  0  2  0  0  0  0  0  0
  188.2500  178.4250  137.1460 C   0  0  1  0  0  3  0  0  0  0  0  0
  188.5330  177.9750  135.7930 N   0  0  0  0  0  1  0  0  0  0  0  0
  186.9930  177.7480  137.6780 C   0  0  0  0  0  2  0  0  0  0  0  0
  185.9660  178.7270  137.9970 N   0  0  0  0  0  1  0  0  0  0  0  0
  1 27  1  6  0  0  0
  1 19  1  0  0  0  0
  3  2  1  6  0  0  0
  3 12  1  0  0  0  0
  3 13  1  0  0  0  0
  4  1  1  6  0  0  0
  4  8  1  0  0  0  0
  5  7  1  6  0  0  0
  5 14  1  0  0  0  0
  5  6  1  0  0  0  0
  8 10  1  0  0  0  0
  9  5  1  0  0  0  0
 10 12  1  0  0  0  0
 11 14  1  0  0  0  0
 12 11  2  0  0  0  0
 13  9  2  0  0  0  0
 15  4  1  0  0  0  0
 15  2  1  0  0  0  0
 16 17  1  0  0  0  0
 16 23  1  0  0  0  0
 18 16  2  0  0  0  0
 19 17  2  0  0  0  0
 20 18  1  0  0  0  0
 20 19  1  0  0  0  0
 21 23  1  0  0  0  0
 21 22  1  0  0  0  0
 24 21  2  0  0  0  0
 25 27  2  0  0  0  0
 26 27  1  0  0  0  0
 28 26  1  0  0  0  0
 29 30  1  6  0  0  0
 29 31  1  0  0  0  0
 29 28  1  0  0  0  0
 31 32  1  0  0  0  0
M  END
>  <MODEL>
3

>  <REMARK>
 VINA RESULT:      -7.9      2.035      2.525
  Name = 
  7 active torsions:
  status: ('A' for Active; 'I' for Inactive)
    1  A    between atoms: N_5  and  C_11
    2  A    between atoms: C_6  and  C_26
    3  A    between atoms: C_10  and  N_16
    4  A    between atoms: C_11  and  C_12
    5  A    between atoms: C_12  and  C_17
    6  A    between atoms: C_20  and  C_26
    7  A    between atoms: C_21  and  C_26
                            x       y       z     vdW  Elec       q    Type
                         _______ _______ _______ _____ _____    ______ ____

>  <TORSDO>
F 7

$$$$
=
 OpenBabel10232408133D

 32 34  0  0  1  0  0  0  0  0999 V2000
  188.5510  178.3670  140.4840 C   0  0  1  0  0  3  0  0  0  0  0  0
  189.6420  176.0880  137.4530 C   0  0  0  0  0  2  0  0  0  0  0  0
  188.3400  176.2700  136.6580 C   0  0  2  0  0  3  0  0  0  0  0  0
  188.6980  177.9260  139.0250 C   0  0  1  0  0  3  0  0  0  0  0  0
  185.2410  176.5360  135.9100 C   0  0  1  0  0  0  0  0  0  0  0  0
  184.2680  175.7250  135.3300 O   0  0  0  0  0  1  0  0  0  0  0  0
  184.6190  177.6640  136.4180 F   0  0  0  0  0  0  0  0  0  0  0  0
  188.9790  179.1290  138.1140 C   0  0  0  0  0  2  0  0  0  0  0  0
  185.8650  175.7760  137.0590 C   0  0  0  0  0  3  0  0  0  0  0  0
  189.0860  178.7870  136.6250 C   0  0  0  0  0  2  0  0  0  0  0  0
  187.1850  177.9970  135.3120 C   0  0  0  0  0  3  0  0  0  0  0  0
  188.1390  177.7010  136.1980 C   0  0  0  0  0  0  0  0  0  0  0  0
  187.1630  175.6850  137.4010 C   0  0  0  0  0  3  0  0  0  0  0  0
  186.2260  176.9550  134.8170 C   0  0  0  0  0  2  0  0  0  0  0  0
  189.6690  176.7460  138.8450 C   0  0  0  0  0  2  0  0  0  0  0  0
  185.3970  179.0260  141.9700 C   0  0  0  0  0  0  0  0  0  0  0  0
  186.7190  178.8330  142.1170 N   0  0  0  0  0  0  0  0  0  0  0  0
  185.0280  178.9200  140.6420 C   0  0  0  0  0  3  0  0  0  0  0  0
  187.1210  178.6090  140.8530 C   0  0  0  0  0  0  0  0  0  0  0  0
  186.1340  178.6630  139.9850 O   0  0  0  0  0  0  0  0  0  0  0  0
  184.6710  178.7910  144.4000 C   0  0  0  0  0  0  0  0  0  0  0  0
  183.7300  179.1630  145.4000 N   0  0  0  0  0  1  0  0  0  0  0  0
  184.5250  179.3050  143.0730 N   0  0  0  0  0  2  0  0  0  0  0  0
  185.6180  178.0160  144.6970 O   0  0  0  0  0  0  0  0  0  0  0  0
  188.7030  176.4290  141.8960 O   0  0  0  0  0  0  0  0  0  0  0  0
  190.5660  177.8350  141.9080 N   0  0  0  0  0  2  0  0  0  0  0  0
  189.2570  177.4790  141.4670 C   0  0  0  0  0  0  0  0  0  0  0  0
  191.3080  177.0170  142.8530 C   0  0  0  0  0  2  0  0  0  0  0  0
  191.6010  177.8150  144.1130 C   0  0  1  0  0  3  0  0  0  0  0  0
  191.3100  179.2230  143.8990 N   0  0  0  0  0  1  0  0  0  0  0  0
  190.7980  177.2810  145.2930 C   0  0  0  0  0  2  0  0  0  0  0  0
  191.6730  176.8990  146.3910 N   0  0  0  0  0  1  0  0  0  0  0  0
  1 19  1  0  0  0  0
  1 27  1  1  0  0  0
  2 15  1  0  0  0  0
  3 13  1  1  0  0  0
  3  2  1  0  0  0  0
  4  1  1  1  0  0  0
  5  6  1  6  0  0  0
  5  7  1  0  0  0  0
  5  9  1  0  0  0  0
  8  4  1  0  0  0  0
  9 13  2  0  0  0  0
 10  8  1  0  0  0  0
 11 12  2  0  0  0  0
 12 10  1  0  0  0  0
 12  3  1  0  0  0  0
 14 11  1  0  0  0  0
 14  5  1  0  0  0  0
 15  4  1  0  0  0  0
 16 17  1  0  0  0  0
 16 23  1  0  0  0  0
 18 16  2  0  0  0  0
 19 17  2  0  0  0  0
 20 18  1  0  0  0  0
 20 19  1  0  0  0  0
 21 24  2  0  0  0  0
 21 22  1  0  0  0  0
 23 21  1  0  0  0  0
 26 28  1  0  0  0  0
 27 25  2  0  0  0  0
 27 26  1  0  0  0  0
 28 29  1  0  0  0  0
 29 30  1  6  0  0  0
 29 31  1  0  0  0  0
 31 32  1  0  0  0  0
M  END
>  <MODEL>
4

>  <REMARK>
 VINA RESULT:      -7.6      3.808      7.321
  Name = 
  7 active torsions:
  status: ('A' for Active; 'I' for Inactive)
    1  A    between atoms: N_5  and  C_11
    2  A    between atoms: C_6  and  C_26
    3  A    between atoms: C_10  and  N_16
    4  A    between atoms: C_11  and  C_12
    5  A    between atoms: C_12  and  C_17
    6  A    between atoms: C_20  and  C_26
    7  A    between atoms: C_21  and  C_26
                            x       y       z     vdW  Elec       q    Type
                         _______ _______ _______ _____ _____    ______ ____

>  <TORSDO>
F 7

$$$$
=
 OpenBabel10232408133D

 32 34  0  0  1  0  0  0  0  0999 V2000
  188.4650  177.1470  141.8120 C   0  0  1  0  0  3  0  0  0  0  0  0
  190.6130  176.6070  138.5470 C   0  0  0  0  0  2  0  0  0  0  0  0
  189.4240  176.6810  137.5770 C   0  0  2  0  0  3  0  0  0  0  0  0
  188.9130  177.3520  140.3620 C   0  0  1  0  0  3  0  0  0  0  0  0
  186.5330  176.2810  136.2670 C   0  0  1  0  0  0  0  0  0  0  0  0
  185.9820  175.4980  135.2540 O   0  0  0  0  0  1  0  0  0  0  0  0
  185.4990  176.8960  136.9500 F   0  0  0  0  0  0  0  0  0  0  0  0
  188.8410  178.8330  139.9700 C   0  0  0  0  0  2  0  0  0  0  0  0
  187.2610  175.3660  137.2250 C   0  0  0  0  0  3  0  0  0  0  0  0
  189.2210  179.1250  138.5150 C   0  0  0  0  0  2  0  0  0  0  0  0
  187.8780  178.3620  136.6230 C   0  0  0  0  0  3  0  0  0  0  0  0
  188.7750  178.0510  137.5620 C   0  0  0  0  0  0  0  0  0  0  0  0
  188.4630  175.5400  137.8070 C   0  0  0  0  0  3  0  0  0  0  0  0
  187.4130  177.3500  135.6180 C   0  0  0  0  0  2  0  0  0  0  0  0
  190.2550  176.6700  140.0430 C   0  0  0  0  0  2  0  0  0  0  0  0
  191.0020  177.2350  144.2910 C   0  0  0  0  0  0  0  0  0  0  0  0
  190.0290  176.5500  143.6670 N   0  0  0  0  0  0  0  0  0  0  0  0
  191.1080  178.5160  143.7830 C   0  0  0  0  0  3  0  0  0  0  0  0
  189.5620  177.4520  142.7840 C   0  0  0  0  0  0  0  0  0  0  0  0
  190.1950  178.6030  142.8460 O   0  0  0  0  0  0  0  0  0  0  0  0
  191.4510  176.6280  146.7240 C   0  0  0  0  0  0  0  0  0  0  0  0
  192.3420  176.0230  147.6520 N   0  0  0  0  0  1  0  0  0  0  0  0
  191.8010  176.6680  145.3370 N   0  0  0  0  0  2  0  0  0  0  0  0
  190.3670  177.1200  147.1360 O   0  0  0  0  0  0  0  0  0  0  0  0
  186.5440  178.4910  141.2860 O   0  0  0  0  0  0  0  0  0  0  0  0
  186.6790  177.7440  143.4930 N   0  0  0  0  0  2  0  0  0  0  0  0
  187.1790  177.8380  142.1600 C   0  0  0  0  0  0  0  0  0  0  0  0
  185.4370  178.3830  143.8960 C   0  0  0  0  0  2  0  0  0  0  0  0
  185.5050  178.7710  145.3630 C   0  0  1  0  0  3  0  0  0  0  0  0
  184.1670  178.9130  145.9130 N   0  0  0  0  0  1  0  0  0  0  0  0
  186.3000  177.7440  146.1610 C   0  0  0  0  0  2  0  0  0  0  0  0
  186.8360  178.3280  147.3810 N   0  0  0  0  0  1  0  0  0  0  0  0
  1 27  1  1  0  0  0
  1 19  1  0  0  0  0
  2 15  1  0  0  0  0
  3 13  1  1  0  0  0
  3  2  1  0  0  0  0
  4  1  1  1  0  0  0
  5  6  1  6  0  0  0
  5  7  1  0  0  0  0
  5  9  1  0  0  0  0
  8  4  1  0  0  0  0
  9 13  2  0  0  0  0
 10  8  1  0  0  0  0
 11 12  2  0  0  0  0
 12  3  1  0  0  0  0
 12 10  1  0  0  0  0
 14  5  1  0  0  0  0
 14 11  1  0  0  0  0
 15  4  1  0  0  0  0
 16 23  1  0  0  0  0
 17 16  1  0  0  0  0
 18 16  2  0  0  0  0
 19 20  1  0  0  0  0
 19 17  2  0  0  0  0
 20 18  1  0  0  0  0
 21 24  2  0  0  0  0
 21 22  1  0  0  0  0
 23 21  1  0  0  0  0
 25 27  2  0  0  0  0
 26 28  1  0  0  0  0
 27 26  1  0  0  0  0
 28 29  1  0  0  0  0
 29 30  1  1  0  0  0
 29 31  1  0  0  0  0
 31 32  1  0  0  0  0
M  END
>  <MODEL>
5

>  <REMARK>
 VINA RESULT:      -7.5      3.482      8.079
  Name = 
  7 active torsions:
  status: ('A' for Active; 'I' for Inactive)
    1  A    between atoms: N_5  and  C_11
    2  A    between atoms: C_6  and  C_26
    3  A    between atoms: C_10  and  N_16
    4  A    between atoms: C_11  and  C_12
    5  A    between atoms: C_12  and  C_17
    6  A    between atoms: C_20  and  C_26
    7  A    between atoms: C_21  and  C_26
                            x       y       z     vdW  Elec       q    Type
                         _______ _______ _______ _____ _____    ______ ____

>  <TORSDO>
F 7

$$$$
=
 OpenBabel10232408133D

 32 34  0  0  1  0  0  0  0  0999 V2000
  188.7040  178.2360  140.4960 C   0  0  1  0  0  3  0  0  0  0  0  0
  189.7990  176.0330  137.4120 C   0  0  0  0  0  2  0  0  0  0  0  0
  188.4940  176.2240  136.6250 C   0  0  2  0  0  3  0  0  0  0  0  0
  188.8490  177.8290  139.0270 C   0  0  1  0  0  3  0  0  0  0  0  0
  185.3920  176.4890  135.8910 C   0  0  1  0  0  0  0  0  0  0  0  0
  184.4220  175.6840  135.2950 O   0  0  0  0  0  1  0  0  0  0  0  0
  184.7640  177.6010  136.4250 F   0  0  0  0  0  0  0  0  0  0  0  0
  189.1200  179.0530  138.1430 C   0  0  0  0  0  2  0  0  0  0  0  0
  186.0230  175.7070  137.0210 C   0  0  0  0  0  3  0  0  0  0  0  0
  189.2260  178.7460  136.6460 C   0  0  0  0  0  2  0  0  0  0  0  0
  187.3260  177.9740  135.3210 C   0  0  0  0  0  3  0  0  0  0  0  0
  188.2830  177.6640  136.1980 C   0  0  0  0  0  0  0  0  0  0  0  0
  187.3230  175.6160  137.3570 C   0  0  0  0  0  3  0  0  0  0  0  0
  186.3710  176.9380  134.8050 C   0  0  0  0  0  2  0  0  0  0  0  0
  189.8260  176.6590  138.8180 C   0  0  0  0  0  2  0  0  0  0  0  0
  185.1970  178.7240  140.7330 C   0  0  0  0  0  0  0  0  0  0  0  0
  186.2690  178.4430  139.9730 N   0  0  0  0  0  0  0  0  0  0  0  0
  185.5670  178.9480  142.0460 C   0  0  0  0  0  3  0  0  0  0  0  0
  187.2780  178.5090  140.8610 C   0  0  0  0  0  0  0  0  0  0  0  0
  186.8700  178.8000  142.0780 O   0  0  0  0  0  0  0  0  0  0  0  0
  183.3680  179.7380  139.2790 C   0  0  0  0  0  0  0  0  0  0  0  0
  182.0190  179.6530  138.8360 N   0  0  0  0  0  1  0  0  0  0  0  0
  183.8640  178.7700  140.2080 N   0  0  0  0  0  2  0  0  0  0  0  0
  184.1050  180.6630  138.8470 O   0  0  0  0  0  0  0  0  0  0  0  0
  188.8180  176.2260  141.8070 O   0  0  0  0  0  0  0  0  0  0  0  0
  190.6610  177.6490  141.9780 N   0  0  0  0  0  2  0  0  0  0  0  0
  189.3770  177.3040  141.4600 C   0  0  0  0  0  0  0  0  0  0  0  0
  191.3710  176.7880  142.9100 C   0  0  0  0  0  2  0  0  0  0  0  0
  191.6040  177.5230  144.2200 C   0  0  1  0  0  3  0  0  0  0  0  0
  191.3870  178.9500  144.0460 N   0  0  0  0  0  1  0  0  0  0  0  0
  190.6970  176.9790  145.3170 C   0  0  0  0  0  2  0  0  0  0  0  0
  191.3940  176.9220  146.5930 N   0  0  0  0  0  1  0  0  0  0  0  0
  1 19  1  0  0  0  0
  1 27  1  1  0  0  0
  2 15  1  0  0  0  0
  3 13  1  1  0  0  0
  3  2  1  0  0  0  0
  4  1  1  1  0  0  0
  5  6  1  6  0  0  0
  5  7  1  0  0  0  0
  5  9  1  0  0  0  0
  8  4  1  0  0  0  0
  9 13  2  0  0  0  0
 10  8  1  0  0  0  0
 11 12  2  0  0  0  0
 12  3  1  0  0  0  0
 12 10  1  0  0  0  0
 14 11  1  0  0  0  0
 14  5  1  0  0  0  0
 15  4  1  0  0  0  0
 16 18  2  0  0  0  0
 17 16  1  0  0  0  0
 17 19  2  0  0  0  0
 18 20  1  0  0  0  0
 19 20  1  0  0  0  0
 21 23  1  0  0  0  0
 22 21  1  0  0  0  0
 23 16  1  0  0  0  0
 24 21  2  0  0  0  0
 26 28  1  0  0  0  0
 27 25  2  0  0  0  0
 27 26  1  0  0  0  0
 28 29  1  0  0  0  0
 29 30  1  6  0  0  0
 29 31  1  0  0  0  0
 31 32  1  0  0  0  0
M  END
>  <MODEL>
6

>  <REMARK>
 VINA RESULT:      -7.3      4.088      7.645
  Name = 
  7 active torsions:
  status: ('A' for Active; 'I' for Inactive)
    1  A    between atoms: N_5  and  C_11
    2  A    between atoms: C_6  and  C_26
    3  A    between atoms: C_10  and  N_16
    4  A    between atoms: C_11  and  C_12
    5  A    between atoms: C_12  and  C_17
    6  A    between atoms: C_20  and  C_26
    7  A    between atoms: C_21  and  C_26
                            x       y       z     vdW  Elec       q    Type
                         _______ _______ _______ _____ _____    ______ ____

>  <TORSDO>
F 7

$$$$
=
 OpenBabel10232408133D

 32 34  0  0  1  0  0  0  0  0999 V2000
  188.8300  178.2340  140.2920 C   0  0  1  0  0  3  0  0  0  0  0  0
  189.1860  178.4820  136.3710 C   0  0  0  0  0  2  0  0  0  0  0  0
  189.4170  176.9790  136.1500 C   0  0  2  0  0  3  0  0  0  0  0  0
  188.6510  177.8300  138.8260 C   0  0  1  0  0  3  0  0  0  0  0  0
  190.4680  173.9770  136.4940 C   0  0  1  0  0  0  0  0  0  0  0  0
  191.4160  173.1610  135.8790 O   0  0  0  0  0  1  0  0  0  0  0  0
  190.0150  173.3330  137.6320 F   0  0  0  0  0  0  0  0  0  0  0  0
  187.2460  177.2670  138.5790 C   0  0  0  0  0  2  0  0  0  0  0  0
  191.1500  175.2610  136.9100 C   0  0  0  0  0  3  0  0  0  0  0  0
  186.9960  176.7850  137.1470 C   0  0  0  0  0  2  0  0  0  0  0  0
  188.1440  174.8570  136.1840 C   0  0  0  0  0  3  0  0  0  0  0  0
  188.2040  176.1480  136.5190 C   0  0  0  0  0  0  0  0  0  0  0  0
  190.7020  176.5250  136.7990 C   0  0  0  0  0  3  0  0  0  0  0  0
  189.2990  174.1640  135.5240 C   0  0  0  0  0  2  0  0  0  0  0  0
  189.0820  178.9300  137.8400 C   0  0  0  0  0  2  0  0  0  0  0  0
  186.0220  178.3830  142.4570 C   0  0  0  0  0  0  0  0  0  0  0  0
  187.2920  177.9960  142.2470 N   0  0  0  0  0  0  0  0  0  0  0  0
  185.5080  179.0170  141.3410 C   0  0  0  0  0  3  0  0  0  0  0  0
  187.5160  178.4110  140.9860 C   0  0  0  0  0  0  0  0  0  0  0  0
  186.4740  179.0130  140.4540 O   0  0  0  0  0  0  0  0  0  0  0  0
  184.6620  179.1450  144.4720 C   0  0  0  0  0  0  0  0  0  0  0  0
  184.0120  178.7650  145.6780 N   0  0  0  0  0  1  0  0  0  0  0  0
  185.3350  178.1510  143.6930 N   0  0  0  0  0  2  0  0  0  0  0  0
  184.6370  180.3510  144.1070 O   0  0  0  0  0  0  0  0  0  0  0  0
  190.1220  176.2320  140.6010 O   0  0  0  0  0  0  0  0  0  0  0  0
  190.2770  177.8080  142.3160 N   0  0  0  0  0  2  0  0  0  0  0  0
  189.7740  177.3550  141.0600 C   0  0  0  0  0  0  0  0  0  0  0  0
  191.1990  177.0100  143.1080 C   0  0  0  0  0  2  0  0  0  0  0  0
  190.6460  176.8170  144.5090 C   0  0  1  0  0  3  0  0  0  0  0  0
  191.7290  176.6450  145.4630 N   0  0  0  0  0  1  0  0  0  0  0  0
  189.7650  177.9930  144.9130 C   0  0  0  0  0  2  0  0  0  0  0  0
  189.1590  177.7710  146.2170 N   0  0  0  0  0  1  0  0  0  0  0  0
  1 19  1  0  0  0  0
  1 27  1  1  0  0  0
  2 15  1  0  0  0  0
  3  2  1  1  0  0  0
  3 12  1  0  0  0  0
  3 13  1  0  0  0  0
  4  1  1  1  0  0  0
  5  6  1  6  0  0  0
  5  9  1  0  0  0  0
  5  7  1  0  0  0  0
  8  4  1  0  0  0  0
 10  8  1  0  0  0  0
 11 12  2  0  0  0  0
 12 10  1  0  0  0  0
 13  9  2  0  0  0  0
 14 11  1  0  0  0  0
 14  5  1  0  0  0  0
 15  4  1  0  0  0  0
 16 23  1  0  0  0  0
 17 16  1  0  0  0  0
 18 16  2  0  0  0  0
 19 17  2  0  0  0  0
 20 19  1  0  0  0  0
 20 18  1  0  0  0  0
 21 22  1  0  0  0  0
 23 21  1  0  0  0  0
 24 21  2  0  0  0  0
 25 27  2  0  0  0  0
 26 28  1  0  0  0  0
 27 26  1  0  0  0  0
 28 29  1  0  0  0  0
 29 31  1  0  0  0  0
 29 30  1  1  0  0  0
 31 32  1  0  0  0  0
M  END
>  <MODEL>
7

>  <REMARK>
 VINA RESULT:      -7.1      3.206      7.128
  Name = 
  7 active torsions:
  status: ('A' for Active; 'I' for Inactive)
    1  A    between atoms: N_5  and  C_11
    2  A    between atoms: C_6  and  C_26
    3  A    between atoms: C_10  and  N_16
    4  A    between atoms: C_11  and  C_12
    5  A    between atoms: C_12  and  C_17
    6  A    between atoms: C_20  and  C_26
    7  A    between atoms: C_21  and  C_26
                            x       y       z     vdW  Elec       q    Type
                         _______ _______ _______ _____ _____    ______ ____

>  <TORSDO>
F 7

$$$$
=
 OpenBabel10232408133D

 32 34  0  0  1  0  0  0  0  0999 V2000
  189.4480  176.5200  138.6550 C   0  0  1  0  0  3  0  0  0  0  0  0
  191.0520  176.1630  135.0680 C   0  0  0  0  0  2  0  0  0  0  0  0
  192.2600  175.3350  135.5310 C   0  0  2  0  0  3  0  0  0  0  0  0
  190.1630  175.8380  137.4860 C   0  0  1  0  0  3  0  0  0  0  0  0
  194.7540  174.2750  137.2310 C   0  0  1  0  0  0  0  0  0  0  0  0
  196.1430  174.3400  137.1360 O   0  0  0  0  0  1  0  0  0  0  0  0
  194.4290  173.7540  138.4710 F   0  0  0  0  0  0  0  0  0  0  0  0
  189.7020  174.3830  137.3330 C   0  0  0  0  0  2  0  0  0  0  0  0
  194.2100  175.6830  137.1460 C   0  0  0  0  0  3  0  0  0  0  0  0
  190.4080  173.6050  136.2180 C   0  0  0  0  0  2  0  0  0  0  0  0
  192.7820  173.0420  136.3030 C   0  0  0  0  0  3  0  0  0  0  0  0
  191.8570  173.9750  136.0670 C   0  0  0  0  0  0  0  0  0  0  0  0
  193.1430  176.1320  136.4600 C   0  0  0  0  0  3  0  0  0  0  0  0
  194.2450  173.3300  136.1400 C   0  0  0  0  0  2  0  0  0  0  0  0
  190.1210  176.6630  136.1880 C   0  0  0  0  0  2  0  0  0  0  0  0
  191.1860  177.3690  141.6300 C   0  0  0  0  0  0  0  0  0  0  0  0
  190.0280  177.0510  141.0270 N   0  0  0  0  0  0  0  0  0  0  0  0
  192.2230  177.4140  140.7160 C   0  0  0  0  0  3  0  0  0  0  0  0
  190.4010  176.9110  139.7410 C   0  0  0  0  0  0  0  0  0  0  0  0
  191.6870  177.1190  139.5560 O   0  0  0  0  0  0  0  0  0  0  0  0
  191.5230  176.6290  144.0440 C   0  0  0  0  0  0  0  0  0  0  0  0
  191.6060  177.0260  145.4070 N   0  0  0  0  0  1  0  0  0  0  0  0
  191.2860  177.6180  143.0380 N   0  0  0  0  0  2  0  0  0  0  0  0
  191.6590  175.4140  143.7420 O   0  0  0  0  0  0  0  0  0  0  0  0
  188.9290  178.8450  138.3470 O   0  0  0  0  0  0  0  0  0  0  0  0
  187.2440  177.3470  137.7440 N   0  0  0  0  0  2  0  0  0  0  0  0
  188.5440  177.6470  138.2490 C   0  0  0  0  0  0  0  0  0  0  0  0
  186.3210  178.3900  137.3270 C   0  0  0  0  0  2  0  0  0  0  0  0
  184.9020  178.0150  137.7210 C   0  0  1  0  0  3  0  0  0  0  0  0
  184.7020  176.5810  137.5910 N   0  0  0  0  0  1  0  0  0  0  0  0
  184.5960  178.4660  139.1440 C   0  0  0  0  0  2  0  0  0  0  0  0
  184.4820  179.9140  139.2220 N   0  0  0  0  0  1  0  0  0  0  0  0
  1 27  1  6  0  0  0
  1 19  1  0  0  0  0
  2 15  1  0  0  0  0
  3  2  1  1  0  0  0
  3 12  1  0  0  0  0
  3 13  1  0  0  0  0
  4  1  1  1  0  0  0
  5  6  1  6  0  0  0
  5  7  1  0  0  0  0
  8  4  1  0  0  0  0
  9  5  1  0  0  0  0
 10  8  1  0  0  0  0
 12 10  1  0  0  0  0
 12 11  2  0  0  0  0
 13  9  2  0  0  0  0
 14 11  1  0  0  0  0
 14  5  1  0  0  0  0
 15  4  1  0  0  0  0
 16 23  1  0  0  0  0
 17 16  1  0  0  0  0
 18 16  2  0  0  0  0
 19 17  2  0  0  0  0
 20 19  1  0  0  0  0
 20 18  1  0  0  0  0
 21 22  1  0  0  0  0
 23 21  1  0  0  0  0
 24 21  2  0  0  0  0
 26 27  1  0  0  0  0
 27 25  2  0  0  0  0
 28 29  1  0  0  0  0
 28 26  1  0  0  0  0
 29 30  1  1  0  0  0
 29 31  1  0  0  0  0
 31 32  1  0  0  0  0
M  END
>  <MODEL>
8

>  <REMARK>
 VINA RESULT:      -7.0      4.050      8.057
  Name = 
  7 active torsions:
  status: ('A' for Active; 'I' for Inactive)
    1  A    between atoms: N_5  and  C_11
    2  A    between atoms: C_6  and  C_26
    3  A    between atoms: C_10  and  N_16
    4  A    between atoms: C_11  and  C_12
    5  A    between atoms: C_12  and  C_17
    6  A    between atoms: C_20  and  C_26
    7  A    between atoms: C_21  and  C_26
                            x       y       z     vdW  Elec       q    Type
                         _______ _______ _______ _____ _____    ______ ____

>  <TORSDO>
F 7

$$$$
=
 OpenBabel10232408133D

 32 34  0  0  1  0  0  0  0  0999 V2000
  185.2110  179.3320  143.3770 C   0  0  1  0  0  3  0  0  0  0  0  0
  187.1960  175.9670  143.9230 C   0  0  0  0  0  2  0  0  0  0  0  0
  188.5650  176.6360  144.1240 C   0  0  2  0  0  3  0  0  0  0  0  0
  186.2360  178.3780  143.9950 C   0  0  1  0  0  3  0  0  0  0  0  0
  191.0840  178.5770  143.7830 C   0  0  1  0  0  0  0  0  0  0  0  0
  192.3630  178.4870  143.2380 O   0  0  0  0  0  1  0  0  0  0  0  0
  190.8370  179.9040  144.0920 F   0  0  0  0  0  0  0  0  0  0  0  0
  186.3340  178.5840  145.5120 C   0  0  0  0  0  2  0  0  0  0  0  0
  190.0910  178.1380  142.7310 C   0  0  0  0  0  3  0  0  0  0  0  0
  187.3790  177.7060  146.2080 C   0  0  0  0  0  2  0  0  0  0  0  0
  189.7780  177.9590  145.8280 C   0  0  0  0  0  3  0  0  0  0  0  0
  188.6130  177.4870  145.3770 C   0  0  0  0  0  0  0  0  0  0  0  0
  189.0100  177.3490  142.8710 C   0  0  0  0  0  3  0  0  0  0  0  0
  191.0540  177.7480  145.0690 C   0  0  0  0  0  2  0  0  0  0  0  0
  186.0390  176.9150  143.5590 C   0  0  0  0  0  2  0  0  0  0  0  0
  185.7070  178.7880  139.9050 C   0  0  0  0  0  0  0  0  0  0  0  0
  186.1970  178.7510  141.1560 N   0  0  0  0  0  0  0  0  0  0  0  0
  184.4080  179.2610  139.8990 C   0  0  0  0  0  3  0  0  0  0  0  0
  185.1650  179.2120  141.8850 C   0  0  0  0  0  0  0  0  0  0  0  0
  184.1130  179.5080  141.1530 O   0  0  0  0  0  0  0  0  0  0  0  0
  187.8930  178.3900  138.6610 C   0  0  0  0  0  0  0  0  0  0  0  0
  188.5120  177.9440  137.4600 N   0  0  0  0  0  1  0  0  0  0  0  0
  186.4660  178.3790  138.7610 N   0  0  0  0  0  2  0  0  0  0  0  0
  188.6090  178.7870  139.6180 O   0  0  0  0  0  0  0  0  0  0  0  0
  183.6870  179.5380  145.2230 O   0  0  0  0  0  0  0  0  0  0  0  0
  182.7350  178.8720  143.1980 N   0  0  0  0  0  2  0  0  0  0  0  0
  183.8490  179.2580  144.0020 C   0  0  0  0  0  0  0  0  0  0  0  0
  181.3890  178.7870  143.7390 C   0  0  0  0  0  2  0  0  0  0  0  0
  180.3740  179.1300  142.6610 C   0  0  1  0  0  3  0  0  0  0  0  0
  180.1720  180.5680  142.5950 N   0  0  0  0  0  1  0  0  0  0  0  0
  180.8190  178.5950  141.3060 C   0  0  0  0  0  2  0  0  0  0  0  0
  180.7630  179.6330  140.2890 N   0  0  0  0  0  1  0  0  0  0  0  0
  1 27  1  1  0  0  0
  2  3  1  0  0  0  0
  3 13  1  6  0  0  0
  3 12  1  0  0  0  0
  4  1  1  1  0  0  0
  4  8  1  0  0  0  0
  5  6  1  6  0  0  0
  5  7  1  0  0  0  0
  5 14  1  0  0  0  0
  8 10  1  0  0  0  0
  9 13  2  0  0  0  0
  9  5  1  0  0  0  0
 12 11  2  0  0  0  0
 12 10  1  0  0  0  0
 14 11  1  0  0  0  0
 15  2  1  0  0  0  0
 15  4  1  0  0  0  0
 16 17  1  0  0  0  0
 17 19  2  0  0  0  0
 18 16  2  0  0  0  0
 18 20  1  0  0  0  0
 19  1  1  0  0  0  0
 20 19  1  0  0  0  0
 21 23  1  0  0  0  0
 21 24  2  0  0  0  0
 22 21  1  0  0  0  0
 23 16  1  0  0  0  0
 26 28  1  0  0  0  0
 26 27  1  0  0  0  0
 27 25  2  0  0  0  0
 29 30  1  6  0  0  0
 29 28  1  0  0  0  0
 31 29  1  0  0  0  0
 32 31  1  0  0  0  0
M  END
>  <MODEL>
9

>  <REMARK>
 VINA RESULT:      -7.0      2.989      7.083
  Name = 
  7 active torsions:
  status: ('A' for Active; 'I' for Inactive)
    1  A    between atoms: N_5  and  C_11
    2  A    between atoms: C_6  and  C_26
    3  A    between atoms: C_10  and  N_16
    4  A    between atoms: C_11  and  C_12
    5  A    between atoms: C_12  and  C_17
    6  A    between atoms: C_20  and  C_26
    7  A    between atoms: C_21  and  C_26
                            x       y       z     vdW  Elec       q    Type
                         _______ _______ _______ _____ _____    ______ ____

>  <TORSDO>
F 7

$$$$
