=
 OpenBabel10232407563D

 26 30  0  0  1  0  0  0  0  0999 V2000
  189.3280  175.9210  142.4380 C   0  0  0  0  0  1  0  0  0  0  0  0
  191.0040  177.9690  143.1960 S   0  0  0  0  0  0  0  0  0  0  0  0
  188.2910  178.1910  142.9300 C   0  0  2  0  0  3  0  0  0  0  0  0
  186.9110  177.8310  142.3670 C   0  0  2  0  0  3  0  0  0  0  0  0
  190.4830  177.6230  144.8980 C   0  0  0  0  0  0  0  0  0  0  0  0
  188.7850  177.5070  146.6600 C   0  0  0  0  0  0  0  0  0  0  0  0
  189.4790  177.4360  142.3190 C   0  0  2  0  0  0  0  0  0  0  0  0
  189.7740  177.1780  147.5880 C   0  0  0  0  0  3  0  0  0  0  0  0
  188.4540  177.5160  139.9410 C   0  0  1  0  0  3  0  0  0  0  0  0
  189.6530  177.8350  140.8440 C   0  0  0  0  0  2  0  0  0  0  0  0
  186.6420  178.6830  141.1660 C   0  0  0  0  0  0  0  0  0  0  0  0
  184.7470  177.9630  143.5270 O   0  0  0  0  0  0  0  0  0  0  0  0
  187.4480  178.5300  140.0350 O   0  0  0  0  0  0  0  0  0  0  0  0
  191.4560  177.2760  145.8400 C   0  0  0  0  0  3  0  0  0  0  0  0
  185.7130  179.5800  141.1730 N   0  0  0  0  0  2  0  0  0  0  0  0
  187.4290  177.5400  147.0430 C   0  0  0  0  0  3  0  0  0  0  0  0
  186.8110  177.9860  144.7630 C   0  0  0  0  0  0  0  0  0  0  0  0
  189.1470  177.7460  145.3100 C   0  0  0  0  0  0  0  0  0  0  0  0
  188.1340  178.0030  144.3950 C   0  0  0  0  0  0  0  0  0  0  0  0
  186.0060  177.9900  143.5580 C   0  0  0  0  0  0  0  0  0  0  0  0
  191.1100  177.0590  147.1870 C   0  0  0  0  0  0  0  0  0  0  0  0
  186.4230  177.7610  146.0840 C   0  0  0  0  0  3  0  0  0  0  0  0
  188.9260  177.4200  138.5310 C   0  0  0  0  0  3  0  0  0  0  0  0
  189.2220  178.4290  137.9110 O   0  0  0  0  0  0  0  0  0  0  0  0
  192.0720  176.7220  148.1430 O   0  0  0  0  0  0  0  0  0  0  0  0
  192.8180  175.5140  148.0890 C   0  0  0  0  0  1  0  0  0  0  0  0
  2  5  1  0  0  0  0
  3 19  1  1  0  0  0
  4 11  1  6  0  0  0
  4  3  1  0  0  0  0
  4 20  1  0  0  0  0
  5 18  2  0  0  0  0
  5 14  1  0  0  0  0
  6 16  1  0  0  0  0
  6  8  2  0  0  0  0
  7  1  1  1  0  0  0
  7  3  1  0  0  0  0
  7  2  1  0  0  0  0
  9 23  1  6  0  0  0
  9 13  1  0  0  0  0
  9 10  1  0  0  0  0
 10  7  1  0  0  0  0
 11 15  2  0  0  0  0
 12 20  2  0  0  0  0
 13 11  1  0  0  0  0
 14 21  2  0  0  0  0
 17 22  1  0  0  0  0
 18  6  1  0  0  0  0
 19 17  2  0  0  0  0
 19 18  1  0  0  0  0
 20 17  1  0  0  0  0
 21  8  1  0  0  0  0
 21 25  1  0  0  0  0
 22 16  2  0  0  0  0
 24 23  2  0  0  0  0
 26 25  1  0  0  0  0
M  END
>  <MODEL>
1

>  <REMARK>
 VINA RESULT:     -10.3      0.000      0.000
  Name = 
  2 active torsions:
  status: ('A' for Active; 'I' for Inactive)
    1  A    between atoms: C_6  and  C_11
    2  A    between atoms: O_8  and  C_24
                            x       y       z     vdW  Elec       q    Type
                         _______ _______ _______ _____ _____    ______ ____

>  <TORSDO>
F 2

$$$$
=
 OpenBabel10232407563D

 26 30  0  0  1  0  0  0  0  0999 V2000
  189.4170  179.1420  143.3260 C   0  0  0  0  0  1  0  0  0  0  0  0
  187.4160  177.3410  142.7550 S   0  0  0  0  0  0  0  0  0  0  0  0
  189.5040  176.8640  144.4560 C   0  0  2  0  0  3  0  0  0  0  0  0
  190.9250  177.0420  145.0040 C   0  0  2  0  0  3  0  0  0  0  0  0
  186.6670  177.8340  144.3300 C   0  0  0  0  0  0  0  0  0  0  0  0
  186.6860  178.0090  146.7740 C   0  0  0  0  0  0  0  0  0  0  0  0
  189.1800  177.6420  143.1730 C   0  0  2  0  0  0  0  0  0  0  0  0
  185.3880  178.5230  146.7440 C   0  0  0  0  0  3  0  0  0  0  0  0
  191.5340  177.2040  142.1810 C   0  0  1  0  0  3  0  0  0  0  0  0
  190.0130  177.0930  142.0020 C   0  0  0  0  0  2  0  0  0  0  0  0
  191.8220  176.0380  144.3490 C   0  0  0  0  0  0  0  0  0  0  0  0
  191.6540  176.8630  147.3450 O   0  0  0  0  0  0  0  0  0  0  0  0
  192.0460  176.1280  142.9720 O   0  0  0  0  0  0  0  0  0  0  0  0
  185.3750  178.3670  144.3220 C   0  0  0  0  0  3  0  0  0  0  0  0
  192.3560  175.0740  145.0220 N   0  0  0  0  0  2  0  0  0  0  0  0
  187.3850  177.9070  147.9930 C   0  0  0  0  0  3  0  0  0  0  0  0
  189.3300  177.1540  146.7960 C   0  0  0  0  0  0  0  0  0  0  0  0
  187.3210  177.6480  145.5590 C   0  0  0  0  0  0  0  0  0  0  0  0
  188.6360  177.2050  145.6130 C   0  0  0  0  0  0  0  0  0  0  0  0
  190.7310  176.9450  146.4920 C   0  0  0  0  0  0  0  0  0  0  0  0
  184.7270  178.7070  145.5240 C   0  0  0  0  0  0  0  0  0  0  0  0
  188.7300  177.4950  148.0100 C   0  0  0  0  0  3  0  0  0  0  0  0
  192.1780  177.1780  140.8370 C   0  0  0  0  0  3  0  0  0  0  0  0
  191.4960  177.2460  139.8270 O   0  0  0  0  0  0  0  0  0  0  0  0
  183.4310  179.2290  145.5340 O   0  0  0  0  0  0  0  0  0  0  0  0
  182.5570  179.1330  144.4170 C   0  0  0  0  0  1  0  0  0  0  0  0
  2  7  1  0  0  0  0
  2  5  1  0  0  0  0
  3  4  1  0  0  0  0
  3 19  1  1  0  0  0
  4 11  1  6  0  0  0
  4 20  1  0  0  0  0
  5 18  1  0  0  0  0
  6 16  1  0  0  0  0
  7  1  1  1  0  0  0
  7  3  1  0  0  0  0
  8  6  1  0  0  0  0
  9 23  1  6  0  0  0
  9 13  1  0  0  0  0
 10  9  1  0  0  0  0
 10  7  1  0  0  0  0
 11 15  2  0  0  0  0
 13 11  1  0  0  0  0
 14  5  2  0  0  0  0
 14 21  1  0  0  0  0
 16 22  2  0  0  0  0
 17 22  1  0  0  0  0
 18 19  1  0  0  0  0
 18  6  2  0  0  0  0
 19 17  2  0  0  0  0
 20 17  1  0  0  0  0
 20 12  2  0  0  0  0
 21 25  1  0  0  0  0
 21  8  2  0  0  0  0
 24 23  2  0  0  0  0
 26 25  1  0  0  0  0
M  END
>  <MODEL>
2

>  <REMARK>
 VINA RESULT:      -9.9      2.687      5.286
  Name = 
  2 active torsions:
  status: ('A' for Active; 'I' for Inactive)
    1  A    between atoms: C_6  and  C_11
    2  A    between atoms: O_8  and  C_24
                            x       y       z     vdW  Elec       q    Type
                         _______ _______ _______ _____ _____    ______ ____

>  <TORSDO>
F 2

$$$$
=
 OpenBabel10232407563D

 26 30  0  0  1  0  0  0  0  0999 V2000
  187.5670  176.3540  143.1770 C   0  0  0  0  0  1  0  0  0  0  0  0
  189.6610  178.1350  143.3070 S   0  0  0  0  0  0  0  0  0  0  0  0
  187.1780  178.5670  144.3690 C   0  0  2  0  0  3  0  0  0  0  0  0
  185.6580  178.3940  144.4780 C   0  0  2  0  0  3  0  0  0  0  0  0
  189.9250  177.5390  144.9980 C   0  0  0  0  0  0  0  0  0  0  0  0
  189.2090  177.2310  147.3210 C   0  0  0  0  0  0  0  0  0  0  0  0
  187.8490  177.8540  143.1870 C   0  0  2  0  0  0  0  0  0  0  0  0
  190.4570  176.6890  147.6310 C   0  0  0  0  0  3  0  0  0  0  0  0
  185.8790  178.4010  141.5940 C   0  0  1  0  0  3  0  0  0  0  0  0
  187.3880  178.4860  141.8620 C   0  0  0  0  0  2  0  0  0  0  0  0
  184.9930  179.4530  143.6560 C   0  0  0  0  0  0  0  0  0  0  0  0
  184.2930  178.4620  146.5220 O   0  0  0  0  0  0  0  0  0  0  0  0
  185.1710  179.4450  142.2690 O   0  0  0  0  0  0  0  0  0  0  0  0
  191.1620  176.9760  145.3270 C   0  0  0  0  0  3  0  0  0  0  0  0
  184.2960  180.3920  144.2050 N   0  0  0  0  0  2  0  0  0  0  0  0
  188.1910  177.2830  148.2950 C   0  0  0  0  0  3  0  0  0  0  0  0
  186.6750  178.1470  146.6410 C   0  0  0  0  0  0  0  0  0  0  0  0
  188.9490  177.6730  145.9990 C   0  0  0  0  0  0  0  0  0  0  0  0
  187.6770  178.1430  145.7030 C   0  0  0  0  0  0  0  0  0  0  0  0
  185.4200  178.4050  145.9630 C   0  0  0  0  0  0  0  0  0  0  0  0
  191.4370  176.5570  146.6410 C   0  0  0  0  0  0  0  0  0  0  0  0
  186.9000  177.7260  147.9520 C   0  0  0  0  0  3  0  0  0  0  0  0
  185.6460  178.5160  140.1270 C   0  0  0  0  0  3  0  0  0  0  0  0
  185.0280  179.4670  139.6750 O   0  0  0  0  0  0  0  0  0  0  0  0
  192.6730  176.0040  146.9880 O   0  0  0  0  0  0  0  0  0  0  0  0
  193.0370  175.7190  148.3320 C   0  0  0  0  0  1  0  0  0  0  0  0
  2  5  1  0  0  0  0
  3  4  1  0  0  0  0
  3 19  1  1  0  0  0
  4 11  1  6  0  0  0
  4 20  1  0  0  0  0
  5 14  2  0  0  0  0
  5 18  1  0  0  0  0
  6  8  1  0  0  0  0
  6 16  1  0  0  0  0
  7  1  1  1  0  0  0
  7  2  1  0  0  0  0
  7  3  1  0  0  0  0
  9 23  1  6  0  0  0
  9 10  1  0  0  0  0
  9 13  1  0  0  0  0
 10  7  1  0  0  0  0
 11 15  2  0  0  0  0
 13 11  1  0  0  0  0
 14 21  1  0  0  0  0
 17 22  1  0  0  0  0
 18  6  2  0  0  0  0
 19 18  1  0  0  0  0
 19 17  2  0  0  0  0
 20 12  2  0  0  0  0
 20 17  1  0  0  0  0
 21 25  1  0  0  0  0
 21  8  2  0  0  0  0
 22 16  2  0  0  0  0
 24 23  2  0  0  0  0
 25 26  1  0  0  0  0
M  END
>  <MODEL>
3

>  <REMARK>
 VINA RESULT:      -9.5      1.887      2.298
  Name = 
  2 active torsions:
  status: ('A' for Active; 'I' for Inactive)
    1  A    between atoms: C_6  and  C_11
    2  A    between atoms: O_8  and  C_24
                            x       y       z     vdW  Elec       q    Type
                         _______ _______ _______ _____ _____    ______ ____

>  <TORSDO>
F 2

$$$$
=
 OpenBabel10232407563D

 26 30  0  0  1  0  0  0  0  0999 V2000
  190.1850  178.7550  144.3960 C   0  0  0  0  0  1  0  0  0  0  0  0
  189.7540  176.5080  142.8670 S   0  0  0  0  0  0  0  0  0  0  0  0
  188.3250  177.1710  145.1030 C   0  0  2  0  0  3  0  0  0  0  0  0
  188.0970  177.8340  146.4670 C   0  0  2  0  0  3  0  0  0  0  0  0
  188.3770  177.4140  142.1130 C   0  0  0  0  0  0  0  0  0  0  0  0
  186.1980  178.5300  142.2300 C   0  0  0  0  0  0  0  0  0  0  0  0
  189.7410  177.3010  144.5250 C   0  0  2  0  0  0  0  0  0  0  0  0
  186.2220  178.7150  140.8470 C   0  0  0  0  0  3  0  0  0  0  0  0
  190.8400  177.0000  146.8520 C   0  0  1  0  0  3  0  0  0  0  0  0
  190.7390  176.5200  145.3980 C   0  0  0  0  0  2  0  0  0  0  0  0
  188.4640  176.8600  147.5430 C   0  0  0  0  0  0  0  0  0  0  0  0
  185.9890  178.7370  147.3530 O   0  0  0  0  0  0  0  0  0  0  0  0
  189.7950  176.4470  147.6580 O   0  0  0  0  0  0  0  0  0  0  0  0
  188.3880  177.6260  140.7310 C   0  0  0  0  0  3  0  0  0  0  0  0
  187.5710  176.3660  148.3350 N   0  0  0  0  0  2  0  0  0  0  0  0
  185.1450  179.0580  143.0030 C   0  0  0  0  0  3  0  0  0  0  0  0
  186.2560  178.3100  145.0000 C   0  0  0  0  0  0  0  0  0  0  0  0
  187.2760  177.8600  142.8630 C   0  0  0  0  0  0  0  0  0  0  0  0
  187.2590  177.7520  144.2480 C   0  0  0  0  0  0  0  0  0  0  0  0
  186.6660  178.2890  146.3890 C   0  0  0  0  0  0  0  0  0  0  0  0
  187.3120  178.2680  140.0920 C   0  0  0  0  0  0  0  0  0  0  0  0
  185.1770  178.9680  144.4070 C   0  0  0  0  0  3  0  0  0  0  0  0
  192.1610  176.5830  147.4040 C   0  0  0  0  0  3  0  0  0  0  0  0
  192.6070  175.4740  147.1580 O   0  0  0  0  0  0  0  0  0  0  0  0
  187.3040  178.4770  138.7100 O   0  0  0  0  0  0  0  0  0  0  0  0
  186.2610  178.0020  137.8680 C   0  0  0  0  0  1  0  0  0  0  0  0
  2  7  1  0  0  0  0
  3 19  1  6  0  0  0
  3  4  1  0  0  0  0
  4 20  1  1  0  0  0
  4 11  1  0  0  0  0
  5 18  1  0  0  0  0
  5  2  1  0  0  0  0
  6 18  2  0  0  0  0
  6 16  1  0  0  0  0
  7  1  1  6  0  0  0
  7  3  1  0  0  0  0
  7 10  1  0  0  0  0
  8  6  1  0  0  0  0
  9 23  1  1  0  0  0
  9 13  1  0  0  0  0
 10  9  1  0  0  0  0
 11 13  1  0  0  0  0
 11 15  2  0  0  0  0
 14  5  2  0  0  0  0
 16 22  2  0  0  0  0
 17 20  1  0  0  0  0
 18 19  1  0  0  0  0
 19 17  2  0  0  0  0
 20 12  2  0  0  0  0
 21 14  1  0  0  0  0
 21  8  2  0  0  0  0
 22 17  1  0  0  0  0
 24 23  2  0  0  0  0
 25 21  1  0  0  0  0
 26 25  1  0  0  0  0
M  END
>  <MODEL>
4

>  <REMARK>
 VINA RESULT:      -9.3      2.177      6.309
  Name = 
  2 active torsions:
  status: ('A' for Active; 'I' for Inactive)
    1  A    between atoms: C_6  and  C_11
    2  A    between atoms: O_8  and  C_24
                            x       y       z     vdW  Elec       q    Type
                         _______ _______ _______ _____ _____    ______ ____

>  <TORSDO>
F 2

$$$$
=
 OpenBabel10232407563D

 26 30  0  0  1  0  0  0  0  0999 V2000
  184.7180  180.1890  144.4950 C   0  0  0  0  0  1  0  0  0  0  0  0
  184.8060  177.7380  145.7430 S   0  0  0  0  0  0  0  0  0  0  0  0
  184.8990  178.1130  143.0360 C   0  0  2  0  0  3  0  0  0  0  0  0
  184.6260  178.8520  141.7200 C   0  0  2  0  0  3  0  0  0  0  0  0
  186.6000  177.7900  145.4870 C   0  0  0  0  0  0  0  0  0  0  0  0
  188.5790  177.8380  144.0430 C   0  0  0  0  0  0  0  0  0  0  0  0
  184.2830  178.7400  144.2940 C   0  0  2  0  0  0  0  0  0  0  0  0
  189.3990  177.7530  145.1690 C   0  0  0  0  0  3  0  0  0  0  0  0
  182.1110  179.3930  143.0420 C   0  0  1  0  0  3  0  0  0  0  0  0
  182.7490  178.6540  144.2260 C   0  0  0  0  0  2  0  0  0  0  0  0
  183.3330  178.3580  141.1500 C   0  0  0  0  0  0  0  0  0  0  0  0
  186.0400  178.8880  139.7090 O   0  0  0  0  0  0  0  0  0  0  0  0
  182.1480  178.5990  141.8520 O   0  0  0  0  0  0  0  0  0  0  0  0
  187.4410  177.7230  146.6020 C   0  0  0  0  0  3  0  0  0  0  0  0
  183.2990  177.6800  140.0510 N   0  0  0  0  0  2  0  0  0  0  0  0
  189.1410  177.9860  142.7590 C   0  0  0  0  0  3  0  0  0  0  0  0
  186.9330  178.1880  141.8310 C   0  0  0  0  0  0  0  0  0  0  0  0
  187.1700  177.8410  144.2050 C   0  0  0  0  0  0  0  0  0  0  0  0
  186.3800  177.9970  143.0730 C   0  0  0  0  0  0  0  0  0  0  0  0
  185.8810  178.6100  140.9280 C   0  0  0  0  0  0  0  0  0  0  0  0
  188.8390  177.6970  146.4500 C   0  0  0  0  0  0  0  0  0  0  0  0
  188.3150  178.1840  141.6380 C   0  0  0  0  0  3  0  0  0  0  0  0
  180.6940  179.7080  143.3790 C   0  0  0  0  0  3  0  0  0  0  0  0
  180.1470  180.6820  142.8880 O   0  0  0  0  0  0  0  0  0  0  0  0
  189.6920  177.6170  147.5540 O   0  0  0  0  0  0  0  0  0  0  0  0
  190.9210  176.9030  147.5260 C   0  0  0  0  0  1  0  0  0  0  0  0
  3 19  1  1  0  0  0
  3  7  1  0  0  0  0
  4 20  1  6  0  0  0
  4  3  1  0  0  0  0
  5  2  1  0  0  0  0
  5 14  1  0  0  0  0
  6 18  1  0  0  0  0
  6  8  2  0  0  0  0
  7  1  1  1  0  0  0
  7  2  1  0  0  0  0
  8 21  1  0  0  0  0
  9 23  1  1  0  0  0
  9 10  1  0  0  0  0
 10  7  1  0  0  0  0
 11  4  1  0  0  0  0
 11 13  1  0  0  0  0
 12 20  2  0  0  0  0
 13  9  1  0  0  0  0
 15 11  2  0  0  0  0
 16  6  1  0  0  0  0
 17 19  2  0  0  0  0
 18  5  2  0  0  0  0
 19 18  1  0  0  0  0
 20 17  1  0  0  0  0
 21 14  2  0  0  0  0
 21 25  1  0  0  0  0
 22 17  1  0  0  0  0
 22 16  2  0  0  0  0
 24 23  2  0  0  0  0
 26 25  1  0  0  0  0
M  END
>  <MODEL>
5

>  <REMARK>
 VINA RESULT:      -8.8      2.757      5.065
  Name = 
  2 active torsions:
  status: ('A' for Active; 'I' for Inactive)
    1  A    between atoms: C_6  and  C_11
    2  A    between atoms: O_8  and  C_24
                            x       y       z     vdW  Elec       q    Type
                         _______ _______ _______ _____ _____    ______ ____

>  <TORSDO>
F 2

$$$$
=
 OpenBabel10232407563D

 26 30  0  0  1  0  0  0  0  0999 V2000
  191.0980  178.5040  144.4210 C   0  0  0  0  0  1  0  0  0  0  0  0
  191.0510  176.1600  142.9790 S   0  0  0  0  0  0  0  0  0  0  0  0
  189.1430  176.9180  144.7850 C   0  0  2  0  0  3  0  0  0  0  0  0
  188.6020  177.6550  146.0170 C   0  0  2  0  0  3  0  0  0  0  0  0
  189.8730  176.9850  141.8760 C   0  0  0  0  0  0  0  0  0  0  0  0
  187.7140  178.0520  141.4240 C   0  0  0  0  0  0  0  0  0  0  0  0
  190.6520  177.0490  144.5370 C   0  0  2  0  0  0  0  0  0  0  0  0
  188.0520  178.1560  140.0730 C   0  0  0  0  0  3  0  0  0  0  0  0
  191.1930  176.9130  147.0680 C   0  0  1  0  0  3  0  0  0  0  0  0
  191.4320  176.3460  145.6620 C   0  0  0  0  0  2  0  0  0  0  0  0
  188.7240  176.7550  147.2080 C   0  0  0  0  0  0  0  0  0  0  0  0
  186.3380  178.5560  146.3410 O   0  0  0  0  0  0  0  0  0  0  0  0
  189.9970  176.3830  147.6470 O   0  0  0  0  0  0  0  0  0  0  0  0
  190.1980  177.1150  140.5220 C   0  0  0  0  0  3  0  0  0  0  0  0
  187.6790  176.2870  147.8050 N   0  0  0  0  0  2  0  0  0  0  0  0
  186.5060  178.5980  141.9020 C   0  0  0  0  0  3  0  0  0  0  0  0
  187.1390  177.9970  144.1420 C   0  0  0  0  0  0  0  0  0  0  0  0
  188.6260  177.4480  142.3260 C   0  0  0  0  0  0  0  0  0  0  0  0
  188.2940  177.4210  143.6750 C   0  0  0  0  0  0  0  0  0  0  0  0
  187.2220  178.0680  145.5870 C   0  0  0  0  0  0  0  0  0  0  0  0
  189.2900  177.6920  139.6160 C   0  0  0  0  0  0  0  0  0  0  0  0
  186.2180  178.5920  143.2790 C   0  0  0  0  0  3  0  0  0  0  0  0
  192.3570  176.5620  147.9310 C   0  0  0  0  0  3  0  0  0  0  0  0
  193.0040  175.5520  147.7080 O   0  0  0  0  0  0  0  0  0  0  0  0
  189.5950  177.8180  138.2580 O   0  0  0  0  0  0  0  0  0  0  0  0
  188.9820  178.7890  137.4200 C   0  0  0  0  0  1  0  0  0  0  0  0
  2  7  1  0  0  0  0
  3 19  1  6  0  0  0
  3  4  1  0  0  0  0
  4 20  1  6  0  0  0
  4 11  1  0  0  0  0
  5 18  1  0  0  0  0
  5  2  1  0  0  0  0
  6 16  2  0  0  0  0
  6 18  1  0  0  0  0
  7  1  1  6  0  0  0
  7  3  1  0  0  0  0
  7 10  1  0  0  0  0
  8  6  1  0  0  0  0
  9 13  1  0  0  0  0
  9 23  1  1  0  0  0
 10  9  1  0  0  0  0
 11 13  1  0  0  0  0
 11 15  2  0  0  0  0
 14  5  2  0  0  0  0
 16 22  1  0  0  0  0
 17 20  1  0  0  0  0
 18 19  2  0  0  0  0
 19 17  1  0  0  0  0
 20 12  2  0  0  0  0
 21  8  2  0  0  0  0
 21 14  1  0  0  0  0
 22 17  2  0  0  0  0
 24 23  2  0  0  0  0
 25 21  1  0  0  0  0
 26 25  1  0  0  0  0
M  END
>  <MODEL>
6

>  <REMARK>
 VINA RESULT:      -8.8      1.986      6.272
  Name = 
  2 active torsions:
  status: ('A' for Active; 'I' for Inactive)
    1  A    between atoms: C_6  and  C_11
    2  A    between atoms: O_8  and  C_24
                            x       y       z     vdW  Elec       q    Type
                         _______ _______ _______ _____ _____    ______ ____

>  <TORSDO>
F 2

$$$$
=
 OpenBabel10232407563D

 26 30  0  0  1  0  0  0  0  0999 V2000
  189.6920  175.7880  142.2600 C   0  0  0  0  0  1  0  0  0  0  0  0
  190.6200  177.8220  143.8660 S   0  0  0  0  0  0  0  0  0  0  0  0
  189.0680  178.1760  141.6420 C   0  0  2  0  0  3  0  0  0  0  0  0
  188.5020  177.8120  140.2640 C   0  0  2  0  0  3  0  0  0  0  0  0
  188.9730  177.8350  144.6220 C   0  0  0  0  0  0  0  0  0  0  0  0
  186.5470  178.1650  144.5180 C   0  0  0  0  0  0  0  0  0  0  0  0
  190.1570  177.2400  142.1850 C   0  0  2  0  0  0  0  0  0  0  0  0
  186.4620  177.9470  145.8940 C   0  0  0  0  0  3  0  0  0  0  0  0
  191.2310  176.9480  139.8450 C   0  0  1  0  0  3  0  0  0  0  0  0
  191.4220  177.3450  141.3150 C   0  0  0  0  0  2  0  0  0  0  0  0
  189.3590  178.4430  139.2110 C   0  0  0  0  0  0  0  0  0  0  0  0
  186.2550  178.3060  139.3970 O   0  0  0  0  0  0  0  0  0  0  0  0
  190.6870  178.0280  139.0800 O   0  0  0  0  0  0  0  0  0  0  0  0
  188.8620  177.6020  145.9960 C   0  0  0  0  0  3  0  0  0  0  0  0
  188.9070  179.3880  138.4540 N   0  0  0  0  0  2  0  0  0  0  0  0
  185.3800  178.3610  143.7520 C   0  0  0  0  0  3  0  0  0  0  0  0
  186.7190  178.4170  141.7560 C   0  0  0  0  0  0  0  0  0  0  0  0
  187.8140  178.1230  143.8830 C   0  0  0  0  0  0  0  0  0  0  0  0
  187.8610  178.2740  142.5030 C   0  0  0  0  0  0  0  0  0  0  0  0
  187.0680  178.2520  140.3590 C   0  0  0  0  0  0  0  0  0  0  0  0
  187.6120  177.6640  146.6390 C   0  0  0  0  0  0  0  0  0  0  0  0
  185.4580  178.4690  142.3510 C   0  0  0  0  0  3  0  0  0  0  0  0
  192.5530  176.5580  139.2780 C   0  0  0  0  0  3  0  0  0  0  0  0
  193.5390  177.2460  139.4890 O   0  0  0  0  0  0  0  0  0  0  0  0
  187.4870  177.4460  148.0130 O   0  0  0  0  0  0  0  0  0  0  0  0
  188.3580  178.0390  148.9680 C   0  0  0  0  0  1  0  0  0  0  0  0
  2  5  1  0  0  0  0
  3  7  1  0  0  0  0
  3 19  1  1  0  0  0
  4 11  1  6  0  0  0
  4 20  1  0  0  0  0
  4  3  1  0  0  0  0
  5 14  1  0  0  0  0
  6  8  2  0  0  0  0
  7  1  1  1  0  0  0
  7  2  1  0  0  0  0
  8 21  1  0  0  0  0
  9 23  1  6  0  0  0
  9 10  1  0  0  0  0
 10  7  1  0  0  0  0
 12 20  2  0  0  0  0
 13 11  1  0  0  0  0
 13  9  1  0  0  0  0
 14 21  2  0  0  0  0
 15 11  2  0  0  0  0
 16  6  1  0  0  0  0
 17 22  1  0  0  0  0
 17 19  2  0  0  0  0
 18  6  1  0  0  0  0
 18  5  2  0  0  0  0
 19 18  1  0  0  0  0
 20 17  1  0  0  0  0
 21 25  1  0  0  0  0
 22 16  2  0  0  0  0
 23 24  2  0  0  0  0
 25 26  1  0  0  0  0
M  END
>  <MODEL>
7

>  <REMARK>
 VINA RESULT:      -8.6      2.116      3.245
  Name = 
  2 active torsions:
  status: ('A' for Active; 'I' for Inactive)
    1  A    between atoms: C_6  and  C_11
    2  A    between atoms: O_8  and  C_24
                            x       y       z     vdW  Elec       q    Type
                         _______ _______ _______ _____ _____    ______ ____

>  <TORSDO>
F 2

$$$$
=
 OpenBabel10232407563D

 26 30  0  0  1  0  0  0  0  0999 V2000
  186.3580  176.6120  143.4690 C   0  0  0  0  0  1  0  0  0  0  0  0
  187.4660  178.7890  142.2010 S   0  0  0  0  0  0  0  0  0  0  0  0
  187.3360  178.4640  144.9130 C   0  0  2  0  0  3  0  0  0  0  0  0
  186.7550  177.9270  146.2270 C   0  0  2  0  0  3  0  0  0  0  0  0
  189.0770  178.0170  142.5110 C   0  0  0  0  0  0  0  0  0  0  0  0
  190.8300  177.1970  144.0130 C   0  0  0  0  0  0  0  0  0  0  0  0
  186.5470  178.1170  143.6430 C   0  0  2  0  0  0  0  0  0  0  0  0
  191.6400  176.9180  142.9100 C   0  0  0  0  0  3  0  0  0  0  0  0
  184.2690  178.4290  144.8370 C   0  0  1  0  0  3  0  0  0  0  0  0
  185.1790  178.8210  143.6660 C   0  0  0  0  0  2  0  0  0  0  0  0
  185.7630  178.9160  146.7540 C   0  0  0  0  0  0  0  0  0  0  0  0
  187.9850  177.3600  148.2790 O   0  0  0  0  0  0  0  0  0  0  0  0
  184.5990  179.1630  146.0210 O   0  0  0  0  0  0  0  0  0  0  0  0
  189.8980  177.7140  141.4200 C   0  0  0  0  0  3  0  0  0  0  0  0
  185.9820  179.5710  147.8460 N   0  0  0  0  0  2  0  0  0  0  0  0
  191.2540  176.8600  145.3140 C   0  0  0  0  0  3  0  0  0  0  0  0
  189.1340  177.5920  146.1780 C   0  0  0  0  0  0  0  0  0  0  0  0
  189.5470  177.7650  143.8090 C   0  0  0  0  0  0  0  0  0  0  0  0
  188.7360  177.9670  144.9190 C   0  0  0  0  0  0  0  0  0  0  0  0
  187.9810  177.6530  147.0540 C   0  0  0  0  0  0  0  0  0  0  0  0
  191.1810  177.1720  141.6130 C   0  0  0  0  0  0  0  0  0  0  0  0
  190.3930  177.0380  146.4120 C   0  0  0  0  0  3  0  0  0  0  0  0
  182.8540  178.7120  144.4610 C   0  0  0  0  0  3  0  0  0  0  0  0
  182.5900  179.1600  143.3570 O   0  0  0  0  0  0  0  0  0  0  0  0
  192.0180  176.8750  140.5340 O   0  0  0  0  0  0  0  0  0  0  0  0
  191.5730  176.9130  139.1840 C   0  0  0  0  0  1  0  0  0  0  0  0
  2  5  1  0  0  0  0
  2  7  1  0  0  0  0
  3 19  1  6  0  0  0
  3  4  1  0  0  0  0
  4 11  1  1  0  0  0
  4 20  1  0  0  0  0
  5 18  1  0  0  0  0
  6 16  1  0  0  0  0
  7  1  1  6  0  0  0
  7 10  1  0  0  0  0
  7  3  1  0  0  0  0
  8  6  1  0  0  0  0
  9 23  1  6  0  0  0
  9 13  1  0  0  0  0
 10  9  1  0  0  0  0
 11 15  2  0  0  0  0
 13 11  1  0  0  0  0
 14 21  1  0  0  0  0
 14  5  2  0  0  0  0
 16 22  2  0  0  0  0
 17 22  1  0  0  0  0
 17 20  1  0  0  0  0
 18  6  2  0  0  0  0
 18 19  1  0  0  0  0
 19 17  2  0  0  0  0
 20 12  2  0  0  0  0
 21  8  2  0  0  0  0
 24 23  2  0  0  0  0
 25 21  1  0  0  0  0
 26 25  1  0  0  0  0
M  END
>  <MODEL>
8

>  <REMARK>
 VINA RESULT:      -8.2      2.540      5.294
  Name = 
  2 active torsions:
  status: ('A' for Active; 'I' for Inactive)
    1  A    between atoms: C_6  and  C_11
    2  A    between atoms: O_8  and  C_24
                            x       y       z     vdW  Elec       q    Type
                         _______ _______ _______ _____ _____    ______ ____

>  <TORSDO>
F 2

$$$$
=
 OpenBabel10232407563D

 26 30  0  0  1  0  0  0  0  0999 V2000
  186.8490  176.4050  143.7210 C   0  0  0  0  0  1  0  0  0  0  0  0
  187.1870  178.8430  142.4900 S   0  0  0  0  0  0  0  0  0  0  0  0
  188.5070  178.0390  144.7460 C   0  0  2  0  0  3  0  0  0  0  0  0
  188.6950  177.2410  146.0420 C   0  0  2  0  0  3  0  0  0  0  0  0
  188.6890  178.1440  141.7530 C   0  0  0  0  0  0  0  0  0  0  0  0
  190.9430  177.1990  141.9200 C   0  0  0  0  0  0  0  0  0  0  0  0
  187.1530  177.8650  144.0450 C   0  0  2  0  0  0  0  0  0  0  0  0
  191.0330  177.1750  140.5270 C   0  0  0  0  0  3  0  0  0  0  0  0
  185.8690  177.8020  146.2960 C   0  0  1  0  0  3  0  0  0  0  0  0
  186.0310  178.4560  144.9170 C   0  0  0  0  0  2  0  0  0  0  0  0
  188.1690  178.0500  147.1860 C   0  0  0  0  0  0  0  0  0  0  0  0
  190.8070  176.4110  146.9880 O   0  0  0  0  0  0  0  0  0  0  0  0
  186.8030  178.3390  147.2390 O   0  0  0  0  0  0  0  0  0  0  0  0
  188.7940  178.0950  140.3600 C   0  0  0  0  0  3  0  0  0  0  0  0
  188.9570  178.5170  148.0970 N   0  0  0  0  0  2  0  0  0  0  0  0
  191.9820  176.6700  142.7120 C   0  0  0  0  0  3  0  0  0  0  0  0
  190.6710  177.0880  144.6840 C   0  0  0  0  0  0  0  0  0  0  0  0
  189.7680  177.7010  142.5340 C   0  0  0  0  0  0  0  0  0  0  0  0
  189.6780  177.6480  143.9200 C   0  0  0  0  0  0  0  0  0  0  0  0
  190.1630  176.9130  146.0290 C   0  0  0  0  0  0  0  0  0  0  0  0
  189.9640  177.6190  139.7410 C   0  0  0  0  0  0  0  0  0  0  0  0
  191.8430  176.5920  144.1100 C   0  0  0  0  0  3  0  0  0  0  0  0
  184.4820  178.0460  146.7830 C   0  0  0  0  0  3  0  0  0  0  0  0
  183.7350  178.7880  146.1650 O   0  0  0  0  0  0  0  0  0  0  0  0
  190.0890  177.5750  138.3500 O   0  0  0  0  0  0  0  0  0  0  0  0
  189.2370  178.3080  137.4790 C   0  0  0  0  0  1  0  0  0  0  0  0
  2  7  1  0  0  0  0
  3 19  1  6  0  0  0
  3  4  1  0  0  0  0
  4 20  1  1  0  0  0
  4 11  1  0  0  0  0
  5  2  1  0  0  0  0
  5 18  1  0  0  0  0
  6 18  2  0  0  0  0
  6 16  1  0  0  0  0
  7  1  1  6  0  0  0
  7  3  1  0  0  0  0
  7 10  1  0  0  0  0
  8  6  1  0  0  0  0
  9 23  1  1  0  0  0
  9 13  1  0  0  0  0
 10  9  1  0  0  0  0
 11 13  1  0  0  0  0
 11 15  2  0  0  0  0
 14  5  2  0  0  0  0
 16 22  2  0  0  0  0
 17 20  1  0  0  0  0
 18 19  1  0  0  0  0
 19 17  2  0  0  0  0
 20 12  2  0  0  0  0
 21 14  1  0  0  0  0
 21  8  2  0  0  0  0
 22 17  1  0  0  0  0
 24 23  2  0  0  0  0
 25 21  1  0  0  0  0
 26 25  1  0  0  0  0
M  END
>  <MODEL>
9

>  <REMARK>
 VINA RESULT:      -8.0      2.343      6.401
  Name = 
  2 active torsions:
  status: ('A' for Active; 'I' for Inactive)
    1  A    between atoms: C_6  and  C_11
    2  A    between atoms: O_8  and  C_24
                            x       y       z     vdW  Elec       q    Type
                         _______ _______ _______ _____ _____    ______ ____

>  <TORSDO>
F 2

$$$$
