=
 OpenBabel10232408333D

 69 76  0  0  1  0  0  0  0  0999 V2000
  189.9250  174.7980  136.3780 C   0  0  0  0  0  3  0  0  0  0  0  0
  184.9390  174.8210  136.1390 C   0  0  0  0  0  0  0  0  0  0  0  0
  191.0650  175.0480  137.0330 C   0  0  0  0  0  0  0  0  0  0  0  0
  186.0920  176.6810  137.2250 N   0  0  0  0  0  0  0  0  0  0  0  0
  186.1230  175.4170  136.5350 C   0  0  0  0  0  0  0  0  0  0  0  0
  183.7530  175.6210  136.2570 C   0  0  1  0  0  3  0  0  0  0  0  0
  187.4920  174.9690  136.1470 C   0  0  0  0  0  0  0  0  0  0  0  0
  188.6070  175.2650  136.8600 C   0  0  0  0  0  0  0  0  0  0  0  0
  191.0520  175.7970  138.3430 C   0  0  0  0  0  2  0  0  0  0  0  0
  186.8810  172.2860  136.1720 C   0  0  0  0  0  2  0  0  0  0  0  0
  185.5500  172.4720  135.6330 N   0  0  0  0  0  0  0  0  0  0  0  0
  188.5610  175.9430  138.2070 C   0  0  0  0  0  2  0  0  0  0  0  0
  183.7810  176.9070  136.9040 N   0  0  0  0  0  0  0  0  0  0  0  0
  189.8440  176.7290  138.4530 C   0  0  0  0  0  2  0  0  0  0  0  0
  184.7330  173.4900  135.5810 C   0  0  0  0  0  0  0  0  0  0  0  0
  183.5210  173.1880  135.0470 N   0  0  0  0  0  2  0  0  0  0  0  0
  187.8750  172.8070  135.1570 C   0  0  0  0  0  2  0  0  0  0  0  0
  185.0240  177.3780  137.4210 C   0  0  0  0  0  0  0  0  0  0  0  0
  182.4620  174.0200  135.0980 C   0  0  0  0  0  3  0  0  0  0  0  0
  187.6250  174.1900  135.0010 O   0  0  0  0  0  0  0  0  0  0  0  0
  182.5770  175.2030  135.7210 N   0  0  0  0  0  0  0  0  0  0  0  0
  192.3100  173.4890  135.5070 N   0  0  0  0  0  2  0  0  0  0  0  0
  193.4320  174.9150  136.9680 O   0  0  0  0  0  0  0  0  0  0  0  0
  192.3310  174.5020  136.5150 C   0  0  0  0  0  0  0  0  0  0  0  0
  193.4830  172.8360  135.0960 N   0  0  0  0  0  2  0  0  0  0  0  0
  193.7760  171.4990  135.5150 C   0  0  0  0  0  0  0  0  0  0  0  0
  195.0290  168.9810  136.3090 C   0  0  0  0  0  3  0  0  0  0  0  0
  194.6830  169.9300  137.1850 C   0  0  0  0  0  3  0  0  0  0  0  0
  193.5090  170.1410  134.3530 S   0  0  0  0  0  0  0  0  0  0  0  0
  194.2240  171.2630  136.7540 C   0  0  0  0  0  3  0  0  0  0  0  0
  195.0270  169.2300  134.8290 C   0  0  1  0  0  3  0  0  0  0  0  0
  196.2940  169.9760  134.4190 C   0  0  0  0  0  2  0  0  0  0  0  0
  197.5360  169.3030  134.9870 C   0  0  0  0  0  2  0  0  0  0  0  0
  198.6110  170.3300  135.3220 C   0  0  1  0  0  3  0  0  0  0  0  0
  199.1380  172.8300  135.3640 C   0  0  1  0  0  3  0  0  0  0  0  0
  196.8720  173.8580  136.6190 O   0  0  0  0  0  0  0  0  0  0  0  0
  198.3230  174.0990  136.2980 S   0  0  0  0  0  0  0  0  0  0  0  0
  200.2310  171.0910  137.0450 C   0  0  0  0  0  2  0  0  0  0  0  0
  200.1160  172.5340  136.5290 C   0  0  2  0  0  3  0  0  0  0  0  0
  198.6150  175.4970  135.8330 O   0  0  0  0  0  0  0  0  0  0  0  0
  197.9580  170.5810  137.6340 O   0  0  0  0  0  1  0  0  0  0  0  0
  198.1080  171.7390  135.0390 C   0  0  0  0  0  2  0  0  0  0  0  0
  199.4480  173.4860  137.5170 C   0  0  0  0  0  2  0  0  0  0  0  0
  199.0110  170.2170  136.7860 C   0  0  1  0  0  3  0  0  0  0  0  0
  182.5450  177.6710  137.1080 C   0  0  0  0  0  2  0  0  0  0  0  0
  182.0680  177.6350  138.5650 C   0  0  1  0  0  3  0  0  0  0  0  0
  180.0490  177.3250  139.7700 C   0  0  0  0  0  2  0  0  0  0  0  0
  181.6460  178.9010  138.9980 O   0  0  0  0  0  0  0  0  0  0  0  0
  180.7320  178.6510  140.0320 C   0  0  0  0  0  2  0  0  0  0  0  0
  180.9450  176.6440  138.7790 C   0  0  0  0  0  2  0  0  0  0  0  0
  185.1120  178.6360  138.2270 C   0  0  0  0  0  2  0  0  0  0  0  0
  185.0600  178.3170  139.7100 C   0  0  0  0  0  2  0  0  0  0  0  0
  185.4910  179.4810  140.4670 N   0  0  0  0  0  2  0  0  0  0  0  0
  185.5610  179.0770  141.8640 C   0  0  1  0  0  3  0  0  0  0  0  0
  184.3950  178.1560  142.1900 C   0  0  0  0  0  1  0  0  0  0  0  0
  186.8980  178.4520  142.1520 C   0  0  0  0  0  0  0  0  0  0  0  0
  187.8650  178.8040  141.4960 O   0  0  0  0  0  0  0  0  0  0  0  0
  187.0540  177.3520  143.1690 C   0  0  0  0  0  2  0  0  0  0  0  0
  188.1450  177.6350  144.2050 C   0  0  1  0  0  3  0  0  0  0  0  0
  187.5400  178.0370  145.5450 C   0  0  0  0  0  2  0  0  0  0  0  0
  186.0820  177.6090  145.6450 C   0  0  0  0  0  2  0  0  0  0  0  0
  185.8630  179.4350  147.3210 O   0  0  0  0  0  1  0  0  0  0  0  0
  185.2830  178.6670  146.3190 C   0  0  0  0  0  0  0  0  0  0  0  0
  184.0840  178.8660  145.9910 O   0  0  0  0  0  0  0  0  0  0  0  0
  188.9740  176.5170  144.3660 O   0  0  0  0  0  0  0  0  0  0  0  0
  190.8080  178.6040  144.4150 O   0  0  0  0  0  1  0  0  0  0  0  0
  190.6410  176.9590  142.2080 O   0  0  0  0  0  0  0  0  0  0  0  0
  190.5300  177.0150  143.8960 P   0  0  0  0  0  0  0  0  0  0  0  0
  191.5770  176.0930  144.4870 O   0  0  0  0  0  1  0  0  0  0  0  0
  1  8  1  0  0  0  0
  1  3  2  0  0  0  0
  2  6  1  0  0  0  0
  2  5  2  0  0  0  0
  3  9  1  0  0  0  0
  4 18  2  0  0  0  0
  5  4  1  0  0  0  0
  6 21  1  6  0  0  0
  6 13  1  0  0  0  0
  7  5  1  0  0  0  0
  7  8  2  0  0  0  0
  8 12  1  0  0  0  0
  9 14  1  0  0  0  0
 11 10  1  0  0  0  0
 12 14  1  0  0  0  0
 13 45  1  0  0  0  0
 13 18  1  0  0  0  0
 15 11  2  0  0  0  0
 15  2  1  0  0  0  0
 16 19  1  0  0  0  0
 16 15  1  0  0  0  0
 17 10  1  0  0  0  0
 18 51  1  0  0  0  0
 19 21  2  0  0  0  0
 20 17  1  0  0  0  0
 20  7  1  0  0  0  0
 22 24  1  0  0  0  0
 24 23  2  0  0  0  0
 24  3  1  0  0  0  0
 25 22  1  0  0  0  0
 25 26  1  0  0  0  0
 26 30  2  0  0  0  0
 27 28  2  0  0  0  0
 29 31  1  0  0  0  0
 29 26  1  0  0  0  0
 30 28  1  0  0  0  0
 31 32  1  1  0  0  0
 31 27  1  0  0  0  0
 32 33  1  0  0  0  0
 34 33  1  1  0  0  0
 34 44  1  0  0  0  0
 35 42  1  1  0  0  0
 35 37  1  0  0  0  0
 35 39  1  0  0  0  0
 37 36  2  0  0  0  0
 37 43  1  0  0  0  0
 39 38  1  1  0  0  0
 39 43  1  0  0  0  0
 40 37  2  0  0  0  0
 42 34  1  0  0  0  0
 44 38  1  0  0  0  0
 44 41  1  1  0  0  0
 46 45  1  6  0  0  0
 46 50  1  0  0  0  0
 46 48  1  0  0  0  0
 47 49  1  0  0  0  0
 48 49  1  0  0  0  0
 50 47  1  0  0  0  0
 51 52  1  0  0  0  0
 52 53  1  0  0  0  0
 53 54  1  0  0  0  0
 54 56  1  0  0  0  0
 54 55  1  6  0  0  0
 56 58  1  0  0  0  0
 57 56  2  0  0  0  0
 59 58  1  6  0  0  0
 59 65  1  0  0  0  0
 59 60  1  0  0  0  0
 60 61  1  0  0  0  0
 61 63  1  0  0  0  0
 63 62  1  0  0  0  0
 64 63  2  0  0  0  0
 67 68  2  0  0  0  0
 68 65  1  0  0  0  0
 68 66  1  0  0  0  0
 68 69  1  0  0  0  0
M  END
>  <MODEL>
1

>  <REMARK>
 VINA RESULT:      -7.1      0.000      0.000
  Name = 
  20 active torsions:
  status: ('A' for Active; 'I' for Inactive)
    1  A    between atoms: N_2  and  C_38
    2  A    between atoms: N_2  and  C_66
    3  A    between atoms: C_3  and  C_43
    4  A    between atoms: C_4  and  N_20
    5  A    between atoms: C_6  and  C_63
    6  A    between atoms: C_14  and  C_60
    7  A    between atoms: C_19  and  C_43
    8  A    between atoms: C_19  and  C_67
    9  A    between atoms: N_20  and  N_39
   10  A    between atoms: C_22  and  C_48
   11  A    between atoms: C_22  and  C_64
   12  A    between atoms: C_31  and  C_38
   13  A    between atoms: C_31  and  C_65
   14  A    between atoms: N_33  and  C_60
   15  A    between atoms: C_42  and  C_57
   16  A    between atoms: C_42  and  C_66
   17  A    between atoms: O_45  and  P_52
   18  A    between atoms: O_45  and  C_55
   19  A    between atoms: C_55  and  C_64
   20  A    between atoms: C_55  and  C_65
                            x       y       z     vdW  Elec       q    Type
                         _______ _______ _______ _____ _____    ______ ____

>  <TORSDO>
F 20

$$$$
=
 OpenBabel10232408333D

 69 76  0  0  1  0  0  0  0  0999 V2000
  189.8680  176.4660  139.4270 C   0  0  0  0  0  3  0  0  0  0  0  0
  187.3590  178.1140  143.4150 C   0  0  0  0  0  0  0  0  0  0  0  0
  190.2750  176.6110  138.1600 C   0  0  0  0  0  0  0  0  0  0  0  0
  186.4190  178.4570  141.1860 N   0  0  0  0  0  0  0  0  0  0  0  0
  187.4660  177.9620  142.0440 C   0  0  0  0  0  0  0  0  0  0  0  0
  186.0910  178.5720  143.9080 C   0  0  0  0  0  0  0  0  0  0  0  0
  188.4950  177.1460  141.3380 C   0  0  0  0  0  0  0  0  0  0  0  0
  188.8550  177.3480  140.0460 C   0  0  0  0  0  0  0  0  0  0  0  0
  189.7390  177.7300  137.3020 C   0  0  0  0  0  2  0  0  0  0  0  0
  190.5140  177.7190  143.1190 C   0  0  0  0  0  2  0  0  0  0  0  0
  189.6450  177.7010  144.2770 N   0  0  0  0  0  0  0  0  0  0  0  0
  188.3670  178.5220  139.2350 C   0  0  0  0  0  2  0  0  0  0  0  0
  185.0510  179.0030  143.0090 N   0  0  0  0  0  0  0  0  0  0  0  0
  188.3450  178.1730  137.7510 C   0  0  0  0  0  2  0  0  0  0  0  0
  188.3570  177.8380  144.4400 C   0  0  0  0  0  0  0  0  0  0  0  0
  187.9700  177.8380  145.7420 N   0  0  0  0  0  0  0  0  0  0  0  0
  190.4640  176.3510  142.4740 C   0  0  0  0  0  2  0  0  0  0  0  0
  185.3050  178.9550  141.6070 C   0  0  0  0  0  0  0  0  0  0  0  0
  186.7320  178.1820  146.1460 C   0  0  0  0  0  3  0  0  0  0  0  0
  189.1320  176.1360  142.0540 O   0  0  0  0  0  0  0  0  0  0  0  0
  185.8220  178.5700  145.2390 N   0  0  0  0  0  0  0  0  0  0  0  0
  192.1150  176.1380  136.5150 N   0  0  0  0  0  2  0  0  0  0  0  0
  191.5240  174.5950  138.1580 O   0  0  0  0  0  0  0  0  0  0  0  0
  191.3270  175.7240  137.6330 C   0  0  0  0  0  0  0  0  0  0  0  0
  193.0190  175.2660  135.8890 N   0  0  0  0  0  2  0  0  0  0  0  0
  194.4220  175.3260  136.1650 C   0  0  0  0  0  0  0  0  0  0  0  0
  197.3320  175.0590  136.1600 C   0  0  0  0  0  3  0  0  0  0  0  0
  196.6930  176.0670  135.5570 C   0  0  0  0  0  3  0  0  0  0  0  0
  195.0810  174.3790  137.5550 S   0  0  0  0  0  0  0  0  0  0  0  0
  195.2260  176.0880  135.4130 C   0  0  0  0  0  3  0  0  0  0  0  0
  196.6030  173.8550  136.6780 C   0  0  1  0  0  3  0  0  0  0  0  0
  196.3010  172.8910  135.5340 C   0  0  0  0  0  2  0  0  0  0  0  0
  195.0150  172.1170  135.7920 C   0  0  0  0  0  2  0  0  0  0  0  0
  195.3040  170.6390  136.0270 C   0  0  1  0  0  3  0  0  0  0  0  0
  197.1650  168.8940  136.1700 C   0  0  1  0  0  3  0  0  0  0  0  0
  198.9950  170.1660  137.8430 O   0  0  0  0  0  0  0  0  0  0  0  0
  198.5200  168.8390  137.3140 S   0  0  0  0  0  0  0  0  0  0  0  0
  194.8890  168.6980  137.5220 C   0  0  0  0  0  2  0  0  0  0  0  0
  196.2520  168.1010  137.1400 C   0  0  2  0  0  3  0  0  0  0  0  0
  199.6330  167.9140  136.9140 O   0  0  0  0  0  0  0  0  0  0  0  0
  195.5090  170.8360  138.4260 O   0  0  0  0  0  1  0  0  0  0  0  0
  196.7990  170.3660  135.9330 C   0  0  0  0  0  2  0  0  0  0  0  0
  197.2560  168.0790  138.2900 C   0  0  0  0  0  2  0  0  0  0  0  0
  194.7930  170.2120  137.3970 C   0  0  1  0  0  3  0  0  0  0  0  0
  183.7970  179.5620  143.5260 C   0  0  0  0  0  2  0  0  0  0  0  0
  182.6220  178.5880  143.3910 C   0  0  1  0  0  3  0  0  0  0  0  0
  180.3740  178.6030  142.6320 C   0  0  0  0  0  2  0  0  0  0  0  0
  181.8010  178.6130  144.5280 O   0  0  0  0  0  0  0  0  0  0  0  0
  180.5380  178.1950  144.0820 C   0  0  0  0  0  2  0  0  0  0  0  0
  181.7750  178.8720  142.1690 C   0  0  0  0  0  2  0  0  0  0  0  0
  184.3340  179.5120  140.6150 C   0  0  0  0  0  2  0  0  0  0  0  0
  184.6530  179.0040  139.2200 C   0  0  0  0  0  2  0  0  0  0  0  0
  184.2060  177.6260  139.0970 N   0  0  0  0  0  2  0  0  0  0  0  0
  182.8010  177.6680  138.7200 C   0  0  1  0  0  3  0  0  0  0  0  0
  182.5800  178.7590  137.6830 C   0  0  0  0  0  1  0  0  0  0  0  0
  182.3560  176.3110  138.2450 C   0  0  0  0  0  0  0  0  0  0  0  0
  181.1890  176.1540  137.9270 O   0  0  0  0  0  0  0  0  0  0  0  0
  183.2940  175.1330  138.2280 C   0  0  0  0  0  2  0  0  0  0  0  0
  183.2950  174.3780  136.8960 C   0  0  1  0  0  3  0  0  0  0  0  0
  184.0390  175.1600  135.8210 C   0  0  0  0  0  2  0  0  0  0  0  0
  185.2640  175.8590  136.3920 C   0  0  0  0  0  2  0  0  0  0  0  0
  187.3630  174.7790  137.1760 O   0  0  0  0  0  1  0  0  0  0  0  0
  186.4840  175.0490  136.1350 C   0  0  0  0  0  0  0  0  0  0  0  0
  186.7260  174.6110  134.9800 O   0  0  0  0  0  0  0  0  0  0  0  0
  183.8650  173.1070  137.0510 O   0  0  0  0  0  0  0  0  0  0  0  0
  182.2770  172.3550  134.8980 O   0  0  0  0  0  0  0  0  0  0  0  0
  181.3200  172.1190  137.4740 O   0  0  0  0  0  1  0  0  0  0  0  0
  182.7000  171.9990  136.5000 P   0  0  0  0  0  0  0  0  0  0  0  0
  183.2380  170.5850  136.5840 O   0  0  0  0  0  1  0  0  0  0  0  0
  1  8  1  0  0  0  0
  2  6  1  0  0  0  0
  2 15  1  0  0  0  0
  3  1  2  0  0  0  0
  4 18  2  0  0  0  0
  4  5  1  0  0  0  0
  5  2  2  0  0  0  0
  6 21  2  0  0  0  0
  7  5  1  0  0  0  0
  7 20  1  0  0  0  0
  8  7  2  0  0  0  0
  9 14  1  0  0  0  0
  9  3  1  0  0  0  0
 10 11  1  0  0  0  0
 11 15  2  0  0  0  0
 12  8  1  0  0  0  0
 13 45  1  0  0  0  0
 13  6  1  0  0  0  0
 14 12  1  0  0  0  0
 15 16  1  0  0  0  0
 16 19  2  0  0  0  0
 17 10  1  0  0  0  0
 18 13  1  0  0  0  0
 20 17  1  0  0  0  0
 21 19  1  0  0  0  0
 22 24  1  0  0  0  0
 24 23  2  0  0  0  0
 24  3  1  0  0  0  0
 25 26  1  0  0  0  0
 25 22  1  0  0  0  0
 26 29  1  0  0  0  0
 27 31  1  0  0  0  0
 28 27  2  0  0  0  0
 30 28  1  0  0  0  0
 30 26  2  0  0  0  0
 31 32  1  6  0  0  0
 31 29  1  0  0  0  0
 32 33  1  0  0  0  0
 34 33  1  1  0  0  0
 34 44  1  0  0  0  0
 35 42  1  1  0  0  0
 35 39  1  0  0  0  0
 35 37  1  0  0  0  0
 37 36  2  0  0  0  0
 37 43  1  0  0  0  0
 39 38  1  1  0  0  0
 39 43  1  0  0  0  0
 40 37  2  0  0  0  0
 42 34  1  0  0  0  0
 44 38  1  0  0  0  0
 44 41  1  1  0  0  0
 46 45  1  1  0  0  0
 46 48  1  0  0  0  0
 47 49  1  0  0  0  0
 49 48  1  0  0  0  0
 50 47  1  0  0  0  0
 50 46  1  0  0  0  0
 51 18  1  0  0  0  0
 52 51  1  0  0  0  0
 53 52  1  0  0  0  0
 54 55  1  6  0  0  0
 54 53  1  0  0  0  0
 56 54  1  0  0  0  0
 57 56  2  0  0  0  0
 58 56  1  0  0  0  0
 59 60  1  6  0  0  0
 59 65  1  0  0  0  0
 59 58  1  0  0  0  0
 60 61  1  0  0  0  0
 63 61  1  0  0  0  0
 63 62  1  0  0  0  0
 64 63  2  0  0  0  0
 66 68  2  0  0  0  0
 68 69  1  0  0  0  0
 68 65  1  0  0  0  0
 68 67  1  0  0  0  0
M  END
>  <MODEL>
2

>  <REMARK>
 VINA RESULT:      -6.6      3.110      7.116
  Name = 
  20 active torsions:
  status: ('A' for Active; 'I' for Inactive)
    1  A    between atoms: N_2  and  C_38
    2  A    between atoms: N_2  and  C_66
    3  A    between atoms: C_3  and  C_43
    4  A    between atoms: C_4  and  N_20
    5  A    between atoms: C_6  and  C_63
    6  A    between atoms: C_14  and  C_60
    7  A    between atoms: C_19  and  C_43
    8  A    between atoms: C_19  and  C_67
    9  A    between atoms: N_20  and  N_39
   10  A    between atoms: C_22  and  C_48
   11  A    between atoms: C_22  and  C_64
   12  A    between atoms: C_31  and  C_38
   13  A    between atoms: C_31  and  C_65
   14  A    between atoms: N_33  and  C_60
   15  A    between atoms: C_42  and  C_57
   16  A    between atoms: C_42  and  C_66
   17  A    between atoms: O_45  and  P_52
   18  A    between atoms: O_45  and  C_55
   19  A    between atoms: C_55  and  C_64
   20  A    between atoms: C_55  and  C_65
                            x       y       z     vdW  Elec       q    Type
                         _______ _______ _______ _____ _____    ______ ____

>  <TORSDO>
F 20

$$$$
=
 OpenBabel10232408333D

 69 76  0  0  1  0  0  0  0  0999 V2000
  189.1750  177.5020  138.7080 C   0  0  0  0  0  3  0  0  0  0  0  0
  184.3830  177.3700  137.3120 C   0  0  0  0  0  0  0  0  0  0  0  0
  190.1190  177.4270  139.6540 C   0  0  0  0  0  0  0  0  0  0  0  0
  184.9820  178.4260  139.4320 N   0  0  0  0  0  0  0  0  0  0  0  0
  185.3560  177.7280  138.2290 C   0  0  0  0  0  0  0  0  0  0  0  0
  183.0740  177.9160  137.5280 C   0  0  1  0  0  3  0  0  0  0  0  0
  186.8290  177.6340  138.0130 C   0  0  0  0  0  0  0  0  0  0  0  0
  187.7310  177.5650  139.0240 C   0  0  0  0  0  0  0  0  0  0  0  0
  189.7430  177.3600  141.1130 C   0  0  0  0  0  2  0  0  0  0  0  0
  186.7040  175.3210  136.5260 C   0  0  0  0  0  2  0  0  0  0  0  0
  185.4770  175.6920  135.8520 N   0  0  0  0  0  0  0  0  0  0  0  0
  187.3290  177.4160  140.4700 C   0  0  0  0  0  2  0  0  0  0  0  0
  182.7610  178.6580  138.7210 N   0  0  0  0  0  0  0  0  0  0  0  0
  188.3910  178.0210  141.3840 C   0  0  0  0  0  2  0  0  0  0  0  0
  184.5160  176.5330  136.1260 C   0  0  0  0  0  0  0  0  0  0  0  0
  183.4900  176.4950  135.2380 N   0  0  0  0  0  2  0  0  0  0  0  0
  187.7540  176.3580  136.1920 C   0  0  0  0  0  2  0  0  0  0  0  0
  183.7910  178.8500  139.6890 C   0  0  0  0  0  0  0  0  0  0  0  0
  182.3100  177.1110  135.4440 C   0  0  0  0  0  3  0  0  0  0  0  0
  187.2970  177.5940  136.7030 O   0  0  0  0  0  0  0  0  0  0  0  0
  182.1030  177.7840  136.5870 N   0  0  0  0  0  0  0  0  0  0  0  0
  191.8690  176.8360  137.9510 N   0  0  0  0  0  2  0  0  0  0  0  0
  192.4460  177.6210  140.0670 O   0  0  0  0  0  0  0  0  0  0  0  0
  191.5320  177.3130  139.2550 C   0  0  0  0  0  0  0  0  0  0  0  0
  193.1980  176.5690  137.5860 N   0  0  0  0  0  2  0  0  0  0  0  0
  193.5120  175.6160  136.5660 C   0  0  0  0  0  0  0  0  0  0  0  0
  194.3040  173.2650  135.0220 C   0  0  0  0  0  3  0  0  0  0  0  0
  193.0430  173.4960  135.4010 C   0  0  0  0  0  3  0  0  0  0  0  0
  195.0160  175.8430  135.5910 S   0  0  0  0  0  0  0  0  0  0  0  0
  192.6920  174.5850  136.3300 C   0  0  0  0  0  3  0  0  0  0  0  0
  195.4530  174.0630  135.5630 C   0  0  1  0  0  3  0  0  0  0  0  0
  195.8450  173.5500  136.9460 C   0  0  0  0  0  2  0  0  0  0  0  0
  197.2280  172.9130  136.9250 C   0  0  0  0  0  2  0  0  0  0  0  0
  197.1550  171.4320  137.2750 C   0  0  1  0  0  3  0  0  0  0  0  0
  195.5760  169.5500  137.9770 C   0  0  1  0  0  3  0  0  0  0  0  0
  193.4850  169.8700  136.1620 O   0  0  0  0  0  0  0  0  0  0  0  0
  194.1840  168.9070  137.0830 S   0  0  0  0  0  0  0  0  0  0  0  0
  197.7780  169.1380  136.5530 C   0  0  0  0  0  2  0  0  0  0  0  0
  196.5440  168.5670  137.2700 C   0  0  2  0  0  3  0  0  0  0  0  0
  193.2480  168.0720  137.9090 O   0  0  0  0  0  0  0  0  0  0  0  0
  196.7920  170.6890  135.0060 O   0  0  0  0  0  1  0  0  0  0  0  0
  195.7260  171.0360  137.6210 C   0  0  0  0  0  2  0  0  0  0  0  0
  195.4940  167.9950  136.3210 C   0  0  0  0  0  2  0  0  0  0  0  0
  197.6500  170.5880  136.1090 C   0  0  1  0  0  3  0  0  0  0  0  0
  181.3940  179.1250  138.9770 C   0  0  0  0  0  2  0  0  0  0  0  0
  181.0630  180.4140  138.2150 C   0  0  1  0  0  3  0  0  0  0  0  0
  181.6330  182.7160  138.2790 C   0  0  0  0  0  2  0  0  0  0  0  0
  179.9820  181.0920  138.7970 O   0  0  0  0  0  0  0  0  0  0  0  0
  180.1520  182.4370  138.4370 C   0  0  0  0  0  2  0  0  0  0  0  0
  182.2460  181.3550  138.1350 C   0  0  0  0  0  2  0  0  0  0  0  0
  183.5120  179.4870  141.0140 C   0  0  0  0  0  2  0  0  0  0  0  0
  183.9070  178.5510  142.1430 C   0  0  0  0  0  2  0  0  0  0  0  0
  185.0100  179.1350  142.8880 N   0  0  0  0  0  2  0  0  0  0  0  0
  184.5700  179.2580  144.2700 C   0  0  1  0  0  3  0  0  0  0  0  0
  183.1310  178.7820  144.3950 C   0  0  0  0  0  1  0  0  0  0  0  0
  185.5130  178.5140  145.1770 C   0  0  0  0  0  0  0  0  0  0  0  0
  185.3890  178.6400  146.3840 O   0  0  0  0  0  0  0  0  0  0  0  0
  186.6470  177.6870  144.6310 C   0  0  0  0  0  2  0  0  0  0  0  0
  187.7080  177.3460  145.6800 C   0  0  1  0  0  3  0  0  0  0  0  0
  189.0450  177.0220  145.0240 C   0  0  0  0  0  2  0  0  0  0  0  0
  189.8850  178.2770  144.8310 C   0  0  0  0  0  2  0  0  0  0  0  0
  192.0000  178.2360  143.5220 O   0  0  0  0  0  0  0  0  0  0  0  0
  191.3220  177.9160  144.6910 C   0  0  0  0  0  0  0  0  0  0  0  0
  191.9230  177.3200  145.6230 O   0  0  0  0  0  1  0  0  0  0  0  0
  187.8600  178.4020  146.5880 O   0  0  0  0  0  0  0  0  0  0  0  0
  189.3000  176.2510  147.6010 O   0  0  0  0  0  0  0  0  0  0  0  0
  187.3340  177.4430  149.1250 O   0  0  0  0  0  1  0  0  0  0  0  0
  188.5530  177.7230  147.9850 P   0  0  0  0  0  0  0  0  0  0  0  0
  189.5720  178.6730  148.5800 O   0  0  0  0  0  1  0  0  0  0  0  0
  1  8  1  0  0  0  0
  1  3  2  0  0  0  0
  2  6  1  0  0  0  0
  2  5  2  0  0  0  0
  3  9  1  0  0  0  0
  4 18  2  0  0  0  0
  5  4  1  0  0  0  0
  6 21  1  6  0  0  0
  6 13  1  0  0  0  0
  7  5  1  0  0  0  0
  7  8  2  0  0  0  0
  8 12  1  0  0  0  0
  9 14  1  0  0  0  0
 11 15  2  0  0  0  0
 11 10  1  0  0  0  0
 12 14  1  0  0  0  0
 13 45  1  0  0  0  0
 13 18  1  0  0  0  0
 15  2  1  0  0  0  0
 16 19  1  0  0  0  0
 16 15  1  0  0  0  0
 17 10  1  0  0  0  0
 17 20  1  0  0  0  0
 18 51  1  0  0  0  0
 19 21  2  0  0  0  0
 20  7  1  0  0  0  0
 22 24  1  0  0  0  0
 24  3  1  0  0  0  0
 24 23  2  0  0  0  0
 25 22  1  0  0  0  0
 26 25  1  0  0  0  0
 27 28  2  0  0  0  0
 27 31  1  0  0  0  0
 28 30  1  0  0  0  0
 29 26  1  0  0  0  0
 30 26  2  0  0  0  0
 31 29  1  0  0  0  0
 31 32  1  1  0  0  0
 33 32  1  0  0  0  0
 34 33  1  6  0  0  0
 34 42  1  0  0  0  0
 35 42  1  6  0  0  0
 36 37  2  0  0  0  0
 37 40  2  0  0  0  0
 37 35  1  0  0  0  0
 38 39  1  0  0  0  0
 39 43  1  6  0  0  0
 39 35  1  0  0  0  0
 43 37  1  0  0  0  0
 44 41  1  6  0  0  0
 44 38  1  0  0  0  0
 44 34  1  0  0  0  0
 46 48  1  0  0  0  0
 46 45  1  1  0  0  0
 47 49  1  0  0  0  0
 49 48  1  0  0  0  0
 50 46  1  0  0  0  0
 50 47  1  0  0  0  0
 51 52  1  0  0  0  0
 52 53  1  0  0  0  0
 53 54  1  0  0  0  0
 54 55  1  6  0  0  0
 54 56  1  0  0  0  0
 56 57  2  0  0  0  0
 58 56  1  0  0  0  0
 59 58  1  6  0  0  0
 59 65  1  0  0  0  0
 60 59  1  0  0  0  0
 61 60  1  0  0  0  0
 62 63  2  0  0  0  0
 63 61  1  0  0  0  0
 63 64  1  0  0  0  0
 65 68  1  0  0  0  0
 66 68  2  0  0  0  0
 68 69  1  0  0  0  0
 68 67  1  0  0  0  0
M  END
>  <MODEL>
3

>  <REMARK>
 VINA RESULT:      -6.4      2.483      4.271
  Name = 
  20 active torsions:
  status: ('A' for Active; 'I' for Inactive)
    1  A    between atoms: N_2  and  C_38
    2  A    between atoms: N_2  and  C_66
    3  A    between atoms: C_3  and  C_43
    4  A    between atoms: C_4  and  N_20
    5  A    between atoms: C_6  and  C_63
    6  A    between atoms: C_14  and  C_60
    7  A    between atoms: C_19  and  C_43
    8  A    between atoms: C_19  and  C_67
    9  A    between atoms: N_20  and  N_39
   10  A    between atoms: C_22  and  C_48
   11  A    between atoms: C_22  and  C_64
   12  A    between atoms: C_31  and  C_38
   13  A    between atoms: C_31  and  C_65
   14  A    between atoms: N_33  and  C_60
   15  A    between atoms: C_42  and  C_57
   16  A    between atoms: C_42  and  C_66
   17  A    between atoms: O_45  and  P_52
   18  A    between atoms: O_45  and  C_55
   19  A    between atoms: C_55  and  C_64
   20  A    between atoms: C_55  and  C_65
                            x       y       z     vdW  Elec       q    Type
                         _______ _______ _______ _____ _____    ______ ____

>  <TORSDO>
F 20

$$$$
=
 OpenBabel10232408333D

 69 76  0  0  1  0  0  0  0  0999 V2000
  190.1480  174.2490  136.2360 C   0  0  0  0  0  3  0  0  0  0  0  0
  185.1760  174.6630  136.3980 C   0  0  0  0  0  0  0  0  0  0  0  0
  191.3560  174.4530  136.7760 C   0  0  0  0  0  0  0  0  0  0  0  0
  186.5550  176.4970  137.2350 N   0  0  0  0  0  0  0  0  0  0  0  0
  186.4320  175.1870  136.6480 C   0  0  0  0  0  0  0  0  0  0  0  0
  184.0680  175.5640  136.5470 C   0  0  1  0  0  3  0  0  0  0  0  0
  187.7240  174.6020  136.1890 C   0  0  0  0  0  0  0  0  0  0  0  0
  188.9160  174.8570  136.7850 C   0  0  0  0  0  0  0  0  0  0  0  0
  191.5120  175.2950  138.0180 C   0  0  0  0  0  2  0  0  0  0  0  0
  186.9170  171.9860  136.4780 C   0  0  0  0  0  2  0  0  0  0  0  0
  185.5620  172.2410  136.0350 N   0  0  0  0  0  0  0  0  0  0  0  0
  189.0370  175.6330  138.0720 C   0  0  0  0  0  2  0  0  0  0  0  0
  184.2490  176.8870  137.0840 N   0  0  0  0  0  0  0  0  0  0  0  0
  190.3930  176.3280  138.1500 C   0  0  0  0  0  2  0  0  0  0  0  0
  184.8230  173.3160  135.9670 C   0  0  0  0  0  0  0  0  0  0  0  0
  183.5500  173.0760  135.5580 N   0  0  0  0  0  2  0  0  0  0  0  0
  187.8560  172.3490  135.3480 C   0  0  0  0  0  2  0  0  0  0  0  0
  185.5640  177.2920  137.4600 C   0  0  0  0  0  0  0  0  0  0  0  0
  182.5650  173.9920  135.6260 C   0  0  0  0  0  3  0  0  0  0  0  0
  187.6980  173.7320  135.1020 O   0  0  0  0  0  0  0  0  0  0  0  0
  182.8230  175.2050  136.1420 N   0  0  0  0  0  0  0  0  0  0  0  0
  192.3510  172.5760  135.4350 N   0  0  0  0  0  2  0  0  0  0  0  0
  193.6860  174.2230  136.4010 O   0  0  0  0  0  0  0  0  0  0  0  0
  192.5270  173.7680  136.2030 C   0  0  0  0  0  0  0  0  0  0  0  0
  193.4460  171.8120  135.0020 N   0  0  0  0  0  2  0  0  0  0  0  0
  193.8540  170.6320  135.7020 C   0  0  0  0  0  0  0  0  0  0  0  0
  195.3220  168.4700  137.0090 C   0  0  0  0  0  3  0  0  0  0  0  0
  194.9010  169.5600  137.6580 C   0  0  0  0  0  3  0  0  0  0  0  0
  193.6990  169.0310  134.8810 S   0  0  0  0  0  0  0  0  0  0  0  0
  194.3270  170.7190  136.9510 C   0  0  0  0  0  3  0  0  0  0  0  0
  195.2910  168.3780  135.5110 C   0  0  1  0  0  3  0  0  0  0  0  0
  196.4870  169.1130  134.9150 C   0  0  0  0  0  2  0  0  0  0  0  0
  197.3940  169.6660  136.0060 C   0  0  0  0  0  2  0  0  0  0  0  0
  198.0820  170.9460  135.5500 C   0  0  1  0  0  3  0  0  0  0  0  0
  197.9180  173.4970  135.5590 C   0  0  1  0  0  3  0  0  0  0  0  0
  197.3450  174.0100  138.2380 O   0  0  0  0  0  0  0  0  0  0  0  0
  197.9050  174.5810  136.9630 S   0  0  0  0  0  0  0  0  0  0  0  0
  200.2310  172.1940  135.5000 C   0  0  0  0  0  2  0  0  0  0  0  0
  199.4660  173.5280  135.4900 C   0  0  2  0  0  3  0  0  0  0  0  0
  197.4310  175.9750  136.6660 O   0  0  0  0  0  0  0  0  0  0  0  0
  199.4470  171.1760  137.5300 O   0  0  0  0  0  1  0  0  0  0  0  0
  197.2770  172.1660  135.9780 C   0  0  0  0  0  2  0  0  0  0  0  0
  199.6470  174.3460  136.7650 C   0  0  0  0  0  2  0  0  0  0  0  0
  199.4840  171.0300  136.1380 C   0  0  1  0  0  3  0  0  0  0  0  0
  183.0970  177.7630  137.3250 C   0  0  0  0  0  2  0  0  0  0  0  0
  182.6260  177.7240  138.7830 C   0  0  1  0  0  3  0  0  0  0  0  0
  181.1710  176.4440  140.1510 C   0  0  0  0  0  2  0  0  0  0  0  0
  181.4590  178.4800  138.9670 O   0  0  0  0  0  0  0  0  0  0  0  0
  180.8270  177.9180  140.0860 C   0  0  0  0  0  2  0  0  0  0  0  0
  182.3780  176.3130  139.2710 C   0  0  0  0  0  2  0  0  0  0  0  0
  185.8150  178.5940  138.1530 C   0  0  0  0  0  2  0  0  0  0  0  0
  185.8240  178.3980  139.6580 C   0  0  0  0  0  2  0  0  0  0  0  0
  187.1410  178.7250  140.1780 N   0  0  0  0  0  2  0  0  0  0  0  0
  187.0460  178.6890  141.6300 C   0  0  1  0  0  3  0  0  0  0  0  0
  185.6070  178.4170  142.0430 C   0  0  0  0  0  1  0  0  0  0  0  0
  188.0130  177.6780  142.1830 C   0  0  0  0  0  0  0  0  0  0  0  0
  189.1070  177.5620  141.6550 O   0  0  0  0  0  0  0  0  0  0  0  0
  187.6360  176.7590  143.3140 C   0  0  0  0  0  2  0  0  0  0  0  0
  188.1540  177.2290  144.6760 C   0  0  1  0  0  3  0  0  0  0  0  0
  189.6750  177.3310  144.6800 C   0  0  0  0  0  2  0  0  0  0  0  0
  190.2080  177.6010  146.0800 C   0  0  0  0  0  2  0  0  0  0  0  0
  191.9160  175.9540  145.3340 O   0  0  0  0  0  0  0  0  0  0  0  0
  191.4050  176.7590  146.3440 C   0  0  0  0  0  0  0  0  0  0  0  0
  191.9550  176.7690  147.4770 O   0  0  0  0  0  1  0  0  0  0  0  0
  187.5860  178.4630  145.0200 O   0  0  0  0  0  0  0  0  0  0  0  0
  187.3890  177.4510  147.6010 O   0  0  0  0  0  1  0  0  0  0  0  0
  185.3330  177.0700  145.8030 O   0  0  0  0  0  0  0  0  0  0  0  0
  186.5320  178.1480  146.3170 P   0  0  0  0  0  0  0  0  0  0  0  0
  185.8720  179.4310  146.7800 O   0  0  0  0  0  1  0  0  0  0  0  0
  1  3  2  0  0  0  0
  1  8  1  0  0  0  0
  2  6  1  0  0  0  0
  2  5  2  0  0  0  0
  3  9  1  0  0  0  0
  4 18  2  0  0  0  0
  5  4  1  0  0  0  0
  6 21  1  6  0  0  0
  6 13  1  0  0  0  0
  7  5  1  0  0  0  0
  7  8  2  0  0  0  0
  8 12  1  0  0  0  0
  9 14  1  0  0  0  0
 11 10  1  0  0  0  0
 12 14  1  0  0  0  0
 13 45  1  0  0  0  0
 13 18  1  0  0  0  0
 15 11  2  0  0  0  0
 15  2  1  0  0  0  0
 16 19  1  0  0  0  0
 16 15  1  0  0  0  0
 17 10  1  0  0  0  0
 18 51  1  0  0  0  0
 19 21  2  0  0  0  0
 20 17  1  0  0  0  0
 20  7  1  0  0  0  0
 22 24  1  0  0  0  0
 24 23  2  0  0  0  0
 24  3  1  0  0  0  0
 25 22  1  0  0  0  0
 25 26  1  0  0  0  0
 26 30  2  0  0  0  0
 27 28  2  0  0  0  0
 29 31  1  0  0  0  0
 29 26  1  0  0  0  0
 30 28  1  0  0  0  0
 31 32  1  6  0  0  0
 31 27  1  0  0  0  0
 32 33  1  0  0  0  0
 34 42  1  0  0  0  0
 34 33  1  1  0  0  0
 34 44  1  0  0  0  0
 35 42  1  1  0  0  0
 35 37  1  0  0  0  0
 37 36  2  0  0  0  0
 38 44  1  0  0  0  0
 39 38  1  1  0  0  0
 39 35  1  0  0  0  0
 39 43  1  0  0  0  0
 40 37  2  0  0  0  0
 43 37  1  0  0  0  0
 44 41  1  1  0  0  0
 46 45  1  6  0  0  0
 46 48  1  0  0  0  0
 46 50  1  0  0  0  0
 48 49  1  0  0  0  0
 49 47  1  0  0  0  0
 50 47  1  0  0  0  0
 51 52  1  0  0  0  0
 52 53  1  0  0  0  0
 53 54  1  0  0  0  0
 54 55  1  6  0  0  0
 54 56  1  0  0  0  0
 56 58  1  0  0  0  0
 57 56  2  0  0  0  0
 59 58  1  6  0  0  0
 59 60  1  0  0  0  0
 59 65  1  0  0  0  0
 60 61  1  0  0  0  0
 61 63  1  0  0  0  0
 62 63  2  0  0  0  0
 63 64  1  0  0  0  0
 65 68  1  0  0  0  0
 67 68  2  0  0  0  0
 68 69  1  0  0  0  0
 68 66  1  0  0  0  0
M  END
>  <MODEL>
4

>  <REMARK>
 VINA RESULT:      -6.0      1.365      2.368
  Name = 
  20 active torsions:
  status: ('A' for Active; 'I' for Inactive)
    1  A    between atoms: N_2  and  C_38
    2  A    between atoms: N_2  and  C_66
    3  A    between atoms: C_3  and  C_43
    4  A    between atoms: C_4  and  N_20
    5  A    between atoms: C_6  and  C_63
    6  A    between atoms: C_14  and  C_60
    7  A    between atoms: C_19  and  C_43
    8  A    between atoms: C_19  and  C_67
    9  A    between atoms: N_20  and  N_39
   10  A    between atoms: C_22  and  C_48
   11  A    between atoms: C_22  and  C_64
   12  A    between atoms: C_31  and  C_38
   13  A    between atoms: C_31  and  C_65
   14  A    between atoms: N_33  and  C_60
   15  A    between atoms: C_42  and  C_57
   16  A    between atoms: C_42  and  C_66
   17  A    between atoms: O_45  and  P_52
   18  A    between atoms: O_45  and  C_55
   19  A    between atoms: C_55  and  C_64
   20  A    between atoms: C_55  and  C_65
                            x       y       z     vdW  Elec       q    Type
                         _______ _______ _______ _____ _____    ______ ____

>  <TORSDO>
F 20

$$$$
=
 OpenBabel10232408333D

 69 76  0  0  1  0  0  0  0  0999 V2000
  187.3870  175.7870  137.1070 C   0  0  0  0  0  3  0  0  0  0  0  0
  192.0370  174.0270  136.6590 C   0  0  0  0  0  0  0  0  0  0  0  0
  186.5320  176.8070  137.2510 C   0  0  0  0  0  0  0  0  0  0  0  0
  191.6070  175.8960  138.1730 N   0  0  0  0  0  0  0  0  0  0  0  0
  191.1420  174.9230  137.2180 C   0  0  0  0  0  0  0  0  0  0  0  0
  193.3490  173.9920  137.2410 C   0  0  1  0  0  3  0  0  0  0  0  0
  189.6590  174.8700  137.0770 C   0  0  0  0  0  0  0  0  0  0  0  0
  188.8510  175.9470  137.2410 C   0  0  0  0  0  0  0  0  0  0  0  0
  187.0370  178.2030  137.5210 C   0  0  0  0  0  2  0  0  0  0  0  0
  189.6990  173.9450  134.4850 C   0  0  0  0  0  2  0  0  0  0  0  0
  190.8540  173.0950  134.6900 N   0  0  0  0  0  0  0  0  0  0  0  0
  189.3830  177.3460  137.4290 C   0  0  0  0  0  2  0  0  0  0  0  0
  193.7510  174.9510  138.2370 N   0  0  0  0  0  0  0  0  0  0  0  0
  188.3940  178.1910  138.2260 C   0  0  0  0  0  2  0  0  0  0  0  0
  191.8170  173.0820  135.5720 C   0  0  0  0  0  0  0  0  0  0  0  0
  192.7610  172.1350  135.3320 N   0  0  0  0  0  2  0  0  0  0  0  0
  188.6020  173.4810  135.4170 C   0  0  0  0  0  2  0  0  0  0  0  0
  192.8070  175.9380  138.6450 C   0  0  0  0  0  0  0  0  0  0  0  0
  193.9420  172.0860  135.9790 C   0  0  0  0  0  3  0  0  0  0  0  0
  189.0770  173.6510  136.7370 O   0  0  0  0  0  0  0  0  0  0  0  0
  194.2350  173.0220  136.8960 N   0  0  0  0  0  0  0  0  0  0  0  0
  184.2520  177.6460  136.6110 N   0  0  0  0  0  2  0  0  0  0  0  0
  184.5950  175.4400  137.2760 O   0  0  0  0  0  0  0  0  0  0  0  0
  185.0920  176.5760  137.0490 C   0  0  0  0  0  0  0  0  0  0  0  0
  182.8560  177.5100  136.5530 N   0  0  0  0  0  0  0  0  0  0  0  0
  182.0860  177.2340  137.7270 C   0  0  0  0  0  0  0  0  0  0  0  0
  180.6970  176.0180  139.9920 C   0  0  0  0  0  3  0  0  0  0  0  0
  181.9500  176.4780  140.0680 C   0  0  0  0  0  3  0  0  0  0  0  0
  180.2850  177.3430  137.6350 S   0  0  0  0  0  0  0  0  0  0  0  0
  182.6960  176.9180  138.8750 C   0  0  0  0  0  2  0  0  0  0  0  0
  179.9870  175.8660  138.6790 C   0  0  1  0  0  3  0  0  0  0  0  0
  180.4310  174.5790  137.9880 C   0  0  0  0  0  2  0  0  0  0  0  0
  180.3950  174.7270  136.4730 C   0  0  0  0  0  2  0  0  0  0  0  0
  180.8550  173.4460  135.7870 C   0  0  1  0  0  3  0  0  0  0  0  0
  182.9110  172.1070  135.0720 C   0  0  1  0  0  3  0  0  0  0  0  0
  184.4460  172.1610  137.3970 O   0  0  0  0  0  0  0  0  0  0  0  0
  184.1820  171.4300  136.1080 S   0  0  0  0  0  0  0  0  0  0  0  0
  180.5930  170.9770  135.7030 C   0  0  0  0  0  2  0  0  0  0  0  0
  182.0450  170.8310  135.2190 C   0  0  2  0  0  3  0  0  0  0  0  0
  185.4290  171.0250  135.3750 O   0  0  0  0  0  0  0  0  0  0  0  0
  180.8720  172.1140  137.8010 O   0  0  0  0  0  1  0  0  0  0  0  0
  182.3750  173.3800  135.7440 C   0  0  0  0  0  2  0  0  0  0  0  0
  182.9630  170.1550  136.2330 C   0  0  0  0  0  2  0  0  0  0  0  0
  180.3120  172.2290  136.5230 C   0  0  1  0  0  3  0  0  0  0  0  0
  195.1250  174.9670  138.7500 C   0  0  0  0  0  2  0  0  0  0  0  0
  196.1370  174.4280  137.7330 C   0  0  1  0  0  3  0  0  0  0  0  0
  198.4810  174.1190  137.5440 C   0  0  0  0  0  2  0  0  0  0  0  0
  196.6230  175.4480  136.9020 O   0  0  0  0  0  0  0  0  0  0  0  0
  197.8820  175.0050  136.4710 C   0  0  0  0  0  2  0  0  0  0  0  0
  197.3080  173.7350  138.3950 C   0  0  0  0  0  2  0  0  0  0  0  0
  193.1890  177.0520  139.5690 C   0  0  0  0  0  2  0  0  0  0  0  0
  191.9570  177.6140  140.2560 C   0  0  0  0  0  2  0  0  0  0  0  0
  192.0260  177.3240  141.6790 N   0  0  0  0  0  2  0  0  0  0  0  0
  190.6860  176.9430  142.1000 C   0  0  1  0  0  3  0  0  0  0  0  0
  190.7250  175.5740  142.7620 C   0  0  0  0  0  1  0  0  0  0  0  0
  190.1060  178.0060  142.9930 C   0  0  0  0  0  0  0  0  0  0  0  0
  190.8590  178.8220  143.5000 O   0  0  0  0  0  0  0  0  0  0  0  0
  188.6400  178.0380  143.3350 C   0  0  0  0  0  2  0  0  0  0  0  0
  188.3450  177.6200  144.7780 C   0  0  1  0  0  3  0  0  0  0  0  0
  186.8820  177.2270  144.9480 C   0  0  0  0  0  2  0  0  0  0  0  0
  185.9680  178.4400  144.8450 C   0  0  0  0  0  2  0  0  0  0  0  0
  184.1950  178.3960  146.5890 O   0  0  0  0  0  0  0  0  0  0  0  0
  185.4580  178.8150  146.1910 C   0  0  0  0  0  0  0  0  0  0  0  0
  186.1620  179.5120  146.9680 O   0  0  0  0  0  1  0  0  0  0  0  0
  189.1770  176.5610  145.1640 O   0  0  0  0  0  0  0  0  0  0  0  0
  191.6280  177.2780  146.2620 O   0  0  0  0  0  0  0  0  0  0  0  0
  189.7750  175.9110  147.7810 O   0  0  0  0  0  1  0  0  0  0  0  0
  189.9730  177.0800  146.5730 P   0  0  0  0  0  0  0  0  0  0  0  0
  189.3850  178.3900  147.0570 O   0  0  0  0  0  1  0  0  0  0  0  0
  1  8  1  0  0  0  0
  1  3  2  0  0  0  0
  2  5  2  0  0  0  0
  3  9  1  0  0  0  0
  4 18  2  0  0  0  0
  5  4  1  0  0  0  0
  6  2  1  1  0  0  0
  6 13  1  0  0  0  0
  7  5  1  0  0  0  0
  7  8  2  0  0  0  0
  8 12  1  0  0  0  0
  9 14  1  0  0  0  0
 10 11  1  0  0  0  0
 10 17  1  0  0  0  0
 11 15  2  0  0  0  0
 12 14  1  0  0  0  0
 13 18  1  0  0  0  0
 13 45  1  0  0  0  0
 15  2  1  0  0  0  0
 16 15  1  0  0  0  0
 16 19  1  0  0  0  0
 17 20  1  0  0  0  0
 18 51  1  0  0  0  0
 19 21  2  0  0  0  0
 20  7  1  0  0  0  0
 21  6  1  0  0  0  0
 22 24  1  0  0  0  0
 24  3  1  0  0  0  0
 24 23  2  0  0  0  0
 25 22  1  0  0  0  0
 25 26  2  0  0  0  0
 26 30  1  0  0  0  0
 27 28  2  0  0  0  0
 29 26  1  0  0  0  0
 29 31  1  0  0  0  0
 30 28  1  0  0  0  0
 31 32  1  6  0  0  0
 31 27  1  0  0  0  0
 33 32  1  0  0  0  0
 34 33  1  1  0  0  0
 34 44  1  0  0  0  0
 35 39  1  0  0  0  0
 35 42  1  1  0  0  0
 35 37  1  0  0  0  0
 37 43  1  0  0  0  0
 37 36  2  0  0  0  0
 38 44  1  0  0  0  0
 39 38  1  1  0  0  0
 39 43  1  0  0  0  0
 40 37  2  0  0  0  0
 42 34  1  0  0  0  0
 44 41  1  1  0  0  0
 46 50  1  0  0  0  0
 46 45  1  1  0  0  0
 47 50  1  0  0  0  0
 48 46  1  0  0  0  0
 49 48  1  0  0  0  0
 49 47  1  0  0  0  0
 51 52  1  0  0  0  0
 52 53  1  0  0  0  0
 53 54  1  0  0  0  0
 54 55  1  1  0  0  0
 54 56  1  0  0  0  0
 56 58  1  0  0  0  0
 56 57  2  0  0  0  0
 59 58  1  6  0  0  0
 59 60  1  0  0  0  0
 59 65  1  0  0  0  0
 61 60  1  0  0  0  0
 61 63  1  0  0  0  0
 63 62  2  0  0  0  0
 63 64  1  0  0  0  0
 65 68  1  0  0  0  0
 66 68  2  0  0  0  0
 68 69  1  0  0  0  0
 68 67  1  0  0  0  0
M  END
>  <MODEL>
5

>  <REMARK>
 VINA RESULT:      -5.4      3.298     10.895
  Name = 
  20 active torsions:
  status: ('A' for Active; 'I' for Inactive)
    1  A    between atoms: N_2  and  C_38
    2  A    between atoms: N_2  and  C_66
    3  A    between atoms: C_3  and  C_43
    4  A    between atoms: C_4  and  N_20
    5  A    between atoms: C_6  and  C_63
    6  A    between atoms: C_14  and  C_60
    7  A    between atoms: C_19  and  C_43
    8  A    between atoms: C_19  and  C_67
    9  A    between atoms: N_20  and  N_39
   10  A    between atoms: C_22  and  C_48
   11  A    between atoms: C_22  and  C_64
   12  A    between atoms: C_31  and  C_38
   13  A    between atoms: C_31  and  C_65
   14  A    between atoms: N_33  and  C_60
   15  A    between atoms: C_42  and  C_57
   16  A    between atoms: C_42  and  C_66
   17  A    between atoms: O_45  and  P_52
   18  A    between atoms: O_45  and  C_55
   19  A    between atoms: C_55  and  C_64
   20  A    between atoms: C_55  and  C_65
                            x       y       z     vdW  Elec       q    Type
                         _______ _______ _______ _____ _____    ______ ____

>  <TORSDO>
F 20

$$$$
=
 OpenBabel10232408333D

 69 76  0  0  1  0  0  0  0  0999 V2000
  190.0210  176.9820  140.0760 C   0  0  0  0  0  3  0  0  0  0  0  0
  187.0660  177.9910  143.9710 C   0  0  0  0  0  0  0  0  0  0  0  0
  190.4490  177.2430  138.8340 C   0  0  0  0  0  0  0  0  0  0  0  0
  186.1780  178.2190  141.7060 N   0  0  0  0  0  0  0  0  0  0  0  0
  187.2610  177.9060  142.6030 C   0  0  0  0  0  0  0  0  0  0  0  0
  185.7130  178.1810  144.4100 C   0  0  0  0  0  0  0  0  0  0  0  0
  188.4590  177.3250  141.9320 C   0  0  0  0  0  0  0  0  0  0  0  0
  188.8310  177.6340  140.6640 C   0  0  0  0  0  0  0  0  0  0  0  0
  189.7450  178.2660  137.9770 C   0  0  0  0  0  2  0  0  0  0  0  0
  190.2480  178.2160  143.8230 C   0  0  0  0  0  2  0  0  0  0  0  0
  189.3490  177.9960  144.9370 N   0  0  0  0  0  0  0  0  0  0  0  0
  188.1620  178.7180  139.8570 C   0  0  0  0  0  2  0  0  0  0  0  0
  184.6510  178.4330  143.4710 N   0  0  0  0  0  0  0  0  0  0  0  0
  188.2740  178.4190  138.3660 C   0  0  0  0  0  2  0  0  0  0  0  0
  188.0520  177.8780  145.0380 C   0  0  0  0  0  0  0  0  0  0  0  0
  187.6150  177.7620  146.3190 N   0  0  0  0  0  0  0  0  0  0  0  0
  190.4920  176.8860  143.1460 C   0  0  0  0  0  2  0  0  0  0  0  0
  184.9720  178.4800  142.0830 C   0  0  0  0  0  0  0  0  0  0  0  0
  186.3170  177.8490  146.6690 C   0  0  0  0  0  3  0  0  0  0  0  0
  189.2460  176.4330  142.6550 O   0  0  0  0  0  0  0  0  0  0  0  0
  185.3900  178.0860  145.7260 N   0  0  0  0  0  0  0  0  0  0  0  0
  191.8880  176.4460  136.9360 N   0  0  0  0  0  2  0  0  0  0  0  0
  192.5280  176.1490  139.1560 O   0  0  0  0  0  0  0  0  0  0  0  0
  191.6740  176.5920  138.3410 C   0  0  0  0  0  0  0  0  0  0  0  0
  192.9630  175.7000  136.4280 N   0  0  0  0  0  2  0  0  0  0  0  0
  192.7560  174.4370  135.7880 C   0  0  0  0  0  0  0  0  0  0  0  0
  192.4460  171.6100  135.1170 C   0  0  0  0  0  3  0  0  0  0  0  0
  191.4210  172.3890  135.4780 C   0  0  0  0  0  3  0  0  0  0  0  0
  194.0390  173.7920  134.6920 S   0  0  0  0  0  0  0  0  0  0  0  0
  191.6210  173.7570  135.9890 C   0  0  0  0  0  3  0  0  0  0  0  0
  193.8710  172.0580  135.2610 C   0  0  1  0  0  3  0  0  0  0  0  0
  194.3340  171.8820  136.7040 C   0  0  0  0  0  2  0  0  0  0  0  0
  195.2950  172.9890  137.1130 C   0  0  0  0  0  2  0  0  0  0  0  0
  196.6710  172.4250  137.4460 C   0  0  1  0  0  3  0  0  0  0  0  0
  198.0810  170.2940  137.4680 C   0  0  1  0  0  3  0  0  0  0  0  0
  197.5790  169.2670  134.9270 O   0  0  0  0  0  0  0  0  0  0  0  0
  198.5360  169.2760  136.0880 S   0  0  0  0  0  0  0  0  0  0  0  0
  199.1190  172.7140  137.1330 C   0  0  0  0  0  2  0  0  0  0  0  0
  199.3250  171.1970  137.2730 C   0  0  2  0  0  3  0  0  0  0  0  0
  199.0450  167.9140  136.4630 O   0  0  0  0  0  0  0  0  0  0  0  0
  197.6150  172.8490  135.2640 O   0  0  0  0  0  1  0  0  0  0  0  0
  196.7170  170.9300  137.1630 C   0  0  0  0  0  2  0  0  0  0  0  0
  199.7890  170.5200  135.9870 C   0  0  0  0  0  2  0  0  0  0  0  0
  197.7440  173.1310  136.6290 C   0  0  1  0  0  3  0  0  0  0  0  0
  183.2910  178.7260  143.9380 C   0  0  0  0  0  2  0  0  0  0  0  0
  182.2970  178.8880  142.7820 C   0  0  1  0  0  3  0  0  0  0  0  0
  179.9910  179.3460  142.4660 C   0  0  0  0  0  2  0  0  0  0  0  0
  181.6730  177.6720  142.4660 O   0  0  0  0  0  0  0  0  0  0  0  0
  180.4490  178.0270  141.8800 C   0  0  0  0  0  2  0  0  0  0  0  0
  181.2340  179.9230  143.0770 C   0  0  0  0  0  2  0  0  0  0  0  0
  183.9560  178.8730  141.0560 C   0  0  0  0  0  2  0  0  0  0  0  0
  184.4220  178.4650  139.6700 C   0  0  0  0  0  2  0  0  0  0  0  0
  183.2630  178.2060  138.8310 N   0  0  0  0  0  2  0  0  0  0  0  0
  183.3100  176.7980  138.4650 C   0  0  1  0  0  3  0  0  0  0  0  0
  182.5470  175.9750  139.4920 C   0  0  0  0  0  1  0  0  0  0  0  0
  182.7890  176.6140  137.0650 C   0  0  0  0  0  0  0  0  0  0  0  0
  181.5830  176.5760  136.8880 O   0  0  0  0  0  0  0  0  0  0  0  0
  183.7170  176.3970  135.8990 C   0  0  0  0  0  2  0  0  0  0  0  0
  184.7450  175.2880  136.1400 C   0  0  1  0  0  3  0  0  0  0  0  0
  184.0600  173.9560  136.4240 C   0  0  0  0  0  2  0  0  0  0  0  0
  183.1160  173.5670  135.2950 C   0  0  0  0  0  2  0  0  0  0  0  0
  182.0350  171.8570  136.7420 O   0  0  0  0  0  1  0  0  0  0  0  0
  181.9010  172.9090  135.8460 C   0  0  0  0  0  0  0  0  0  0  0  0
  180.7550  173.2970  135.5010 O   0  0  0  0  0  0  0  0  0  0  0  0
  185.6030  175.1640  135.0400 O   0  0  0  0  0  0  0  0  0  0  0  0
  188.2620  174.3560  134.9800 O   0  0  0  0  0  0  0  0  0  0  0  0
  187.1620  175.3300  137.3140 O   0  0  0  0  0  1  0  0  0  0  0  0
  187.1680  175.4760  135.6280 P   0  0  0  0  0  0  0  0  0  0  0  0
  187.5970  176.8810  135.2580 O   0  0  0  0  0  1  0  0  0  0  0  0
  1  8  1  0  0  0  0
  2  6  1  0  0  0  0
  2 15  1  0  0  0  0
  3  1  2  0  0  0  0
  4 18  2  0  0  0  0
  4  5  1  0  0  0  0
  5  2  2  0  0  0  0
  6 21  2  0  0  0  0
  7  5  1  0  0  0  0
  7 20  1  0  0  0  0
  8  7  2  0  0  0  0
  9 14  1  0  0  0  0
  9  3  1  0  0  0  0
 10 11  1  0  0  0  0
 11 15  2  0  0  0  0
 12  8  1  0  0  0  0
 13 45  1  0  0  0  0
 13  6  1  0  0  0  0
 14 12  1  0  0  0  0
 15 16  1  0  0  0  0
 16 19  2  0  0  0  0
 17 10  1  0  0  0  0
 18 13  1  0  0  0  0
 20 17  1  0  0  0  0
 21 19  1  0  0  0  0
 22 24  1  0  0  0  0
 24  3  1  0  0  0  0
 24 23  2  0  0  0  0
 25 22  1  0  0  0  0
 26 30  2  0  0  0  0
 26 25  1  0  0  0  0
 27 31  1  0  0  0  0
 27 28  2  0  0  0  0
 28 30  1  0  0  0  0
 29 31  1  0  0  0  0
 29 26  1  0  0  0  0
 31 32  1  1  0  0  0
 32 33  1  0  0  0  0
 34 33  1  6  0  0  0
 35 42  1  6  0  0  0
 36 37  2  0  0  0  0
 37 40  2  0  0  0  0
 37 35  1  0  0  0  0
 38 39  1  0  0  0  0
 39 43  1  6  0  0  0
 39 35  1  0  0  0  0
 42 34  1  0  0  0  0
 43 37  1  0  0  0  0
 44 41  1  6  0  0  0
 44 38  1  0  0  0  0
 44 34  1  0  0  0  0
 46 50  1  0  0  0  0
 46 45  1  1  0  0  0
 47 50  1  0  0  0  0
 48 46  1  0  0  0  0
 49 48  1  0  0  0  0
 49 47  1  0  0  0  0
 51 18  1  0  0  0  0
 52 51  1  0  0  0  0
 53 52  1  0  0  0  0
 54 53  1  0  0  0  0
 54 55  1  1  0  0  0
 56 54  1  0  0  0  0
 57 56  2  0  0  0  0
 58 56  1  0  0  0  0
 59 58  1  6  0  0  0
 59 60  1  0  0  0  0
 61 63  1  0  0  0  0
 61 60  1  0  0  0  0
 63 62  1  0  0  0  0
 64 63  2  0  0  0  0
 65 68  1  0  0  0  0
 65 59  1  0  0  0  0
 66 68  2  0  0  0  0
 68 67  1  0  0  0  0
 69 68  1  0  0  0  0
M  END
>  <MODEL>
6

>  <REMARK>
 VINA RESULT:      -5.3      2.833      6.911
  Name = 
  20 active torsions:
  status: ('A' for Active; 'I' for Inactive)
    1  A    between atoms: N_2  and  C_38
    2  A    between atoms: N_2  and  C_66
    3  A    between atoms: C_3  and  C_43
    4  A    between atoms: C_4  and  N_20
    5  A    between atoms: C_6  and  C_63
    6  A    between atoms: C_14  and  C_60
    7  A    between atoms: C_19  and  C_43
    8  A    between atoms: C_19  and  C_67
    9  A    between atoms: N_20  and  N_39
   10  A    between atoms: C_22  and  C_48
   11  A    between atoms: C_22  and  C_64
   12  A    between atoms: C_31  and  C_38
   13  A    between atoms: C_31  and  C_65
   14  A    between atoms: N_33  and  C_60
   15  A    between atoms: C_42  and  C_57
   16  A    between atoms: C_42  and  C_66
   17  A    between atoms: O_45  and  P_52
   18  A    between atoms: O_45  and  C_55
   19  A    between atoms: C_55  and  C_64
   20  A    between atoms: C_55  and  C_65
                            x       y       z     vdW  Elec       q    Type
                         _______ _______ _______ _____ _____    ______ ____

>  <TORSDO>
F 20

$$$$
=
 OpenBabel10232408333D

 69 76  0  0  1  0  0  0  0  0999 V2000
  191.0840  177.2890  138.9780 C   0  0  0  0  0  3  0  0  0  0  0  0
  186.5790  176.8960  136.8640 C   0  0  0  0  0  0  0  0  0  0  0  0
  191.8750  177.2620  140.0570 C   0  0  0  0  0  0  0  0  0  0  0  0
  186.7840  177.9730  139.0470 N   0  0  0  0  0  0  0  0  0  0  0  0
  187.3780  177.3040  137.9180 C   0  0  0  0  0  0  0  0  0  0  0  0
  185.2230  177.3670  136.8740 C   0  0  1  0  0  3  0  0  0  0  0  0
  188.8690  177.2930  137.9310 C   0  0  0  0  0  0  0  0  0  0  0  0
  189.6080  177.2700  139.0680 C   0  0  0  0  0  0  0  0  0  0  0  0
  191.2840  177.1670  141.4420 C   0  0  0  0  0  2  0  0  0  0  0  0
  189.1040  174.9850  136.4500 C   0  0  0  0  0  2  0  0  0  0  0  0
  187.9760  175.2890  135.5950 N   0  0  0  0  0  0  0  0  0  0  0  0
  188.9980  177.0910  140.4360 C   0  0  0  0  0  2  0  0  0  0  0  0
  184.6900  178.0840  138.0030 N   0  0  0  0  0  0  0  0  0  0  0  0
  189.8710  177.7490  141.5000 C   0  0  0  0  0  2  0  0  0  0  0  0
  186.9390  176.0740  135.7150 C   0  0  0  0  0  0  0  0  0  0  0  0
  186.0650  175.9830  134.6800 N   0  0  0  0  0  2  0  0  0  0  0  0
  190.1330  176.0810  136.2780 C   0  0  0  0  0  2  0  0  0  0  0  0
  185.5460  178.3280  139.1160 C   0  0  0  0  0  0  0  0  0  0  0  0
  184.8340  176.5310  134.7000 C   0  0  0  0  0  3  0  0  0  0  0  0
  189.5340  177.2870  136.7080 O   0  0  0  0  0  0  0  0  0  0  0  0
  184.4170  177.1850  135.7960 N   0  0  0  0  0  0  0  0  0  0  0  0
  194.0570  176.0180  140.1130 N   0  0  0  0  0  2  0  0  0  0  0  0
  193.9570  178.2740  139.5400 O   0  0  0  0  0  0  0  0  0  0  0  0
  193.3370  177.2300  139.8810 C   0  0  0  0  0  0  0  0  0  0  0  0
  195.4600  175.9820  140.1050 N   0  0  0  0  0  2  0  0  0  0  0  0
  196.1750  174.9900  139.3610 C   0  0  0  0  0  0  0  0  0  0  0  0
  197.6580  173.4590  137.3630 C   0  0  0  0  0  3  0  0  0  0  0  0
  198.2550  174.1890  138.3110 C   0  0  0  0  0  3  0  0  0  0  0  0
  195.2650  173.5860  138.6800 S   0  0  0  0  0  0  0  0  0  0  0  0
  197.4980  175.0970  139.1920 C   0  0  0  0  0  3  0  0  0  0  0  0
  196.1850  173.5590  137.0950 C   0  0  1  0  0  3  0  0  0  0  0  0
  195.8880  174.7890  136.2410 C   0  0  0  0  0  2  0  0  0  0  0  0
  194.4150  174.8550  135.8640 C   0  0  0  0  0  2  0  0  0  0  0  0
  193.9930  173.6150  135.0850 C   0  0  1  0  0  3  0  0  0  0  0  0
  194.4920  171.1360  134.7170 C   0  0  1  0  0  3  0  0  0  0  0  0
  194.6580  170.2050  137.3380 O   0  0  0  0  0  0  0  0  0  0  0  0
  194.4080  169.8210  135.9050 S   0  0  0  0  0  0  0  0  0  0  0  0
  192.0720  172.1850  134.4210 C   0  0  0  0  0  2  0  0  0  0  0  0
  192.9980  170.9600  134.3460 C   0  0  2  0  0  3  0  0  0  0  0  0
  195.1080  168.5600  135.4860 O   0  0  0  0  0  0  0  0  0  0  0  0
  192.3500  172.8910  136.7010 O   0  0  0  0  0  1  0  0  0  0  0  0
  194.8680  172.4260  135.4590 C   0  0  0  0  0  2  0  0  0  0  0  0
  192.7110  169.9100  135.4150 C   0  0  0  0  0  2  0  0  0  0  0  0
  192.5340  173.2830  135.3690 C   0  0  1  0  0  3  0  0  0  0  0  0
  183.2750  178.4730  138.0440 C   0  0  0  0  0  2  0  0  0  0  0  0
  182.3340  177.2650  137.9670 C   0  0  1  0  0  3  0  0  0  0  0  0
  180.3010  176.5260  138.9410 C   0  0  0  0  0  2  0  0  0  0  0  0
  182.6630  176.2950  138.9260 O   0  0  0  0  0  0  0  0  0  0  0  0
  181.4730  175.5920  139.1630 C   0  0  0  0  0  2  0  0  0  0  0  0
  180.8820  177.6540  138.1410 C   0  0  0  0  0  2  0  0  0  0  0  0
  185.0330  178.9410  140.3810 C   0  0  0  0  0  2  0  0  0  0  0  0
  186.0020  178.6880  141.5220 C   0  0  0  0  0  2  0  0  0  0  0  0
  185.3150  177.9770  142.5870 N   0  0  0  0  0  2  0  0  0  0  0  0
  185.6210  178.6730  143.8290 C   0  0  1  0  0  3  0  0  0  0  0  0
  184.3380  178.9250  144.6060 C   0  0  0  0  0  1  0  0  0  0  0  0
  186.6370  177.8920  144.6170 C   0  0  0  0  0  0  0  0  0  0  0  0
  186.2880  177.3560  145.6570 O   0  0  0  0  0  0  0  0  0  0  0  0
  188.0820  177.8250  144.1970 C   0  0  0  0  0  2  0  0  0  0  0  0
  189.0410  177.5770  145.3640 C   0  0  1  0  0  3  0  0  0  0  0  0
  190.4420  177.2450  144.8630 C   0  0  0  0  0  2  0  0  0  0  0  0
  191.4450  177.2060  146.0070 C   0  0  0  0  0  2  0  0  0  0  0  0
  192.4050  175.0120  145.3340 O   0  0  0  0  0  0  0  0  0  0  0  0
  191.8170  175.7990  146.3160 C   0  0  0  0  0  0  0  0  0  0  0  0
  191.5980  175.3180  147.4580 O   0  0  0  0  0  1  0  0  0  0  0  0
  189.0840  178.6920  146.2120 O   0  0  0  0  0  0  0  0  0  0  0  0
  187.2280  178.9960  148.2580 O   0  0  0  0  0  1  0  0  0  0  0  0
  189.8520  178.3840  148.8480 O   0  0  0  0  0  1  0  0  0  0  0  0
  188.5940  178.1360  147.7420 P   0  0  0  0  0  0  0  0  0  0  0  0
  188.2760  176.6560  147.6860 O   0  0  0  0  0  0  0  0  0  0  0  0
  1  8  1  0  0  0  0
  1  3  2  0  0  0  0
  2  6  1  0  0  0  0
  2  5  2  0  0  0  0
  3  9  1  0  0  0  0
  4 18  2  0  0  0  0
  5  7  1  0  0  0  0
  5  4  1  0  0  0  0
  6 21  1  6  0  0  0
  6 13  1  0  0  0  0
  7  8  2  0  0  0  0
  8 12  1  0  0  0  0
  9 14  1  0  0  0  0
 11 15  2  0  0  0  0
 11 10  1  0  0  0  0
 12 14  1  0  0  0  0
 13 45  1  0  0  0  0
 13 18  1  0  0  0  0
 15  2  1  0  0  0  0
 16 19  1  0  0  0  0
 16 15  1  0  0  0  0
 17 10  1  0  0  0  0
 17 20  1  0  0  0  0
 18 51  1  0  0  0  0
 19 21  2  0  0  0  0
 20  7  1  0  0  0  0
 23 24  2  0  0  0  0
 24  3  1  0  0  0  0
 24 22  1  0  0  0  0
 25 22  1  0  0  0  0
 26 25  1  0  0  0  0
 27 28  2  0  0  0  0
 28 30  1  0  0  0  0
 29 26  1  0  0  0  0
 30 26  2  0  0  0  0
 31 32  1  1  0  0  0
 31 27  1  0  0  0  0
 31 29  1  0  0  0  0
 33 32  1  0  0  0  0
 34 44  1  0  0  0  0
 34 42  1  0  0  0  0
 34 33  1  1  0  0  0
 35 42  1  1  0  0  0
 35 37  1  0  0  0  0
 37 36  2  0  0  0  0
 38 44  1  0  0  0  0
 39 38  1  1  0  0  0
 39 35  1  0  0  0  0
 39 43  1  0  0  0  0
 40 37  2  0  0  0  0
 43 37  1  0  0  0  0
 44 41  1  1  0  0  0
 46 45  1  1  0  0  0
 46 50  1  0  0  0  0
 46 48  1  0  0  0  0
 47 49  1  0  0  0  0
 48 49  1  0  0  0  0
 50 47  1  0  0  0  0
 51 52  1  0  0  0  0
 52 53  1  0  0  0  0
 53 54  1  0  0  0  0
 54 55  1  1  0  0  0
 54 56  1  0  0  0  0
 56 57  2  0  0  0  0
 58 56  1  0  0  0  0
 59 58  1  6  0  0  0
 59 65  1  0  0  0  0
 60 59  1  0  0  0  0
 60 61  1  0  0  0  0
 61 63  1  0  0  0  0
 62 63  2  0  0  0  0
 63 64  1  0  0  0  0
 65 68  1  0  0  0  0
 68 66  1  0  0  0  0
 68 67  1  0  0  0  0
 69 68  2  0  0  0  0
M  END
>  <MODEL>
7

>  <REMARK>
 VINA RESULT:      -5.3      2.714      4.625
  Name = 
  20 active torsions:
  status: ('A' for Active; 'I' for Inactive)
    1  A    between atoms: N_2  and  C_38
    2  A    between atoms: N_2  and  C_66
    3  A    between atoms: C_3  and  C_43
    4  A    between atoms: C_4  and  N_20
    5  A    between atoms: C_6  and  C_63
    6  A    between atoms: C_14  and  C_60
    7  A    between atoms: C_19  and  C_43
    8  A    between atoms: C_19  and  C_67
    9  A    between atoms: N_20  and  N_39
   10  A    between atoms: C_22  and  C_48
   11  A    between atoms: C_22  and  C_64
   12  A    between atoms: C_31  and  C_38
   13  A    between atoms: C_31  and  C_65
   14  A    between atoms: N_33  and  C_60
   15  A    between atoms: C_42  and  C_57
   16  A    between atoms: C_42  and  C_66
   17  A    between atoms: O_45  and  P_52
   18  A    between atoms: O_45  and  C_55
   19  A    between atoms: C_55  and  C_64
   20  A    between atoms: C_55  and  C_65
                            x       y       z     vdW  Elec       q    Type
                         _______ _______ _______ _____ _____    ______ ____

>  <TORSDO>
F 20

$$$$
=
 OpenBabel10232408333D

 69 76  0  0  1  0  0  0  0  0999 V2000
  190.0340  176.8750  138.8480 C   0  0  0  0  0  3  0  0  0  0  0  0
  189.3250  177.3710  143.7650 C   0  0  0  0  0  0  0  0  0  0  0  0
  189.7330  177.2020  137.5850 C   0  0  0  0  0  0  0  0  0  0  0  0
  187.3960  177.4330  142.2670 N   0  0  0  0  0  0  0  0  0  0  0  0
  188.8160  177.3160  142.4790 C   0  0  0  0  0  0  0  0  0  0  0  0
  188.3650  177.3250  144.8320 C   0  0  1  0  0  3  0  0  0  0  0  0
  189.5860  176.9490  141.2560 C   0  0  0  0  0  0  0  0  0  0  0  0
  189.2180  177.3130  140.0020 C   0  0  0  0  0  0  0  0  0  0  0  0
  188.5480  178.0830  137.2790 C   0  0  0  0  0  2  0  0  0  0  0  0
  191.9240  178.1440  142.0780 C   0  0  0  0  0  2  0  0  0  0  0  0
  191.7520  177.7750  143.4680 N   0  0  0  0  0  0  0  0  0  0  0  0
  188.0780  178.2610  139.7270 C   0  0  0  0  0  2  0  0  0  0  0  0
  186.9510  177.3860  144.5680 N   0  0  0  0  0  0  0  0  0  0  0  0
  187.4680  177.9800  138.3570 C   0  0  0  0  0  2  0  0  0  0  0  0
  190.7180  177.4350  144.1890 C   0  0  0  0  0  0  0  0  0  0  0  0
  191.0080  177.2500  145.5030 N   0  0  0  0  0  2  0  0  0  0  0  0
  191.9930  176.8740  141.2600 C   0  0  0  0  0  2  0  0  0  0  0  0
  186.5190  177.4820  143.2130 C   0  0  0  0  0  0  0  0  0  0  0  0
  190.0660  177.1120  146.4560 C   0  0  0  0  0  3  0  0  0  0  0  0
  190.7550  176.2100  141.4160 O   0  0  0  0  0  0  0  0  0  0  0  0
  188.7670  177.1800  146.1210 N   0  0  0  0  0  0  0  0  0  0  0  0
  191.9020  176.2040  136.8030 N   0  0  0  0  0  2  0  0  0  0  0  0
  190.2750  176.9140  135.2940 O   0  0  0  0  0  0  0  0  0  0  0  0
  190.6260  176.7710  136.4960 C   0  0  0  0  0  0  0  0  0  0  0  0
  192.8420  175.9230  135.7990 N   0  0  0  0  0  2  0  0  0  0  0  0
  194.2390  175.8230  136.0950 C   0  0  0  0  0  0  0  0  0  0  0  0
  197.0980  175.2200  136.1350 C   0  0  0  0  0  3  0  0  0  0  0  0
  196.5880  176.2890  135.5140 C   0  0  0  0  0  3  0  0  0  0  0  0
  194.7640  174.8210  137.5030 S   0  0  0  0  0  0  0  0  0  0  0  0
  195.1360  176.4780  135.3480 C   0  0  0  0  0  3  0  0  0  0  0  0
  196.2270  174.1140  136.6540 C   0  0  1  0  0  3  0  0  0  0  0  0
  195.8300  173.1800  135.5150 C   0  0  0  0  0  2  0  0  0  0  0  0
  197.0260  172.3770  135.0200 C   0  0  0  0  0  2  0  0  0  0  0  0
  196.8120  170.8840  135.2400 C   0  0  1  0  0  3  0  0  0  0  0  0
  196.6840  169.0540  137.0200 C   0  0  1  0  0  3  0  0  0  0  0  0
  194.9800  170.2170  138.8930 O   0  0  0  0  0  0  0  0  0  0  0  0
  195.5330  168.9210  138.3630 S   0  0  0  0  0  0  0  0  0  0  0  0
  195.3510  168.9410  134.7270 C   0  0  0  0  0  2  0  0  0  0  0  0
  195.7330  168.2890  136.0650 C   0  0  2  0  0  3  0  0  0  0  0  0
  195.9400  167.9530  139.4360 O   0  0  0  0  0  0  0  0  0  0  0  0
  194.4090  171.0350  135.4370 O   0  0  0  0  0  1  0  0  0  0  0  0
  196.9000  170.5450  136.7220 C   0  0  0  0  0  2  0  0  0  0  0  0
  194.5770  168.2040  137.0580 C   0  0  0  0  0  2  0  0  0  0  0  0
  195.4530  170.4600  134.7010 C   0  0  1  0  0  3  0  0  0  0  0  0
  185.9850  177.4400  145.6700 C   0  0  0  0  0  2  0  0  0  0  0  0
  185.2340  178.7750  145.7260 C   0  0  1  0  0  3  0  0  0  0  0  0
  183.3330  179.7920  144.7370 C   0  0  0  0  0  2  0  0  0  0  0  0
  185.7030  179.6690  144.7510 O   0  0  0  0  0  0  0  0  0  0  0  0
  184.6300  180.5380  144.5010 C   0  0  0  0  0  2  0  0  0  0  0  0
  183.7400  178.6040  145.5570 C   0  0  0  0  0  2  0  0  0  0  0  0
  185.0790  177.6890  142.8620 C   0  0  0  0  0  2  0  0  0  0  0  0
  184.9470  178.1410  141.4190 C   0  0  0  0  0  2  0  0  0  0  0  0
  183.8300  179.0650  141.3050 N   0  0  0  0  0  2  0  0  0  0  0  0
  182.6310  178.2610  141.1200 C   0  0  1  0  0  3  0  0  0  0  0  0
  181.4040  179.0750  141.5020 C   0  0  0  0  0  1  0  0  0  0  0  0
  182.5720  177.7420  139.7090 C   0  0  0  0  0  0  0  0  0  0  0  0
  181.8670  178.3210  138.9000 O   0  0  0  0  0  0  0  0  0  0  0  0
  183.2970  176.4880  139.2980 C   0  0  0  0  0  2  0  0  0  0  0  0
  183.0010  176.0610  137.8580 C   0  0  1  0  0  3  0  0  0  0  0  0
  184.2590  176.1110  136.9990 C   0  0  0  0  0  2  0  0  0  0  0  0
  184.6000  174.7380  136.4370 C   0  0  0  0  0  2  0  0  0  0  0  0
  185.5530  173.1330  138.0820 O   0  0  0  0  0  1  0  0  0  0  0  0
  185.7590  174.1580  137.1680 C   0  0  0  0  0  0  0  0  0  0  0  0
  186.9220  174.5940  136.9660 O   0  0  0  0  0  0  0  0  0  0  0  0
  182.4480  174.7740  137.8300 O   0  0  0  0  0  0  0  0  0  0  0  0
  180.1650  173.5880  136.7780 O   0  0  0  0  0  1  0  0  0  0  0  0
  180.5900  176.2950  136.4640 O   0  0  0  0  0  0  0  0  0  0  0  0
  180.7910  174.9820  137.5130 P   0  0  0  0  0  0  0  0  0  0  0  0
  180.0410  175.2610  138.7990 O   0  0  0  0  0  1  0  0  0  0  0  0
  1  8  1  0  0  0  0
  2 15  1  0  0  0  0
  3  1  2  0  0  0  0
  4  5  1  0  0  0  0
  4 18  2  0  0  0  0
  5  2  2  0  0  0  0
  6  2  1  6  0  0  0
  6 21  1  0  0  0  0
  7 20  1  0  0  0  0
  7  5  1  0  0  0  0
  8  7  2  0  0  0  0
  9  3  1  0  0  0  0
  9 14  1  0  0  0  0
 10 11  1  0  0  0  0
 11 15  2  0  0  0  0
 12  8  1  0  0  0  0
 13  6  1  0  0  0  0
 13 45  1  0  0  0  0
 14 12  1  0  0  0  0
 15 16  1  0  0  0  0
 16 19  1  0  0  0  0
 17 20  1  0  0  0  0
 17 10  1  0  0  0  0
 18 13  1  0  0  0  0
 21 19  2  0  0  0  0
 23 24  2  0  0  0  0
 24 22  1  0  0  0  0
 24  3  1  0  0  0  0
 25 26  1  0  0  0  0
 25 22  1  0  0  0  0
 26 29  1  0  0  0  0
 27 31  1  0  0  0  0
 28 27  2  0  0  0  0
 30 28  1  0  0  0  0
 30 26  2  0  0  0  0
 31 32  1  6  0  0  0
 31 29  1  0  0  0  0
 33 32  1  0  0  0  0
 34 33  1  1  0  0  0
 34 42  1  0  0  0  0
 35 42  1  6  0  0  0
 35 37  1  0  0  0  0
 37 36  2  0  0  0  0
 37 40  2  0  0  0  0
 39 38  1  6  0  0  0
 39 35  1  0  0  0  0
 39 43  1  0  0  0  0
 43 37  1  0  0  0  0
 44 38  1  0  0  0  0
 44 34  1  0  0  0  0
 44 41  1  1  0  0  0
 46 45  1  6  0  0  0
 47 50  1  0  0  0  0
 48 46  1  0  0  0  0
 49 47  1  0  0  0  0
 49 48  1  0  0  0  0
 50 46  1  0  0  0  0
 51 18  1  0  0  0  0
 52 51  1  0  0  0  0
 53 52  1  0  0  0  0
 54 53  1  0  0  0  0
 54 55  1  6  0  0  0
 56 54  1  0  0  0  0
 57 56  2  0  0  0  0
 58 56  1  0  0  0  0
 59 60  1  6  0  0  0
 59 58  1  0  0  0  0
 61 60  1  0  0  0  0
 61 63  1  0  0  0  0
 63 62  1  0  0  0  0
 64 63  2  0  0  0  0
 65 59  1  0  0  0  0
 66 68  1  0  0  0  0
 67 68  2  0  0  0  0
 68 65  1  0  0  0  0
 68 69  1  0  0  0  0
M  END
>  <MODEL>
8

>  <REMARK>
 VINA RESULT:      -5.2      3.314      7.469
  Name = 
  20 active torsions:
  status: ('A' for Active; 'I' for Inactive)
    1  A    between atoms: N_2  and  C_38
    2  A    between atoms: N_2  and  C_66
    3  A    between atoms: C_3  and  C_43
    4  A    between atoms: C_4  and  N_20
    5  A    between atoms: C_6  and  C_63
    6  A    between atoms: C_14  and  C_60
    7  A    between atoms: C_19  and  C_43
    8  A    between atoms: C_19  and  C_67
    9  A    between atoms: N_20  and  N_39
   10  A    between atoms: C_22  and  C_48
   11  A    between atoms: C_22  and  C_64
   12  A    between atoms: C_31  and  C_38
   13  A    between atoms: C_31  and  C_65
   14  A    between atoms: N_33  and  C_60
   15  A    between atoms: C_42  and  C_57
   16  A    between atoms: C_42  and  C_66
   17  A    between atoms: O_45  and  P_52
   18  A    between atoms: O_45  and  C_55
   19  A    between atoms: C_55  and  C_64
   20  A    between atoms: C_55  and  C_65
                            x       y       z     vdW  Elec       q    Type
                         _______ _______ _______ _____ _____    ______ ____

>  <TORSDO>
F 20

$$$$
=
 OpenBabel10232408333D

 69 76  0  0  1  0  0  0  0  0999 V2000
  187.7070  175.8200  137.0320 C   0  0  0  0  0  3  0  0  0  0  0  0
  192.1110  173.5550  136.4020 C   0  0  0  0  0  0  0  0  0  0  0  0
  186.9680  176.9320  137.1340 C   0  0  0  0  0  0  0  0  0  0  0  0
  191.9980  175.5990  137.7350 N   0  0  0  0  0  0  0  0  0  0  0  0
  191.3580  174.5890  136.9310 C   0  0  0  0  0  0  0  0  0  0  0  0
  193.4610  173.4430  136.8750 C   0  0  1  0  0  3  0  0  0  0  0  0
  189.8700  174.6750  136.9170 C   0  0  0  0  0  0  0  0  0  0  0  0
  189.1860  175.8410  137.0290 C   0  0  0  0  0  0  0  0  0  0  0  0
  187.6250  178.2880  137.2090 C   0  0  0  0  0  2  0  0  0  0  0  0
  189.5870  173.4980  134.4450 C   0  0  0  0  0  2  0  0  0  0  0  0
  190.6700  172.5590  134.6470 N   0  0  0  0  0  0  0  0  0  0  0  0
  189.8610  177.1900  137.0200 C   0  0  0  0  0  2  0  0  0  0  0  0
  194.0400  174.4500  137.7260 N   0  0  0  0  0  0  0  0  0  0  0  0
  189.0330  178.2060  137.8000 C   0  0  0  0  0  2  0  0  0  0  0  0
  191.7050  172.5330  135.4450 C   0  0  0  0  0  0  0  0  0  0  0  0
  192.5300  171.4760  135.2320 N   0  0  0  0  0  2  0  0  0  0  0  0
  188.5410  173.2440  135.5080 C   0  0  0  0  0  2  0  0  0  0  0  0
  193.2350  175.5650  138.1000 C   0  0  0  0  0  0  0  0  0  0  0  0
  193.7550  171.3700  135.7830 C   0  0  0  0  0  3  0  0  0  0  0  0
  189.1480  173.4950  136.7600 O   0  0  0  0  0  0  0  0  0  0  0  0
  194.2170  172.3580  136.5670 N   0  0  0  0  0  0  0  0  0  0  0  0
  184.7860  177.4410  135.9990 N   0  0  0  0  0  2  0  0  0  0  0  0
  184.8710  176.2200  137.9810 O   0  0  0  0  0  0  0  0  0  0  0  0
  185.5000  176.8310  137.0750 C   0  0  0  0  0  0  0  0  0  0  0  0
  183.3830  177.5000  135.9850 N   0  0  0  0  0  0  0  0  0  0  0  0
  182.6530  178.0970  137.0610 C   0  0  0  0  0  0  0  0  0  0  0  0
  181.3550  178.7480  139.5970 C   0  0  0  0  0  3  0  0  0  0  0  0
  182.6010  179.1300  139.2980 C   0  0  0  0  0  3  0  0  0  0  0  0
  180.8480  178.1260  136.9830 S   0  0  0  0  0  0  0  0  0  0  0  0
  183.3020  178.6400  138.0980 C   0  0  0  0  0  2  0  0  0  0  0  0
  180.6100  177.7500  138.7610 C   0  0  1  0  0  3  0  0  0  0  0  0
  181.0570  176.3330  139.1100 C   0  0  0  0  0  2  0  0  0  0  0  0
  180.3650  175.3040  138.2270 C   0  0  0  0  0  2  0  0  0  0  0  0
  181.2270  174.0580  138.0590 C   0  0  1  0  0  3  0  0  0  0  0  0
  181.2260  171.6410  137.2300 C   0  0  1  0  0  3  0  0  0  0  0  0
  180.0110  171.9070  134.7360 O   0  0  0  0  0  0  0  0  0  0  0  0
  180.9170  171.0550  135.5840 S   0  0  0  0  0  0  0  0  0  0  0  0
  183.3880  173.1810  137.2040 C   0  0  0  0  0  2  0  0  0  0  0  0
  182.7370  171.8140  136.9360 C   0  0  2  0  0  3  0  0  0  0  0  0
  180.6250  169.5850  135.4930 O   0  0  0  0  0  0  0  0  0  0  0  0
  182.0430  174.6530  135.8650 O   0  0  0  0  0  1  0  0  0  0  0  0
  180.4160  172.9290  137.4380 C   0  0  0  0  0  2  0  0  0  0  0  0
  182.6320  171.4660  135.4530 C   0  0  0  0  0  2  0  0  0  0  0  0
  182.4310  174.3640  137.1790 C   0  0  1  0  0  3  0  0  0  0  0  0
  195.4510  174.3760  138.1210 C   0  0  0  0  0  2  0  0  0  0  0  0
  196.3930  174.8980  137.0310 C   0  0  1  0  0  3  0  0  0  0  0  0
  198.0940  174.0690  135.6000 C   0  0  0  0  0  2  0  0  0  0  0  0
  197.6220  175.3100  137.5670 O   0  0  0  0  0  0  0  0  0  0  0  0
  198.5430  175.1890  136.5160 C   0  0  0  0  0  2  0  0  0  0  0  0
  196.6500  173.8700  135.9500 C   0  0  0  0  0  2  0  0  0  0  0  0
  193.8020  176.7200  138.8640 C   0  0  0  0  0  2  0  0  0  0  0  0
  192.6880  177.5190  139.5170 C   0  0  0  0  0  2  0  0  0  0  0  0
  191.8340  176.6210  140.2770 N   0  0  0  0  0  2  0  0  0  0  0  0
  190.8010  177.4390  140.8960 C   0  0  1  0  0  3  0  0  0  0  0  0
  189.4290  176.8790  140.5530 C   0  0  0  0  0  1  0  0  0  0  0  0
  191.0400  177.5330  142.3780 C   0  0  0  0  0  0  0  0  0  0  0  0
  191.9460  176.8780  142.8690 O   0  0  0  0  0  0  0  0  0  0  0  0
  190.1440  178.3470  143.2730 C   0  0  0  0  0  2  0  0  0  0  0  0
  189.7350  177.6130  144.5520 C   0  0  1  0  0  3  0  0  0  0  0  0
  190.9320  177.4050  145.4730 C   0  0  0  0  0  2  0  0  0  0  0  0
  190.5450  176.6110  146.7130 C   0  0  0  0  0  2  0  0  0  0  0  0
  192.0780  177.6580  148.3690 O   0  0  0  0  0  1  0  0  0  0  0  0
  191.6960  176.5320  147.6510 C   0  0  0  0  0  0  0  0  0  0  0  0
  192.3280  175.4520  147.7950 O   0  0  0  0  0  0  0  0  0  0  0  0
  188.7260  178.3170  145.2230 O   0  0  0  0  0  0  0  0  0  0  0  0
  187.5780  176.1370  143.9380 O   0  0  0  0  0  1  0  0  0  0  0  0
  186.3900  178.6210  143.7810 O   0  0  0  0  0  0  0  0  0  0  0  0
  187.2630  177.5720  144.7820 P   0  0  0  0  0  0  0  0  0  0  0  0
  186.4360  177.2690  146.0150 O   0  0  0  0  0  1  0  0  0  0  0  0
  1  3  2  0  0  0  0
  2  5  2  0  0  0  0
  3  9  1  0  0  0  0
  4 18  2  0  0  0  0
  5  4  1  0  0  0  0
  6  2  1  1  0  0  0
  6 13  1  0  0  0  0
  7  5  1  0  0  0  0
  7  8  2  0  0  0  0
  8  1  1  0  0  0  0
  9 14  1  0  0  0  0
 10 11  1  0  0  0  0
 10 17  1  0  0  0  0
 11 15  2  0  0  0  0
 12  8  1  0  0  0  0
 12 14  1  0  0  0  0
 13 18  1  0  0  0  0
 13 45  1  0  0  0  0
 15  2  1  0  0  0  0
 16 15  1  0  0  0  0
 16 19  1  0  0  0  0
 17 20  1  0  0  0  0
 18 51  1  0  0  0  0
 19 21  2  0  0  0  0
 20  7  1  0  0  0  0
 21  6  1  0  0  0  0
 22 24  1  0  0  0  0
 24  3  1  0  0  0  0
 24 23  2  0  0  0  0
 25 22  1  0  0  0  0
 25 26  2  0  0  0  0
 26 30  1  0  0  0  0
 28 27  2  0  0  0  0
 29 26  1  0  0  0  0
 29 31  1  0  0  0  0
 30 28  1  0  0  0  0
 31 32  1  6  0  0  0
 31 27  1  0  0  0  0
 33 32  1  0  0  0  0
 34 33  1  6  0  0  0
 35 42  1  6  0  0  0
 36 37  2  0  0  0  0
 37 35  1  0  0  0  0
 39 43  1  6  0  0  0
 39 38  1  0  0  0  0
 39 35  1  0  0  0  0
 40 37  2  0  0  0  0
 42 34  1  0  0  0  0
 43 37  1  0  0  0  0
 44 41  1  6  0  0  0
 44 38  1  0  0  0  0
 44 34  1  0  0  0  0
 46 48  1  0  0  0  0
 46 45  1  1  0  0  0
 47 50  1  0  0  0  0
 47 49  1  0  0  0  0
 49 48  1  0  0  0  0
 50 46  1  0  0  0  0
 51 52  1  0  0  0  0
 52 53  1  0  0  0  0
 53 54  1  0  0  0  0
 54 55  1  1  0  0  0
 54 56  1  0  0  0  0
 56 57  2  0  0  0  0
 56 58  1  0  0  0  0
 59 58  1  6  0  0  0
 59 65  1  0  0  0  0
 59 60  1  0  0  0  0
 60 61  1  0  0  0  0
 61 63  1  0  0  0  0
 63 64  2  0  0  0  0
 63 62  1  0  0  0  0
 66 68  1  0  0  0  0
 67 68  2  0  0  0  0
 68 65  1  0  0  0  0
 68 69  1  0  0  0  0
M  END
>  <MODEL>
9

>  <REMARK>
 VINA RESULT:      -5.0      3.703     11.342
  Name = 
  20 active torsions:
  status: ('A' for Active; 'I' for Inactive)
    1  A    between atoms: N_2  and  C_38
    2  A    between atoms: N_2  and  C_66
    3  A    between atoms: C_3  and  C_43
    4  A    between atoms: C_4  and  N_20
    5  A    between atoms: C_6  and  C_63
    6  A    between atoms: C_14  and  C_60
    7  A    between atoms: C_19  and  C_43
    8  A    between atoms: C_19  and  C_67
    9  A    between atoms: N_20  and  N_39
   10  A    between atoms: C_22  and  C_48
   11  A    between atoms: C_22  and  C_64
   12  A    between atoms: C_31  and  C_38
   13  A    between atoms: C_31  and  C_65
   14  A    between atoms: N_33  and  C_60
   15  A    between atoms: C_42  and  C_57
   16  A    between atoms: C_42  and  C_66
   17  A    between atoms: O_45  and  P_52
   18  A    between atoms: O_45  and  C_55
   19  A    between atoms: C_55  and  C_64
   20  A    between atoms: C_55  and  C_65
                            x       y       z     vdW  Elec       q    Type
                         _______ _______ _______ _____ _____    ______ ____

>  <TORSDO>
F 20

$$$$
