=
 OpenBabel10232409473D

 45 49  0  0  1  0  0  0  0  0999 V2000
  190.1760  177.9510  141.8580 C   0  0  2  0  0  3  0  0  0  0  0  0
  190.9270  180.0610  144.0580 F   0  0  0  0  0  0  0  0  0  0  0  0
  192.3740  173.7650  144.7420 N   0  0  0  0  0  1  0  0  0  0  0  0
  191.2420  178.3080  145.5570 N   0  0  0  0  0  0  0  0  0  0  0  0
  192.3740  175.2900  146.6630 N   0  0  0  0  0  0  0  0  0  0  0  0
  191.1410  177.8620  143.0610 C   0  0  2  0  0  3  0  0  0  0  0  0
  191.4240  176.4240  143.4630 C   0  0  0  0  0  3  0  0  0  0  0  0
  192.0860  176.5690  146.8910 N   0  0  0  0  0  2  0  0  0  0  0  0
  190.6550  178.7230  144.2720 C   0  0  2  0  0  3  0  0  0  0  0  0
  192.1320  175.0240  145.3600 C   0  0  0  0  0  0  0  0  0  0  0  0
  191.6690  177.0960  145.7250 C   0  0  0  0  0  0  0  0  0  0  0  0
  191.7050  176.1670  144.7330 C   0  0  0  0  0  0  0  0  0  0  0  0
  188.1820  176.6380  142.4080 O   0  0  0  0  0  1  0  0  0  0  0  0
  188.6970  177.9360  142.3090 C   0  0  2  0  0  3  0  0  0  0  0  0
  187.8520  178.7250  141.3220 C   0  0  0  0  0  2  0  0  0  0  0  0
  186.4890  178.2220  141.3230 N   0  0  0  0  0  2  0  0  0  0  0  0
  184.8750  178.5350  143.0930 C   0  0  1  0  0  3  0  0  0  0  0  0
  184.2140  178.9080  141.7830 C   0  0  0  0  0  2  0  0  0  0  0  0
  185.6790  179.2160  142.0030 C   0  0  2  0  0  3  0  0  0  0  0  0
  184.5140  179.5660  144.1410 C   0  0  0  0  0  2  0  0  0  0  0  0
  184.5680  178.9530  145.4600 N   0  0  0  0  0  2  0  0  0  0  0  0
  187.2780  178.4450  147.9680 C   0  0  0  0  0  3  0  0  0  0  0  0
  186.0910  178.8780  147.3670 C   0  0  0  0  0  3  0  0  0  0  0  0
  187.8660  177.2460  145.9490 C   0  0  0  0  0  3  0  0  0  0  0  0
  185.7870  178.4970  146.0540 C   0  0  0  0  0  0  0  0  0  0  0  0
  186.6800  177.6780  145.3460 C   0  0  0  0  0  3  0  0  0  0  0  0
  188.1650  177.6290  147.2590 C   0  0  0  0  0  3  0  0  0  0  0  0
  190.7870  177.1220  139.6140 C   0  0  0  0  0  3  0  0  0  0  0  0
  190.4760  176.8480  140.8820 C   0  0  0  0  0  3  0  0  0  0  0  0
  191.0870  176.0310  138.6400 C   0  0  0  0  0  2  0  0  0  0  0  0
  190.7760  176.4820  137.2240 C   0  0  0  0  0  2  0  0  0  0  0  0
  189.5690  175.7020  136.6890 C   0  0  1  0  0  3  0  0  0  0  0  0
  187.4840  176.6100  137.4270 C   0  0  0  0  0  2  0  0  0  0  0  0
  188.4610  176.6170  136.3400 N   0  0  0  0  0  0  0  0  0  0  0  0
  187.8170  178.8920  136.7540 C   0  0  0  0  0  2  0  0  0  0  0  0
  188.9370  178.0000  136.2840 C   0  0  0  0  0  2  0  0  0  0  0  0
  187.0540  178.0360  137.7230 C   0  0  0  0  0  2  0  0  0  0  0  0
  190.0220  174.8720  135.4610 C   0  0  2  0  0  3  0  0  0  0  0  0
  189.8110  173.3650  135.6310 C   0  0  0  0  0  2  0  0  0  0  0  0
  188.9920  173.0410  136.8710 C   0  0  0  0  0  1  0  0  0  0  0  0
  191.4190  175.1270  135.1250 N   0  0  0  0  0  2  0  0  0  0  0  0
  192.1000  173.8420  135.0890 C   0  0  0  0  0  2  0  0  0  0  0  0
  193.2960  173.6670  137.1430 O   0  0  0  0  0  1  0  0  0  0  0  0
  193.3430  173.9060  135.9070 C   0  0  0  0  0  0  0  0  0  0  0  0
  194.5600  174.1950  135.3010 O   0  0  0  0  0  0  0  0  0  0  0  0
  1 29  1  6  0  0  0
  1 14  1  0  0  0  0
  3 10  1  0  0  0  0
  4 11  2  0  0  0  0
  5  8  1  0  0  0  0
  6  1  1  6  0  0  0
  6  7  1  0  0  0  0
  6  9  1  0  0  0  0
  7 12  2  0  0  0  0
  9  2  1  6  0  0  0
  9  4  1  0  0  0  0
 10  5  2  0  0  0  0
 11  8  1  0  0  0  0
 12 10  1  0  0  0  0
 12 11  1  0  0  0  0
 14 13  1  6  0  0  0
 15 16  1  0  0  0  0
 15 14  1  0  0  0  0
 17 20  1  1  0  0  0
 18 19  1  0  0  0  0
 18 17  1  0  0  0  0
 19 16  1  6  0  0  0
 19 17  1  0  0  0  0
 20 21  1  0  0  0  0
 21 25  1  0  0  0  0
 23 22  1  0  0  0  0
 24 27  1  0  0  0  0
 25 23  2  0  0  0  0
 26 24  2  0  0  0  0
 26 25  1  0  0  0  0
 27 22  2  0  0  0  0
 28 29  2  0  0  0  0
 30 28  1  0  0  0  0
 31 30  1  0  0  0  0
 32 31  1  6  0  0  0
 33 37  1  0  0  0  0
 34 32  1  0  0  0  0
 34 33  1  0  0  0  0
 35 37  1  0  0  0  0
 36 34  1  0  0  0  0
 36 35  1  0  0  0  0
 38 39  1  1  0  0  0
 38 32  1  0  0  0  0
 39 40  1  0  0  0  0
 41 38  1  0  0  0  0
 42 41  1  0  0  0  0
 42 44  1  0  0  0  0
 44 43  1  0  0  0  0
 45 44  2  0  0  0  0
M  END
>  <MODEL>
1

>  <REMARK>
 VINA RESULT:      -7.5      0.000      0.000
  Name = 
  18 active torsions:
  status: ('A' for Active; 'I' for Inactive)
    1  A    between atoms: C_6  and  C_12
    2  A    between atoms: C_6  and  C_17
    3  A    between atoms: C_6  and  C_30
    4  A    between atoms: N_8  and  C_23
    5  A    between atoms: N_8  and  C_44
    6  A    between atoms: C_9  and  C_13
    7  A    between atoms: C_10  and  C_39
    8  A    between atoms: C_13  and  C_45
    9  A    between atoms: N_14  and  C_21
   10  A    between atoms: N_14  and  C_39
   11  A    between atoms: C_18  and  C_44
   12  A    between atoms: C_20  and  C_21
   13  A    between atoms: C_22  and  N_27
   14  A    between atoms: C_22  and  C_39
   15  A    between atoms: C_22  and  C_45
   16  A    between atoms: C_30  and  C_41
   17  A    between atoms: C_38  and  N_40
   18  A    between atoms: N_40  and  C_41
                            x       y       z     vdW  Elec       q    Type
                         _______ _______ _______ _____ _____    ______ ____

>  <TORSDO>
F 18

$$$$
=
 OpenBabel10232409473D

 45 49  0  0  1  0  0  0  0  0999 V2000
  190.2890  177.9570  141.8090 C   0  0  2  0  0  3  0  0  0  0  0  0
  190.9930  180.0660  144.0270 F   0  0  0  0  0  0  0  0  0  0  0  0
  192.3940  173.7640  144.7510 N   0  0  0  0  0  1  0  0  0  0  0  0
  191.2600  178.3120  145.5350 N   0  0  0  0  0  0  0  0  0  0  0  0
  192.3510  175.2900  146.6710 N   0  0  0  0  0  0  0  0  0  0  0  0
  191.2220  177.8650  143.0370 C   0  0  2  0  0  3  0  0  0  0  0  0
  191.4880  176.4270  143.4470 C   0  0  0  0  0  3  0  0  0  0  0  0
  192.0630  176.5710  146.8900 N   0  0  0  0  0  2  0  0  0  0  0  0
  190.7090  178.7290  144.2340 C   0  0  2  0  0  3  0  0  0  0  0  0
  192.1410  175.0250  145.3620 C   0  0  0  0  0  0  0  0  0  0  0  0
  191.6780  177.0990  145.7140 C   0  0  0  0  0  0  0  0  0  0  0  0
  191.7350  176.1690  144.7240 C   0  0  0  0  0  0  0  0  0  0  0  0
  188.2610  176.6660  142.2800 O   0  0  0  0  0  1  0  0  0  0  0  0
  188.7980  177.9570  142.2230 C   0  0  2  0  0  3  0  0  0  0  0  0
  187.9910  178.7800  141.2330 C   0  0  0  0  0  2  0  0  0  0  0  0
  186.6400  178.2550  141.1360 N   0  0  0  0  0  2  0  0  0  0  0  0
  184.9120  178.4580  142.8110 C   0  0  1  0  0  3  0  0  0  0  0  0
  184.3320  178.8960  141.4820 C   0  0  0  0  0  2  0  0  0  0  0  0
  185.7760  179.2040  141.8140 C   0  0  2  0  0  3  0  0  0  0  0  0
  184.4710  179.4280  143.8870 C   0  0  0  0  0  2  0  0  0  0  0  0
  184.5000  178.7600  145.1800 N   0  0  0  0  0  2  0  0  0  0  0  0
  187.1240  178.4540  147.8100 C   0  0  0  0  0  3  0  0  0  0  0  0
  185.9400  178.8040  147.1510 C   0  0  0  0  0  3  0  0  0  0  0  0
  187.8710  177.2650  145.8370 C   0  0  0  0  0  3  0  0  0  0  0  0
  185.7170  178.3880  145.8330 C   0  0  0  0  0  0  0  0  0  0  0  0
  186.6890  177.6150  145.1780 C   0  0  0  0  0  3  0  0  0  0  0  0
  188.0890  177.6840  147.1530 C   0  0  0  0  0  3  0  0  0  0  0  0
  191.0100  177.1170  139.6020 C   0  0  0  0  0  3  0  0  0  0  0  0
  190.6050  176.8480  140.8450 C   0  0  0  0  0  3  0  0  0  0  0  0
  191.3250  176.0190  138.6400 C   0  0  0  0  0  2  0  0  0  0  0  0
  190.8350  176.3750  137.2490 C   0  0  0  0  0  2  0  0  0  0  0  0
  189.5680  175.5720  136.9290 C   0  0  1  0  0  3  0  0  0  0  0  0
  187.4950  176.5940  137.5400 C   0  0  0  0  0  2  0  0  0  0  0  0
  188.4800  176.4610  136.4690 N   0  0  0  0  0  0  0  0  0  0  0  0
  187.8750  178.7790  136.6200 C   0  0  0  0  0  2  0  0  0  0  0  0
  188.9820  177.8210  136.2630 C   0  0  0  0  0  2  0  0  0  0  0  0
  187.0890  178.0510  137.6710 C   0  0  0  0  0  2  0  0  0  0  0  0
  189.9150  174.5070  135.8570 C   0  0  2  0  0  3  0  0  0  0  0  0
  191.2320  174.7820  135.1270 C   0  0  0  0  0  2  0  0  0  0  0  0
  192.2080  173.6220  135.2550 C   0  0  0  0  0  1  0  0  0  0  0  0
  188.8420  174.3620  134.8780 N   0  0  0  0  0  2  0  0  0  0  0  0
  188.2550  173.0450  135.0680 C   0  0  0  0  0  2  0  0  0  0  0  0
  186.0460  173.7250  135.6530 O   0  0  0  0  0  0  0  0  0  0  0  0
  187.1020  173.1370  136.0070 C   0  0  0  0  0  0  0  0  0  0  0  0
  187.1790  172.5450  137.2620 O   0  0  0  0  0  1  0  0  0  0  0  0
  1 29  1  6  0  0  0
  1 14  1  0  0  0  0
  3 10  1  0  0  0  0
  4 11  2  0  0  0  0
  5  8  1  0  0  0  0
  6  1  1  6  0  0  0
  6  7  1  0  0  0  0
  6  9  1  0  0  0  0
  7 12  2  0  0  0  0
  9  2  1  6  0  0  0
  9  4  1  0  0  0  0
 10  5  2  0  0  0  0
 11  8  1  0  0  0  0
 12 10  1  0  0  0  0
 12 11  1  0  0  0  0
 14 13  1  6  0  0  0
 15 14  1  0  0  0  0
 16 15  1  0  0  0  0
 17 20  1  1  0  0  0
 18 19  1  0  0  0  0
 18 17  1  0  0  0  0
 19 16  1  6  0  0  0
 19 17  1  0  0  0  0
 20 21  1  0  0  0  0
 21 25  1  0  0  0  0
 23 22  2  0  0  0  0
 24 27  2  0  0  0  0
 25 23  1  0  0  0  0
 26 25  2  0  0  0  0
 26 24  1  0  0  0  0
 27 22  1  0  0  0  0
 28 29  2  0  0  0  0
 30 28  1  0  0  0  0
 31 30  1  0  0  0  0
 32 31  1  6  0  0  0
 33 37  1  0  0  0  0
 34 32  1  0  0  0  0
 34 33  1  0  0  0  0
 35 37  1  0  0  0  0
 36 34  1  0  0  0  0
 36 35  1  0  0  0  0
 38 39  1  6  0  0  0
 38 32  1  0  0  0  0
 39 40  1  0  0  0  0
 41 42  1  0  0  0  0
 41 38  1  0  0  0  0
 42 44  1  0  0  0  0
 43 44  2  0  0  0  0
 44 45  1  0  0  0  0
M  END
>  <MODEL>
2

>  <REMARK>
 VINA RESULT:      -7.4      1.603      2.093
  Name = 
  18 active torsions:
  status: ('A' for Active; 'I' for Inactive)
    1  A    between atoms: C_6  and  C_12
    2  A    between atoms: C_6  and  C_17
    3  A    between atoms: C_6  and  C_30
    4  A    between atoms: N_8  and  C_23
    5  A    between atoms: N_8  and  C_44
    6  A    between atoms: C_9  and  C_13
    7  A    between atoms: C_10  and  C_39
    8  A    between atoms: C_13  and  C_45
    9  A    between atoms: N_14  and  C_21
   10  A    between atoms: N_14  and  C_39
   11  A    between atoms: C_18  and  C_44
   12  A    between atoms: C_20  and  C_21
   13  A    between atoms: C_22  and  N_27
   14  A    between atoms: C_22  and  C_39
   15  A    between atoms: C_22  and  C_45
   16  A    between atoms: C_30  and  C_41
   17  A    between atoms: C_38  and  N_40
   18  A    between atoms: N_40  and  C_41
                            x       y       z     vdW  Elec       q    Type
                         _______ _______ _______ _____ _____    ______ ____

>  <TORSDO>
F 18

$$$$
=
 OpenBabel10232409473D

 45 49  0  0  1  0  0  0  0  0999 V2000
  190.3330  177.9680  141.8260 C   0  0  2  0  0  3  0  0  0  0  0  0
  191.0000  180.0740  144.0570 F   0  0  0  0  0  0  0  0  0  0  0  0
  192.4030  173.7730  144.7900 N   0  0  0  0  0  1  0  0  0  0  0  0
  191.2490  178.3180  145.5650 N   0  0  0  0  0  0  0  0  0  0  0  0
  192.3290  175.2950  146.7110 N   0  0  0  0  0  0  0  0  0  0  0  0
  191.2480  177.8750  143.0660 C   0  0  2  0  0  3  0  0  0  0  0  0
  191.5110  176.4370  143.4770 C   0  0  0  0  0  3  0  0  0  0  0  0
  192.0350  176.5750  146.9290 N   0  0  0  0  0  2  0  0  0  0  0  0
  190.7160  178.7360  144.2580 C   0  0  2  0  0  3  0  0  0  0  0  0
  192.1390  175.0320  145.3990 C   0  0  0  0  0  0  0  0  0  0  0  0
  191.6660  177.1050  145.7490 C   0  0  0  0  0  0  0  0  0  0  0  0
  191.7400  176.1770  144.7570 C   0  0  0  0  0  0  0  0  0  0  0  0
  188.2760  176.7120  142.2620 O   0  0  0  0  0  1  0  0  0  0  0  0
  188.8380  177.9930  142.2190 C   0  0  2  0  0  3  0  0  0  0  0  0
  188.0590  178.8360  141.2220 C   0  0  0  0  0  2  0  0  0  0  0  0
  186.7120  178.3130  141.0750 N   0  0  0  0  0  2  0  0  0  0  0  0
  184.9500  178.4510  142.7210 C   0  0  1  0  0  3  0  0  0  0  0  0
  184.3940  178.9320  141.3970 C   0  0  0  0  0  2  0  0  0  0  0  0
  185.8300  179.2340  141.7670 C   0  0  2  0  0  3  0  0  0  0  0  0
  184.4830  179.3820  143.8200 C   0  0  0  0  0  2  0  0  0  0  0  0
  184.4920  178.6710  145.0910 N   0  0  0  0  0  2  0  0  0  0  0  0
  187.8510  177.2270  145.8150 C   0  0  0  0  0  3  0  0  0  0  0  0
  186.6650  177.5590  145.1510 C   0  0  0  0  0  3  0  0  0  0  0  0
  187.1130  178.4660  147.7590 C   0  0  0  0  0  3  0  0  0  0  0  0
  185.6980  178.3460  145.7890 C   0  0  0  0  0  0  0  0  0  0  0  0
  185.9270  178.7990  147.0970 C   0  0  0  0  0  3  0  0  0  0  0  0
  188.0750  177.6800  147.1190 C   0  0  0  0  0  3  0  0  0  0  0  0
  190.7670  177.0690  139.5670 C   0  0  0  0  0  3  0  0  0  0  0  0
  190.6460  176.8450  140.8760 C   0  0  0  0  0  3  0  0  0  0  0  0
  191.0780  175.9570  138.6200 C   0  0  0  0  0  2  0  0  0  0  0  0
  192.3710  176.2380  137.8780 C   0  0  0  0  0  2  0  0  0  0  0  0
  192.1880  175.9220  136.3880 C   0  0  1  0  0  3  0  0  0  0  0  0
  193.9780  175.1680  134.9940 C   0  0  0  0  0  2  0  0  0  0  0  0
  192.9980  174.7490  135.9940 N   0  0  0  0  0  0  0  0  0  0  0  0
  195.1010  173.7460  136.5700 C   0  0  0  0  0  2  0  0  0  0  0  0
  193.8030  174.2790  137.1210 C   0  0  0  0  0  2  0  0  0  0  0  0
  195.3270  174.5560  135.3270 C   0  0  0  0  0  2  0  0  0  0  0  0
  190.6810  175.6830  136.1150 C   0  0  2  0  0  3  0  0  0  0  0  0
  190.3790  174.3010  135.5310 C   0  0  0  0  0  2  0  0  0  0  0  0
  189.6500  173.4090  136.5250 C   0  0  0  0  0  1  0  0  0  0  0  0
  190.1260  176.7090  135.2370 N   0  0  0  0  0  2  0  0  0  0  0  0
  188.7060  176.8120  135.5330 C   0  0  0  0  0  2  0  0  0  0  0  0
  187.7200  177.2840  137.6520 O   0  0  0  0  0  1  0  0  0  0  0  0
  188.5020  177.6620  136.7400 C   0  0  0  0  0  0  0  0  0  0  0  0
  189.2000  178.8560  136.8740 O   0  0  0  0  0  0  0  0  0  0  0  0
  1 29  1  6  0  0  0
  1 14  1  0  0  0  0
  3 10  1  0  0  0  0
  4 11  2  0  0  0  0
  5  8  1  0  0  0  0
  6  1  1  6  0  0  0
  6  7  1  0  0  0  0
  6  9  1  0  0  0  0
  7 12  2  0  0  0  0
  9  2  1  6  0  0  0
  9  4  1  0  0  0  0
 10  5  2  0  0  0  0
 11  8  1  0  0  0  0
 12 10  1  0  0  0  0
 12 11  1  0  0  0  0
 14 13  1  6  0  0  0
 15 14  1  0  0  0  0
 16 15  1  0  0  0  0
 17 20  1  1  0  0  0
 18 19  1  0  0  0  0
 18 17  1  0  0  0  0
 19 16  1  6  0  0  0
 19 17  1  0  0  0  0
 20 21  1  0  0  0  0
 21 25  1  0  0  0  0
 22 27  1  0  0  0  0
 23 25  1  0  0  0  0
 23 22  2  0  0  0  0
 25 26  2  0  0  0  0
 26 24  1  0  0  0  0
 27 24  2  0  0  0  0
 28 29  2  0  0  0  0
 30 28  1  0  0  0  0
 31 30  1  0  0  0  0
 32 31  1  1  0  0  0
 33 37  1  0  0  0  0
 33 34  1  0  0  0  0
 34 32  1  0  0  0  0
 34 36  1  0  0  0  0
 35 36  1  0  0  0  0
 37 35  1  0  0  0  0
 38 39  1  6  0  0  0
 38 32  1  0  0  0  0
 39 40  1  0  0  0  0
 41 42  1  0  0  0  0
 41 38  1  0  0  0  0
 42 44  1  0  0  0  0
 44 45  2  0  0  0  0
 44 43  1  0  0  0  0
M  END
>  <MODEL>
3

>  <REMARK>
 VINA RESULT:      -7.4      1.664      3.256
  Name = 
  18 active torsions:
  status: ('A' for Active; 'I' for Inactive)
    1  A    between atoms: C_6  and  C_12
    2  A    between atoms: C_6  and  C_17
    3  A    between atoms: C_6  and  C_30
    4  A    between atoms: N_8  and  C_23
    5  A    between atoms: N_8  and  C_44
    6  A    between atoms: C_9  and  C_13
    7  A    between atoms: C_10  and  C_39
    8  A    between atoms: C_13  and  C_45
    9  A    between atoms: N_14  and  C_21
   10  A    between atoms: N_14  and  C_39
   11  A    between atoms: C_18  and  C_44
   12  A    between atoms: C_20  and  C_21
   13  A    between atoms: C_22  and  N_27
   14  A    between atoms: C_22  and  C_39
   15  A    between atoms: C_22  and  C_45
   16  A    between atoms: C_30  and  C_41
   17  A    between atoms: C_38  and  N_40
   18  A    between atoms: N_40  and  C_41
                            x       y       z     vdW  Elec       q    Type
                         _______ _______ _______ _____ _____    ______ ____

>  <TORSDO>
F 18

$$$$
=
 OpenBabel10232409473D

 45 49  0  0  1  0  0  0  0  0999 V2000
  190.4400  178.0290  141.7680 C   0  0  2  0  0  3  0  0  0  0  0  0
  191.0410  180.0990  144.0510 F   0  0  0  0  0  0  0  0  0  0  0  0
  192.4160  173.7870  144.7300 N   0  0  0  0  0  1  0  0  0  0  0  0
  191.2420  178.3210  145.5390 N   0  0  0  0  0  0  0  0  0  0  0  0
  192.2840  175.2790  146.6720 N   0  0  0  0  0  0  0  0  0  0  0  0
  191.3170  177.9160  143.0350 C   0  0  2  0  0  3  0  0  0  0  0  0
  191.5660  176.4710  143.4320 C   0  0  0  0  0  3  0  0  0  0  0  0
  191.9840  176.5560  146.9000 N   0  0  0  0  0  2  0  0  0  0  0  0
  190.7500  178.7590  144.2220 C   0  0  2  0  0  3  0  0  0  0  0  0
  192.1340  175.0370  145.3500 C   0  0  0  0  0  0  0  0  0  0  0  0
  191.6520  177.1040  145.7170 C   0  0  0  0  0  0  0  0  0  0  0  0
  191.7560  176.1910  144.7140 C   0  0  0  0  0  0  0  0  0  0  0  0
  188.4530  176.6410  142.1230 O   0  0  0  0  0  1  0  0  0  0  0  0
  188.9330  177.9560  142.1070 C   0  0  2  0  0  3  0  0  0  0  0  0
  188.1390  178.7560  141.0890 C   0  0  0  0  0  2  0  0  0  0  0  0
  186.7790  178.2510  141.0120 N   0  0  0  0  0  2  0  0  0  0  0  0
  184.9440  178.4460  142.5710 C   0  0  1  0  0  3  0  0  0  0  0  0
  184.5080  179.0540  141.2540 C   0  0  0  0  0  2  0  0  0  0  0  0
  185.9410  179.2030  141.7170 C   0  0  2  0  0  3  0  0  0  0  0  0
  184.4970  179.3460  143.7040 C   0  0  0  0  0  2  0  0  0  0  0  0
  184.4960  178.5910  144.9480 N   0  0  0  0  0  2  0  0  0  0  0  0
  187.8910  177.2910  145.7690 C   0  0  0  0  0  3  0  0  0  0  0  0
  186.7160  177.5820  145.0680 C   0  0  0  0  0  3  0  0  0  0  0  0
  187.0220  178.4490  147.7100 C   0  0  0  0  0  3  0  0  0  0  0  0
  185.6890  178.3070  145.6850 C   0  0  0  0  0  0  0  0  0  0  0  0
  185.8470  178.7400  147.0110 C   0  0  0  0  0  3  0  0  0  0  0  0
  188.0440  177.7240  147.0900 C   0  0  0  0  0  3  0  0  0  0  0  0
  191.2070  177.3090  139.5340 C   0  0  0  0  0  3  0  0  0  0  0  0
  190.8440  176.9760  140.7740 C   0  0  0  0  0  3  0  0  0  0  0  0
  191.6090  176.2680  138.5420 C   0  0  0  0  0  2  0  0  0  0  0  0
  190.3920  175.5100  138.0450 C   0  0  0  0  0  2  0  0  0  0  0  0
  190.8390  174.3690  137.1230 C   0  0  1  0  0  3  0  0  0  0  0  0
  189.1390  173.0070  136.1370 C   0  0  0  0  0  2  0  0  0  0  0  0
  189.9210  174.2300  135.9710 N   0  0  0  0  0  0  0  0  0  0  0  0
  187.6410  174.7430  135.4230 C   0  0  0  0  0  2  0  0  0  0  0  0
  188.9270  175.3040  135.9750 C   0  0  0  0  0  2  0  0  0  0  0  0
  187.6850  173.2920  135.8030 C   0  0  0  0  0  2  0  0  0  0  0  0
  192.2900  174.6500  136.6540 C   0  0  2  0  0  3  0  0  0  0  0  0
  192.4580  174.6160  135.1340 C   0  0  0  0  0  2  0  0  0  0  0  0
  192.6470  176.0080  134.5500 C   0  0  0  0  0  1  0  0  0  0  0  0
  193.2400  173.7240  137.2650 N   0  0  0  0  0  2  0  0  0  0  0  0
  194.5410  174.3740  137.2640 C   0  0  0  0  0  2  0  0  0  0  0  0
  195.5170  175.0840  139.3200 O   0  0  0  0  0  1  0  0  0  0  0  0
  195.2330  174.1210  138.5600 C   0  0  0  0  0  0  0  0  0  0  0  0
  195.5340  172.8200  138.9440 O   0  0  0  0  0  0  0  0  0  0  0  0
  1 29  1  6  0  0  0
  1 14  1  0  0  0  0
  3 10  1  0  0  0  0
  4 11  2  0  0  0  0
  5  8  1  0  0  0  0
  6  1  1  6  0  0  0
  6  7  1  0  0  0  0
  6  9  1  0  0  0  0
  7 12  2  0  0  0  0
  9  2  1  6  0  0  0
  9  4  1  0  0  0  0
 10  5  2  0  0  0  0
 11  8  1  0  0  0  0
 12 10  1  0  0  0  0
 12 11  1  0  0  0  0
 14 13  1  6  0  0  0
 15 14  1  0  0  0  0
 16 15  1  0  0  0  0
 17 20  1  1  0  0  0
 18 19  1  0  0  0  0
 18 17  1  0  0  0  0
 19 16  1  6  0  0  0
 19 17  1  0  0  0  0
 20 21  1  0  0  0  0
 21 25  1  0  0  0  0
 22 27  1  0  0  0  0
 23 25  1  0  0  0  0
 23 22  2  0  0  0  0
 25 26  2  0  0  0  0
 26 24  1  0  0  0  0
 27 24  2  0  0  0  0
 28 29  2  0  0  0  0
 30 28  1  0  0  0  0
 31 30  1  0  0  0  0
 32 31  1  1  0  0  0
 34 36  1  0  0  0  0
 34 33  1  0  0  0  0
 34 32  1  0  0  0  0
 35 37  1  0  0  0  0
 35 36  1  0  0  0  0
 37 33  1  0  0  0  0
 38 39  1  6  0  0  0
 38 32  1  0  0  0  0
 38 41  1  0  0  0  0
 40 39  1  0  0  0  0
 42 41  1  0  0  0  0
 42 44  1  0  0  0  0
 44 45  2  0  0  0  0
 44 43  1  0  0  0  0
M  END
>  <MODEL>
4

>  <REMARK>
 VINA RESULT:      -7.4      1.414      2.175
  Name = 
  18 active torsions:
  status: ('A' for Active; 'I' for Inactive)
    1  A    between atoms: C_6  and  C_12
    2  A    between atoms: C_6  and  C_17
    3  A    between atoms: C_6  and  C_30
    4  A    between atoms: N_8  and  C_23
    5  A    between atoms: N_8  and  C_44
    6  A    between atoms: C_9  and  C_13
    7  A    between atoms: C_10  and  C_39
    8  A    between atoms: C_13  and  C_45
    9  A    between atoms: N_14  and  C_21
   10  A    between atoms: N_14  and  C_39
   11  A    between atoms: C_18  and  C_44
   12  A    between atoms: C_20  and  C_21
   13  A    between atoms: C_22  and  N_27
   14  A    between atoms: C_22  and  C_39
   15  A    between atoms: C_22  and  C_45
   16  A    between atoms: C_30  and  C_41
   17  A    between atoms: C_38  and  N_40
   18  A    between atoms: N_40  and  C_41
                            x       y       z     vdW  Elec       q    Type
                         _______ _______ _______ _____ _____    ______ ____

>  <TORSDO>
F 18

$$$$
=
 OpenBabel10232409473D

 45 49  0  0  1  0  0  0  0  0999 V2000
  184.6390  177.8480  138.8080 C   0  0  2  0  0  3  0  0  0  0  0  0
  181.9350  178.8130  137.5370 F   0  0  0  0  0  0  0  0  0  0  0  0
  183.8570  172.6180  137.1620 N   0  0  0  0  0  1  0  0  0  0  0  0
  181.8880  176.8530  136.2810 N   0  0  0  0  0  0  0  0  0  0  0  0
  182.1190  173.5070  135.6760 N   0  0  0  0  0  0  0  0  0  0  0  0
  183.4190  177.0520  138.2950 C   0  0  2  0  0  3  0  0  0  0  0  0
  183.7700  175.6080  137.9770 C   0  0  0  0  0  3  0  0  0  0  0  0
  181.5440  174.6850  135.4460 N   0  0  0  0  0  2  0  0  0  0  0  0
  182.7150  177.7620  137.0930 C   0  0  2  0  0  3  0  0  0  0  0  0
  183.0680  173.6750  136.6250 C   0  0  0  0  0  0  0  0  0  0  0  0
  182.1360  175.5820  136.2570 C   0  0  0  0  0  0  0  0  0  0  0  0
  183.0820  174.9850  137.0300 C   0  0  0  0  0  0  0  0  0  0  0  0
  184.2700  180.2500  139.1220 O   0  0  0  0  0  1  0  0  0  0  0  0
  184.2160  179.0000  139.7500 C   0  0  2  0  0  3  0  0  0  0  0  0
  185.1220  179.0250  140.9690 C   0  0  0  0  0  2  0  0  0  0  0  0
  184.4690  178.3630  142.0860 N   0  0  0  0  0  2  0  0  0  0  0  0
  184.5670  178.4630  144.4980 C   0  0  1  0  0  3  0  0  0  0  0  0
  183.2980  179.1570  144.0500 C   0  0  0  0  0  2  0  0  0  0  0  0
  184.5550  179.2710  143.2150 C   0  0  2  0  0  3  0  0  0  0  0  0
  185.2260  179.2890  145.5810 C   0  0  0  0  0  2  0  0  0  0  0  0
  185.6800  178.4100  146.6490 N   0  0  0  0  0  2  0  0  0  0  0  0
  189.1050  177.1820  145.8370 C   0  0  0  0  0  3  0  0  0  0  0  0
  187.7650  177.5620  145.7020 C   0  0  0  0  0  3  0  0  0  0  0  0
  189.0260  177.7370  148.1930 C   0  0  0  0  0  3  0  0  0  0  0  0
  187.0500  178.0300  146.8110 C   0  0  0  0  0  0  0  0  0  0  0  0
  187.6870  178.1160  148.0590 C   0  0  0  0  0  3  0  0  0  0  0  0
  189.7350  177.2700  147.0820 C   0  0  0  0  0  3  0  0  0  0  0  0
  186.7790  178.2270  137.6360 C   0  0  0  0  0  3  0  0  0  0  0  0
  185.4500  178.3440  137.6430 C   0  0  0  0  0  3  0  0  0  0  0  0
  187.5900  178.7170  136.4820 C   0  0  0  0  0  2  0  0  0  0  0  0
  188.8840  177.9330  136.3700 C   0  0  0  0  0  2  0  0  0  0  0  0
  188.9220  176.8460  137.4520 C   0  0  1  0  0  3  0  0  0  0  0  0
  187.6030  174.8930  137.0480 C   0  0  0  0  0  2  0  0  0  0  0  0
  188.9190  175.4970  136.8460 N   0  0  0  0  0  0  0  0  0  0  0  0
  188.2670  174.4610  134.7810 C   0  0  0  0  0  2  0  0  0  0  0  0
  189.0600  175.5880  135.3920 C   0  0  0  0  0  2  0  0  0  0  0  0
  187.1530  174.2290  135.7590 C   0  0  0  0  0  2  0  0  0  0  0  0
  190.1810  177.0650  138.3290 C   0  0  2  0  0  3  0  0  0  0  0  0
  191.1300  175.8640  138.3450 C   0  0  0  0  0  2  0  0  0  0  0  0
  192.3330  176.0770  137.4390 C   0  0  0  0  0  1  0  0  0  0  0  0
  189.8250  177.4150  139.7010 N   0  0  0  0  0  2  0  0  0  0  0  0
  190.9220  176.9920  140.5570 C   0  0  0  0  0  2  0  0  0  0  0  0
  190.2090  177.9110  142.6370 O   0  0  0  0  0  1  0  0  0  0  0  0
  190.4490  176.8740  141.9640 C   0  0  0  0  0  0  0  0  0  0  0  0
  190.2410  175.6200  142.5250 O   0  0  0  0  0  0  0  0  0  0  0  0
  1 29  1  6  0  0  0
  1 14  1  0  0  0  0
  4  9  1  0  0  0  0
  5 10  2  0  0  0  0
  6  1  1  6  0  0  0
  7  6  1  0  0  0  0
  8  5  1  0  0  0  0
  8 11  1  0  0  0  0
  9  2  1  1  0  0  0
  9  6  1  0  0  0  0
 10 12  1  0  0  0  0
 10  3  1  0  0  0  0
 11  4  2  0  0  0  0
 11 12  1  0  0  0  0
 12  7  2  0  0  0  0
 14 13  1  6  0  0  0
 14 15  1  0  0  0  0
 15 16  1  0  0  0  0
 17 20  1  1  0  0  0
 18 17  1  0  0  0  0
 19 16  1  6  0  0  0
 19 18  1  0  0  0  0
 19 17  1  0  0  0  0
 20 21  1  0  0  0  0
 21 25  1  0  0  0  0
 22 27  1  0  0  0  0
 23 22  2  0  0  0  0
 23 25  1  0  0  0  0
 25 26  2  0  0  0  0
 26 24  1  0  0  0  0
 27 24  2  0  0  0  0
 28 29  2  0  0  0  0
 30 28  1  0  0  0  0
 31 30  1  0  0  0  0
 32 31  1  6  0  0  0
 32 38  1  0  0  0  0
 34 33  1  0  0  0  0
 34 32  1  0  0  0  0
 35 36  1  0  0  0  0
 35 37  1  0  0  0  0
 36 34  1  0  0  0  0
 37 33  1  0  0  0  0
 38 39  1  1  0  0  0
 38 41  1  0  0  0  0
 40 39  1  0  0  0  0
 41 42  1  0  0  0  0
 42 44  1  0  0  0  0
 44 45  2  0  0  0  0
 44 43  1  0  0  0  0
M  END
>  <MODEL>
5

>  <REMARK>
 VINA RESULT:      -7.3      3.540      7.141
  Name = 
  18 active torsions:
  status: ('A' for Active; 'I' for Inactive)
    1  A    between atoms: C_6  and  C_12
    2  A    between atoms: C_6  and  C_17
    3  A    between atoms: C_6  and  C_30
    4  A    between atoms: N_8  and  C_23
    5  A    between atoms: N_8  and  C_44
    6  A    between atoms: C_9  and  C_13
    7  A    between atoms: C_10  and  C_39
    8  A    between atoms: C_13  and  C_45
    9  A    between atoms: N_14  and  C_21
   10  A    between atoms: N_14  and  C_39
   11  A    between atoms: C_18  and  C_44
   12  A    between atoms: C_20  and  C_21
   13  A    between atoms: C_22  and  N_27
   14  A    between atoms: C_22  and  C_39
   15  A    between atoms: C_22  and  C_45
   16  A    between atoms: C_30  and  C_41
   17  A    between atoms: C_38  and  N_40
   18  A    between atoms: N_40  and  C_41
                            x       y       z     vdW  Elec       q    Type
                         _______ _______ _______ _____ _____    ______ ____

>  <TORSDO>
F 18

$$$$
=
 OpenBabel10232409473D

 45 49  0  0  1  0  0  0  0  0999 V2000
  184.1780  178.1540  139.3910 C   0  0  2  0  0  3  0  0  0  0  0  0
  182.0040  177.5600  137.2060 F   0  0  0  0  0  0  0  0  0  0  0  0
  188.0670  175.2870  136.6850 N   0  0  0  0  0  1  0  0  0  0  0  0
  183.7120  176.9440  135.7490 N   0  0  0  0  0  0  0  0  0  0  0  0
  186.5680  175.3770  134.7460 N   0  0  0  0  0  0  0  0  0  0  0  0
  184.1510  177.1220  138.2430 C   0  0  2  0  0  3  0  0  0  0  0  0
  185.5430  176.6370  137.8750 C   0  0  0  0  0  3  0  0  0  0  0  0
  185.3370  175.8130  134.4860 N   0  0  0  0  0  2  0  0  0  0  0  0
  183.3670  177.6470  136.9960 C   0  0  2  0  0  3  0  0  0  0  0  0
  186.8530  175.6540  136.0380 C   0  0  0  0  0  0  0  0  0  0  0  0
  184.8600  176.3570  135.6210 C   0  0  0  0  0  0  0  0  0  0  0  0
  185.7710  176.2570  136.6260 C   0  0  0  0  0  0  0  0  0  0  0  0
  184.0970  180.5860  139.1040 O   0  0  0  0  0  1  0  0  0  0  0  0
  183.3400  179.4090  139.0520 C   0  0  2  0  0  3  0  0  0  0  0  0
  182.1800  179.5300  140.0260 C   0  0  0  0  0  2  0  0  0  0  0  0
  182.3590  178.6020  141.1300 N   0  0  0  0  0  2  0  0  0  0  0  0
  183.1430  178.5960  143.4140 C   0  0  1  0  0  3  0  0  0  0  0  0
  181.6360  178.7510  143.4350 C   0  0  0  0  0  2  0  0  0  0  0  0
  182.4470  179.4030  142.3360 C   0  0  2  0  0  3  0  0  0  0  0  0
  183.7520  179.5540  144.4160 C   0  0  0  0  0  2  0  0  0  0  0  0
  184.0810  178.8310  145.6360 N   0  0  0  0  0  2  0  0  0  0  0  0
  187.4940  177.3630  145.3380 C   0  0  0  0  0  3  0  0  0  0  0  0
  186.1860  177.7530  145.0300 C   0  0  0  0  0  3  0  0  0  0  0  0
  187.2750  178.3570  147.5350 C   0  0  0  0  0  3  0  0  0  0  0  0
  185.4160  178.4450  145.9730 C   0  0  0  0  0  0  0  0  0  0  0  0
  185.9670  178.7470  147.2290 C   0  0  0  0  0  3  0  0  0  0  0  0
  188.0380  177.6660  146.5900 C   0  0  0  0  0  3  0  0  0  0  0  0
  186.0400  178.4450  140.9870 C   0  0  0  0  0  3  0  0  0  0  0  0
  185.6010  178.5030  139.7290 C   0  0  0  0  0  3  0  0  0  0  0  0
  187.4520  178.7900  141.3280 C   0  0  0  0  0  2  0  0  0  0  0  0
  188.2400  177.5360  141.6580 C   0  0  0  0  0  2  0  0  0  0  0  0
  189.6650  177.6630  141.1050 C   0  0  1  0  0  3  0  0  0  0  0  0
  191.0410  178.2440  142.9720 C   0  0  0  0  0  2  0  0  0  0  0  0
  190.6570  177.1540  142.0770 N   0  0  0  0  0  0  0  0  0  0  0  0
  190.6920  176.2830  144.3130 C   0  0  0  0  0  2  0  0  0  0  0  0
  190.0470  176.1560  142.9570 C   0  0  0  0  0  2  0  0  0  0  0  0
  191.0700  177.7320  144.4010 C   0  0  0  0  0  2  0  0  0  0  0  0
  189.7450  176.8900  139.7630 C   0  0  2  0  0  3  0  0  0  0  0  0
  191.1350  176.9220  139.1230 C   0  0  0  0  0  2  0  0  0  0  0  0
  191.4220  175.6620  138.3210 C   0  0  0  0  0  1  0  0  0  0  0  0
  188.7610  177.3800  138.8020 N   0  0  0  0  0  2  0  0  0  0  0  0
  189.3220  178.5640  138.1710 C   0  0  0  0  0  2  0  0  0  0  0  0
  189.1320  178.3480  135.8040 O   0  0  0  0  0  0  0  0  0  0  0  0
  188.6430  178.8120  136.8680 C   0  0  0  0  0  0  0  0  0  0  0  0
  187.4510  179.5260  136.8300 O   0  0  0  0  0  1  0  0  0  0  0  0
  1 29  1  6  0  0  0
  4  9  1  0  0  0  0
  5 10  2  0  0  0  0
  6  1  1  1  0  0  0
  7  6  1  0  0  0  0
  8  5  1  0  0  0  0
  8 11  1  0  0  0  0
  9  2  1  1  0  0  0
  9  6  1  0  0  0  0
 10 12  1  0  0  0  0
 10  3  1  0  0  0  0
 11  4  2  0  0  0  0
 11 12  1  0  0  0  0
 12  7  2  0  0  0  0
 14 13  1  1  0  0  0
 14  1  1  0  0  0  0
 14 15  1  0  0  0  0
 15 16  1  0  0  0  0
 17 18  1  0  0  0  0
 17 20  1  1  0  0  0
 19 16  1  6  0  0  0
 19 17  1  0  0  0  0
 19 18  1  0  0  0  0
 20 21  1  0  0  0  0
 21 25  1  0  0  0  0
 22 27  1  0  0  0  0
 23 22  2  0  0  0  0
 23 25  1  0  0  0  0
 25 26  2  0  0  0  0
 26 24  1  0  0  0  0
 27 24  2  0  0  0  0
 28 30  1  0  0  0  0
 29 28  2  0  0  0  0
 30 31  1  0  0  0  0
 32 31  1  1  0  0  0
 32 34  1  0  0  0  0
 33 37  1  0  0  0  0
 34 36  1  0  0  0  0
 34 33  1  0  0  0  0
 35 37  1  0  0  0  0
 36 35  1  0  0  0  0
 38 39  1  6  0  0  0
 38 32  1  0  0  0  0
 40 39  1  0  0  0  0
 41 38  1  0  0  0  0
 42 41  1  0  0  0  0
 43 44  2  0  0  0  0
 44 42  1  0  0  0  0
 45 44  1  0  0  0  0
M  END
>  <MODEL>
6

>  <REMARK>
 VINA RESULT:      -7.2      3.282      7.126
  Name = 
  18 active torsions:
  status: ('A' for Active; 'I' for Inactive)
    1  A    between atoms: C_6  and  C_12
    2  A    between atoms: C_6  and  C_17
    3  A    between atoms: C_6  and  C_30
    4  A    between atoms: N_8  and  C_23
    5  A    between atoms: N_8  and  C_44
    6  A    between atoms: C_9  and  C_13
    7  A    between atoms: C_10  and  C_39
    8  A    between atoms: C_13  and  C_45
    9  A    between atoms: N_14  and  C_21
   10  A    between atoms: N_14  and  C_39
   11  A    between atoms: C_18  and  C_44
   12  A    between atoms: C_20  and  C_21
   13  A    between atoms: C_22  and  N_27
   14  A    between atoms: C_22  and  C_39
   15  A    between atoms: C_22  and  C_45
   16  A    between atoms: C_30  and  C_41
   17  A    between atoms: C_38  and  N_40
   18  A    between atoms: N_40  and  C_41
                            x       y       z     vdW  Elec       q    Type
                         _______ _______ _______ _____ _____    ______ ____

>  <TORSDO>
F 18

$$$$
=
 OpenBabel10232409473D

 45 49  0  0  1  0  0  0  0  0999 V2000
  184.6590  177.8400  138.8710 C   0  0  2  0  0  3  0  0  0  0  0  0
  182.0010  178.9680  137.6380 F   0  0  0  0  0  0  0  0  0  0  0  0
  183.4750  172.6480  137.3510 N   0  0  0  0  0  1  0  0  0  0  0  0
  181.7880  176.9930  136.4240 N   0  0  0  0  0  0  0  0  0  0  0  0
  181.7710  173.6270  135.8850 N   0  0  0  0  0  0  0  0  0  0  0  0
  183.3750  177.1220  138.4010 C   0  0  2  0  0  3  0  0  0  0  0  0
  183.6160  175.6520  138.1050 C   0  0  0  0  0  3  0  0  0  0  0  0
  181.2740  174.8390  135.6430 N   0  0  0  0  0  2  0  0  0  0  0  0
  182.6940  177.8560  137.2000 C   0  0  2  0  0  3  0  0  0  0  0  0
  182.7500  173.7460  136.8090 C   0  0  0  0  0  0  0  0  0  0  0  0
  181.9460  175.7070  136.4210 C   0  0  0  0  0  0  0  0  0  0  0  0
  182.8650  175.0600  137.1870 C   0  0  0  0  0  0  0  0  0  0  0  0
  184.4880  180.2670  139.1590 O   0  0  0  0  0  1  0  0  0  0  0  0
  184.3390  179.0330  139.8020 C   0  0  2  0  0  3  0  0  0  0  0  0
  185.2550  178.9980  141.0140 C   0  0  0  0  0  2  0  0  0  0  0  0
  184.5770  178.3650  142.1310 N   0  0  0  0  0  2  0  0  0  0  0  0
  184.5400  178.4420  144.5450 C   0  0  1  0  0  3  0  0  0  0  0  0
  183.4470  179.3540  144.0290 C   0  0  0  0  0  2  0  0  0  0  0  0
  184.7540  179.2400  143.2750 C   0  0  2  0  0  3  0  0  0  0  0  0
  185.2680  179.1330  145.6780 C   0  0  0  0  0  2  0  0  0  0  0  0
  185.7870  178.1330  146.6000 N   0  0  0  0  0  2  0  0  0  0  0  0
  189.1440  177.6710  148.1520 C   0  0  0  0  0  3  0  0  0  0  0  0
  187.7790  177.9400  147.9970 C   0  0  0  0  0  3  0  0  0  0  0  0
  189.3260  177.2220  145.7800 C   0  0  0  0  0  3  0  0  0  0  0  0
  187.1830  177.8520  146.7340 C   0  0  0  0  0  0  0  0  0  0  0  0
  187.9630  177.4910  145.6240 C   0  0  0  0  0  3  0  0  0  0  0  0
  189.9170  177.3120  147.0440 C   0  0  0  0  0  3  0  0  0  0  0  0
  186.7720  177.9700  137.6010 C   0  0  0  0  0  3  0  0  0  0  0  0
  185.4730  178.2610  137.6790 C   0  0  0  0  0  3  0  0  0  0  0  0
  187.5860  178.3840  136.4200 C   0  0  0  0  0  2  0  0  0  0  0  0
  188.6390  177.3380  136.1060 C   0  0  0  0  0  2  0  0  0  0  0  0
  188.4970  176.1580  137.0750 C   0  0  1  0  0  3  0  0  0  0  0  0
  189.0550  173.8500  136.8020 C   0  0  0  0  0  2  0  0  0  0  0  0
  188.1630  174.9150  136.3480 N   0  0  0  0  0  0  0  0  0  0  0  0
  186.8330  172.9440  136.6830 C   0  0  0  0  0  2  0  0  0  0  0  0
  186.8230  174.4510  136.7130 C   0  0  0  0  0  2  0  0  0  0  0  0
  188.2480  172.5830  137.0310 C   0  0  0  0  0  2  0  0  0  0  0  0
  189.8200  176.0070  137.8690 C   0  0  2  0  0  3  0  0  0  0  0  0
  189.7330  176.5290  139.3050 C   0  0  0  0  0  2  0  0  0  0  0  0
  190.0240  178.0200  139.3880 C   0  0  0  0  0  1  0  0  0  0  0  0
  190.9330  176.6600  137.1860 N   0  0  0  0  0  2  0  0  0  0  0  0
  192.0830  175.7740  137.2850 C   0  0  0  0  0  2  0  0  0  0  0  0
  194.1610  176.8830  136.9220 O   0  0  0  0  0  0  0  0  0  0  0  0
  193.2730  176.5400  137.7470 C   0  0  0  0  0  0  0  0  0  0  0  0
  193.3890  176.9070  139.0830 O   0  0  0  0  0  1  0  0  0  0  0  0
  1 29  1  6  0  0  0
  1 14  1  0  0  0  0
  4  9  1  0  0  0  0
  5 10  2  0  0  0  0
  6  1  1  6  0  0  0
  7  6  1  0  0  0  0
  8  5  1  0  0  0  0
  8 11  1  0  0  0  0
  9  2  1  1  0  0  0
  9  6  1  0  0  0  0
 10 12  1  0  0  0  0
 10  3  1  0  0  0  0
 11  4  2  0  0  0  0
 11 12  1  0  0  0  0
 12  7  2  0  0  0  0
 14 13  1  6  0  0  0
 14 15  1  0  0  0  0
 15 16  1  0  0  0  0
 17 20  1  1  0  0  0
 18 17  1  0  0  0  0
 19 16  1  6  0  0  0
 19 18  1  0  0  0  0
 19 17  1  0  0  0  0
 20 21  1  0  0  0  0
 21 25  1  0  0  0  0
 23 22  1  0  0  0  0
 24 27  1  0  0  0  0
 25 23  2  0  0  0  0
 26 24  2  0  0  0  0
 26 25  1  0  0  0  0
 27 22  2  0  0  0  0
 28 29  2  0  0  0  0
 30 28  1  0  0  0  0
 31 30  1  0  0  0  0
 32 31  1  6  0  0  0
 32 38  1  0  0  0  0
 33 37  1  0  0  0  0
 34 36  1  0  0  0  0
 34 33  1  0  0  0  0
 34 32  1  0  0  0  0
 35 36  1  0  0  0  0
 35 37  1  0  0  0  0
 38 39  1  1  0  0  0
 39 40  1  0  0  0  0
 41 42  1  0  0  0  0
 41 38  1  0  0  0  0
 42 44  1  0  0  0  0
 43 44  2  0  0  0  0
 44 45  1  0  0  0  0
M  END
>  <MODEL>
7

>  <REMARK>
 VINA RESULT:      -7.1      3.619      6.894
  Name = 
  18 active torsions:
  status: ('A' for Active; 'I' for Inactive)
    1  A    between atoms: C_6  and  C_12
    2  A    between atoms: C_6  and  C_17
    3  A    between atoms: C_6  and  C_30
    4  A    between atoms: N_8  and  C_23
    5  A    between atoms: N_8  and  C_44
    6  A    between atoms: C_9  and  C_13
    7  A    between atoms: C_10  and  C_39
    8  A    between atoms: C_13  and  C_45
    9  A    between atoms: N_14  and  C_21
   10  A    between atoms: N_14  and  C_39
   11  A    between atoms: C_18  and  C_44
   12  A    between atoms: C_20  and  C_21
   13  A    between atoms: C_22  and  N_27
   14  A    between atoms: C_22  and  C_39
   15  A    between atoms: C_22  and  C_45
   16  A    between atoms: C_30  and  C_41
   17  A    between atoms: C_38  and  N_40
   18  A    between atoms: N_40  and  C_41
                            x       y       z     vdW  Elec       q    Type
                         _______ _______ _______ _____ _____    ______ ____

>  <TORSDO>
F 18

$$$$
=
 OpenBabel10232409473D

 45 49  0  0  1  0  0  0  0  0999 V2000
  184.4520  178.3820  142.1690 C   0  0  2  0  0  3  0  0  0  0  0  0
  184.5520  180.1930  139.6060 F   0  0  0  0  0  0  0  0  0  0  0  0
  180.6490  175.0120  139.9660 N   0  0  0  0  0  1  0  0  0  0  0  0
  183.5030  178.4840  138.4220 N   0  0  0  0  0  0  0  0  0  0  0  0
  181.2060  176.0420  137.8110 N   0  0  0  0  0  0  0  0  0  0  0  0
  183.4960  178.4820  140.9600 C   0  0  2  0  0  3  0  0  0  0  0  0
  182.6400  177.2370  140.8020 C   0  0  0  0  0  3  0  0  0  0  0  0
  181.9820  177.0320  137.3770 N   0  0  0  0  0  2  0  0  0  0  0  0
  184.2500  178.8450  139.6400 C   0  0  2  0  0  3  0  0  0  0  0  0
  181.3620  175.9350  139.1500 C   0  0  0  0  0  0  0  0  0  0  0  0
  182.6150  177.5410  138.4500 C   0  0  0  0  0  0  0  0  0  0  0  0
  182.2370  176.8960  139.5860 C   0  0  0  0  0  0  0  0  0  0  0  0
  184.8900  180.2940  143.6360 O   0  0  0  0  0  1  0  0  0  0  0  0
  183.9820  179.2690  143.3450 C   0  0  2  0  0  3  0  0  0  0  0  0
  183.7920  178.4150  144.5880 C   0  0  0  0  0  2  0  0  0  0  0  0
  184.3550  179.0890  145.7440 N   0  0  0  0  0  2  0  0  0  0  0  0
  186.5770  178.4910  146.4800 C   0  0  1  0  0  3  0  0  0  0  0  0
  186.0850  177.4080  145.5420 C   0  0  0  0  0  2  0  0  0  0  0  0
  185.1140  178.0940  146.4790 C   0  0  2  0  0  3  0  0  0  0  0  0
  187.2500  177.8440  147.6720 C   0  0  0  0  0  2  0  0  0  0  0  0
  188.6500  178.2420  147.7100 N   0  0  0  0  0  2  0  0  0  0  0  0
  191.6000  176.2650  146.5770 C   0  0  0  0  0  3  0  0  0  0  0  0
  190.6180  176.8320  147.3970 C   0  0  0  0  0  3  0  0  0  0  0  0
  190.6340  177.3750  144.6530 C   0  0  0  0  0  3  0  0  0  0  0  0
  189.6420  177.6730  146.8500 C   0  0  0  0  0  0  0  0  0  0  0  0
  189.6530  177.9420  145.4730 C   0  0  0  0  0  3  0  0  0  0  0  0
  191.6070  176.5360  145.2050 C   0  0  0  0  0  3  0  0  0  0  0  0
  186.9010  178.0790  142.2650 C   0  0  0  0  0  3  0  0  0  0  0  0
  185.8540  178.7150  141.7380 C   0  0  0  0  0  3  0  0  0  0  0  0
  188.2950  178.4060  141.8410 C   0  0  0  0  0  2  0  0  0  0  0  0
  188.9390  177.2100  141.1660 C   0  0  0  0  0  2  0  0  0  0  0  0
  189.9230  177.6930  140.0930 C   0  0  1  0  0  3  0  0  0  0  0  0
  191.5710  176.6170  138.7350 C   0  0  0  0  0  2  0  0  0  0  0  0
  191.1630  176.8870  140.1120 N   0  0  0  0  0  0  0  0  0  0  0  0
  193.5330  177.2410  139.9700 C   0  0  0  0  0  2  0  0  0  0  0  0
  192.2690  177.6620  140.6760 C   0  0  0  0  0  2  0  0  0  0  0  0
  193.0680  176.8350  138.6020 C   0  0  0  0  0  2  0  0  0  0  0  0
  189.2250  177.6170  138.7110 C   0  0  2  0  0  3  0  0  0  0  0  0
  188.8550  178.9870  138.1380 C   0  0  0  0  0  2  0  0  0  0  0  0
  188.9800  179.0230  136.6220 C   0  0  0  0  0  1  0  0  0  0  0  0
  188.0310  176.7770  138.7580 N   0  0  0  0  0  2  0  0  0  0  0  0
  188.1090  175.8480  137.6410 C   0  0  0  0  0  2  0  0  0  0  0  0
  186.1210  176.9260  136.8890 O   0  0  0  0  0  1  0  0  0  0  0  0
  186.8450  175.8960  136.8540 C   0  0  0  0  0  0  0  0  0  0  0  0
  186.4830  174.8190  136.0550 O   0  0  0  0  0  0  0  0  0  0  0  0
  1 29  1  6  0  0  0
  1 14  1  0  0  0  0
  4 11  2  0  0  0  0
  4  9  1  0  0  0  0
  5 10  2  0  0  0  0
  6  1  1  1  0  0  0
  7  6  1  0  0  0  0
  8  5  1  0  0  0  0
  8 11  1  0  0  0  0
  9  2  1  6  0  0  0
  9  6  1  0  0  0  0
 10 12  1  0  0  0  0
 10  3  1  0  0  0  0
 11 12  1  0  0  0  0
 12  7  2  0  0  0  0
 14 13  1  1  0  0  0
 14 15  1  0  0  0  0
 15 16  1  0  0  0  0
 17 20  1  1  0  0  0
 18 19  1  0  0  0  0
 18 17  1  0  0  0  0
 19 16  1  6  0  0  0
 19 17  1  0  0  0  0
 20 21  1  0  0  0  0
 22 23  1  0  0  0  0
 24 27  1  0  0  0  0
 24 26  2  0  0  0  0
 25 23  2  0  0  0  0
 25 21  1  0  0  0  0
 26 25  1  0  0  0  0
 27 22  2  0  0  0  0
 29 28  2  0  0  0  0
 30 28  1  0  0  0  0
 31 30  1  0  0  0  0
 32 34  1  0  0  0  0
 32 31  1  1  0  0  0
 33 34  1  0  0  0  0
 34 36  1  0  0  0  0
 35 36  1  0  0  0  0
 37 33  1  0  0  0  0
 37 35  1  0  0  0  0
 38 39  1  1  0  0  0
 38 41  1  0  0  0  0
 38 32  1  0  0  0  0
 40 39  1  0  0  0  0
 42 41  1  0  0  0  0
 44 43  1  0  0  0  0
 44 42  1  0  0  0  0
 45 44  2  0  0  0  0
M  END
>  <MODEL>
8

>  <REMARK>
 VINA RESULT:      -6.9      3.228      7.104
  Name = 
  18 active torsions:
  status: ('A' for Active; 'I' for Inactive)
    1  A    between atoms: C_6  and  C_12
    2  A    between atoms: C_6  and  C_17
    3  A    between atoms: C_6  and  C_30
    4  A    between atoms: N_8  and  C_23
    5  A    between atoms: N_8  and  C_44
    6  A    between atoms: C_9  and  C_13
    7  A    between atoms: C_10  and  C_39
    8  A    between atoms: C_13  and  C_45
    9  A    between atoms: N_14  and  C_21
   10  A    between atoms: N_14  and  C_39
   11  A    between atoms: C_18  and  C_44
   12  A    between atoms: C_20  and  C_21
   13  A    between atoms: C_22  and  N_27
   14  A    between atoms: C_22  and  C_39
   15  A    between atoms: C_22  and  C_45
   16  A    between atoms: C_30  and  C_41
   17  A    between atoms: C_38  and  N_40
   18  A    between atoms: N_40  and  C_41
                            x       y       z     vdW  Elec       q    Type
                         _______ _______ _______ _____ _____    ______ ____

>  <TORSDO>
F 18

$$$$
=
 OpenBabel10232409473D

 45 49  0  0  1  0  0  0  0  0999 V2000
  188.5450  177.3760  136.6340 C   0  0  2  0  0  3  0  0  0  0  0  0
  187.9590  174.4510  137.6130 F   0  0  0  0  0  0  0  0  0  0  0  0
  194.0240  176.7240  137.1100 N   0  0  0  0  0  1  0  0  0  0  0  0
  190.1870  173.9210  137.1930 N   0  0  0  0  0  0  0  0  0  0  0  0
  193.5720  174.3180  137.2530 N   0  0  0  0  0  0  0  0  0  0  0  0
  189.4480  176.3450  137.3440 C   0  0  2  0  0  3  0  0  0  0  0  0
  190.9250  176.6450  137.1480 C   0  0  0  0  0  3  0  0  0  0  0  0
  192.5000  173.5300  137.3060 N   0  0  0  0  0  2  0  0  0  0  0  0
  189.0930  174.8750  136.9460 C   0  0  2  0  0  3  0  0  0  0  0  0
  193.1530  175.5990  137.1430 C   0  0  0  0  0  0  0  0  0  0  0  0
  191.4170  174.3260  137.2320 C   0  0  0  0  0  0  0  0  0  0  0  0
  191.7820  175.6330  137.1530 C   0  0  0  0  0  0  0  0  0  0  0  0
  189.1640  179.4510  137.7810 O   0  0  0  0  0  1  0  0  0  0  0  0
  188.1320  178.5250  137.5840 C   0  0  2  0  0  3  0  0  0  0  0  0
  187.7220  177.9550  138.9310 C   0  0  0  0  0  2  0  0  0  0  0  0
  188.5530  178.5170  139.9820 N   0  0  0  0  0  2  0  0  0  0  0  0
  189.7490  177.9540  142.0040 C   0  0  1  0  0  3  0  0  0  0  0  0
  190.2810  177.0820  140.8850 C   0  0  0  0  0  2  0  0  0  0  0  0
  188.8130  177.4460  140.9260 C   0  0  2  0  0  3  0  0  0  0  0  0
  189.5620  177.1070  143.2440 C   0  0  0  0  0  2  0  0  0  0  0  0
  188.4130  177.5950  143.9930 N   0  0  0  0  0  2  0  0  0  0  0  0
  187.1320  178.0490  147.4630 C   0  0  0  0  0  3  0  0  0  0  0  0
  187.1920  178.0100  146.0660 C   0  0  0  0  0  3  0  0  0  0  0  0
  189.4370  177.3170  147.5850 C   0  0  0  0  0  3  0  0  0  0  0  0
  188.3750  177.6250  145.4230 C   0  0  0  0  0  0  0  0  0  0  0  0
  189.4980  177.2780  146.1890 C   0  0  0  0  0  3  0  0  0  0  0  0
  188.2540  177.7020  148.2230 C   0  0  0  0  0  3  0  0  0  0  0  0
  186.3300  177.3840  135.5420 C   0  0  0  0  0  3  0  0  0  0  0  0
  187.3500  176.6830  136.0390 C   0  0  0  0  0  3  0  0  0  0  0  0
  185.1420  176.7000  134.9490 C   0  0  0  0  0  2  0  0  0  0  0  0
  183.8760  177.1090  135.6790 C   0  0  0  0  0  2  0  0  0  0  0  0
  183.3180  175.9090  136.4540 C   0  0  1  0  0  3  0  0  0  0  0  0
  184.6940  174.1870  137.3780 C   0  0  0  0  0  2  0  0  0  0  0  0
  184.0820  174.6800  136.1470 N   0  0  0  0  0  0  0  0  0  0  0  0
  183.7570  172.3030  136.2190 C   0  0  0  0  0  2  0  0  0  0  0  0
  183.1790  173.6070  135.7310 C   0  0  0  0  0  2  0  0  0  0  0  0
  184.5060  172.6820  137.4640 C   0  0  0  0  0  2  0  0  0  0  0  0
  183.3640  176.2350  137.9690 C   0  0  2  0  0  3  0  0  0  0  0  0
  181.9820  176.4660  138.5850 C   0  0  0  0  0  2  0  0  0  0  0  0
  180.9520  175.4760  138.0620 C   0  0  0  0  0  1  0  0  0  0  0  0
  184.2130  177.3900  138.2450 N   0  0  0  0  0  2  0  0  0  0  0  0
  183.7280  178.0030  139.4710 C   0  0  0  0  0  2  0  0  0  0  0  0
  184.1730  180.2620  138.8520 O   0  0  0  0  0  0  0  0  0  0  0  0
  184.3840  179.3260  139.6690 C   0  0  0  0  0  0  0  0  0  0  0  0
  185.2030  179.5390  140.7710 O   0  0  0  0  0  1  0  0  0  0  0  0
  1 29  1  1  0  0  0
  1 14  1  0  0  0  0
  3 10  1  0  0  0  0
  4 11  2  0  0  0  0
  5  8  1  0  0  0  0
  6  1  1  6  0  0  0
  7 12  2  0  0  0  0
  7  6  1  0  0  0  0
  9  4  1  0  0  0  0
  9  6  1  0  0  0  0
  9  2  1  1  0  0  0
 10 12  1  0  0  0  0
 10  5  2  0  0  0  0
 11  8  1  0  0  0  0
 12 11  1  0  0  0  0
 14 13  1  1  0  0  0
 14 15  1  0  0  0  0
 15 16  1  0  0  0  0
 17 20  1  1  0  0  0
 18 19  1  0  0  0  0
 18 17  1  0  0  0  0
 19 16  1  6  0  0  0
 19 17  1  0  0  0  0
 20 21  1  0  0  0  0
 21 25  1  0  0  0  0
 22 27  1  0  0  0  0
 23 22  2  0  0  0  0
 24 27  2  0  0  0  0
 25 23  1  0  0  0  0
 25 26  2  0  0  0  0
 26 24  1  0  0  0  0
 28 29  2  0  0  0  0
 30 28  1  0  0  0  0
 30 31  1  0  0  0  0
 32 31  1  6  0  0  0
 32 38  1  0  0  0  0
 33 37  1  0  0  0  0
 34 32  1  0  0  0  0
 34 33  1  0  0  0  0
 35 37  1  0  0  0  0
 36 34  1  0  0  0  0
 36 35  1  0  0  0  0
 38 41  1  0  0  0  0
 38 39  1  6  0  0  0
 40 39  1  0  0  0  0
 41 42  1  0  0  0  0
 42 44  1  0  0  0  0
 43 44  2  0  0  0  0
 44 45  1  0  0  0  0
M  END
>  <MODEL>
9

>  <REMARK>
 VINA RESULT:      -6.8      3.427      7.015
  Name = 
  18 active torsions:
  status: ('A' for Active; 'I' for Inactive)
    1  A    between atoms: C_6  and  C_12
    2  A    between atoms: C_6  and  C_17
    3  A    between atoms: C_6  and  C_30
    4  A    between atoms: N_8  and  C_23
    5  A    between atoms: N_8  and  C_44
    6  A    between atoms: C_9  and  C_13
    7  A    between atoms: C_10  and  C_39
    8  A    between atoms: C_13  and  C_45
    9  A    between atoms: N_14  and  C_21
   10  A    between atoms: N_14  and  C_39
   11  A    between atoms: C_18  and  C_44
   12  A    between atoms: C_20  and  C_21
   13  A    between atoms: C_22  and  N_27
   14  A    between atoms: C_22  and  C_39
   15  A    between atoms: C_22  and  C_45
   16  A    between atoms: C_30  and  C_41
   17  A    between atoms: C_38  and  N_40
   18  A    between atoms: N_40  and  C_41
                            x       y       z     vdW  Elec       q    Type
                         _______ _______ _______ _____ _____    ______ ____

>  <TORSDO>
F 18

$$$$
