=
 OpenBabel10232412173D

 48 52  0  0  1  0  0  0  0  0999 V2000
  185.3510  177.8040  138.5300 C   0  0  0  0  0  0  0  0  0  0  0  0
  186.6880  177.1130  138.2240 C   0  0  2  0  0  3  0  0  0  0  0  0
  187.8000  177.2600  143.3120 C   0  0  1  0  0  3  0  0  0  0  0  0
  188.2420  177.8610  140.1210 C   0  0  2  0  0  3  0  0  0  0  0  0
  187.4940  178.4760  142.4180 C   0  0  0  0  0  2  0  0  0  0  0  0
  189.5840  179.2510  138.0130 O   0  0  0  0  0  0  0  0  0  0  0  0
  188.5580  176.1300  142.6010 C   0  0  0  0  0  2  0  0  0  0  0  0
  185.2300  178.8240  139.5180 C   0  0  0  0  0  0  0  0  0  0  0  0
  186.2100  179.0960  140.4780 O   0  0  0  0  0  0  0  0  0  0  0  0
  182.9840  179.2480  138.8220 N   0  0  0  0  0  0  0  0  0  0  0  0
  188.6250  178.4830  137.7230 C   0  0  0  0  0  0  0  0  0  0  0  0
  188.9630  176.5570  140.4610 C   0  0  0  0  0  2  0  0  0  0  0  0
  187.0340  178.0760  141.0220 C   0  0  1  0  0  3  0  0  0  0  0  0
  184.1730  177.4130  137.8420 C   0  0  0  0  0  0  0  0  0  0  0  0
  183.0110  178.1820  137.9870 C   0  0  0  0  0  3  0  0  0  0  0  0
  184.0510  179.5670  139.5930 C   0  0  0  0  0  3  0  0  0  0  0  0
  189.5340  176.6390  141.7370 O   0  0  0  0  0  0  0  0  0  0  0  0
  188.2390  178.2010  136.3230 C   0  0  2  0  0  3  0  0  0  0  0  0
  187.8320  177.8670  138.7250 N   0  0  0  0  0  0  0  0  0  0  0  0
  186.9550  176.9130  136.4110 S   0  0  0  0  0  0  0  0  0  0  0  0
  188.4870  177.6370  144.5950 C   0  0  0  0  0  0  0  0  0  0  0  0
  190.8400  177.4700  145.3540 C   0  0  0  0  0  3  0  0  0  0  0  0
  187.8000  177.5100  145.7340 C   0  0  0  0  0  3  0  0  0  0  0  0
  189.8450  178.2720  144.5850 C   0  0  0  0  0  2  0  0  0  0  0  0
  190.7450  177.2160  146.6640 C   0  0  0  0  0  0  0  0  0  0  0  0
  189.5940  177.6620  147.4870 C   0  0  0  0  0  3  0  0  0  0  0  0
  188.3210  177.7870  147.0860 C   0  0  0  0  0  3  0  0  0  0  0  0
  192.3780  175.5000  146.7860 O   0  0  0  0  0  0  0  0  0  0  0  0
  192.3370  176.9600  148.6050 N   0  0  0  0  0  2  0  0  0  0  0  0
  191.8540  176.5090  147.3330 C   0  0  0  0  0  0  0  0  0  0  0  0
  192.9840  175.0760  149.9850 C   0  0  0  0  0  1  0  0  0  0  0  0
  193.4600  176.3350  149.2880 C   0  0  0  0  0  3  0  0  0  0  0  0
  194.0340  177.2890  150.3190 C   0  0  0  0  0  1  0  0  0  0  0  0
  182.6220  174.8980  138.2890 N   0  0  0  0  0  2  0  0  0  0  0  0
  184.1600  176.2140  137.0480 N   0  0  0  0  0  2  0  0  0  0  0  0
  183.6230  173.8780  136.4040 N   0  0  0  0  0  0  0  0  0  0  0  0
  184.5280  173.9800  135.2710 C   0  0  0  0  0  1  0  0  0  0  0  0
  183.4460  174.9910  137.2950 C   0  0  0  0  0  0  0  0  0  0  0  0
  183.9370  171.6140  136.8850 O   0  0  0  0  0  1  0  0  0  0  0  0
  182.9740  172.5950  136.6450 C   0  0  0  0  0  2  0  0  0  0  0  0
  189.4000  177.6660  135.5450 C   0  0  0  0  0  3  0  0  0  0  0  0
  189.7470  175.9200  137.0720 F   0  0  0  0  0  0  0  0  0  0  0  0
  190.0760  176.5790  135.9260 C   0  0  0  0  0  0  0  0  0  0  0  0
  192.5220  176.1800  135.8910 C   0  0  0  0  0  1  0  0  0  0  0  0
  191.2280  176.1110  135.0960 C   0  0  1  0  0  3  0  0  0  0  0  0
  191.9420  173.9460  134.3460 O   0  0  0  0  0  0  0  0  0  0  0  0
  189.6790  174.2950  134.3710 O   0  0  0  0  0  1  0  0  0  0  0  0
  190.9820  174.7300  134.5710 C   0  0  0  0  0  0  0  0  0  0  0  0
  1  8  1  0  0  0  0
  2 20  1  6  0  0  0
  2  1  1  0  0  0  0
  2 19  1  0  0  0  0
  3 21  1  1  0  0  0
  4 12  1  1  0  0  0
  4 13  1  0  0  0  0
  5  3  1  0  0  0  0
  7  3  1  0  0  0  0
  8 16  2  0  0  0  0
  8  9  1  0  0  0  0
  9 13  1  0  0  0  0
 10 16  1  0  0  0  0
 11  6  2  0  0  0  0
 11 19  1  0  0  0  0
 12 17  1  0  0  0  0
 13  5  1  1  0  0  0
 14 15  1  0  0  0  0
 14  1  2  0  0  0  0
 15 10  2  0  0  0  0
 17  7  1  0  0  0  0
 18 41  1  6  0  0  0
 18 20  1  0  0  0  0
 18 11  1  0  0  0  0
 19  4  1  0  0  0  0
 21 23  2  0  0  0  0
 22 25  2  0  0  0  0
 23 27  1  0  0  0  0
 24 21  1  0  0  0  0
 24 22  1  0  0  0  0
 25 30  1  0  0  0  0
 25 26  1  0  0  0  0
 27 26  2  0  0  0  0
 28 30  2  0  0  0  0
 29 32  1  0  0  0  0
 30 29  1  0  0  0  0
 32 31  1  0  0  0  0
 32 33  1  0  0  0  0
 35 38  1  0  0  0  0
 35 14  1  0  0  0  0
 36 40  1  0  0  0  0
 36 38  1  0  0  0  0
 37 36  1  0  0  0  0
 38 34  2  0  0  0  0
 40 39  1  0  0  0  0
 41 43  2  0  0  0  0
 43 42  1  0  0  0  0
 45 44  1  1  0  0  0
 45 43  1  0  0  0  0
 46 48  2  0  0  0  0
 47 48  1  0  0  0  0
 48 45  1  0  0  0  0
M  END
>  <MODEL>
1

>  <REMARK>
 VINA RESULT:      -7.1      0.000      0.000
  Name = 
  8 active torsions:
  status: ('A' for Active; 'I' for Inactive)
    1  A    between atoms: C_1  and  C_6
    2  A    between atoms: N_17  and  C_30
    3  A    between atoms: N_22  and  C_40
    4  A    between atoms: C_24  and  C_38
    5  A    between atoms: C_25  and  N_31
    6  A    between atoms: C_26  and  C_32
    7  A    between atoms: C_35  and  C_47
    8  A    between atoms: C_44  and  C_47
                            x       y       z     vdW  Elec       q    Type
                         _______ _______ _______ _____ _____    ______ ____

>  <TORSDO>
F 8

$$$$
=
 OpenBabel10232412173D

 48 52  0  0  1  0  0  0  0  0999 V2000
  189.2630  176.7200  137.2000 C   0  0  0  0  0  0  0  0  0  0  0  0
  190.3660  175.8780  137.8590 C   0  0  2  0  0  3  0  0  0  0  0  0
  188.3610  177.0970  142.5120 C   0  0  1  0  0  3  0  0  0  0  0  0
  190.6610  176.9200  140.1830 C   0  0  2  0  0  3  0  0  0  0  0  0
  188.8690  178.0970  141.4560 C   0  0  0  0  0  2  0  0  0  0  0  0
  193.2090  177.6880  139.1390 O   0  0  0  0  0  0  0  0  0  0  0  0
  189.1510  175.7810  142.5640 C   0  0  0  0  0  2  0  0  0  0  0  0
  188.8000  177.9440  137.7640 C   0  0  0  0  0  0  0  0  0  0  0  0
  189.0820  178.3530  139.0720 O   0  0  0  0  0  0  0  0  0  0  0  0
  187.4950  178.3660  135.8070 N   0  0  0  0  0  0  0  0  0  0  0  0
  192.4630  176.9490  138.4410 C   0  0  0  0  0  0  0  0  0  0  0  0
  190.7830  175.6780  141.0640 C   0  0  0  0  0  2  0  0  0  0  0  0
  189.2260  177.4250  140.1360 C   0  0  1  0  0  3  0  0  0  0  0  0
  188.6430  176.2720  136.0040 C   0  0  0  0  0  0  0  0  0  0  0  0
  187.7860  177.1390  135.3140 C   0  0  0  0  0  3  0  0  0  0  0  0
  187.9640  178.7710  137.0120 C   0  0  0  0  0  3  0  0  0  0  0  0
  190.5220  176.0050  142.4010 O   0  0  0  0  0  0  0  0  0  0  0  0
  192.9030  176.3850  137.1450 C   0  0  2  0  0  3  0  0  0  0  0  0
  191.1360  176.6380  138.8370 N   0  0  0  0  0  0  0  0  0  0  0  0
  191.5780  175.2520  136.6200 S   0  0  0  0  0  0  0  0  0  0  0  0
  188.2460  177.7040  143.8820 C   0  0  0  0  0  0  0  0  0  0  0  0
  189.9200  178.2350  145.6310 C   0  0  0  0  0  3  0  0  0  0  0  0
  187.1490  177.4360  144.5950 C   0  0  0  0  0  3  0  0  0  0  0  0
  189.2590  178.6930  144.3750 C   0  0  0  0  0  2  0  0  0  0  0  0
  189.2720  178.0190  146.7810 C   0  0  0  0  0  0  0  0  0  0  0  0
  187.8000  178.1560  146.9120 C   0  0  0  0  0  3  0  0  0  0  0  0
  186.8830  177.9030  145.9690 C   0  0  0  0  0  3  0  0  0  0  0  0
  189.5740  177.8990  149.1310 O   0  0  0  0  0  0  0  0  0  0  0  0
  191.3610  177.1010  147.8600 N   0  0  0  0  0  2  0  0  0  0  0  0
  190.0550  177.6790  147.9850 C   0  0  0  0  0  0  0  0  0  0  0  0
  192.8840  177.9080  149.5640 C   0  0  0  0  0  1  0  0  0  0  0  0
  192.1580  176.6980  149.0090 C   0  0  0  0  0  3  0  0  0  0  0  0
  193.1750  175.6530  148.5920 C   0  0  0  0  0  1  0  0  0  0  0  0
  187.1060  173.8010  136.6840 N   0  0  0  0  0  2  0  0  0  0  0  0
  188.8530  174.9270  135.5370 N   0  0  0  0  0  2  0  0  0  0  0  0
  188.5520  172.4700  135.3680 N   0  0  0  0  0  0  0  0  0  0  0  0
  189.6940  172.3900  134.4730 C   0  0  0  0  0  1  0  0  0  0  0  0
  188.1370  173.7360  135.9050 C   0  0  0  0  0  0  0  0  0  0  0  0
  187.9680  170.3070  134.7090 O   0  0  0  0  0  1  0  0  0  0  0  0
  187.9030  171.2250  135.7590 C   0  0  0  0  0  2  0  0  0  0  0  0
  194.1680  175.6020  137.3060 C   0  0  0  0  0  3  0  0  0  0  0  0
  194.4060  175.3200  134.9900 F   0  0  0  0  0  0  0  0  0  0  0  0
  194.8540  175.1290  136.2620 C   0  0  0  0  0  0  0  0  0  0  0  0
  196.3800  173.4020  135.3510 C   0  0  0  0  0  1  0  0  0  0  0  0
  196.1070  174.3520  136.5060 C   0  0  1  0  0  3  0  0  0  0  0  0
  197.5070  176.2220  135.9590 O   0  0  0  0  0  0  0  0  0  0  0  0
  198.0580  175.0910  137.8730 O   0  0  0  0  0  1  0  0  0  0  0  0
  197.2660  175.2680  136.7470 C   0  0  0  0  0  0  0  0  0  0  0  0
  1  8  1  0  0  0  0
  1  2  1  0  0  0  0
  2 20  1  6  0  0  0
  2 19  1  0  0  0  0
  3  7  1  0  0  0  0
  3 21  1  1  0  0  0
  4 12  1  1  0  0  0
  5  3  1  0  0  0  0
  8  9  1  0  0  0  0
  9 13  1  0  0  0  0
 10 16  1  0  0  0  0
 11 19  1  0  0  0  0
 11  6  2  0  0  0  0
 12 17  1  0  0  0  0
 13  4  1  0  0  0  0
 13  5  1  1  0  0  0
 14  1  2  0  0  0  0
 15 10  2  0  0  0  0
 15 14  1  0  0  0  0
 16  8  2  0  0  0  0
 17  7  1  0  0  0  0
 18 41  1  1  0  0  0
 18 11  1  0  0  0  0
 19  4  1  0  0  0  0
 20 18  1  0  0  0  0
 21 24  1  0  0  0  0
 21 23  2  0  0  0  0
 22 25  2  0  0  0  0
 23 27  1  0  0  0  0
 24 22  1  0  0  0  0
 25 26  1  0  0  0  0
 25 30  1  0  0  0  0
 27 26  2  0  0  0  0
 29 30  1  0  0  0  0
 29 32  1  0  0  0  0
 30 28  2  0  0  0  0
 32 31  1  0  0  0  0
 33 32  1  0  0  0  0
 35 38  1  0  0  0  0
 35 14  1  0  0  0  0
 36 40  1  0  0  0  0
 36 38  1  0  0  0  0
 37 36  1  0  0  0  0
 38 34  2  0  0  0  0
 39 40  1  0  0  0  0
 42 43  1  0  0  0  0
 43 45  1  0  0  0  0
 43 41  2  0  0  0  0
 45 44  1  6  0  0  0
 45 48  1  0  0  0  0
 46 48  2  0  0  0  0
 48 47  1  0  0  0  0
M  END
>  <MODEL>
2

>  <REMARK>
 VINA RESULT:      -5.9      3.076      4.153
  Name = 
  8 active torsions:
  status: ('A' for Active; 'I' for Inactive)
    1  A    between atoms: C_1  and  C_6
    2  A    between atoms: N_17  and  C_30
    3  A    between atoms: N_22  and  C_40
    4  A    between atoms: C_24  and  C_38
    5  A    between atoms: C_25  and  N_31
    6  A    between atoms: C_26  and  C_32
    7  A    between atoms: C_35  and  C_47
    8  A    between atoms: C_44  and  C_47
                            x       y       z     vdW  Elec       q    Type
                         _______ _______ _______ _____ _____    ______ ____

>  <TORSDO>
F 8

$$$$
