=
 OpenBabel10232412483D

 40 45  0  0  1  0  0  0  0  0999 V2000
  188.7040  176.3310  136.8230 C   0  0  0  0  0  3  0  0  0  0  0  0
  187.9670  176.9880  137.8110 C   0  0  0  0  0  0  0  0  0  0  0  0
  190.6210  176.2120  138.3200 C   0  0  0  0  0  0  0  0  0  0  0  0
  188.5520  177.2620  139.0490 C   0  0  0  0  0  3  0  0  0  0  0  0
  190.0200  175.9400  137.0790 C   0  0  0  0  0  3  0  0  0  0  0  0
  189.8710  176.8760  139.3120 C   0  0  0  0  0  0  0  0  0  0  0  0
  190.2100  175.8480  142.6930 C   0  0  0  0  0  2  0  0  0  0  0  0
  190.4370  177.1770  140.5850 N   0  0  0  0  0  0  0  0  0  0  0  0
  189.4790  178.6650  142.3010 C   0  0  0  0  0  2  0  0  0  0  0  0
  188.8710  177.8280  143.4180 C   0  0  1  0  0  3  0  0  0  0  0  0
  190.7880  178.1150  141.7060 C   0  0  1  0  0  3  0  0  0  0  0  0
  191.1160  176.7650  141.8500 C   0  0  1  0  0  3  0  0  0  0  0  0
  188.8100  176.3790  142.9770 C   0  0  0  0  0  2  0  0  0  0  0  0
  189.6320  177.9890  144.7320 C   0  0  0  0  0  2  0  0  0  0  0  0
  188.9850  177.1660  145.8450 C   0  0  2  0  0  3  0  0  0  0  0  0
  187.6960  177.6420  146.0780 O   0  0  0  0  0  1  0  0  0  0  0  0
  189.2640  178.0030  148.3180 C   0  0  0  0  0  1  0  0  0  0  0  0
  191.8860  177.1320  148.2760 O   0  0  0  0  0  1  0  0  0  0  0  0
  190.1060  175.8530  147.6020 O   0  0  0  0  0  0  0  0  0  0  0  0
  189.7700  177.1480  147.1670 C   0  0  1  0  0  0  0  0  0  0  0  0
  191.1780  176.6650  147.1660 C   0  0  1  0  0  3  0  0  0  0  0  0
  192.0350  175.7720  138.6110 C   0  0  1  0  0  3  0  0  0  0  0  0
  192.4910  174.7700  137.5950 C   0  0  0  0  0  2  0  0  0  0  0  0
  193.0220  176.6970  138.0700 N   0  0  0  0  0  2  0  0  0  0  0  0
  193.4430  175.7560  137.1060 N   0  0  0  0  0  0  0  0  0  0  0  0
  195.3660  174.8170  135.2980 O   0  0  0  0  0  0  0  0  0  0  0  0
  195.6790  174.8780  136.5180 C   0  0  0  0  0  0  0  0  0  0  0  0
  194.7280  175.3310  137.4830 N   0  0  0  0  0  2  0  0  0  0  0  0
  197.0500  174.2510  138.4730 C   0  0  0  0  0  2  0  0  0  0  0  0
  196.9310  173.0380  137.5770 C   0  0  0  0  0  2  0  0  0  0  0  0
  197.0310  174.4240  136.9640 C   0  0  0  0  0  3  0  0  0  0  0  0
  186.5750  177.4290  137.5300 C   0  0  0  0  0  2  0  0  0  0  0  0
  186.2740  178.5810  138.3050 O   0  0  0  0  0  0  0  0  0  0  0  0
  184.2460  177.9840  139.2300 O   0  0  0  0  0  0  0  0  0  0  0  0
  185.3710  178.5370  139.3670 C   0  0  0  0  0  0  0  0  0  0  0  0
  185.7380  179.1240  140.6180 N   0  0  0  0  0  2  0  0  0  0  0  0
  184.8400  179.1580  141.7620 C   0  0  0  0  0  2  0  0  0  0  0  0
  185.2730  178.1330  142.7930 C   0  0  0  0  0  2  0  0  0  0  0  0
  184.9420  178.6420  144.1790 C   0  0  0  0  0  2  0  0  0  0  0  0
  183.5030  179.1110  144.2150 C   0  0  0  0  0  1  0  0  0  0  0  0
  1  5  2  0  0  0  0
  1  2  1  0  0  0  0
  2  4  2  0  0  0  0
  3  6  2  0  0  0  0
  4  6  1  0  0  0  0
  5  3  1  0  0  0  0
  6  8  1  0  0  0  0
  7 13  1  0  0  0  0
  8 11  1  0  0  0  0
  8 12  1  0  0  0  0
  9 10  1  0  0  0  0
 10 14  1  1  0  0  0
 11 12  1  0  0  0  0
 11  9  1  1  0  0  0
 12  7  1  1  0  0  0
 13 10  1  0  0  0  0
 14 15  1  0  0  0  0
 15 16  1  1  0  0  0
 15 20  1  0  0  0  0
 20 19  1  0  0  0  0
 20 17  1  1  0  0  0
 21 20  1  0  0  0  0
 21 19  1  0  0  0  0
 21 18  1  1  0  0  0
 22  3  1  6  0  0  0
 23 22  1  0  0  0  0
 24 22  1  0  0  0  0
 25 28  1  0  0  0  0
 25 23  1  0  0  0  0
 25 24  1  0  0  0  0
 26 27  2  0  0  0  0
 27 31  1  0  0  0  0
 27 28  1  0  0  0  0
 30 29  1  0  0  0  0
 31 30  1  0  0  0  0
 31 29  1  0  0  0  0
 32  2  1  0  0  0  0
 32 33  1  0  0  0  0
 33 35  1  0  0  0  0
 34 35  2  0  0  0  0
 35 36  1  0  0  0  0
 36 37  1  0  0  0  0
 37 38  1  0  0  0  0
 38 39  1  0  0  0  0
 39 40  1  0  0  0  0
M  END
>  <MODEL>
1

>  <REMARK>
 VINA RESULT:      -7.9      0.000      0.000
  Name = 
  13 active torsions:
  status: ('A' for Active; 'I' for Inactive)
    1  A    between atoms: C_2  and  C_10
    2  A    between atoms: C_4  and  C_14
    3  A    between atoms: C_4  and  C_36
    4  A    between atoms: C_8  and  C_17
    5  A    between atoms: C_9  and  C_23
    6  A    between atoms: C_9  and  N_33
    7  A    between atoms: N_12  and  C_22
    8  A    between atoms: C_14  and  C_30
    9  A    between atoms: C_15  and  C_37
   10  A    between atoms: C_17  and  O_34
   11  A    between atoms: C_18  and  O_34
   12  A    between atoms: C_19  and  C_23
   13  A    between atoms: N_27  and  N_38
                            x       y       z     vdW  Elec       q    Type
                         _______ _______ _______ _____ _____    ______ ____

>  <TORSDO>
F 13

$$$$
=
 OpenBabel10232412483D

 40 45  0  0  1  0  0  0  0  0999 V2000
  184.8050  178.2390  142.3800 C   0  0  0  0  0  3  0  0  0  0  0  0
  184.6720  178.5140  141.0170 C   0  0  0  0  0  0  0  0  0  0  0  0
  187.2210  178.0760  142.1200 C   0  0  0  0  0  0  0  0  0  0  0  0
  185.8050  178.5660  140.2040 C   0  0  0  0  0  3  0  0  0  0  0  0
  186.0720  178.0280  142.9280 C   0  0  0  0  0  3  0  0  0  0  0  0
  187.0770  178.3520  140.7450 C   0  0  0  0  0  0  0  0  0  0  0  0
  188.2320  178.1800  137.3920 C   0  0  0  0  0  2  0  0  0  0  0  0
  188.2120  178.4090  139.8830 N   0  0  0  0  0  0  0  0  0  0  0  0
  189.7220  176.5440  139.3220 C   0  0  0  0  0  2  0  0  0  0  0  0
  189.4110  176.0420  137.9190 C   0  0  1  0  0  3  0  0  0  0  0  0
  189.6270  178.0690  139.5100 C   0  0  1  0  0  3  0  0  0  0  0  0
  188.8810  178.8440  138.6210 C   0  0  1  0  0  3  0  0  0  0  0  0
  188.1110  176.6620  137.4460 C   0  0  0  0  0  2  0  0  0  0  0  0
  190.5560  176.3150  136.9470 C   0  0  0  0  0  2  0  0  0  0  0  0
  191.5050  175.1200  136.8660 C   0  0  2  0  0  3  0  0  0  0  0  0
  190.9530  174.0480  137.5680 O   0  0  0  0  0  1  0  0  0  0  0  0
  193.1280  176.5390  138.3650 C   0  0  0  0  0  1  0  0  0  0  0  0
  195.2650  175.5420  136.9240 O   0  0  0  0  0  1  0  0  0  0  0  0
  193.6020  174.2350  137.8070 O   0  0  0  0  0  0  0  0  0  0  0  0
  192.9260  175.3930  137.3850 C   0  0  1  0  0  0  0  0  0  0  0  0
  194.0880  174.8500  136.6310 C   0  0  1  0  0  3  0  0  0  0  0  0
  188.5940  177.8720  142.7100 C   0  0  1  0  0  3  0  0  0  0  0  0
  188.6370  178.3680  144.1220 C   0  0  0  0  0  2  0  0  0  0  0  0
  188.7750  176.5230  143.2300 N   0  0  0  0  0  2  0  0  0  0  0  0
  188.8030  176.9900  144.5610 N   0  0  0  0  0  0  0  0  0  0  0  0
  189.5070  176.8220  147.2670 O   0  0  0  0  0  0  0  0  0  0  0  0
  190.4280  176.7450  146.4100 C   0  0  0  0  0  0  0  0  0  0  0  0
  190.1240  176.8450  145.0170 N   0  0  0  0  0  2  0  0  0  0  0  0
  191.9690  175.4790  147.8650 C   0  0  0  0  0  2  0  0  0  0  0  0
  192.3860  175.2480  146.4300 C   0  0  0  0  0  2  0  0  0  0  0  0
  191.8480  176.6040  146.8520 C   0  0  0  0  0  3  0  0  0  0  0  0
  183.3210  178.7120  140.4280 C   0  0  0  0  0  2  0  0  0  0  0  0
  182.5790  177.5040  140.5190 O   0  0  0  0  0  0  0  0  0  0  0  0
  181.4580  175.8550  139.3570 O   0  0  0  0  0  0  0  0  0  0  0  0
  182.4400  176.6420  139.4300 C   0  0  0  0  0  0  0  0  0  0  0  0
  183.4230  176.6670  138.3930 N   0  0  0  0  0  2  0  0  0  0  0  0
  183.3760  175.7750  137.2450 C   0  0  0  0  0  2  0  0  0  0  0  0
  184.7040  175.0570  137.0910 C   0  0  0  0  0  2  0  0  0  0  0  0
  184.6120  173.6850  137.7220 C   0  0  0  0  0  2  0  0  0  0  0  0
  185.9070  172.9360  137.4900 C   0  0  0  0  0  1  0  0  0  0  0  0
  1  5  1  0  0  0  0
  2  1  2  0  0  0  0
  3  5  2  0  0  0  0
  4  6  2  0  0  0  0
  4  2  1  0  0  0  0
  6  3  1  0  0  0  0
  7 13  1  0  0  0  0
  8  6  1  0  0  0  0
 10 14  1  6  0  0  0
 10  9  1  0  0  0  0
 11  9  1  6  0  0  0
 11  8  1  0  0  0  0
 12  7  1  6  0  0  0
 12 11  1  0  0  0  0
 12  8  1  0  0  0  0
 13 10  1  0  0  0  0
 15 14  1  0  0  0  0
 15 20  1  0  0  0  0
 15 16  1  1  0  0  0
 20 19  1  0  0  0  0
 20 17  1  1  0  0  0
 21 18  1  1  0  0  0
 21 20  1  0  0  0  0
 21 19  1  0  0  0  0
 22  3  1  1  0  0  0
 22 24  1  0  0  0  0
 22 23  1  0  0  0  0
 23 25  1  0  0  0  0
 24 25  1  0  0  0  0
 25 28  1  0  0  0  0
 27 31  1  0  0  0  0
 27 26  2  0  0  0  0
 28 27  1  0  0  0  0
 30 31  1  0  0  0  0
 30 29  1  0  0  0  0
 31 29  1  0  0  0  0
 32 33  1  0  0  0  0
 32  2  1  0  0  0  0
 34 35  2  0  0  0  0
 35 33  1  0  0  0  0
 36 35  1  0  0  0  0
 37 36  1  0  0  0  0
 38 37  1  0  0  0  0
 38 39  1  0  0  0  0
 40 39  1  0  0  0  0
M  END
>  <MODEL>
2

>  <REMARK>
 VINA RESULT:      -7.2      2.648      7.842
  Name = 
  13 active torsions:
  status: ('A' for Active; 'I' for Inactive)
    1  A    between atoms: C_2  and  C_10
    2  A    between atoms: C_4  and  C_14
    3  A    between atoms: C_4  and  C_36
    4  A    between atoms: C_8  and  C_17
    5  A    between atoms: C_9  and  C_23
    6  A    between atoms: C_9  and  N_33
    7  A    between atoms: N_12  and  C_22
    8  A    between atoms: C_14  and  C_30
    9  A    between atoms: C_15  and  C_37
   10  A    between atoms: C_17  and  O_34
   11  A    between atoms: C_18  and  O_34
   12  A    between atoms: C_19  and  C_23
   13  A    between atoms: N_27  and  N_38
                            x       y       z     vdW  Elec       q    Type
                         _______ _______ _______ _____ _____    ______ ____

>  <TORSDO>
F 13

$$$$
=
 OpenBabel10232412483D

 40 45  0  0  1  0  0  0  0  0999 V2000
  184.8500  178.3090  142.5380 C   0  0  0  0  0  3  0  0  0  0  0  0
  184.7130  178.6290  141.1860 C   0  0  0  0  0  0  0  0  0  0  0  0
  187.2540  178.0610  142.2460 C   0  0  0  0  0  0  0  0  0  0  0  0
  185.8390  178.6620  140.3610 C   0  0  0  0  0  3  0  0  0  0  0  0
  186.1130  178.0340  143.0650 C   0  0  0  0  0  3  0  0  0  0  0  0
  187.1080  178.3840  140.8810 C   0  0  0  0  0  0  0  0  0  0  0  0
  188.2180  178.2950  137.5100 C   0  0  0  0  0  2  0  0  0  0  0  0
  188.2350  178.4230  140.0080 N   0  0  0  0  0  0  0  0  0  0  0  0
  189.6500  176.5140  139.3540 C   0  0  0  0  0  2  0  0  0  0  0  0
  189.3010  176.0840  137.9360 C   0  0  1  0  0  3  0  0  0  0  0  0
  189.6290  178.0330  139.6050 C   0  0  1  0  0  3  0  0  0  0  0  0
  188.9100  178.8770  138.7560 C   0  0  1  0  0  3  0  0  0  0  0  0
  188.0260  176.7820  137.5050 C   0  0  0  0  0  2  0  0  0  0  0  0
  190.4470  176.3430  136.9620 C   0  0  0  0  0  2  0  0  0  0  0  0
  191.3900  175.1420  136.8920 C   0  0  2  0  0  3  0  0  0  0  0  0
  190.8630  174.1000  137.6540 O   0  0  0  0  0  1  0  0  0  0  0  0
  193.0530  176.5030  138.3990 C   0  0  0  0  0  1  0  0  0  0  0  0
  195.1300  175.7050  136.7590 O   0  0  0  0  0  1  0  0  0  0  0  0
  193.5700  174.2700  137.6330 O   0  0  0  0  0  0  0  0  0  0  0  0
  192.8300  175.4300  137.3450 C   0  0  1  0  0  0  0  0  0  0  0  0
  193.9610  174.9920  136.4830 C   0  0  1  0  0  3  0  0  0  0  0  0
  188.6250  177.7880  142.8140 C   0  0  1  0  0  3  0  0  0  0  0  0
  188.7660  178.4160  144.1660 C   0  0  0  0  0  2  0  0  0  0  0  0
  188.7020  176.4870  143.4640 N   0  0  0  0  0  2  0  0  0  0  0  0
  188.8230  177.0790  144.7390 N   0  0  0  0  0  0  0  0  0  0  0  0
  189.5860  176.9780  147.4330 O   0  0  0  0  0  0  0  0  0  0  0  0
  190.4750  176.7950  146.5580 C   0  0  0  0  0  0  0  0  0  0  0  0
  190.1420  176.8560  145.1690 N   0  0  0  0  0  2  0  0  0  0  0  0
  191.9820  175.3550  147.8800 C   0  0  0  0  0  2  0  0  0  0  0  0
  192.3810  175.2370  146.4260 C   0  0  0  0  0  2  0  0  0  0  0  0
  191.8930  176.5680  146.9710 C   0  0  0  0  0  3  0  0  0  0  0  0
  183.3640  178.8950  140.6180 C   0  0  0  0  0  2  0  0  0  0  0  0
  183.4970  179.5270  139.3520 O   0  0  0  0  0  0  0  0  0  0  0  0
  182.2130  178.7960  137.5790 O   0  0  0  0  0  0  0  0  0  0  0  0
  182.4170  179.6560  138.4780 C   0  0  0  0  0  0  0  0  0  0  0  0
  181.5390  180.7750  138.6180 N   0  0  0  0  0  2  0  0  0  0  0  0
  180.4150  181.0070  137.7230 C   0  0  0  0  0  2  0  0  0  0  0  0
  180.7440  182.1300  136.7580 C   0  0  0  0  0  2  0  0  0  0  0  0
  180.4320  183.4610  137.4070 C   0  0  0  0  0  2  0  0  0  0  0  0
  181.4360  184.4960  136.9450 C   0  0  0  0  0  1  0  0  0  0  0  0
  1  5  1  0  0  0  0
  2  1  2  0  0  0  0
  3  5  2  0  0  0  0
  4  6  2  0  0  0  0
  4  2  1  0  0  0  0
  6  3  1  0  0  0  0
  8  6  1  0  0  0  0
 10 14  1  6  0  0  0
 10  9  1  0  0  0  0
 11  9  1  6  0  0  0
 11  8  1  0  0  0  0
 12  7  1  6  0  0  0
 12 11  1  0  0  0  0
 12  8  1  0  0  0  0
 13  7  1  0  0  0  0
 13 10  1  0  0  0  0
 15 14  1  0  0  0  0
 15 20  1  0  0  0  0
 15 16  1  1  0  0  0
 20 19  1  0  0  0  0
 20 17  1  1  0  0  0
 21 18  1  1  0  0  0
 21 20  1  0  0  0  0
 21 19  1  0  0  0  0
 22  3  1  1  0  0  0
 22 24  1  0  0  0  0
 22 23  1  0  0  0  0
 23 25  1  0  0  0  0
 24 25  1  0  0  0  0
 25 28  1  0  0  0  0
 27 31  1  0  0  0  0
 27 26  2  0  0  0  0
 28 27  1  0  0  0  0
 30 31  1  0  0  0  0
 30 29  1  0  0  0  0
 31 29  1  0  0  0  0
 32  2  1  0  0  0  0
 33 32  1  0  0  0  0
 34 35  2  0  0  0  0
 35 36  1  0  0  0  0
 35 33  1  0  0  0  0
 37 36  1  0  0  0  0
 38 39  1  0  0  0  0
 38 37  1  0  0  0  0
 40 39  1  0  0  0  0
M  END
>  <MODEL>
3

>  <REMARK>
 VINA RESULT:      -7.1      3.040      7.953
  Name = 
  13 active torsions:
  status: ('A' for Active; 'I' for Inactive)
    1  A    between atoms: C_2  and  C_10
    2  A    between atoms: C_4  and  C_14
    3  A    between atoms: C_4  and  C_36
    4  A    between atoms: C_8  and  C_17
    5  A    between atoms: C_9  and  C_23
    6  A    between atoms: C_9  and  N_33
    7  A    between atoms: N_12  and  C_22
    8  A    between atoms: C_14  and  C_30
    9  A    between atoms: C_15  and  C_37
   10  A    between atoms: C_17  and  O_34
   11  A    between atoms: C_18  and  O_34
   12  A    between atoms: C_19  and  C_23
   13  A    between atoms: N_27  and  N_38
                            x       y       z     vdW  Elec       q    Type
                         _______ _______ _______ _____ _____    ______ ____

>  <TORSDO>
F 13

$$$$
=
 OpenBabel10232412483D

 40 45  0  0  1  0  0  0  0  0999 V2000
  188.8330  177.5100  137.0000 C   0  0  0  0  0  3  0  0  0  0  0  0
  188.0640  178.0050  138.0550 C   0  0  0  0  0  0  0  0  0  0  0  0
  190.5570  176.8140  138.5730 C   0  0  0  0  0  0  0  0  0  0  0  0
  188.5360  177.9110  139.3650 C   0  0  0  0  0  3  0  0  0  0  0  0
  190.0690  176.9130  137.2590 C   0  0  0  0  0  3  0  0  0  0  0  0
  189.7740  177.3170  139.6320 C   0  0  0  0  0  0  0  0  0  0  0  0
  189.4990  175.6110  142.7340 C   0  0  0  0  0  2  0  0  0  0  0  0
  190.2270  177.2420  140.9820 N   0  0  0  0  0  0  0  0  0  0  0  0
  189.3640  178.5400  142.8920 C   0  0  0  0  0  2  0  0  0  0  0  0
  188.4780  177.6500  143.7530 C   0  0  1  0  0  3  0  0  0  0  0  0
  190.6090  177.8530  142.3010 C   0  0  1  0  0  3  0  0  0  0  0  0
  190.6570  176.4630  142.1810 C   0  0  1  0  0  3  0  0  0  0  0  0
  188.1990  176.3580  143.0100 C   0  0  0  0  0  2  0  0  0  0  0  0
  189.0900  177.3940  145.1270 C   0  0  0  0  0  2  0  0  0  0  0  0
  188.4390  178.2770  146.1910 C   0  0  2  0  0  3  0  0  0  0  0  0
  189.0360  178.0250  147.4250 O   0  0  0  0  0  1  0  0  0  0  0  0
  186.2950  176.7940  145.8820 C   0  0  0  0  0  1  0  0  0  0  0  0
  184.7400  179.0700  146.0810 O   0  0  0  0  0  1  0  0  0  0  0  0
  186.4070  178.5310  147.5590 O   0  0  0  0  0  0  0  0  0  0  0  0
  186.9160  178.1130  146.3170 C   0  0  1  0  0  0  0  0  0  0  0  0
  186.0640  179.3270  146.4420 C   0  0  1  0  0  3  0  0  0  0  0  0
  191.8810  176.1490  138.8620 C   0  0  1  0  0  3  0  0  0  0  0  0
  192.2560  175.2230  137.7460 C   0  0  0  0  0  2  0  0  0  0  0  0
  193.0110  176.9860  138.4820 N   0  0  0  0  0  2  0  0  0  0  0  0
  193.3570  176.1180  137.4230 N   0  0  0  0  0  0  0  0  0  0  0  0
  195.1090  174.9130  135.6000 O   0  0  0  0  0  0  0  0  0  0  0  0
  195.4200  174.8930  136.8220 C   0  0  0  0  0  0  0  0  0  0  0  0
  194.5500  175.4760  137.7940 N   0  0  0  0  0  2  0  0  0  0  0  0
  196.5640  173.8110  138.7230 C   0  0  0  0  0  2  0  0  0  0  0  0
  196.3680  172.7710  137.6430 C   0  0  0  0  0  2  0  0  0  0  0  0
  196.6730  174.2090  137.2620 C   0  0  0  0  0  3  0  0  0  0  0  0
  186.7600  178.6650  137.7780 C   0  0  0  0  0  2  0  0  0  0  0  0
  185.8540  177.7190  137.2280 O   0  0  0  0  0  0  0  0  0  0  0  0
  184.2110  176.1720  137.7100 O   0  0  0  0  0  0  0  0  0  0  0  0
  184.7100  177.3110  137.9150 C   0  0  0  0  0  0  0  0  0  0  0  0
  184.1120  178.2010  138.8610 N   0  0  0  0  0  2  0  0  0  0  0  0
  182.8960  177.8710  139.5880 C   0  0  0  0  0  2  0  0  0  0  0  0
  183.0650  178.2030  141.0580 C   0  0  0  0  0  2  0  0  0  0  0  0
  184.4720  178.7020  141.3050 C   0  0  0  0  0  2  0  0  0  0  0  0
  184.9380  178.2450  142.6710 C   0  0  0  0  0  1  0  0  0  0  0  0
  1  5  2  0  0  0  0
  1  2  1  0  0  0  0
  2  4  2  0  0  0  0
  3  6  2  0  0  0  0
  4  6  1  0  0  0  0
  5  3  1  0  0  0  0
  6  8  1  0  0  0  0
  7 13  1  0  0  0  0
  8 12  1  0  0  0  0
  8 11  1  0  0  0  0
  9 10  1  0  0  0  0
 10 14  1  1  0  0  0
 11  9  1  1  0  0  0
 12 11  1  0  0  0  0
 12  7  1  1  0  0  0
 13 10  1  0  0  0  0
 14 15  1  0  0  0  0
 15 20  1  0  0  0  0
 15 16  1  1  0  0  0
 20 17  1  6  0  0  0
 20 21  1  0  0  0  0
 20 19  1  0  0  0  0
 21 18  1  6  0  0  0
 21 19  1  0  0  0  0
 22  3  1  6  0  0  0
 23 22  1  0  0  0  0
 24 22  1  0  0  0  0
 25 23  1  0  0  0  0
 25 28  1  0  0  0  0
 25 24  1  0  0  0  0
 26 27  2  0  0  0  0
 27 31  1  0  0  0  0
 27 28  1  0  0  0  0
 30 29  1  0  0  0  0
 31 30  1  0  0  0  0
 31 29  1  0  0  0  0
 32  2  1  0  0  0  0
 33 32  1  0  0  0  0
 33 35  1  0  0  0  0
 34 35  2  0  0  0  0
 35 36  1  0  0  0  0
 36 37  1  0  0  0  0
 37 38  1  0  0  0  0
 38 39  1  0  0  0  0
 39 40  1  0  0  0  0
M  END
>  <MODEL>
4

>  <REMARK>
 VINA RESULT:      -6.9      1.436      2.282
  Name = 
  13 active torsions:
  status: ('A' for Active; 'I' for Inactive)
    1  A    between atoms: C_2  and  C_10
    2  A    between atoms: C_4  and  C_14
    3  A    between atoms: C_4  and  C_36
    4  A    between atoms: C_8  and  C_17
    5  A    between atoms: C_9  and  C_23
    6  A    between atoms: C_9  and  N_33
    7  A    between atoms: N_12  and  C_22
    8  A    between atoms: C_14  and  C_30
    9  A    between atoms: C_15  and  C_37
   10  A    between atoms: C_17  and  O_34
   11  A    between atoms: C_18  and  O_34
   12  A    between atoms: C_19  and  C_23
   13  A    between atoms: N_27  and  N_38
                            x       y       z     vdW  Elec       q    Type
                         _______ _______ _______ _____ _____    ______ ____

>  <TORSDO>
F 13

$$$$
=
 OpenBabel10232412483D

 40 45  0  0  1  0  0  0  0  0999 V2000
  187.5890  177.2970  143.6000 C   0  0  0  0  0  3  0  0  0  0  0  0
  188.7720  176.8680  142.9940 C   0  0  0  0  0  0  0  0  0  0  0  0
  186.8570  178.2810  141.4970 C   0  0  0  0  0  0  0  0  0  0  0  0
  189.0030  177.1460  141.6450 C   0  0  0  0  0  3  0  0  0  0  0  0
  186.6360  177.9930  142.8540 C   0  0  0  0  0  3  0  0  0  0  0  0
  188.0540  177.8460  140.8920 C   0  0  0  0  0  0  0  0  0  0  0  0
  187.6490  176.7380  137.5430 C   0  0  0  0  0  2  0  0  0  0  0  0
  188.3260  178.1160  139.5190 N   0  0  0  0  0  0  0  0  0  0  0  0
  190.3780  177.5260  138.2870 C   0  0  0  0  0  2  0  0  0  0  0  0
  190.1070  176.3230  137.3940 C   0  0  1  0  0  3  0  0  0  0  0  0
  189.2240  178.5400  138.3910 C   0  0  1  0  0  3  0  0  0  0  0  0
  187.9180  178.1550  138.0830 C   0  0  1  0  0  3  0  0  0  0  0  0
  188.7650  175.7230  137.7620 C   0  0  0  0  0  2  0  0  0  0  0  0
  190.1810  176.6830  135.9120 C   0  0  0  0  0  2  0  0  0  0  0  0
  191.0870  175.7120  135.1560 C   0  0  2  0  0  3  0  0  0  0  0  0
  190.3480  174.5910  134.7820 O   0  0  0  0  0  1  0  0  0  0  0  0
  192.2420  174.0150  136.7940 C   0  0  0  0  0  1  0  0  0  0  0  0
  194.2430  175.8680  137.2390 O   0  0  0  0  0  1  0  0  0  0  0  0
  193.5080  175.2610  135.1540 O   0  0  0  0  0  0  0  0  0  0  0  0
  192.3370  175.2650  135.9320 C   0  0  1  0  0  0  0  0  0  0  0  0
  193.4320  176.2450  136.1660 C   0  0  1  0  0  3  0  0  0  0  0  0
  185.8210  179.0130  140.6790 C   0  0  1  0  0  3  0  0  0  0  0  0
  184.9050  178.0390  140.0030 C   0  0  0  0  0  2  0  0  0  0  0  0
  184.6880  179.4440  141.4860 N   0  0  0  0  0  2  0  0  0  0  0  0
  183.8280  178.5190  140.8570 N   0  0  0  0  0  0  0  0  0  0  0  0
  181.0370  178.3500  141.0400 O   0  0  0  0  0  0  0  0  0  0  0  0
  181.5290  179.1510  140.2000 C   0  0  0  0  0  0  0  0  0  0  0  0
  182.9460  179.2600  140.0540 N   0  0  0  0  0  2  0  0  0  0  0  0
  181.3880  180.4250  138.0900 C   0  0  0  0  0  2  0  0  0  0  0  0
  180.4530  179.2410  137.9840 C   0  0  0  0  0  2  0  0  0  0  0  0
  180.6270  179.9500  139.3160 C   0  0  0  0  0  3  0  0  0  0  0  0
  189.8000  176.1510  143.7940 C   0  0  0  0  0  2  0  0  0  0  0  0
  190.6480  177.0930  144.4350 O   0  0  0  0  0  0  0  0  0  0  0  0
  191.6570  176.9640  146.5060 O   0  0  0  0  0  0  0  0  0  0  0  0
  190.6430  177.2640  145.8190 C   0  0  0  0  0  0  0  0  0  0  0  0
  189.4740  177.7920  146.4510 N   0  0  0  0  0  2  0  0  0  0  0  0
  189.3710  177.9630  147.8920 C   0  0  0  0  0  2  0  0  0  0  0  0
  187.9320  177.7770  148.3350 C   0  0  0  0  0  2  0  0  0  0  0  0
  187.0360  177.7020  147.1180 C   0  0  0  0  0  2  0  0  0  0  0  0
  186.0590  178.8590  147.1390 C   0  0  0  0  0  1  0  0  0  0  0  0
  2  1  1  0  0  0  0
  2 32  1  0  0  0  0
  3  5  1  0  0  0  0
  4  2  2  0  0  0  0
  5  1  2  0  0  0  0
  6  3  2  0  0  0  0
  6  4  1  0  0  0  0
  7 13  1  0  0  0  0
  8  6  1  0  0  0  0
 10 14  1  6  0  0  0
 10 13  1  0  0  0  0
 10  9  1  0  0  0  0
 11  9  1  6  0  0  0
 11  8  1  0  0  0  0
 12  7  1  6  0  0  0
 12 11  1  0  0  0  0
 12  8  1  0  0  0  0
 15 16  1  1  0  0  0
 15 14  1  0  0  0  0
 15 20  1  0  0  0  0
 19 20  1  0  0  0  0
 19 21  1  0  0  0  0
 20 21  1  0  0  0  0
 20 17  1  1  0  0  0
 21 18  1  1  0  0  0
 22 24  1  0  0  0  0
 22  3  1  1  0  0  0
 23 22  1  0  0  0  0
 23 25  1  0  0  0  0
 25 24  1  0  0  0  0
 27 26  2  0  0  0  0
 28 27  1  0  0  0  0
 28 25  1  0  0  0  0
 29 31  1  0  0  0  0
 30 29  1  0  0  0  0
 30 31  1  0  0  0  0
 31 27  1  0  0  0  0
 32 33  1  0  0  0  0
 33 35  1  0  0  0  0
 35 36  1  0  0  0  0
 35 34  2  0  0  0  0
 36 37  1  0  0  0  0
 37 38  1  0  0  0  0
 39 40  1  0  0  0  0
 39 38  1  0  0  0  0
M  END
>  <MODEL>
5

>  <REMARK>
 VINA RESULT:      -6.9      2.868      9.660
  Name = 
  13 active torsions:
  status: ('A' for Active; 'I' for Inactive)
    1  A    between atoms: C_2  and  C_10
    2  A    between atoms: C_4  and  C_14
    3  A    between atoms: C_4  and  C_36
    4  A    between atoms: C_8  and  C_17
    5  A    between atoms: C_9  and  C_23
    6  A    between atoms: C_9  and  N_33
    7  A    between atoms: N_12  and  C_22
    8  A    between atoms: C_14  and  C_30
    9  A    between atoms: C_15  and  C_37
   10  A    between atoms: C_17  and  O_34
   11  A    between atoms: C_18  and  O_34
   12  A    between atoms: C_19  and  C_23
   13  A    between atoms: N_27  and  N_38
                            x       y       z     vdW  Elec       q    Type
                         _______ _______ _______ _____ _____    ______ ____

>  <TORSDO>
F 13

$$$$
=
 OpenBabel10232412483D

 40 45  0  0  1  0  0  0  0  0999 V2000
  191.6560  176.2450  137.1710 C   0  0  0  0  0  3  0  0  0  0  0  0
  192.7160  175.9540  138.0320 C   0  0  0  0  0  0  0  0  0  0  0  0
  190.4480  177.3030  139.0010 C   0  0  0  0  0  0  0  0  0  0  0  0
  192.6470  176.3310  139.3750 C   0  0  0  0  0  3  0  0  0  0  0  0
  190.5330  176.9200  137.6520 C   0  0  0  0  0  3  0  0  0  0  0  0
  191.5230  177.0060  139.8640 C   0  0  0  0  0  0  0  0  0  0  0  0
  190.8780  175.9100  143.1800 C   0  0  0  0  0  2  0  0  0  0  0  0
  191.4840  177.3720  141.2420 N   0  0  0  0  0  0  0  0  0  0  0  0
  189.6050  178.4450  142.4220 C   0  0  0  0  0  2  0  0  0  0  0  0
  188.8850  177.4120  143.2770 C   0  0  1  0  0  3  0  0  0  0  0  0
  191.1370  178.3020  142.3700 C   0  0  1  0  0  3  0  0  0  0  0  0
  191.7430  177.0840  142.6850 C   0  0  1  0  0  3  0  0  0  0  0  0
  189.3830  176.0280  142.9090 C   0  0  0  0  0  2  0  0  0  0  0  0
  189.0440  177.6940  144.7690 C   0  0  0  0  0  2  0  0  0  0  0  0
  187.8200  177.2180  145.5510 C   0  0  2  0  0  3  0  0  0  0  0  0
  186.6640  177.6450  144.8990 O   0  0  0  0  0  1  0  0  0  0  0  0
  186.6550  178.6020  147.4540 C   0  0  0  0  0  1  0  0  0  0  0  0
  188.9710  178.4190  148.9500 O   0  0  0  0  0  1  0  0  0  0  0  0
  187.9620  176.6270  147.9370 O   0  0  0  0  0  0  0  0  0  0  0  0
  187.7790  177.6750  147.0180 C   0  0  1  0  0  0  0  0  0  0  0  0
  189.0130  177.5680  147.8440 C   0  0  1  0  0  3  0  0  0  0  0  0
  189.2480  178.0550  139.5220 C   0  0  1  0  0  3  0  0  0  0  0  0
  188.6110  178.8510  138.4240 C   0  0  0  0  0  2  0  0  0  0  0  0
  188.0500  177.2260  139.5490 N   0  0  0  0  0  2  0  0  0  0  0  0
  187.4560  177.9690  138.5070 N   0  0  0  0  0  0  0  0  0  0  0  0
  184.7680  177.6520  137.7830 O   0  0  0  0  0  0  0  0  0  0  0  0
  185.0440  178.4890  138.6850 C   0  0  0  0  0  0  0  0  0  0  0  0
  186.4020  178.7020  139.0770 N   0  0  0  0  0  2  0  0  0  0  0  0
  182.6670  178.4960  139.3510 C   0  0  0  0  0  2  0  0  0  0  0  0
  183.5030  178.6440  140.6020 C   0  0  0  0  0  2  0  0  0  0  0  0
  183.9550  179.2990  139.3090 C   0  0  0  0  0  3  0  0  0  0  0  0
  193.9010  175.2110  137.5270 C   0  0  0  0  0  2  0  0  0  0  0  0
  194.9930  175.3930  138.4180 O   0  0  0  0  0  0  0  0  0  0  0  0
  195.9170  173.3120  138.7960 O   0  0  0  0  0  0  0  0  0  0  0  0
  196.0750  174.5130  138.4450 C   0  0  0  0  0  0  0  0  0  0  0  0
  197.3690  174.9880  138.0620 N   0  0  0  0  0  2  0  0  0  0  0  0
  198.5560  174.1480  138.1010 C   0  0  0  0  0  2  0  0  0  0  0  0
  199.0560  173.8910  136.6930 C   0  0  0  0  0  2  0  0  0  0  0  0
  198.8680  172.4290  136.3500 C   0  0  0  0  0  2  0  0  0  0  0  0
  197.5040  172.2290  135.7230 C   0  0  0  0  0  1  0  0  0  0  0  0
  1  5  2  0  0  0  0
  1  2  1  0  0  0  0
  2  4  2  0  0  0  0
  3  6  2  0  0  0  0
  4  6  1  0  0  0  0
  5  3  1  0  0  0  0
  6  8  1  0  0  0  0
  8 11  1  0  0  0  0
  8 12  1  0  0  0  0
  9 10  1  0  0  0  0
 10 14  1  1  0  0  0
 11  9  1  1  0  0  0
 11 12  1  0  0  0  0
 12  7  1  1  0  0  0
 13  7  1  0  0  0  0
 13 10  1  0  0  0  0
 14 15  1  0  0  0  0
 15 16  1  6  0  0  0
 15 20  1  0  0  0  0
 20 17  1  1  0  0  0
 20 21  1  0  0  0  0
 20 19  1  0  0  0  0
 21 19  1  0  0  0  0
 21 18  1  1  0  0  0
 22  3  1  6  0  0  0
 22 24  1  0  0  0  0
 23 25  1  0  0  0  0
 23 22  1  0  0  0  0
 25 28  1  0  0  0  0
 25 24  1  0  0  0  0
 26 27  2  0  0  0  0
 27 28  1  0  0  0  0
 27 31  1  0  0  0  0
 29 30  1  0  0  0  0
 31 29  1  0  0  0  0
 31 30  1  0  0  0  0
 32  2  1  0  0  0  0
 32 33  1  0  0  0  0
 33 35  1  0  0  0  0
 35 34  2  0  0  0  0
 36 37  1  0  0  0  0
 36 35  1  0  0  0  0
 38 37  1  0  0  0  0
 39 38  1  0  0  0  0
 40 39  1  0  0  0  0
M  END
>  <MODEL>
6

>  <REMARK>
 VINA RESULT:      -6.7      1.992      8.482
  Name = 
  13 active torsions:
  status: ('A' for Active; 'I' for Inactive)
    1  A    between atoms: C_2  and  C_10
    2  A    between atoms: C_4  and  C_14
    3  A    between atoms: C_4  and  C_36
    4  A    between atoms: C_8  and  C_17
    5  A    between atoms: C_9  and  C_23
    6  A    between atoms: C_9  and  N_33
    7  A    between atoms: N_12  and  C_22
    8  A    between atoms: C_14  and  C_30
    9  A    between atoms: C_15  and  C_37
   10  A    between atoms: C_17  and  O_34
   11  A    between atoms: C_18  and  O_34
   12  A    between atoms: C_19  and  C_23
   13  A    between atoms: N_27  and  N_38
                            x       y       z     vdW  Elec       q    Type
                         _______ _______ _______ _____ _____    ______ ____

>  <TORSDO>
F 13

$$$$
=
 OpenBabel10232412483D

 40 45  0  0  1  0  0  0  0  0999 V2000
  186.7420  178.1820  137.9480 C   0  0  0  0  0  3  0  0  0  0  0  0
  186.5040  178.4060  139.3060 C   0  0  0  0  0  0  0  0  0  0  0  0
  189.0120  177.4630  138.4560 C   0  0  0  0  0  0  0  0  0  0  0  0
  187.5150  178.1650  140.2390 C   0  0  0  0  0  3  0  0  0  0  0  0
  187.9860  177.7070  137.5270 C   0  0  0  0  0  3  0  0  0  0  0  0
  188.7650  177.6930  139.8250 C   0  0  0  0  0  0  0  0  0  0  0  0
  189.6500  175.9200  142.7710 C   0  0  0  0  0  2  0  0  0  0  0  0
  189.7740  177.4620  140.8050 N   0  0  0  0  0  0  0  0  0  0  0  0
  190.1870  178.8060  142.8290 C   0  0  0  0  0  2  0  0  0  0  0  0
  189.6540  178.0660  144.0480 C   0  0  1  0  0  3  0  0  0  0  0  0
  190.8430  177.9180  141.7570 C   0  0  1  0  0  3  0  0  0  0  0  0
  190.5540  176.5530  141.6970 C   0  0  1  0  0  3  0  0  0  0  0  0
  188.8090  176.8940  143.5880 C   0  0  0  0  0  2  0  0  0  0  0  0
  190.7760  177.6250  144.9840 C   0  0  0  0  0  2  0  0  0  0  0  0
  190.2440  176.7050  146.0830 C   0  0  2  0  0  3  0  0  0  0  0  0
  189.0400  177.2160  146.5670 O   0  0  0  0  0  1  0  0  0  0  0  0
  191.2350  177.5070  148.3780 C   0  0  0  0  0  1  0  0  0  0  0  0
  193.3770  175.8010  148.0050 O   0  0  0  0  0  1  0  0  0  0  0  0
  191.1860  175.1700  147.7630 O   0  0  0  0  0  0  0  0  0  0  0  0
  191.2130  176.4810  147.2560 C   0  0  1  0  0  0  0  0  0  0  0  0
  192.3620  175.5520  147.0780 C   0  0  1  0  0  3  0  0  0  0  0  0
  190.3510  176.9280  138.0110 C   0  0  1  0  0  3  0  0  0  0  0  0
  190.3710  175.4320  138.0930 C   0  0  0  0  0  2  0  0  0  0  0  0
  190.4390  176.8000  136.5620 N   0  0  0  0  0  2  0  0  0  0  0  0
  190.4460  175.3910  136.6400 N   0  0  0  0  0  0  0  0  0  0  0  0
  191.0260  172.8660  135.5750 O   0  0  0  0  0  0  0  0  0  0  0  0
  191.9800  173.6750  135.7340 C   0  0  0  0  0  0  0  0  0  0  0  0
  191.7390  174.9690  136.2920 N   0  0  0  0  0  2  0  0  0  0  0  0
  194.3650  173.9630  136.3020 C   0  0  0  0  0  2  0  0  0  0  0  0
  193.9940  172.5200  136.5600 C   0  0  0  0  0  2  0  0  0  0  0  0
  193.3740  173.2620  135.3890 C   0  0  0  0  0  3  0  0  0  0  0  0
  185.1890  178.9370  139.7520 C   0  0  0  0  0  2  0  0  0  0  0  0
  185.3040  179.4470  141.0730 O   0  0  0  0  0  0  0  0  0  0  0  0
  183.7230  178.0370  141.9910 O   0  0  0  0  0  0  0  0  0  0  0  0
  184.7040  178.8110  142.1610 C   0  0  0  0  0  0  0  0  0  0  0  0
  185.2210  179.0430  143.4740 N   0  0  0  0  0  2  0  0  0  0  0  0
  184.6290  178.4540  144.6650 C   0  0  0  0  0  2  0  0  0  0  0  0
  185.7160  178.0970  145.6620 C   0  0  0  0  0  2  0  0  0  0  0  0
  185.8390  179.2010  146.6890 C   0  0  0  0  0  2  0  0  0  0  0  0
  186.7640  178.7550  147.8010 C   0  0  0  0  0  1  0  0  0  0  0  0
  1  2  1  0  0  0  0
  2 32  1  0  0  0  0
  2  4  2  0  0  0  0
  3  6  2  0  0  0  0
  5  1  2  0  0  0  0
  5  3  1  0  0  0  0
  6  4  1  0  0  0  0
  6  8  1  0  0  0  0
  7 13  1  0  0  0  0
  8 12  1  0  0  0  0
  8 11  1  0  0  0  0
  9 10  1  0  0  0  0
 10 14  1  6  0  0  0
 11  9  1  1  0  0  0
 12 11  1  0  0  0  0
 12  7  1  1  0  0  0
 13 10  1  0  0  0  0
 14 15  1  0  0  0  0
 15 16  1  1  0  0  0
 15 20  1  0  0  0  0
 20 19  1  0  0  0  0
 20 17  1  1  0  0  0
 21 20  1  0  0  0  0
 21 19  1  0  0  0  0
 21 18  1  1  0  0  0
 22 23  1  0  0  0  0
 22  3  1  6  0  0  0
 24 25  1  0  0  0  0
 24 22  1  0  0  0  0
 25 23  1  0  0  0  0
 26 27  2  0  0  0  0
 27 28  1  0  0  0  0
 28 25  1  0  0  0  0
 29 30  1  0  0  0  0
 31 27  1  0  0  0  0
 31 29  1  0  0  0  0
 31 30  1  0  0  0  0
 32 33  1  0  0  0  0
 33 35  1  0  0  0  0
 34 35  2  0  0  0  0
 35 36  1  0  0  0  0
 36 37  1  0  0  0  0
 37 38  1  0  0  0  0
 38 39  1  0  0  0  0
 39 40  1  0  0  0  0
M  END
>  <MODEL>
7

>  <REMARK>
 VINA RESULT:      -6.6      1.882      2.570
  Name = 
  13 active torsions:
  status: ('A' for Active; 'I' for Inactive)
    1  A    between atoms: C_2  and  C_10
    2  A    between atoms: C_4  and  C_14
    3  A    between atoms: C_4  and  C_36
    4  A    between atoms: C_8  and  C_17
    5  A    between atoms: C_9  and  C_23
    6  A    between atoms: C_9  and  N_33
    7  A    between atoms: N_12  and  C_22
    8  A    between atoms: C_14  and  C_30
    9  A    between atoms: C_15  and  C_37
   10  A    between atoms: C_17  and  O_34
   11  A    between atoms: C_18  and  O_34
   12  A    between atoms: C_19  and  C_23
   13  A    between atoms: N_27  and  N_38
                            x       y       z     vdW  Elec       q    Type
                         _______ _______ _______ _____ _____    ______ ____

>  <TORSDO>
F 13

$$$$
=
 OpenBabel10232412483D

 40 45  0  0  1  0  0  0  0  0999 V2000
  184.5570  179.4470  145.0770 C   0  0  0  0  0  3  0  0  0  0  0  0
  185.6810  178.9450  145.7370 C   0  0  0  0  0  0  0  0  0  0  0  0
  185.3350  178.4650  142.9890 C   0  0  0  0  0  0  0  0  0  0  0  0
  186.6330  178.2090  145.0300 C   0  0  0  0  0  3  0  0  0  0  0  0
  184.3830  179.2020  143.7130 C   0  0  0  0  0  3  0  0  0  0  0  0
  186.4670  177.9630  143.6620 C   0  0  0  0  0  0  0  0  0  0  0  0
  189.7250  176.5580  143.8160 C   0  0  0  0  0  2  0  0  0  0  0  0
  187.4620  177.2110  142.9710 N   0  0  0  0  0  0  0  0  0  0  0  0
  189.1290  178.0940  141.3850 C   0  0  0  0  0  2  0  0  0  0  0  0
  190.4890  178.1670  142.0650 C   0  0  1  0  0  3  0  0  0  0  0  0
  188.2750  176.8680  141.7550 C   0  0  1  0  0  3  0  0  0  0  0  0
  188.5260  176.1630  142.9340 C   0  0  1  0  0  3  0  0  0  0  0  0
  190.3140  177.9400  143.5540 C   0  0  0  0  0  2  0  0  0  0  0  0
  191.4870  177.1860  141.4550 C   0  0  0  0  0  2  0  0  0  0  0  0
  191.3370  177.1250  139.9350 C   0  0  2  0  0  3  0  0  0  0  0  0
  190.3820  176.1640  139.6070 O   0  0  0  0  0  1  0  0  0  0  0  0
  193.9610  177.1070  139.8740 C   0  0  0  0  0  1  0  0  0  0  0  0
  193.8570  176.9130  137.1200 O   0  0  0  0  0  1  0  0  0  0  0  0
  192.6490  175.5780  138.5390 O   0  0  0  0  0  0  0  0  0  0  0  0
  192.6400  176.8330  139.1730 C   0  0  1  0  0  0  0  0  0  0  0  0
  192.5990  176.7080  137.6910 C   0  0  1  0  0  3  0  0  0  0  0  0
  185.1410  178.1770  141.5200 C   0  0  1  0  0  3  0  0  0  0  0  0
  183.6980  177.9000  141.2270 C   0  0  0  0  0  2  0  0  0  0  0  0
  185.0160  179.3960  140.7320 N   0  0  0  0  0  2  0  0  0  0  0  0
  183.6540  179.1400  140.4660 N   0  0  0  0  0  0  0  0  0  0  0  0
  181.2450  179.0920  139.0370 O   0  0  0  0  0  0  0  0  0  0  0  0
  182.3070  178.8110  138.4180 C   0  0  0  0  0  0  0  0  0  0  0  0
  183.5600  178.8020  139.1060 N   0  0  0  0  0  2  0  0  0  0  0  0
  183.3270  177.4070  136.6620 C   0  0  0  0  0  2  0  0  0  0  0  0
  181.8930  176.9630  136.8410 C   0  0  0  0  0  2  0  0  0  0  0  0
  182.2510  178.4330  136.9740 C   0  0  0  0  0  3  0  0  0  0  0  0
  185.8820  179.2280  147.1840 C   0  0  0  0  0  2  0  0  0  0  0  0
  186.3900  178.0700  147.8300 O   0  0  0  0  0  0  0  0  0  0  0  0
  188.1290  178.0400  149.3460 O   0  0  0  0  0  0  0  0  0  0  0  0
  187.7420  177.9400  148.1500 C   0  0  0  0  0  0  0  0  0  0  0  0
  188.6840  177.6840  147.1060 N   0  0  0  0  0  2  0  0  0  0  0  0
  190.1140  177.5770  147.3480 C   0  0  0  0  0  2  0  0  0  0  0  0
  190.5340  176.1190  147.3390 C   0  0  0  0  0  2  0  0  0  0  0  0
  191.9980  176.0180  146.9700 C   0  0  0  0  0  2  0  0  0  0  0  0
  192.8190  175.7880  148.2210 C   0  0  0  0  0  1  0  0  0  0  0  0
  1  2  1  0  0  0  0
  2 32  1  0  0  0  0
  3  6  2  0  0  0  0
  3  5  1  0  0  0  0
  4  2  2  0  0  0  0
  5  1  2  0  0  0  0
  6  4  1  0  0  0  0
  8  6  1  0  0  0  0
  9 10  1  0  0  0  0
 10 14  1  6  0  0  0
 10 13  1  0  0  0  0
 11  9  1  1  0  0  0
 11 12  1  0  0  0  0
 11  8  1  0  0  0  0
 12  8  1  0  0  0  0
 12  7  1  1  0  0  0
 13  7  1  0  0  0  0
 15 16  1  1  0  0  0
 15 14  1  0  0  0  0
 19 20  1  0  0  0  0
 20 17  1  1  0  0  0
 20 15  1  0  0  0  0
 21 18  1  6  0  0  0
 21 19  1  0  0  0  0
 21 20  1  0  0  0  0
 22  3  1  1  0  0  0
 23 22  1  0  0  0  0
 24 22  1  0  0  0  0
 25 24  1  0  0  0  0
 25 23  1  0  0  0  0
 27 26  2  0  0  0  0
 27 28  1  0  0  0  0
 28 25  1  0  0  0  0
 29 30  1  0  0  0  0
 29 31  1  0  0  0  0
 30 31  1  0  0  0  0
 31 27  1  0  0  0  0
 32 33  1  0  0  0  0
 33 35  1  0  0  0  0
 35 34  2  0  0  0  0
 36 37  1  0  0  0  0
 36 35  1  0  0  0  0
 38 37  1  0  0  0  0
 39 38  1  0  0  0  0
 39 40  1  0  0  0  0
M  END
>  <MODEL>
8

>  <REMARK>
 VINA RESULT:      -6.6      3.492      9.145
  Name = 
  13 active torsions:
  status: ('A' for Active; 'I' for Inactive)
    1  A    between atoms: C_2  and  C_10
    2  A    between atoms: C_4  and  C_14
    3  A    between atoms: C_4  and  C_36
    4  A    between atoms: C_8  and  C_17
    5  A    between atoms: C_9  and  C_23
    6  A    between atoms: C_9  and  N_33
    7  A    between atoms: N_12  and  C_22
    8  A    between atoms: C_14  and  C_30
    9  A    between atoms: C_15  and  C_37
   10  A    between atoms: C_17  and  O_34
   11  A    between atoms: C_18  and  O_34
   12  A    between atoms: C_19  and  C_23
   13  A    between atoms: N_27  and  N_38
                            x       y       z     vdW  Elec       q    Type
                         _______ _______ _______ _____ _____    ______ ____

>  <TORSDO>
F 13

$$$$
=
 OpenBabel10232412483D

 40 45  0  0  1  0  0  0  0  0999 V2000
  190.7160  177.4340  141.5140 C   0  0  0  0  0  3  0  0  0  0  0  0
  189.3450  177.6600  141.3740 C   0  0  0  0  0  0  0  0  0  0  0  0
  190.8790  176.9040  139.1430 C   0  0  0  0  0  0  0  0  0  0  0  0
  188.7370  177.5050  140.1270 C   0  0  0  0  0  3  0  0  0  0  0  0
  191.4780  177.0650  140.4030 C   0  0  0  0  0  3  0  0  0  0  0  0
  189.4940  177.1330  139.0100 C   0  0  0  0  0  0  0  0  0  0  0  0
  187.1870  178.5420  136.7080 C   0  0  0  0  0  2  0  0  0  0  0  0
  188.8390  176.9800  137.7530 N   0  0  0  0  0  0  0  0  0  0  0  0
  186.7790  175.6990  137.3190 C   0  0  0  0  0  2  0  0  0  0  0  0
  185.6080  176.6580  137.1540 C   0  0  1  0  0  3  0  0  0  0  0  0
  188.1100  176.1770  136.7130 C   0  0  1  0  0  3  0  0  0  0  0  0
  188.3250  177.5340  136.4650 C   0  0  1  0  0  3  0  0  0  0  0  0
  186.0400  178.0470  137.5820 C   0  0  0  0  0  2  0  0  0  0  0  0
  185.0580  176.6480  135.7300 C   0  0  0  0  0  2  0  0  0  0  0  0
  183.5720  176.2870  135.7180 C   0  0  2  0  0  3  0  0  0  0  0  0
  182.8410  177.3360  136.2740 O   0  0  0  0  0  1  0  0  0  0  0  0
  182.7000  175.0640  137.8720 C   0  0  0  0  0  1  0  0  0  0  0  0
  183.7860  172.7060  136.9230 O   0  0  0  0  0  1  0  0  0  0  0  0
  182.4560  174.0920  135.6710 O   0  0  0  0  0  0  0  0  0  0  0  0
  183.2250  174.9780  136.4470 C   0  0  1  0  0  0  0  0  0  0  0  0
  183.7870  173.6970  135.9390 C   0  0  1  0  0  3  0  0  0  0  0  0
  191.7000  176.5280  137.9340 C   0  0  1  0  0  3  0  0  0  0  0  0
  193.1600  176.5420  138.2680 C   0  0  0  0  0  2  0  0  0  0  0  0
  191.8030  175.0840  137.7660 N   0  0  0  0  0  2  0  0  0  0  0  0
  193.1760  175.0970  138.0920 N   0  0  0  0  0  0  0  0  0  0  0  0
  195.0630  173.0410  137.8470 O   0  0  0  0  0  0  0  0  0  0  0  0
  194.8200  173.7460  136.8310 C   0  0  0  0  0  0  0  0  0  0  0  0
  193.8800  174.8200  136.9090 N   0  0  0  0  0  2  0  0  0  0  0  0
  195.6370  174.7730  134.7400 C   0  0  0  0  0  2  0  0  0  0  0  0
  196.8380  174.3090  135.5320 C   0  0  0  0  0  2  0  0  0  0  0  0
  195.5560  173.4950  135.5560 C   0  0  0  0  0  3  0  0  0  0  0  0
  188.5280  178.0270  142.5610 C   0  0  0  0  0  2  0  0  0  0  0  0
  188.8910  177.2050  143.6620 O   0  0  0  0  0  0  0  0  0  0  0  0
  189.4050  177.6310  145.8710 O   0  0  0  0  0  0  0  0  0  0  0  0
  188.5290  177.5260  144.9700 C   0  0  0  0  0  0  0  0  0  0  0  0
  187.1490  177.7410  145.2780 N   0  0  0  0  0  2  0  0  0  0  0  0
  186.6830  178.0390  146.6240 C   0  0  0  0  0  2  0  0  0  0  0  0
  185.2200  178.4400  146.5890 C   0  0  0  0  0  2  0  0  0  0  0  0
  184.9170  179.1270  145.2750 C   0  0  0  0  0  2  0  0  0  0  0  0
  183.5030  178.7950  144.8470 C   0  0  0  0  0  1  0  0  0  0  0  0
  2  1  1  0  0  0  0
  2 32  1  0  0  0  0
  3  5  1  0  0  0  0
  4  2  2  0  0  0  0
  5  1  2  0  0  0  0
  6  3  2  0  0  0  0
  6  4  1  0  0  0  0
  7 13  1  0  0  0  0
  8  6  1  0  0  0  0
 10 14  1  6  0  0  0
 10  9  1  0  0  0  0
 10 13  1  0  0  0  0
 11  9  1  1  0  0  0
 11  8  1  0  0  0  0
 12  7  1  1  0  0  0
 12 11  1  0  0  0  0
 12  8  1  0  0  0  0
 15 14  1  0  0  0  0
 15 16  1  1  0  0  0
 15 20  1  0  0  0  0
 19 21  1  0  0  0  0
 19 20  1  0  0  0  0
 20 17  1  1  0  0  0
 21 20  1  0  0  0  0
 21 18  1  1  0  0  0
 22 23  1  0  0  0  0
 22  3  1  1  0  0  0
 24 22  1  0  0  0  0
 24 25  1  0  0  0  0
 25 23  1  0  0  0  0
 27 28  1  0  0  0  0
 27 26  2  0  0  0  0
 28 25  1  0  0  0  0
 29 30  1  0  0  0  0
 29 31  1  0  0  0  0
 30 31  1  0  0  0  0
 31 27  1  0  0  0  0
 32 33  1  0  0  0  0
 33 35  1  0  0  0  0
 35 36  1  0  0  0  0
 35 34  2  0  0  0  0
 36 37  1  0  0  0  0
 38 37  1  0  0  0  0
 39 38  1  0  0  0  0
 40 39  1  0  0  0  0
M  END
>  <MODEL>
9

>  <REMARK>
 VINA RESULT:      -6.5      2.589      6.921
  Name = 
  13 active torsions:
  status: ('A' for Active; 'I' for Inactive)
    1  A    between atoms: C_2  and  C_10
    2  A    between atoms: C_4  and  C_14
    3  A    between atoms: C_4  and  C_36
    4  A    between atoms: C_8  and  C_17
    5  A    between atoms: C_9  and  C_23
    6  A    between atoms: C_9  and  N_33
    7  A    between atoms: N_12  and  C_22
    8  A    between atoms: C_14  and  C_30
    9  A    between atoms: C_15  and  C_37
   10  A    between atoms: C_17  and  O_34
   11  A    between atoms: C_18  and  O_34
   12  A    between atoms: C_19  and  C_23
   13  A    between atoms: N_27  and  N_38
                            x       y       z     vdW  Elec       q    Type
                         _______ _______ _______ _____ _____    ______ ____

>  <TORSDO>
F 13

$$$$
