=
 OpenBabel10232411473D

 47 54  0  0  1  0  0  0  0  0999 V2000
  189.1790  175.6190  136.9620 N   0  0  0  0  0  0  0  0  0  0  0  0
  186.4080  174.4620  136.9570 C   0  0  0  0  0  2  0  0  0  0  0  0
  190.1730  176.4830  138.8950 N   0  0  0  0  0  0  0  0  0  0  0  0
  190.5330  174.7890  135.1390 N   0  0  0  0  0  0  0  0  0  0  0  0
  193.7420  174.9010  136.6860 N   0  0  0  0  0  0  0  0  0  0  0  0
  187.2750  171.0080  135.7560 C   0  0  0  0  0  3  0  0  0  0  0  0
  192.8960  174.6870  135.5740 N   0  0  0  0  0  0  0  0  0  0  0  0
  186.5830  172.1100  136.2540 C   0  0  0  0  0  3  0  0  0  0  0  0
  187.1800  173.3760  136.2860 C   0  0  0  0  0  0  0  0  0  0  0  0
  190.3120  175.5720  137.8150 C   0  0  2  0  0  3  0  0  0  0  0  0
  188.4220  176.7450  137.4420 C   0  0  0  0  0  0  0  0  0  0  0  0
  188.9840  177.2120  138.5700 C   0  0  0  0  0  0  0  0  0  0  0  0
  188.4940  173.5570  135.7730 C   0  0  0  0  0  0  0  0  0  0  0  0
  192.8580  175.2840  137.8140 C   0  0  0  0  0  3  0  0  0  0  0  0
  191.1980  176.8870  139.8460 C   0  0  0  0  0  1  0  0  0  0  0  0
  188.5800  171.1560  135.2790 C   0  0  0  0  0  0  0  0  0  0  0  0
  189.1500  174.9290  135.6540 C   0  0  1  0  0  3  0  0  0  0  0  0
  187.1680  177.3150  136.7910 C   0  0  2  0  0  3  0  0  0  0  0  0
  191.4600  175.0880  137.3380 C   0  0  0  0  0  0  0  0  0  0  0  0
  189.1740  172.4260  135.2790 C   0  0  0  0  0  3  0  0  0  0  0  0
  185.7410  175.4000  135.9640 C   0  0  0  0  0  2  0  0  0  0  0  0
  191.5430  174.7330  135.9600 C   0  0  0  0  0  0  0  0  0  0  0  0
  186.6840  176.5350  135.5680 C   0  0  0  0  0  2  0  0  0  0  0  0
  190.6530  169.9720  134.6320 O   0  0  0  0  0  0  0  0  0  0  0  0
  189.9820  167.9540  134.3810 N   0  0  0  0  0  0  0  0  0  0  0  0
  188.9040  168.6920  134.7070 C   0  0  0  0  0  3  0  0  0  0  0  0
  191.0280  168.7690  134.3460 N   0  0  0  0  0  0  0  0  0  0  0  0
  189.3640  169.9840  134.8630 C   0  0  0  0  0  0  0  0  0  0  0  0
  187.1200  179.0430  135.1010 O   0  0  0  0  0  1  0  0  0  0  0  0
  187.2840  178.8040  136.4690 C   0  0  0  0  0  2  0  0  0  0  0  0
  188.5390  178.4240  139.3270 C   0  0  0  0  0  2  0  0  0  0  0  0
  187.1940  178.1400  139.9900 C   0  0  0  0  0  2  0  0  0  0  0  0
  188.5720  178.9230  141.9400 C   0  0  0  0  0  1  0  0  0  0  0  0
  187.2180  178.3870  141.4970 C   0  0  1  0  0  3  0  0  0  0  0  0
  186.2030  179.2910  141.8710 O   0  0  0  0  0  0  0  0  0  0  0  0
  185.8360  178.1490  144.8480 C   0  0  2  0  0  3  0  0  0  0  0  0
  185.9280  177.7180  143.5080 O   0  0  0  0  0  0  0  0  0  0  0  0
  184.5190  179.6360  143.6140 C   0  0  0  0  0  2  0  0  0  0  0  0
  185.2630  179.5390  144.9000 C   0  0  0  0  0  2  0  0  0  0  0  0
  185.2420  178.6520  142.6990 C   0  0  1  0  0  0  0  0  0  0  0  0
  184.2210  177.8860  141.8630 C   0  0  0  0  0  1  0  0  0  0  0  0
  187.1960  178.0920  145.5430 C   0  0  0  0  0  3  0  0  0  0  0  0
  189.4990  177.0690  145.6030 C   0  0  0  0  0  2  0  0  0  0  0  0
  187.0120  177.9650  147.0630 C   0  0  0  0  0  2  0  0  0  0  0  0
  189.4790  177.4160  147.1030 C   0  0  0  0  0  2  0  0  0  0  0  0
  188.1040  176.9910  144.9790 C   0  0  0  0  0  2  0  0  0  0  0  0
  188.1160  177.1430  147.7390 C   0  0  0  0  0  2  0  0  0  0  0  0
  1 11  1  0  0  0  0
  1 10  1  0  0  0  0
  3 15  1  0  0  0  0
  4 22  2  0  0  0  0
  5 14  1  0  0  0  0
  6  8  1  0  0  0  0
  7 22  1  0  0  0  0
  7  5  2  0  0  0  0
  8  9  2  0  0  0  0
  9  2  1  0  0  0  0
 10 19  1  6  0  0  0
 10  3  1  0  0  0  0
 11 12  2  0  0  0  0
 12  3  1  0  0  0  0
 12 31  1  0  0  0  0
 13  9  1  0  0  0  0
 16  6  2  0  0  0  0
 17  4  1  1  0  0  0
 17 13  1  0  0  0  0
 17  1  1  0  0  0  0
 18 30  1  6  0  0  0
 18 11  1  0  0  0  0
 19 14  2  0  0  0  0
 20 16  1  0  0  0  0
 20 13  2  0  0  0  0
 21  2  1  0  0  0  0
 22 19  1  0  0  0  0
 23 21  1  0  0  0  0
 23 18  1  0  0  0  0
 24 28  1  0  0  0  0
 25 26  1  0  0  0  0
 26 28  2  0  0  0  0
 27 25  2  0  0  0  0
 27 24  1  0  0  0  0
 28 16  1  0  0  0  0
 29 30  1  0  0  0  0
 31 32  1  0  0  0  0
 32 34  1  0  0  0  0
 34 35  1  0  0  0  0
 34 33  1  6  0  0  0
 35 40  1  0  0  0  0
 36 39  1  0  0  0  0
 36 42  1  6  0  0  0
 37 36  1  0  0  0  0
 38 39  1  0  0  0  0
 40 41  1  6  0  0  0
 40 37  1  0  0  0  0
 40 38  1  0  0  0  0
 42 44  1  0  0  0  0
 43 45  1  0  0  0  0
 44 47  1  0  0  0  0
 45 47  1  0  0  0  0
 46 42  1  0  0  0  0
 46 43  1  0  0  0  0
M  END
>  <MODEL>
1

>  <REMARK>
 VINA RESULT:      -8.2      0.000      0.000
  Name = 
  8 active torsions:
  status: ('A' for Active; 'I' for Inactive)
    1  A    between atoms: C_4  and  C_6
    2  A    between atoms: C_15  and  O_36
    3  A    between atoms: C_15  and  C_40
    4  A    between atoms: C_22  and  C_24
    5  A    between atoms: C_24  and  C_40
    6  A    between atoms: C_30  and  O_36
    7  A    between atoms: C_31  and  C_35
    8  A    between atoms: C_33  and  C_37
                            x       y       z     vdW  Elec       q    Type
                         _______ _______ _______ _____ _____    ______ ____

>  <TORSDO>
F 8

$$$$
=
 OpenBabel10232411473D

 47 54  0  0  1  0  0  0  0  0999 V2000
  189.3730  176.6940  138.1140 N   0  0  0  0  0  0  0  0  0  0  0  0
  187.1380  174.9950  137.0500 C   0  0  0  0  0  2  0  0  0  0  0  0
  189.5070  177.3250  140.3630 N   0  0  0  0  0  0  0  0  0  0  0  0
  191.3600  176.5790  136.7410 N   0  0  0  0  0  0  0  0  0  0  0  0
  193.8450  177.0500  139.2530 N   0  0  0  0  0  0  0  0  0  0  0  0
  189.2100  172.1430  135.7500 C   0  0  0  0  0  3  0  0  0  0  0  0
  193.4380  176.8990  137.9080 N   0  0  0  0  0  0  0  0  0  0  0  0
  188.1340  172.9390  136.1360 C   0  0  0  0  0  3  0  0  0  0  0  0
  188.3320  174.2680  136.5300 C   0  0  0  0  0  0  0  0  0  0  0  0
  190.1880  176.7130  139.2770 C   0  0  2  0  0  3  0  0  0  0  0  0
  188.2370  177.5040  138.4660 C   0  0  0  0  0  0  0  0  0  0  0  0
  188.3080  177.8320  139.7680 C   0  0  0  0  0  0  0  0  0  0  0  0
  189.6380  174.8310  136.5040 C   0  0  0  0  0  0  0  0  0  0  0  0
  192.6090  176.9880  140.0700 C   0  0  0  0  0  3  0  0  0  0  0  0
  190.0720  177.7300  141.6420 C   0  0  0  0  0  1  0  0  0  0  0  0
  190.5060  172.6650  135.7500 C   0  0  0  0  0  0  0  0  0  0  0  0
  189.9040  176.3060  136.7900 C   0  0  1  0  0  3  0  0  0  0  0  0
  187.1130  177.9140  137.5230 C   0  0  2  0  0  3  0  0  0  0  0  0
  191.5100  176.6000  139.1410 C   0  0  0  0  0  0  0  0  0  0  0  0
  190.7090  174.0040  136.1130 C   0  0  0  0  0  3  0  0  0  0  0  0
  186.5520  175.9560  136.0280 C   0  0  0  0  0  2  0  0  0  0  0  0
  192.0720  176.5700  137.8320 C   0  0  0  0  0  0  0  0  0  0  0  0
  187.2240  177.3240  136.1170 C   0  0  0  0  0  2  0  0  0  0  0  0
  191.6490  170.7410  134.6980 O   0  0  0  0  0  0  0  0  0  0  0  0
  193.6800  170.9990  135.3290 N   0  0  0  0  0  0  0  0  0  0  0  0
  192.9620  171.9940  135.8850 C   0  0  0  0  0  3  0  0  0  0  0  0
  192.8450  170.2570  134.6120 N   0  0  0  0  0  0  0  0  0  0  0  0
  191.6630  171.8040  135.4620 C   0  0  0  0  0  0  0  0  0  0  0  0
  188.0590  180.0770  137.0000 O   0  0  0  0  0  1  0  0  0  0  0  0
  186.9080  179.4270  137.4580 C   0  0  0  0  0  2  0  0  0  0  0  0
  187.3570  178.7320  140.4920 C   0  0  0  0  0  2  0  0  0  0  0  0
  186.5520  177.9120  141.4970 C   0  0  0  0  0  2  0  0  0  0  0  0
  184.3620  178.7290  140.5740 C   0  0  0  0  0  1  0  0  0  0  0  0
  185.2040  178.5490  141.8290 C   0  0  1  0  0  3  0  0  0  0  0  0
  184.4990  177.7660  142.7650 O   0  0  0  0  0  0  0  0  0  0  0  0
  185.1720  178.7300  145.7520 C   0  0  2  0  0  3  0  0  0  0  0  0
  184.2580  177.9310  145.0330 O   0  0  0  0  0  0  0  0  0  0  0  0
  184.6190  179.9610  143.8410 C   0  0  0  0  0  2  0  0  0  0  0  0
  185.6890  179.8330  144.8700 C   0  0  0  0  0  2  0  0  0  0  0  0
  183.9780  178.5770  143.8080 C   0  0  1  0  0  0  0  0  0  0  0  0
  182.4630  178.7190  143.6890 C   0  0  0  0  0  1  0  0  0  0  0  0
  186.3210  177.8930  146.3110 C   0  0  0  0  0  3  0  0  0  0  0  0
  188.0020  177.5780  148.1620 C   0  0  0  0  0  2  0  0  0  0  0  0
  187.3570  177.6100  145.2120 C   0  0  0  0  0  2  0  0  0  0  0  0
  188.8410  176.8350  147.1060 C   0  0  0  0  0  2  0  0  0  0  0  0
  186.9600  178.5200  147.5570 C   0  0  0  0  0  2  0  0  0  0  0  0
  188.7930  177.5260  145.7430 C   0  0  0  0  0  2  0  0  0  0  0  0
  1 11  1  0  0  0  0
  1 10  1  0  0  0  0
  3 15  1  0  0  0  0
  4 17  1  0  0  0  0
  4 22  2  0  0  0  0
  5 14  1  0  0  0  0
  6  8  1  0  0  0  0
  7  5  2  0  0  0  0
  8  9  2  0  0  0  0
  9  2  1  0  0  0  0
 10 19  1  6  0  0  0
 10  3  1  0  0  0  0
 11 12  2  0  0  0  0
 12  3  1  0  0  0  0
 12 31  1  0  0  0  0
 13  9  1  0  0  0  0
 16  6  2  0  0  0  0
 16 20  1  0  0  0  0
 17 13  1  1  0  0  0
 17  1  1  0  0  0  0
 18 30  1  6  0  0  0
 18 11  1  0  0  0  0
 19 14  2  0  0  0  0
 20 13  2  0  0  0  0
 21 23  1  0  0  0  0
 21  2  1  0  0  0  0
 22  7  1  0  0  0  0
 22 19  1  0  0  0  0
 23 18  1  0  0  0  0
 24 28  1  0  0  0  0
 25 26  1  0  0  0  0
 27 24  1  0  0  0  0
 27 25  2  0  0  0  0
 28 16  1  0  0  0  0
 28 26  2  0  0  0  0
 29 30  1  0  0  0  0
 31 32  1  0  0  0  0
 32 34  1  0  0  0  0
 34 33  1  6  0  0  0
 34 35  1  0  0  0  0
 35 40  1  0  0  0  0
 36 42  1  6  0  0  0
 37 36  1  0  0  0  0
 38 39  1  0  0  0  0
 39 36  1  0  0  0  0
 40 41  1  6  0  0  0
 40 38  1  0  0  0  0
 40 37  1  0  0  0  0
 42 46  1  0  0  0  0
 44 47  1  0  0  0  0
 44 42  1  0  0  0  0
 45 43  1  0  0  0  0
 46 43  1  0  0  0  0
 47 45  1  0  0  0  0
M  END
>  <MODEL>
2

>  <REMARK>
 VINA RESULT:      -7.7      1.584      2.347
  Name = 
  8 active torsions:
  status: ('A' for Active; 'I' for Inactive)
    1  A    between atoms: C_4  and  C_6
    2  A    between atoms: C_15  and  O_36
    3  A    between atoms: C_15  and  C_40
    4  A    between atoms: C_22  and  C_24
    5  A    between atoms: C_24  and  C_40
    6  A    between atoms: C_30  and  O_36
    7  A    between atoms: C_31  and  C_35
    8  A    between atoms: C_33  and  C_37
                            x       y       z     vdW  Elec       q    Type
                         _______ _______ _______ _____ _____    ______ ____

>  <TORSDO>
F 8

$$$$
=
 OpenBabel10232411473D

 47 54  0  0  1  0  0  0  0  0999 V2000
  185.6310  176.3120  137.0360 N   0  0  0  0  0  0  0  0  0  0  0  0
  183.4230  174.4610  137.8790 C   0  0  0  0  0  2  0  0  0  0  0  0
  186.8250  177.6180  138.5660 N   0  0  0  0  0  0  0  0  0  0  0  0
  186.6110  175.6810  134.9170 N   0  0  0  0  0  0  0  0  0  0  0  0
  189.9480  176.8190  135.4460 N   0  0  0  0  0  0  0  0  0  0  0  0
  184.8840  171.2570  136.5690 C   0  0  0  0  0  3  0  0  0  0  0  0
  188.9280  176.2650  134.6400 N   0  0  0  0  0  0  0  0  0  0  0  0
  184.0680  172.1800  137.2190 C   0  0  0  0  0  3  0  0  0  0  0  0
  184.2600  173.5560  137.0400 C   0  0  0  0  0  0  0  0  0  0  0  0
  186.9190  176.6650  137.5180 C   0  0  2  0  0  3  0  0  0  0  0  0
  184.7450  177.2400  137.6870 C   0  0  0  0  0  0  0  0  0  0  0  0
  185.4360  177.9610  138.5870 C   0  0  0  0  0  0  0  0  0  0  0  0
  185.2710  174.0250  136.1570 C   0  0  0  0  0  0  0  0  0  0  0  0
  189.3370  177.0720  136.7740 C   0  0  0  0  0  3  0  0  0  0  0  0
  187.9110  178.3840  139.1610 C   0  0  0  0  0  1  0  0  0  0  0  0
  185.9070  171.6950  135.7240 C   0  0  0  0  0  0  0  0  0  0  0  0
  185.4450  175.5010  135.8140 C   0  0  1  0  0  3  0  0  0  0  0  0
  183.2510  177.3770  137.4210 C   0  0  2  0  0  3  0  0  0  0  0  0
  187.9800  176.4570  136.7360 C   0  0  0  0  0  0  0  0  0  0  0  0
  186.0850  173.0710  135.5150 C   0  0  0  0  0  3  0  0  0  0  0  0
  182.2680  175.0710  137.1020 C   0  0  0  0  0  2  0  0  0  0  0  0
  187.7790  175.9890  135.4060 C   0  0  0  0  0  0  0  0  0  0  0  0
  182.6960  176.3670  136.4160 C   0  0  0  0  0  2  0  0  0  0  0  0
  188.0880  170.9990  134.7890 O   0  0  0  0  0  0  0  0  0  0  0  0
  187.7840  168.9170  134.3910 N   0  0  0  0  0  0  0  0  0  0  0  0
  186.6260  169.4000  134.8790 C   0  0  0  0  0  3  0  0  0  0  0  0
  188.6510  169.9200  134.3510 N   0  0  0  0  0  0  0  0  0  0  0  0
  186.8500  170.7390  135.1270 C   0  0  0  0  0  0  0  0  0  0  0  0
  181.8160  179.2720  137.8660 O   0  0  0  0  0  1  0  0  0  0  0  0
  182.8400  178.7980  137.0390 C   0  0  0  0  0  2  0  0  0  0  0  0
  184.8860  179.0850  139.4090 C   0  0  0  0  0  2  0  0  0  0  0  0
  185.1470  178.8040  140.8860 C   0  0  0  0  0  2  0  0  0  0  0  0
  182.7390  178.0850  140.8840 C   0  0  0  0  0  1  0  0  0  0  0  0
  183.8590  178.7110  141.7020 C   0  0  1  0  0  3  0  0  0  0  0  0
  184.0660  177.9600  142.8780 O   0  0  0  0  0  0  0  0  0  0  0  0
  184.9910  178.7720  145.8420 C   0  0  2  0  0  3  0  0  0  0  0  0
  184.0470  177.9720  145.1640 O   0  0  0  0  0  0  0  0  0  0  0  0
  184.1950  180.0880  144.0800 C   0  0  0  0  0  2  0  0  0  0  0  0
  185.3670  179.9530  144.9890 C   0  0  0  0  0  2  0  0  0  0  0  0
  183.6170  178.6770  144.0170 C   0  0  1  0  0  0  0  0  0  0  0  0
  182.0920  178.7480  144.0560 C   0  0  0  0  0  1  0  0  0  0  0  0
  186.2270  177.9620  146.2290 C   0  0  0  0  0  3  0  0  0  0  0  0
  188.1420  177.6670  147.8420 C   0  0  0  0  0  2  0  0  0  0  0  0
  187.1210  177.7340  145.0010 C   0  0  0  0  0  2  0  0  0  0  0  0
  188.8600  176.9720  146.6700 C   0  0  0  0  0  2  0  0  0  0  0  0
  187.0030  178.5860  147.3970 C   0  0  0  0  0  2  0  0  0  0  0  0
  188.6160  177.6870  145.3410 C   0  0  0  0  0  2  0  0  0  0  0  0
  1 10  1  0  0  0  0
  1 11  1  0  0  0  0
  3 12  1  0  0  0  0
  3 15  1  0  0  0  0
  4 22  2  0  0  0  0
  5 14  1  0  0  0  0
  6  8  1  0  0  0  0
  7 22  1  0  0  0  0
  7  5  2  0  0  0  0
  9  8  2  0  0  0  0
  9  2  1  0  0  0  0
 10 19  1  6  0  0  0
 10  3  1  0  0  0  0
 11 12  2  0  0  0  0
 12 31  1  0  0  0  0
 13  9  1  0  0  0  0
 16  6  2  0  0  0  0
 17  4  1  6  0  0  0
 17 13  1  0  0  0  0
 17  1  1  0  0  0  0
 18 30  1  6  0  0  0
 18 11  1  0  0  0  0
 19 14  2  0  0  0  0
 20 16  1  0  0  0  0
 20 13  2  0  0  0  0
 21  2  1  0  0  0  0
 22 19  1  0  0  0  0
 23 21  1  0  0  0  0
 23 18  1  0  0  0  0
 24 28  1  0  0  0  0
 25 26  1  0  0  0  0
 26 28  2  0  0  0  0
 27 25  2  0  0  0  0
 27 24  1  0  0  0  0
 28 16  1  0  0  0  0
 30 29  1  0  0  0  0
 31 32  1  0  0  0  0
 32 34  1  0  0  0  0
 34 33  1  6  0  0  0
 34 35  1  0  0  0  0
 35 40  1  0  0  0  0
 36 42  1  6  0  0  0
 37 36  1  0  0  0  0
 38 39  1  0  0  0  0
 39 36  1  0  0  0  0
 40 41  1  6  0  0  0
 40 38  1  0  0  0  0
 40 37  1  0  0  0  0
 42 46  1  0  0  0  0
 44 47  1  0  0  0  0
 44 42  1  0  0  0  0
 45 43  1  0  0  0  0
 46 43  1  0  0  0  0
 47 45  1  0  0  0  0
M  END
>  <MODEL>
3

>  <REMARK>
 VINA RESULT:      -7.4      2.312      3.320
  Name = 
  8 active torsions:
  status: ('A' for Active; 'I' for Inactive)
    1  A    between atoms: C_4  and  C_6
    2  A    between atoms: C_15  and  O_36
    3  A    between atoms: C_15  and  C_40
    4  A    between atoms: C_22  and  C_24
    5  A    between atoms: C_24  and  C_40
    6  A    between atoms: C_30  and  O_36
    7  A    between atoms: C_31  and  C_35
    8  A    between atoms: C_33  and  C_37
                            x       y       z     vdW  Elec       q    Type
                         _______ _______ _______ _____ _____    ______ ____

>  <TORSDO>
F 8

$$$$
=
 OpenBabel10232411473D

 47 54  0  0  1  0  0  0  0  0999 V2000
  186.4710  176.4480  137.3290 N   0  0  0  0  0  0  0  0  0  0  0  0
  188.4840  177.8080  139.0930 C   0  0  0  0  0  2  0  0  0  0  0  0
  186.6370  174.1880  136.7480 N   0  0  0  0  0  0  0  0  0  0  0  0
  184.3300  177.5720  137.3280 N   0  0  0  0  0  0  0  0  0  0  0  0
  182.1890  174.7690  136.8150 N   0  0  0  0  0  0  0  0  0  0  0  0
  186.1470  178.9010  141.8250 C   0  0  0  0  0  3  0  0  0  0  0  0
  182.4240  176.1560  136.9510 N   0  0  0  0  0  0  0  0  0  0  0  0
  187.2960  178.6330  141.0830 C   0  0  0  0  0  3  0  0  0  0  0  0
  187.2050  178.1920  139.7580 C   0  0  0  0  0  0  0  0  0  0  0  0
  185.8040  175.1950  137.3040 C   0  0  2  0  0  3  0  0  0  0  0  0
  187.6760  176.2220  136.5760 C   0  0  0  0  0  0  0  0  0  0  0  0
  187.7760  174.9150  136.2760 C   0  0  0  0  0  0  0  0  0  0  0  0
  185.9320  178.0500  139.1400 C   0  0  0  0  0  0  0  0  0  0  0  0
  183.5110  174.1090  136.9480 C   0  0  0  0  0  3  0  0  0  0  0  0
  186.2480  172.8430  136.3500 C   0  0  0  0  0  1  0  0  0  0  0  0
  184.8850  178.7340  141.2500 C   0  0  0  0  0  0  0  0  0  0  0  0
  185.7680  177.7060  137.6630 C   0  0  1  0  0  3  0  0  0  0  0  0
  188.6950  177.2860  136.1900 C   0  0  2  0  0  3  0  0  0  0  0  0
  184.4720  175.1720  137.3590 C   0  0  0  0  0  0  0  0  0  0  0  0
  184.7860  178.3230  139.9120 C   0  0  0  0  0  3  0  0  0  0  0  0
  188.9850  178.8750  138.1340 C   0  0  0  0  0  2  0  0  0  0  0  0
  183.7550  176.4030  137.3340 C   0  0  0  0  0  0  0  0  0  0  0  0
  188.3890  178.6800  136.7410 C   0  0  0  0  0  2  0  0  0  0  0  0
  182.4400  178.8780  141.5940 O   0  0  0  0  0  0  0  0  0  0  0  0
  182.2770  179.0840  143.7190 N   0  0  0  0  0  0  0  0  0  0  0  0
  183.5900  179.0300  143.4260 C   0  0  0  0  0  3  0  0  0  0  0  0
  181.6080  178.9880  142.5770 N   0  0  0  0  0  0  0  0  0  0  0  0
  183.6650  178.8960  142.0550 C   0  0  0  0  0  0  0  0  0  0  0  0
  190.3280  177.3620  134.4080 O   0  0  0  0  0  1  0  0  0  0  0  0
  188.9570  177.3470  134.6860 C   0  0  0  0  0  2  0  0  0  0  0  0
  188.8470  174.2950  135.4350 C   0  0  0  0  0  2  0  0  0  0  0  0
  189.7410  173.4260  136.3140 C   0  0  0  0  0  2  0  0  0  0  0  0
  191.6410  173.0030  134.7250 C   0  0  0  0  0  1  0  0  0  0  0  0
  191.2280  173.6460  136.0410 C   0  0  1  0  0  3  0  0  0  0  0  0
  191.5310  175.0230  136.0120 O   0  0  0  0  0  0  0  0  0  0  0  0
  194.1940  174.1000  137.5480 C   0  0  2  0  0  3  0  0  0  0  0  0
  192.7960  174.1830  137.7220 O   0  0  0  0  0  0  0  0  0  0  0  0
  193.5730  176.1870  136.6960 C   0  0  0  0  0  2  0  0  0  0  0  0
  194.6550  175.1690  136.5960 C   0  0  0  0  0  2  0  0  0  0  0  0
  192.3490  175.3790  137.1170 C   0  0  1  0  0  0  0  0  0  0  0  0
  191.5540  176.1620  138.1590 C   0  0  0  0  0  1  0  0  0  0  0  0
  194.6100  172.7140  137.0580 C   0  0  0  0  0  3  0  0  0  0  0  0
  195.6980  170.5110  137.6210 C   0  0  0  0  0  2  0  0  0  0  0  0
  195.3430  172.8230  135.7120 C   0  0  0  0  0  2  0  0  0  0  0  0
  195.9990  170.4160  136.1130 C   0  0  0  0  0  2  0  0  0  0  0  0
  195.4310  171.9390  138.0980 C   0  0  0  0  0  2  0  0  0  0  0  0
  196.4320  171.7600  135.5280 C   0  0  0  0  0  2  0  0  0  0  0  0
  1 17  1  0  0  0  0
  2  9  1  0  0  0  0
  3 10  1  0  0  0  0
  4 22  2  0  0  0  0
  5 14  1  0  0  0  0
  5  7  2  0  0  0  0
  7 22  1  0  0  0  0
  8  6  2  0  0  0  0
  9  8  1  0  0  0  0
 10  1  1  0  0  0  0
 10 19  1  6  0  0  0
 11  1  1  0  0  0  0
 12 11  2  0  0  0  0
 12  3  1  0  0  0  0
 13  9  2  0  0  0  0
 13 20  1  0  0  0  0
 14 19  2  0  0  0  0
 15  3  1  0  0  0  0
 16  6  1  0  0  0  0
 16 28  1  0  0  0  0
 17  4  1  1  0  0  0
 17 13  1  0  0  0  0
 18 30  1  6  0  0  0
 18 11  1  0  0  0  0
 18 23  1  0  0  0  0
 20 16  2  0  0  0  0
 21  2  1  0  0  0  0
 22 19  1  0  0  0  0
 23 21  1  0  0  0  0
 24 28  1  0  0  0  0
 24 27  1  0  0  0  0
 26 25  1  0  0  0  0
 27 25  2  0  0  0  0
 28 26  2  0  0  0  0
 29 30  1  0  0  0  0
 31 12  1  0  0  0  0
 31 32  1  0  0  0  0
 34 33  1  6  0  0  0
 34 32  1  0  0  0  0
 35 34  1  0  0  0  0
 35 40  1  0  0  0  0
 36 42  1  6  0  0  0
 36 37  1  0  0  0  0
 38 40  1  0  0  0  0
 39 38  1  0  0  0  0
 39 36  1  0  0  0  0
 40 37  1  0  0  0  0
 40 41  1  1  0  0  0
 42 46  1  0  0  0  0
 43 46  1  0  0  0  0
 44 42  1  0  0  0  0
 45 43  1  0  0  0  0
 47 44  1  0  0  0  0
 47 45  1  0  0  0  0
M  END
>  <MODEL>
4

>  <REMARK>
 VINA RESULT:      -7.3      3.656      9.668
  Name = 
  8 active torsions:
  status: ('A' for Active; 'I' for Inactive)
    1  A    between atoms: C_4  and  C_6
    2  A    between atoms: C_15  and  O_36
    3  A    between atoms: C_15  and  C_40
    4  A    between atoms: C_22  and  C_24
    5  A    between atoms: C_24  and  C_40
    6  A    between atoms: C_30  and  O_36
    7  A    between atoms: C_31  and  C_35
    8  A    between atoms: C_33  and  C_37
                            x       y       z     vdW  Elec       q    Type
                         _______ _______ _______ _____ _____    ______ ____

>  <TORSDO>
F 8

$$$$
=
 OpenBabel10232411473D

 47 54  0  0  1  0  0  0  0  0999 V2000
  186.2450  177.7080  138.4830 N   0  0  0  0  0  0  0  0  0  0  0  0
  188.7580  176.9670  139.9500 C   0  0  0  0  0  2  0  0  0  0  0  0
  185.1240  176.2090  137.0800 N   0  0  0  0  0  0  0  0  0  0  0  0
  185.0640  179.5380  139.5330 N   0  0  0  0  0  0  0  0  0  0  0  0
  181.7200  178.6620  138.6660 N   0  0  0  0  0  0  0  0  0  0  0  0
  187.5300  177.5710  143.4500 C   0  0  0  0  0  3  0  0  0  0  0  0
  182.6780  179.5310  139.2340 N   0  0  0  0  0  0  0  0  0  0  0  0
  188.3090  177.1920  142.3590 C   0  0  0  0  0  3  0  0  0  0  0  0
  187.9290  177.5300  141.0550 C   0  0  0  0  0  0  0  0  0  0  0  0
  185.0030  177.0850  138.1900 C   0  0  2  0  0  3  0  0  0  0  0  0
  187.0930  177.3390  137.3810 C   0  0  0  0  0  0  0  0  0  0  0  0
  186.4510  176.4530  136.6000 C   0  0  0  0  0  0  0  0  0  0  0  0
  186.7550  178.3020  140.8330 C   0  0  0  0  0  0  0  0  0  0  0  0
  182.4740  177.4940  138.1470 C   0  0  0  0  0  3  0  0  0  0  0  0
  184.0470  175.5650  136.3420 C   0  0  0  0  0  1  0  0  0  0  0  0
  186.3540  178.3000  143.2530 C   0  0  0  0  0  0  0  0  0  0  0  0
  186.3570  178.8180  139.4540 C   0  0  1  0  0  3  0  0  0  0  0  0
  188.5070  177.8510  137.1390 C   0  0  2  0  0  3  0  0  0  0  0  0
  183.8770  177.6550  138.6220 C   0  0  0  0  0  0  0  0  0  0  0  0
  185.9820  178.6700  141.9520 C   0  0  0  0  0  3  0  0  0  0  0  0
  189.7110  177.9920  139.3570 C   0  0  0  0  0  2  0  0  0  0  0  0
  183.9460  178.9220  139.2710 C   0  0  0  0  0  0  0  0  0  0  0  0
  189.0370  178.7780  138.2340 C   0  0  0  0  0  2  0  0  0  0  0  0
  185.8240  178.7020  145.6350 O   0  0  0  0  0  0  0  0  0  0  0  0
  183.7330  179.1640  145.5780 N   0  0  0  0  0  0  0  0  0  0  0  0
  184.1140  178.8940  144.3150 C   0  0  0  0  0  3  0  0  0  0  0  0
  184.8030  179.0370  146.3540 N   0  0  0  0  0  0  0  0  0  0  0  0
  185.4610  178.6020  144.3810 C   0  0  0  0  0  0  0  0  0  0  0  0
  189.7290  177.8840  135.0530 O   0  0  0  0  0  1  0  0  0  0  0  0
  188.6860  178.4880  135.7620 C   0  0  0  0  0  2  0  0  0  0  0  0
  186.9680  175.8920  135.3130 C   0  0  0  0  0  2  0  0  0  0  0  0
  185.9620  174.8880  134.7590 C   0  0  0  0  0  2  0  0  0  0  0  0
  185.4090  172.4710  134.3480 C   0  0  0  0  0  1  0  0  0  0  0  0
  186.3750  173.4390  135.0160 C   0  0  1  0  0  3  0  0  0  0  0  0
  187.6840  173.2030  134.5500 O   0  0  0  0  0  0  0  0  0  0  0  0
  190.3030  173.1740  136.4060 C   0  0  2  0  0  3  0  0  0  0  0  0
  189.7730  172.5800  135.2410 O   0  0  0  0  0  0  0  0  0  0  0  0
  188.0750  172.6740  136.9080 C   0  0  0  0  0  2  0  0  0  0  0  0
  189.1860  173.5710  137.3310 C   0  0  0  0  0  2  0  0  0  0  0  0
  188.3920  172.3620  135.4490 C   0  0  1  0  0  0  0  0  0  0  0  0
  188.1030  170.8900  135.1660 C   0  0  0  0  0  1  0  0  0  0  0  0
  191.1830  174.3750  136.0630 C   0  0  0  0  0  3  0  0  0  0  0  0
  193.4110  175.1900  135.2120 C   0  0  0  0  0  2  0  0  0  0  0  0
  191.1560  175.3980  137.2090 C   0  0  0  0  0  2  0  0  0  0  0  0
  193.1130  176.4680  136.0190 C   0  0  0  0  0  2  0  0  0  0  0  0
  192.6150  173.9730  135.6850 C   0  0  0  0  0  2  0  0  0  0  0  0
  192.4790  176.1560  137.3750 C   0  0  0  0  0  2  0  0  0  0  0  0
  1 17  1  0  0  0  0
  2  9  1  0  0  0  0
  3 10  1  0  0  0  0
  5  7  2  0  0  0  0
  7 22  1  0  0  0  0
  8  6  2  0  0  0  0
  9  8  1  0  0  0  0
 10  1  1  0  0  0  0
 10 19  1  6  0  0  0
 11  1  1  0  0  0  0
 12  3  1  0  0  0  0
 12 11  2  0  0  0  0
 13  9  2  0  0  0  0
 13 20  1  0  0  0  0
 14 19  2  0  0  0  0
 14  5  1  0  0  0  0
 15  3  1  0  0  0  0
 16  6  1  0  0  0  0
 16 28  1  0  0  0  0
 17  4  1  1  0  0  0
 17 13  1  0  0  0  0
 18 30  1  6  0  0  0
 18 11  1  0  0  0  0
 18 23  1  0  0  0  0
 19 22  1  0  0  0  0
 20 16  2  0  0  0  0
 21  2  1  0  0  0  0
 22  4  2  0  0  0  0
 23 21  1  0  0  0  0
 24 27  1  0  0  0  0
 25 27  2  0  0  0  0
 26 28  2  0  0  0  0
 26 25  1  0  0  0  0
 28 24  1  0  0  0  0
 29 30  1  0  0  0  0
 31 12  1  0  0  0  0
 32 34  1  0  0  0  0
 32 31  1  0  0  0  0
 34 33  1  6  0  0  0
 35 34  1  0  0  0  0
 35 40  1  0  0  0  0
 36 42  1  6  0  0  0
 36 39  1  0  0  0  0
 37 40  1  0  0  0  0
 37 36  1  0  0  0  0
 38 39  1  0  0  0  0
 40 41  1  6  0  0  0
 40 38  1  0  0  0  0
 42 44  1  0  0  0  0
 43 46  1  0  0  0  0
 43 45  1  0  0  0  0
 44 47  1  0  0  0  0
 45 47  1  0  0  0  0
 46 42  1  0  0  0  0
M  END
>  <MODEL>
5

>  <REMARK>
 VINA RESULT:      -6.8      3.408      9.587
  Name = 
  8 active torsions:
  status: ('A' for Active; 'I' for Inactive)
    1  A    between atoms: C_4  and  C_6
    2  A    between atoms: C_15  and  O_36
    3  A    between atoms: C_15  and  C_40
    4  A    between atoms: C_22  and  C_24
    5  A    between atoms: C_24  and  C_40
    6  A    between atoms: C_30  and  O_36
    7  A    between atoms: C_31  and  C_35
    8  A    between atoms: C_33  and  C_37
                            x       y       z     vdW  Elec       q    Type
                         _______ _______ _______ _____ _____    ______ ____

>  <TORSDO>
F 8

$$$$
=
 OpenBabel10232411473D

 47 54  0  0  1  0  0  0  0  0999 V2000
  186.2850  177.6090  138.2340 N   0  0  0  0  0  0  0  0  0  0  0  0
  188.7860  177.1500  139.8310 C   0  0  0  0  0  2  0  0  0  0  0  0
  185.3530  175.9600  136.8610 N   0  0  0  0  0  0  0  0  0  0  0  0
  184.9130  179.3770  139.1490 N   0  0  0  0  0  0  0  0  0  0  0  0
  181.6930  178.1830  138.1950 N   0  0  0  0  0  0  0  0  0  0  0  0
  187.3640  177.8020  143.2470 C   0  0  0  0  0  3  0  0  0  0  0  0
  182.5500  179.1550  138.7580 N   0  0  0  0  0  0  0  0  0  0  0  0
  188.2180  177.4430  142.2070 C   0  0  0  0  0  3  0  0  0  0  0  0
  187.8660  177.6890  140.8740 C   0  0  0  0  0  0  0  0  0  0  0  0
  185.1120  176.8710  137.9230 C   0  0  2  0  0  3  0  0  0  0  0  0
  187.2070  177.2650  137.1840 C   0  0  0  0  0  0  0  0  0  0  0  0
  186.6750  176.2950  136.4220 C   0  0  0  0  0  0  0  0  0  0  0  0
  186.6430  178.3480  140.5710 C   0  0  0  0  0  0  0  0  0  0  0  0
  182.5620  177.0610  137.7620 C   0  0  0  0  0  3  0  0  0  0  0  0
  184.3660  175.1950  136.1130 C   0  0  0  0  0  1  0  0  0  0  0  0
  186.1410  178.4180  142.9710 C   0  0  0  0  0  0  0  0  0  0  0  0
  186.2630  178.7670  139.1540 C   0  0  1  0  0  3  0  0  0  0  0  0
  188.5830  177.8850  136.9740 C   0  0  2  0  0  3  0  0  0  0  0  0
  183.9260  177.3620  138.2830 C   0  0  0  0  0  0  0  0  0  0  0  0
  185.7950  178.6980  141.6400 C   0  0  0  0  0  3  0  0  0  0  0  0
  189.6750  178.2250  139.2270 C   0  0  0  0  0  2  0  0  0  0  0  0
  183.8620  178.6580  138.8730 C   0  0  0  0  0  0  0  0  0  0  0  0
  188.9860  178.9010  138.0430 C   0  0  0  0  0  2  0  0  0  0  0  0
  183.9370  179.0750  143.8800 O   0  0  0  0  0  0  0  0  0  0  0  0
  184.2150  178.8480  145.9920 N   0  0  0  0  0  0  0  0  0  0  0  0
  185.3860  178.5410  145.4030 C   0  0  0  0  0  3  0  0  0  0  0  0
  183.3560  179.1680  145.0320 N   0  0  0  0  0  0  0  0  0  0  0  0
  185.1780  178.6940  144.0470 C   0  0  0  0  0  0  0  0  0  0  0  0
  189.6800  177.7260  134.8240 O   0  0  0  0  0  1  0  0  0  0  0  0
  188.7660  178.4730  135.5760 C   0  0  0  0  0  2  0  0  0  0  0  0
  187.2910  175.7230  135.1840 C   0  0  0  0  0  2  0  0  0  0  0  0
  187.5070  174.2240  135.3730 C   0  0  0  0  0  2  0  0  0  0  0  0
  188.5150  172.5750  136.9780 C   0  0  0  0  0  1  0  0  0  0  0  0
  188.7010  173.9110  136.2730 C   0  0  1  0  0  3  0  0  0  0  0  0
  189.8970  173.8930  135.5280 O   0  0  0  0  0  0  0  0  0  0  0  0
  193.0740  173.6280  135.9040 C   0  0  2  0  0  3  0  0  0  0  0  0
  191.8610  173.3780  136.5800 O   0  0  0  0  0  0  0  0  0  0  0  0
  191.7370  175.5080  135.5210 C   0  0  0  0  0  2  0  0  0  0  0  0
  192.8980  174.7750  134.9460 C   0  0  0  0  0  2  0  0  0  0  0  0
  190.9690  174.4340  136.2860 C   0  0  1  0  0  0  0  0  0  0  0  0
  190.4700  175.0080  137.6100 C   0  0  0  0  0  1  0  0  0  0  0  0
  193.5700  172.3790  135.1770 C   0  0  0  0  0  3  0  0  0  0  0  0
  193.1560  169.9590  134.6080 C   0  0  0  0  0  2  0  0  0  0  0  0
  195.0540  172.1350  135.4900 C   0  0  0  0  0  2  0  0  0  0  0  0
  194.6850  169.8640  134.4440 C   0  0  0  0  0  2  0  0  0  0  0  0
  192.7100  171.1420  135.4680 C   0  0  0  0  0  2  0  0  0  0  0  0
  195.4280  170.6490  135.5250 C   0  0  0  0  0  2  0  0  0  0  0  0
  1 17  1  0  0  0  0
  2  9  1  0  0  0  0
  3 10  1  0  0  0  0
  5  7  2  0  0  0  0
  7 22  1  0  0  0  0
  8  6  2  0  0  0  0
  9  8  1  0  0  0  0
 10  1  1  0  0  0  0
 10 19  1  6  0  0  0
 11  1  1  0  0  0  0
 12  3  1  0  0  0  0
 12 11  2  0  0  0  0
 13  9  2  0  0  0  0
 13 20  1  0  0  0  0
 14  5  1  0  0  0  0
 14 19  2  0  0  0  0
 15  3  1  0  0  0  0
 16  6  1  0  0  0  0
 16 28  1  0  0  0  0
 17  4  1  1  0  0  0
 17 13  1  0  0  0  0
 18 30  1  6  0  0  0
 18 11  1  0  0  0  0
 18 23  1  0  0  0  0
 19 22  1  0  0  0  0
 20 16  2  0  0  0  0
 21  2  1  0  0  0  0
 22  4  2  0  0  0  0
 23 21  1  0  0  0  0
 24 28  1  0  0  0  0
 24 27  1  0  0  0  0
 26 25  1  0  0  0  0
 27 25  2  0  0  0  0
 28 26  2  0  0  0  0
 29 30  1  0  0  0  0
 31 32  1  0  0  0  0
 31 12  1  0  0  0  0
 32 34  1  0  0  0  0
 34 33  1  6  0  0  0
 35 34  1  0  0  0  0
 35 40  1  0  0  0  0
 36 42  1  6  0  0  0
 36 37  1  0  0  0  0
 38 40  1  0  0  0  0
 39 38  1  0  0  0  0
 39 36  1  0  0  0  0
 40 37  1  0  0  0  0
 40 41  1  1  0  0  0
 42 46  1  0  0  0  0
 42 44  1  0  0  0  0
 43 46  1  0  0  0  0
 44 47  1  0  0  0  0
 45 43  1  0  0  0  0
 45 47  1  0  0  0  0
M  END
>  <MODEL>
6

>  <REMARK>
 VINA RESULT:      -6.6      3.636     10.061
  Name = 
  8 active torsions:
  status: ('A' for Active; 'I' for Inactive)
    1  A    between atoms: C_4  and  C_6
    2  A    between atoms: C_15  and  O_36
    3  A    between atoms: C_15  and  C_40
    4  A    between atoms: C_22  and  C_24
    5  A    between atoms: C_24  and  C_40
    6  A    between atoms: C_30  and  O_36
    7  A    between atoms: C_31  and  C_35
    8  A    between atoms: C_33  and  C_37
                            x       y       z     vdW  Elec       q    Type
                         _______ _______ _______ _____ _____    ______ ____

>  <TORSDO>
F 8

$$$$
=
 OpenBabel10232411473D

 47 54  0  0  1  0  0  0  0  0999 V2000
  189.1240  176.9990  139.3790 N   0  0  0  0  0  0  0  0  0  0  0  0
  191.4830  177.9910  140.9490 C   0  0  0  0  0  2  0  0  0  0  0  0
  187.3560  178.3980  138.7540 N   0  0  0  0  0  0  0  0  0  0  0  0
  189.6270  175.0000  138.1150 N   0  0  0  0  0  0  0  0  0  0  0  0
  187.4410  175.4880  135.3420 N   0  0  0  0  0  0  0  0  0  0  0  0
  194.1750  177.1130  138.4790 C   0  0  0  0  0  3  0  0  0  0  0  0
  188.3690  174.7230  136.0830 N   0  0  0  0  0  0  0  0  0  0  0  0
  193.4960  177.6250  139.5830 C   0  0  0  0  0  3  0  0  0  0  0  0
  192.1580  177.2900  139.8190 C   0  0  0  0  0  0  0  0  0  0  0  0
  188.3340  177.4730  138.2990 C   0  0  2  0  0  3  0  0  0  0  0  0
  188.4640  177.5100  140.5510 C   0  0  0  0  0  0  0  0  0  0  0  0
  187.4720  178.3370  140.1800 C   0  0  0  0  0  0  0  0  0  0  0  0
  191.4850  176.3880  138.9490 C   0  0  0  0  0  0  0  0  0  0  0  0
  187.2580  176.7580  136.0860 C   0  0  0  0  0  3  0  0  0  0  0  0
  186.2280  178.9300  138.0030 C   0  0  0  0  0  1  0  0  0  0  0  0
  193.5240  176.2530  137.5910 C   0  0  0  0  0  0  0  0  0  0  0  0
  190.0750  175.8770  139.2220 C   0  0  1  0  0  3  0  0  0  0  0  0
  188.8360  177.1850  141.9920 C   0  0  2  0  0  3  0  0  0  0  0  0
  188.2730  176.7540  137.1780 C   0  0  0  0  0  0  0  0  0  0  0  0
  192.1930  175.8870  137.8380 C   0  0  0  0  0  3  0  0  0  0  0  0
  191.3540  177.1130  142.1840 C   0  0  0  0  0  2  0  0  0  0  0  0
  188.9160  175.4820  137.1350 C   0  0  0  0  0  0  0  0  0  0  0  0
  190.0680  176.2910  142.1380 C   0  0  0  0  0  2  0  0  0  0  0  0
  195.3760  176.1740  135.9540 O   0  0  0  0  0  0  0  0  0  0  0  0
  194.6830  174.7330  134.5300 N   0  0  0  0  0  0  0  0  0  0  0  0
  193.7160  174.8710  135.4570 C   0  0  0  0  0  3  0  0  0  0  0  0
  195.6780  175.5420  134.8670 N   0  0  0  0  0  0  0  0  0  0  0  0
  194.1880  175.8010  136.3600 C   0  0  0  0  0  0  0  0  0  0  0  0
  187.9760  175.3750  143.3460 O   0  0  0  0  0  1  0  0  0  0  0  0
  187.6670  176.6250  142.8010 C   0  0  0  0  0  2  0  0  0  0  0  0
  186.5020  179.0040  141.1050 C   0  0  0  0  0  2  0  0  0  0  0  0
  185.1070  178.4300  140.8740 C   0  0  0  0  0  2  0  0  0  0  0  0
  182.6870  178.6220  141.5210 C   0  0  0  0  0  1  0  0  0  0  0  0
  184.1250  178.8090  141.9810 C   0  0  1  0  0  3  0  0  0  0  0  0
  184.3580  178.0380  143.1390 O   0  0  0  0  0  0  0  0  0  0  0  0
  185.2730  178.7700  146.1270 C   0  0  2  0  0  3  0  0  0  0  0  0
  184.3320  177.9870  145.4250 O   0  0  0  0  0  0  0  0  0  0  0  0
  184.4800  180.1320  144.4000 C   0  0  0  0  0  2  0  0  0  0  0  0
  185.6500  179.9740  145.3080 C   0  0  0  0  0  2  0  0  0  0  0  0
  183.9040  178.7230  144.2970 C   0  0  1  0  0  0  0  0  0  0  0  0
  182.3790  178.7900  144.3330 C   0  0  0  0  0  1  0  0  0  0  0  0
  186.5090  177.9510  146.4960 C   0  0  0  0  0  3  0  0  0  0  0  0
  188.2330  177.3980  148.2500 C   0  0  0  0  0  2  0  0  0  0  0  0
  187.5590  178.0380  145.3770 C   0  0  0  0  0  2  0  0  0  0  0  0
  189.1350  177.0080  147.0630 C   0  0  0  0  0  2  0  0  0  0  0  0
  187.0920  178.3390  147.8620 C   0  0  0  0  0  2  0  0  0  0  0  0
  189.0010  177.9850  145.8950 C   0  0  0  0  0  2  0  0  0  0  0  0
  1 11  1  0  0  0  0
  2 21  1  0  0  0  0
  3 12  1  0  0  0  0
  5  7  2  0  0  0  0
  5 14  1  0  0  0  0
  6  8  1  0  0  0  0
  7 22  1  0  0  0  0
  8  9  2  0  0  0  0
  9  2  1  0  0  0  0
 10 19  1  1  0  0  0
 10  3  1  0  0  0  0
 10  1  1  0  0  0  0
 11 18  1  0  0  0  0
 12 11  2  0  0  0  0
 12 31  1  0  0  0  0
 13 17  1  0  0  0  0
 13  9  1  0  0  0  0
 14 19  2  0  0  0  0
 15  3  1  0  0  0  0
 16 20  1  0  0  0  0
 16  6  2  0  0  0  0
 17  4  1  6  0  0  0
 17  1  1  0  0  0  0
 18 23  1  0  0  0  0
 18 30  1  6  0  0  0
 20 13  2  0  0  0  0
 22 19  1  0  0  0  0
 22  4  2  0  0  0  0
 23 21  1  0  0  0  0
 24 28  1  0  0  0  0
 25 27  2  0  0  0  0
 25 26  1  0  0  0  0
 26 28  2  0  0  0  0
 27 24  1  0  0  0  0
 28 16  1  0  0  0  0
 30 29  1  0  0  0  0
 32 31  1  0  0  0  0
 32 34  1  0  0  0  0
 34 33  1  6  0  0  0
 34 35  1  0  0  0  0
 35 40  1  0  0  0  0
 36 42  1  6  0  0  0
 37 36  1  0  0  0  0
 38 39  1  0  0  0  0
 39 36  1  0  0  0  0
 40 41  1  6  0  0  0
 40 38  1  0  0  0  0
 40 37  1  0  0  0  0
 42 46  1  0  0  0  0
 44 47  1  0  0  0  0
 44 42  1  0  0  0  0
 45 43  1  0  0  0  0
 46 43  1  0  0  0  0
 47 45  1  0  0  0  0
M  END
>  <MODEL>
7

>  <REMARK>
 VINA RESULT:      -6.4      3.215      5.345
  Name = 
  8 active torsions:
  status: ('A' for Active; 'I' for Inactive)
    1  A    between atoms: C_4  and  C_6
    2  A    between atoms: C_15  and  O_36
    3  A    between atoms: C_15  and  C_40
    4  A    between atoms: C_22  and  C_24
    5  A    between atoms: C_24  and  C_40
    6  A    between atoms: C_30  and  O_36
    7  A    between atoms: C_31  and  C_35
    8  A    between atoms: C_33  and  C_37
                            x       y       z     vdW  Elec       q    Type
                         _______ _______ _______ _____ _____    ______ ____

>  <TORSDO>
F 8

$$$$
=
 OpenBabel10232411473D

 47 54  0  0  1  0  0  0  0  0999 V2000
  189.2260  175.5630  137.1550 N   0  0  0  0  0  0  0  0  0  0  0  0
  191.6360  177.2060  137.8660 C   0  0  0  0  0  2  0  0  0  0  0  0
  187.4860  176.3980  135.8330 N   0  0  0  0  0  0  0  0  0  0  0  0
  189.6540  173.1870  137.2810 N   0  0  0  0  0  0  0  0  0  0  0  0
  187.4360  172.0490  134.7330 N   0  0  0  0  0  0  0  0  0  0  0  0
  194.2620  174.9780  136.3640 C   0  0  0  0  0  3  0  0  0  0  0  0
  188.3560  171.8260  135.7820 N   0  0  0  0  0  0  0  0  0  0  0  0
  193.6160  176.0540  136.9670 C   0  0  0  0  0  3  0  0  0  0  0  0
  192.2730  175.9600  137.3510 C   0  0  0  0  0  0  0  0  0  0  0  0
  188.4300  175.3500  135.9990 C   0  0  2  0  0  3  0  0  0  0  0  0
  188.5990  176.6780  137.8140 C   0  0  0  0  0  0  0  0  0  0  0  0
  187.6230  177.1690  137.0310 C   0  0  0  0  0  0  0  0  0  0  0  0
  191.5620  174.7420  137.1620 C   0  0  0  0  0  0  0  0  0  0  0  0
  187.2990  173.5210  134.6060 C   0  0  0  0  0  3  0  0  0  0  0  0
  186.3600  176.4330  134.9110 C   0  0  0  0  0  1  0  0  0  0  0  0
  193.5740  173.7830  136.1360 C   0  0  0  0  0  0  0  0  0  0  0  0
  190.1430  174.5280  137.6780 C   0  0  1  0  0  3  0  0  0  0  0  0
  188.9870  177.2350  139.1780 C   0  0  2  0  0  3  0  0  0  0  0  0
  188.3320  174.1170  135.5000 C   0  0  0  0  0  0  0  0  0  0  0  0
  192.2370  173.6690  136.5460 C   0  0  0  0  0  3  0  0  0  0  0  0
  191.5050  177.2090  139.3800 C   0  0  0  0  0  2  0  0  0  0  0  0
  188.9400  173.0360  136.2020 C   0  0  0  0  0  0  0  0  0  0  0  0
  190.1970  176.5520  139.8160 C   0  0  0  0  0  2  0  0  0  0  0  0
  195.4560  172.6410  135.0100 O   0  0  0  0  0  0  0  0  0  0  0  0
  194.5900  170.7710  134.4290 N   0  0  0  0  0  0  0  0  0  0  0  0
  193.6200  171.4870  135.0300 C   0  0  0  0  0  3  0  0  0  0  0  0
  195.6940  171.5070  134.4370 N   0  0  0  0  0  0  0  0  0  0  0  0
  194.2050  172.6820  135.3940 C   0  0  0  0  0  0  0  0  0  0  0  0
  187.7900  178.4920  140.8630 O   0  0  0  0  0  1  0  0  0  0  0  0
  187.8160  177.2830  140.1590 C   0  0  0  0  0  2  0  0  0  0  0  0
  186.6870  178.2780  137.3980 C   0  0  0  0  0  2  0  0  0  0  0  0
  185.2520  177.7600  137.3650 C   0  0  0  0  0  2  0  0  0  0  0  0
  185.0190  179.5810  139.0800 C   0  0  0  0  0  1  0  0  0  0  0  0
  184.4000  178.3150  138.5050 C   0  0  1  0  0  3  0  0  0  0  0  0
  183.0890  178.5850  138.0630 O   0  0  0  0  0  0  0  0  0  0  0  0
  181.9900  178.1040  141.0390 C   0  0  2  0  0  3  0  0  0  0  0  0
  182.7280  177.4630  140.0220 O   0  0  0  0  0  0  0  0  0  0  0  0
  180.8490  178.5580  139.0490 C   0  0  0  0  0  2  0  0  0  0  0  0
  181.0250  179.0840  140.4310 C   0  0  0  0  0  2  0  0  0  0  0  0
  182.1470  177.8020  138.7790 C   0  0  1  0  0  0  0  0  0  0  0  0
  181.8370  176.5030  138.0380 C   0  0  0  0  0  1  0  0  0  0  0  0
  182.9130  178.7960  142.0410 C   0  0  0  0  0  3  0  0  0  0  0  0
  185.2050  178.8940  143.0860 C   0  0  0  0  0  2  0  0  0  0  0  0
  182.2020  178.9640  143.3930 C   0  0  0  0  0  2  0  0  0  0  0  0
  184.4930  179.5430  144.2880 C   0  0  0  0  0  2  0  0  0  0  0  0
  184.2670  178.0870  142.1880 C   0  0  0  0  0  2  0  0  0  0  0  0
  183.1530  178.8740  144.5920 C   0  0  0  0  0  2  0  0  0  0  0  0
  1 17  1  0  0  0  0
  1 11  1  0  0  0  0
  2 21  1  0  0  0  0
  3 10  1  0  0  0  0
  3 12  1  0  0  0  0
  4 17  1  0  0  0  0
  5  7  2  0  0  0  0
  6  8  1  0  0  0  0
  7 22  1  0  0  0  0
  8  9  2  0  0  0  0
  9  2  1  0  0  0  0
 10 19  1  1  0  0  0
 10  1  1  0  0  0  0
 11 18  1  0  0  0  0
 12 31  1  0  0  0  0
 12 11  2  0  0  0  0
 13  9  1  0  0  0  0
 14  5  1  0  0  0  0
 14 19  2  0  0  0  0
 15  3  1  0  0  0  0
 16  6  2  0  0  0  0
 16 20  1  0  0  0  0
 17 13  1  6  0  0  0
 18 23  1  0  0  0  0
 18 30  1  1  0  0  0
 19 22  1  0  0  0  0
 20 13  2  0  0  0  0
 21 23  1  0  0  0  0
 22  4  2  0  0  0  0
 24 28  1  0  0  0  0
 25 27  2  0  0  0  0
 25 26  1  0  0  0  0
 26 28  2  0  0  0  0
 27 24  1  0  0  0  0
 28 16  1  0  0  0  0
 30 29  1  0  0  0  0
 32 31  1  0  0  0  0
 32 34  1  0  0  0  0
 34 33  1  6  0  0  0
 35 34  1  0  0  0  0
 35 40  1  0  0  0  0
 36 42  1  1  0  0  0
 37 36  1  0  0  0  0
 38 39  1  0  0  0  0
 39 36  1  0  0  0  0
 40 41  1  6  0  0  0
 40 38  1  0  0  0  0
 40 37  1  0  0  0  0
 42 46  1  0  0  0  0
 42 44  1  0  0  0  0
 43 45  1  0  0  0  0
 44 47  1  0  0  0  0
 45 47  1  0  0  0  0
 46 43  1  0  0  0  0
M  END
>  <MODEL>
8

>  <REMARK>
 VINA RESULT:      -6.3      2.844      5.121
  Name = 
  8 active torsions:
  status: ('A' for Active; 'I' for Inactive)
    1  A    between atoms: C_4  and  C_6
    2  A    between atoms: C_15  and  O_36
    3  A    between atoms: C_15  and  C_40
    4  A    between atoms: C_22  and  C_24
    5  A    between atoms: C_24  and  C_40
    6  A    between atoms: C_30  and  O_36
    7  A    between atoms: C_31  and  C_35
    8  A    between atoms: C_33  and  C_37
                            x       y       z     vdW  Elec       q    Type
                         _______ _______ _______ _____ _____    ______ ____

>  <TORSDO>
F 8

$$$$
=
 OpenBabel10232411473D

 47 54  0  0  1  0  0  0  0  0999 V2000
  187.2420  176.6520  137.5420 N   0  0  0  0  0  0  0  0  0  0  0  0
  189.2830  177.2930  139.6480 C   0  0  0  0  0  2  0  0  0  0  0  0
  187.0480  174.5240  136.5900 N   0  0  0  0  0  0  0  0  0  0  0  0
  185.3540  178.1620  137.5920 N   0  0  0  0  0  0  0  0  0  0  0  0
  182.7980  175.9520  136.4550 N   0  0  0  0  0  0  0  0  0  0  0  0
  186.9240  178.3800  142.3640 C   0  0  0  0  0  3  0  0  0  0  0  0
  183.2670  177.2260  136.8460 N   0  0  0  0  0  0  0  0  0  0  0  0
  188.0730  178.0120  141.6660 C   0  0  0  0  0  3  0  0  0  0  0  0
  188.0360  177.8130  140.2810 C   0  0  0  0  0  0  0  0  0  0  0  0
  186.3630  175.5750  137.2550 C   0  0  2  0  0  3  0  0  0  0  0  0
  188.4540  176.3140  136.8440 C   0  0  0  0  0  0  0  0  0  0  0  0
  188.3430  175.0770  136.3300 C   0  0  0  0  0  0  0  0  0  0  0  0
  186.8270  178.0230  139.5630 C   0  0  0  0  0  0  0  0  0  0  0  0
  183.9570  175.0320  136.5610 C   0  0  0  0  0  3  0  0  0  0  0  0
  186.4620  173.3620  135.9390 C   0  0  0  0  0  1  0  0  0  0  0  0
  185.7170  178.5580  141.6840 C   0  0  0  0  0  0  0  0  0  0  0  0
  186.7500  177.9550  138.0410 C   0  0  1  0  0  3  0  0  0  0  0  0
  189.6840  177.2040  136.7200 C   0  0  2  0  0  3  0  0  0  0  0  0
  185.0500  175.8060  137.2140 C   0  0  0  0  0  0  0  0  0  0  0  0
  185.6790  178.3910  140.2920 C   0  0  0  0  0  3  0  0  0  0  0  0
  190.0640  178.3780  138.9250 C   0  0  0  0  0  2  0  0  0  0  0  0
  184.5770  177.1430  137.3550 C   0  0  0  0  0  0  0  0  0  0  0  0
  189.5850  178.5260  137.4820 C   0  0  0  0  0  2  0  0  0  0  0  0
  183.2890  178.9840  141.8840 O   0  0  0  0  0  0  0  0  0  0  0  0
  183.0070  179.1020  144.0040 N   0  0  0  0  0  0  0  0  0  0  0  0
  184.3210  178.9020  143.7900 C   0  0  0  0  0  3  0  0  0  0  0  0
  182.4110  179.1460  142.8190 N   0  0  0  0  0  0  0  0  0  0  0  0
  184.4730  178.8280  142.4200 C   0  0  0  0  0  0  0  0  0  0  0  0
  189.0100  177.8300  134.4830 O   0  0  0  0  0  1  0  0  0  0  0  0
  190.1010  177.4490  135.2710 C   0  0  0  0  0  2  0  0  0  0  0  0
  189.3610  174.3990  135.4680 C   0  0  0  0  0  2  0  0  0  0  0  0
  190.2270  173.4870  136.3320 C   0  0  0  0  0  2  0  0  0  0  0  0
  192.0730  174.9810  137.1520 C   0  0  0  0  0  1  0  0  0  0  0  0
  191.7140  173.8220  136.2330 C   0  0  1  0  0  3  0  0  0  0  0  0
  192.5020  172.6980  136.5550 O   0  0  0  0  0  0  0  0  0  0  0  0
  194.8140  172.9800  134.3470 C   0  0  2  0  0  3  0  0  0  0  0  0
  193.4160  173.0890  134.4960 O   0  0  0  0  0  0  0  0  0  0  0  0
  194.1720  171.1510  135.6560 C   0  0  0  0  0  2  0  0  0  0  0  0
  195.3590  171.9950  135.3450 C   0  0  0  0  0  2  0  0  0  0  0  0
  192.9870  172.0710  135.3770 C   0  0  1  0  0  0  0  0  0  0  0  0
  191.8810  171.2830  134.6800 C   0  0  0  0  0  1  0  0  0  0  0  0
  195.4950  174.3400  134.4930 C   0  0  0  0  0  3  0  0  0  0  0  0
  197.1240  175.7610  135.7900 C   0  0  0  0  0  2  0  0  0  0  0  0
  194.4550  175.4680  134.4080 C   0  0  0  0  0  2  0  0  0  0  0  0
  196.3110  176.9570  135.2610 C   0  0  0  0  0  2  0  0  0  0  0  0
  196.3510  174.4420  135.7630 C   0  0  0  0  0  2  0  0  0  0  0  0
  194.8070  176.6810  135.2760 C   0  0  0  0  0  2  0  0  0  0  0  0
  1 17  1  0  0  0  0
  2  9  1  0  0  0  0
  3 10  1  0  0  0  0
  5 14  1  0  0  0  0
  5  7  2  0  0  0  0
  7 22  1  0  0  0  0
  8  6  2  0  0  0  0
  9  8  1  0  0  0  0
 10 19  1  6  0  0  0
 10  1  1  0  0  0  0
 11  1  1  0  0  0  0
 12  3  1  0  0  0  0
 12 11  2  0  0  0  0
 13  9  2  0  0  0  0
 13 20  1  0  0  0  0
 14 19  2  0  0  0  0
 15  3  1  0  0  0  0
 16  6  1  0  0  0  0
 16 28  1  0  0  0  0
 17  4  1  1  0  0  0
 17 13  1  0  0  0  0
 18 30  1  6  0  0  0
 18 11  1  0  0  0  0
 18 23  1  0  0  0  0
 19 22  1  0  0  0  0
 20 16  2  0  0  0  0
 21  2  1  0  0  0  0
 22  4  2  0  0  0  0
 23 21  1  0  0  0  0
 24 28  1  0  0  0  0
 24 27  1  0  0  0  0
 26 25  1  0  0  0  0
 27 25  2  0  0  0  0
 28 26  2  0  0  0  0
 29 30  1  0  0  0  0
 31 12  1  0  0  0  0
 31 32  1  0  0  0  0
 34 32  1  0  0  0  0
 34 35  1  0  0  0  0
 34 33  1  1  0  0  0
 36 42  1  1  0  0  0
 36 37  1  0  0  0  0
 36 39  1  0  0  0  0
 37 40  1  0  0  0  0
 39 38  1  0  0  0  0
 40 41  1  6  0  0  0
 40 38  1  0  0  0  0
 40 35  1  0  0  0  0
 42 46  1  0  0  0  0
 44 42  1  0  0  0  0
 44 47  1  0  0  0  0
 45 47  1  0  0  0  0
 45 43  1  0  0  0  0
 46 43  1  0  0  0  0
M  END
>  <MODEL>
9

>  <REMARK>
 VINA RESULT:      -6.1      3.423     10.060
  Name = 
  8 active torsions:
  status: ('A' for Active; 'I' for Inactive)
    1  A    between atoms: C_4  and  C_6
    2  A    between atoms: C_15  and  O_36
    3  A    between atoms: C_15  and  C_40
    4  A    between atoms: C_22  and  C_24
    5  A    between atoms: C_24  and  C_40
    6  A    between atoms: C_30  and  O_36
    7  A    between atoms: C_31  and  C_35
    8  A    between atoms: C_33  and  C_37
                            x       y       z     vdW  Elec       q    Type
                         _______ _______ _______ _____ _____    ______ ____

>  <TORSDO>
F 8

$$$$
