=
 OpenBabel10222421443D

 31 33  0  0  1  0  0  0  0  0999 V2000
  185.8090  177.9800  142.2750 N   0  0  0  0  0  0  0  0  0  0  0  0
  188.1880  177.7180  146.3780 N   0  0  0  0  0  0  0  0  0  0  0  0
  185.3200  178.3970  144.5780 C   0  0  0  0  0  0  0  0  0  0  0  0
  183.6510  178.8420  142.9440 C   0  0  0  0  0  3  0  0  0  0  0  0
  186.1800  177.9750  143.5780 C   0  0  0  0  0  0  0  0  0  0  0  0
  188.2890  178.1170  148.7840 N   0  0  0  0  0  1  0  0  0  0  0  0
  184.5490  178.4050  141.9410 C   0  0  0  0  0  0  0  0  0  0  0  0
  187.3960  177.6210  144.0660 N   0  0  0  0  0  0  0  0  0  0  0  0
  186.0500  178.2960  145.7330 C   0  0  0  0  0  0  0  0  0  0  0  0
  187.5960  178.1110  147.5420 C   0  0  0  0  0  0  0  0  0  0  0  0
  185.9650  178.6200  147.3710 S   0  0  0  0  0  0  0  0  0  0  0  0
  187.2700  177.8350  145.3940 C   0  0  0  0  0  0  0  0  0  0  0  0
  184.0380  178.8460  144.2960 C   0  0  0  0  0  3  0  0  0  0  0  0
  188.5720  177.2020  143.3030 C   0  0  2  0  0  3  0  0  0  0  0  0
  189.4070  176.2160  144.1190 C   0  0  0  0  0  2  0  0  0  0  0  0
  190.2970  175.3800  143.2150 C   0  0  0  0  0  2  0  0  0  0  0  0
  191.6400  175.8370  144.8290 F   0  0  0  0  0  0  0  0  0  0  0  0
  191.6390  175.6040  143.5280 O   0  0  0  0  0  0  0  0  0  0  0  0
  189.4080  178.4150  142.8730 C   0  0  1  0  0  3  0  0  0  0  0  0
  191.6640  179.0520  143.6850 C   0  0  0  0  0  2  0  0  0  0  0  0
  190.3750  178.8360  143.9440 C   0  0  0  0  0  3  0  0  0  0  0  0
  190.1340  178.1300  141.6400 N   0  0  0  0  0  2  0  0  0  0  0  0
  189.1580  177.7580  140.6270 C   0  0  0  0  0  2  0  0  0  0  0  0
  189.8520  177.5150  139.3010 C   0  0  0  0  0  2  0  0  0  0  0  0
  189.0060  179.6690  137.6520 O   0  0  0  0  0  0  0  0  0  0  0  0
  187.4730  178.3770  136.3770 C   0  0  0  0  0  1  0  0  0  0  0  0
  188.8580  177.4140  138.2470 N   0  0  0  0  0  2  0  0  0  0  0  0
  188.4860  178.5390  137.4510 C   0  0  0  0  0  0  0  0  0  0  0  0
  184.1300  178.4200  140.5750 N   0  0  0  0  0  2  0  0  0  0  0  0
  182.7920  178.0280  140.1550 C   0  0  0  0  0  2  0  0  0  0  0  0
  182.7720  176.5570  139.7860 C   0  0  0  0  0  1  0  0  0  0  0  0
  1  5  1  0  0  0  0
  2 10  2  0  0  0  0
  3  9  1  0  0  0  0
  4 13  2  0  0  0  0
  5  8  1  0  0  0  0
  5  3  2  0  0  0  0
  7  1  2  0  0  0  0
  7  4  1  0  0  0  0
  8 12  1  0  0  0  0
  9 11  1  0  0  0  0
 10  6  1  0  0  0  0
 11 10  1  0  0  0  0
 12  9  2  0  0  0  0
 12  2  1  0  0  0  0
 13  3  1  0  0  0  0
 14  8  1  0  0  0  0
 14 15  1  1  0  0  0
 16 18  1  0  0  0  0
 16 15  1  0  0  0  0
 18 17  1  0  0  0  0
 19 14  1  0  0  0  0
 19 21  1  1  0  0  0
 20 21  2  0  0  0  0
 22 19  1  0  0  0  0
 23 22  1  0  0  0  0
 24 23  1  0  0  0  0
 26 28  1  0  0  0  0
 27 24  1  0  0  0  0
 28 25  2  0  0  0  0
 28 27  1  0  0  0  0
 29  7  1  0  0  0  0
 30 29  1  0  0  0  0
 31 30  1  0  0  0  0
M  END
>  <MODEL>
1

>  <REMARK>
 VINA RESULT:      -7.0      0.000      0.000
  Name = 
  12 active torsions:
  status: ('A' for Active; 'I' for Inactive)
    1  A    between atoms: C_4  and  O_14
    2  A    between atoms: C_4  and  C_19
    3  A    between atoms: N_5  and  C_26
    4  A    between atoms: N_5  and  C_28
    5  A    between atoms: C_6  and  C_19
    6  A    between atoms: C_6  and  N_20
    7  A    between atoms: C_6  and  C_28
    8  A    between atoms: C_8  and  N_18
    9  A    between atoms: C_16  and  N_18
   10  A    between atoms: N_17  and  C_22
   11  A    between atoms: C_22  and  C_26
   12  A    between atoms: C_24  and  C_28
                            x       y       z     vdW  Elec       q    Type
                         _______ _______ _______ _____ _____    ______ ____

>  <TORSDO>
F 12

$$$$
=
 OpenBabel10222421443D

 31 33  0  0  1  0  0  0  0  0999 V2000
  187.3820  177.8470  145.7840 N   0  0  0  0  0  0  0  0  0  0  0  0
  185.5810  178.1360  141.3980 N   0  0  0  0  0  0  0  0  0  0  0  0
  185.2840  178.4720  144.8220 C   0  0  0  0  0  0  0  0  0  0  0  0
  185.5060  178.4460  147.1890 C   0  0  0  0  0  3  0  0  0  0  0  0
  186.6020  178.0690  144.6980 C   0  0  0  0  0  0  0  0  0  0  0  0
  183.6720  178.5100  139.9240 N   0  0  0  0  0  1  0  0  0  0  0  0
  186.8520  178.0350  147.0340 C   0  0  0  0  0  0  0  0  0  0  0  0
  186.9630  177.8940  143.4010 N   0  0  0  0  0  0  0  0  0  0  0  0
  184.8170  178.5450  143.5360 C   0  0  0  0  0  0  0  0  0  0  0  0
  184.2750  178.4780  141.2120 C   0  0  0  0  0  0  0  0  0  0  0  0
  183.4230  178.8350  142.6600 S   0  0  0  0  0  0  0  0  0  0  0  0
  185.8350  178.1980  142.7230 C   0  0  0  0  0  0  0  0  0  0  0  0
  184.6940  178.6680  146.0620 C   0  0  0  0  0  3  0  0  0  0  0  0
  188.2450  177.4040  142.8930 C   0  0  2  0  0  3  0  0  0  0  0  0
  188.8320  176.3700  143.8520 C   0  0  0  0  0  2  0  0  0  0  0  0
  189.6380  175.3250  143.0980 C   0  0  0  0  0  2  0  0  0  0  0  0
  191.1240  175.8160  144.5710 F   0  0  0  0  0  0  0  0  0  0  0  0
  191.0030  175.5520  143.2810 O   0  0  0  0  0  0  0  0  0  0  0  0
  189.2230  178.5640  142.6610 C   0  0  1  0  0  3  0  0  0  0  0  0
  191.4080  179.0770  143.7190 C   0  0  0  0  0  2  0  0  0  0  0  0
  190.1120  178.7940  143.8500 C   0  0  0  0  0  3  0  0  0  0  0  0
  190.0400  178.3200  141.4770 N   0  0  0  0  0  2  0  0  0  0  0  0
  189.1680  177.7930  140.4380 C   0  0  0  0  0  2  0  0  0  0  0  0
  189.9560  177.5710  139.1620 C   0  0  0  0  0  2  0  0  0  0  0  0
  188.9470  179.6900  137.5610 O   0  0  0  0  0  0  0  0  0  0  0  0
  187.6470  178.2920  136.1450 C   0  0  0  0  0  1  0  0  0  0  0  0
  189.0380  177.4070  138.0490 N   0  0  0  0  0  2  0  0  0  0  0  0
  188.5760  178.5180  137.2820 C   0  0  0  0  0  0  0  0  0  0  0  0
  187.6490  177.8090  148.1990 N   0  0  0  0  0  2  0  0  0  0  0  0
  189.0490  178.1990  148.2850 C   0  0  0  0  0  2  0  0  0  0  0  0
  189.9180  177.1860  147.5630 C   0  0  0  0  0  1  0  0  0  0  0  0
  1  7  2  0  0  0  0
  2 12  1  0  0  0  0
  3 13  1  0  0  0  0
  5  3  2  0  0  0  0
  5  1  1  0  0  0  0
  6 10  1  0  0  0  0
  7  4  1  0  0  0  0
  7 29  1  0  0  0  0
  8  5  1  0  0  0  0
  9  3  1  0  0  0  0
 10  2  2  0  0  0  0
 10 11  1  0  0  0  0
 11  9  1  0  0  0  0
 12  8  1  0  0  0  0
 12  9  2  0  0  0  0
 13  4  2  0  0  0  0
 14  8  1  0  0  0  0
 14 15  1  1  0  0  0
 16 18  1  0  0  0  0
 16 15  1  0  0  0  0
 18 17  1  0  0  0  0
 19 14  1  0  0  0  0
 19 21  1  1  0  0  0
 20 21  2  0  0  0  0
 22 19  1  0  0  0  0
 23 22  1  0  0  0  0
 24 23  1  0  0  0  0
 26 28  1  0  0  0  0
 27 24  1  0  0  0  0
 28 25  2  0  0  0  0
 28 27  1  0  0  0  0
 29 30  1  0  0  0  0
 31 30  1  0  0  0  0
M  END
>  <MODEL>
2

>  <REMARK>
 VINA RESULT:      -6.8      1.329      4.369
  Name = 
  12 active torsions:
  status: ('A' for Active; 'I' for Inactive)
    1  A    between atoms: C_4  and  O_14
    2  A    between atoms: C_4  and  C_19
    3  A    between atoms: N_5  and  C_26
    4  A    between atoms: N_5  and  C_28
    5  A    between atoms: C_6  and  C_19
    6  A    between atoms: C_6  and  N_20
    7  A    between atoms: C_6  and  C_28
    8  A    between atoms: C_8  and  N_18
    9  A    between atoms: C_16  and  N_18
   10  A    between atoms: N_17  and  C_22
   11  A    between atoms: C_22  and  C_26
   12  A    between atoms: C_24  and  C_28
                            x       y       z     vdW  Elec       q    Type
                         _______ _______ _______ _____ _____    ______ ____

>  <TORSDO>
F 12

$$$$
=
 OpenBabel10222421443D

 31 33  0  0  1  0  0  0  0  0999 V2000
  186.4400  178.6350  144.3400 N   0  0  0  0  0  0  0  0  0  0  0  0
  185.3570  178.6230  139.7150 N   0  0  0  0  0  0  0  0  0  0  0  0
  184.4360  178.7410  143.0410 C   0  0  0  0  0  0  0  0  0  0  0  0
  184.2730  178.6830  145.4120 C   0  0  0  0  0  3  0  0  0  0  0  0
  185.8150  178.6930  143.1380 C   0  0  0  0  0  0  0  0  0  0  0  0
  183.6780  178.5540  137.9440 N   0  0  0  0  0  1  0  0  0  0  0  0
  185.6860  178.6340  145.4840 C   0  0  0  0  0  0  0  0  0  0  0  0
  186.4130  178.6650  141.9200 N   0  0  0  0  0  0  0  0  0  0  0  0
  184.1790  178.7420  141.6950 C   0  0  0  0  0  0  0  0  0  0  0  0
  184.0540  178.6280  139.3140 C   0  0  0  0  0  0  0  0  0  0  0  0
  182.9170  178.7010  140.5990 S   0  0  0  0  0  0  0  0  0  0  0  0
  185.3690  178.6970  141.0630 C   0  0  0  0  0  0  0  0  0  0  0  0
  183.6230  178.7330  144.1660 C   0  0  0  0  0  3  0  0  0  0  0  0
  187.8420  178.5370  141.6340 C   0  0  2  0  0  3  0  0  0  0  0  0
  188.0550  177.7410  140.3480 C   0  0  0  0  0  2  0  0  0  0  0  0
  189.1250  178.3830  139.4810 C   0  0  0  0  0  2  0  0  0  0  0  0
  189.3900  179.0630  137.4600 F   0  0  0  0  0  0  0  0  0  0  0  0
  188.5290  179.1260  138.4600 O   0  0  0  0  0  0  0  0  0  0  0  0
  188.5830  177.8940  142.8140 C   0  0  1  0  0  3  0  0  0  0  0  0
  189.8940  175.8010  142.5690 C   0  0  0  0  0  2  0  0  0  0  0  0
  188.7080  176.4050  142.6510 C   0  0  0  0  0  3  0  0  0  0  0  0
  189.9070  178.4840  142.9760 N   0  0  0  0  0  2  0  0  0  0  0  0
  190.1860  178.5630  144.4020 C   0  0  0  0  0  2  0  0  0  0  0  0
  191.5930  178.0730  144.6840 C   0  0  0  0  0  2  0  0  0  0  0  0
  192.1230  175.3510  145.3020 O   0  0  0  0  0  0  0  0  0  0  0  0
  191.9920  175.6340  147.6580 C   0  0  0  0  0  1  0  0  0  0  0  0
  191.6520  177.5220  146.0270 N   0  0  0  0  0  2  0  0  0  0  0  0
  191.9310  176.1430  146.2640 C   0  0  0  0  0  0  0  0  0  0  0  0
  186.3160  178.5750  146.7650 N   0  0  0  0  0  2  0  0  0  0  0  0
  187.3710  177.6230  147.0830 C   0  0  0  0  0  2  0  0  0  0  0  0
  188.1130  178.0640  148.3300 C   0  0  0  0  0  1  0  0  0  0  0  0
  1  7  2  0  0  0  0
  2 12  1  0  0  0  0
  3  5  2  0  0  0  0
  3 13  1  0  0  0  0
  4  7  1  0  0  0  0
  5  1  1  0  0  0  0
  6 10  1  0  0  0  0
  7 29  1  0  0  0  0
  8  5  1  0  0  0  0
  9  3  1  0  0  0  0
 10  2  2  0  0  0  0
 10 11  1  0  0  0  0
 11  9  1  0  0  0  0
 12  9  2  0  0  0  0
 12  8  1  0  0  0  0
 13  4  2  0  0  0  0
 14 15  1  6  0  0  0
 14  8  1  0  0  0  0
 14 19  1  0  0  0  0
 16 15  1  0  0  0  0
 17 18  1  0  0  0  0
 18 16  1  0  0  0  0
 19 21  1  6  0  0  0
 19 22  1  0  0  0  0
 20 21  2  0  0  0  0
 22 23  1  0  0  0  0
 23 24  1  0  0  0  0
 24 27  1  0  0  0  0
 25 28  2  0  0  0  0
 27 28  1  0  0  0  0
 28 26  1  0  0  0  0
 29 30  1  0  0  0  0
 30 31  1  0  0  0  0
M  END
>  <MODEL>
3

>  <REMARK>
 VINA RESULT:      -6.7      2.609      6.403
  Name = 
  12 active torsions:
  status: ('A' for Active; 'I' for Inactive)
    1  A    between atoms: C_4  and  O_14
    2  A    between atoms: C_4  and  C_19
    3  A    between atoms: N_5  and  C_26
    4  A    between atoms: N_5  and  C_28
    5  A    between atoms: C_6  and  C_19
    6  A    between atoms: C_6  and  N_20
    7  A    between atoms: C_6  and  C_28
    8  A    between atoms: C_8  and  N_18
    9  A    between atoms: C_16  and  N_18
   10  A    between atoms: N_17  and  C_22
   11  A    between atoms: C_22  and  C_26
   12  A    between atoms: C_24  and  C_28
                            x       y       z     vdW  Elec       q    Type
                         _______ _______ _______ _____ _____    ______ ____

>  <TORSDO>
F 12

$$$$
=
 OpenBabel10222421443D

 31 33  0  0  1  0  0  0  0  0999 V2000
  187.0870  178.5400  141.1650 N   0  0  0  0  0  0  0  0  0  0  0  0
  191.3240  176.9280  139.7490 N   0  0  0  0  0  0  0  0  0  0  0  0
  188.0940  177.9470  139.0790 C   0  0  0  0  0  0  0  0  0  0  0  0
  185.8110  178.6100  139.1110 C   0  0  0  0  0  3  0  0  0  0  0  0
  188.1620  178.1290  140.4490 C   0  0  0  0  0  0  0  0  0  0  0  0
  192.7680  176.0690  137.9770 N   0  0  0  0  0  1  0  0  0  0  0  0
  185.9070  178.7890  140.5120 C   0  0  0  0  0  0  0  0  0  0  0  0
  189.3830  177.8080  140.9470 N   0  0  0  0  0  0  0  0  0  0  0  0
  189.3360  177.4900  138.7240 C   0  0  0  0  0  0  0  0  0  0  0  0
  191.5400  176.6200  138.4380 C   0  0  0  0  0  0  0  0  0  0  0  0
  190.2000  176.9280  137.4090 S   0  0  0  0  0  0  0  0  0  0  0  0
  190.0720  177.4210  139.8510 C   0  0  0  0  0  0  0  0  0  0  0  0
  186.9230  178.1740  138.3690 C   0  0  0  0  0  3  0  0  0  0  0  0
  189.7980  177.8040  142.3510 C   0  0  2  0  0  3  0  0  0  0  0  0
  191.1800  178.4370  142.4960 C   0  0  0  0  0  2  0  0  0  0  0  0
  191.2590  179.2870  143.7530 C   0  0  0  0  0  2  0  0  0  0  0  0
  191.3630  178.1070  145.5460 F   0  0  0  0  0  0  0  0  0  0  0  0
  192.1430  178.7080  144.6640 O   0  0  0  0  0  0  0  0  0  0  0  0
  189.7760  176.3800  142.9240 C   0  0  1  0  0  3  0  0  0  0  0  0
  191.6030  175.2910  144.2020 C   0  0  0  0  0  2  0  0  0  0  0  0
  191.1600  175.8090  143.0570 C   0  0  0  0  0  3  0  0  0  0  0  0
  189.1080  176.3570  144.2210 N   0  0  0  0  0  2  0  0  0  0  0  0
  187.6900  176.5910  143.9940 C   0  0  0  0  0  2  0  0  0  0  0  0
  187.1620  177.5960  144.9980 C   0  0  0  0  0  2  0  0  0  0  0  0
  186.3770  178.6090  147.5340 O   0  0  0  0  0  0  0  0  0  0  0  0
  188.3880  177.9980  148.6440 C   0  0  0  0  0  1  0  0  0  0  0  0
  187.9780  177.5540  146.1990 N   0  0  0  0  0  2  0  0  0  0  0  0
  187.5160  178.0780  147.4430 C   0  0  0  0  0  0  0  0  0  0  0  0
  184.7570  179.2240  141.2400 N   0  0  0  0  0  2  0  0  0  0  0  0
  184.6880  179.2040  142.6940 C   0  0  0  0  0  2  0  0  0  0  0  0
  183.2920  178.8170  143.1450 C   0  0  0  0  0  1  0  0  0  0  0  0
  2 12  1  0  0  0  0
  3  5  2  0  0  0  0
  4  7  1  0  0  0  0
  5  8  1  0  0  0  0
  5  1  1  0  0  0  0
  6 10  1  0  0  0  0
  7  1  2  0  0  0  0
  7 29  1  0  0  0  0
  8 14  1  0  0  0  0
  9  3  1  0  0  0  0
  9 12  2  0  0  0  0
 10  2  2  0  0  0  0
 11 10  1  0  0  0  0
 11  9  1  0  0  0  0
 12  8  1  0  0  0  0
 13  3  1  0  0  0  0
 13  4  2  0  0  0  0
 14 15  1  6  0  0  0
 14 19  1  0  0  0  0
 15 16  1  0  0  0  0
 16 18  1  0  0  0  0
 18 17  1  0  0  0  0
 19 21  1  1  0  0  0
 19 22  1  0  0  0  0
 21 20  2  0  0  0  0
 23 22  1  0  0  0  0
 23 24  1  0  0  0  0
 24 27  1  0  0  0  0
 27 28  1  0  0  0  0
 28 25  2  0  0  0  0
 28 26  1  0  0  0  0
 29 30  1  0  0  0  0
 30 31  1  0  0  0  0
M  END
>  <MODEL>
4

>  <REMARK>
 VINA RESULT:      -6.7      2.974      6.337
  Name = 
  12 active torsions:
  status: ('A' for Active; 'I' for Inactive)
    1  A    between atoms: C_4  and  O_14
    2  A    between atoms: C_4  and  C_19
    3  A    between atoms: N_5  and  C_26
    4  A    between atoms: N_5  and  C_28
    5  A    between atoms: C_6  and  C_19
    6  A    between atoms: C_6  and  N_20
    7  A    between atoms: C_6  and  C_28
    8  A    between atoms: C_8  and  N_18
    9  A    between atoms: C_16  and  N_18
   10  A    between atoms: N_17  and  C_22
   11  A    between atoms: C_22  and  C_26
   12  A    between atoms: C_24  and  C_28
                            x       y       z     vdW  Elec       q    Type
                         _______ _______ _______ _____ _____    ______ ____

>  <TORSDO>
F 12

$$$$
=
 OpenBabel10222421443D

 31 33  0  0  1  0  0  0  0  0999 V2000
  187.2640  177.8490  143.9770 N   0  0  0  0  0  0  0  0  0  0  0  0
  187.5720  178.5930  139.2960 N   0  0  0  0  0  0  0  0  0  0  0  0
  188.8840  177.4280  142.2700 C   0  0  0  0  0  0  0  0  0  0  0  0
  189.4130  176.8830  144.5230 C   0  0  0  0  0  3  0  0  0  0  0  0
  187.6400  177.8800  142.6750 C   0  0  0  0  0  0  0  0  0  0  0  0
  188.8810  178.5440  137.2360 N   0  0  0  0  0  1  0  0  0  0  0  0
  188.1340  177.3500  144.9110 C   0  0  0  0  0  0  0  0  0  0  0  0
  186.9130  178.3730  141.6410 N   0  0  0  0  0  0  0  0  0  0  0  0
  188.9180  177.6590  140.9200 C   0  0  0  0  0  0  0  0  0  0  0  0
  188.7150  178.2760  138.6230 C   0  0  0  0  0  0  0  0  0  0  0  0
  189.9340  177.5580  139.5970 S   0  0  0  0  0  0  0  0  0  0  0  0
  187.7380  178.2170  140.5820 C   0  0  0  0  0  0  0  0  0  0  0  0
  189.8080  176.9230  143.1740 C   0  0  0  0  0  3  0  0  0  0  0  0
  185.5930  179.0010  141.7010 C   0  0  2  0  0  3  0  0  0  0  0  0
  184.8550  178.5610  142.9640 C   0  0  0  0  0  2  0  0  0  0  0  0
  184.4870  179.7580  143.8240 C   0  0  0  0  0  2  0  0  0  0  0  0
  182.8750  178.4120  144.2800 F   0  0  0  0  0  0  0  0  0  0  0  0
  183.6040  179.3670  144.8320 O   0  0  0  0  0  0  0  0  0  0  0  0
  184.7770  178.6850  140.4410 C   0  0  1  0  0  3  0  0  0  0  0  0
  183.0920  176.8930  140.1110 C   0  0  0  0  0  2  0  0  0  0  0  0
  183.4900  177.9810  140.7700 C   0  0  0  0  0  3  0  0  0  0  0  0
  184.4920  179.9030  139.6910 N   0  0  0  0  0  2  0  0  0  0  0  0
  183.4340  179.6010  138.7390 C   0  0  0  0  0  2  0  0  0  0  0  0
  182.3610  180.6700  138.7970 C   0  0  0  0  0  2  0  0  0  0  0  0
  181.0260  182.8360  137.5320 O   0  0  0  0  0  0  0  0  0  0  0  0
  179.9920  181.5050  135.8570 C   0  0  0  0  0  1  0  0  0  0  0  0
  181.4940  180.5490  137.6380 N   0  0  0  0  0  2  0  0  0  0  0  0
  180.8600  181.6840  137.0490 C   0  0  0  0  0  0  0  0  0  0  0  0
  187.7650  177.3050  146.2910 N   0  0  0  0  0  2  0  0  0  0  0  0
  188.7430  177.2450  147.3680 C   0  0  0  0  0  2  0  0  0  0  0  0
  188.2990  178.1200  148.5250 C   0  0  0  0  0  1  0  0  0  0  0  0
  1  7  2  0  0  0  0
  2 12  1  0  0  0  0
  3  5  2  0  0  0  0
  3 13  1  0  0  0  0
  4  7  1  0  0  0  0
  5  1  1  0  0  0  0
  6 10  1  0  0  0  0
  7 29  1  0  0  0  0
  8 14  1  0  0  0  0
  8  5  1  0  0  0  0
  9  3  1  0  0  0  0
 10  2  2  0  0  0  0
 10 11  1  0  0  0  0
 11  9  1  0  0  0  0
 12  9  2  0  0  0  0
 12  8  1  0  0  0  0
 13  4  2  0  0  0  0
 14 15  1  1  0  0  0
 15 16  1  0  0  0  0
 16 18  1  0  0  0  0
 17 18  1  0  0  0  0
 19 21  1  1  0  0  0
 19 14  1  0  0  0  0
 20 21  2  0  0  0  0
 22 19  1  0  0  0  0
 23 24  1  0  0  0  0
 23 22  1  0  0  0  0
 26 28  1  0  0  0  0
 27 24  1  0  0  0  0
 28 25  2  0  0  0  0
 28 27  1  0  0  0  0
 29 30  1  0  0  0  0
 30 31  1  0  0  0  0
M  END
>  <MODEL>
5

>  <REMARK>
 VINA RESULT:      -6.4      3.799      7.253
  Name = 
  12 active torsions:
  status: ('A' for Active; 'I' for Inactive)
    1  A    between atoms: C_4  and  O_14
    2  A    between atoms: C_4  and  C_19
    3  A    between atoms: N_5  and  C_26
    4  A    between atoms: N_5  and  C_28
    5  A    between atoms: C_6  and  C_19
    6  A    between atoms: C_6  and  N_20
    7  A    between atoms: C_6  and  C_28
    8  A    between atoms: C_8  and  N_18
    9  A    between atoms: C_16  and  N_18
   10  A    between atoms: N_17  and  C_22
   11  A    between atoms: C_22  and  C_26
   12  A    between atoms: C_24  and  C_28
                            x       y       z     vdW  Elec       q    Type
                         _______ _______ _______ _____ _____    ______ ____

>  <TORSDO>
F 12

$$$$
=
 OpenBabel10222421443D

 31 33  0  0  1  0  0  0  0  0999 V2000
  187.7100  177.6670  144.9330 N   0  0  0  0  0  0  0  0  0  0  0  0
  187.6830  177.9830  140.1930 N   0  0  0  0  0  0  0  0  0  0  0  0
  186.1710  178.4230  143.2670 C   0  0  0  0  0  0  0  0  0  0  0  0
  185.5020  178.4380  145.5480 C   0  0  0  0  0  3  0  0  0  0  0  0
  187.4060  177.9200  143.6370 C   0  0  0  0  0  0  0  0  0  0  0  0
  186.4870  178.4640  138.1210 N   0  0  0  0  0  1  0  0  0  0  0  0
  186.7730  177.9240  145.9000 C   0  0  0  0  0  0  0  0  0  0  0  0
  188.2050  177.6880  142.5640 N   0  0  0  0  0  0  0  0  0  0  0  0
  186.2190  178.5000  141.9000 C   0  0  0  0  0  0  0  0  0  0  0  0
  186.5680  178.4180  139.5400 C   0  0  0  0  0  0  0  0  0  0  0  0
  185.2730  178.8730  140.5730 S   0  0  0  0  0  0  0  0  0  0  0  0
  187.4340  178.0590  141.5190 C   0  0  0  0  0  0  0  0  0  0  0  0
  185.1820  178.6930  144.2030 C   0  0  0  0  0  3  0  0  0  0  0  0
  189.5410  177.0910  142.5640 C   0  0  2  0  0  3  0  0  0  0  0  0
  189.7970  176.3680  143.8850 C   0  0  0  0  0  2  0  0  0  0  0  0
  190.9620  175.4000  143.7580 C   0  0  0  0  0  2  0  0  0  0  0  0
  191.2060  176.4050  145.6420 F   0  0  0  0  0  0  0  0  0  0  0  0
  191.8150  175.5340  144.8550 O   0  0  0  0  0  0  0  0  0  0  0  0
  190.6160  178.1520  142.2940 C   0  0  1  0  0  3  0  0  0  0  0  0
  191.1850  179.7700  144.0880 C   0  0  0  0  0  2  0  0  0  0  0  0
  191.3310  178.5580  143.5520 C   0  0  0  0  0  3  0  0  0  0  0  0
  191.5830  177.6700  141.3140 N   0  0  0  0  0  2  0  0  0  0  0  0
  190.8870  176.7600  140.4150 C   0  0  0  0  0  2  0  0  0  0  0  0
  191.5790  176.7320  139.0670 C   0  0  0  0  0  2  0  0  0  0  0  0
  190.3240  174.5480  137.7520 O   0  0  0  0  0  0  0  0  0  0  0  0
  188.9760  175.8940  136.3330 C   0  0  0  0  0  1  0  0  0  0  0  0
  190.5880  176.8550  138.0120 N   0  0  0  0  0  2  0  0  0  0  0  0
  189.9940  175.7110  137.4000 C   0  0  0  0  0  0  0  0  0  0  0  0
  187.0640  177.6670  147.2750 N   0  0  0  0  0  2  0  0  0  0  0  0
  188.3880  177.2830  147.7430 C   0  0  0  0  0  2  0  0  0  0  0  0
  189.0110  178.4170  148.5350 C   0  0  0  0  0  1  0  0  0  0  0  0
  1  7  2  0  0  0  0
  2 12  1  0  0  0  0
  3  5  2  0  0  0  0
  3 13  1  0  0  0  0
  4  7  1  0  0  0  0
  5  1  1  0  0  0  0
  6 10  1  0  0  0  0
  7 29  1  0  0  0  0
  8  5  1  0  0  0  0
  9  3  1  0  0  0  0
 10  2  2  0  0  0  0
 10 11  1  0  0  0  0
 11  9  1  0  0  0  0
 12  9  2  0  0  0  0
 12  8  1  0  0  0  0
 13  4  2  0  0  0  0
 14  8  1  0  0  0  0
 14 15  1  1  0  0  0
 16 15  1  0  0  0  0
 16 18  1  0  0  0  0
 18 17  1  0  0  0  0
 19 14  1  0  0  0  0
 19 21  1  1  0  0  0
 21 20  2  0  0  0  0
 22 19  1  0  0  0  0
 23 22  1  0  0  0  0
 24 23  1  0  0  0  0
 26 28  1  0  0  0  0
 27 24  1  0  0  0  0
 28 25  2  0  0  0  0
 28 27  1  0  0  0  0
 29 30  1  0  0  0  0
 30 31  1  0  0  0  0
M  END
>  <MODEL>
6

>  <REMARK>
 VINA RESULT:      -6.2      2.413      4.682
  Name = 
  12 active torsions:
  status: ('A' for Active; 'I' for Inactive)
    1  A    between atoms: C_4  and  O_14
    2  A    between atoms: C_4  and  C_19
    3  A    between atoms: N_5  and  C_26
    4  A    between atoms: N_5  and  C_28
    5  A    between atoms: C_6  and  C_19
    6  A    between atoms: C_6  and  N_20
    7  A    between atoms: C_6  and  C_28
    8  A    between atoms: C_8  and  N_18
    9  A    between atoms: C_16  and  N_18
   10  A    between atoms: N_17  and  C_22
   11  A    between atoms: C_22  and  C_26
   12  A    between atoms: C_24  and  C_28
                            x       y       z     vdW  Elec       q    Type
                         _______ _______ _______ _____ _____    ______ ____

>  <TORSDO>
F 12

$$$$
=
 OpenBabel10222421443D

 31 33  0  0  1  0  0  0  0  0999 V2000
  187.5900  177.8630  144.2950 N   0  0  0  0  0  0  0  0  0  0  0  0
  187.7820  178.5500  139.5990 N   0  0  0  0  0  0  0  0  0  0  0  0
  189.1720  177.4300  142.5550 C   0  0  0  0  0  0  0  0  0  0  0  0
  189.7570  176.9160  144.8020 C   0  0  0  0  0  3  0  0  0  0  0  0
  187.9350  177.8790  142.9850 C   0  0  0  0  0  0  0  0  0  0  0  0
  189.0430  178.4830  137.5090 N   0  0  0  0  0  1  0  0  0  0  0  0
  188.4850  177.3810  145.2140 C   0  0  0  0  0  0  0  0  0  0  0  0
  187.1810  178.3550  141.9610 N   0  0  0  0  0  0  0  0  0  0  0  0
  189.1720  177.6440  141.2020 C   0  0  0  0  0  0  0  0  0  0  0  0
  188.9110  178.2310  138.9030 C   0  0  0  0  0  0  0  0  0  0  0  0
  190.1570  177.5330  139.8560 S   0  0  0  0  0  0  0  0  0  0  0  0
  187.9810  178.1910  140.8850 C   0  0  0  0  0  0  0  0  0  0  0  0
  190.1200  176.9420  143.4430 C   0  0  0  0  0  3  0  0  0  0  0  0
  185.8590  178.9760  142.0450 C   0  0  2  0  0  3  0  0  0  0  0  0
  185.1890  178.6160  143.3700 C   0  0  0  0  0  2  0  0  0  0  0  0
  184.6960  179.8620  144.0870 C   0  0  0  0  0  2  0  0  0  0  0  0
  183.2630  178.4660  144.8710 F   0  0  0  0  0  0  0  0  0  0  0  0
  183.9950  179.5030  145.2390 O   0  0  0  0  0  0  0  0  0  0  0  0
  184.9840  178.5690  140.8520 C   0  0  1  0  0  3  0  0  0  0  0  0
  182.9880  177.1160  140.6010 C   0  0  0  0  0  2  0  0  0  0  0  0
  183.6440  178.0490  141.2910 C   0  0  0  0  0  3  0  0  0  0  0  0
  184.8000  179.6930  139.9400 N   0  0  0  0  0  2  0  0  0  0  0  0
  184.2170  179.1760  138.7110 C   0  0  0  0  0  2  0  0  0  0  0  0
  185.2260  178.3130  137.9800 C   0  0  0  0  0  2  0  0  0  0  0  0
  186.4690  175.9730  136.9540 O   0  0  0  0  0  0  0  0  0  0  0  0
  184.4640  175.0130  136.1140 C   0  0  0  0  0  1  0  0  0  0  0  0
  184.5350  177.2400  137.2880 N   0  0  0  0  0  2  0  0  0  0  0  0
  185.2230  176.0870  136.8040 C   0  0  0  0  0  0  0  0  0  0  0  0
  188.1490  177.3510  146.6030 N   0  0  0  0  0  2  0  0  0  0  0  0
  189.0160  177.8970  147.6370 C   0  0  0  0  0  2  0  0  0  0  0  0
  188.2520  178.0340  148.9400 C   0  0  0  0  0  1  0  0  0  0  0  0
  1  7  2  0  0  0  0
  2 12  1  0  0  0  0
  3  5  2  0  0  0  0
  3 13  1  0  0  0  0
  4  7  1  0  0  0  0
  5  1  1  0  0  0  0
  6 10  1  0  0  0  0
  7 29  1  0  0  0  0
  8 14  1  0  0  0  0
  8  5  1  0  0  0  0
  9  3  1  0  0  0  0
 10  2  2  0  0  0  0
 10 11  1  0  0  0  0
 11  9  1  0  0  0  0
 12  9  2  0  0  0  0
 12  8  1  0  0  0  0
 13  4  2  0  0  0  0
 14 15  1  1  0  0  0
 15 16  1  0  0  0  0
 16 18  1  0  0  0  0
 17 18  1  0  0  0  0
 19 21  1  1  0  0  0
 19 14  1  0  0  0  0
 20 21  2  0  0  0  0
 22 19  1  0  0  0  0
 23 22  1  0  0  0  0
 24 23  1  0  0  0  0
 26 28  1  0  0  0  0
 27 24  1  0  0  0  0
 28 25  2  0  0  0  0
 28 27  1  0  0  0  0
 29 30  1  0  0  0  0
 30 31  1  0  0  0  0
M  END
>  <MODEL>
7

>  <REMARK>
 VINA RESULT:      -6.1      3.302      6.632
  Name = 
  12 active torsions:
  status: ('A' for Active; 'I' for Inactive)
    1  A    between atoms: C_4  and  O_14
    2  A    between atoms: C_4  and  C_19
    3  A    between atoms: N_5  and  C_26
    4  A    between atoms: N_5  and  C_28
    5  A    between atoms: C_6  and  C_19
    6  A    between atoms: C_6  and  N_20
    7  A    between atoms: C_6  and  C_28
    8  A    between atoms: C_8  and  N_18
    9  A    between atoms: C_16  and  N_18
   10  A    between atoms: N_17  and  C_22
   11  A    between atoms: C_22  and  C_26
   12  A    between atoms: C_24  and  C_28
                            x       y       z     vdW  Elec       q    Type
                         _______ _______ _______ _____ _____    ______ ____

>  <TORSDO>
F 12

$$$$
=
 OpenBabel10222421443D

 31 33  0  0  1  0  0  0  0  0999 V2000
  187.4300  177.8100  144.2670 N   0  0  0  0  0  0  0  0  0  0  0  0
  187.5550  178.6190  139.5880 N   0  0  0  0  0  0  0  0  0  0  0  0
  189.0060  177.4670  142.5020 C   0  0  0  0  0  0  0  0  0  0  0  0
  189.6290  176.9150  144.7290 C   0  0  0  0  0  3  0  0  0  0  0  0
  187.7610  177.8690  142.9540 C   0  0  0  0  0  0  0  0  0  0  0  0
  188.7950  178.6400  137.4850 N   0  0  0  0  0  1  0  0  0  0  0  0
  188.3480  177.3320  145.1650 C   0  0  0  0  0  0  0  0  0  0  0  0
  186.9830  178.3480  141.9500 N   0  0  0  0  0  0  0  0  0  0  0  0
  188.9860  177.7140  141.1540 C   0  0  0  0  0  0  0  0  0  0  0  0
  188.6850  178.3510  138.8730 C   0  0  0  0  0  0  0  0  0  0  0  0
  189.9600  177.6650  139.7970 S   0  0  0  0  0  0  0  0  0  0  0  0
  187.7770  178.2340  140.8620 C   0  0  0  0  0  0  0  0  0  0  0  0
  189.9770  176.9850  143.3680 C   0  0  0  0  0  3  0  0  0  0  0  0
  185.6450  178.9280  142.0620 C   0  0  2  0  0  3  0  0  0  0  0  0
  185.0430  178.6100  143.4300 C   0  0  0  0  0  2  0  0  0  0  0  0
  184.5130  179.8690  144.0960 C   0  0  0  0  0  2  0  0  0  0  0  0
  183.0650  178.4620  144.8320 F   0  0  0  0  0  0  0  0  0  0  0  0
  183.7460  179.5290  145.2120 O   0  0  0  0  0  0  0  0  0  0  0  0
  184.7360  178.4350  140.9270 C   0  0  1  0  0  3  0  0  0  0  0  0
  182.3350  178.4170  141.5540 C   0  0  0  0  0  2  0  0  0  0  0  0
  183.4960  177.7690  141.4540 C   0  0  0  0  0  3  0  0  0  0  0  0
  184.3660  179.5380  140.0470 N   0  0  0  0  0  2  0  0  0  0  0  0
  184.4660  179.0630  138.6750 C   0  0  0  0  0  2  0  0  0  0  0  0
  183.0810  178.8580  138.0940 C   0  0  0  0  0  2  0  0  0  0  0  0
  180.5720  177.6320  138.6180 O   0  0  0  0  0  0  0  0  0  0  0  0
  181.2960  175.4270  138.1080 C   0  0  0  0  0  1  0  0  0  0  0  0
  182.8100  177.4350  137.9800 N   0  0  0  0  0  2  0  0  0  0  0  0
  181.5210  176.8890  138.2530 C   0  0  0  0  0  0  0  0  0  0  0  0
  188.0270  177.2580  146.5560 N   0  0  0  0  0  2  0  0  0  0  0  0
  189.0410  177.2640  147.6010 C   0  0  0  0  0  2  0  0  0  0  0  0
  188.6230  178.1920  148.7270 C   0  0  0  0  0  1  0  0  0  0  0  0
  1  7  2  0  0  0  0
  2 12  1  0  0  0  0
  3  5  2  0  0  0  0
  3 13  1  0  0  0  0
  4  7  1  0  0  0  0
  5  1  1  0  0  0  0
  6 10  1  0  0  0  0
  7 29  1  0  0  0  0
  8 14  1  0  0  0  0
  8  5  1  0  0  0  0
  9  3  1  0  0  0  0
 10  2  2  0  0  0  0
 10 11  1  0  0  0  0
 11  9  1  0  0  0  0
 12  9  2  0  0  0  0
 12  8  1  0  0  0  0
 13  4  2  0  0  0  0
 14 15  1  1  0  0  0
 15 16  1  0  0  0  0
 16 18  1  0  0  0  0
 17 18  1  0  0  0  0
 19 21  1  1  0  0  0
 19 14  1  0  0  0  0
 21 20  2  0  0  0  0
 22 19  1  0  0  0  0
 23 22  1  0  0  0  0
 24 23  1  0  0  0  0
 26 28  1  0  0  0  0
 27 24  1  0  0  0  0
 27 28  1  0  0  0  0
 28 25  2  0  0  0  0
 29 30  1  0  0  0  0
 30 31  1  0  0  0  0
M  END
>  <MODEL>
8

>  <REMARK>
 VINA RESULT:      -6.1      3.531      7.043
  Name = 
  12 active torsions:
  status: ('A' for Active; 'I' for Inactive)
    1  A    between atoms: C_4  and  O_14
    2  A    between atoms: C_4  and  C_19
    3  A    between atoms: N_5  and  C_26
    4  A    between atoms: N_5  and  C_28
    5  A    between atoms: C_6  and  C_19
    6  A    between atoms: C_6  and  N_20
    7  A    between atoms: C_6  and  C_28
    8  A    between atoms: C_8  and  N_18
    9  A    between atoms: C_16  and  N_18
   10  A    between atoms: N_17  and  C_22
   11  A    between atoms: C_22  and  C_26
   12  A    between atoms: C_24  and  C_28
                            x       y       z     vdW  Elec       q    Type
                         _______ _______ _______ _____ _____    ______ ____

>  <TORSDO>
F 12

$$$$
=
 OpenBabel10222421443D

 31 33  0  0  1  0  0  0  0  0999 V2000
  185.6350  178.4970  141.0290 N   0  0  0  0  0  0  0  0  0  0  0  0
  187.5990  178.0080  145.3270 N   0  0  0  0  0  0  0  0  0  0  0  0
  184.8470  178.4420  143.2860 C   0  0  0  0  0  0  0  0  0  0  0  0
  183.2930  178.8370  141.5310 C   0  0  0  0  0  3  0  0  0  0  0  0
  185.8680  178.3490  142.3570 C   0  0  0  0  0  0  0  0  0  0  0  0
  187.3800  178.0260  147.7580 N   0  0  0  0  0  1  0  0  0  0  0  0
  184.3550  178.7360  140.6000 C   0  0  0  0  0  0  0  0  0  0  0  0
  187.0750  178.1450  142.9420 N   0  0  0  0  0  0  0  0  0  0  0  0
  185.4640  178.2890  144.5000 C   0  0  0  0  0  0  0  0  0  0  0  0
  186.8290  178.0960  146.4490 C   0  0  0  0  0  0  0  0  0  0  0  0
  185.1540  178.3240  146.1430 S   0  0  0  0  0  0  0  0  0  0  0  0
  186.7790  178.1150  144.2600 C   0  0  0  0  0  0  0  0  0  0  0  0
  183.5350  178.6930  142.9080 C   0  0  0  0  0  3  0  0  0  0  0  0
  188.3810  178.0720  142.2860 C   0  0  2  0  0  3  0  0  0  0  0  0
  188.2730  177.2870  140.9800 C   0  0  0  0  0  2  0  0  0  0  0  0
  189.2250  177.8400  139.9320 C   0  0  0  0  0  2  0  0  0  0  0  0
  191.3720  177.7700  139.9260 F   0  0  0  0  0  0  0  0  0  0  0  0
  190.3180  176.9850  139.7840 O   0  0  0  0  0  0  0  0  0  0  0  0
  189.4310  177.4550  143.2190 C   0  0  1  0  0  3  0  0  0  0  0  0
  190.6220  175.2790  143.2750 C   0  0  0  0  0  2  0  0  0  0  0  0
  189.4930  175.9590  143.0810 C   0  0  0  0  0  3  0  0  0  0  0  0
  190.7480  178.0270  142.9640 N   0  0  0  0  0  2  0  0  0  0  0  0
  191.0300  178.9830  144.0240 C   0  0  0  0  0  2  0  0  0  0  0  0
  190.6050  178.4140  145.3630 C   0  0  0  0  0  2  0  0  0  0  0  0
  190.2140  176.5350  147.4580 O   0  0  0  0  0  0  0  0  0  0  0  0
  192.3860  175.5830  147.3030 C   0  0  0  0  0  1  0  0  0  0  0  0
  191.6020  177.4640  145.8240 N   0  0  0  0  0  2  0  0  0  0  0  0
  191.3340  176.5420  146.8800 C   0  0  0  0  0  0  0  0  0  0  0  0
  184.0790  178.8960  139.2070 N   0  0  0  0  0  2  0  0  0  0  0  0
  182.7480  179.1910  138.6950 C   0  0  0  0  0  2  0  0  0  0  0  0
  182.4780  180.6810  138.7730 C   0  0  0  0  0  1  0  0  0  0  0  0
  1  5  1  0  0  0  0
  2 10  2  0  0  0  0
  3  9  1  0  0  0  0
  4 13  2  0  0  0  0
  5  8  1  0  0  0  0
  5  3  2  0  0  0  0
  7  1  2  0  0  0  0
  7  4  1  0  0  0  0
  8 12  1  0  0  0  0
  9 11  1  0  0  0  0
 10  6  1  0  0  0  0
 11 10  1  0  0  0  0
 12  9  2  0  0  0  0
 12  2  1  0  0  0  0
 13  3  1  0  0  0  0
 14 15  1  6  0  0  0
 14  8  1  0  0  0  0
 14 19  1  0  0  0  0
 16 15  1  0  0  0  0
 18 17  1  0  0  0  0
 18 16  1  0  0  0  0
 19 21  1  6  0  0  0
 21 20  2  0  0  0  0
 22 19  1  0  0  0  0
 22 23  1  0  0  0  0
 23 24  1  0  0  0  0
 24 27  1  0  0  0  0
 27 28  1  0  0  0  0
 28 26  1  0  0  0  0
 28 25  2  0  0  0  0
 29  7  1  0  0  0  0
 30 31  1  0  0  0  0
 30 29  1  0  0  0  0
M  END
>  <MODEL>
9

>  <REMARK>
 VINA RESULT:      -6.1      2.168      4.521
  Name = 
  12 active torsions:
  status: ('A' for Active; 'I' for Inactive)
    1  A    between atoms: C_4  and  O_14
    2  A    between atoms: C_4  and  C_19
    3  A    between atoms: N_5  and  C_26
    4  A    between atoms: N_5  and  C_28
    5  A    between atoms: C_6  and  C_19
    6  A    between atoms: C_6  and  N_20
    7  A    between atoms: C_6  and  C_28
    8  A    between atoms: C_8  and  N_18
    9  A    between atoms: C_16  and  N_18
   10  A    between atoms: N_17  and  C_22
   11  A    between atoms: C_22  and  C_26
   12  A    between atoms: C_24  and  C_28
                            x       y       z     vdW  Elec       q    Type
                         _______ _______ _______ _____ _____    ______ ____

>  <TORSDO>
F 12

$$$$
