=
 OpenBabel10232410183D

 41 45  0  0  1  0  0  0  0  0999 V2000
  186.8200  178.6670  142.2020 C   0  0  2  0  0  3  0  0  0  0  0  0
  181.9260  178.5250  142.0740 O   0  0  0  0  0  1  0  0  0  0  0  0
  184.3760  179.1080  139.3810 C   0  0  0  0  0  3  0  0  0  0  0  0
  185.5380  178.7810  141.4280 C   0  0  0  0  0  0  0  0  0  0  0  0
  184.3280  178.6100  142.1020 C   0  0  0  0  0  3  0  0  0  0  0  0
  183.1290  178.6930  141.3990 C   0  0  0  0  0  0  0  0  0  0  0  0
  185.5340  179.0090  140.0840 N   0  0  0  0  0  0  0  0  0  0  0  0
  183.1390  178.9480  140.0220 C   0  0  0  0  0  0  0  0  0  0  0  0
  181.8890  179.0940  139.3260 N   0  0  0  0  0  2  0  0  0  0  0  0
  180.7280  182.0050  136.4570 C   0  0  0  0  0  0  0  0  0  0  0  0
  180.7290  180.6370  136.1420 C   0  0  0  0  0  3  0  0  0  0  0  0
  181.1330  182.4130  137.7320 C   0  0  0  0  0  3  0  0  0  0  0  0
  181.5200  181.4670  138.6880 C   0  0  0  0  0  3  0  0  0  0  0  0
  181.5140  180.1000  138.3730 C   0  0  0  0  0  0  0  0  0  0  0  0
  181.1240  179.6940  137.0940 C   0  0  0  0  0  3  0  0  0  0  0  0
  180.8310  184.2970  135.5360 C   0  0  0  0  0  1  0  0  0  0  0  0
  180.3120  182.9730  135.5410 O   0  0  0  0  0  0  0  0  0  0  0  0
  189.8470  176.9310  141.1300 C   0  0  0  0  0  3  0  0  0  0  0  0
  188.0580  178.8180  141.3570 C   0  0  0  0  0  3  0  0  0  0  0  0
  188.9450  177.8660  141.2340 C   0  0  0  0  0  0  0  0  0  0  0  0
  191.0230  177.1460  140.2980 C   0  0  0  0  0  3  0  0  0  0  0  0
  191.2310  176.3890  139.2310 C   0  0  0  0  0  3  0  0  0  0  0  0
  193.4730  177.1230  139.1160 O   0  0  0  0  0  1  0  0  0  0  0  0
  192.4230  176.6020  138.3540 C   0  0  1  0  0  3  0  0  0  0  0  0
  193.8890  175.5170  136.6040 C   0  0  0  0  0  0  0  0  0  0  0  0
  191.6620  174.3940  137.2820 C   0  0  0  0  0  2  0  0  0  0  0  0
  191.8370  174.2680  134.8320 C   0  0  0  0  0  2  0  0  0  0  0  0
  192.8590  175.2870  137.6960 C   0  0  2  0  0  3  0  0  0  0  0  0
  195.1050  175.4280  136.9080 O   0  0  0  0  0  0  0  0  0  0  0  0
  192.2410  175.7130  134.7160 C   0  0  1  0  0  3  0  0  0  0  0  0
  191.2820  176.1260  135.6520 O   0  0  0  0  0  0  0  0  0  0  0  0
  193.5480  175.8640  135.2800 O   0  0  0  0  0  0  0  0  0  0  0  0
  190.9860  174.7850  135.9580 C   0  0  2  0  0  3  0  0  0  0  0  0
  186.8320  177.4060  143.0720 C   0  0  0  0  0  2  0  0  0  0  0  0
  187.2200  178.2150  147.6270 C   0  0  0  0  0  3  0  0  0  0  0  0
  188.8810  177.0350  146.1510 C   0  0  0  0  0  2  0  0  0  0  0  0
  188.6090  177.8050  144.8780 C   0  0  0  0  0  2  0  0  0  0  0  0
  186.1470  177.9560  145.3290 C   0  0  0  0  0  3  0  0  0  0  0  0
  188.6660  177.9890  147.3040 C   0  0  0  0  0  2  0  0  0  0  0  0
  186.1790  178.2230  146.7830 C   0  0  0  0  0  3  0  0  0  0  0  0
  187.1650  177.7310  144.4910 C   0  0  0  0  0  0  0  0  0  0  0  0
  1 19  1  6  0  0  0
  1 34  1  0  0  0  0
  3  8  2  0  0  0  0
  3  7  1  0  0  0  0
  4  5  1  0  0  0  0
  4  1  1  0  0  0  0
  6  2  1  0  0  0  0
  6  5  2  0  0  0  0
  7  4  2  0  0  0  0
  8  6  1  0  0  0  0
  9  8  1  0  0  0  0
 10 12  1  0  0  0  0
 11 10  2  0  0  0  0
 11 15  1  0  0  0  0
 12 13  2  0  0  0  0
 14 13  1  0  0  0  0
 14  9  1  0  0  0  0
 15 14  2  0  0  0  0
 16 17  1  0  0  0  0
 17 10  1  0  0  0  0
 18 20  2  0  0  0  0
 20 19  2  0  0  0  0
 21 18  1  0  0  0  0
 22 21  2  0  0  0  0
 24 23  1  1  0  0  0
 24 22  1  0  0  0  0
 25 29  2  0  0  0  0
 25 28  1  0  0  0  0
 26 28  1  0  0  0  0
 28 24  1  6  0  0  0
 30 27  1  1  0  0  0
 30 32  1  0  0  0  0
 30 31  1  0  0  0  0
 31 33  1  0  0  0  0
 32 25  1  0  0  0  0
 33 27  1  6  0  0  0
 33 26  1  0  0  0  0
 34 41  1  0  0  0  0
 36 39  1  0  0  0  0
 37 36  1  0  0  0  0
 38 40  1  0  0  0  0
 39 35  1  0  0  0  0
 40 35  2  0  0  0  0
 41 37  1  0  0  0  0
 41 38  2  0  0  0  0
M  END
>  <MODEL>
1

>  <REMARK>
 VINA RESULT:      -9.3      0.000      0.000
  Name = 
  10 active torsions:
  status: ('A' for Active; 'I' for Inactive)
    1  A    between atoms: C_2  and  O_26
    2  A    between atoms: C_3  and  C_4
    3  A    between atoms: C_8  and  C_38
    4  A    between atoms: C_10  and  C_34
    5  A    between atoms: C_10  and  C_41
    6  A    between atoms: C_15  and  C_34
    7  A    between atoms: C_18  and  N_28
    8  A    between atoms: C_21  and  C_34
    9  A    between atoms: C_22  and  C_38
   10  A    between atoms: N_28  and  C_37
                            x       y       z     vdW  Elec       q    Type
                         _______ _______ _______ _____ _____    ______ ____

>  <TORSDO>
F 10

$$$$
=
 OpenBabel10232410183D

 41 45  0  0  1  0  0  0  0  0999 V2000
  189.3410  177.6300  142.1660 C   0  0  2  0  0  3  0  0  0  0  0  0
  193.7650  177.5060  140.0680 O   0  0  0  0  0  1  0  0  0  0  0  0
  190.4740  176.4520  138.7810 C   0  0  0  0  0  3  0  0  0  0  0  0
  190.2120  177.2830  140.9910 C   0  0  0  0  0  0  0  0  0  0  0  0
  191.5810  177.5440  141.0700 C   0  0  0  0  0  3  0  0  0  0  0  0
  192.4020  177.2480  139.9840 C   0  0  0  0  0  0  0  0  0  0  0  0
  189.6890  176.7610  139.8460 N   0  0  0  0  0  0  0  0  0  0  0  0
  191.8550  176.6920  138.8210 C   0  0  0  0  0  0  0  0  0  0  0  0
  192.7290  176.3350  137.7370 N   0  0  0  0  0  2  0  0  0  0  0  0
  194.4610  172.5370  136.9430 C   0  0  0  0  0  0  0  0  0  0  0  0
  195.0520  173.4270  137.8540 C   0  0  0  0  0  3  0  0  0  0  0  0
  193.2920  172.9180  136.2770 C   0  0  0  0  0  3  0  0  0  0  0  0
  192.7100  174.1660  136.5260 C   0  0  0  0  0  3  0  0  0  0  0  0
  193.2990  175.0520  137.4400 C   0  0  0  0  0  0  0  0  0  0  0  0
  194.4750  174.6770  138.0950 C   0  0  0  0  0  3  0  0  0  0  0  0
  195.9880  170.6840  137.5330 C   0  0  0  0  0  1  0  0  0  0  0  0
  194.9940  171.2690  136.7010 O   0  0  0  0  0  0  0  0  0  0  0  0
  185.9730  178.0380  143.5120 C   0  0  0  0  0  3  0  0  0  0  0  0
  187.9340  178.0110  141.7890 C   0  0  0  0  0  3  0  0  0  0  0  0
  186.9560  178.0370  142.6570 C   0  0  0  0  0  0  0  0  0  0  0  0
  184.6340  178.4140  143.0780 C   0  0  0  0  0  3  0  0  0  0  0  0
  184.1900  178.0400  141.8870 C   0  0  0  0  0  3  0  0  0  0  0  0
  182.1800  179.1630  142.4130 O   0  0  0  0  0  1  0  0  0  0  0  0
  182.8140  178.4020  141.4270 C   0  0  1  0  0  3  0  0  0  0  0  0
  181.5050  179.2730  139.4490 C   0  0  0  0  0  0  0  0  0  0  0  0
  184.0180  178.7340  139.1810 C   0  0  0  0  0  2  0  0  0  0  0  0
  182.8600  177.8580  137.1960 C   0  0  0  0  0  2  0  0  0  0  0  0
  182.8680  179.1910  140.1130 C   0  0  2  0  0  3  0  0  0  0  0  0
  180.7900  180.2790  139.6840 O   0  0  0  0  0  0  0  0  0  0  0  0
  181.7770  177.2200  138.0230 C   0  0  1  0  0  3  0  0  0  0  0  0
  182.6920  176.7360  138.9700 O   0  0  0  0  0  0  0  0  0  0  0  0
  180.9890  178.2580  138.6150 O   0  0  0  0  0  0  0  0  0  0  0  0
  183.7260  177.4670  138.3610 C   0  0  2  0  0  3  0  0  0  0  0  0
  190.0220  178.6540  143.0780 C   0  0  0  0  0  2  0  0  0  0  0  0
  189.9730  176.8260  147.3450 C   0  0  0  0  0  3  0  0  0  0  0  0
  191.6060  176.3220  145.4990 C   0  0  0  0  0  2  0  0  0  0  0  0
  191.6070  177.6860  144.8450 C   0  0  0  0  0  2  0  0  0  0  0  0
  189.1590  178.0380  145.2550 C   0  0  0  0  0  3  0  0  0  0  0  0
  191.3980  176.5370  146.9810 C   0  0  0  0  0  2  0  0  0  0  0  0
  189.0540  177.4790  146.6210 C   0  0  0  0  0  3  0  0  0  0  0  0
  190.2250  178.1050  144.4510 C   0  0  0  0  0  0  0  0  0  0  0  0
  1 19  1  6  0  0  0
  1 34  1  0  0  0  0
  3  8  2  0  0  0  0
  3  7  1  0  0  0  0
  4  5  1  0  0  0  0
  4  1  1  0  0  0  0
  6  2  1  0  0  0  0
  6  5  2  0  0  0  0
  7  4  2  0  0  0  0
  8  6  1  0  0  0  0
  9  8  1  0  0  0  0
 10 11  1  0  0  0  0
 11 15  2  0  0  0  0
 12 13  1  0  0  0  0
 12 10  2  0  0  0  0
 13 14  2  0  0  0  0
 14  9  1  0  0  0  0
 14 15  1  0  0  0  0
 17 10  1  0  0  0  0
 17 16  1  0  0  0  0
 19 20  2  0  0  0  0
 20 18  2  0  0  0  0
 21 18  1  0  0  0  0
 22 21  2  0  0  0  0
 24 22  1  0  0  0  0
 24 23  1  1  0  0  0
 25 29  2  0  0  0  0
 25 28  1  0  0  0  0
 26 28  1  0  0  0  0
 28 24  1  1  0  0  0
 30 27  1  6  0  0  0
 30 32  1  0  0  0  0
 30 31  1  0  0  0  0
 32 25  1  0  0  0  0
 33 27  1  6  0  0  0
 33 31  1  0  0  0  0
 33 26  1  0  0  0  0
 34 41  1  0  0  0  0
 36 39  1  0  0  0  0
 37 36  1  0  0  0  0
 38 40  1  0  0  0  0
 39 35  1  0  0  0  0
 40 35  2  0  0  0  0
 41 37  1  0  0  0  0
 41 38  2  0  0  0  0
M  END
>  <MODEL>
2

>  <REMARK>
 VINA RESULT:      -8.9      2.832     10.272
  Name = 
  10 active torsions:
  status: ('A' for Active; 'I' for Inactive)
    1  A    between atoms: C_2  and  O_26
    2  A    between atoms: C_3  and  C_4
    3  A    between atoms: C_8  and  C_38
    4  A    between atoms: C_10  and  C_34
    5  A    between atoms: C_10  and  C_41
    6  A    between atoms: C_15  and  C_34
    7  A    between atoms: C_18  and  N_28
    8  A    between atoms: C_21  and  C_34
    9  A    between atoms: C_22  and  C_38
   10  A    between atoms: N_28  and  C_37
                            x       y       z     vdW  Elec       q    Type
                         _______ _______ _______ _____ _____    ______ ____

>  <TORSDO>
F 10

$$$$
=
 OpenBabel10232410183D

 41 45  0  0  1  0  0  0  0  0999 V2000
  187.4470  178.3200  143.0240 C   0  0  2  0  0  3  0  0  0  0  0  0
  184.7750  179.7450  139.1750 O   0  0  0  0  0  1  0  0  0  0  0  0
  183.7480  178.2080  142.3650 C   0  0  0  0  0  3  0  0  0  0  0  0
  186.1110  178.4590  142.3510 C   0  0  0  0  0  0  0  0  0  0  0  0
  186.0560  179.0270  141.0770 C   0  0  0  0  0  3  0  0  0  0  0  0
  184.8250  179.1820  140.4440 C   0  0  0  0  0  0  0  0  0  0  0  0
  184.9580  178.0800  142.9710 N   0  0  0  0  0  0  0  0  0  0  0  0
  183.6500  178.7690  141.0840 C   0  0  0  0  0  0  0  0  0  0  0  0
  182.3960  178.8780  140.3880 N   0  0  0  0  0  2  0  0  0  0  0  0
  180.5590  176.0120  137.8460 C   0  0  0  0  0  0  0  0  0  0  0  0
  181.2800  177.0940  137.3160 C   0  0  0  0  0  3  0  0  0  0  0  0
  180.4320  175.8890  139.2330 C   0  0  0  0  0  3  0  0  0  0  0  0
  181.0300  176.8260  140.0840 C   0  0  0  0  0  3  0  0  0  0  0  0
  181.7550  177.9030  139.5530 C   0  0  0  0  0  0  0  0  0  0  0  0
  181.8690  178.0330  138.1670 C   0  0  0  0  0  3  0  0  0  0  0  0
  180.7370  174.2880  136.0830 C   0  0  0  0  0  1  0  0  0  0  0  0
  179.9830  175.0380  137.0270 O   0  0  0  0  0  0  0  0  0  0  0  0
  189.8260  176.7120  140.7690 C   0  0  0  0  0  3  0  0  0  0  0  0
  188.6170  178.5940  142.1150 C   0  0  0  0  0  3  0  0  0  0  0  0
  189.2120  177.6520  141.4310 C   0  0  0  0  0  0  0  0  0  0  0  0
  190.9540  177.0480  139.9110 C   0  0  0  0  0  3  0  0  0  0  0  0
  191.3760  176.1850  138.9980 C   0  0  0  0  0  3  0  0  0  0  0  0
  193.5340  177.1320  138.8390 O   0  0  0  0  0  1  0  0  0  0  0  0
  192.5230  176.5150  138.0970 C   0  0  1  0  0  3  0  0  0  0  0  0
  194.0450  175.5800  136.3090 C   0  0  0  0  0  0  0  0  0  0  0  0
  191.9560  174.2440  137.0350 C   0  0  0  0  0  2  0  0  0  0  0  0
  192.0820  174.1390  134.5810 C   0  0  0  0  0  2  0  0  0  0  0  0
  193.0690  175.2490  137.4240 C   0  0  2  0  0  3  0  0  0  0  0  0
  195.2710  175.6110  136.5830 O   0  0  0  0  0  0  0  0  0  0  0  0
  192.3400  175.6170  134.4610 C   0  0  1  0  0  3  0  0  0  0  0  0
  191.3680  175.9330  135.4220 O   0  0  0  0  0  0  0  0  0  0  0  0
  193.6400  175.8940  134.9940 O   0  0  0  0  0  0  0  0  0  0  0  0
  191.2130  174.5690  135.7290 C   0  0  2  0  0  3  0  0  0  0  0  0
  187.5590  176.9860  143.7670 C   0  0  0  0  0  2  0  0  0  0  0  0
  189.0990  177.8360  148.0640 C   0  0  0  0  0  3  0  0  0  0  0  0
  186.8970  178.5470  147.0750 C   0  0  0  0  0  2  0  0  0  0  0  0
  186.6950  177.3670  146.1510 C   0  0  0  0  0  2  0  0  0  0  0  0
  189.1340  177.2060  145.5940 C   0  0  0  0  0  3  0  0  0  0  0  0
  187.6310  178.0400  148.2950 C   0  0  0  0  0  2  0  0  0  0  0  0
  189.7110  177.4620  146.9320 C   0  0  0  0  0  3  0  0  0  0  0  0
  187.8510  177.1980  145.2160 C   0  0  0  0  0  0  0  0  0  0  0  0
  1 19  1  6  0  0  0
  1 34  1  0  0  0  0
  2  6  1  0  0  0  0
  3  7  1  0  0  0  0
  4  7  2  0  0  0  0
  4  1  1  0  0  0  0
  5  4  1  0  0  0  0
  6  5  2  0  0  0  0
  6  8  1  0  0  0  0
  8  3  2  0  0  0  0
  9  8  1  0  0  0  0
 10 12  1  0  0  0  0
 11 10  2  0  0  0  0
 11 15  1  0  0  0  0
 12 13  2  0  0  0  0
 14 13  1  0  0  0  0
 14  9  1  0  0  0  0
 15 14  2  0  0  0  0
 16 17  1  0  0  0  0
 17 10  1  0  0  0  0
 18 20  2  0  0  0  0
 20 19  2  0  0  0  0
 21 18  1  0  0  0  0
 22 21  2  0  0  0  0
 24 23  1  1  0  0  0
 24 22  1  0  0  0  0
 25 29  2  0  0  0  0
 25 28  1  0  0  0  0
 26 28  1  0  0  0  0
 28 24  1  6  0  0  0
 30 27  1  1  0  0  0
 30 32  1  0  0  0  0
 30 31  1  0  0  0  0
 31 33  1  0  0  0  0
 32 25  1  0  0  0  0
 33 27  1  6  0  0  0
 33 26  1  0  0  0  0
 34 41  1  0  0  0  0
 35 39  1  0  0  0  0
 36 39  1  0  0  0  0
 37 36  1  0  0  0  0
 38 40  1  0  0  0  0
 40 35  2  0  0  0  0
 41 38  2  0  0  0  0
 41 37  1  0  0  0  0
M  END
>  <MODEL>
3

>  <REMARK>
 VINA RESULT:      -8.4      2.251      3.105
  Name = 
  10 active torsions:
  status: ('A' for Active; 'I' for Inactive)
    1  A    between atoms: C_2  and  O_26
    2  A    between atoms: C_3  and  C_4
    3  A    between atoms: C_8  and  C_38
    4  A    between atoms: C_10  and  C_34
    5  A    between atoms: C_10  and  C_41
    6  A    between atoms: C_15  and  C_34
    7  A    between atoms: C_18  and  N_28
    8  A    between atoms: C_21  and  C_34
    9  A    between atoms: C_22  and  C_38
   10  A    between atoms: N_28  and  C_37
                            x       y       z     vdW  Elec       q    Type
                         _______ _______ _______ _____ _____    ______ ____

>  <TORSDO>
F 10

$$$$
=
 OpenBabel10232410183D

 41 45  0  0  1  0  0  0  0  0999 V2000
  186.9220  177.7720  142.8940 C   0  0  2  0  0  3  0  0  0  0  0  0
  188.2420  178.8690  138.3070 O   0  0  0  0  0  1  0  0  0  0  0  0
  189.9420  176.8280  140.8640 C   0  0  0  0  0  3  0  0  0  0  0  0
  187.9110  177.6680  141.7680 C   0  0  0  0  0  0  0  0  0  0  0  0
  187.6300  178.3180  140.5640 C   0  0  0  0  0  3  0  0  0  0  0  0
  188.5240  178.2180  139.5020 C   0  0  0  0  0  0  0  0  0  0  0  0
  189.0490  176.9260  141.8830 N   0  0  0  0  0  0  0  0  0  0  0  0
  189.7000  177.4700  139.6410 C   0  0  0  0  0  0  0  0  0  0  0  0
  190.6410  177.4320  138.5550 N   0  0  0  0  0  2  0  0  0  0  0  0
  193.2600  174.2790  137.4390 C   0  0  0  0  0  0  0  0  0  0  0  0
  191.8740  174.1710  137.2470 C   0  0  0  0  0  3  0  0  0  0  0  0
  193.7810  175.4380  138.0230 C   0  0  0  0  0  3  0  0  0  0  0  0
  192.9320  176.4850  138.3980 C   0  0  0  0  0  3  0  0  0  0  0  0
  191.5470  176.3780  138.1990 C   0  0  0  0  0  0  0  0  0  0  0  0
  191.0260  175.2140  137.6300 C   0  0  0  0  0  3  0  0  0  0  0  0
  195.1560  172.7600  137.8960 C   0  0  0  0  0  1  0  0  0  0  0  0
  194.1400  173.2700  137.0420 O   0  0  0  0  0  0  0  0  0  0  0  0
  183.6240  178.7900  144.0810 C   0  0  0  0  0  3  0  0  0  0  0  0
  185.5100  178.0370  142.4410 C   0  0  0  0  0  3  0  0  0  0  0  0
  184.5710  178.4280  143.2620 C   0  0  0  0  0  0  0  0  0  0  0  0
  182.2790  179.0260  143.5760 C   0  0  0  0  0  3  0  0  0  0  0  0
  181.9850  178.7560  142.3120 C   0  0  0  0  0  3  0  0  0  0  0  0
  180.3180  180.3440  141.7820 O   0  0  0  0  0  1  0  0  0  0  0  0
  180.6060  178.9760  141.7760 C   0  0  1  0  0  3  0  0  0  0  0  0
  181.2870  177.1490  140.1680 C   0  0  0  0  0  0  0  0  0  0  0  0
  180.7120  179.5000  139.2620 C   0  0  0  0  0  2  0  0  0  0  0  0
  182.7280  178.7280  138.0830 C   0  0  0  0  0  2  0  0  0  0  0  0
  180.4800  178.4230  140.3510 C   0  0  2  0  0  3  0  0  0  0  0  0
  180.7040  176.0480  140.3340 O   0  0  0  0  0  0  0  0  0  0  0  0
  183.3850  178.2750  139.3580 C   0  0  1  0  0  3  0  0  0  0  0  0
  182.9850  179.4250  140.0530 O   0  0  0  0  0  0  0  0  0  0  0  0
  182.6650  177.1440  139.8610 O   0  0  0  0  0  0  0  0  0  0  0  0
  182.1860  179.8180  138.9650 C   0  0  2  0  0  3  0  0  0  0  0  0
  187.4060  178.7490  143.9690 C   0  0  0  0  0  2  0  0  0  0  0  0
  189.6080  176.7360  147.5260 C   0  0  0  0  0  3  0  0  0  0  0  0
  187.4460  178.0200  147.6130 C   0  0  0  0  0  2  0  0  0  0  0  0
  186.9330  177.6530  146.2380 C   0  0  0  0  0  2  0  0  0  0  0  0
  189.2180  177.7300  145.2110 C   0  0  0  0  0  3  0  0  0  0  0  0
  188.2370  176.8370  148.1250 C   0  0  0  0  0  2  0  0  0  0  0  0
  189.9980  177.0910  146.2940 C   0  0  0  0  0  3  0  0  0  0  0  0
  187.9140  178.0230  145.1710 C   0  0  0  0  0  0  0  0  0  0  0  0
  1 19  1  6  0  0  0
  1 34  1  0  0  0  0
  2  6  1  0  0  0  0
  3  7  1  0  0  0  0
  4  7  2  0  0  0  0
  4  1  1  0  0  0  0
  5  4  1  0  0  0  0
  6  8  1  0  0  0  0
  6  5  2  0  0  0  0
  8  3  2  0  0  0  0
  9  8  1  0  0  0  0
 10 12  1  0  0  0  0
 11 10  2  0  0  0  0
 11 15  1  0  0  0  0
 12 13  2  0  0  0  0
 14 13  1  0  0  0  0
 14  9  1  0  0  0  0
 15 14  2  0  0  0  0
 17 10  1  0  0  0  0
 17 16  1  0  0  0  0
 19 20  2  0  0  0  0
 20 18  2  0  0  0  0
 21 18  1  0  0  0  0
 22 21  2  0  0  0  0
 24 23  1  6  0  0  0
 24 22  1  0  0  0  0
 25 29  2  0  0  0  0
 25 28  1  0  0  0  0
 26 28  1  0  0  0  0
 28 24  1  1  0  0  0
 30 27  1  6  0  0  0
 30 32  1  0  0  0  0
 30 31  1  0  0  0  0
 32 25  1  0  0  0  0
 33 27  1  6  0  0  0
 33 26  1  0  0  0  0
 33 31  1  0  0  0  0
 34 41  1  0  0  0  0
 35 39  1  0  0  0  0
 36 39  1  0  0  0  0
 37 36  1  0  0  0  0
 38 40  1  0  0  0  0
 40 35  2  0  0  0  0
 41 38  2  0  0  0  0
 41 37  1  0  0  0  0
M  END
>  <MODEL>
4

>  <REMARK>
 VINA RESULT:      -8.3      2.707      9.706
  Name = 
  10 active torsions:
  status: ('A' for Active; 'I' for Inactive)
    1  A    between atoms: C_2  and  O_26
    2  A    between atoms: C_3  and  C_4
    3  A    between atoms: C_8  and  C_38
    4  A    between atoms: C_10  and  C_34
    5  A    between atoms: C_10  and  C_41
    6  A    between atoms: C_15  and  C_34
    7  A    between atoms: C_18  and  N_28
    8  A    between atoms: C_21  and  C_34
    9  A    between atoms: C_22  and  C_38
   10  A    between atoms: N_28  and  C_37
                            x       y       z     vdW  Elec       q    Type
                         _______ _______ _______ _____ _____    ______ ____

>  <TORSDO>
F 10

$$$$
=
 OpenBabel10232410183D

 41 45  0  0  1  0  0  0  0  0999 V2000
  184.4890  178.8400  139.3700 C   0  0  2  0  0  3  0  0  0  0  0  0
  185.4610  175.3420  136.0840 O   0  0  0  0  0  1  0  0  0  0  0  0
  187.4880  178.2150  137.1930 C   0  0  0  0  0  3  0  0  0  0  0  0
  185.4160  178.2340  138.3550 C   0  0  0  0  0  0  0  0  0  0  0  0
  185.0140  177.0790  137.6830 C   0  0  0  0  0  3  0  0  0  0  0  0
  185.8670  176.4900  136.7520 C   0  0  0  0  0  0  0  0  0  0  0  0
  186.6470  178.7640  138.1070 N   0  0  0  0  0  0  0  0  0  0  0  0
  187.1200  177.0580  136.4920 C   0  0  0  0  0  0  0  0  0  0  0  0
  187.9590  176.4730  135.4810 N   0  0  0  0  0  2  0  0  0  0  0  0
  191.6570  174.4520  136.0200 C   0  0  0  0  0  0  0  0  0  0  0  0
  190.5890  174.2580  136.9090 C   0  0  0  0  0  3  0  0  0  0  0  0
  191.5020  175.3390  134.9490 C   0  0  0  0  0  3  0  0  0  0  0  0
  190.2910  176.0140  134.7590 C   0  0  0  0  0  3  0  0  0  0  0  0
  189.2230  175.8140  135.6460 C   0  0  0  0  0  0  0  0  0  0  0  0
  189.3830  174.9390  136.7230 C   0  0  0  0  0  3  0  0  0  0  0  0
  193.6830  173.8810  137.3160 C   0  0  0  0  0  1  0  0  0  0  0  0
  192.8660  173.7660  136.1570 O   0  0  0  0  0  0  0  0  0  0  0  0
  183.4910  178.7670  142.8810 C   0  0  0  0  0  3  0  0  0  0  0  0
  185.0320  178.8260  140.7750 C   0  0  0  0  0  3  0  0  0  0  0  0
  184.2580  178.7820  141.8280 C   0  0  0  0  0  0  0  0  0  0  0  0
  184.0840  178.7590  144.2110 C   0  0  0  0  0  3  0  0  0  0  0  0
  185.4010  178.7690  144.3530 C   0  0  0  0  0  3  0  0  0  0  0  0
  185.0430  178.9670  146.6800 O   0  0  0  0  0  1  0  0  0  0  0  0
  186.0310  178.7760  145.7090 C   0  0  1  0  0  3  0  0  0  0  0  0
  187.8960  177.6370  146.9800 C   0  0  0  0  0  0  0  0  0  0  0  0
  187.1790  176.7240  144.6710 C   0  0  0  0  0  2  0  0  0  0  0  0
  189.6380  176.7150  144.7380 C   0  0  0  0  0  2  0  0  0  0  0  0
  186.7730  177.4590  145.9730 C   0  0  2  0  0  3  0  0  0  0  0  0
  187.6510  177.4020  148.1900 O   0  0  0  0  0  0  0  0  0  0  0  0
  189.6980  178.1120  145.2920 C   0  0  1  0  0  3  0  0  0  0  0  0
  188.7010  178.5730  144.4200 O   0  0  0  0  0  0  0  0  0  0  0  0
  189.1850  178.0910  146.6290 O   0  0  0  0  0  0  0  0  0  0  0  0
  188.4510  177.2580  143.9920 C   0  0  2  0  0  3  0  0  0  0  0  0
  183.0820  178.2460  139.2610 C   0  0  0  0  0  2  0  0  0  0  0  0
  180.6670  181.6340  137.2010 C   0  0  0  0  0  3  0  0  0  0  0  0
  181.1290  179.3350  136.2910 C   0  0  0  0  0  2  0  0  0  0  0  0
  181.1510  178.5920  137.6090 C   0  0  0  0  0  2  0  0  0  0  0  0
  182.2690  180.4840  138.8170 C   0  0  0  0  0  3  0  0  0  0  0  0
  180.1340  180.4640  136.4310 C   0  0  0  0  0  2  0  0  0  0  0  0
  181.5430  181.6240  138.2150 C   0  0  0  0  0  3  0  0  0  0  0  0
  182.1560  179.1790  138.5510 C   0  0  0  0  0  0  0  0  0  0  0  0
  1 34  1  1  0  0  0
  1 19  1  0  0  0  0
  2  6  1  0  0  0  0
  3  7  1  0  0  0  0
  4  1  1  0  0  0  0
  5  4  1  0  0  0  0
  6  5  2  0  0  0  0
  7  4  2  0  0  0  0
  8  6  1  0  0  0  0
  8  3  2  0  0  0  0
  9 14  1  0  0  0  0
  9  8  1  0  0  0  0
 10 17  1  0  0  0  0
 10 11  1  0  0  0  0
 12 10  2  0  0  0  0
 13 12  1  0  0  0  0
 13 14  2  0  0  0  0
 14 15  1  0  0  0  0
 15 11  2  0  0  0  0
 17 16  1  0  0  0  0
 18 21  1  0  0  0  0
 19 20  2  0  0  0  0
 20 18  2  0  0  0  0
 21 22  2  0  0  0  0
 22 24  1  0  0  0  0
 24 23  1  1  0  0  0
 25 29  2  0  0  0  0
 26 28  1  0  0  0  0
 28 24  1  6  0  0  0
 28 25  1  0  0  0  0
 30 27  1  6  0  0  0
 30 32  1  0  0  0  0
 31 30  1  0  0  0  0
 32 25  1  0  0  0  0
 33 31  1  0  0  0  0
 33 26  1  1  0  0  0
 33 27  1  0  0  0  0
 35 40  2  0  0  0  0
 36 39  1  0  0  0  0
 36 37  1  0  0  0  0
 37 41  1  0  0  0  0
 39 35  1  0  0  0  0
 40 38  1  0  0  0  0
 41 38  2  0  0  0  0
 41 34  1  0  0  0  0
M  END
>  <MODEL>
5

>  <REMARK>
 VINA RESULT:      -8.2      3.158      9.830
  Name = 
  10 active torsions:
  status: ('A' for Active; 'I' for Inactive)
    1  A    between atoms: C_2  and  O_26
    2  A    between atoms: C_3  and  C_4
    3  A    between atoms: C_8  and  C_38
    4  A    between atoms: C_10  and  C_34
    5  A    between atoms: C_10  and  C_41
    6  A    between atoms: C_15  and  C_34
    7  A    between atoms: C_18  and  N_28
    8  A    between atoms: C_21  and  C_34
    9  A    between atoms: C_22  and  C_38
   10  A    between atoms: N_28  and  C_37
                            x       y       z     vdW  Elec       q    Type
                         _______ _______ _______ _____ _____    ______ ____

>  <TORSDO>
F 10

$$$$
=
 OpenBabel10232410183D

 41 45  0  0  1  0  0  0  0  0999 V2000
  190.2620  176.7570  137.9010 C   0  0  2  0  0  3  0  0  0  0  0  0
  187.4100  178.8790  141.2690 O   0  0  0  0  0  1  0  0  0  0  0  0
  190.2280  176.5340  141.6530 C   0  0  0  0  0  3  0  0  0  0  0  0
  189.8820  176.9560  139.3410 C   0  0  0  0  0  0  0  0  0  0  0  0
  188.8220  177.8140  139.6430 C   0  0  0  0  0  3  0  0  0  0  0  0
  188.4660  178.0270  140.9720 C   0  0  0  0  0  0  0  0  0  0  0  0
  190.5690  176.3510  140.3500 N   0  0  0  0  0  0  0  0  0  0  0  0
  189.1670  177.3820  141.9990 C   0  0  0  0  0  0  0  0  0  0  0  0
  188.7420  177.5650  143.3610 N   0  0  0  0  0  2  0  0  0  0  0  0
  190.9140  176.9430  146.9590 C   0  0  0  0  0  0  0  0  0  0  0  0
  189.5110  176.9920  146.9580 C   0  0  0  0  0  3  0  0  0  0  0  0
  191.6040  177.1200  145.7550 C   0  0  0  0  0  3  0  0  0  0  0  0
  190.9040  177.3270  144.5620 C   0  0  0  0  0  3  0  0  0  0  0  0
  189.5020  177.3690  144.5630 C   0  0  0  0  0  0  0  0  0  0  0  0
  188.8130  177.2080  145.7670 C   0  0  0  0  0  3  0  0  0  0  0  0
  192.7330  175.7870  148.1690 C   0  0  0  0  0  1  0  0  0  0  0  0
  191.6430  176.6990  148.1250 O   0  0  0  0  0  0  0  0  0  0  0  0
  192.7230  175.7830  135.3870 C   0  0  0  0  0  3  0  0  0  0  0  0
  191.7340  176.5180  137.6880 C   0  0  0  0  0  3  0  0  0  0  0  0
  192.2290  176.1640  136.5310 C   0  0  0  0  0  0  0  0  0  0  0  0
  194.1570  175.5660  135.2530 C   0  0  0  0  0  3  0  0  0  0  0  0
  194.8810  175.2210  136.3080 C   0  0  0  0  0  3  0  0  0  0  0  0
  197.0280  176.2010  136.2230 O   0  0  0  0  0  1  0  0  0  0  0  0
  196.3510  174.9780  136.1900 C   0  0  1  0  0  3  0  0  0  0  0  0
  197.9820  174.7250  138.1050 C   0  0  0  0  0  0  0  0  0  0  0  0
  197.1240  172.6230  136.8700 C   0  0  0  0  0  2  0  0  0  0  0  0
  199.5420  172.3400  137.2160 C   0  0  0  0  0  2  0  0  0  0  0  0
  196.8490  174.0770  137.3280 C   0  0  2  0  0  3  0  0  0  0  0  0
  197.6950  175.3770  139.1400 O   0  0  0  0  0  0  0  0  0  0  0  0
  199.8460  173.7330  136.7390 C   0  0  1  0  0  3  0  0  0  0  0  0
  198.9480  173.6330  135.6650 O   0  0  0  0  0  0  0  0  0  0  0  0
  199.3320  174.6630  137.6990 O   0  0  0  0  0  0  0  0  0  0  0  0
  198.4720  172.4080  136.1630 C   0  0  2  0  0  3  0  0  0  0  0  0
  189.6980  177.8740  137.0180 C   0  0  0  0  0  2  0  0  0  0  0  0
  186.2990  175.7730  134.6550 C   0  0  0  0  0  3  0  0  0  0  0  0
  186.0410  177.4970  136.4690 C   0  0  0  0  0  2  0  0  0  0  0  0
  187.3050  178.2800  136.1900 C   0  0  0  0  0  2  0  0  0  0  0  0
  188.6180  176.2240  135.6120 C   0  0  0  0  0  3  0  0  0  0  0  0
  185.5400  176.9710  135.1430 C   0  0  0  0  0  2  0  0  0  0  0  0
  187.5950  175.4870  134.8380 C   0  0  0  0  0  3  0  0  0  0  0  0
  188.5160  177.4010  136.2380 C   0  0  0  0  0  0  0  0  0  0  0  0
  1 34  1  6  0  0  0
  1  4  1  0  0  0  0
  3  8  1  0  0  0  0
  4  5  2  0  0  0  0
  4  7  1  0  0  0  0
  5  6  1  0  0  0  0
  6  2  1  0  0  0  0
  6  8  2  0  0  0  0
  7  3  2  0  0  0  0
  8  9  1  0  0  0  0
  9 14  1  0  0  0  0
 10 17  1  0  0  0  0
 11 10  1  0  0  0  0
 12 10  2  0  0  0  0
 13 14  2  0  0  0  0
 13 12  1  0  0  0  0
 14 15  1  0  0  0  0
 15 11  2  0  0  0  0
 17 16  1  0  0  0  0
 18 20  2  0  0  0  0
 19  1  1  0  0  0  0
 20 19  2  0  0  0  0
 21 18  1  0  0  0  0
 21 22  2  0  0  0  0
 24 23  1  1  0  0  0
 24 22  1  0  0  0  0
 25 29  2  0  0  0  0
 26 28  1  0  0  0  0
 28 24  1  6  0  0  0
 28 25  1  0  0  0  0
 30 27  1  1  0  0  0
 30 32  1  0  0  0  0
 31 33  1  0  0  0  0
 31 30  1  0  0  0  0
 32 25  1  0  0  0  0
 33 26  1  1  0  0  0
 33 27  1  0  0  0  0
 35 40  2  0  0  0  0
 35 39  1  0  0  0  0
 37 41  1  0  0  0  0
 37 36  1  0  0  0  0
 38 41  2  0  0  0  0
 39 36  1  0  0  0  0
 40 38  1  0  0  0  0
 41 34  1  0  0  0  0
M  END
>  <MODEL>
6

>  <REMARK>
 VINA RESULT:      -7.9      4.314      9.315
  Name = 
  10 active torsions:
  status: ('A' for Active; 'I' for Inactive)
    1  A    between atoms: C_2  and  O_26
    2  A    between atoms: C_3  and  C_4
    3  A    between atoms: C_8  and  C_38
    4  A    between atoms: C_10  and  C_34
    5  A    between atoms: C_10  and  C_41
    6  A    between atoms: C_15  and  C_34
    7  A    between atoms: C_18  and  N_28
    8  A    between atoms: C_21  and  C_34
    9  A    between atoms: C_22  and  C_38
   10  A    between atoms: N_28  and  C_37
                            x       y       z     vdW  Elec       q    Type
                         _______ _______ _______ _____ _____    ______ ____

>  <TORSDO>
F 10

$$$$
=
 OpenBabel10232410183D

 41 45  0  0  1  0  0  0  0  0999 V2000
  187.7490  178.3610  141.5550 C   0  0  2  0  0  3  0  0  0  0  0  0
  183.0200  178.7930  142.7540 O   0  0  0  0  0  1  0  0  0  0  0  0
  184.6870  179.0030  139.4720 C   0  0  0  0  0  3  0  0  0  0  0  0
  186.3230  178.6030  141.1470 C   0  0  0  0  0  0  0  0  0  0  0  0
  185.3330  178.5960  142.1310 C   0  0  0  0  0  3  0  0  0  0  0  0
  184.0020  178.7980  141.7720 C   0  0  0  0  0  0  0  0  0  0  0  0
  185.9760  178.7890  139.8420 N   0  0  0  0  0  0  0  0  0  0  0  0
  183.6620  179.0100  140.4300 C   0  0  0  0  0  0  0  0  0  0  0  0
  182.2920  179.2810  140.0870 N   0  0  0  0  0  2  0  0  0  0  0  0
  180.8000  181.0600  136.5300 C   0  0  0  0  0  0  0  0  0  0  0  0
  181.1120  181.8400  137.6540 C   0  0  0  0  0  3  0  0  0  0  0  0
  180.9700  179.6730  136.5920 C   0  0  0  0  0  3  0  0  0  0  0  0
  181.4580  179.0720  137.7570 C   0  0  0  0  0  3  0  0  0  0  0  0
  181.7750  179.8540  138.8780 C   0  0  0  0  0  0  0  0  0  0  0  0
  181.5910  181.2370  138.8200 C   0  0  0  0  0  3  0  0  0  0  0  0
  180.3500  183.0360  135.1140 C   0  0  0  0  0  1  0  0  0  0  0  0
  180.3470  181.6310  135.3390 O   0  0  0  0  0  0  0  0  0  0  0  0
  189.3540  176.3970  138.9300 C   0  0  0  0  0  3  0  0  0  0  0  0
  188.7310  178.4500  140.4160 C   0  0  0  0  0  3  0  0  0  0  0  0
  189.0310  177.4240  139.6640 C   0  0  0  0  0  0  0  0  0  0  0  0
  190.3160  176.5540  137.8470 C   0  0  0  0  0  3  0  0  0  0  0  0
  191.0270  175.5150  137.4320 C   0  0  0  0  0  3  0  0  0  0  0  0
  191.5100  176.5480  135.3630 O   0  0  0  0  0  1  0  0  0  0  0  0
  192.0080  175.6500  136.3120 C   0  0  1  0  0  3  0  0  0  0  0  0
  194.4060  176.1960  135.7270 C   0  0  0  0  0  0  0  0  0  0  0  0
  193.8220  175.4060  138.1170 C   0  0  0  0  0  2  0  0  0  0  0  0
  195.8730  174.2340  137.4330 C   0  0  0  0  0  2  0  0  0  0  0  0
  193.3650  176.1410  136.8320 C   0  0  2  0  0  3  0  0  0  0  0  0
  194.5720  177.2840  135.1220 O   0  0  0  0  0  0  0  0  0  0  0  0
  195.3030  173.8750  136.0880 C   0  0  1  0  0  3  0  0  0  0  0  0
  194.0590  173.5240  136.6330 O   0  0  0  0  0  0  0  0  0  0  0  0
  195.1620  175.0760  135.3210 O   0  0  0  0  0  0  0  0  0  0  0  0
  194.4550  174.0240  137.8860 C   0  0  2  0  0  3  0  0  0  0  0  0
  187.8820  177.0710  142.3680 C   0  0  0  0  0  2  0  0  0  0  0  0
  188.2750  177.6400  146.9590 C   0  0  0  0  0  3  0  0  0  0  0  0
  190.0830  176.9290  145.3600 C   0  0  0  0  0  2  0  0  0  0  0  0
  189.6090  177.7080  144.1530 C   0  0  0  0  0  2  0  0  0  0  0  0
  187.1890  177.3170  144.6750 C   0  0  0  0  0  3  0  0  0  0  0  0
  189.7230  177.7400  146.5850 C   0  0  0  0  0  2  0  0  0  0  0  0
  187.2220  177.4890  146.1440 C   0  0  0  0  0  3  0  0  0  0  0  0
  188.1970  177.3630  143.7980 C   0  0  0  0  0  0  0  0  0  0  0  0
  1 19  1  6  0  0  0
  1 34  1  0  0  0  0
  3  7  2  0  0  0  0
  3  8  1  0  0  0  0
  4  1  1  0  0  0  0
  4  5  2  0  0  0  0
  6  5  1  0  0  0  0
  6  2  1  0  0  0  0
  7  4  1  0  0  0  0
  8  6  2  0  0  0  0
  9  8  1  0  0  0  0
 10 12  2  0  0  0  0
 10 11  1  0  0  0  0
 11 15  2  0  0  0  0
 12 13  1  0  0  0  0
 13 14  2  0  0  0  0
 14  9  1  0  0  0  0
 15 14  1  0  0  0  0
 16 17  1  0  0  0  0
 17 10  1  0  0  0  0
 18 20  2  0  0  0  0
 20 19  2  0  0  0  0
 21 18  1  0  0  0  0
 22 21  2  0  0  0  0
 24 23  1  6  0  0  0
 24 22  1  0  0  0  0
 25 28  1  0  0  0  0
 28 24  1  6  0  0  0
 28 26  1  0  0  0  0
 29 25  2  0  0  0  0
 30 31  1  0  0  0  0
 30 27  1  1  0  0  0
 31 33  1  0  0  0  0
 32 25  1  0  0  0  0
 32 30  1  0  0  0  0
 33 27  1  6  0  0  0
 33 26  1  0  0  0  0
 34 41  1  0  0  0  0
 36 39  1  0  0  0  0
 37 36  1  0  0  0  0
 38 40  1  0  0  0  0
 39 35  1  0  0  0  0
 40 35  2  0  0  0  0
 41 37  1  0  0  0  0
 41 38  2  0  0  0  0
M  END
>  <MODEL>
7

>  <REMARK>
 VINA RESULT:      -7.9      1.345      2.125
  Name = 
  10 active torsions:
  status: ('A' for Active; 'I' for Inactive)
    1  A    between atoms: C_2  and  O_26
    2  A    between atoms: C_3  and  C_4
    3  A    between atoms: C_8  and  C_38
    4  A    between atoms: C_10  and  C_34
    5  A    between atoms: C_10  and  C_41
    6  A    between atoms: C_15  and  C_34
    7  A    between atoms: C_18  and  N_28
    8  A    between atoms: C_21  and  C_34
    9  A    between atoms: C_22  and  C_38
   10  A    between atoms: N_28  and  C_37
                            x       y       z     vdW  Elec       q    Type
                         _______ _______ _______ _____ _____    ______ ____

>  <TORSDO>
F 10

$$$$
=
 OpenBabel10232410183D

 41 45  0  0  1  0  0  0  0  0999 V2000
  189.2310  177.2770  138.4080 C   0  0  2  0  0  3  0  0  0  0  0  0
  186.6230  178.8660  142.2360 O   0  0  0  0  0  1  0  0  0  0  0  0
  189.6750  176.8020  142.1090 C   0  0  0  0  0  3  0  0  0  0  0  0
  189.0110  177.3400  139.8920 C   0  0  0  0  0  0  0  0  0  0  0  0
  187.9210  178.0620  140.3810 C   0  0  0  0  0  3  0  0  0  0  0  0
  187.7100  178.1490  141.7540 C   0  0  0  0  0  0  0  0  0  0  0  0
  189.8700  176.7430  140.7660 N   0  0  0  0  0  0  0  0  0  0  0  0
  188.5890  177.5120  142.6400 C   0  0  0  0  0  0  0  0  0  0  0  0
  188.3180  177.5590  144.0520 N   0  0  0  0  0  2  0  0  0  0  0  0
  191.0940  176.9680  147.2130 C   0  0  0  0  0  0  0  0  0  0  0  0
  191.4600  176.7460  145.8760 C   0  0  0  0  0  3  0  0  0  0  0  0
  189.7880  177.3750  147.5050 C   0  0  0  0  0  3  0  0  0  0  0  0
  188.8620  177.5720  146.4760 C   0  0  0  0  0  3  0  0  0  0  0  0
  189.2310  177.3550  145.1400 C   0  0  0  0  0  0  0  0  0  0  0  0
  190.5310  176.9350  144.8490 C   0  0  0  0  0  3  0  0  0  0  0  0
  192.9100  175.7250  148.3380 C   0  0  0  0  0  1  0  0  0  0  0  0
  192.0050  176.8190  148.2610 O   0  0  0  0  0  0  0  0  0  0  0  0
  191.2150  175.8400  135.7010 C   0  0  0  0  0  3  0  0  0  0  0  0
  190.6350  176.9000  138.0150 C   0  0  0  0  0  3  0  0  0  0  0  0
  190.9250  176.3820  136.8500 C   0  0  0  0  0  0  0  0  0  0  0  0
  192.5950  175.4950  135.3890 C   0  0  0  0  0  3  0  0  0  0  0  0
  193.5920  176.1450  135.9720 C   0  0  0  0  0  3  0  0  0  0  0  0
  195.7540  176.9720  135.5030 O   0  0  0  0  0  1  0  0  0  0  0  0
  195.0160  175.7980  135.6770 C   0  0  1  0  0  3  0  0  0  0  0  0
  197.1190  174.7790  136.6420 C   0  0  0  0  0  0  0  0  0  0  0  0
  194.8330  173.6630  137.0960 C   0  0  0  0  0  2  0  0  0  0  0  0
  196.4350  171.8740  136.5650 C   0  0  0  0  0  2  0  0  0  0  0  0
  195.6220  174.9660  136.8160 C   0  0  2  0  0  3  0  0  0  0  0  0
  197.8890  175.5890  137.2160 O   0  0  0  0  0  0  0  0  0  0  0  0
  196.9730  172.6140  135.3710 C   0  0  1  0  0  3  0  0  0  0  0  0
  195.6920  172.9980  134.9470 O   0  0  0  0  0  0  0  0  0  0  0  0
  197.6830  173.7670  135.8360 O   0  0  0  0  0  0  0  0  0  0  0  0
  195.1360  172.4990  136.1380 C   0  0  2  0  0  3  0  0  0  0  0  0
  188.7340  178.5510  137.7190 C   0  0  0  0  0  2  0  0  0  0  0  0
  185.7670  177.3700  134.3490 C   0  0  0  0  0  3  0  0  0  0  0  0
  185.5030  176.9510  136.8160 C   0  0  0  0  0  2  0  0  0  0  0  0
  186.2290  178.1810  137.3130 C   0  0  0  0  0  2  0  0  0  0  0  0
  187.9360  178.0860  135.4800 C   0  0  0  0  0  3  0  0  0  0  0  0
  184.8270  177.3250  135.5160 C   0  0  0  0  0  2  0  0  0  0  0  0
  187.0620  177.7150  134.3460 C   0  0  0  0  0  3  0  0  0  0  0  0
  187.6210  178.2530  136.7680 C   0  0  0  0  0  0  0  0  0  0  0  0
  1 34  1  6  0  0  0
  1  4  1  0  0  0  0
  3  8  1  0  0  0  0
  4  5  2  0  0  0  0
  4  7  1  0  0  0  0
  5  6  1  0  0  0  0
  6  2  1  0  0  0  0
  6  8  2  0  0  0  0
  7  3  2  0  0  0  0
  8  9  1  0  0  0  0
  9 14  1  0  0  0  0
 10 12  1  0  0  0  0
 10 17  1  0  0  0  0
 11 10  2  0  0  0  0
 13 12  2  0  0  0  0
 14 13  1  0  0  0  0
 15 14  2  0  0  0  0
 15 11  1  0  0  0  0
 17 16  1  0  0  0  0
 18 20  2  0  0  0  0
 19  1  1  0  0  0  0
 20 19  2  0  0  0  0
 21 18  1  0  0  0  0
 21 22  2  0  0  0  0
 24 23  1  1  0  0  0
 24 22  1  0  0  0  0
 25 28  1  0  0  0  0
 25 29  2  0  0  0  0
 28 24  1  6  0  0  0
 28 26  1  0  0  0  0
 30 32  1  0  0  0  0
 30 27  1  1  0  0  0
 31 30  1  0  0  0  0
 31 33  1  0  0  0  0
 32 25  1  0  0  0  0
 33 27  1  1  0  0  0
 33 26  1  0  0  0  0
 35 39  1  0  0  0  0
 36 37  1  0  0  0  0
 38 41  2  0  0  0  0
 39 36  1  0  0  0  0
 40 35  2  0  0  0  0
 40 38  1  0  0  0  0
 41 37  1  0  0  0  0
 41 34  1  0  0  0  0
M  END
>  <MODEL>
8

>  <REMARK>
 VINA RESULT:      -7.6      3.975      8.880
  Name = 
  10 active torsions:
  status: ('A' for Active; 'I' for Inactive)
    1  A    between atoms: C_2  and  O_26
    2  A    between atoms: C_3  and  C_4
    3  A    between atoms: C_8  and  C_38
    4  A    between atoms: C_10  and  C_34
    5  A    between atoms: C_10  and  C_41
    6  A    between atoms: C_15  and  C_34
    7  A    between atoms: C_18  and  N_28
    8  A    between atoms: C_21  and  C_34
    9  A    between atoms: C_22  and  C_38
   10  A    between atoms: N_28  and  C_37
                            x       y       z     vdW  Elec       q    Type
                         _______ _______ _______ _____ _____    ______ ____

>  <TORSDO>
F 10

$$$$
=
 OpenBabel10232410183D

 41 45  0  0  1  0  0  0  0  0999 V2000
  188.9930  177.2500  142.1200 C   0  0  2  0  0  3  0  0  0  0  0  0
  184.3890  178.6340  143.0530 O   0  0  0  0  0  1  0  0  0  0  0  0
  186.3490  178.7860  139.9340 C   0  0  0  0  0  3  0  0  0  0  0  0
  187.6990  177.8530  141.6530 C   0  0  0  0  0  0  0  0  0  0  0  0
  186.6460  177.9740  142.5620 C   0  0  0  0  0  3  0  0  0  0  0  0
  185.4320  178.5130  142.1440 C   0  0  0  0  0  0  0  0  0  0  0  0
  187.5200  178.2450  140.3590 N   0  0  0  0  0  0  0  0  0  0  0  0
  185.2690  178.9310  140.8170 C   0  0  0  0  0  0  0  0  0  0  0  0
  184.0300  179.5430  140.4220 N   0  0  0  0  0  2  0  0  0  0  0  0
  181.6040  178.7470  137.0260 C   0  0  0  0  0  0  0  0  0  0  0  0
  181.5020  179.9620  137.7200 C   0  0  0  0  0  3  0  0  0  0  0  0
  182.5090  177.7790  137.4730 C   0  0  0  0  0  3  0  0  0  0  0  0
  183.3140  178.0250  138.5910 C   0  0  0  0  0  3  0  0  0  0  0  0
  183.2150  179.2430  139.2800 C   0  0  0  0  0  0  0  0  0  0  0  0
  182.3000  180.2040  138.8420 C   0  0  0  0  0  3  0  0  0  0  0  0
  181.3930  178.5290  134.5730 C   0  0  0  0  0  1  0  0  0  0  0  0
  180.8450  178.4840  135.8840 O   0  0  0  0  0  0  0  0  0  0  0  0
  192.2640  177.6550  140.5520 C   0  0  0  0  0  3  0  0  0  0  0  0
  189.8630  176.7360  141.0040 C   0  0  0  0  0  3  0  0  0  0  0  0
  191.0710  177.1880  140.7880 C   0  0  0  0  0  0  0  0  0  0  0  0
  193.0500  177.1140  139.4520 C   0  0  0  0  0  3  0  0  0  0  0  0
  192.4470  176.5460  138.4180 C   0  0  0  0  0  3  0  0  0  0  0  0
  194.2390  176.9030  136.9220 O   0  0  0  0  0  1  0  0  0  0  0  0
  193.2330  175.9970  137.2710 C   0  0  1  0  0  3  0  0  0  0  0  0
  195.3710  174.6760  137.5440 C   0  0  0  0  0  0  0  0  0  0  0  0
  193.1880  173.4550  136.8950 C   0  0  0  0  0  2  0  0  0  0  0  0
  194.9900  172.5390  135.4950 C   0  0  0  0  0  2  0  0  0  0  0  0
  193.8550  174.6420  137.6340 C   0  0  2  0  0  3  0  0  0  0  0  0
  196.0220  174.9250  138.5900 O   0  0  0  0  0  0  0  0  0  0  0  0
  195.5160  173.9060  135.1550 C   0  0  1  0  0  3  0  0  0  0  0  0
  194.2290  174.4260  134.9540 O   0  0  0  0  0  0  0  0  0  0  0  0
  196.0790  174.4820  136.3390 O   0  0  0  0  0  0  0  0  0  0  0  0
  193.6610  173.2390  135.4490 C   0  0  2  0  0  3  0  0  0  0  0  0
  188.7570  176.2180  143.2260 C   0  0  0  0  0  2  0  0  0  0  0  0
  190.2960  177.2910  147.4730 C   0  0  0  0  0  3  0  0  0  0  0  0
  191.4960  175.9400  145.7230 C   0  0  0  0  0  2  0  0  0  0  0  0
  190.9400  176.6410  144.5030 C   0  0  0  0  0  2  0  0  0  0  0  0
  188.6750  176.9420  145.5360 C   0  0  0  0  0  3  0  0  0  0  0  0
  191.6070  176.9740  146.8200 C   0  0  0  0  0  2  0  0  0  0  0  0
  189.0770  177.2980  146.9140 C   0  0  0  0  0  3  0  0  0  0  0  0
  189.4430  176.6150  144.4920 C   0  0  0  0  0  0  0  0  0  0  0  0
  1 19  1  6  0  0  0
  1 34  1  0  0  0  0
  3  7  2  0  0  0  0
  3  8  1  0  0  0  0
  4  1  1  0  0  0  0
  4  5  2  0  0  0  0
  6  5  1  0  0  0  0
  6  2  1  0  0  0  0
  7  4  1  0  0  0  0
  8  6  2  0  0  0  0
  9  8  1  0  0  0  0
 10 12  2  0  0  0  0
 10 11  1  0  0  0  0
 11 15  2  0  0  0  0
 12 13  1  0  0  0  0
 13 14  2  0  0  0  0
 14  9  1  0  0  0  0
 15 14  1  0  0  0  0
 16 17  1  0  0  0  0
 17 10  1  0  0  0  0
 18 20  2  0  0  0  0
 20 19  2  0  0  0  0
 21 18  1  0  0  0  0
 22 21  2  0  0  0  0
 24 23  1  1  0  0  0
 24 22  1  0  0  0  0
 25 28  1  0  0  0  0
 25 29  2  0  0  0  0
 26 28  1  0  0  0  0
 28 24  1  6  0  0  0
 30 27  1  1  0  0  0
 30 32  1  0  0  0  0
 31 30  1  0  0  0  0
 31 33  1  0  0  0  0
 32 25  1  0  0  0  0
 33 27  1  1  0  0  0
 33 26  1  0  0  0  0
 34 41  1  0  0  0  0
 36 39  1  0  0  0  0
 37 36  1  0  0  0  0
 38 40  1  0  0  0  0
 39 35  1  0  0  0  0
 40 35  2  0  0  0  0
 41 37  1  0  0  0  0
 41 38  2  0  0  0  0
M  END
>  <MODEL>
9

>  <REMARK>
 VINA RESULT:      -7.6      2.027      2.874
  Name = 
  10 active torsions:
  status: ('A' for Active; 'I' for Inactive)
    1  A    between atoms: C_2  and  O_26
    2  A    between atoms: C_3  and  C_4
    3  A    between atoms: C_8  and  C_38
    4  A    between atoms: C_10  and  C_34
    5  A    between atoms: C_10  and  C_41
    6  A    between atoms: C_15  and  C_34
    7  A    between atoms: C_18  and  N_28
    8  A    between atoms: C_21  and  C_34
    9  A    between atoms: C_22  and  C_38
   10  A    between atoms: N_28  and  C_37
                            x       y       z     vdW  Elec       q    Type
                         _______ _______ _______ _____ _____    ______ ____

>  <TORSDO>
F 10

$$$$
