=
 OpenBabel10232411503D

 47 52  0  0  1  0  0  0  0  0999 V2000
  189.5890  176.4120  142.7790 C   0  0  0  0  0  2  0  0  0  0  0  0
  190.0600  177.8050  143.2130 C   0  0  1  0  0  3  0  0  0  0  0  0
  186.6610  174.6900  136.2000 S   0  0  0  0  0  0  0  0  0  0  0  0
  187.4050  173.5760  135.1150 N   0  0  0  0  0  0  0  0  0  0  0  0
  192.0880  175.2390  136.3750 N   0  0  0  0  0  0  0  0  0  0  0  0
  187.6840  177.2280  136.5810 C   0  0  0  0  0  2  0  0  0  0  0  0
  188.6220  173.6420  134.6850 C   0  0  0  0  0  3  0  0  0  0  0  0
  189.7820  174.8100  136.4320 O   0  0  0  0  0  0  0  0  0  0  0  0
  193.3630  175.6310  136.9950 C   0  0  1  0  0  3  0  0  0  0  0  0
  189.3720  176.4880  140.2870 C   0  0  2  0  0  3  0  0  0  0  0  0
  190.8780  175.9160  138.3470 C   0  0  0  0  0  0  0  0  0  0  0  0
  187.2620  174.5280  137.5690 O   0  0  0  0  0  0  0  0  0  0  0  0
  186.8360  176.3840  135.6140 C   0  0  2  0  0  3  0  0  0  0  0  0
  184.8210  177.5720  136.4160 C   0  0  0  0  0  3  0  0  0  0  0  0
  189.6030  174.7220  135.0270 C   0  0  0  0  0  2  0  0  0  0  0  0
  185.3920  177.5350  137.8070 C   0  0  0  0  0  2  0  0  0  0  0  0
  186.8840  177.7330  137.7720 C   0  0  0  0  0  0  0  0  0  0  0  0
  189.4970  178.0160  140.1320 C   0  0  2  0  0  3  0  0  0  0  0  0
  190.2010  175.9650  141.4570 C   0  0  0  0  0  2  0  0  0  0  0  0
  188.9430  178.6720  141.2370 O   0  0  0  0  0  0  0  0  0  0  0  0
  193.1340  176.8300  137.9340 C   0  0  0  0  0  2  0  0  0  0  0  0
  190.0230  178.8710  142.1080 C   0  0  0  0  0  2  0  0  0  0  0  0
  191.9310  176.6030  138.8070 C   0  0  0  0  0  3  0  0  0  0  0  0
  189.6900  175.7860  139.0820 O   0  0  0  0  0  0  0  0  0  0  0  0
  190.9490  175.3070  137.0070 C   0  0  0  0  0  0  0  0  0  0  0  0
  187.4590  178.2850  138.7850 N   0  0  0  0  0  0  0  0  0  0  0  0
  185.4920  177.0310  135.3890 C   0  0  0  0  0  3  0  0  0  0  0  0
  185.2010  174.3390  136.2860 O   0  0  0  0  0  0  0  0  0  0  0  0
  188.8810  178.5340  138.8330 C   0  0  0  0  0  2  0  0  0  0  0  0
  196.0270  173.6910  138.8110 C   0  0  0  0  0  2  0  0  0  0  0  0
  195.2700  174.9000  138.2350 C   0  0  0  0  0  2  0  0  0  0  0  0
  193.9480  174.5000  137.7280 N   0  0  0  0  0  0  0  0  0  0  0  0
  194.1400  173.3770  136.7980 C   0  0  0  0  0  2  0  0  0  0  0  0
  194.9300  172.2390  137.4650 C   0  0  0  0  0  2  0  0  0  0  0  0
  195.2120  172.5410  138.8130 O   0  0  0  0  0  0  0  0  0  0  0  0
  189.7690  179.1290  145.1910 O   0  0  0  0  0  0  0  0  0  0  0  0
  186.7700  177.5550  145.4890 C   0  0  2  0  0  0  0  0  0  0  0  0
  189.3010  178.2450  144.4220 C   0  0  0  0  0  0  0  0  0  0  0  0
  188.0150  177.6940  144.6810 N   0  0  0  0  0  0  0  0  0  0  0  0
  186.8630  176.8030  144.3340 C   0  0  0  0  0  2  0  0  0  0  0  0
  185.9420  178.8080  145.4490 C   0  0  0  0  0  0  0  0  0  0  0  0
  185.2270  179.1960  144.1970 C   0  0  0  0  0  1  0  0  0  0  0  0
  185.8790  179.5340  146.4300 O   0  0  0  0  0  0  0  0  0  0  0  0
  187.0480  176.8600  146.8230 C   0  0  0  0  0  2  0  0  0  0  0  0
  187.8490  177.7230  148.9300 O   0  0  0  0  0  1  0  0  0  0  0  0
  189.4460  176.5720  147.5710 C   0  0  0  0  0  1  0  0  0  0  0  0
  188.2160  177.4610  147.6090 C   0  0  1  0  0  3  0  0  0  0  0  0
  1  2  1  0  0  0  0
  2 38  1  1  0  0  0
  3 28  2  0  0  0  0
  3 12  2  0  0  0  0
  4  3  1  0  0  0  0
  5  9  1  0  0  0  0
  5 25  2  0  0  0  0
  6 17  1  0  0  0  0
  7 15  1  0  0  0  0
  7  4  2  0  0  0  0
  8 25  1  0  0  0  0
  9 32  1  1  0  0  0
  9 21  1  0  0  0  0
 10 19  1  1  0  0  0
 11 23  2  0  0  0  0
 11 24  1  0  0  0  0
 13 27  1  1  0  0  0
 13  3  1  0  0  0  0
 13  6  1  0  0  0  0
 14 16  1  0  0  0  0
 15  8  1  0  0  0  0
 17 16  1  0  0  0  0
 17 26  2  0  0  0  0
 18 29  1  6  0  0  0
 18 10  1  0  0  0  0
 18 20  1  0  0  0  0
 19  1  1  0  0  0  0
 20 22  1  0  0  0  0
 21 23  1  0  0  0  0
 22  2  1  0  0  0  0
 24 10  1  0  0  0  0
 25 11  1  0  0  0  0
 26 29  1  0  0  0  0
 27 14  2  0  0  0  0
 30 35  1  0  0  0  0
 31 30  1  0  0  0  0
 32 31  1  0  0  0  0
 33 34  1  0  0  0  0
 33 32  1  0  0  0  0
 34 35  1  0  0  0  0
 37 44  1  1  0  0  0
 38 39  1  0  0  0  0
 38 36  2  0  0  0  0
 39 37  1  0  0  0  0
 40 39  1  0  0  0  0
 40 37  1  0  0  0  0
 41 37  1  0  0  0  0
 41 43  2  0  0  0  0
 42 41  1  0  0  0  0
 44 47  1  0  0  0  0
 47 46  1  1  0  0  0
 47 45  1  0  0  0  0
M  END
>  <MODEL>
1

>  <REMARK>
 VINA RESULT:      -7.4      0.000      0.000
  Name = 
  5 active torsions:
  status: ('A' for Active; 'I' for Inactive)
    1  A    between atoms: C_4  and  C_18
    2  A    between atoms: C_5  and  C_11
    3  A    between atoms: C_11  and  C_36
    4  A    between atoms: C_16  and  N_29
    5  A    between atoms: C_36  and  C_47
                            x       y       z     vdW  Elec       q    Type
                         _______ _______ _______ _____ _____    ______ ____

>  <TORSDO>
F 5

$$$$
=
 OpenBabel10232411503D

 47 52  0  0  1  0  0  0  0  0999 V2000
  191.8290  173.6740  137.4800 C   0  0  0  0  0  2  0  0  0  0  0  0
  192.9410  174.2730  136.6110 C   0  0  1  0  0  3  0  0  0  0  0  0
  188.6050  176.9850  143.2660 S   0  0  0  0  0  0  0  0  0  0  0  0
  186.9240  177.3660  143.3000 N   0  0  0  0  0  0  0  0  0  0  0  0
  186.9380  178.5740  138.3180 N   0  0  0  0  0  0  0  0  0  0  0  0
  190.3760  178.4330  141.7170 C   0  0  0  0  0  2  0  0  0  0  0  0
  186.2880  178.0500  142.4070 C   0  0  0  0  0  3  0  0  0  0  0  0
  187.5520  177.6840  140.4000 O   0  0  0  0  0  0  0  0  0  0  0  0
  187.0210  178.6550  136.8510 C   0  0  1  0  0  3  0  0  0  0  0  0
  190.8250  175.5830  138.7490 C   0  0  2  0  0  3  0  0  0  0  0  0
  188.8700  177.1350  138.3870 C   0  0  0  0  0  0  0  0  0  0  0  0
  188.8680  175.9910  142.1680 O   0  0  0  0  0  0  0  0  0  0  0  0
  189.6030  178.4680  143.0470 C   0  0  2  0  0  3  0  0  0  0  0  0
  191.7230  178.0200  144.2380 C   0  0  0  0  0  3  0  0  0  0  0  0
  186.9050  178.6690  141.1900 C   0  0  0  0  0  2  0  0  0  0  0  0
  192.1070  177.0740  143.1330 C   0  0  0  0  0  2  0  0  0  0  0  0
  191.6470  177.6020  141.8010 C   0  0  0  0  0  0  0  0  0  0  0  0
  191.9100  176.6240  138.4170 C   0  0  2  0  0  3  0  0  0  0  0  0
  190.6180  174.5910  137.6080 C   0  0  0  0  0  2  0  0  0  0  0  0
  193.1630  176.0110  138.2940 O   0  0  0  0  0  0  0  0  0  0  0  0
  188.4950  178.5700  136.4130 C   0  0  0  0  0  2  0  0  0  0  0  0
  193.2880  175.7350  136.9260 C   0  0  0  0  0  2  0  0  0  0  0  0
  189.2030  177.4530  137.1290 C   0  0  0  0  0  3  0  0  0  0  0  0
  189.5850  176.1860  139.1330 O   0  0  0  0  0  0  0  0  0  0  0  0
  187.7420  177.8320  139.0280 C   0  0  0  0  0  0  0  0  0  0  0  0
  192.3210  177.2910  140.7460 N   0  0  0  0  0  0  0  0  0  0  0  0
  190.5510  178.6700  144.2020 C   0  0  0  0  0  3  0  0  0  0  0  0
  188.9540  176.3370  144.5770 O   0  0  0  0  0  0  0  0  0  0  0  0
  191.9680  177.7670  139.4290 C   0  0  0  0  0  2  0  0  0  0  0  0
  184.7030  177.0710  134.3460 C   0  0  0  0  0  2  0  0  0  0  0  0
  185.7240  178.0600  134.9360 C   0  0  0  0  0  2  0  0  0  0  0  0
  186.2300  177.5820  136.2310 N   0  0  0  0  0  0  0  0  0  0  0  0
  185.0740  177.2860  137.0900 C   0  0  0  0  0  2  0  0  0  0  0  0
  184.1080  176.3130  136.3940 C   0  0  0  0  0  2  0  0  0  0  0  0
  184.6100  175.9110  135.1400 O   0  0  0  0  0  0  0  0  0  0  0  0
  194.0450  172.1570  136.8470 O   0  0  0  0  0  0  0  0  0  0  0  0
  196.9230  173.8970  136.3540 C   0  0  2  0  0  0  0  0  0  0  0  0
  194.1520  173.4010  136.6630 C   0  0  0  0  0  0  0  0  0  0  0  0
  195.4380  173.9740  136.4560 N   0  0  0  0  0  0  0  0  0  0  0  0
  196.3370  175.1330  136.1620 C   0  0  0  0  0  2  0  0  0  0  0  0
  197.3540  173.1260  135.1390 C   0  0  0  0  0  0  0  0  0  0  0  0
  198.6960  173.3710  134.5300 C   0  0  0  0  0  1  0  0  0  0  0  0
  196.5960  172.3200  134.6220 O   0  0  0  0  0  0  0  0  0  0  0  0
  197.5600  173.6070  137.7140 C   0  0  0  0  0  2  0  0  0  0  0  0
  197.9090  175.2540  139.4440 O   0  0  0  0  0  1  0  0  0  0  0  0
  199.8730  174.3180  138.4480 C   0  0  0  0  0  1  0  0  0  0  0  0
  198.4290  174.7460  138.2520 C   0  0  1  0  0  3  0  0  0  0  0  0
  1 19  1  0  0  0  0
  2 38  1  1  0  0  0
  2 22  1  0  0  0  0
  2  1  1  0  0  0  0
  3  4  1  0  0  0  0
  3 28  2  0  0  0  0
  5 25  2  0  0  0  0
  6 17  1  0  0  0  0
  7  4  2  0  0  0  0
  8 15  1  0  0  0  0
  9 32  1  6  0  0  0
  9  5  1  0  0  0  0
 10 19  1  6  0  0  0
 10 24  1  0  0  0  0
 11 25  1  0  0  0  0
 11 24  1  0  0  0  0
 12  3  2  0  0  0  0
 13  6  1  6  0  0  0
 13  3  1  0  0  0  0
 13 27  1  0  0  0  0
 15  7  1  0  0  0  0
 16 14  1  0  0  0  0
 17 16  1  0  0  0  0
 18 10  1  0  0  0  0
 18 29  1  1  0  0  0
 20 18  1  0  0  0  0
 21  9  1  0  0  0  0
 21 23  1  0  0  0  0
 22 20  1  0  0  0  0
 23 11  2  0  0  0  0
 25  8  1  0  0  0  0
 26 17  2  0  0  0  0
 27 14  2  0  0  0  0
 29 26  1  0  0  0  0
 30 31  1  0  0  0  0
 30 35  1  0  0  0  0
 31 32  1  0  0  0  0
 32 33  1  0  0  0  0
 34 33  1  0  0  0  0
 35 34  1  0  0  0  0
 37 39  1  0  0  0  0
 37 44  1  1  0  0  0
 38 36  2  0  0  0  0
 39 38  1  0  0  0  0
 40 37  1  0  0  0  0
 40 39  1  0  0  0  0
 41 37  1  0  0  0  0
 42 41  1  0  0  0  0
 43 41  2  0  0  0  0
 44 47  1  0  0  0  0
 47 46  1  1  0  0  0
 47 45  1  0  0  0  0
M  END
>  <MODEL>
2

>  <REMARK>
 VINA RESULT:      -6.5      2.700      9.680
  Name = 
  5 active torsions:
  status: ('A' for Active; 'I' for Inactive)
    1  A    between atoms: C_4  and  C_18
    2  A    between atoms: C_5  and  C_11
    3  A    between atoms: C_11  and  C_36
    4  A    between atoms: C_16  and  N_29
    5  A    between atoms: C_36  and  C_47
                            x       y       z     vdW  Elec       q    Type
                         _______ _______ _______ _____ _____    ______ ____

>  <TORSDO>
F 5

$$$$
=
 OpenBabel10232411503D

 47 52  0  0  1  0  0  0  0  0999 V2000
  191.4240  173.6910  137.0500 C   0  0  0  0  0  2  0  0  0  0  0  0
  192.4280  174.3170  136.0760 C   0  0  1  0  0  3  0  0  0  0  0  0
  188.7450  176.9040  143.1600 S   0  0  0  0  0  0  0  0  0  0  0  0
  187.0690  177.2480  143.3700 N   0  0  0  0  0  0  0  0  0  0  0  0
  186.5430  178.4790  138.4220 N   0  0  0  0  0  0  0  0  0  0  0  0
  190.3170  178.3980  141.4470 C   0  0  0  0  0  2  0  0  0  0  0  0
  186.3300  177.9220  142.5520 C   0  0  0  0  0  3  0  0  0  0  0  0
  187.3880  177.5930  140.4230 O   0  0  0  0  0  0  0  0  0  0  0  0
  186.4740  178.5680  136.9540 C   0  0  1  0  0  3  0  0  0  0  0  0
  190.5170  175.5710  138.4290 C   0  0  2  0  0  3  0  0  0  0  0  0
  188.5030  177.0820  138.2810 C   0  0  0  0  0  0  0  0  0  0  0  0
  188.9150  175.9210  142.0340 O   0  0  0  0  0  0  0  0  0  0  0  0
  189.6840  178.4090  142.8500 C   0  0  2  0  0  3  0  0  0  0  0  0
  191.9240  178.0020  143.8130 C   0  0  0  0  0  3  0  0  0  0  0  0
  186.8060  178.5600  141.2820 C   0  0  0  0  0  2  0  0  0  0  0  0
  192.2120  177.0690  142.6680 C   0  0  0  0  0  2  0  0  0  0  0  0
  191.6070  177.5940  141.3940 C   0  0  0  0  0  0  0  0  0  0  0  0
  191.5390  176.6380  137.9940 C   0  0  2  0  0  3  0  0  0  0  0  0
  190.2140  174.5810  137.3090 C   0  0  0  0  0  2  0  0  0  0  0  0
  192.7850  176.0520  137.7380 O   0  0  0  0  0  0  0  0  0  0  0  0
  187.8960  178.5170  136.3660 C   0  0  0  0  0  2  0  0  0  0  0  0
  192.7740  175.7850  136.3630 C   0  0  0  0  0  2  0  0  0  0  0  0
  188.6970  177.4130  136.9980 C   0  0  0  0  0  3  0  0  0  0  0  0
  189.3110  176.1450  138.9420 O   0  0  0  0  0  0  0  0  0  0  0  0
  187.4320  177.7510  139.0400 C   0  0  0  0  0  0  0  0  0  0  0  0
  192.1740  177.3030  140.2730 N   0  0  0  0  0  0  0  0  0  0  0  0
  190.7410  178.6270  143.9020 C   0  0  0  0  0  3  0  0  0  0  0  0
  189.2420  176.2570  144.4230 O   0  0  0  0  0  0  0  0  0  0  0  0
  191.6770  177.7770  139.0030 C   0  0  0  0  0  2  0  0  0  0  0  0
  184.5500  176.6550  134.3470 C   0  0  0  0  0  2  0  0  0  0  0  0
  185.5840  177.6220  134.9490 C   0  0  0  0  0  2  0  0  0  0  0  0
  185.6460  177.4820  136.4120 N   0  0  0  0  0  0  0  0  0  0  0  0
  184.2790  177.6150  136.9390 C   0  0  0  0  0  2  0  0  0  0  0  0
  183.3260  176.6240  136.2500 C   0  0  0  0  0  2  0  0  0  0  0  0
  184.0200  175.8050  135.3380 O   0  0  0  0  0  0  0  0  0  0  0  0
  193.9720  172.8910  134.9230 O   0  0  0  0  0  0  0  0  0  0  0  0
  195.7050  172.8360  137.8480 C   0  0  2  0  0  0  0  0  0  0  0  0
  193.6560  173.4710  135.9970 C   0  0  0  0  0  0  0  0  0  0  0  0
  194.5040  173.3590  137.1340 N   0  0  0  0  0  0  0  0  0  0  0  0
  194.8750  173.6920  138.5460 C   0  0  0  0  0  2  0  0  0  0  0  0
  196.9750  173.3980  137.2760 C   0  0  0  0  0  0  0  0  0  0  0  0
  196.9610  174.7040  136.5530 C   0  0  0  0  0  1  0  0  0  0  0  0
  198.0200  172.7720  137.3700 O   0  0  0  0  0  0  0  0  0  0  0  0
  195.5810  171.3360  138.1180 C   0  0  0  0  0  2  0  0  0  0  0  0
  196.6040  169.5610  136.8410 O   0  0  0  0  0  1  0  0  0  0  0  0
  194.2240  169.7490  136.6920 C   0  0  0  0  0  1  0  0  0  0  0  0
  195.5480  170.4740  136.8540 C   0  0  1  0  0  3  0  0  0  0  0  0
  1 19  1  0  0  0  0
  2 38  1  1  0  0  0
  2 22  1  0  0  0  0
  2  1  1  0  0  0  0
  3  4  1  0  0  0  0
  3 28  2  0  0  0  0
  5 25  2  0  0  0  0
  7  4  2  0  0  0  0
  8 15  1  0  0  0  0
  9 21  1  6  0  0  0
  9  5  1  0  0  0  0
 10 19  1  6  0  0  0
 10 24  1  0  0  0  0
 11 24  1  0  0  0  0
 11 25  1  0  0  0  0
 12  3  2  0  0  0  0
 13  6  1  6  0  0  0
 13  3  1  0  0  0  0
 13 27  1  0  0  0  0
 14 27  2  0  0  0  0
 15  7  1  0  0  0  0
 16 14  1  0  0  0  0
 17  6  1  0  0  0  0
 17 16  1  0  0  0  0
 18 10  1  0  0  0  0
 18 29  1  1  0  0  0
 20 18  1  0  0  0  0
 21 23  1  0  0  0  0
 22 20  1  0  0  0  0
 23 11  2  0  0  0  0
 25  8  1  0  0  0  0
 26 17  2  0  0  0  0
 29 26  1  0  0  0  0
 30 31  1  0  0  0  0
 30 35  1  0  0  0  0
 31 32  1  0  0  0  0
 32 33  1  0  0  0  0
 32  9  1  0  0  0  0
 34 33  1  0  0  0  0
 35 34  1  0  0  0  0
 36 38  2  0  0  0  0
 37 44  1  1  0  0  0
 37 40  1  0  0  0  0
 38 39  1  0  0  0  0
 39 37  1  0  0  0  0
 39 40  1  0  0  0  0
 41 43  2  0  0  0  0
 41 37  1  0  0  0  0
 42 41  1  0  0  0  0
 45 47  1  0  0  0  0
 47 46  1  1  0  0  0
 47 44  1  0  0  0  0
M  END
>  <MODEL>
3

>  <REMARK>
 VINA RESULT:      -6.3      2.678      9.560
  Name = 
  5 active torsions:
  status: ('A' for Active; 'I' for Inactive)
    1  A    between atoms: C_4  and  C_18
    2  A    between atoms: C_5  and  C_11
    3  A    between atoms: C_11  and  C_36
    4  A    between atoms: C_16  and  N_29
    5  A    between atoms: C_36  and  C_47
                            x       y       z     vdW  Elec       q    Type
                         _______ _______ _______ _____ _____    ______ ____

>  <TORSDO>
F 5

$$$$
=
 OpenBabel10232411503D

 47 52  0  0  1  0  0  0  0  0999 V2000
  189.7230  176.5830  141.0500 C   0  0  0  0  0  2  0  0  0  0  0  0
  189.7330  178.1120  140.9390 C   0  0  1  0  0  3  0  0  0  0  0  0
  187.5270  171.8770  135.7720 S   0  0  0  0  0  0  0  0  0  0  0  0
  188.5900  170.7250  135.0530 N   0  0  0  0  0  0  0  0  0  0  0  0
  192.5100  174.0250  135.1910 N   0  0  0  0  0  0  0  0  0  0  0  0
  187.7040  174.5680  135.1700 C   0  0  0  0  0  2  0  0  0  0  0  0
  189.7290  170.9910  134.5030 C   0  0  0  0  0  3  0  0  0  0  0  0
  190.4530  172.9850  135.6260 O   0  0  0  0  0  0  0  0  0  0  0  0
  193.5950  174.9680  135.5080 C   0  0  1  0  0  3  0  0  0  0  0  0
  189.5110  175.7110  138.7140 C   0  0  2  0  0  3  0  0  0  0  0  0
  191.1350  174.9630  136.9340 C   0  0  0  0  0  0  0  0  0  0  0  0
  188.1390  172.3920  137.0460 O   0  0  0  0  0  0  0  0  0  0  0  0
  187.1690  173.2280  134.6350 C   0  0  2  0  0  3  0  0  0  0  0  0
  184.8780  173.9720  135.1950 C   0  0  0  0  0  3  0  0  0  0  0  0
  190.3210  172.3600  134.3600 C   0  0  0  0  0  2  0  0  0  0  0  0
  185.4220  174.5970  136.4510 C   0  0  0  0  0  2  0  0  0  0  0  0
  186.7780  175.2000  136.1970 C   0  0  0  0  0  0  0  0  0  0  0  0
  189.1550  177.0500  138.0420 C   0  0  2  0  0  3  0  0  0  0  0  0
  190.4540  175.9010  139.8990 C   0  0  0  0  0  2  0  0  0  0  0  0
  188.4150  177.8590  138.9130 O   0  0  0  0  0  0  0  0  0  0  0  0
  192.9960  176.2960  136.0080 C   0  0  0  0  0  2  0  0  0  0  0  0
  189.3730  178.6590  139.5500 C   0  0  0  0  0  2  0  0  0  0  0  0
  191.9180  176.0460  137.0260 C   0  0  0  0  0  3  0  0  0  0  0  0
  190.0410  174.7570  137.7890 O   0  0  0  0  0  0  0  0  0  0  0  0
  191.4020  173.9720  135.8780 C   0  0  0  0  0  0  0  0  0  0  0  0
  187.1440  176.2160  136.9010 N   0  0  0  0  0  0  0  0  0  0  0  0
  185.6920  173.3280  134.3460 C   0  0  0  0  0  3  0  0  0  0  0  0
  186.2490  171.1660  136.1200 O   0  0  0  0  0  0  0  0  0  0  0  0
  188.4170  176.8720  136.7160 C   0  0  0  0  0  2  0  0  0  0  0  0
  196.8390  174.4150  137.3340 C   0  0  0  0  0  2  0  0  0  0  0  0
  195.7780  175.1160  136.4680 C   0  0  0  0  0  2  0  0  0  0  0  0
  194.4980  174.3920  136.5150 N   0  0  0  0  0  0  0  0  0  0  0  0
  194.7600  172.9860  136.1710 C   0  0  0  0  0  2  0  0  0  0  0  0
  195.8530  172.3940  137.0770 C   0  0  0  0  0  2  0  0  0  0  0  0
  196.2770  173.3320  138.0390 O   0  0  0  0  0  0  0  0  0  0  0  0
  188.6730  179.9490  142.0570 O   0  0  0  0  0  0  0  0  0  0  0  0
  187.3300  177.5920  144.1060 C   0  0  2  0  0  0  0  0  0  0  0  0
  188.8650  178.7040  142.0010 C   0  0  0  0  0  0  0  0  0  0  0  0
  188.2110  177.8480  142.9300 N   0  0  0  0  0  0  0  0  0  0  0  0
  187.8760  176.4930  143.4710 C   0  0  0  0  0  2  0  0  0  0  0  0
  185.8990  177.9380  143.8090 C   0  0  0  0  0  0  0  0  0  0  0  0
  185.0190  178.4840  144.8850 C   0  0  0  0  0  1  0  0  0  0  0  0
  185.4380  177.7420  142.6950 O   0  0  0  0  0  0  0  0  0  0  0  0
  187.9830  178.0690  145.4040 C   0  0  0  0  0  2  0  0  0  0  0  0
  190.3630  177.6950  145.5540 O   0  0  0  0  0  1  0  0  0  0  0  0
  189.0440  176.9340  147.3990 C   0  0  0  0  0  1  0  0  0  0  0  0
  189.1170  177.1690  145.9010 C   0  0  1  0  0  3  0  0  0  0  0  0
  2  1  1  0  0  0  0
  2 38  1  1  0  0  0
  3 28  2  0  0  0  0
  3 12  2  0  0  0  0
  4  3  1  0  0  0  0
  5  9  1  0  0  0  0
  5 25  2  0  0  0  0
  6 17  1  0  0  0  0
  7  4  2  0  0  0  0
  8 25  1  0  0  0  0
  9 21  1  1  0  0  0
  9 32  1  0  0  0  0
 10 19  1  1  0  0  0
 11 23  2  0  0  0  0
 11 24  1  0  0  0  0
 13 27  1  1  0  0  0
 13  6  1  0  0  0  0
 13  3  1  0  0  0  0
 14 16  1  0  0  0  0
 15  7  1  0  0  0  0
 15  8  1  0  0  0  0
 17 16  1  0  0  0  0
 17 26  2  0  0  0  0
 18 29  1  6  0  0  0
 18 10  1  0  0  0  0
 18 20  1  0  0  0  0
 19  1  1  0  0  0  0
 20 22  1  0  0  0  0
 21 23  1  0  0  0  0
 22  2  1  0  0  0  0
 24 10  1  0  0  0  0
 25 11  1  0  0  0  0
 27 14  2  0  0  0  0
 29 26  1  0  0  0  0
 30 35  1  0  0  0  0
 31 32  1  0  0  0  0
 31 30  1  0  0  0  0
 33 32  1  0  0  0  0
 33 34  1  0  0  0  0
 34 35  1  0  0  0  0
 37 44  1  1  0  0  0
 38 36  2  0  0  0  0
 38 39  1  0  0  0  0
 39 40  1  0  0  0  0
 39 37  1  0  0  0  0
 40 37  1  0  0  0  0
 41 37  1  0  0  0  0
 41 42  1  0  0  0  0
 43 41  2  0  0  0  0
 44 47  1  0  0  0  0
 45 47  1  0  0  0  0
 47 46  1  1  0  0  0
M  END
>  <MODEL>
4

>  <REMARK>
 VINA RESULT:      -5.8      1.949      2.440
  Name = 
  5 active torsions:
  status: ('A' for Active; 'I' for Inactive)
    1  A    between atoms: C_4  and  C_18
    2  A    between atoms: C_5  and  C_11
    3  A    between atoms: C_11  and  C_36
    4  A    between atoms: C_16  and  N_29
    5  A    between atoms: C_36  and  C_47
                            x       y       z     vdW  Elec       q    Type
                         _______ _______ _______ _____ _____    ______ ____

>  <TORSDO>
F 5

$$$$
=
 OpenBabel10232411503D

 47 52  0  0  1  0  0  0  0  0999 V2000
  189.2630  176.5710  141.7620 C   0  0  0  0  0  2  0  0  0  0  0  0
  189.7670  177.9900  142.0450 C   0  0  1  0  0  3  0  0  0  0  0  0
  184.5060  174.6560  136.4200 S   0  0  0  0  0  0  0  0  0  0  0  0
  184.9310  173.5850  135.1390 N   0  0  0  0  0  0  0  0  0  0  0  0
  189.6690  175.5230  134.8790 N   0  0  0  0  0  0  0  0  0  0  0  0
  185.4510  177.2520  136.4970 C   0  0  0  0  0  2  0  0  0  0  0  0
  185.9430  173.7200  134.3470 C   0  0  0  0  0  3  0  0  0  0  0  0
  187.5280  174.9600  135.6550 O   0  0  0  0  0  0  0  0  0  0  0  0
  191.0510  175.9920  135.0700 C   0  0  1  0  0  3  0  0  0  0  0  0
  188.2640  176.6250  139.4680 C   0  0  2  0  0  3  0  0  0  0  0  0
  189.1090  176.1350  137.1420 C   0  0  0  0  0  0  0  0  0  0  0  0
  185.5180  174.5350  137.5260 O   0  0  0  0  0  0  0  0  0  0  0  0
  184.3900  176.3560  135.8340 C   0  0  2  0  0  3  0  0  0  0  0  0
  182.6690  177.4270  137.2500 C   0  0  0  0  0  3  0  0  0  0  0  0
  186.9190  174.8570  134.3780 C   0  0  0  0  0  2  0  0  0  0  0  0
  183.6520  177.4280  138.3890 C   0  0  0  0  0  2  0  0  0  0  0  0
  185.0420  177.7130  137.8870 C   0  0  0  0  0  0  0  0  0  0  0  0
  188.2470  178.1570  139.3040 C   0  0  2  0  0  3  0  0  0  0  0  0
  189.4490  176.1550  140.3070 C   0  0  0  0  0  2  0  0  0  0  0  0
  188.0350  178.7830  140.5380 O   0  0  0  0  0  0  0  0  0  0  0  0
  191.0630  177.1790  136.0520 C   0  0  0  0  0  2  0  0  0  0  0  0
  189.3220  179.0480  141.0250 C   0  0  0  0  0  2  0  0  0  0  0  0
  190.2130  176.8840  137.2570 C   0  0  0  0  0  3  0  0  0  0  0  0
  188.2240  175.9390  138.2140 O   0  0  0  0  0  0  0  0  0  0  0  0
  188.7870  175.5270  135.8400 C   0  0  0  0  0  0  0  0  0  0  0  0
  185.8760  178.3020  138.6750 N   0  0  0  0  0  0  0  0  0  0  0  0
  183.0100  176.9220  136.0560 C   0  0  0  0  0  3  0  0  0  0  0  0
  183.1710  174.2220  136.9580 O   0  0  0  0  0  0  0  0  0  0  0  0
  187.2230  178.6330  138.2750 C   0  0  0  0  0  2  0  0  0  0  0  0
  194.1120  173.8130  135.2790 C   0  0  0  0  0  2  0  0  0  0  0  0
  193.2440  175.0500  134.9840 C   0  0  0  0  0  2  0  0  0  0  0  0
  191.9010  174.8990  135.5640 N   0  0  0  0  0  0  0  0  0  0  0  0
  191.3470  173.6180  135.0990 C   0  0  0  0  0  2  0  0  0  0  0  0
  192.3050  172.4580  135.4190 C   0  0  0  0  0  2  0  0  0  0  0  0
  193.4350  172.9140  136.1270 O   0  0  0  0  0  0  0  0  0  0  0  0
  189.9920  179.3510  144.0070 O   0  0  0  0  0  0  0  0  0  0  0  0
  187.4770  177.4590  145.2920 C   0  0  2  0  0  0  0  0  0  0  0  0
  189.4060  178.3890  143.4390 C   0  0  0  0  0  0  0  0  0  0  0  0
  188.3560  177.7060  144.1140 N   0  0  0  0  0  0  0  0  0  0  0  0
  187.2710  176.6770  144.1730 C   0  0  0  0  0  2  0  0  0  0  0  0
  186.5380  178.6060  145.5320 C   0  0  0  0  0  0  0  0  0  0  0  0
  186.1990  179.0220  146.9260 C   0  0  0  0  0  1  0  0  0  0  0  0
  186.0200  179.1830  144.5880 O   0  0  0  0  0  0  0  0  0  0  0  0
  188.2650  176.8540  146.4560 C   0  0  0  0  0  2  0  0  0  0  0  0
  189.3440  178.0860  148.2290 O   0  0  0  0  0  1  0  0  0  0  0  0
  190.7810  176.9560  146.6860 C   0  0  0  0  0  1  0  0  0  0  0  0
  189.4690  177.6900  146.8970 C   0  0  1  0  0  3  0  0  0  0  0  0
  1  2  1  0  0  0  0
  2 38  1  1  0  0  0
  3 28  2  0  0  0  0
  3 12  2  0  0  0  0
  4  3  1  0  0  0  0
  5  9  1  0  0  0  0
  5 25  2  0  0  0  0
  6 17  1  0  0  0  0
  7 15  1  0  0  0  0
  7  4  2  0  0  0  0
  8 25  1  0  0  0  0
  9 32  1  1  0  0  0
  9 21  1  0  0  0  0
 10 19  1  6  0  0  0
 11 23  2  0  0  0  0
 11 24  1  0  0  0  0
 13 27  1  1  0  0  0
 13  3  1  0  0  0  0
 13  6  1  0  0  0  0
 14 16  1  0  0  0  0
 15  8  1  0  0  0  0
 17 16  1  0  0  0  0
 17 26  2  0  0  0  0
 18 29  1  6  0  0  0
 18 10  1  0  0  0  0
 18 20  1  0  0  0  0
 19  1  1  0  0  0  0
 20 22  1  0  0  0  0
 21 23  1  0  0  0  0
 22  2  1  0  0  0  0
 24 10  1  0  0  0  0
 25 11  1  0  0  0  0
 27 14  2  0  0  0  0
 29 26  1  0  0  0  0
 30 35  1  0  0  0  0
 31 30  1  0  0  0  0
 31 32  1  0  0  0  0
 33 34  1  0  0  0  0
 33 32  1  0  0  0  0
 34 35  1  0  0  0  0
 37 41  1  0  0  0  0
 37 44  1  1  0  0  0
 38 36  2  0  0  0  0
 38 39  1  0  0  0  0
 39 40  1  0  0  0  0
 39 37  1  0  0  0  0
 40 37  1  0  0  0  0
 41 42  1  0  0  0  0
 43 41  2  0  0  0  0
 44 47  1  0  0  0  0
 47 46  1  1  0  0  0
 47 45  1  0  0  0  0
M  END
>  <MODEL>
5

>  <REMARK>
 VINA RESULT:      -4.8      1.802      2.204
  Name = 
  5 active torsions:
  status: ('A' for Active; 'I' for Inactive)
    1  A    between atoms: C_4  and  C_18
    2  A    between atoms: C_5  and  C_11
    3  A    between atoms: C_11  and  C_36
    4  A    between atoms: C_16  and  N_29
    5  A    between atoms: C_36  and  C_47
                            x       y       z     vdW  Elec       q    Type
                         _______ _______ _______ _____ _____    ______ ____

>  <TORSDO>
F 5

$$$$
