=
 OpenBabel10232411353D

 48 52  0  0  1  0  0  0  0  0999 V2000
  189.0430  177.5520  136.0050 S   0  0  0  0  0  0  0  0  0  0  0  0
  191.7220  175.4620  137.9610 O   0  0  0  0  0  0  0  0  0  0  0  0
  190.0170  176.1160  136.4330 C   0  0  0  0  0  0  0  0  0  0  0  0
  188.7290  177.4210  138.7560 C   0  0  0  0  0  0  0  0  0  0  0  0
  187.9550  177.3070  137.4500 C   0  0  1  0  0  3  0  0  0  0  0  0
  190.0850  175.1150  135.5510 C   0  0  0  0  0  3  0  0  0  0  0  0
  190.1220  177.5750  141.2150 C   0  0  0  0  0  0  0  0  0  0  0  0
  188.1460  178.0330  139.8750 C   0  0  0  0  0  3  0  0  0  0  0  0
  188.8320  178.1090  141.0900 C   0  0  0  0  0  3  0  0  0  0  0  0
  190.0090  176.8230  138.8920 C   0  0  0  0  0  0  0  0  0  0  0  0
  190.6810  176.9050  140.1200 C   0  0  0  0  0  3  0  0  0  0  0  0
  190.6450  176.0930  137.7720 C   0  0  0  0  0  0  0  0  0  0  0  0
  191.3830  172.8980  135.9460 N   0  0  0  0  0  0  0  0  0  0  0  0
  190.8020  173.8840  135.7720 C   0  0  0  0  0  0  0  0  0  0  0  0
  186.7140  178.2030  137.3420 C   0  0  0  0  0  2  0  0  0  0  0  0
  185.4360  177.4050  137.1070 C   0  0  0  0  0  2  0  0  0  0  0  0
  185.6120  176.4930  135.9050 C   0  0  2  0  0  3  0  0  0  0  0  0
  184.9450  177.1540  134.7050 C   0  0  0  0  0  1  0  0  0  0  0  0
  184.3400  175.0750  137.5440 C   0  0  0  0  0  1  0  0  0  0  0  0
  185.0160  175.1040  136.1810 C   0  0  2  0  0  3  0  0  0  0  0  0
  186.0530  174.0210  136.1250 C   0  0  0  0  0  0  0  0  0  0  0  0
  187.8910  169.8090  135.5390 C   0  0  0  0  0  1  0  0  0  0  0  0
  185.1000  169.8760  134.6200 O   0  0  0  0  0  0  0  0  0  0  0  0
  187.5290  172.3390  135.3980 C   0  0  1  0  0  3  0  0  0  0  0  0
  187.6880  172.7380  136.7520 O   0  0  0  0  0  0  0  0  0  0  0  0
  187.0470  170.9750  135.3430 N   0  0  0  0  0  0  0  0  0  0  0  0
  186.3560  173.2200  134.9030 C   0  0  1  0  0  3  0  0  0  0  0  0
  185.7320  170.9450  134.8380 C   0  0  0  0  0  0  0  0  0  0  0  0
  186.8130  173.7230  137.1220 N   0  0  0  0  0  0  0  0  0  0  0  0
  185.1840  172.2850  134.5720 C   0  0  0  0  0  2  0  0  0  0  0  0
  190.8460  177.5920  142.5490 C   0  0  1  0  0  3  0  0  0  0  0  0
  191.5640  179.3400  144.1690 C   0  0  0  0  0  2  0  0  0  0  0  0
  190.6520  178.8800  143.3140 C   0  0  0  0  0  3  0  0  0  0  0  0
  190.5280  176.3710  143.4230 C   0  0  0  0  0  2  0  0  0  0  0  0
  187.4580  177.3380  145.8490 C   0  0  1  0  0  3  0  0  0  0  0  0
  188.5660  176.9200  144.9370 N   0  0  0  0  0  0  0  0  0  0  0  0
  188.3110  175.5930  143.0480 O   0  0  0  0  0  0  0  0  0  0  0  0
  188.7380  177.7430  146.1680 C   0  0  0  0  0  2  0  0  0  0  0  0
  189.0760  176.2840  143.7690 C   0  0  0  0  0  0  0  0  0  0  0  0
  186.6660  178.4460  145.1690 C   0  0  0  0  0  2  0  0  0  0  0  0
  185.5270  177.9310  144.5460 O   0  0  0  0  0  0  0  0  0  0  0  0
  185.7780  178.0430  143.1780 C   0  0  0  0  0  2  0  0  0  0  0  0
  183.4050  178.7870  143.2200 C   0  0  0  0  0  1  0  0  0  0  0  0
  184.7510  178.9670  142.5430 C   0  0  2  0  0  3  0  0  0  0  0  0
  184.6070  178.6660  141.0610 C   0  0  0  0  0  2  0  0  0  0  0  0
  183.1480  178.7160  140.6410 C   0  0  0  0  0  2  0  0  0  0  0  0
  184.2380  180.2220  139.0850 N   0  0  0  0  0  1  0  0  0  0  0  0
  183.0250  179.4630  139.3290 C   0  0  0  0  0  2  0  0  0  0  0  0
  1  3  1  0  0  0  0
  1  5  1  0  0  0  0
  3 12  1  0  0  0  0
  4 10  2  0  0  0  0
  4  8  1  0  0  0  0
  5 15  1  1  0  0  0
  5  4  1  0  0  0  0
  6 14  1  0  0  0  0
  6  3  2  0  0  0  0
  7 31  1  0  0  0  0
  8  9  2  0  0  0  0
  9  7  1  0  0  0  0
 10 11  1  0  0  0  0
 11  7  2  0  0  0  0
 12  2  2  0  0  0  0
 12 10  1  0  0  0  0
 14 13  3  0  0  0  0
 16 15  1  0  0  0  0
 17 18  1  6  0  0  0
 17 20  1  0  0  0  0
 17 16  1  0  0  0  0
 20 19  1  1  0  0  0
 21 20  1  0  0  0  0
 21 29  2  0  0  0  0
 23 28  2  0  0  0  0
 24 25  1  1  0  0  0
 25 29  1  0  0  0  0
 26 24  1  0  0  0  0
 26 22  1  0  0  0  0
 27 30  1  1  0  0  0
 27 24  1  0  0  0  0
 27 21  1  0  0  0  0
 28 26  1  0  0  0  0
 30 28  1  0  0  0  0
 31 33  1  1  0  0  0
 31 34  1  0  0  0  0
 33 32  2  0  0  0  0
 34 39  1  0  0  0  0
 35 40  1  6  0  0  0
 35 38  1  0  0  0  0
 36 35  1  0  0  0  0
 36 38  1  0  0  0  0
 37 39  2  0  0  0  0
 39 36  1  0  0  0  0
 41 40  1  0  0  0  0
 42 41  1  0  0  0  0
 44 42  1  0  0  0  0
 44 43  1  1  0  0  0
 45 44  1  0  0  0  0
 46 45  1  0  0  0  0
 47 48  1  0  0  0  0
 48 46  1  0  0  0  0
M  END
>  <MODEL>
1

>  <REMARK>
 VINA RESULT:      -7.1      0.000      0.000
  Name = 
  17 active torsions:
  status: ('A' for Active; 'I' for Inactive)
    1  A    between atoms: C_1  and  C_11
    2  A    between atoms: C_5  and  C_8
    3  A    between atoms: C_5  and  O_37
    4  A    between atoms: C_11  and  C_24
    5  A    between atoms: C_19  and  C_44
    6  A    between atoms: C_20  and  C_25
    7  A    between atoms: C_21  and  C_24
    8  A    between atoms: C_21  and  C_44
    9  A    between atoms: C_26  and  C_36
   10  A    between atoms: C_26  and  C_47
   11  A    between atoms: C_27  and  C_33
   12  A    between atoms: C_32  and  C_33
   13  A    between atoms: C_32  and  C_48
   14  A    between atoms: C_33  and  C_42
   15  A    between atoms: C_36  and  C_46
   16  A    between atoms: O_37  and  C_43
   17  A    between atoms: C_43  and  C_47
                            x       y       z     vdW  Elec       q    Type
                         _______ _______ _______ _____ _____    ______ ____

>  <TORSDO>
F 17

$$$$
=
 OpenBabel10232411353D

 48 52  0  0  1  0  0  0  0  0999 V2000
  188.7390  177.6290  136.0960 S   0  0  0  0  0  0  0  0  0  0  0  0
  191.5860  175.5910  137.8620 O   0  0  0  0  0  0  0  0  0  0  0  0
  189.7670  176.2110  136.4550 C   0  0  0  0  0  0  0  0  0  0  0  0
  188.6210  177.4980  138.8620 C   0  0  0  0  0  0  0  0  0  0  0  0
  187.7600  177.3680  137.6130 C   0  0  1  0  0  3  0  0  0  0  0  0
  189.7910  175.2100  135.5720 C   0  0  0  0  0  3  0  0  0  0  0  0
  190.1790  177.6810  141.2180 C   0  0  0  0  0  0  0  0  0  0  0  0
  188.1060  178.1020  140.0190 C   0  0  0  0  0  3  0  0  0  0  0  0
  188.8740  178.1920  141.1830 C   0  0  0  0  0  3  0  0  0  0  0  0
  189.9180  176.9230  138.9080 C   0  0  0  0  0  0  0  0  0  0  0  0
  190.6730  177.0190  140.0870 C   0  0  0  0  0  3  0  0  0  0  0  0
  190.4870  176.2020  137.7480 C   0  0  0  0  0  0  0  0  0  0  0  0
  191.1420  173.0110  135.8820 N   0  0  0  0  0  0  0  0  0  0  0  0
  190.5440  173.9920  135.7440 C   0  0  0  0  0  0  0  0  0  0  0  0
  186.4980  178.2400  137.5920 C   0  0  0  0  0  2  0  0  0  0  0  0
  185.2280  177.4370  137.8500 C   0  0  0  0  0  2  0  0  0  0  0  0
  185.0160  176.4340  136.7310 C   0  0  2  0  0  3  0  0  0  0  0  0
  184.9780  177.1940  135.4110 C   0  0  0  0  0  1  0  0  0  0  0  0
  183.3690  175.5910  138.4310 C   0  0  0  0  0  1  0  0  0  0  0  0
  183.7230  175.6320  136.9510 C   0  0  2  0  0  3  0  0  0  0  0  0
  183.8330  174.2280  136.4340 C   0  0  0  0  0  0  0  0  0  0  0  0
  185.7870  170.2620  135.0520 C   0  0  0  0  0  1  0  0  0  0  0  0
  187.7760  172.0410  136.2840 O   0  0  0  0  0  0  0  0  0  0  0  0
  184.2340  171.9190  136.2310 C   0  0  1  0  0  3  0  0  0  0  0  0
  183.5450  172.5100  135.1380 O   0  0  0  0  0  0  0  0  0  0  0  0
  185.5450  171.4800  135.8040 N   0  0  0  0  0  0  0  0  0  0  0  0
  184.4780  173.1120  137.1860 C   0  0  1  0  0  3  0  0  0  0  0  0
  186.5430  172.2580  136.4260 C   0  0  0  0  0  0  0  0  0  0  0  0
  183.3300  173.8520  135.3100 N   0  0  0  0  0  0  0  0  0  0  0  0
  185.9950  173.3310  137.2720 C   0  0  0  0  0  2  0  0  0  0  0  0
  190.9940  177.7140  142.4980 C   0  0  1  0  0  3  0  0  0  0  0  0
  191.5750  179.4350  144.2010 C   0  0  0  0  0  2  0  0  0  0  0  0
  190.6750  178.9020  143.3750 C   0  0  0  0  0  3  0  0  0  0  0  0
  190.9260  176.4010  143.2890 C   0  0  0  0  0  2  0  0  0  0  0  0
  189.1190  176.7550  146.8760 C   0  0  1  0  0  3  0  0  0  0  0  0
  189.7460  176.5740  145.5310 N   0  0  0  0  0  0  0  0  0  0  0  0
  188.6130  175.9420  143.6040 O   0  0  0  0  0  0  0  0  0  0  0  0
  190.4820  176.9460  146.7730 C   0  0  0  0  0  2  0  0  0  0  0  0
  189.6930  176.3110  144.1320 C   0  0  0  0  0  0  0  0  0  0  0  0
  188.3620  178.0750  146.8810 C   0  0  0  0  0  2  0  0  0  0  0  0
  187.0090  177.8710  146.6000 O   0  0  0  0  0  0  0  0  0  0  0  0
  186.8100  178.4310  145.3380 C   0  0  0  0  0  2  0  0  0  0  0  0
  184.6000  178.5670  146.4710 C   0  0  0  0  0  1  0  0  0  0  0  0
  185.3700  178.9030  145.2080 C   0  0  2  0  0  3  0  0  0  0  0  0
  184.6950  178.2350  144.0210 C   0  0  0  0  0  2  0  0  0  0  0  0
  185.5530  178.3590  142.7740 C   0  0  0  0  0  2  0  0  0  0  0  0
  183.2740  178.6000  141.9840 N   0  0  0  0  0  1  0  0  0  0  0  0
  184.6610  178.5380  141.5630 C   0  0  0  0  0  2  0  0  0  0  0  0
  1  3  1  0  0  0  0
  1  5  1  0  0  0  0
  3 12  1  0  0  0  0
  4 10  2  0  0  0  0
  4  8  1  0  0  0  0
  5 15  1  1  0  0  0
  5  4  1  0  0  0  0
  6 14  1  0  0  0  0
  6  3  2  0  0  0  0
  7 31  1  0  0  0  0
  8  9  2  0  0  0  0
  9  7  1  0  0  0  0
 10 11  1  0  0  0  0
 11  7  2  0  0  0  0
 12  2  2  0  0  0  0
 12 10  1  0  0  0  0
 14 13  3  0  0  0  0
 15 16  1  0  0  0  0
 17 18  1  6  0  0  0
 17 20  1  0  0  0  0
 17 16  1  0  0  0  0
 20 19  1  1  0  0  0
 21 20  1  0  0  0  0
 21 27  1  0  0  0  0
 22 26  1  0  0  0  0
 23 28  2  0  0  0  0
 24 25  1  6  0  0  0
 24 27  1  0  0  0  0
 25 29  1  0  0  0  0
 26 24  1  0  0  0  0
 26 28  1  0  0  0  0
 27 30  1  6  0  0  0
 28 30  1  0  0  0  0
 29 21  2  0  0  0  0
 31 34  1  1  0  0  0
 31 33  1  0  0  0  0
 33 32  2  0  0  0  0
 34 39  1  0  0  0  0
 35 40  1  6  0  0  0
 36 38  1  0  0  0  0
 36 35  1  0  0  0  0
 37 39  2  0  0  0  0
 38 35  1  0  0  0  0
 39 36  1  0  0  0  0
 41 40  1  0  0  0  0
 42 41  1  0  0  0  0
 44 42  1  0  0  0  0
 44 43  1  1  0  0  0
 45 44  1  0  0  0  0
 46 45  1  0  0  0  0
 48 47  1  0  0  0  0
 48 46  1  0  0  0  0
M  END
>  <MODEL>
2

>  <REMARK>
 VINA RESULT:      -6.9      1.348      2.008
  Name = 
  17 active torsions:
  status: ('A' for Active; 'I' for Inactive)
    1  A    between atoms: C_1  and  C_11
    2  A    between atoms: C_5  and  C_8
    3  A    between atoms: C_5  and  O_37
    4  A    between atoms: C_11  and  C_24
    5  A    between atoms: C_19  and  C_44
    6  A    between atoms: C_20  and  C_25
    7  A    between atoms: C_21  and  C_24
    8  A    between atoms: C_21  and  C_44
    9  A    between atoms: C_26  and  C_36
   10  A    between atoms: C_26  and  C_47
   11  A    between atoms: C_27  and  C_33
   12  A    between atoms: C_32  and  C_33
   13  A    between atoms: C_32  and  C_48
   14  A    between atoms: C_33  and  C_42
   15  A    between atoms: C_36  and  C_46
   16  A    between atoms: O_37  and  C_43
   17  A    between atoms: C_43  and  C_47
                            x       y       z     vdW  Elec       q    Type
                         _______ _______ _______ _____ _____    ______ ____

>  <TORSDO>
F 17

$$$$
=
 OpenBabel10232411353D

 48 52  0  0  1  0  0  0  0  0999 V2000
  185.1520  175.1900  136.9530 S   0  0  0  0  0  0  0  0  0  0  0  0
  181.8070  175.0290  138.9920 O   0  0  0  0  0  0  0  0  0  0  0  0
  183.4050  174.9360  137.2280 C   0  0  0  0  0  0  0  0  0  0  0  0
  184.4240  177.5000  138.3000 C   0  0  0  0  0  0  0  0  0  0  0  0
  184.9420  177.0030  136.9580 C   0  0  1  0  0  3  0  0  0  0  0  0
  182.7150  174.2500  136.3130 C   0  0  0  0  0  3  0  0  0  0  0  0
  183.4160  178.4800  140.7570 C   0  0  0  0  0  0  0  0  0  0  0  0
  184.8860  178.7120  138.8340 C   0  0  0  0  0  3  0  0  0  0  0  0
  184.3890  179.1980  140.0460 C   0  0  0  0  0  3  0  0  0  0  0  0
  183.3950  176.8000  138.9820 C   0  0  0  0  0  0  0  0  0  0  0  0
  182.9040  177.3040  140.1950 C   0  0  0  0  0  3  0  0  0  0  0  0
  182.8070  175.5570  138.4310 C   0  0  0  0  0  0  0  0  0  0  0  0
  180.1580  173.8020  136.4400 N   0  0  0  0  0  0  0  0  0  0  0  0
  181.2970  173.9980  136.3840 C   0  0  0  0  0  0  0  0  0  0  0  0
  186.2160  177.6900  136.4510 C   0  0  0  0  0  2  0  0  0  0  0  0
  187.4860  177.0230  136.9690 C   0  0  0  0  0  2  0  0  0  0  0  0
  188.1150  177.8830  138.0500 C   0  0  2  0  0  3  0  0  0  0  0  0
  189.0780  178.8570  137.3830 C   0  0  0  0  0  1  0  0  0  0  0  0
  188.7010  177.6230  140.4800 C   0  0  0  0  0  1  0  0  0  0  0  0
  188.8340  177.0120  139.0920 C   0  0  2  0  0  3  0  0  0  0  0  0
  190.2890  176.8330  138.7730 C   0  0  0  0  0  0  0  0  0  0  0  0
  194.1910  174.7750  137.3580 C   0  0  0  0  0  1  0  0  0  0  0  0
  191.8420  173.1330  136.7090 O   0  0  0  0  0  0  0  0  0  0  0  0
  192.3360  176.5130  137.6580 C   0  0  1  0  0  3  0  0  0  0  0  0
  192.4440  176.8270  139.0390 O   0  0  0  0  0  0  0  0  0  0  0  0
  192.7920  175.1580  137.4270 N   0  0  0  0  0  0  0  0  0  0  0  0
  190.8070  176.4910  137.4160 C   0  0  1  0  0  3  0  0  0  0  0  0
  191.7100  174.3420  137.0410 C   0  0  0  0  0  0  0  0  0  0  0  0
  191.2260  177.0110  139.6390 N   0  0  0  0  0  0  0  0  0  0  0  0
  190.4210  175.0520  137.0420 C   0  0  0  0  0  2  0  0  0  0  0  0
  182.8220  179.0340  142.0390 C   0  0  1  0  0  3  0  0  0  0  0  0
  180.5830  179.0890  143.1280 C   0  0  0  0  0  2  0  0  0  0  0  0
  181.3130  179.1030  142.0130 C   0  0  0  0  0  3  0  0  0  0  0  0
  183.3250  178.3130  143.2970 C   0  0  0  0  0  2  0  0  0  0  0  0
  185.7450  178.9580  146.4550 C   0  0  1  0  0  3  0  0  0  0  0  0
  184.8600  178.7820  145.2630 N   0  0  0  0  0  0  0  0  0  0  0  0
  185.1950  179.7800  143.1930 O   0  0  0  0  0  0  0  0  0  0  0  0
  184.6230  178.1680  146.6010 C   0  0  0  0  0  2  0  0  0  0  0  0
  184.5200  178.9840  143.8950 C   0  0  0  0  0  0  0  0  0  0  0  0
  187.0020  178.1240  146.2490 C   0  0  0  0  0  2  0  0  0  0  0  0
  187.6090  177.8320  147.4730 O   0  0  0  0  0  0  0  0  0  0  0  0
  188.9530  178.1620  147.3010 C   0  0  0  0  0  2  0  0  0  0  0  0
  190.7340  176.4310  147.1480 C   0  0  0  0  0  1  0  0  0  0  0  0
  189.6200  177.1350  146.3970 C   0  0  2  0  0  3  0  0  0  0  0  0
  190.1980  177.8070  145.1630 C   0  0  0  0  0  2  0  0  0  0  0  0
  191.5120  177.1580  144.7620 C   0  0  0  0  0  2  0  0  0  0  0  0
  190.4780  175.7460  143.0850 N   0  0  0  0  0  1  0  0  0  0  0  0
  191.4650  176.7890  143.2940 C   0  0  0  0  0  2  0  0  0  0  0  0
  1  5  1  0  0  0  0
  1  3  1  0  0  0  0
  3 12  1  0  0  0  0
  4  8  2  0  0  0  0
  4 10  1  0  0  0  0
  5 15  1  1  0  0  0
  5  4  1  0  0  0  0
  6 14  1  0  0  0  0
  6  3  2  0  0  0  0
  7 31  1  0  0  0  0
  8  9  1  0  0  0  0
  9  7  2  0  0  0  0
 10 11  2  0  0  0  0
 11  7  1  0  0  0  0
 12 10  1  0  0  0  0
 12  2  2  0  0  0  0
 14 13  3  0  0  0  0
 15 16  1  0  0  0  0
 16 17  1  0  0  0  0
 17 18  1  6  0  0  0
 17 20  1  0  0  0  0
 20 19  1  1  0  0  0
 21 20  1  0  0  0  0
 21 29  2  0  0  0  0
 22 26  1  0  0  0  0
 23 28  2  0  0  0  0
 24 25  1  1  0  0  0
 25 29  1  0  0  0  0
 26 24  1  0  0  0  0
 27 30  1  1  0  0  0
 27 24  1  0  0  0  0
 27 21  1  0  0  0  0
 28 30  1  0  0  0  0
 28 26  1  0  0  0  0
 31 33  1  6  0  0  0
 31 34  1  0  0  0  0
 33 32  2  0  0  0  0
 34 39  1  0  0  0  0
 35 40  1  6  0  0  0
 35 38  1  0  0  0  0
 36 35  1  0  0  0  0
 36 38  1  0  0  0  0
 37 39  2  0  0  0  0
 39 36  1  0  0  0  0
 40 41  1  0  0  0  0
 42 41  1  0  0  0  0
 44 43  1  1  0  0  0
 44 42  1  0  0  0  0
 45 44  1  0  0  0  0
 46 45  1  0  0  0  0
 47 48  1  0  0  0  0
 48 46  1  0  0  0  0
M  END
>  <MODEL>
3

>  <REMARK>
 VINA RESULT:      -6.8      3.070      6.753
  Name = 
  17 active torsions:
  status: ('A' for Active; 'I' for Inactive)
    1  A    between atoms: C_1  and  C_11
    2  A    between atoms: C_5  and  C_8
    3  A    between atoms: C_5  and  O_37
    4  A    between atoms: C_11  and  C_24
    5  A    between atoms: C_19  and  C_44
    6  A    between atoms: C_20  and  C_25
    7  A    between atoms: C_21  and  C_24
    8  A    between atoms: C_21  and  C_44
    9  A    between atoms: C_26  and  C_36
   10  A    between atoms: C_26  and  C_47
   11  A    between atoms: C_27  and  C_33
   12  A    between atoms: C_32  and  C_33
   13  A    between atoms: C_32  and  C_48
   14  A    between atoms: C_33  and  C_42
   15  A    between atoms: C_36  and  C_46
   16  A    between atoms: O_37  and  C_43
   17  A    between atoms: C_43  and  C_47
                            x       y       z     vdW  Elec       q    Type
                         _______ _______ _______ _____ _____    ______ ____

>  <TORSDO>
F 17

$$$$
=
 OpenBabel10232411353D

 48 52  0  0  1  0  0  0  0  0999 V2000
  191.4830  177.4400  143.4450 S   0  0  0  0  0  0  0  0  0  0  0  0
  189.7490  177.4120  146.9610 O   0  0  0  0  0  0  0  0  0  0  0  0
  191.1930  176.9240  145.1310 C   0  0  0  0  0  0  0  0  0  0  0  0
  188.7500  176.9830  143.4620 C   0  0  0  0  0  0  0  0  0  0  0  0
  190.0500  176.4800  142.8510 C   0  0  1  0  0  3  0  0  0  0  0  0
  192.1570  176.2440  145.7580 C   0  0  0  0  0  3  0  0  0  0  0  0
  186.3060  177.8440  144.6010 C   0  0  0  0  0  0  0  0  0  0  0  0
  187.5750  177.0220  142.6970 C   0  0  0  0  0  3  0  0  0  0  0  0
  186.3670  177.4460  143.2580 C   0  0  0  0  0  3  0  0  0  0  0  0
  188.6830  177.3250  144.8370 C   0  0  0  0  0  0  0  0  0  0  0  0
  187.4620  177.7430  145.3850 C   0  0  0  0  0  3  0  0  0  0  0  0
  189.8690  177.2280  145.7180 C   0  0  0  0  0  0  0  0  0  0  0  0
  191.9670  175.3340  148.1860 N   0  0  0  0  0  0  0  0  0  0  0  0
  192.0510  175.7360  147.1030 C   0  0  0  0  0  0  0  0  0  0  0  0
  190.0640  176.3910  141.3190 C   0  0  0  0  0  2  0  0  0  0  0  0
  190.3240  177.7400  140.6580 C   0  0  0  0  0  2  0  0  0  0  0  0
  189.3270  177.9650  139.5350 C   0  0  2  0  0  3  0  0  0  0  0  0
  188.3880  176.7660  139.4870 C   0  0  0  0  0  1  0  0  0  0  0  0
  189.1500  178.8970  137.2080 C   0  0  0  0  0  1  0  0  0  0  0  0
  190.0490  178.1640  138.1930 C   0  0  2  0  0  3  0  0  0  0  0  0
  190.4830  176.8620  137.5860 C   0  0  0  0  0  0  0  0  0  0  0  0
  193.2480  173.7150  135.6070 C   0  0  0  0  0  1  0  0  0  0  0  0
  194.7880  176.0530  136.5010 O   0  0  0  0  0  0  0  0  0  0  0  0
  191.5400  174.8010  137.1740 C   0  0  1  0  0  3  0  0  0  0  0  0
  190.4830  175.1260  136.2820 O   0  0  0  0  0  0  0  0  0  0  0  0
  192.8000  174.8010  136.4610 N   0  0  0  0  0  0  0  0  0  0  0  0
  191.5930  176.0220  138.1240 C   0  0  1  0  0  3  0  0  0  0  0  0
  193.6090  175.8650  136.9070 C   0  0  0  0  0  0  0  0  0  0  0  0
  189.8970  176.3300  136.5700 N   0  0  0  0  0  0  0  0  0  0  0  0
  192.9450  176.7160  137.9080 C   0  0  0  0  0  2  0  0  0  0  0  0
  184.9860  178.2400  145.2360 C   0  0  1  0  0  3  0  0  0  0  0  0
  185.8550  179.4240  147.2460 C   0  0  0  0  0  2  0  0  0  0  0  0
  185.0880  178.4670  146.7270 C   0  0  0  0  0  3  0  0  0  0  0  0
  184.3130  179.4280  144.5370 C   0  0  0  0  0  2  0  0  0  0  0  0
  182.9870  178.6640  140.8070 C   0  0  1  0  0  3  0  0  0  0  0  0
  183.4160  178.9670  142.2070 N   0  0  0  0  0  0  0  0  0  0  0  0
  182.0860  178.7150  144.0950 O   0  0  0  0  0  0  0  0  0  0  0  0
  184.2600  179.1630  140.9940 C   0  0  0  0  0  2  0  0  0  0  0  0
  183.2150  178.9980  143.6170 C   0  0  0  0  0  0  0  0  0  0  0  0
  182.9930  177.1540  140.6180 C   0  0  0  0  0  2  0  0  0  0  0  0
  181.9800  176.7610  139.7400 O   0  0  0  0  0  0  0  0  0  0  0  0
  182.1080  177.6040  138.6360 C   0  0  0  0  0  2  0  0  0  0  0  0
  182.3620  175.3070  137.7160 C   0  0  0  0  0  1  0  0  0  0  0  0
  182.1950  176.7730  137.3640 C   0  0  2  0  0  3  0  0  0  0  0  0
  183.3740  177.2190  136.5160 C   0  0  0  0  0  2  0  0  0  0  0  0
  184.6270  177.3510  137.3630 C   0  0  0  0  0  2  0  0  0  0  0  0
  186.3230  177.2560  135.6320 N   0  0  0  0  0  1  0  0  0  0  0  0
  185.7420  176.5300  136.7460 C   0  0  0  0  0  2  0  0  0  0  0  0
  1  3  1  0  0  0  0
  3 12  1  0  0  0  0
  3  6  2  0  0  0  0
  4 10  1  0  0  0  0
  5 15  1  6  0  0  0
  5  1  1  0  0  0  0
  5  4  1  0  0  0  0
  6 14  1  0  0  0  0
  7 31  1  0  0  0  0
  7 11  1  0  0  0  0
  8  9  1  0  0  0  0
  8  4  2  0  0  0  0
  9  7  2  0  0  0  0
 10 11  2  0  0  0  0
 10 12  1  0  0  0  0
 12  2  2  0  0  0  0
 14 13  3  0  0  0  0
 16 15  1  0  0  0  0
 17 18  1  6  0  0  0
 17 16  1  0  0  0  0
 20 19  1  6  0  0  0
 20 17  1  0  0  0  0
 21 27  1  0  0  0  0
 21 20  1  0  0  0  0
 22 26  1  0  0  0  0
 23 28  2  0  0  0  0
 24 25  1  6  0  0  0
 24 27  1  0  0  0  0
 25 29  1  0  0  0  0
 26 28  1  0  0  0  0
 26 24  1  0  0  0  0
 27 30  1  6  0  0  0
 28 30  1  0  0  0  0
 29 21  2  0  0  0  0
 31 34  1  6  0  0  0
 31 33  1  0  0  0  0
 33 32  2  0  0  0  0
 35 40  1  1  0  0  0
 35 38  1  0  0  0  0
 35 36  1  0  0  0  0
 36 39  1  0  0  0  0
 38 36  1  0  0  0  0
 39 37  2  0  0  0  0
 39 34  1  0  0  0  0
 41 40  1  0  0  0  0
 42 41  1  0  0  0  0
 44 43  1  1  0  0  0
 44 42  1  0  0  0  0
 45 46  1  0  0  0  0
 45 44  1  0  0  0  0
 47 48  1  0  0  0  0
 48 46  1  0  0  0  0
M  END
>  <MODEL>
4

>  <REMARK>
 VINA RESULT:      -6.7      3.157      6.918
  Name = 
  17 active torsions:
  status: ('A' for Active; 'I' for Inactive)
    1  A    between atoms: C_1  and  C_11
    2  A    between atoms: C_5  and  C_8
    3  A    between atoms: C_5  and  O_37
    4  A    between atoms: C_11  and  C_24
    5  A    between atoms: C_19  and  C_44
    6  A    between atoms: C_20  and  C_25
    7  A    between atoms: C_21  and  C_24
    8  A    between atoms: C_21  and  C_44
    9  A    between atoms: C_26  and  C_36
   10  A    between atoms: C_26  and  C_47
   11  A    between atoms: C_27  and  C_33
   12  A    between atoms: C_32  and  C_33
   13  A    between atoms: C_32  and  C_48
   14  A    between atoms: C_33  and  C_42
   15  A    between atoms: C_36  and  C_46
   16  A    between atoms: O_37  and  C_43
   17  A    between atoms: C_43  and  C_47
                            x       y       z     vdW  Elec       q    Type
                         _______ _______ _______ _____ _____    ______ ____

>  <TORSDO>
F 17

$$$$
=
 OpenBabel10232411353D

 48 52  0  0  1  0  0  0  0  0999 V2000
  189.3140  177.8360  136.5430 S   0  0  0  0  0  0  0  0  0  0  0  0
  187.6230  178.5750  140.0020 O   0  0  0  0  0  0  0  0  0  0  0  0
  189.1100  177.7860  138.3180 C   0  0  0  0  0  0  0  0  0  0  0  0
  186.6740  177.0390  136.8130 C   0  0  0  0  0  0  0  0  0  0  0  0
  188.0290  176.5620  136.3090 C   0  0  1  0  0  3  0  0  0  0  0  0
  190.1650  177.4490  139.0650 C   0  0  0  0  0  3  0  0  0  0  0  0
  184.1390  177.8500  137.7770 C   0  0  0  0  0  0  0  0  0  0  0  0
  185.5000  176.7000  136.1240 C   0  0  0  0  0  3  0  0  0  0  0  0
  184.2480  177.0990  136.5990 C   0  0  0  0  0  3  0  0  0  0  0  0
  186.5670  177.7450  138.0400 C   0  0  0  0  0  0  0  0  0  0  0  0
  185.3020  178.1330  138.5040 C   0  0  0  0  0  3  0  0  0  0  0  0
  187.7610  178.0620  138.8570 C   0  0  0  0  0  0  0  0  0  0  0  0
  190.1270  177.2380  141.6560 N   0  0  0  0  0  0  0  0  0  0  0  0
  190.1400  177.3340  140.5020 C   0  0  0  0  0  0  0  0  0  0  0  0
  188.0460  176.0450  134.8650 C   0  0  0  0  0  2  0  0  0  0  0  0
  189.2210  175.1120  134.5920 C   0  0  0  0  0  2  0  0  0  0  0  0
  188.7300  173.6780  134.4980 C   0  0  2  0  0  3  0  0  0  0  0  0
  187.2110  173.7030  134.3790 C   0  0  0  0  0  1  0  0  0  0  0  0
  188.0600  172.7790  136.7480 C   0  0  0  0  0  1  0  0  0  0  0  0
  189.1810  172.8640  135.7210 C   0  0  2  0  0  3  0  0  0  0  0  0
  190.3990  173.4510  136.3730 C   0  0  0  0  0  0  0  0  0  0  0  0
  194.7280  173.7380  137.9970 C   0  0  0  0  0  1  0  0  0  0  0  0
  194.3570  171.2860  136.4190 O   0  0  0  0  0  0  0  0  0  0  0  0
  192.5490  174.3130  136.7850 C   0  0  1  0  0  3  0  0  0  0  0  0
  191.6320  174.4360  137.8630 O   0  0  0  0  0  0  0  0  0  0  0  0
  193.6060  173.3910  137.1440 N   0  0  0  0  0  0  0  0  0  0  0  0
  191.7180  173.5980  135.6920 C   0  0  1  0  0  3  0  0  0  0  0  0
  193.5160  172.2230  136.3600 C   0  0  0  0  0  0  0  0  0  0  0  0
  190.3950  173.9270  137.5700 N   0  0  0  0  0  0  0  0  0  0  0  0
  192.3550  172.2220  135.4540 C   0  0  0  0  0  2  0  0  0  0  0  0
  182.7800  178.2280  138.3370 C   0  0  1  0  0  3  0  0  0  0  0  0
  182.6410  175.9880  139.4130 C   0  0  0  0  0  2  0  0  0  0  0  0
  182.0210  177.0500  138.9010 C   0  0  0  0  0  3  0  0  0  0  0  0
  182.8430  179.3850  139.3440 C   0  0  0  0  0  2  0  0  0  0  0  0
  183.9420  178.3810  143.0900 C   0  0  1  0  0  3  0  0  0  0  0  0
  183.4820  178.7100  141.7060 N   0  0  0  0  0  0  0  0  0  0  0  0
  181.2680  178.7470  141.0080 O   0  0  0  0  0  0  0  0  0  0  0  0
  184.9070  178.6530  142.1420 C   0  0  0  0  0  2  0  0  0  0  0  0
  182.4760  178.9520  140.7280 C   0  0  0  0  0  0  0  0  0  0  0  0
  183.6730  179.5820  143.9850 C   0  0  0  0  0  2  0  0  0  0  0  0
  183.8850  179.2570  145.3270 O   0  0  0  0  0  0  0  0  0  0  0  0
  185.2680  179.3190  145.5040 C   0  0  0  0  0  2  0  0  0  0  0  0
  186.5910  178.6750  147.5090 C   0  0  0  0  0  1  0  0  0  0  0  0
  185.7250  178.1590  146.3760 C   0  0  2  0  0  3  0  0  0  0  0  0
  186.5200  177.1570  145.5570 C   0  0  0  0  0  2  0  0  0  0  0  0
  187.6810  177.8380  144.8530 C   0  0  0  0  0  2  0  0  0  0  0  0
  190.0110  177.8310  145.5250 N   0  0  0  0  0  1  0  0  0  0  0  0
  188.9330  177.0010  145.0190 C   0  0  0  0  0  2  0  0  0  0  0  0
  1  3  1  0  0  0  0
  3 12  1  0  0  0  0
  3  6  2  0  0  0  0
  4 10  1  0  0  0  0
  5 15  1  6  0  0  0
  5  1  1  0  0  0  0
  5  4  1  0  0  0  0
  6 14  1  0  0  0  0
  7 31  1  0  0  0  0
  7 11  1  0  0  0  0
  8  9  1  0  0  0  0
  8  4  2  0  0  0  0
  9  7  2  0  0  0  0
 10 11  2  0  0  0  0
 10 12  1  0  0  0  0
 12  2  2  0  0  0  0
 14 13  3  0  0  0  0
 16 15  1  0  0  0  0
 17 18  1  1  0  0  0
 17 16  1  0  0  0  0
 17 20  1  0  0  0  0
 20 21  1  0  0  0  0
 20 19  1  1  0  0  0
 21 29  2  0  0  0  0
 24 26  1  0  0  0  0
 24 25  1  1  0  0  0
 26 22  1  0  0  0  0
 27 30  1  1  0  0  0
 27 21  1  0  0  0  0
 27 24  1  0  0  0  0
 28 23  2  0  0  0  0
 28 26  1  0  0  0  0
 29 25  1  0  0  0  0
 30 28  1  0  0  0  0
 31 33  1  1  0  0  0
 31 34  1  0  0  0  0
 33 32  2  0  0  0  0
 34 39  1  0  0  0  0
 35 40  1  1  0  0  0
 36 38  1  0  0  0  0
 36 35  1  0  0  0  0
 38 35  1  0  0  0  0
 39 37  2  0  0  0  0
 39 36  1  0  0  0  0
 40 41  1  0  0  0  0
 41 42  1  0  0  0  0
 42 44  1  0  0  0  0
 44 43  1  1  0  0  0
 45 44  1  0  0  0  0
 46 48  1  0  0  0  0
 46 45  1  0  0  0  0
 48 47  1  0  0  0  0
M  END
>  <MODEL>
5

>  <REMARK>
 VINA RESULT:      -6.7      2.431      6.068
  Name = 
  17 active torsions:
  status: ('A' for Active; 'I' for Inactive)
    1  A    between atoms: C_1  and  C_11
    2  A    between atoms: C_5  and  C_8
    3  A    between atoms: C_5  and  O_37
    4  A    between atoms: C_11  and  C_24
    5  A    between atoms: C_19  and  C_44
    6  A    between atoms: C_20  and  C_25
    7  A    between atoms: C_21  and  C_24
    8  A    between atoms: C_21  and  C_44
    9  A    between atoms: C_26  and  C_36
   10  A    between atoms: C_26  and  C_47
   11  A    between atoms: C_27  and  C_33
   12  A    between atoms: C_32  and  C_33
   13  A    between atoms: C_32  and  C_48
   14  A    between atoms: C_33  and  C_42
   15  A    between atoms: C_36  and  C_46
   16  A    between atoms: O_37  and  C_43
   17  A    between atoms: C_43  and  C_47
                            x       y       z     vdW  Elec       q    Type
                         _______ _______ _______ _____ _____    ______ ____

>  <TORSDO>
F 17

$$$$
=
 OpenBabel10232411353D

 48 52  0  0  1  0  0  0  0  0999 V2000
  191.5750  177.3010  143.4280 S   0  0  0  0  0  0  0  0  0  0  0  0
  189.9450  177.4780  146.9890 O   0  0  0  0  0  0  0  0  0  0  0  0
  191.3320  176.8800  145.1470 C   0  0  0  0  0  0  0  0  0  0  0  0
  188.8410  176.8660  143.5490 C   0  0  0  0  0  0  0  0  0  0  0  0
  190.1200  176.3210  142.9290 C   0  0  1  0  0  3  0  0  0  0  0  0
  192.3100  176.2290  145.7820 C   0  0  0  0  0  3  0  0  0  0  0  0
  186.4370  177.8050  144.7100 C   0  0  0  0  0  0  0  0  0  0  0  0
  187.6440  176.8720  142.8180 C   0  0  0  0  0  3  0  0  0  0  0  0
  186.4560  177.3340  143.3900 C   0  0  0  0  0  3  0  0  0  0  0  0
  188.8170  177.2820  144.9050 C   0  0  0  0  0  0  0  0  0  0  0  0
  187.6140  177.7390  145.4650 C   0  0  0  0  0  3  0  0  0  0  0  0
  190.0280  177.2250  145.7550 C   0  0  0  0  0  0  0  0  0  0  0  0
  192.1930  175.4480  148.2590 N   0  0  0  0  0  0  0  0  0  0  0  0
  192.2410  175.7950  147.1550 C   0  0  0  0  0  0  0  0  0  0  0  0
  190.0880  176.1480  141.4050 C   0  0  0  0  0  2  0  0  0  0  0  0
  190.8680  177.2390  140.6770 C   0  0  0  0  0  2  0  0  0  0  0  0
  190.9930  176.8870  139.2050 C   0  0  2  0  0  3  0  0  0  0  0  0
  192.4730  176.8720  138.8440 C   0  0  0  0  0  1  0  0  0  0  0  0
  189.0520  178.4810  139.1170 C   0  0  0  0  0  1  0  0  0  0  0  0
  190.2160  177.8890  138.3360 C   0  0  2  0  0  3  0  0  0  0  0  0
  189.6920  177.2600  137.0780 C   0  0  0  0  0  0  0  0  0  0  0  0
  187.3700  174.3260  134.3460 C   0  0  0  0  0  1  0  0  0  0  0  0
  186.6310  173.9450  137.1650 O   0  0  0  0  0  0  0  0  0  0  0  0
  188.2980  176.4910  135.3460 C   0  0  1  0  0  3  0  0  0  0  0  0
  189.6910  176.3590  135.1030 O   0  0  0  0  0  0  0  0  0  0  0  0
  187.6950  175.1810  135.4730 N   0  0  0  0  0  0  0  0  0  0  0  0
  188.2410  177.1210  136.7590 C   0  0  1  0  0  3  0  0  0  0  0  0
  187.2560  174.9760  136.7970 C   0  0  0  0  0  0  0  0  0  0  0  0
  190.4570  176.8270  136.1370 N   0  0  0  0  0  0  0  0  0  0  0  0
  187.5810  176.0970  137.6940 C   0  0  0  0  0  2  0  0  0  0  0  0
  185.1380  178.2440  145.3610 C   0  0  1  0  0  3  0  0  0  0  0  0
  185.8270  179.5310  147.3780 C   0  0  0  0  0  2  0  0  0  0  0  0
  185.2600  178.4450  146.8540 C   0  0  0  0  0  3  0  0  0  0  0  0
  184.5080  179.4690  144.6840 C   0  0  0  0  0  2  0  0  0  0  0  0
  183.4260  178.8020  140.8580 C   0  0  1  0  0  3  0  0  0  0  0  0
  183.7640  179.0710  142.2900 N   0  0  0  0  0  0  0  0  0  0  0  0
  182.2960  178.8390  144.0740 O   0  0  0  0  0  0  0  0  0  0  0  0
  184.6980  179.2540  141.1420 C   0  0  0  0  0  2  0  0  0  0  0  0
  183.4650  179.0890  143.6820 C   0  0  0  0  0  0  0  0  0  0  0  0
  183.3950  177.2950  140.6460 C   0  0  0  0  0  2  0  0  0  0  0  0
  183.2550  176.9890  139.2900 O   0  0  0  0  0  0  0  0  0  0  0  0
  182.3950  177.9640  138.7830 C   0  0  0  0  0  2  0  0  0  0  0  0
  180.9220  178.3970  136.8260 C   0  0  0  0  0  1  0  0  0  0  0  0
  182.2230  177.7660  137.2840 C   0  0  2  0  0  3  0  0  0  0  0  0
  182.2080  176.2860  136.9400 C   0  0  0  0  0  2  0  0  0  0  0  0
  183.1210  175.9980  135.7610 C   0  0  0  0  0  2  0  0  0  0  0  0
  184.7850  177.2520  134.5200 N   0  0  0  0  0  1  0  0  0  0  0  0
  184.3550  176.8720  135.8530 C   0  0  0  0  0  2  0  0  0  0  0  0
  1  3  1  0  0  0  0
  3 12  1  0  0  0  0
  3  6  2  0  0  0  0
  4 10  1  0  0  0  0
  5 15  1  6  0  0  0
  5  1  1  0  0  0  0
  5  4  1  0  0  0  0
  6 14  1  0  0  0  0
  7 31  1  0  0  0  0
  7 11  1  0  0  0  0
  8  9  1  0  0  0  0
  8  4  2  0  0  0  0
  9  7  2  0  0  0  0
 10 11  2  0  0  0  0
 10 12  1  0  0  0  0
 12  2  2  0  0  0  0
 14 13  3  0  0  0  0
 16 15  1  0  0  0  0
 17 18  1  6  0  0  0
 17 16  1  0  0  0  0
 20 19  1  1  0  0  0
 20 17  1  0  0  0  0
 21 20  1  0  0  0  0
 22 26  1  0  0  0  0
 24 25  1  1  0  0  0
 24 26  1  0  0  0  0
 24 27  1  0  0  0  0
 25 29  1  0  0  0  0
 26 28  1  0  0  0  0
 27 21  1  0  0  0  0
 27 30  1  1  0  0  0
 28 23  2  0  0  0  0
 28 30  1  0  0  0  0
 29 21  2  0  0  0  0
 31 34  1  6  0  0  0
 31 33  1  0  0  0  0
 33 32  2  0  0  0  0
 35 40  1  1  0  0  0
 35 38  1  0  0  0  0
 35 36  1  0  0  0  0
 36 39  1  0  0  0  0
 38 36  1  0  0  0  0
 39 37  2  0  0  0  0
 39 34  1  0  0  0  0
 41 40  1  0  0  0  0
 42 41  1  0  0  0  0
 44 43  1  1  0  0  0
 44 42  1  0  0  0  0
 45 44  1  0  0  0  0
 46 48  1  0  0  0  0
 46 45  1  0  0  0  0
 47 48  1  0  0  0  0
M  END
>  <MODEL>
6

>  <REMARK>
 VINA RESULT:      -6.5      2.699      6.526
  Name = 
  17 active torsions:
  status: ('A' for Active; 'I' for Inactive)
    1  A    between atoms: C_1  and  C_11
    2  A    between atoms: C_5  and  C_8
    3  A    between atoms: C_5  and  O_37
    4  A    between atoms: C_11  and  C_24
    5  A    between atoms: C_19  and  C_44
    6  A    between atoms: C_20  and  C_25
    7  A    between atoms: C_21  and  C_24
    8  A    between atoms: C_21  and  C_44
    9  A    between atoms: C_26  and  C_36
   10  A    between atoms: C_26  and  C_47
   11  A    between atoms: C_27  and  C_33
   12  A    between atoms: C_32  and  C_33
   13  A    between atoms: C_32  and  C_48
   14  A    between atoms: C_33  and  C_42
   15  A    between atoms: C_36  and  C_46
   16  A    between atoms: O_37  and  C_43
   17  A    between atoms: C_43  and  C_47
                            x       y       z     vdW  Elec       q    Type
                         _______ _______ _______ _____ _____    ______ ____

>  <TORSDO>
F 17

$$$$
=
 OpenBabel10232411353D

 48 52  0  0  1  0  0  0  0  0999 V2000
  191.2740  178.4110  143.1670 S   0  0  0  0  0  0  0  0  0  0  0  0
  189.4340  177.4950  146.5060 O   0  0  0  0  0  0  0  0  0  0  0  0
  190.9780  177.5290  144.6930 C   0  0  0  0  0  0  0  0  0  0  0  0
  188.5980  177.7250  142.9460 C   0  0  0  0  0  0  0  0  0  0  0  0
  189.9600  177.4760  142.3130 C   0  0  1  0  0  3  0  0  0  0  0  0
  191.9820  176.8200  145.2160 C   0  0  0  0  0  3  0  0  0  0  0  0
  186.0460  178.1100  144.1080 C   0  0  0  0  0  0  0  0  0  0  0  0
  187.4500  177.8210  142.1450 C   0  0  0  0  0  3  0  0  0  0  0  0
  186.1900  178.0110  142.7170 C   0  0  0  0  0  3  0  0  0  0  0  0
  188.4530  177.7630  144.3570 C   0  0  0  0  0  0  0  0  0  0  0  0
  187.1790  177.9490  144.9150 C   0  0  0  0  0  3  0  0  0  0  0  0
  189.6130  177.5860  145.2600 C   0  0  0  0  0  0  0  0  0  0  0  0
  191.7970  175.4070  147.3900 N   0  0  0  0  0  0  0  0  0  0  0  0
  191.8810  176.0330  146.4200 C   0  0  0  0  0  0  0  0  0  0  0  0
  190.0330  177.7130  140.7990 C   0  0  0  0  0  2  0  0  0  0  0  0
  190.3110  176.4310  140.0200 C   0  0  0  0  0  2  0  0  0  0  0  0
  191.2640  176.7220  138.8740 C   0  0  2  0  0  3  0  0  0  0  0  0
  190.7330  176.0270  137.6270 C   0  0  0  0  0  1  0  0  0  0  0  0
  193.4000  177.2850  140.0720 C   0  0  0  0  0  1  0  0  0  0  0  0
  192.6870  176.2500  139.2130 C   0  0  2  0  0  3  0  0  0  0  0  0
  193.5040  175.9870  137.9830 C   0  0  0  0  0  0  0  0  0  0  0  0
  197.0680  174.6060  135.3640 C   0  0  0  0  0  1  0  0  0  0  0  0
  197.4050  173.7260  138.1480 O   0  0  0  0  0  0  0  0  0  0  0  0
  194.6850  174.9490  136.2320 C   0  0  1  0  0  3  0  0  0  0  0  0
  194.5190  176.3530  136.0990 O   0  0  0  0  0  0  0  0  0  0  0  0
  196.0840  174.6380  136.4320 N   0  0  0  0  0  0  0  0  0  0  0  0
  193.9860  174.6350  137.5770 C   0  0  1  0  0  3  0  0  0  0  0  0
  196.2890  174.1410  137.7350 C   0  0  0  0  0  0  0  0  0  0  0  0
  193.8190  176.9070  137.1380 N   0  0  0  0  0  0  0  0  0  0  0  0
  195.0630  174.1350  138.5510 C   0  0  0  0  0  2  0  0  0  0  0  0
  184.6730  178.2470  144.7420 C   0  0  1  0  0  3  0  0  0  0  0  0
  185.5950  179.1680  146.8630 C   0  0  0  0  0  2  0  0  0  0  0  0
  184.7240  178.3710  146.2470 C   0  0  0  0  0  3  0  0  0  0  0  0
  183.8310  179.3680  144.1180 C   0  0  0  0  0  2  0  0  0  0  0  0
  182.0340  178.5400  140.6060 C   0  0  1  0  0  3  0  0  0  0  0  0
  182.6390  178.8600  141.9350 N   0  0  0  0  0  0  0  0  0  0  0  0
  181.6500  178.4270  143.9910 O   0  0  0  0  0  0  0  0  0  0  0  0
  183.2620  179.1710  140.6160 C   0  0  0  0  0  2  0  0  0  0  0  0
  182.6560  178.8400  143.3590 C   0  0  0  0  0  0  0  0  0  0  0  0
  182.1690  177.0440  140.3630 C   0  0  0  0  0  2  0  0  0  0  0  0
  182.1370  176.7590  138.9950 O   0  0  0  0  0  0  0  0  0  0  0  0
  183.3490  176.1230  138.7270 C   0  0  0  0  0  2  0  0  0  0  0  0
  182.8420  176.2020  136.2930 C   0  0  0  0  0  1  0  0  0  0  0  0
  183.8610  176.5540  137.3600 C   0  0  2  0  0  3  0  0  0  0  0  0
  185.1760  175.8630  137.0420 C   0  0  0  0  0  2  0  0  0  0  0  0
  186.1740  176.8490  136.4580 C   0  0  0  0  0  2  0  0  0  0  0  0
  187.3040  177.8480  138.3570 N   0  0  0  0  0  1  0  0  0  0  0  0
  186.2710  178.0620  137.3610 C   0  0  0  0  0  2  0  0  0  0  0  0
  1  3  1  0  0  0  0
  3  6  2  0  0  0  0
  3 12  1  0  0  0  0
  4 10  1  0  0  0  0
  5 15  1  6  0  0  0
  5  4  1  0  0  0  0
  5  1  1  0  0  0  0
  6 14  1  0  0  0  0
  7 31  1  0  0  0  0
  7 11  1  0  0  0  0
  8  9  1  0  0  0  0
  8  4  2  0  0  0  0
  9  7  2  0  0  0  0
 10 11  2  0  0  0  0
 10 12  1  0  0  0  0
 12  2  2  0  0  0  0
 14 13  3  0  0  0  0
 16 15  1  0  0  0  0
 17 18  1  6  0  0  0
 17 20  1  0  0  0  0
 17 16  1  0  0  0  0
 20 19  1  1  0  0  0
 21 20  1  0  0  0  0
 22 26  1  0  0  0  0
 24 25  1  1  0  0  0
 24 26  1  0  0  0  0
 24 27  1  0  0  0  0
 25 29  1  0  0  0  0
 26 28  1  0  0  0  0
 27 21  1  0  0  0  0
 27 30  1  1  0  0  0
 28 23  2  0  0  0  0
 28 30  1  0  0  0  0
 29 21  2  0  0  0  0
 31 34  1  6  0  0  0
 31 33  1  0  0  0  0
 33 32  2  0  0  0  0
 35 40  1  1  0  0  0
 35 38  1  0  0  0  0
 35 36  1  0  0  0  0
 36 39  1  0  0  0  0
 38 36  1  0  0  0  0
 39 37  2  0  0  0  0
 39 34  1  0  0  0  0
 41 40  1  0  0  0  0
 42 41  1  0  0  0  0
 44 43  1  6  0  0  0
 44 42  1  0  0  0  0
 45 44  1  0  0  0  0
 46 45  1  0  0  0  0
 46 48  1  0  0  0  0
 48 47  1  0  0  0  0
M  END
>  <MODEL>
7

>  <REMARK>
 VINA RESULT:      -6.5      3.415      7.597
  Name = 
  17 active torsions:
  status: ('A' for Active; 'I' for Inactive)
    1  A    between atoms: C_1  and  C_11
    2  A    between atoms: C_5  and  C_8
    3  A    between atoms: C_5  and  O_37
    4  A    between atoms: C_11  and  C_24
    5  A    between atoms: C_19  and  C_44
    6  A    between atoms: C_20  and  C_25
    7  A    between atoms: C_21  and  C_24
    8  A    between atoms: C_21  and  C_44
    9  A    between atoms: C_26  and  C_36
   10  A    between atoms: C_26  and  C_47
   11  A    between atoms: C_27  and  C_33
   12  A    between atoms: C_32  and  C_33
   13  A    between atoms: C_32  and  C_48
   14  A    between atoms: C_33  and  C_42
   15  A    between atoms: C_36  and  C_46
   16  A    between atoms: O_37  and  C_43
   17  A    between atoms: C_43  and  C_47
                            x       y       z     vdW  Elec       q    Type
                         _______ _______ _______ _____ _____    ______ ____

>  <TORSDO>
F 17

$$$$
=
 OpenBabel10232411353D

 48 52  0  0  1  0  0  0  0  0999 V2000
  190.9230  176.6190  135.8110 S   0  0  0  0  0  0  0  0  0  0  0  0
  193.8130  175.8070  138.3330 O   0  0  0  0  0  0  0  0  0  0  0  0
  192.2690  175.6850  136.5230 C   0  0  0  0  0  0  0  0  0  0  0  0
  190.2210  176.5200  138.4900 C   0  0  0  0  0  0  0  0  0  0  0  0
  189.7750  176.0530  137.1110 C   0  0  1  0  0  3  0  0  0  0  0  0
  192.8480  174.7400  135.7760 C   0  0  0  0  0  3  0  0  0  0  0  0
  191.0260  177.3160  141.0840 C   0  0  0  0  0  0  0  0  0  0  0  0
  189.2750  176.9200  139.4450 C   0  0  0  0  0  3  0  0  0  0  0  0
  189.6710  177.3130  140.7260 C   0  0  0  0  0  3  0  0  0  0  0  0
  191.5890  176.4610  138.8650 C   0  0  0  0  0  0  0  0  0  0  0  0
  191.9680  176.8540  140.1560 C   0  0  0  0  0  3  0  0  0  0  0  0
  192.6280  175.9700  137.9300 C   0  0  0  0  0  0  0  0  0  0  0  0
  194.7810  173.2020  136.5840 N   0  0  0  0  0  0  0  0  0  0  0  0
  193.9180  173.8870  136.2280 C   0  0  0  0  0  0  0  0  0  0  0  0
  188.3290  176.4030  136.7370 C   0  0  0  0  0  2  0  0  0  0  0  0
  187.9000  175.7770  135.4140 C   0  0  0  0  0  2  0  0  0  0  0  0
  186.4830  175.2430  135.5320 C   0  0  2  0  0  3  0  0  0  0  0  0
  185.5630  176.1520  134.7280 C   0  0  0  0  0  1  0  0  0  0  0  0
  185.8020  173.7220  137.4140 C   0  0  0  0  0  1  0  0  0  0  0  0
  186.0480  175.1680  137.0040 C   0  0  2  0  0  3  0  0  0  0  0  0
  184.8090  175.9700  137.2690 C   0  0  0  0  0  0  0  0  0  0  0  0
  182.0450  179.1750  139.1530 C   0  0  0  0  0  1  0  0  0  0  0  0
  184.8400  179.5920  139.9600 O   0  0  0  0  0  0  0  0  0  0  0  0
  183.2310  177.7080  137.4240 C   0  0  1  0  0  3  0  0  0  0  0  0
  182.7370  176.4150  137.7420 O   0  0  0  0  0  0  0  0  0  0  0  0
  183.2310  178.5380  138.6100 N   0  0  0  0  0  0  0  0  0  0  0  0
  184.7200  177.4490  137.0900 C   0  0  1  0  0  3  0  0  0  0  0  0
  184.5540  178.8290  138.9990 C   0  0  0  0  0  0  0  0  0  0  0  0
  183.6910  175.4400  137.6290 N   0  0  0  0  0  0  0  0  0  0  0  0
  185.5630  178.1690  138.1530 C   0  0  0  0  0  2  0  0  0  0  0  0
  191.4580  177.6760  142.4940 C   0  0  1  0  0  3  0  0  0  0  0  0
  191.1610  179.6050  144.0390 C   0  0  0  0  0  2  0  0  0  0  0  0
  190.6650  178.8180  143.0850 C   0  0  0  0  0  3  0  0  0  0  0  0
  191.4880  176.4690  143.4410 C   0  0  0  0  0  2  0  0  0  0  0  0
  189.3090  176.7820  146.8180 C   0  0  1  0  0  3  0  0  0  0  0  0
  190.0810  176.6110  145.5490 N   0  0  0  0  0  0  0  0  0  0  0  0
  189.2130  175.7840  143.5600 O   0  0  0  0  0  0  0  0  0  0  0  0
  190.6490  177.1100  146.8340 C   0  0  0  0  0  2  0  0  0  0  0  0
  190.1940  176.2850  144.1670 C   0  0  0  0  0  0  0  0  0  0  0  0
  188.4260  178.0150  146.6830 C   0  0  0  0  0  2  0  0  0  0  0  0
  187.0750  177.6600  146.6850 O   0  0  0  0  0  0  0  0  0  0  0  0
  186.4260  178.6900  146.0040 C   0  0  0  0  0  2  0  0  0  0  0  0
  186.7150  177.8580  143.6780 C   0  0  0  0  0  1  0  0  0  0  0  0
  185.7130  178.1270  144.7840 C   0  0  2  0  0  3  0  0  0  0  0  0
  184.6650  179.1060  144.2800 C   0  0  0  0  0  2  0  0  0  0  0  0
  183.2930  178.7550  144.8290 C   0  0  0  0  0  2  0  0  0  0  0  0
  182.5550  178.7730  142.5200 N   0  0  0  0  0  1  0  0  0  0  0  0
  182.2270  179.2240  143.8600 C   0  0  0  0  0  2  0  0  0  0  0  0
  1  3  1  0  0  0  0
  1  5  1  0  0  0  0
  3 12  1  0  0  0  0
  4 10  2  0  0  0  0
  4  8  1  0  0  0  0
  5 15  1  6  0  0  0
  5  4  1  0  0  0  0
  6 14  1  0  0  0  0
  6  3  2  0  0  0  0
  7 31  1  0  0  0  0
  8  9  2  0  0  0  0
  9  7  1  0  0  0  0
 10 11  1  0  0  0  0
 11  7  2  0  0  0  0
 12  2  2  0  0  0  0
 12 10  1  0  0  0  0
 14 13  3  0  0  0  0
 16 17  1  0  0  0  0
 16 15  1  0  0  0  0
 17 18  1  6  0  0  0
 17 20  1  0  0  0  0
 20 21  1  0  0  0  0
 20 19  1  6  0  0  0
 21 29  2  0  0  0  0
 24 25  1  1  0  0  0
 24 26  1  0  0  0  0
 26 28  1  0  0  0  0
 26 22  1  0  0  0  0
 27 21  1  0  0  0  0
 27 24  1  0  0  0  0
 27 30  1  1  0  0  0
 28 23  2  0  0  0  0
 29 25  1  0  0  0  0
 30 28  1  0  0  0  0
 31 33  1  1  0  0  0
 31 34  1  0  0  0  0
 33 32  2  0  0  0  0
 34 39  1  0  0  0  0
 35 40  1  6  0  0  0
 35 38  1  0  0  0  0
 36 35  1  0  0  0  0
 36 38  1  0  0  0  0
 37 39  2  0  0  0  0
 39 36  1  0  0  0  0
 40 41  1  0  0  0  0
 42 41  1  0  0  0  0
 44 43  1  6  0  0  0
 44 42  1  0  0  0  0
 45 44  1  0  0  0  0
 45 46  1  0  0  0  0
 47 48  1  0  0  0  0
 48 46  1  0  0  0  0
M  END
>  <MODEL>
8

>  <REMARK>
 VINA RESULT:      -6.5      2.474      4.132
  Name = 
  17 active torsions:
  status: ('A' for Active; 'I' for Inactive)
    1  A    between atoms: C_1  and  C_11
    2  A    between atoms: C_5  and  C_8
    3  A    between atoms: C_5  and  O_37
    4  A    between atoms: C_11  and  C_24
    5  A    between atoms: C_19  and  C_44
    6  A    between atoms: C_20  and  C_25
    7  A    between atoms: C_21  and  C_24
    8  A    between atoms: C_21  and  C_44
    9  A    between atoms: C_26  and  C_36
   10  A    between atoms: C_26  and  C_47
   11  A    between atoms: C_27  and  C_33
   12  A    between atoms: C_32  and  C_33
   13  A    between atoms: C_32  and  C_48
   14  A    between atoms: C_33  and  C_42
   15  A    between atoms: C_36  and  C_46
   16  A    between atoms: O_37  and  C_43
   17  A    between atoms: C_43  and  C_47
                            x       y       z     vdW  Elec       q    Type
                         _______ _______ _______ _____ _____    ______ ____

>  <TORSDO>
F 17

$$$$
=
 OpenBabel10232411353D

 48 52  0  0  1  0  0  0  0  0999 V2000
  184.7740  177.7500  145.7070 S   0  0  0  0  0  0  0  0  0  0  0  0
  188.6430  177.1380  145.5520 O   0  0  0  0  0  0  0  0  0  0  0  0
  186.4730  177.8210  146.2560 C   0  0  0  0  0  0  0  0  0  0  0  0
  186.0800  178.7180  143.4630 C   0  0  0  0  0  0  0  0  0  0  0  0
  185.0490  179.1030  144.5140 C   0  0  1  0  0  3  0  0  0  0  0  0
  186.7100  178.0930  147.5420 C   0  0  0  0  0  3  0  0  0  0  0  0
  188.0250  178.0770  141.5080 C   0  0  0  0  0  0  0  0  0  0  0  0
  185.9230  179.1290  142.1310 C   0  0  0  0  0  3  0  0  0  0  0  0
  186.8830  178.8140  141.1650 C   0  0  0  0  0  3  0  0  0  0  0  0
  187.2630  178.0260  143.8310 C   0  0  0  0  0  0  0  0  0  0  0  0
  188.2180  177.7220  142.8490 C   0  0  0  0  0  3  0  0  0  0  0  0
  187.5270  177.6350  145.2340 C   0  0  0  0  0  0  0  0  0  0  0  0
  189.0810  178.3210  148.5840 N   0  0  0  0  0  0  0  0  0  0  0  0
  188.0260  178.2160  148.1180 C   0  0  0  0  0  0  0  0  0  0  0  0
  183.7100  179.6120  143.9640 C   0  0  0  0  0  2  0  0  0  0  0  0
  182.7280  178.4810  143.6800 C   0  0  0  0  0  2  0  0  0  0  0  0
  181.3750  179.0570  143.3010 C   0  0  2  0  0  3  0  0  0  0  0  0
  180.2980  178.0750  143.7480 C   0  0  0  0  0  1  0  0  0  0  0  0
  179.9880  180.0140  141.4360 C   0  0  0  0  0  1  0  0  0  0  0  0
  181.2970  179.3220  141.7890 C   0  0  2  0  0  3  0  0  0  0  0  0
  181.4160  178.0590  140.9870 C   0  0  0  0  0  0  0  0  0  0  0  0
  182.3360  175.2810  137.3960 C   0  0  0  0  0  1  0  0  0  0  0  0
  183.3550  177.9950  136.9130 O   0  0  0  0  0  0  0  0  0  0  0  0
  182.2440  176.2210  139.7740 C   0  0  1  0  0  3  0  0  0  0  0  0
  180.8520  176.1810  140.0560 O   0  0  0  0  0  0  0  0  0  0  0  0
  182.4510  176.3700  138.3490 N   0  0  0  0  0  0  0  0  0  0  0  0
  182.6970  177.5580  140.4090 C   0  0  1  0  0  3  0  0  0  0  0  0
  183.0090  177.6340  138.0700 C   0  0  0  0  0  0  0  0  0  0  0  0
  180.4230  177.2680  140.7690 N   0  0  0  0  0  0  0  0  0  0  0  0
  183.1650  178.4740  139.2690 C   0  0  0  0  0  2  0  0  0  0  0  0
  189.1050  177.7900  140.4810 C   0  0  1  0  0  3  0  0  0  0  0  0
  191.4500  177.2870  141.1510 C   0  0  0  0  0  2  0  0  0  0  0  0
  190.1910  176.8770  141.0000 C   0  0  0  0  0  3  0  0  0  0  0  0
  188.5460  177.2860  139.1440 C   0  0  0  0  0  2  0  0  0  0  0  0
  191.5510  176.2020  136.6860 C   0  0  1  0  0  3  0  0  0  0  0  0
  190.4570  176.6690  137.5920 N   0  0  0  0  0  0  0  0  0  0  0  0
  189.3650  178.7110  137.4230 O   0  0  0  0  0  0  0  0  0  0  0  0
  191.1800  175.3710  137.7240 C   0  0  0  0  0  2  0  0  0  0  0  0
  189.4540  177.5950  137.9970 C   0  0  0  0  0  0  0  0  0  0  0  0
  190.9310  175.7680  135.3650 C   0  0  0  0  0  2  0  0  0  0  0  0
  190.6480  174.4000  135.3760 O   0  0  0  0  0  0  0  0  0  0  0  0
  189.3820  174.2860  134.8020 C   0  0  0  0  0  2  0  0  0  0  0  0
  189.4420  171.8000  134.7120 C   0  0  0  0  0  1  0  0  0  0  0  0
  188.7170  173.0050  135.2820 C   0  0  2  0  0  3  0  0  0  0  0  0
  187.2620  172.9630  134.8450 C   0  0  0  0  0  2  0  0  0  0  0  0
  186.3690  173.6210  135.8830 C   0  0  0  0  0  2  0  0  0  0  0  0
  185.4510  173.0470  138.0520 N   0  0  0  0  0  1  0  0  0  0  0  0
  186.6580  173.0270  137.2460 C   0  0  0  0  0  2  0  0  0  0  0  0
  1  3  1  0  0  0  0
  3  6  2  0  0  0  0
  4 10  1  0  0  0  0
  4  5  1  0  0  0  0
  5 15  1  6  0  0  0
  5  1  1  0  0  0  0
  6 14  1  0  0  0  0
  7 11  1  0  0  0  0
  8  4  2  0  0  0  0
  9  7  2  0  0  0  0
  9  8  1  0  0  0  0
 10 12  1  0  0  0  0
 11 10  2  0  0  0  0
 12  2  2  0  0  0  0
 12  3  1  0  0  0  0
 14 13  3  0  0  0  0
 16 15  1  0  0  0  0
 17 16  1  0  0  0  0
 17 18  1  6  0  0  0
 20 19  1  1  0  0  0
 20 17  1  0  0  0  0
 21 20  1  0  0  0  0
 22 26  1  0  0  0  0
 23 28  2  0  0  0  0
 24 25  1  6  0  0  0
 24 27  1  0  0  0  0
 25 29  1  0  0  0  0
 26 24  1  0  0  0  0
 27 30  1  6  0  0  0
 27 21  1  0  0  0  0
 28 26  1  0  0  0  0
 28 30  1  0  0  0  0
 29 21  2  0  0  0  0
 31 34  1  6  0  0  0
 31 33  1  0  0  0  0
 31  7  1  0  0  0  0
 33 32  2  0  0  0  0
 35 40  1  6  0  0  0
 35 36  1  0  0  0  0
 35 38  1  0  0  0  0
 36 38  1  0  0  0  0
 36 39  1  0  0  0  0
 37 39  2  0  0  0  0
 39 34  1  0  0  0  0
 40 41  1  0  0  0  0
 42 44  1  0  0  0  0
 42 41  1  0  0  0  0
 44 43  1  6  0  0  0
 45 44  1  0  0  0  0
 45 46  1  0  0  0  0
 46 48  1  0  0  0  0
 48 47  1  0  0  0  0
M  END
>  <MODEL>
9

>  <REMARK>
 VINA RESULT:      -6.3      2.968      8.348
  Name = 
  17 active torsions:
  status: ('A' for Active; 'I' for Inactive)
    1  A    between atoms: C_1  and  C_11
    2  A    between atoms: C_5  and  C_8
    3  A    between atoms: C_5  and  O_37
    4  A    between atoms: C_11  and  C_24
    5  A    between atoms: C_19  and  C_44
    6  A    between atoms: C_20  and  C_25
    7  A    between atoms: C_21  and  C_24
    8  A    between atoms: C_21  and  C_44
    9  A    between atoms: C_26  and  C_36
   10  A    between atoms: C_26  and  C_47
   11  A    between atoms: C_27  and  C_33
   12  A    between atoms: C_32  and  C_33
   13  A    between atoms: C_32  and  C_48
   14  A    between atoms: C_33  and  C_42
   15  A    between atoms: C_36  and  C_46
   16  A    between atoms: O_37  and  C_43
   17  A    between atoms: C_43  and  C_47
                            x       y       z     vdW  Elec       q    Type
                         _______ _______ _______ _____ _____    ______ ____

>  <TORSDO>
F 17

$$$$
