=
 OpenBabel10232410063D

 65 68  0  0  1  0  0  0  0  0999 V2000
  191.3400  174.9560  136.7820 C   0  0  1  0  0  3  0  0  0  0  0  0
  190.3500  175.5100  135.7510 C   0  0  0  0  0  2  0  0  0  0  0  0
  189.1310  174.6130  135.5610 C   0  0  0  0  0  2  0  0  0  0  0  0
  188.0300  175.3210  134.7850 C   0  0  0  0  0  2  0  0  0  0  0  0
  186.3260  172.6680  135.2710 C   0  0  0  0  0  3  0  0  0  0  0  0
  182.7190  173.5670  137.2870 O   0  0  0  0  0  1  0  0  0  0  0  0
  183.8870  173.2890  136.5890 C   0  0  0  0  0  0  0  0  0  0  0  0
  184.7230  175.6380  136.4270 N   0  0  0  0  0  0  0  0  0  0  0  0
  186.6900  175.1490  135.4300 C   0  0  0  0  0  0  0  0  0  0  0  0
  185.4130  171.6530  135.5960 C   0  0  0  0  0  3  0  0  0  0  0  0
  183.3290  170.9280  136.5820 O   0  0  0  0  0  1  0  0  0  0  0  0
  182.6030  177.9920  137.8780 C   0  0  0  0  0  0  0  0  0  0  0  0
  185.8880  176.1530  135.9540 C   0  0  0  0  0  0  0  0  0  0  0  0
  184.7960  174.2970  136.2240 C   0  0  0  0  0  0  0  0  0  0  0  0
  183.6310  176.4180  136.9400 C   0  0  0  0  0  0  0  0  0  0  0  0
  181.6670  177.1630  137.2850 C   0  0  0  0  0  3  0  0  0  0  0  0
  184.2040  171.9570  136.2540 C   0  0  0  0  0  0  0  0  0  0  0  0
  182.3320  176.1530  136.6880 N   0  0  0  0  0  0  0  0  0  0  0  0
  183.8000  177.5140  137.6390 O   0  0  0  0  0  0  0  0  0  0  0  0
  185.9880  173.9770  135.6100 C   0  0  0  0  0  0  0  0  0  0  0  0
  183.6480  179.9550  138.9430 C   0  0  0  0  0  1  0  0  0  0  0  0
  181.4790  180.2110  137.7850 C   0  0  0  0  0  1  0  0  0  0  0  0
  182.3320  179.2720  138.6200 C   0  0  0  0  0  0  0  0  0  0  0  0
  181.5980  178.9840  139.9180 C   0  0  0  0  0  1  0  0  0  0  0  0
  186.2050  177.6130  135.8840 C   0  0  0  0  0  2  0  0  0  0  0  0
  188.3710  178.4310  136.7480 C   0  0  0  0  0  1  0  0  0  0  0  0
  186.9590  178.0410  137.1270 C   0  0  0  0  0  2  0  0  0  0  0  0
  192.5060  174.2220  136.1220 C   0  0  0  0  0  2  0  0  0  0  0  0
  193.7330  174.1150  137.0280 C   0  0  0  0  0  2  0  0  0  0  0  0
  195.0090  174.5800  136.3280 C   0  0  2  0  0  3  0  0  0  0  0  0
  194.6680  175.1580  134.9580 C   0  0  0  0  0  1  0  0  0  0  0  0
  197.2030  173.9130  135.5580 O   0  0  0  0  0  1  0  0  0  0  0  0
  196.0560  173.4650  136.2200 C   0  0  2  0  0  3  0  0  0  0  0  0
  195.5230  172.2350  135.5430 C   0  0  0  0  0  0  0  0  0  0  0  0
  195.6040  170.9300  136.1330 N   0  0  0  0  0  2  0  0  0  0  0  0
  194.9950  172.3560  134.4060 O   0  0  0  0  0  0  0  0  0  0  0  0
  196.1700  170.6460  137.4460 C   0  0  2  0  0  3  0  0  0  0  0  0
  197.6590  170.3930  137.2950 C   0  0  0  0  0  1  0  0  0  0  0  0
  195.5570  169.5130  137.9910 O   0  0  0  0  0  0  0  0  0  0  0  0
  195.7960  168.4920  137.0710 C   0  0  0  0  0  1  0  0  0  0  0  0
  191.7970  175.9870  137.8120 C   0  0  0  0  0  2  0  0  0  0  0  0
  191.1780  175.7140  139.1010 N   0  0  0  0  0  2  0  0  0  0  0  0
  190.1750  176.7440  139.3330 C   0  0  0  0  0  2  0  0  0  0  0  0
  190.7760  177.8870  139.8660 O   0  0  0  0  0  0  0  0  0  0  0  0
  191.4430  177.4420  141.0070 C   0  0  0  0  0  2  0  0  0  0  0  0
  190.7930  178.4270  144.3510 N   0  0  0  0  0  2  0  0  0  0  0  0
  190.3590  177.0560  144.5790 C   0  0  2  0  0  3  0  0  0  0  0  0
  189.9120  176.3490  142.9800 S   0  0  0  0  0  0  0  0  0  0  0  0
  191.4990  178.4200  143.1910 O   0  0  0  0  0  0  0  0  0  0  0  0
  190.6530  177.8270  142.2450 C   0  0  1  0  0  3  0  0  0  0  0  0
  189.1860  177.0000  145.5610 C   0  0  2  0  0  3  0  0  0  0  0  0
  186.7880  176.2740  144.2190 O   0  0  0  0  0  0  0  0  0  0  0  0
  188.1370  177.9290  145.1560 N   0  0  0  0  0  2  0  0  0  0  0  0
  186.9230  177.4860  144.5430 C   0  0  0  0  0  0  0  0  0  0  0  0
  185.8080  178.4680  144.3260 C   0  0  2  0  0  3  0  0  0  0  0  0
  183.5040  178.9800  145.1050 C   0  0  0  0  0  1  0  0  0  0  0  0
  184.8620  178.4350  145.5150 C   0  0  0  0  0  2  0  0  0  0  0  0
  185.0410  178.1720  143.0370 C   0  0  0  0  0  2  0  0  0  0  0  0
  185.2810  179.2470  141.9840 C   0  0  0  0  0  2  0  0  0  0  0  0
  187.0660  177.8100  141.2990 O   0  0  0  0  0  1  0  0  0  0  0  0
  186.6800  179.1480  141.3960 C   0  0  0  0  0  2  0  0  0  0  0  0
  190.7760  176.5540  147.3240 O   0  0  0  0  0  1  0  0  0  0  0  0
  189.6470  177.3050  146.9930 C   0  0  2  0  0  3  0  0  0  0  0  0
  188.3300  178.2990  148.9080 C   0  0  0  0  0  1  0  0  0  0  0  0
  188.5460  177.0780  148.0260 C   0  0  0  0  0  2  0  0  0  0  0  0
  1  2  1  6  0  0  0
  1 41  1  0  0  0  0
  3  2  1  0  0  0  0
  4  9  1  0  0  0  0
  4  3  1  0  0  0  0
  5 10  2  0  0  0  0
  5 20  1  0  0  0  0
  7  6  1  0  0  0  0
  8 15  1  0  0  0  0
  9 20  1  0  0  0  0
  9 13  2  0  0  0  0
 10 17  1  0  0  0  0
 12 23  1  0  0  0  0
 13  8  1  0  0  0  0
 14  8  1  0  0  0  0
 14  7  1  0  0  0  0
 15 19  1  0  0  0  0
 16 12  2  0  0  0  0
 17 11  1  0  0  0  0
 17  7  2  0  0  0  0
 18 15  2  0  0  0  0
 18 16  1  0  0  0  0
 19 12  1  0  0  0  0
 20 14  2  0  0  0  0
 22 23  1  0  0  0  0
 23 21  1  0  0  0  0
 23 24  1  0  0  0  0
 25 13  1  0  0  0  0
 25 27  1  0  0  0  0
 26 27  1  0  0  0  0
 28  1  1  0  0  0  0
 28 29  1  0  0  0  0
 30 31  1  6  0  0  0
 30 29  1  0  0  0  0
 33 32  1  6  0  0  0
 33 30  1  0  0  0  0
 34 35  1  0  0  0  0
 34 33  1  0  0  0  0
 35 37  1  0  0  0  0
 36 34  2  0  0  0  0
 37 38  1  6  0  0  0
 37 39  1  0  0  0  0
 40 39  1  0  0  0  0
 41 42  1  0  0  0  0
 42 43  1  0  0  0  0
 43 44  1  0  0  0  0
 44 45  1  0  0  0  0
 46 47  1  0  0  0  0
 47 51  1  1  0  0  0
 48 47  1  0  0  0  0
 49 46  1  0  0  0  0
 50 45  1  6  0  0  0
 50 48  1  0  0  0  0
 50 49  1  0  0  0  0
 51 53  1  6  0  0  0
 51 63  1  0  0  0  0
 52 54  2  0  0  0  0
 54 53  1  0  0  0  0
 55 58  1  6  0  0  0
 55 54  1  0  0  0  0
 55 57  1  0  0  0  0
 56 57  1  0  0  0  0
 59 58  1  0  0  0  0
 60 61  1  0  0  0  0
 61 59  1  0  0  0  0
 63 62  1  1  0  0  0
 63 65  1  0  0  0  0
 65 64  1  0  0  0  0
M  END
>  <MODEL>
1

>  <REMARK>
 VINA RESULT:      -6.2      0.000      0.000
  Name = 
  29 active torsions:
  status: ('A' for Active; 'I' for Inactive)
    1  A    between atoms: N_1  and  C_23
    2  A    between atoms: N_1  and  C_41
    3  A    between atoms: C_2  and  N_15
    4  A    between atoms: C_2  and  O_25
    5  A    between atoms: C_4  and  C_60
    6  A    between atoms: C_5  and  C_6
    7  A    between atoms: C_5  and  C_12
    8  A    between atoms: C_5  and  C_23
    9  A    between atoms: C_6  and  C_14
   10  A    between atoms: C_11  and  C_49
   11  A    between atoms: C_12  and  C_40
   12  A    between atoms: C_14  and  C_43
   13  A    between atoms: C_19  and  C_21
   14  A    between atoms: C_19  and  C_58
   15  A    between atoms: C_21  and  C_26
   16  A    between atoms: N_22  and  C_49
   17  A    between atoms: C_27  and  C_43
   18  A    between atoms: C_29  and  C_40
   19  A    between atoms: C_29  and  C_60
   20  A    between atoms: C_33  and  C_47
   21  A    between atoms: C_36  and  C_56
   22  A    between atoms: C_37  and  O_46
   23  A    between atoms: C_37  and  C_65
   24  A    between atoms: C_41  and  O_46
   25  A    between atoms: C_45  and  C_56
   26  A    between atoms: C_49  and  C_52
   27  A    between atoms: C_52  and  C_64
   28  A    between atoms: C_58  and  C_61
   29  A    between atoms: C_58  and  C_62
                            x       y       z     vdW  Elec       q    Type
                         _______ _______ _______ _____ _____    ______ ____

>  <TORSDO>
F 29

$$$$
=
 OpenBabel10232410063D

 65 68  0  0  1  0  0  0  0  0999 V2000
  191.7610  177.2490  138.8070 C   0  0  1  0  0  3  0  0  0  0  0  0
  192.3560  176.8990  140.1760 C   0  0  0  0  0  2  0  0  0  0  0  0
  191.4830  177.3670  141.3360 C   0  0  0  0  0  2  0  0  0  0  0  0
  191.0970  176.2110  142.2480 C   0  0  0  0  0  2  0  0  0  0  0  0
  191.8420  176.4870  145.3370 C   0  0  0  0  0  3  0  0  0  0  0  0
  188.5460  177.9630  147.5350 O   0  0  0  0  0  1  0  0  0  0  0  0
  189.6090  177.4410  146.8100 C   0  0  0  0  0  0  0  0  0  0  0  0
  188.4680  177.3670  144.5880 N   0  0  0  0  0  0  0  0  0  0  0  0
  190.2540  176.6630  143.3990 C   0  0  0  0  0  0  0  0  0  0  0  0
  191.9380  176.6930  146.7230 C   0  0  0  0  0  3  0  0  0  0  0  0
  190.9620  177.3860  148.8220 O   0  0  0  0  0  1  0  0  0  0  0  0
  185.1650  178.4750  144.6620 C   0  0  0  0  0  0  0  0  0  0  0  0
  188.9250  177.0560  143.3470 C   0  0  0  0  0  0  0  0  0  0  0  0
  189.5200  177.1940  145.4290 C   0  0  0  0  0  0  0  0  0  0  0  0
  187.1070  177.7110  144.8990 C   0  0  0  0  0  0  0  0  0  0  0  0
  185.2050  177.7660  145.8510 C   0  0  0  0  0  3  0  0  0  0  0  0
  190.8330  177.1710  147.4560 C   0  0  0  0  0  0  0  0  0  0  0  0
  186.4550  177.2820  145.9990 N   0  0  0  0  0  0  0  0  0  0  0  0
  186.3450  178.4130  144.0960 O   0  0  0  0  0  0  0  0  0  0  0  0
  190.6210  176.7580  144.7240 C   0  0  0  0  0  0  0  0  0  0  0  0
  182.7060  178.6390  144.7240 C   0  0  0  0  0  1  0  0  0  0  0  0
  184.0470  180.6590  144.2440 C   0  0  0  0  0  1  0  0  0  0  0  0
  183.9680  179.1540  144.0570 C   0  0  0  0  0  0  0  0  0  0  0  0
  183.8890  178.8590  142.5690 C   0  0  0  0  0  1  0  0  0  0  0  0
  188.0760  177.0120  142.1170 C   0  0  0  0  0  2  0  0  0  0  0  0
  186.8690  178.5110  140.5640 C   0  0  0  0  0  1  0  0  0  0  0  0
  188.1140  178.3530  141.4110 C   0  0  0  0  0  2  0  0  0  0  0  0
  192.4930  176.5450  137.6650 C   0  0  0  0  0  2  0  0  0  0  0  0
  193.2870  175.3240  138.1290 C   0  0  0  0  0  2  0  0  0  0  0  0
  193.9370  174.5800  136.9630 C   0  0  2  0  0  3  0  0  0  0  0  0
  192.9420  173.5940  136.3590 C   0  0  0  0  0  1  0  0  0  0  0  0
  195.4060  173.8920  138.7560 O   0  0  0  0  0  1  0  0  0  0  0  0
  195.2410  173.8830  137.3680 C   0  0  2  0  0  3  0  0  0  0  0  0
  196.4480  174.4820  136.7060 C   0  0  0  0  0  0  0  0  0  0  0  0
  197.7080  173.8020  136.6340 N   0  0  0  0  0  2  0  0  0  0  0  0
  196.3490  175.6340  136.2050 O   0  0  0  0  0  0  0  0  0  0  0  0
  197.9610  172.4630  137.1530 C   0  0  2  0  0  3  0  0  0  0  0  0
  199.4600  172.2550  137.2650 C   0  0  0  0  0  1  0  0  0  0  0  0
  197.4210  171.5090  136.2840 O   0  0  0  0  0  0  0  0  0  0  0  0
  198.2430  171.5370  135.1560 C   0  0  0  0  0  1  0  0  0  0  0  0
  190.2460  177.0770  138.7310 C   0  0  0  0  0  2  0  0  0  0  0  0
  189.8630  176.5850  137.4160 N   0  0  0  0  0  2  0  0  0  0  0  0
  188.8290  175.5780  137.6070 C   0  0  0  0  0  2  0  0  0  0  0  0
  189.3640  174.3010  137.4220 O   0  0  0  0  0  0  0  0  0  0  0  0
  188.4610  173.6520  136.5810 C   0  0  0  0  0  2  0  0  0  0  0  0
  185.2510  172.9770  137.9260 N   0  0  0  0  0  2  0  0  0  0  0  0
  184.7470  173.1190  136.5690 C   0  0  2  0  0  3  0  0  0  0  0  0
  185.9430  174.1010  135.6390 S   0  0  0  0  0  0  0  0  0  0  0  0
  186.5950  172.8150  137.8240 O   0  0  0  0  0  0  0  0  0  0  0  0
  187.0430  173.9010  137.0620 C   0  0  1  0  0  3  0  0  0  0  0  0
  183.3610  173.7700  136.5550 C   0  0  2  0  0  3  0  0  0  0  0  0
  182.8880  176.5620  136.8060 O   0  0  0  0  0  0  0  0  0  0  0  0
  183.1130  174.4700  137.8100 N   0  0  0  0  0  2  0  0  0  0  0  0
  182.8150  175.8680  137.8560 C   0  0  0  0  0  0  0  0  0  0  0  0
  182.3840  176.4850  139.1560 C   0  0  2  0  0  3  0  0  0  0  0  0
  180.4410  175.1460  139.9380 C   0  0  0  0  0  1  0  0  0  0  0  0
  180.8680  176.4390  139.2630 C   0  0  0  0  0  2  0  0  0  0  0  0
  182.8750  177.9270  139.2840 C   0  0  0  0  0  2  0  0  0  0  0  0
  181.7180  178.9180  139.2460 C   0  0  0  0  0  2  0  0  0  0  0  0
  181.4690  181.2630  138.8520 O   0  0  0  0  0  1  0  0  0  0  0  0
  182.0220  180.0930  138.3310 C   0  0  0  0  0  2  0  0  0  0  0  0
  182.8040  171.5500  135.7810 O   0  0  0  0  0  1  0  0  0  0  0  0
  182.2630  172.7290  136.2970 C   0  0  2  0  0  3  0  0  0  0  0  0
  180.4510  172.1210  134.6410 C   0  0  0  0  0  1  0  0  0  0  0  0
  181.1650  173.2500  135.3710 C   0  0  0  0  0  2  0  0  0  0  0  0
  1 28  1  6  0  0  0
  1  2  1  0  0  0  0
  2  3  1  0  0  0  0
  3  4  1  0  0  0  0
  4  9  1  0  0  0  0
  5 10  1  0  0  0  0
  7 17  1  0  0  0  0
  7  6  1  0  0  0  0
  8 15  1  0  0  0  0
  8 14  1  0  0  0  0
  9 20  1  0  0  0  0
 10 17  2  0  0  0  0
 12 16  2  0  0  0  0
 13  9  2  0  0  0  0
 13  8  1  0  0  0  0
 14  7  2  0  0  0  0
 15 18  2  0  0  0  0
 16 18  1  0  0  0  0
 17 11  1  0  0  0  0
 19 12  1  0  0  0  0
 19 15  1  0  0  0  0
 20  5  2  0  0  0  0
 20 14  1  0  0  0  0
 23 22  1  0  0  0  0
 23 12  1  0  0  0  0
 23 21  1  0  0  0  0
 24 23  1  0  0  0  0
 25 13  1  0  0  0  0
 26 27  1  0  0  0  0
 27 25  1  0  0  0  0
 28 29  1  0  0  0  0
 30 31  1  1  0  0  0
 30 33  1  0  0  0  0
 30 29  1  0  0  0  0
 33 32  1  1  0  0  0
 34 33  1  0  0  0  0
 35 34  1  0  0  0  0
 35 37  1  0  0  0  0
 36 34  2  0  0  0  0
 37 38  1  6  0  0  0
 39 37  1  0  0  0  0
 40 39  1  0  0  0  0
 41  1  1  0  0  0  0
 42 43  1  0  0  0  0
 42 41  1  0  0  0  0
 44 43  1  0  0  0  0
 45 44  1  0  0  0  0
 47 51  1  1  0  0  0
 47 46  1  0  0  0  0
 48 47  1  0  0  0  0
 48 50  1  0  0  0  0
 49 46  1  0  0  0  0
 50 45  1  6  0  0  0
 50 49  1  0  0  0  0
 51 53  1  1  0  0  0
 52 54  2  0  0  0  0
 53 54  1  0  0  0  0
 54 55  1  0  0  0  0
 55 57  1  6  0  0  0
 55 58  1  0  0  0  0
 57 56  1  0  0  0  0
 59 58  1  0  0  0  0
 61 60  1  0  0  0  0
 61 59  1  0  0  0  0
 63 62  1  6  0  0  0
 63 51  1  0  0  0  0
 64 65  1  0  0  0  0
 65 63  1  0  0  0  0
M  END
>  <MODEL>
2

>  <REMARK>
 VINA RESULT:      -5.4      2.376      8.290
  Name = 
  29 active torsions:
  status: ('A' for Active; 'I' for Inactive)
    1  A    between atoms: N_1  and  C_23
    2  A    between atoms: N_1  and  C_41
    3  A    between atoms: C_2  and  N_15
    4  A    between atoms: C_2  and  O_25
    5  A    between atoms: C_4  and  C_60
    6  A    between atoms: C_5  and  C_6
    7  A    between atoms: C_5  and  C_12
    8  A    between atoms: C_5  and  C_23
    9  A    between atoms: C_6  and  C_14
   10  A    between atoms: C_11  and  C_49
   11  A    between atoms: C_12  and  C_40
   12  A    between atoms: C_14  and  C_43
   13  A    between atoms: C_19  and  C_21
   14  A    between atoms: C_19  and  C_58
   15  A    between atoms: C_21  and  C_26
   16  A    between atoms: N_22  and  C_49
   17  A    between atoms: C_27  and  C_43
   18  A    between atoms: C_29  and  C_40
   19  A    between atoms: C_29  and  C_60
   20  A    between atoms: C_33  and  C_47
   21  A    between atoms: C_36  and  C_56
   22  A    between atoms: C_37  and  O_46
   23  A    between atoms: C_37  and  C_65
   24  A    between atoms: C_41  and  O_46
   25  A    between atoms: C_45  and  C_56
   26  A    between atoms: C_49  and  C_52
   27  A    between atoms: C_52  and  C_64
   28  A    between atoms: C_58  and  C_61
   29  A    between atoms: C_58  and  C_62
                            x       y       z     vdW  Elec       q    Type
                         _______ _______ _______ _____ _____    ______ ____

>  <TORSDO>
F 29

$$$$
=
 OpenBabel10232410063D

 65 68  0  0  1  0  0  0  0  0999 V2000
  191.2480  175.7150  136.9090 C   0  0  1  0  0  3  0  0  0  0  0  0
  190.2720  176.6050  136.1310 C   0  0  0  0  0  2  0  0  0  0  0  0
  189.2250  175.8040  135.3630 C   0  0  0  0  0  2  0  0  0  0  0  0
  188.9000  174.4930  136.0640 C   0  0  0  0  0  2  0  0  0  0  0  0
  187.0770  171.9580  135.4090 C   0  0  0  0  0  3  0  0  0  0  0  0
  183.0510  172.7100  136.4640 O   0  0  0  0  0  1  0  0  0  0  0  0
  184.3690  172.4890  136.0830 C   0  0  0  0  0  0  0  0  0  0  0  0
  185.2610  174.7340  136.7210 N   0  0  0  0  0  0  0  0  0  0  0  0
  187.4260  174.3020  136.2400 C   0  0  0  0  0  0  0  0  0  0  0  0
  186.0880  170.9800  135.2130 C   0  0  0  0  0  3  0  0  0  0  0  0
  183.7920  170.2450  135.3660 O   0  0  0  0  0  1  0  0  0  0  0  0
  182.8520  176.8930  138.0150 C   0  0  0  0  0  0  0  0  0  0  0  0
  186.5240  175.2350  136.7340 C   0  0  0  0  0  0  0  0  0  0  0  0
  185.3650  173.4690  136.2390 C   0  0  0  0  0  0  0  0  0  0  0  0
  184.0810  175.4770  137.0680 C   0  0  0  0  0  0  0  0  0  0  0  0
  182.1190  176.2980  137.0020 C   0  0  0  0  0  3  0  0  0  0  0  0
  184.7450  171.2390  135.5510 C   0  0  0  0  0  0  0  0  0  0  0  0
  182.9120  175.3880  136.4010 N   0  0  0  0  0  0  0  0  0  0  0  0
  184.0560  176.3750  138.0230 O   0  0  0  0  0  0  0  0  0  0  0  0
  186.6790  173.1860  135.9330 C   0  0  0  0  0  0  0  0  0  0  0  0
  180.9870  177.7120  139.4040 C   0  0  0  0  0  1  0  0  0  0  0  0
  183.3140  178.1190  140.1310 C   0  0  0  0  0  1  0  0  0  0  0  0
  182.3980  178.0000  138.9260 C   0  0  0  0  0  0  0  0  0  0  0  0
  182.4030  179.3270  138.1870 C   0  0  0  0  0  1  0  0  0  0  0  0
  186.8760  176.6410  137.1000 C   0  0  0  0  0  2  0  0  0  0  0  0
  187.5040  178.0910  139.0010 C   0  0  0  0  0  1  0  0  0  0  0  0
  187.5280  176.6750  138.4680 C   0  0  0  0  0  2  0  0  0  0  0  0
  192.4560  175.3120  136.0640 C   0  0  0  0  0  2  0  0  0  0  0  0
  192.8030  173.8290  136.1910 C   0  0  0  0  0  2  0  0  0  0  0  0
  194.2790  173.6080  136.5210 C   0  0  2  0  0  3  0  0  0  0  0  0
  195.1520  174.2630  135.4560 C   0  0  0  0  0  1  0  0  0  0  0  0
  193.5130  171.3160  136.4360 O   0  0  0  0  0  1  0  0  0  0  0  0
  194.6240  172.1230  136.6930 C   0  0  2  0  0  3  0  0  0  0  0  0
  195.1790  171.8120  138.0530 C   0  0  0  0  0  0  0  0  0  0  0  0
  195.4410  170.4720  138.4930 N   0  0  0  0  0  2  0  0  0  0  0  0
  195.4120  172.7670  138.8400 O   0  0  0  0  0  0  0  0  0  0  0  0
  195.2380  169.2770  137.6830 C   0  0  2  0  0  3  0  0  0  0  0  0
  194.2330  168.3770  138.3790 C   0  0  0  0  0  1  0  0  0  0  0  0
  196.4490  168.5940  137.5330 O   0  0  0  0  0  0  0  0  0  0  0  0
  197.0270  169.1270  136.3790 C   0  0  0  0  0  1  0  0  0  0  0  0
  191.6420  176.2790  138.2720 C   0  0  0  0  0  2  0  0  0  0  0  0
  193.0870  176.4400  138.3470 N   0  0  0  0  0  2  0  0  0  0  0  0
  193.3800  177.2230  139.5400 C   0  0  0  0  0  2  0  0  0  0  0  0
  192.2100  177.4370  140.2730 O   0  0  0  0  0  0  0  0  0  0  0  0
  192.6400  177.6420  141.5830 C   0  0  0  0  0  2  0  0  0  0  0  0
  189.5500  176.3680  142.7670 N   0  0  0  0  0  2  0  0  0  0  0  0
  189.0820  177.7460  142.7700 C   0  0  2  0  0  3  0  0  0  0  0  0
  190.5320  178.8180  142.8480 S   0  0  0  0  0  0  0  0  0  0  0  0
  190.6740  176.3440  142.0050 O   0  0  0  0  0  0  0  0  0  0  0  0
  191.5110  177.3260  142.5480 C   0  0  1  0  0  3  0  0  0  0  0  0
  188.1310  178.0080  143.9410 C   0  0  2  0  0  3  0  0  0  0  0  0
  186.8780  178.1360  146.4890 O   0  0  0  0  0  0  0  0  0  0  0  0
  188.7320  177.5680  145.1940 N   0  0  0  0  0  2  0  0  0  0  0  0
  188.0180  177.5990  146.4330 C   0  0  0  0  0  0  0  0  0  0  0  0
  188.6250  176.9570  147.6480 C   0  0  2  0  0  3  0  0  0  0  0  0
  187.8880  178.3850  149.5440 C   0  0  0  0  0  1  0  0  0  0  0  0
  189.0520  178.0330  148.6330 C   0  0  0  0  0  2  0  0  0  0  0  0
  189.8200  176.0770  147.2820 C   0  0  0  0  0  2  0  0  0  0  0  0
  191.1390  176.8150  147.4750 C   0  0  0  0  0  2  0  0  0  0  0  0
  192.1920  175.3700  145.8880 O   0  0  0  0  0  1  0  0  0  0  0  0
  192.3280  175.9210  147.1630 C   0  0  0  0  0  2  0  0  0  0  0  0
  186.9590  175.9830  143.3370 O   0  0  0  0  0  1  0  0  0  0  0  0
  186.7800  177.3130  143.7220 C   0  0  2  0  0  3  0  0  0  0  0  0
  185.0670  179.1340  143.3480 C   0  0  0  0  0  1  0  0  0  0  0  0
  185.9030  178.0390  142.7030 C   0  0  0  0  0  2  0  0  0  0  0  0
  1 28  1  6  0  0  0
  1 41  1  0  0  0  0
  2  1  1  0  0  0  0
  3  4  1  0  0  0  0
  3  2  1  0  0  0  0
  4  9  1  0  0  0  0
  5 20  1  0  0  0  0
  7 14  1  0  0  0  0
  7  6  1  0  0  0  0
  8 13  1  0  0  0  0
  8 15  1  0  0  0  0
  9 13  2  0  0  0  0
 10  5  2  0  0  0  0
 10 17  1  0  0  0  0
 11 17  1  0  0  0  0
 12 19  1  0  0  0  0
 12 23  1  0  0  0  0
 13 25  1  0  0  0  0
 14  8  1  0  0  0  0
 15 19  1  0  0  0  0
 16 12  2  0  0  0  0
 17  7  2  0  0  0  0
 18 16  1  0  0  0  0
 18 15  2  0  0  0  0
 20 14  2  0  0  0  0
 20  9  1  0  0  0  0
 23 21  1  0  0  0  0
 23 22  1  0  0  0  0
 24 23  1  0  0  0  0
 25 27  1  0  0  0  0
 27 26  1  0  0  0  0
 28 29  1  0  0  0  0
 29 30  1  0  0  0  0
 30 31  1  6  0  0  0
 30 33  1  0  0  0  0
 33 32  1  1  0  0  0
 33 34  1  0  0  0  0
 34 35  1  0  0  0  0
 34 36  2  0  0  0  0
 37 38  1  1  0  0  0
 37 35  1  0  0  0  0
 39 37  1  0  0  0  0
 40 39  1  0  0  0  0
 41 42  1  0  0  0  0
 42 43  1  0  0  0  0
 43 44  1  0  0  0  0
 44 45  1  0  0  0  0
 46 47  1  0  0  0  0
 47 48  1  0  0  0  0
 47 51  1  1  0  0  0
 49 50  1  0  0  0  0
 49 46  1  0  0  0  0
 50 45  1  6  0  0  0
 50 48  1  0  0  0  0
 51 53  1  1  0  0  0
 53 54  1  0  0  0  0
 54 52  2  0  0  0  0
 54 55  1  0  0  0  0
 55 58  1  6  0  0  0
 55 57  1  0  0  0  0
 57 56  1  0  0  0  0
 58 59  1  0  0  0  0
 60 61  1  0  0  0  0
 61 59  1  0  0  0  0
 63 62  1  6  0  0  0
 63 51  1  0  0  0  0
 65 64  1  0  0  0  0
 65 63  1  0  0  0  0
M  END
>  <MODEL>
3

>  <REMARK>
 VINA RESULT:      -4.6      1.579      3.248
  Name = 
  29 active torsions:
  status: ('A' for Active; 'I' for Inactive)
    1  A    between atoms: N_1  and  C_23
    2  A    between atoms: N_1  and  C_41
    3  A    between atoms: C_2  and  N_15
    4  A    between atoms: C_2  and  O_25
    5  A    between atoms: C_4  and  C_60
    6  A    between atoms: C_5  and  C_6
    7  A    between atoms: C_5  and  C_12
    8  A    between atoms: C_5  and  C_23
    9  A    between atoms: C_6  and  C_14
   10  A    between atoms: C_11  and  C_49
   11  A    between atoms: C_12  and  C_40
   12  A    between atoms: C_14  and  C_43
   13  A    between atoms: C_19  and  C_21
   14  A    between atoms: C_19  and  C_58
   15  A    between atoms: C_21  and  C_26
   16  A    between atoms: N_22  and  C_49
   17  A    between atoms: C_27  and  C_43
   18  A    between atoms: C_29  and  C_40
   19  A    between atoms: C_29  and  C_60
   20  A    between atoms: C_33  and  C_47
   21  A    between atoms: C_36  and  C_56
   22  A    between atoms: C_37  and  O_46
   23  A    between atoms: C_37  and  C_65
   24  A    between atoms: C_41  and  O_46
   25  A    between atoms: C_45  and  C_56
   26  A    between atoms: C_49  and  C_52
   27  A    between atoms: C_52  and  C_64
   28  A    between atoms: C_58  and  C_61
   29  A    between atoms: C_58  and  C_62
                            x       y       z     vdW  Elec       q    Type
                         _______ _______ _______ _____ _____    ______ ____

>  <TORSDO>
F 29

$$$$
=
 OpenBabel10232410063D

 65 68  0  0  1  0  0  0  0  0999 V2000
  187.9080  176.7510  136.7580 C   0  0  1  0  0  3  0  0  0  0  0  0
  188.7050  177.0900  138.0220 C   0  0  0  0  0  2  0  0  0  0  0  0
  187.8520  177.0540  139.2860 C   0  0  0  0  0  2  0  0  0  0  0  0
  187.9650  178.3520  140.0740 C   0  0  0  0  0  2  0  0  0  0  0  0
  184.8050  178.6560  140.3900 C   0  0  0  0  0  3  0  0  0  0  0  0
  183.6790  178.3340  144.4530 O   0  0  0  0  0  1  0  0  0  0  0  0
  184.0640  178.4790  143.1260 C   0  0  0  0  0  0  0  0  0  0  0  0
  186.5260  178.2490  143.4870 N   0  0  0  0  0  0  0  0  0  0  0  0
  187.1200  178.3320  141.3090 C   0  0  0  0  0  0  0  0  0  0  0  0
  183.4570  178.7570  140.7720 C   0  0  0  0  0  3  0  0  0  0  0  0
  181.7430  178.7460  142.4750 O   0  0  0  0  0  1  0  0  0  0  0  0
  187.4260  177.7980  146.8230 C   0  0  0  0  0  0  0  0  0  0  0  0
  187.5660  178.1820  142.6150 C   0  0  0  0  0  0  0  0  0  0  0  0
  185.4120  178.4170  142.7300 C   0  0  0  0  0  0  0  0  0  0  0  0
  186.6550  178.2340  144.9190 C   0  0  0  0  0  0  0  0  0  0  0  0
  186.4220  178.7390  146.9730 C   0  0  0  0  0  3  0  0  0  0  0  0
  183.0860  178.6640  142.1280 C   0  0  0  0  0  0  0  0  0  0  0  0
  185.9280  179.0120  145.7480 N   0  0  0  0  0  0  0  0  0  0  0  0
  187.5520  177.5170  145.5490 O   0  0  0  0  0  0  0  0  0  0  0  0
  185.7520  178.4770  141.3960 C   0  0  0  0  0  0  0  0  0  0  0  0
  187.7100  175.9060  148.3770 C   0  0  0  0  0  1  0  0  0  0  0  0
  189.7080  176.9920  147.4060 C   0  0  0  0  0  1  0  0  0  0  0  0
  188.2940  177.2260  147.9090 C   0  0  0  0  0  0  0  0  0  0  0  0
  188.3570  178.1780  149.0910 C   0  0  0  0  0  1  0  0  0  0  0  0
  189.0040  178.0970  143.0140 C   0  0  0  0  0  2  0  0  0  0  0  0
  188.8860  175.6350  143.2100 C   0  0  0  0  0  1  0  0  0  0  0  0
  189.6000  176.7880  142.5350 C   0  0  0  0  0  2  0  0  0  0  0  0
  186.9780  175.5560  136.9670 C   0  0  0  0  0  2  0  0  0  0  0  0
  186.1660  175.2070  135.7210 C   0  0  0  0  0  2  0  0  0  0  0  0
  185.2530  174.0020  135.9470 C   0  0  2  0  0  3  0  0  0  0  0  0
  184.2880  173.8560  134.7740 C   0  0  0  0  0  1  0  0  0  0  0  0
  185.0780  173.2340  138.2340 O   0  0  0  0  0  1  0  0  0  0  0  0
  184.5020  174.0810  137.2820 C   0  0  2  0  0  3  0  0  0  0  0  0
  183.0390  173.7730  137.1420 C   0  0  0  0  0  0  0  0  0  0  0  0
  182.0150  174.7380  137.4200 N   0  0  0  0  0  2  0  0  0  0  0  0
  182.7000  172.6160  136.7780 O   0  0  0  0  0  0  0  0  0  0  0  0
  182.2610  176.1150  137.8310 C   0  0  2  0  0  3  0  0  0  0  0  0
  181.3670  176.4430  139.0130 C   0  0  0  0  0  1  0  0  0  0  0  0
  181.9730  176.9840  136.7730 O   0  0  0  0  0  0  0  0  0  0  0  0
  183.1790  177.1350  136.0870 C   0  0  0  0  0  1  0  0  0  0  0  0
  187.1960  177.9510  136.1390 C   0  0  0  0  0  2  0  0  0  0  0  0
  187.2870  177.8920  134.6870 N   0  0  0  0  0  2  0  0  0  0  0  0
  188.4720  177.1160  134.3520 C   0  0  0  0  0  2  0  0  0  0  0  0
  189.5740  177.5890  135.0680 O   0  0  0  0  0  0  0  0  0  0  0  0
  190.6840  177.0640  134.4070 C   0  0  0  0  0  2  0  0  0  0  0  0
  192.4460  175.3640  136.9710 N   0  0  0  0  0  2  0  0  0  0  0  0
  193.4680  175.0950  135.9710 C   0  0  2  0  0  3  0  0  0  0  0  0
  192.6950  175.2250  134.3460 S   0  0  0  0  0  0  0  0  0  0  0  0
  191.6690  176.3590  136.4710 O   0  0  0  0  0  0  0  0  0  0  0  0
  191.2590  175.9100  135.2090 C   0  0  1  0  0  3  0  0  0  0  0  0
  194.1010  173.7160  136.1790 C   0  0  2  0  0  3  0  0  0  0  0  0
  196.1400  173.4060  138.1350 O   0  0  0  0  0  0  0  0  0  0  0  0
  195.5340  173.7660  135.9120 N   0  0  0  0  0  2  0  0  0  0  0  0
  196.5060  173.5340  136.9340 C   0  0  0  0  0  0  0  0  0  0  0  0
  197.9550  173.4120  136.5570 C   0  0  2  0  0  3  0  0  0  0  0  0
  199.6890  174.4230  135.0900 C   0  0  0  0  0  1  0  0  0  0  0  0
  198.4110  174.6890  135.8680 C   0  0  0  0  0  2  0  0  0  0  0  0
  198.2000  172.2090  135.6460 C   0  0  0  0  0  2  0  0  0  0  0  0
  199.0910  171.1710  136.3170 C   0  0  0  0  0  2  0  0  0  0  0  0
  199.1280  169.6140  138.1310 O   0  0  0  0  0  1  0  0  0  0  0  0
  198.2870  170.2410  137.2110 C   0  0  0  0  0  2  0  0  0  0  0  0
  192.1210  172.4110  135.7150 O   0  0  0  0  0  1  0  0  0  0  0  0
  193.4280  172.6590  135.2910 C   0  0  2  0  0  3  0  0  0  0  0  0
  194.1910  170.6110  136.5620 C   0  0  0  0  0  1  0  0  0  0  0  0
  194.2170  171.3520  135.2340 C   0  0  0  0  0  2  0  0  0  0  0  0
  1 41  1  1  0  0  0
  1 28  1  0  0  0  0
  1  2  1  0  0  0  0
  2  3  1  0  0  0  0
  3  4  1  0  0  0  0
  4  9  1  0  0  0  0
  5 10  2  0  0  0  0
  5 20  1  0  0  0  0
  7  6  1  0  0  0  0
  8 15  1  0  0  0  0
  9 20  1  0  0  0  0
  9 13  2  0  0  0  0
 10 17  1  0  0  0  0
 12 16  2  0  0  0  0
 12 23  1  0  0  0  0
 13 25  1  0  0  0  0
 13  8  1  0  0  0  0
 14  7  1  0  0  0  0
 14  8  1  0  0  0  0
 15 19  1  0  0  0  0
 15 18  2  0  0  0  0
 17 11  1  0  0  0  0
 17  7  2  0  0  0  0
 18 16  1  0  0  0  0
 19 12  1  0  0  0  0
 20 14  2  0  0  0  0
 22 23  1  0  0  0  0
 23 21  1  0  0  0  0
 23 24  1  0  0  0  0
 27 25  1  0  0  0  0
 27 26  1  0  0  0  0
 29 30  1  0  0  0  0
 29 28  1  0  0  0  0
 30 31  1  6  0  0  0
 30 33  1  0  0  0  0
 33 32  1  1  0  0  0
 34 33  1  0  0  0  0
 34 35  1  0  0  0  0
 35 37  1  0  0  0  0
 36 34  2  0  0  0  0
 37 38  1  1  0  0  0
 39 37  1  0  0  0  0
 40 39  1  0  0  0  0
 42 41  1  0  0  0  0
 43 42  1  0  0  0  0
 43 44  1  0  0  0  0
 45 44  1  0  0  0  0
 47 51  1  1  0  0  0
 47 46  1  0  0  0  0
 48 50  1  0  0  0  0
 48 47  1  0  0  0  0
 49 46  1  0  0  0  0
 50 45  1  6  0  0  0
 50 49  1  0  0  0  0
 51 53  1  6  0  0  0
 53 54  1  0  0  0  0
 54 52  2  0  0  0  0
 55 58  1  6  0  0  0
 55 54  1  0  0  0  0
 56 57  1  0  0  0  0
 57 55  1  0  0  0  0
 58 59  1  0  0  0  0
 59 61  1  0  0  0  0
 61 60  1  0  0  0  0
 63 62  1  1  0  0  0
 63 51  1  0  0  0  0
 65 63  1  0  0  0  0
 65 64  1  0  0  0  0
M  END
>  <MODEL>
4

>  <REMARK>
 VINA RESULT:      -4.2      2.451     11.028
  Name = 
  29 active torsions:
  status: ('A' for Active; 'I' for Inactive)
    1  A    between atoms: N_1  and  C_23
    2  A    between atoms: N_1  and  C_41
    3  A    between atoms: C_2  and  N_15
    4  A    between atoms: C_2  and  O_25
    5  A    between atoms: C_4  and  C_60
    6  A    between atoms: C_5  and  C_6
    7  A    between atoms: C_5  and  C_12
    8  A    between atoms: C_5  and  C_23
    9  A    between atoms: C_6  and  C_14
   10  A    between atoms: C_11  and  C_49
   11  A    between atoms: C_12  and  C_40
   12  A    between atoms: C_14  and  C_43
   13  A    between atoms: C_19  and  C_21
   14  A    between atoms: C_19  and  C_58
   15  A    between atoms: C_21  and  C_26
   16  A    between atoms: N_22  and  C_49
   17  A    between atoms: C_27  and  C_43
   18  A    between atoms: C_29  and  C_40
   19  A    between atoms: C_29  and  C_60
   20  A    between atoms: C_33  and  C_47
   21  A    between atoms: C_36  and  C_56
   22  A    between atoms: C_37  and  O_46
   23  A    between atoms: C_37  and  C_65
   24  A    between atoms: C_41  and  O_46
   25  A    between atoms: C_45  and  C_56
   26  A    between atoms: C_49  and  C_52
   27  A    between atoms: C_52  and  C_64
   28  A    between atoms: C_58  and  C_61
   29  A    between atoms: C_58  and  C_62
                            x       y       z     vdW  Elec       q    Type
                         _______ _______ _______ _____ _____    ______ ____

>  <TORSDO>
F 29

$$$$
=
 OpenBabel10232410063D

 65 68  0  0  1  0  0  0  0  0999 V2000
  187.7080  176.8980  136.8220 C   0  0  1  0  0  3  0  0  0  0  0  0
  188.5740  177.1440  138.0630 C   0  0  0  0  0  2  0  0  0  0  0  0
  187.7720  177.1110  139.3600 C   0  0  0  0  0  2  0  0  0  0  0  0
  187.4130  178.5130  139.8320 C   0  0  0  0  0  2  0  0  0  0  0  0
  184.2640  178.7170  140.2990 C   0  0  0  0  0  3  0  0  0  0  0  0
  183.3510  178.4450  144.4190 O   0  0  0  0  0  1  0  0  0  0  0  0
  183.6660  178.5740  143.0720 C   0  0  0  0  0  0  0  0  0  0  0  0
  186.1490  178.4350  143.3140 N   0  0  0  0  0  0  0  0  0  0  0  0
  186.6310  178.4910  141.1090 C   0  0  0  0  0  0  0  0  0  0  0  0
  182.9340  178.7800  140.7460 C   0  0  0  0  0  3  0  0  0  0  0  0
  181.3070  178.7490  142.5320 O   0  0  0  0  0  1  0  0  0  0  0  0
  187.2260  178.0860  146.6090 C   0  0  0  0  0  0  0  0  0  0  0  0
  187.1460  178.3850  142.3930 C   0  0  0  0  0  0  0  0  0  0  0  0
  184.9930  178.5490  142.6100 C   0  0  0  0  0  0  0  0  0  0  0  0
  186.3480  178.4550  144.7380 C   0  0  0  0  0  0  0  0  0  0  0  0
  186.1980  178.9960  146.7900 C   0  0  0  0  0  3  0  0  0  0  0  0
  182.6340  178.7040  142.1200 C   0  0  0  0  0  0  0  0  0  0  0  0
  185.6360  179.2260  145.5860 N   0  0  0  0  0  0  0  0  0  0  0  0
  187.3000  177.7820  145.3370 O   0  0  0  0  0  0  0  0  0  0  0  0
  185.2650  178.5910  141.2600 C   0  0  0  0  0  0  0  0  0  0  0  0
  187.4040  176.6690  148.6180 C   0  0  0  0  0  1  0  0  0  0  0  0
  189.2980  176.7730  147.0340 C   0  0  0  0  0  1  0  0  0  0  0  0
  188.1660  177.5670  147.6620 C   0  0  0  0  0  0  0  0  0  0  0  0
  188.7670  178.7200  148.4480 C   0  0  0  0  0  1  0  0  0  0  0  0
  188.6040  178.3570  142.7210 C   0  0  0  0  0  2  0  0  0  0  0  0
  188.9590  175.9460  143.1420 C   0  0  0  0  0  1  0  0  0  0  0  0
  189.2340  177.0860  142.1840 C   0  0  0  0  0  2  0  0  0  0  0  0
  186.7090  175.7610  137.0360 C   0  0  0  0  0  2  0  0  0  0  0  0
  186.3890  174.9990  135.7510 C   0  0  0  0  0  2  0  0  0  0  0  0
  184.8920  174.7360  135.5930 C   0  0  2  0  0  3  0  0  0  0  0  0
  184.1450  176.0590  135.4560 C   0  0  0  0  0  1  0  0  0  0  0  0
  184.3050  174.6100  137.9360 O   0  0  0  0  0  1  0  0  0  0  0  0
  184.3230  173.8890  136.7390 C   0  0  2  0  0  3  0  0  0  0  0  0
  185.0690  172.6000  136.9300 C   0  0  0  0  0  0  0  0  0  0  0  0
  184.7270  171.3970  136.2270 N   0  0  0  0  0  2  0  0  0  0  0  0
  186.0250  172.5740  137.7490 O   0  0  0  0  0  0  0  0  0  0  0  0
  183.6600  171.2870  135.2400 C   0  0  2  0  0  3  0  0  0  0  0  0
  182.3220  171.4100  135.9460 C   0  0  0  0  0  1  0  0  0  0  0  0
  183.7350  170.0470  134.5980 O   0  0  0  0  0  0  0  0  0  0  0  0
  182.5050  169.4350  134.8420 C   0  0  0  0  0  1  0  0  0  0  0  0
  187.0550  178.1610  136.2660 C   0  0  0  0  0  2  0  0  0  0  0  0
  187.2480  178.2300  134.8250 N   0  0  0  0  0  2  0  0  0  0  0  0
  188.3630  177.3560  134.4880 C   0  0  0  0  0  2  0  0  0  0  0  0
  189.5220  177.7860  135.1380 O   0  0  0  0  0  0  0  0  0  0  0  0
  190.5610  177.0960  134.5130 C   0  0  0  0  0  2  0  0  0  0  0  0
  192.2930  175.5330  137.1820 N   0  0  0  0  0  2  0  0  0  0  0  0
  193.2200  175.0380  136.1760 C   0  0  2  0  0  3  0  0  0  0  0  0
  192.3660  175.0560  134.5860 S   0  0  0  0  0  0  0  0  0  0  0  0
  191.5930  176.5400  136.5990 O   0  0  0  0  0  0  0  0  0  0  0  0
  191.0630  175.9910  135.4240 C   0  0  1  0  0  3  0  0  0  0  0  0
  193.7200  173.6330  136.5240 C   0  0  2  0  0  3  0  0  0  0  0  0
  195.3260  172.5770  138.6180 O   0  0  0  0  0  0  0  0  0  0  0  0
  195.1790  173.5970  136.5270 N   0  0  0  0  0  2  0  0  0  0  0  0
  195.9220  172.9880  137.5850 C   0  0  0  0  0  0  0  0  0  0  0  0
  197.4070  172.8160  137.4360 C   0  0  2  0  0  3  0  0  0  0  0  0
  198.2160  174.9820  136.5250 C   0  0  0  0  0  1  0  0  0  0  0  0
  198.1080  174.1230  137.7730 C   0  0  0  0  0  2  0  0  0  0  0  0
  197.7830  172.3680  136.0240 C   0  0  0  0  0  2  0  0  0  0  0  0
  197.2440  170.9760  135.7160 C   0  0  0  0  0  2  0  0  0  0  0  0
  197.7060  168.6550  136.0580 O   0  0  0  0  0  1  0  0  0  0  0  0
  198.3050  169.9090  135.9280 C   0  0  0  0  0  2  0  0  0  0  0  0
  192.6860  171.4690  136.2330 O   0  0  0  0  0  1  0  0  0  0  0  0
  193.1610  172.5890  135.5470 C   0  0  2  0  0  3  0  0  0  0  0  0
  194.2530  170.6500  134.3460 C   0  0  0  0  0  1  0  0  0  0  0  0
  194.1830  172.1630  134.4940 C   0  0  0  0  0  2  0  0  0  0  0  0
  1 41  1  1  0  0  0
  1 28  1  0  0  0  0
  1  2  1  0  0  0  0
  2  3  1  0  0  0  0
  3  4  1  0  0  0  0
  4  9  1  0  0  0  0
  5 10  2  0  0  0  0
  5 20  1  0  0  0  0
  7  6  1  0  0  0  0
  8 15  1  0  0  0  0
  9 20  1  0  0  0  0
  9 13  2  0  0  0  0
 10 17  1  0  0  0  0
 12 16  2  0  0  0  0
 12 23  1  0  0  0  0
 13 25  1  0  0  0  0
 13  8  1  0  0  0  0
 14  7  1  0  0  0  0
 14  8  1  0  0  0  0
 15 19  1  0  0  0  0
 15 18  2  0  0  0  0
 17 11  1  0  0  0  0
 17  7  2  0  0  0  0
 18 16  1  0  0  0  0
 19 12  1  0  0  0  0
 20 14  2  0  0  0  0
 22 23  1  0  0  0  0
 23 24  1  0  0  0  0
 23 21  1  0  0  0  0
 27 25  1  0  0  0  0
 27 26  1  0  0  0  0
 29 28  1  0  0  0  0
 30 31  1  1  0  0  0
 30 29  1  0  0  0  0
 30 33  1  0  0  0  0
 33 34  1  0  0  0  0
 33 32  1  1  0  0  0
 34 36  2  0  0  0  0
 35 34  1  0  0  0  0
 37 38  1  1  0  0  0
 37 35  1  0  0  0  0
 39 40  1  0  0  0  0
 39 37  1  0  0  0  0
 42 41  1  0  0  0  0
 43 42  1  0  0  0  0
 43 44  1  0  0  0  0
 45 44  1  0  0  0  0
 47 51  1  1  0  0  0
 47 46  1  0  0  0  0
 48 50  1  0  0  0  0
 48 47  1  0  0  0  0
 49 46  1  0  0  0  0
 50 45  1  6  0  0  0
 50 49  1  0  0  0  0
 51 53  1  6  0  0  0
 53 54  1  0  0  0  0
 54 52  2  0  0  0  0
 55 58  1  6  0  0  0
 55 54  1  0  0  0  0
 55 57  1  0  0  0  0
 56 57  1  0  0  0  0
 59 61  1  0  0  0  0
 59 58  1  0  0  0  0
 61 60  1  0  0  0  0
 63 62  1  1  0  0  0
 63 51  1  0  0  0  0
 64 65  1  0  0  0  0
 65 63  1  0  0  0  0
M  END
>  <MODEL>
5

>  <REMARK>
 VINA RESULT:      -3.9      2.584     10.541
  Name = 
  29 active torsions:
  status: ('A' for Active; 'I' for Inactive)
    1  A    between atoms: N_1  and  C_23
    2  A    between atoms: N_1  and  C_41
    3  A    between atoms: C_2  and  N_15
    4  A    between atoms: C_2  and  O_25
    5  A    between atoms: C_4  and  C_60
    6  A    between atoms: C_5  and  C_6
    7  A    between atoms: C_5  and  C_12
    8  A    between atoms: C_5  and  C_23
    9  A    between atoms: C_6  and  C_14
   10  A    between atoms: C_11  and  C_49
   11  A    between atoms: C_12  and  C_40
   12  A    between atoms: C_14  and  C_43
   13  A    between atoms: C_19  and  C_21
   14  A    between atoms: C_19  and  C_58
   15  A    between atoms: C_21  and  C_26
   16  A    between atoms: N_22  and  C_49
   17  A    between atoms: C_27  and  C_43
   18  A    between atoms: C_29  and  C_40
   19  A    between atoms: C_29  and  C_60
   20  A    between atoms: C_33  and  C_47
   21  A    between atoms: C_36  and  C_56
   22  A    between atoms: C_37  and  O_46
   23  A    between atoms: C_37  and  C_65
   24  A    between atoms: C_41  and  O_46
   25  A    between atoms: C_45  and  C_56
   26  A    between atoms: C_49  and  C_52
   27  A    between atoms: C_52  and  C_64
   28  A    between atoms: C_58  and  C_61
   29  A    between atoms: C_58  and  C_62
                            x       y       z     vdW  Elec       q    Type
                         _______ _______ _______ _____ _____    ______ ____

>  <TORSDO>
F 29

$$$$
=
 OpenBabel10232410063D

 65 68  0  0  1  0  0  0  0  0999 V2000
  190.3120  176.0490  138.3680 C   0  0  1  0  0  3  0  0  0  0  0  0
  188.8990  176.5340  138.0230 C   0  0  0  0  0  2  0  0  0  0  0  0
  188.4990  176.2140  136.5870 C   0  0  0  0  0  2  0  0  0  0  0  0
  188.8260  174.7730  136.2220 C   0  0  0  0  0  2  0  0  0  0  0  0
  188.5140  171.7360  135.2970 C   0  0  0  0  0  3  0  0  0  0  0  0
  184.4550  170.5570  135.4110 O   0  0  0  0  0  1  0  0  0  0  0  0
  185.7800  170.9670  135.3390 C   0  0  0  0  0  0  0  0  0  0  0  0
  185.4160  173.3330  136.0550 N   0  0  0  0  0  0  0  0  0  0  0  0
  187.5920  173.9380  136.0800 C   0  0  0  0  0  0  0  0  0  0  0  0
  188.1340  170.4340  134.9330 C   0  0  0  0  0  3  0  0  0  0  0  0
  186.4350  168.7470  134.6130 O   0  0  0  0  0  1  0  0  0  0  0  0
  182.0810  174.1150  136.6930 C   0  0  0  0  0  0  0  0  0  0  0  0
  186.2870  174.3410  136.3220 C   0  0  0  0  0  0  0  0  0  0  0  0
  186.1750  172.2770  135.6650 C   0  0  0  0  0  0  0  0  0  0  0  0
  183.9850  173.4520  136.1020 C   0  0  0  0  0  0  0  0  0  0  0  0
  181.9280  173.3180  135.5720 C   0  0  0  0  0  3  0  0  0  0  0  0
  186.7790  170.0480  134.9580 C   0  0  0  0  0  0  0  0  0  0  0  0
  183.1520  172.8920  135.2000 N   0  0  0  0  0  0  0  0  0  0  0  0
  183.3560  174.1870  136.9870 O   0  0  0  0  0  0  0  0  0  0  0  0
  187.5080  172.6260  135.6670 C   0  0  0  0  0  0  0  0  0  0  0  0
  180.2860  173.8880  138.3660 C   0  0  0  0  0  1  0  0  0  0  0  0
  181.5750  175.9940  138.2460 C   0  0  0  0  0  1  0  0  0  0  0  0
  180.9970  174.8490  137.4330 C   0  0  0  0  0  0  0  0  0  0  0  0
  179.9840  175.4200  136.4540 C   0  0  0  0  0  1  0  0  0  0  0  0
  185.8860  175.7330  136.6930 C   0  0  0  0  0  2  0  0  0  0  0  0
  184.2210  177.3970  135.9370 C   0  0  0  0  0  1  0  0  0  0  0  0
  185.3110  176.4480  135.4870 C   0  0  0  0  0  2  0  0  0  0  0  0
  191.3280  176.4250  137.2900 C   0  0  0  0  0  2  0  0  0  0  0  0
  192.2390  175.2630  136.8980 C   0  0  0  0  0  2  0  0  0  0  0  0
  193.3380  175.6930  135.9270 C   0  0  2  0  0  3  0  0  0  0  0  0
  192.7240  176.0620  134.5800 C   0  0  0  0  0  1  0  0  0  0  0  0
  195.0820  174.7530  134.5400 O   0  0  0  0  0  1  0  0  0  0  0  0
  194.4300  174.6280  135.7700 C   0  0  2  0  0  3  0  0  0  0  0  0
  193.9030  173.2310  135.9300 C   0  0  0  0  0  0  0  0  0  0  0  0
  194.6720  172.1770  136.5260 N   0  0  0  0  0  2  0  0  0  0  0  0
  192.7420  172.9760  135.5120 O   0  0  0  0  0  0  0  0  0  0  0  0
  196.0160  172.3340  137.0670 C   0  0  2  0  0  3  0  0  0  0  0  0
  196.9930  172.5030  135.9170 C   0  0  0  0  0  1  0  0  0  0  0  0
  196.3630  171.2010  137.8100 O   0  0  0  0  0  0  0  0  0  0  0  0
  195.1610  170.5210  138.0190 C   0  0  0  0  0  1  0  0  0  0  0  0
  190.7710  176.4360  139.7720 C   0  0  0  0  0  2  0  0  0  0  0  0
  192.1020  177.0220  139.7190 N   0  0  0  0  0  2  0  0  0  0  0  0
  192.2890  177.7990  140.9360 C   0  0  0  0  0  2  0  0  0  0  0  0
  191.4650  177.3070  141.9510 O   0  0  0  0  0  0  0  0  0  0  0  0
  191.9300  177.9160  143.1170 C   0  0  0  0  0  2  0  0  0  0  0  0
  189.7670  176.6770  145.6390 N   0  0  0  0  0  2  0  0  0  0  0  0
  188.7140  176.7210  144.6360 C   0  0  2  0  0  3  0  0  0  0  0  0
  189.2150  177.8990  143.3640 S   0  0  0  0  0  0  0  0  0  0  0  0
  190.9440  176.7590  144.9660 O   0  0  0  0  0  0  0  0  0  0  0  0
  190.8360  177.9060  144.1690 C   0  0  1  0  0  3  0  0  0  0  0  0
  187.3700  177.1110  145.2580 C   0  0  2  0  0  3  0  0  0  0  0  0
  185.2310  178.9000  145.8080 O   0  0  0  0  0  0  0  0  0  0  0  0
  186.4980  177.7110  144.2540 N   0  0  0  0  0  2  0  0  0  0  0  0
  185.4820  178.6570  144.5960 C   0  0  0  0  0  0  0  0  0  0  0  0
  184.7490  179.3770  143.5010 C   0  0  2  0  0  3  0  0  0  0  0  0
  182.6220  178.4900  144.4320 C   0  0  0  0  0  1  0  0  0  0  0  0
  183.3530  179.7430  143.9780 C   0  0  0  0  0  2  0  0  0  0  0  0
  184.6650  178.5320  142.2300 C   0  0  0  0  0  2  0  0  0  0  0  0
  185.5160  179.1180  141.1100 C   0  0  0  0  0  2  0  0  0  0  0  0
  184.6800  179.9790  139.0420 O   0  0  0  0  0  1  0  0  0  0  0  0
  184.9340  178.7990  139.7430 C   0  0  0  0  0  2  0  0  0  0  0  0
  188.7160  178.8440  146.2700 O   0  0  0  0  0  1  0  0  0  0  0  0
  187.5650  178.0720  146.4390 C   0  0  2  0  0  3  0  0  0  0  0  0
  188.6770  177.9270  148.7050 C   0  0  0  0  0  1  0  0  0  0  0  0
  187.6150  177.3470  147.7840 C   0  0  0  0  0  2  0  0  0  0  0  0
  1 28  1  6  0  0  0
  1 41  1  0  0  0  0
  2  1  1  0  0  0  0
  3  2  1  0  0  0  0
  4  3  1  0  0  0  0
  5 20  1  0  0  0  0
  7  6  1  0  0  0  0
  7 14  1  0  0  0  0
  8 15  1  0  0  0  0
  8 13  1  0  0  0  0
  9  4  1  0  0  0  0
  9 13  2  0  0  0  0
 10 17  1  0  0  0  0
 10  5  2  0  0  0  0
 11 17  1  0  0  0  0
 12 19  1  0  0  0  0
 12 23  1  0  0  0  0
 13 25  1  0  0  0  0
 14 20  2  0  0  0  0
 14  8  1  0  0  0  0
 15 19  1  0  0  0  0
 16 12  2  0  0  0  0
 17  7  2  0  0  0  0
 18 16  1  0  0  0  0
 18 15  2  0  0  0  0
 20  9  1  0  0  0  0
 23 22  1  0  0  0  0
 23 21  1  0  0  0  0
 24 23  1  0  0  0  0
 27 26  1  0  0  0  0
 27 25  1  0  0  0  0
 29 28  1  0  0  0  0
 30 31  1  6  0  0  0
 30 29  1  0  0  0  0
 33 32  1  6  0  0  0
 33 30  1  0  0  0  0
 33 34  1  0  0  0  0
 34 35  1  0  0  0  0
 35 37  1  0  0  0  0
 36 34  2  0  0  0  0
 37 38  1  6  0  0  0
 37 39  1  0  0  0  0
 39 40  1  0  0  0  0
 42 41  1  0  0  0  0
 42 43  1  0  0  0  0
 43 44  1  0  0  0  0
 44 45  1  0  0  0  0
 47 51  1  1  0  0  0
 47 46  1  0  0  0  0
 48 50  1  0  0  0  0
 48 47  1  0  0  0  0
 49 46  1  0  0  0  0
 50 45  1  6  0  0  0
 50 49  1  0  0  0  0
 51 53  1  6  0  0  0
 51 63  1  0  0  0  0
 53 54  1  0  0  0  0
 54 52  2  0  0  0  0
 55 58  1  6  0  0  0
 55 57  1  0  0  0  0
 55 54  1  0  0  0  0
 57 56  1  0  0  0  0
 59 58  1  0  0  0  0
 60 61  1  0  0  0  0
 61 59  1  0  0  0  0
 63 62  1  6  0  0  0
 63 65  1  0  0  0  0
 65 64  1  0  0  0  0
M  END
>  <MODEL>
6

>  <REMARK>
 VINA RESULT:      -3.7      1.873      2.813
  Name = 
  29 active torsions:
  status: ('A' for Active; 'I' for Inactive)
    1  A    between atoms: N_1  and  C_23
    2  A    between atoms: N_1  and  C_41
    3  A    between atoms: C_2  and  N_15
    4  A    between atoms: C_2  and  O_25
    5  A    between atoms: C_4  and  C_60
    6  A    between atoms: C_5  and  C_6
    7  A    between atoms: C_5  and  C_12
    8  A    between atoms: C_5  and  C_23
    9  A    between atoms: C_6  and  C_14
   10  A    between atoms: C_11  and  C_49
   11  A    between atoms: C_12  and  C_40
   12  A    between atoms: C_14  and  C_43
   13  A    between atoms: C_19  and  C_21
   14  A    between atoms: C_19  and  C_58
   15  A    between atoms: C_21  and  C_26
   16  A    between atoms: N_22  and  C_49
   17  A    between atoms: C_27  and  C_43
   18  A    between atoms: C_29  and  C_40
   19  A    between atoms: C_29  and  C_60
   20  A    between atoms: C_33  and  C_47
   21  A    between atoms: C_36  and  C_56
   22  A    between atoms: C_37  and  O_46
   23  A    between atoms: C_37  and  C_65
   24  A    between atoms: C_41  and  O_46
   25  A    between atoms: C_45  and  C_56
   26  A    between atoms: C_49  and  C_52
   27  A    between atoms: C_52  and  C_64
   28  A    between atoms: C_58  and  C_61
   29  A    between atoms: C_58  and  C_62
                            x       y       z     vdW  Elec       q    Type
                         _______ _______ _______ _____ _____    ______ ____

>  <TORSDO>
F 29

$$$$
=
 OpenBabel10232410063D

 65 68  0  0  1  0  0  0  0  0999 V2000
  191.9340  177.2330  138.7670 C   0  0  1  0  0  3  0  0  0  0  0  0
  192.2220  176.5790  140.1240 C   0  0  0  0  0  2  0  0  0  0  0  0
  191.3580  177.1440  141.2470 C   0  0  0  0  0  2  0  0  0  0  0  0
  190.6950  176.0370  142.0540 C   0  0  0  0  0  2  0  0  0  0  0  0
  191.7380  176.3750  145.0500 C   0  0  0  0  0  3  0  0  0  0  0  0
  188.7380  178.0940  147.4840 O   0  0  0  0  0  1  0  0  0  0  0  0
  189.7010  177.4930  146.6840 C   0  0  0  0  0  0  0  0  0  0  0  0
  188.3560  177.4070  144.5810 N   0  0  0  0  0  0  0  0  0  0  0  0
  189.9860  176.5710  143.2600 C   0  0  0  0  0  0  0  0  0  0  0  0
  191.9720  176.6210  146.4120 C   0  0  0  0  0  3  0  0  0  0  0  0
  191.2320  177.4320  148.5650 O   0  0  0  0  0  1  0  0  0  0  0  0
  185.1330  178.6890  144.9150 C   0  0  0  0  0  0  0  0  0  0  0  0
  188.6790  177.0320  143.3150 C   0  0  0  0  0  0  0  0  0  0  0  0
  189.4720  177.2060  145.3270 C   0  0  0  0  0  0  0  0  0  0  0  0
  187.0490  177.8320  145.0010 C   0  0  0  0  0  0  0  0  0  0  0  0
  185.2490  178.0190  146.1210 C   0  0  0  0  0  3  0  0  0  0  0  0
  190.9660  177.1800  147.2240 C   0  0  0  0  0  0  0  0  0  0  0  0
  186.4810  177.4750  146.1720 N   0  0  0  0  0  0  0  0  0  0  0  0
  186.2510  178.5460  144.2460 O   0  0  0  0  0  0  0  0  0  0  0  0
  190.4790  176.6890  144.5410 C   0  0  0  0  0  0  0  0  0  0  0  0
  184.0330  180.8870  144.7270 C   0  0  0  0  0  1  0  0  0  0  0  0
  183.7930  179.2470  142.8930 C   0  0  0  0  0  1  0  0  0  0  0  0
  183.9200  179.4100  144.3980 C   0  0  0  0  0  0  0  0  0  0  0  0
  182.6610  178.8590  145.0470 C   0  0  0  0  0  1  0  0  0  0  0  0
  187.7180  176.9920  142.1700 C   0  0  0  0  0  2  0  0  0  0  0  0
  188.0880  178.1660  140.0260 C   0  0  0  0  0  1  0  0  0  0  0  0
  187.6830  178.3390  141.4750 C   0  0  0  0  0  2  0  0  0  0  0  0
  192.8740  176.7260  137.6750 C   0  0  0  0  0  2  0  0  0  0  0  0
  192.6450  175.2560  137.3250 C   0  0  0  0  0  2  0  0  0  0  0  0
  193.6260  174.7550  136.2660 C   0  0  2  0  0  3  0  0  0  0  0  0
  192.9960  174.8690  134.8810 C   0  0  0  0  0  1  0  0  0  0  0  0
  193.0300  172.4500  136.6910 O   0  0  0  0  0  1  0  0  0  0  0  0
  194.1090  173.3270  136.5450 C   0  0  2  0  0  3  0  0  0  0  0  0
  195.0030  173.2430  137.7490 C   0  0  0  0  0  0  0  0  0  0  0  0
  195.6370  172.0240  138.1580 N   0  0  0  0  0  2  0  0  0  0  0  0
  195.1890  174.2850  138.4320 O   0  0  0  0  0  0  0  0  0  0  0  0
  195.5250  170.7520  137.4550 C   0  0  2  0  0  3  0  0  0  0  0  0
  195.0960  169.6810  138.4410 C   0  0  0  0  0  1  0  0  0  0  0  0
  196.7620  170.4070  136.9000 O   0  0  0  0  0  0  0  0  0  0  0  0
  196.6370  169.0640  136.5390 C   0  0  0  0  0  1  0  0  0  0  0  0
  190.4650  177.1750  138.3560 C   0  0  0  0  0  2  0  0  0  0  0  0
  190.1340  178.3220  137.5220 N   0  0  0  0  0  2  0  0  0  0  0  0
  188.9720  177.9620  136.7210 C   0  0  0  0  0  2  0  0  0  0  0  0
  189.3200  176.9860  135.7840 O   0  0  0  0  0  0  0  0  0  0  0  0
  188.3050  177.0310  134.8270 C   0  0  0  0  0  2  0  0  0  0  0  0
  185.7040  174.6220  134.8190 N   0  0  0  0  0  2  0  0  0  0  0  0
  184.7920  175.7340  134.5980 C   0  0  2  0  0  3  0  0  0  0  0  0
  185.6100  177.2370  135.1720 S   0  0  0  0  0  0  0  0  0  0  0  0
  186.9490  175.0810  134.5320 O   0  0  0  0  0  0  0  0  0  0  0  0
  187.1080  176.2330  135.3130 C   0  0  1  0  0  3  0  0  0  0  0  0
  183.4600  175.5140  135.3190 C   0  0  2  0  0  3  0  0  0  0  0  0
  181.8720  177.8710  135.2480 O   0  0  0  0  0  0  0  0  0  0  0  0
  183.3130  176.4610  136.4200 N   0  0  0  0  0  2  0  0  0  0  0  0
  182.4430  177.5930  136.3380 C   0  0  0  0  0  0  0  0  0  0  0  0
  182.1930  178.4170  137.5680 C   0  0  2  0  0  3  0  0  0  0  0  0
  180.7850  176.4070  137.9630 C   0  0  0  0  0  1  0  0  0  0  0  0
  181.5190  177.5600  138.6280 C   0  0  0  0  0  2  0  0  0  0  0  0
  181.3320  179.6420  137.2590 C   0  0  0  0  0  2  0  0  0  0  0  0
  181.0550  180.4620  138.5130 C   0  0  0  0  0  2  0  0  0  0  0  0
  181.6320  182.6720  137.8060 O   0  0  0  0  0  1  0  0  0  0  0  0
  182.0240  181.6260  138.6430 C   0  0  0  0  0  2  0  0  0  0  0  0
  182.1210  173.5080  135.4580 O   0  0  0  0  0  1  0  0  0  0  0  0
  183.3410  174.0730  135.8340 C   0  0  2  0  0  3  0  0  0  0  0  0
  184.7440  173.1540  137.7260 C   0  0  0  0  0  1  0  0  0  0  0  0
  183.5190  173.9730  137.3490 C   0  0  0  0  0  2  0  0  0  0  0  0
  1 28  1  6  0  0  0
  1  2  1  0  0  0  0
  2  3  1  0  0  0  0
  3  4  1  0  0  0  0
  4  9  1  0  0  0  0
  5 10  1  0  0  0  0
  7 17  1  0  0  0  0
  7  6  1  0  0  0  0
  8 15  1  0  0  0  0
  8 14  1  0  0  0  0
  9 13  2  0  0  0  0
  9 20  1  0  0  0  0
 10 17  2  0  0  0  0
 12 16  2  0  0  0  0
 13  8  1  0  0  0  0
 14  7  2  0  0  0  0
 15 18  2  0  0  0  0
 16 18  1  0  0  0  0
 17 11  1  0  0  0  0
 19 12  1  0  0  0  0
 19 15  1  0  0  0  0
 20  5  2  0  0  0  0
 20 14  1  0  0  0  0
 22 23  1  0  0  0  0
 23 21  1  0  0  0  0
 23 12  1  0  0  0  0
 23 24  1  0  0  0  0
 25 13  1  0  0  0  0
 26 27  1  0  0  0  0
 27 25  1  0  0  0  0
 29 28  1  0  0  0  0
 30 31  1  6  0  0  0
 30 33  1  0  0  0  0
 30 29  1  0  0  0  0
 33 32  1  1  0  0  0
 33 34  1  0  0  0  0
 34 35  1  0  0  0  0
 34 36  2  0  0  0  0
 37 35  1  0  0  0  0
 37 38  1  1  0  0  0
 39 37  1  0  0  0  0
 40 39  1  0  0  0  0
 41  1  1  0  0  0  0
 42 41  1  0  0  0  0
 43 42  1  0  0  0  0
 44 43  1  0  0  0  0
 45 44  1  0  0  0  0
 47 46  1  0  0  0  0
 47 48  1  0  0  0  0
 47 51  1  1  0  0  0
 48 50  1  0  0  0  0
 49 46  1  0  0  0  0
 49 50  1  0  0  0  0
 50 45  1  6  0  0  0
 51 63  1  0  0  0  0
 51 53  1  1  0  0  0
 52 54  2  0  0  0  0
 54 53  1  0  0  0  0
 54 55  1  0  0  0  0
 55 58  1  6  0  0  0
 55 57  1  0  0  0  0
 56 57  1  0  0  0  0
 58 59  1  0  0  0  0
 59 61  1  0  0  0  0
 60 61  1  0  0  0  0
 63 62  1  1  0  0  0
 63 65  1  0  0  0  0
 65 64  1  0  0  0  0
M  END
>  <MODEL>
7

>  <REMARK>
 VINA RESULT:      -3.6      2.287      8.275
  Name = 
  29 active torsions:
  status: ('A' for Active; 'I' for Inactive)
    1  A    between atoms: N_1  and  C_23
    2  A    between atoms: N_1  and  C_41
    3  A    between atoms: C_2  and  N_15
    4  A    between atoms: C_2  and  O_25
    5  A    between atoms: C_4  and  C_60
    6  A    between atoms: C_5  and  C_6
    7  A    between atoms: C_5  and  C_12
    8  A    between atoms: C_5  and  C_23
    9  A    between atoms: C_6  and  C_14
   10  A    between atoms: C_11  and  C_49
   11  A    between atoms: C_12  and  C_40
   12  A    between atoms: C_14  and  C_43
   13  A    between atoms: C_19  and  C_21
   14  A    between atoms: C_19  and  C_58
   15  A    between atoms: C_21  and  C_26
   16  A    between atoms: N_22  and  C_49
   17  A    between atoms: C_27  and  C_43
   18  A    between atoms: C_29  and  C_40
   19  A    between atoms: C_29  and  C_60
   20  A    between atoms: C_33  and  C_47
   21  A    between atoms: C_36  and  C_56
   22  A    between atoms: C_37  and  O_46
   23  A    between atoms: C_37  and  C_65
   24  A    between atoms: C_41  and  O_46
   25  A    between atoms: C_45  and  C_56
   26  A    between atoms: C_49  and  C_52
   27  A    between atoms: C_52  and  C_64
   28  A    between atoms: C_58  and  C_61
   29  A    between atoms: C_58  and  C_62
                            x       y       z     vdW  Elec       q    Type
                         _______ _______ _______ _____ _____    ______ ____

>  <TORSDO>
F 29

$$$$
=
 OpenBabel10232410063D

 65 68  0  0  1  0  0  0  0  0999 V2000
  190.3760  176.3160  139.5110 C   0  0  1  0  0  3  0  0  0  0  0  0
  189.0960  177.0330  139.0640 C   0  0  0  0  0  2  0  0  0  0  0  0
  188.8320  176.8930  137.5690 C   0  0  0  0  0  2  0  0  0  0  0  0
  188.7430  175.4330  137.1500 C   0  0  0  0  0  2  0  0  0  0  0  0
  187.6000  172.6300  136.1430 C   0  0  0  0  0  3  0  0  0  0  0  0
  183.3710  172.6640  136.1410 O   0  0  0  0  0  1  0  0  0  0  0  0
  184.7600  172.6780  136.1070 C   0  0  0  0  0  0  0  0  0  0  0  0
  185.0690  175.0360  136.8750 N   0  0  0  0  0  0  0  0  0  0  0  0
  187.3260  174.9890  136.9610 C   0  0  0  0  0  0  0  0  0  0  0  0
  186.8730  171.4990  135.7380 C   0  0  0  0  0  3  0  0  0  0  0  0
  184.7700  170.3770  135.3390 O   0  0  0  0  0  1  0  0  0  0  0  0
  182.0820  176.7310  137.4620 C   0  0  0  0  0  0  0  0  0  0  0  0
  186.1850  175.7460  137.1850 C   0  0  0  0  0  0  0  0  0  0  0  0
  185.5040  173.8130  136.4740 C   0  0  0  0  0  0  0  0  0  0  0  0
  183.7310  175.5600  136.8950 C   0  0  0  0  0  0  0  0  0  0  0  0
  181.7380  176.0310  136.3180 C   0  0  0  0  0  3  0  0  0  0  0  0
  185.4640  171.5180  135.7240 C   0  0  0  0  0  0  0  0  0  0  0  0
  182.7980  175.2780  135.9610 N   0  0  0  0  0  0  0  0  0  0  0  0
  183.3160  176.4280  137.7840 O   0  0  0  0  0  0  0  0  0  0  0  0
  186.8800  173.7640  136.5130 C   0  0  0  0  0  0  0  0  0  0  0  0
  182.0860  178.9230  138.5880 C   0  0  0  0  0  1  0  0  0  0  0  0
  180.0840  178.2090  137.3260 C   0  0  0  0  0  1  0  0  0  0  0  0
  181.2330  177.7310  138.1960 C   0  0  0  0  0  0  0  0  0  0  0  0
  180.6540  177.1090  139.4550 C   0  0  0  0  0  1  0  0  0  0  0  0
  186.1890  177.1880  137.5830 C   0  0  0  0  0  2  0  0  0  0  0  0
  186.3020  177.2110  135.1140 C   0  0  0  0  0  1  0  0  0  0  0  0
  186.1300  178.0670  136.3500 C   0  0  0  0  0  2  0  0  0  0  0  0
  191.5350  176.5540  138.5430 C   0  0  0  0  0  2  0  0  0  0  0  0
  192.2040  175.2590  138.0830 C   0  0  0  0  0  2  0  0  0  0  0  0
  193.6520  175.4810  137.6480 C   0  0  2  0  0  3  0  0  0  0  0  0
  193.6940  176.4310  136.4550 C   0  0  0  0  0  1  0  0  0  0  0  0
  195.5170  174.0220  138.1370 O   0  0  0  0  0  1  0  0  0  0  0  0
  194.3780  174.1650  137.3410 C   0  0  2  0  0  3  0  0  0  0  0  0
  194.7460  174.0320  135.8910 C   0  0  0  0  0  0  0  0  0  0  0  0
  193.9920  173.2280  134.9730 N   0  0  0  0  0  2  0  0  0  0  0  0
  195.7640  174.6420  135.4720 O   0  0  0  0  0  0  0  0  0  0  0  0
  192.7860  172.4850  135.3150 C   0  0  2  0  0  3  0  0  0  0  0  0
  192.6440  171.3120  134.3620 C   0  0  0  0  0  1  0  0  0  0  0  0
  191.6680  173.3170  135.2000 O   0  0  0  0  0  0  0  0  0  0  0  0
  190.7640  172.8470  136.1550 C   0  0  0  0  0  1  0  0  0  0  0  0
  190.7560  176.5830  140.9650 C   0  0  0  0  0  2  0  0  0  0  0  0
  191.8970  177.4840  141.0260 N   0  0  0  0  0  2  0  0  0  0  0  0
  191.8860  178.1190  142.3360 C   0  0  0  0  0  2  0  0  0  0  0  0
  191.1380  177.3530  143.2340 O   0  0  0  0  0  0  0  0  0  0  0  0
  191.5990  177.7280  144.4960 C   0  0  0  0  0  2  0  0  0  0  0  0
  189.1400  176.5290  146.7510 N   0  0  0  0  0  2  0  0  0  0  0  0
  188.1700  176.7940  145.6990 C   0  0  2  0  0  3  0  0  0  0  0  0
  188.8900  178.0160  144.5830 S   0  0  0  0  0  0  0  0  0  0  0  0
  190.3620  176.5320  146.1590 O   0  0  0  0  0  0  0  0  0  0  0  0
  190.4410  177.7520  145.4770 C   0  0  1  0  0  3  0  0  0  0  0  0
  186.8400  177.2830  146.2780 C   0  0  2  0  0  3  0  0  0  0  0  0
  184.2600  178.4100  146.6700 O   0  0  0  0  0  0  0  0  0  0  0  0
  186.0500  177.9490  145.2480 N   0  0  0  0  0  2  0  0  0  0  0  0
  184.7860  178.5540  145.5320 C   0  0  0  0  0  0  0  0  0  0  0  0
  184.1150  179.3860  144.4770 C   0  0  2  0  0  3  0  0  0  0  0  0
  181.6910  179.0580  144.0340 C   0  0  0  0  0  1  0  0  0  0  0  0
  183.0890  178.5410  143.7390 C   0  0  0  0  0  2  0  0  0  0  0  0
  185.1270  179.9640  143.4880 C   0  0  0  0  0  2  0  0  0  0  0  0
  185.1960  179.1370  142.2100 C   0  0  0  0  0  2  0  0  0  0  0  0
  187.1240  177.7530  141.9180 O   0  0  0  0  0  1  0  0  0  0  0  0
  186.6210  179.0350  141.6890 C   0  0  0  0  0  2  0  0  0  0  0  0
  187.7610  179.3700  147.0750 O   0  0  0  0  0  1  0  0  0  0  0  0
  187.0680  178.2240  147.4690 C   0  0  2  0  0  3  0  0  0  0  0  0
  189.0220  178.3290  149.0700 C   0  0  0  0  0  1  0  0  0  0  0  0
  187.7990  177.5420  148.6250 C   0  0  0  0  0  2  0  0  0  0  0  0
  1 28  1  6  0  0  0
  1 41  1  0  0  0  0
  2  1  1  0  0  0  0
  3  2  1  0  0  0  0
  4  3  1  0  0  0  0
  5 20  1  0  0  0  0
  7  6  1  0  0  0  0
  7 14  1  0  0  0  0
  8 15  1  0  0  0  0
  8 13  1  0  0  0  0
  9  4  1  0  0  0  0
  9 13  2  0  0  0  0
 10  5  2  0  0  0  0
 11 17  1  0  0  0  0
 12 19  1  0  0  0  0
 12 23  1  0  0  0  0
 13 25  1  0  0  0  0
 14 20  2  0  0  0  0
 14  8  1  0  0  0  0
 15 19  1  0  0  0  0
 16 12  2  0  0  0  0
 17 10  1  0  0  0  0
 17  7  2  0  0  0  0
 18 16  1  0  0  0  0
 18 15  2  0  0  0  0
 20  9  1  0  0  0  0
 22 23  1  0  0  0  0
 23 21  1  0  0  0  0
 23 24  1  0  0  0  0
 26 27  1  0  0  0  0
 27 25  1  0  0  0  0
 29 28  1  0  0  0  0
 30 31  1  6  0  0  0
 30 29  1  0  0  0  0
 33 30  1  0  0  0  0
 33 32  1  1  0  0  0
 34 33  1  0  0  0  0
 35 37  1  0  0  0  0
 35 34  1  0  0  0  0
 36 34  2  0  0  0  0
 37 38  1  6  0  0  0
 39 37  1  0  0  0  0
 39 40  1  0  0  0  0
 41 42  1  0  0  0  0
 42 43  1  0  0  0  0
 43 44  1  0  0  0  0
 44 45  1  0  0  0  0
 47 51  1  1  0  0  0
 47 46  1  0  0  0  0
 48 50  1  0  0  0  0
 48 47  1  0  0  0  0
 49 46  1  0  0  0  0
 50 45  1  6  0  0  0
 50 49  1  0  0  0  0
 51 53  1  6  0  0  0
 51 63  1  0  0  0  0
 53 54  1  0  0  0  0
 54 52  2  0  0  0  0
 55 58  1  6  0  0  0
 55 54  1  0  0  0  0
 57 56  1  0  0  0  0
 57 55  1  0  0  0  0
 59 58  1  0  0  0  0
 61 60  1  0  0  0  0
 61 59  1  0  0  0  0
 63 62  1  6  0  0  0
 63 65  1  0  0  0  0
 65 64  1  0  0  0  0
M  END
>  <MODEL>
8

>  <REMARK>
 VINA RESULT:      -3.3      1.924      2.726
  Name = 
  29 active torsions:
  status: ('A' for Active; 'I' for Inactive)
    1  A    between atoms: N_1  and  C_23
    2  A    between atoms: N_1  and  C_41
    3  A    between atoms: C_2  and  N_15
    4  A    between atoms: C_2  and  O_25
    5  A    between atoms: C_4  and  C_60
    6  A    between atoms: C_5  and  C_6
    7  A    between atoms: C_5  and  C_12
    8  A    between atoms: C_5  and  C_23
    9  A    between atoms: C_6  and  C_14
   10  A    between atoms: C_11  and  C_49
   11  A    between atoms: C_12  and  C_40
   12  A    between atoms: C_14  and  C_43
   13  A    between atoms: C_19  and  C_21
   14  A    between atoms: C_19  and  C_58
   15  A    between atoms: C_21  and  C_26
   16  A    between atoms: N_22  and  C_49
   17  A    between atoms: C_27  and  C_43
   18  A    between atoms: C_29  and  C_40
   19  A    between atoms: C_29  and  C_60
   20  A    between atoms: C_33  and  C_47
   21  A    between atoms: C_36  and  C_56
   22  A    between atoms: C_37  and  O_46
   23  A    between atoms: C_37  and  C_65
   24  A    between atoms: C_41  and  O_46
   25  A    between atoms: C_45  and  C_56
   26  A    between atoms: C_49  and  C_52
   27  A    between atoms: C_52  and  C_64
   28  A    between atoms: C_58  and  C_61
   29  A    between atoms: C_58  and  C_62
                            x       y       z     vdW  Elec       q    Type
                         _______ _______ _______ _____ _____    ______ ____

>  <TORSDO>
F 29

$$$$
=
 OpenBabel10232410063D

 65 68  0  0  1  0  0  0  0  0999 V2000
  188.2180  178.4180  139.5240 C   0  0  1  0  0  3  0  0  0  0  0  0
  188.7530  179.0730  138.2450 C   0  0  0  0  0  2  0  0  0  0  0  0
  188.2070  178.4260  136.9770 C   0  0  0  0  0  2  0  0  0  0  0  0
  189.3270  178.0340  136.0230 C   0  0  0  0  0  2  0  0  0  0  0  0
  191.8600  176.1390  135.6170 C   0  0  0  0  0  3  0  0  0  0  0  0
  190.6510  172.1080  135.2040 O   0  0  0  0  0  1  0  0  0  0  0  0
  191.0340  173.4400  135.3000 C   0  0  0  0  0  0  0  0  0  0  0  0
  188.7410  174.4120  135.5030 N   0  0  0  0  0  0  0  0  0  0  0  0
  189.3910  176.5530  135.8120 C   0  0  0  0  0  0  0  0  0  0  0  0
  192.8080  175.1200  135.4290 C   0  0  0  0  0  3  0  0  0  0  0  0
  193.3630  172.7900  135.1140 O   0  0  0  0  0  1  0  0  0  0  0  0
  186.1890  172.0440  135.3770 C   0  0  0  0  0  0  0  0  0  0  0  0
  188.3140  175.6810  135.7380 C   0  0  0  0  0  0  0  0  0  0  0  0
  190.0960  174.4760  135.4520 C   0  0  0  0  0  0  0  0  0  0  0  0
  187.8780  173.2870  135.2680 C   0  0  0  0  0  0  0  0  0  0  0  0
  187.0350  171.5330  134.4080 C   0  0  0  0  0  3  0  0  0  0  0  0
  192.4020  173.7800  135.2770 C   0  0  0  0  0  0  0  0  0  0  0  0
  188.1190  172.3330  134.3460 N   0  0  0  0  0  0  0  0  0  0  0  0
  186.7290  173.1270  135.8790 O   0  0  0  0  0  0  0  0  0  0  0  0
  190.5150  175.7770  135.6320 C   0  0  0  0  0  0  0  0  0  0  0  0
  185.0050  170.1900  136.4890 C   0  0  0  0  0  1  0  0  0  0  0  0
  184.1110  172.4870  136.6750 C   0  0  0  0  0  1  0  0  0  0  0  0
  184.8370  171.5110  135.7640 C   0  0  0  0  0  0  0  0  0  0  0  0
  183.9840  171.2860  134.5270 C   0  0  0  0  0  1  0  0  0  0  0  0
  186.8800  176.1000  135.7750 C   0  0  0  0  0  2  0  0  0  0  0  0
  185.4160  177.4890  134.3460 C   0  0  0  0  0  1  0  0  0  0  0  0
  186.3620  176.3060  134.3660 C   0  0  0  0  0  2  0  0  0  0  0  0
  186.7670  178.8050  139.8040 C   0  0  0  0  0  2  0  0  0  0  0  0
  185.7700  178.0770  138.9030 C   0  0  0  0  0  2  0  0  0  0  0  0
  184.4070  178.7690  138.8730 C   0  0  2  0  0  3  0  0  0  0  0  0
  184.2510  179.6580  140.1030 C   0  0  0  0  0  1  0  0  0  0  0  0
  183.7210  176.4790  138.5100 O   0  0  0  0  0  1  0  0  0  0  0  0
  183.2490  177.7710  138.7520 C   0  0  2  0  0  3  0  0  0  0  0  0
  182.2580  178.1610  137.6930 C   0  0  0  0  0  0  0  0  0  0  0  0
  181.6340  177.2030  136.8280 N   0  0  0  0  0  2  0  0  0  0  0  0
  181.9760  179.3810  137.5530 O   0  0  0  0  0  0  0  0  0  0  0  0
  181.8510  175.7620  136.8890 C   0  0  2  0  0  3  0  0  0  0  0  0
  182.1660  175.2530  135.4940 C   0  0  0  0  0  1  0  0  0  0  0  0
  180.7000  175.1290  137.3670 O   0  0  0  0  0  0  0  0  0  0  0  0
  180.8610  173.7830  137.0360 C   0  0  0  0  0  1  0  0  0  0  0  0
  188.4490  176.9100  139.5850 C   0  0  0  0  0  2  0  0  0  0  0  0
  189.7590  176.5820  139.0410 N   0  0  0  0  0  2  0  0  0  0  0  0
  190.6730  176.4220  140.1630 C   0  0  0  0  0  2  0  0  0  0  0  0
  191.8650  177.1070  139.9120 O   0  0  0  0  0  0  0  0  0  0  0  0
  192.2300  177.6540  141.1420 C   0  0  0  0  0  2  0  0  0  0  0  0
  190.1400  178.4370  143.8970 N   0  0  0  0  0  2  0  0  0  0  0  0
  190.6770  177.2430  144.5330 C   0  0  2  0  0  3  0  0  0  0  0  0
  191.3090  176.1650  143.2310 S   0  0  0  0  0  0  0  0  0  0  0  0
  190.9760  178.7360  142.8690 O   0  0  0  0  0  0  0  0  0  0  0  0
  191.0630  177.5640  142.1090 C   0  0  1  0  0  3  0  0  0  0  0  0
  189.6130  176.5350  145.3750 C   0  0  2  0  0  3  0  0  0  0  0  0
  187.8480  177.0790  143.2140 O   0  0  0  0  0  0  0  0  0  0  0  0
  188.4060  177.3500  145.4620 N   0  0  0  0  0  2  0  0  0  0  0  0
  187.5260  177.5270  144.3490 C   0  0  0  0  0  0  0  0  0  0  0  0
  186.2080  178.2160  144.5560 C   0  0  2  0  0  3  0  0  0  0  0  0
  185.2300  179.3970  146.5130 C   0  0  0  0  0  1  0  0  0  0  0  0
  185.7810  178.0740  146.0080 C   0  0  0  0  0  2  0  0  0  0  0  0
  185.1260  177.6520  143.6340 C   0  0  0  0  0  2  0  0  0  0  0  0
  184.2360  178.7560  143.0750 C   0  0  0  0  0  2  0  0  0  0  0  0
  182.6680  180.2760  144.0480 O   0  0  0  0  0  1  0  0  0  0  0  0
  182.9710  178.9210  143.9010 C   0  0  0  0  0  2  0  0  0  0  0  0
  189.4430  176.9280  147.7530 O   0  0  0  0  0  1  0  0  0  0  0  0
  190.1430  176.2130  146.7790 C   0  0  2  0  0  3  0  0  0  0  0  0
  192.0020  177.0270  148.2860 C   0  0  0  0  0  1  0  0  0  0  0  0
  191.6420  176.4720  146.9160 C   0  0  0  0  0  2  0  0  0  0  0  0
  1  2  1  6  0  0  0
  1 41  1  0  0  0  0
  1 28  1  0  0  0  0
  3  2  1  0  0  0  0
  4  3  1  0  0  0  0
  5 20  1  0  0  0  0
  6  7  1  0  0  0  0
  7 14  1  0  0  0  0
  8 13  1  0  0  0  0
  9  4  1  0  0  0  0
 10  5  2  0  0  0  0
 11 17  1  0  0  0  0
 12 23  1  0  0  0  0
 12 19  1  0  0  0  0
 13 25  1  0  0  0  0
 13  9  2  0  0  0  0
 14  8  1  0  0  0  0
 14 20  2  0  0  0  0
 15  8  1  0  0  0  0
 15 19  1  0  0  0  0
 16 12  2  0  0  0  0
 17  7  2  0  0  0  0
 17 10  1  0  0  0  0
 18 16  1  0  0  0  0
 18 15  2  0  0  0  0
 20  9  1  0  0  0  0
 23 21  1  0  0  0  0
 23 22  1  0  0  0  0
 24 23  1  0  0  0  0
 26 27  1  0  0  0  0
 27 25  1  0  0  0  0
 29 28  1  0  0  0  0
 30 29  1  0  0  0  0
 30 31  1  1  0  0  0
 33 32  1  6  0  0  0
 33 30  1  0  0  0  0
 34 33  1  0  0  0  0
 35 37  1  0  0  0  0
 35 34  1  0  0  0  0
 36 34  2  0  0  0  0
 37 38  1  6  0  0  0
 37 39  1  0  0  0  0
 40 39  1  0  0  0  0
 42 41  1  0  0  0  0
 42 43  1  0  0  0  0
 44 43  1  0  0  0  0
 44 45  1  0  0  0  0
 46 47  1  0  0  0  0
 47 51  1  6  0  0  0
 48 47  1  0  0  0  0
 49 46  1  0  0  0  0
 50 45  1  6  0  0  0
 50 49  1  0  0  0  0
 50 48  1  0  0  0  0
 51 53  1  1  0  0  0
 51 63  1  0  0  0  0
 52 54  2  0  0  0  0
 54 55  1  0  0  0  0
 54 53  1  0  0  0  0
 55 58  1  6  0  0  0
 55 57  1  0  0  0  0
 57 56  1  0  0  0  0
 59 58  1  0  0  0  0
 59 61  1  0  0  0  0
 61 60  1  0  0  0  0
 63 65  1  0  0  0  0
 63 62  1  1  0  0  0
 65 64  1  0  0  0  0
M  END
>  <MODEL>
9

>  <REMARK>
 VINA RESULT:      -3.3      2.455      7.660
  Name = 
  29 active torsions:
  status: ('A' for Active; 'I' for Inactive)
    1  A    between atoms: N_1  and  C_23
    2  A    between atoms: N_1  and  C_41
    3  A    between atoms: C_2  and  N_15
    4  A    between atoms: C_2  and  O_25
    5  A    between atoms: C_4  and  C_60
    6  A    between atoms: C_5  and  C_6
    7  A    between atoms: C_5  and  C_12
    8  A    between atoms: C_5  and  C_23
    9  A    between atoms: C_6  and  C_14
   10  A    between atoms: C_11  and  C_49
   11  A    between atoms: C_12  and  C_40
   12  A    between atoms: C_14  and  C_43
   13  A    between atoms: C_19  and  C_21
   14  A    between atoms: C_19  and  C_58
   15  A    between atoms: C_21  and  C_26
   16  A    between atoms: N_22  and  C_49
   17  A    between atoms: C_27  and  C_43
   18  A    between atoms: C_29  and  C_40
   19  A    between atoms: C_29  and  C_60
   20  A    between atoms: C_33  and  C_47
   21  A    between atoms: C_36  and  C_56
   22  A    between atoms: C_37  and  O_46
   23  A    between atoms: C_37  and  C_65
   24  A    between atoms: C_41  and  O_46
   25  A    between atoms: C_45  and  C_56
   26  A    between atoms: C_49  and  C_52
   27  A    between atoms: C_52  and  C_64
   28  A    between atoms: C_58  and  C_61
   29  A    between atoms: C_58  and  C_62
                            x       y       z     vdW  Elec       q    Type
                         _______ _______ _______ _____ _____    ______ ____

>  <TORSDO>
F 29

$$$$
