=
 OpenBabel10232407593D

 44 49  0  0  1  0  0  0  0  0999 V2000
  188.2020  177.8020  142.0060 C   0  0  0  0  0  0  0  0  0  0  0  0
  188.4040  177.9410  144.4220 C   0  0  0  0  0  0  0  0  0  0  0  0
  187.8590  178.0230  137.1190 C   0  0  1  0  0  3  0  0  0  0  0  0
  187.4210  177.8290  140.9190 C   0  0  0  0  0  3  0  0  0  0  0  0
  190.3490  177.6250  143.0510 N   0  0  0  0  0  0  0  0  0  0  0  0
  189.8570  177.4520  135.7480 C   0  0  0  0  0  3  0  0  0  0  0  0
  189.1720  177.6300  134.6130 C   0  0  0  0  0  3  0  0  0  0  0  0
  189.1310  177.1590  137.0410 C   0  0  1  0  0  3  0  0  0  0  0  0
  187.6240  177.9560  143.2640 C   0  0  0  0  0  3  0  0  0  0  0  0
  187.7360  177.6550  134.6290 N   0  0  0  0  0  2  0  0  0  0  0  0
  187.0380  177.7820  135.8730 C   0  0  0  0  0  0  0  0  0  0  0  0
  185.9140  177.9260  138.5460 O   0  0  0  0  0  0  0  0  0  0  0  0
  185.7800  177.7630  135.8890 O   0  0  0  0  0  0  0  0  0  0  0  0
  193.6740  176.7970  139.4770 C   0  0  0  0  0  1  0  0  0  0  0  0
  189.8040  177.7680  144.2900 C   0  0  0  0  0  0  0  0  0  0  0  0
  189.9980  177.2310  138.2970 C   0  0  0  0  0  0  0  0  0  0  0  0
  189.6050  177.6340  141.9120 C   0  0  0  0  0  0  0  0  0  0  0  0
  187.9840  177.6880  139.6070 N   0  0  0  0  0  0  0  0  0  0  0  0
  190.2080  177.4690  140.7190 C   0  0  0  0  0  0  0  0  0  0  0  0
  187.1680  177.8360  138.4390 C   0  0  0  0  0  0  0  0  0  0  0  0
  191.4060  176.8670  138.2910 N   0  0  0  0  0  0  0  0  0  0  0  0
  189.4020  177.4720  139.4850 C   0  0  0  0  0  0  0  0  0  0  0  0
  191.6230  177.2740  140.6280 N   0  0  0  0  0  0  0  0  0  0  0  0
  192.1950  177.0030  139.4960 C   0  0  0  0  0  0  0  0  0  0  0  0
  191.0030  176.4700  145.8550 O   0  0  0  0  0  1  0  0  0  0  0  0
  190.7340  177.7800  145.4550 C   0  0  0  0  0  2  0  0  0  0  0  0
  192.0050  176.1600  137.1620 C   0  0  0  0  0  2  0  0  0  0  0  0
  191.9290  174.6620  137.3830 C   0  0  0  0  0  2  0  0  0  0  0  0
  192.6700  173.9590  136.2670 C   0  0  0  0  0  2  0  0  0  0  0  0
  193.8210  173.1600  136.8470 C   0  0  0  0  0  2  0  0  0  0  0  0
  195.4040  171.9360  138.5380 O   0  0  0  0  0  1  0  0  0  0  0  0
  197.4720  172.9740  137.6140 O   0  0  0  0  0  1  0  0  0  0  0  0
  195.4140  173.2670  138.8220 N   0  0  0  0  0  0  0  0  0  0  0  0
  196.6040  173.8910  138.2220 C   0  0  2  0  0  0  0  0  0  0  0  0
  194.5930  174.0190  137.8520 C   0  0  1  0  0  3  0  0  0  0  0  0
  195.7990  174.6590  137.1940 C   0  0  0  0  0  2  0  0  0  0  0  0
  196.8970  174.9230  140.3660 O   0  0  0  0  0  1  0  0  0  0  0  0
  197.3260  174.7820  139.1880 C   0  0  0  0  0  0  0  0  0  0  0  0
  198.5140  175.4000  138.8130 O   0  0  0  0  0  0  0  0  0  0  0  0
  187.7250  178.1120  145.6760 N   0  0  0  0  0  2  0  0  0  0  0  0
  186.4100  177.5960  146.0230 C   0  0  0  0  0  2  0  0  0  0  0  0
  185.4590  178.7270  146.2090 C   0  0  0  0  0  0  0  0  0  0  0  0
  184.3140  178.9010  145.2720 C   0  0  0  0  0  1  0  0  0  0  0  0
  185.5960  179.4900  147.1490 O   0  0  0  0  0  0  0  0  0  0  0  0
  1  9  1  0  0  0  0
  2 40  1  0  0  0  0
  3 11  1  6  0  0  0
  3 20  1  0  0  0  0
  4  1  2  0  0  0  0
  5 15  2  0  0  0  0
  7 10  1  0  0  0  0
  7  6  2  0  0  0  0
  8  6  1  6  0  0  0
  8  3  1  0  0  0  0
  8 16  1  0  0  0  0
  9  2  2  0  0  0  0
 10 11  1  0  0  0  0
 11 13  2  0  0  0  0
 14 24  1  0  0  0  0
 15  2  1  0  0  0  0
 15 26  1  0  0  0  0
 16 22  2  0  0  0  0
 17  1  1  0  0  0  0
 17  5  1  0  0  0  0
 18  4  1  0  0  0  0
 19 17  2  0  0  0  0
 20 12  2  0  0  0  0
 20 18  1  0  0  0  0
 21 16  1  0  0  0  0
 21 24  1  0  0  0  0
 22 18  1  0  0  0  0
 22 19  1  0  0  0  0
 23 19  1  0  0  0  0
 24 23  2  0  0  0  0
 26 25  1  0  0  0  0
 27 28  1  0  0  0  0
 27 21  1  0  0  0  0
 29 30  1  0  0  0  0
 29 28  1  0  0  0  0
 31 33  1  0  0  0  0
 34 32  1  6  0  0  0
 34 33  1  0  0  0  0
 34 38  1  0  0  0  0
 35 30  1  6  0  0  0
 35 33  1  0  0  0  0
 36 35  1  0  0  0  0
 36 34  1  0  0  0  0
 38 37  1  0  0  0  0
 39 38  2  0  0  0  0
 40 41  1  0  0  0  0
 41 42  1  0  0  0  0
 42 44  2  0  0  0  0
 43 42  1  0  0  0  0
M  END
>  <MODEL>
1

>  <REMARK>
 VINA RESULT:      -8.3      0.000      0.000
  Name = 
  10 active torsions:
  status: ('A' for Active; 'I' for Inactive)
    1  A    between atoms: C_2  and  N_32
    2  A    between atoms: C_5  and  C_11
    3  A    between atoms: C_5  and  N_36
    4  A    between atoms: C_6  and  C_15
    5  A    between atoms: C_6  and  N_32
    6  A    between atoms: C_11  and  C_24
    7  A    between atoms: C_24  and  C_40
    8  A    between atoms: CA_25  and  C_43
    9  A    between atoms: C_26  and  C_37
   10  A    between atoms: C_35  and  C_40
                            x       y       z     vdW  Elec       q    Type
                         _______ _______ _______ _____ _____    ______ ____

>  <TORSDO>
F 10

$$$$
=
 OpenBabel10232407593D

 44 49  0  0  1  0  0  0  0  0999 V2000
  187.2300  177.9920  143.6670 C   0  0  0  0  0  0  0  0  0  0  0  0
  189.5630  177.6650  144.2560 C   0  0  0  0  0  0  0  0  0  0  0  0
  182.6010  179.1470  142.5350 C   0  0  1  0  0  3  0  0  0  0  0  0
  185.9550  178.1000  144.0590 C   0  0  0  0  0  3  0  0  0  0  0  0
  188.9170  177.9930  141.9680 N   0  0  0  0  0  0  0  0  0  0  0  0
  181.9390  179.2400  140.1360 C   0  0  0  0  0  3  0  0  0  0  0  0
  180.6720  179.5220  140.4620 C   0  0  0  0  0  3  0  0  0  0  0  0
  182.8500  178.5620  141.1320 C   0  0  1  0  0  3  0  0  0  0  0  0
  188.2210  177.7770  144.6220 C   0  0  0  0  0  3  0  0  0  0  0  0
  180.1950  179.2840  141.7950 N   0  0  0  0  0  2  0  0  0  0  0  0
  181.1280  179.0250  142.8500 C   0  0  0  0  0  0  0  0  0  0  0  0
  183.2430  178.4110  144.7410 O   0  0  0  0  0  0  0  0  0  0  0  0
  180.7070  178.7770  144.0100 O   0  0  0  0  0  0  0  0  0  0  0  0
  186.6300  178.5300  137.6090 C   0  0  0  0  0  1  0  0  0  0  0  0
  189.9000  177.7770  142.8840 C   0  0  0  0  0  0  0  0  0  0  0  0
  184.3250  178.5280  140.7370 C   0  0  0  0  0  0  0  0  0  0  0  0
  187.6030  178.1020  142.3060 C   0  0  0  0  0  0  0  0  0  0  0  0
  184.9100  178.3360  143.1040 N   0  0  0  0  0  0  0  0  0  0  0  0
  186.6810  178.2970  141.3440 C   0  0  0  0  0  0  0  0  0  0  0  0
  183.5640  178.5720  143.5320 C   0  0  0  0  0  0  0  0  0  0  0  0
  184.7570  178.4340  139.3510 N   0  0  0  0  0  0  0  0  0  0  0  0
  185.2570  178.4090  141.7080 C   0  0  0  0  0  0  0  0  0  0  0  0
  187.0570  178.3830  139.9660 N   0  0  0  0  0  0  0  0  0  0  0  0
  186.1660  178.4580  139.0270 C   0  0  0  0  0  0  0  0  0  0  0  0
  191.3100  177.3580  141.0390 O   0  0  0  0  0  1  0  0  0  0  0  0
  191.3040  177.7160  142.3880 C   0  0  0  0  0  2  0  0  0  0  0  0
  183.8180  178.0930  138.2840 C   0  0  0  0  0  2  0  0  0  0  0  0
  183.6710  176.5890  138.1780 C   0  0  0  0  0  2  0  0  0  0  0  0
  183.4940  176.2100  136.7230 C   0  0  0  0  0  2  0  0  0  0  0  0
  184.3340  174.9870  136.4110 C   0  0  0  0  0  2  0  0  0  0  0  0
  185.6690  172.8820  137.2180 O   0  0  0  0  0  1  0  0  0  0  0  0
  187.3680  173.0570  135.4030 O   0  0  0  0  0  1  0  0  0  0  0  0
  186.4400  173.9870  137.4170 N   0  0  0  0  0  0  0  0  0  0  0  0
  187.4010  174.1240  136.3110 C   0  0  2  0  0  0  0  0  0  0  0  0
  185.7640  175.1990  136.9120 C   0  0  1  0  0  3  0  0  0  0  0  0
  186.7220  175.3540  135.7480 C   0  0  0  0  0  2  0  0  0  0  0  0
  189.2470  175.5700  136.8110 O   0  0  0  0  0  0  0  0  0  0  0  0
  188.7930  174.3930  136.8000 C   0  0  0  0  0  0  0  0  0  0  0  0
  189.5660  173.3570  137.3130 O   0  0  0  0  0  1  0  0  0  0  0  0
  190.5170  177.4480  145.3070 N   0  0  0  0  0  2  0  0  0  0  0  0
  190.2280  176.9700  146.6510 C   0  0  0  0  0  2  0  0  0  0  0  0
  191.4980  176.6010  147.3370 C   0  0  0  0  0  0  0  0  0  0  0  0
  192.2620  175.4000  146.8970 C   0  0  0  0  0  1  0  0  0  0  0  0
  191.9320  177.3020  148.2340 O   0  0  0  0  0  0  0  0  0  0  0  0
  1  4  2  0  0  0  0
  1  9  1  0  0  0  0
  2  9  2  0  0  0  0
  2 40  1  0  0  0  0
  3 11  1  1  0  0  0
  3 20  1  0  0  0  0
  5 17  1  0  0  0  0
  5 15  2  0  0  0  0
  6  7  2  0  0  0  0
  7 10  1  0  0  0  0
  8  6  1  6  0  0  0
  8  3  1  0  0  0  0
 10 11  1  0  0  0  0
 11 13  2  0  0  0  0
 14 24  1  0  0  0  0
 15  2  1  0  0  0  0
 16  8  1  0  0  0  0
 16 22  2  0  0  0  0
 17  1  1  0  0  0  0
 18 20  1  0  0  0  0
 18  4  1  0  0  0  0
 19 22  1  0  0  0  0
 19 17  2  0  0  0  0
 20 12  2  0  0  0  0
 21 16  1  0  0  0  0
 22 18  1  0  0  0  0
 23 19  1  0  0  0  0
 24 21  1  0  0  0  0
 24 23  2  0  0  0  0
 25 26  1  0  0  0  0
 26 15  1  0  0  0  0
 27 21  1  0  0  0  0
 28 27  1  0  0  0  0
 29 28  1  0  0  0  0
 30 29  1  0  0  0  0
 31 33  1  0  0  0  0
 34 32  1  6  0  0  0
 34 38  1  0  0  0  0
 34 33  1  0  0  0  0
 35 30  1  6  0  0  0
 35 33  1  0  0  0  0
 36 34  1  0  0  0  0
 36 35  1  0  0  0  0
 38 37  2  0  0  0  0
 38 39  1  0  0  0  0
 40 41  1  0  0  0  0
 41 42  1  0  0  0  0
 42 44  2  0  0  0  0
 43 42  1  0  0  0  0
M  END
>  <MODEL>
2

>  <REMARK>
 VINA RESULT:      -8.3      4.189      7.242
  Name = 
  10 active torsions:
  status: ('A' for Active; 'I' for Inactive)
    1  A    between atoms: C_2  and  N_32
    2  A    between atoms: C_5  and  C_11
    3  A    between atoms: C_5  and  N_36
    4  A    between atoms: C_6  and  C_15
    5  A    between atoms: C_6  and  N_32
    6  A    between atoms: C_11  and  C_24
    7  A    between atoms: C_24  and  C_40
    8  A    between atoms: CA_25  and  C_43
    9  A    between atoms: C_26  and  C_37
   10  A    between atoms: C_35  and  C_40
                            x       y       z     vdW  Elec       q    Type
                         _______ _______ _______ _____ _____    ______ ____

>  <TORSDO>
F 10

$$$$
=
 OpenBabel10232407593D

 44 49  0  0  1  0  0  0  0  0999 V2000
  190.6290  176.9150  140.6310 C   0  0  0  0  0  0  0  0  0  0  0  0
  191.2010  176.9070  138.2710 C   0  0  0  0  0  0  0  0  0  0  0  0
  189.6840  177.3870  145.4200 C   0  0  1  0  0  3  0  0  0  0  0  0
  190.9720  176.6290  141.8930 C   0  0  0  0  0  3  0  0  0  0  0  0
  189.0990  177.7960  139.0130 N   0  0  0  0  0  0  0  0  0  0  0  0
  187.4040  178.0890  146.1300 C   0  0  0  0  0  3  0  0  0  0  0  0
  187.7370  177.9870  147.4220 C   0  0  0  0  0  3  0  0  0  0  0  0
  188.1840  177.3360  145.0780 C   0  0  1  0  0  3  0  0  0  0  0  0
  191.5180  176.6200  139.6000 C   0  0  0  0  0  3  0  0  0  0  0  0
  188.9060  177.2500  147.8130 N   0  0  0  0  0  2  0  0  0  0  0  0
  189.8730  176.8710  146.8280 C   0  0  0  0  0  0  0  0  0  0  0  0
  191.5820  176.1450  144.5960 O   0  0  0  0  0  0  0  0  0  0  0  0
  190.8770  176.1910  147.1660 O   0  0  0  0  0  0  0  0  0  0  0  0
  185.0150  179.1900  141.4420 C   0  0  0  0  0  1  0  0  0  0  0  0
  189.9510  177.5110  137.9910 C   0  0  0  0  0  0  0  0  0  0  0  0
  187.8700  177.7330  143.6360 C   0  0  0  0  0  0  0  0  0  0  0  0
  189.3890  177.5210  140.3140 C   0  0  0  0  0  0  0  0  0  0  0  0
  190.0870  176.9330  142.9810 N   0  0  0  0  0  0  0  0  0  0  0  0
  188.4910  177.8130  141.2740 C   0  0  0  0  0  0  0  0  0  0  0  0
  190.5000  176.7400  144.3380 C   0  0  0  0  0  0  0  0  0  0  0  0
  186.5470  178.1690  143.2200 N   0  0  0  0  0  0  0  0  0  0  0  0
  188.8010  177.5090  142.6830 C   0  0  0  0  0  0  0  0  0  0  0  0
  187.2280  178.4030  140.9500 N   0  0  0  0  0  0  0  0  0  0  0  0
  186.3160  178.5840  141.8540 C   0  0  0  0  0  0  0  0  0  0  0  0
  188.2010  178.3270  136.6330 O   0  0  0  0  0  1  0  0  0  0  0  0
  189.5300  177.9000  136.6140 C   0  0  0  0  0  2  0  0  0  0  0  0
  185.3820  177.9940  144.0850 C   0  0  0  0  0  2  0  0  0  0  0  0
  184.5830  179.2810  144.1510 C   0  0  0  0  0  2  0  0  0  0  0  0
  183.1680  178.9630  144.5870 C   0  0  0  0  0  2  0  0  0  0  0  0
  182.1860  179.6680  143.6720 C   0  0  0  0  0  2  0  0  0  0  0  0
  180.0470  180.4490  142.3760 O   0  0  0  0  0  1  0  0  0  0  0  0
  181.0880  180.1370  140.1330 O   0  0  0  0  0  1  0  0  0  0  0  0
  180.2360  179.1220  142.1390 N   0  0  0  0  0  0  0  0  0  0  0  0
  180.9080  178.9420  140.8420 C   0  0  2  0  0  0  0  0  0  0  0  0
  181.4720  178.6410  142.7890 C   0  0  1  0  0  3  0  0  0  0  0  0
  182.2020  178.4690  141.4710 C   0  0  0  0  0  2  0  0  0  0  0  0
  179.9830  178.1190  138.7890 O   0  0  0  0  0  0  0  0  0  0  0  0
  180.2460  177.8910  140.0010 C   0  0  0  0  0  0  0  0  0  0  0  0
  179.9830  176.6340  140.5340 O   0  0  0  0  0  1  0  0  0  0  0  0
  192.1790  176.5730  137.2740 N   0  0  0  0  0  2  0  0  0  0  0  0
  193.3300  175.7010  137.4510 C   0  0  0  0  0  2  0  0  0  0  0  0
  194.1890  175.7490  136.2340 C   0  0  0  0  0  0  0  0  0  0  0  0
  194.4830  174.4990  135.4790 C   0  0  0  0  0  1  0  0  0  0  0  0
  194.6220  176.8160  135.8350 O   0  0  0  0  0  0  0  0  0  0  0  0
  1  4  2  0  0  0  0
  2  9  2  0  0  0  0
  3 20  1  6  0  0  0
  3 11  1  0  0  0  0
  4 18  1  0  0  0  0
  5 17  1  0  0  0  0
  6  7  2  0  0  0  0
  7 10  1  0  0  0  0
  8  3  1  0  0  0  0
  8  6  1  1  0  0  0
  9  1  1  0  0  0  0
 11 13  2  0  0  0  0
 11 10  1  0  0  0  0
 14 24  1  0  0  0  0
 15  2  1  0  0  0  0
 15  5  2  0  0  0  0
 16  8  1  0  0  0  0
 17  1  1  0  0  0  0
 17 19  2  0  0  0  0
 18 20  1  0  0  0  0
 19 22  1  0  0  0  0
 20 12  2  0  0  0  0
 21 16  1  0  0  0  0
 21 27  1  0  0  0  0
 22 18  1  0  0  0  0
 22 16  2  0  0  0  0
 23 19  1  0  0  0  0
 23 24  2  0  0  0  0
 24 21  1  0  0  0  0
 26 25  1  0  0  0  0
 26 15  1  0  0  0  0
 27 28  1  0  0  0  0
 28 29  1  0  0  0  0
 30 29  1  0  0  0  0
 33 31  1  0  0  0  0
 33 35  1  0  0  0  0
 34 32  1  6  0  0  0
 34 36  1  0  0  0  0
 34 33  1  0  0  0  0
 35 30  1  1  0  0  0
 36 35  1  0  0  0  0
 37 38  2  0  0  0  0
 38 39  1  0  0  0  0
 38 34  1  0  0  0  0
 40 41  1  0  0  0  0
 40  2  1  0  0  0  0
 42 41  1  0  0  0  0
 43 42  1  0  0  0  0
 44 42  2  0  0  0  0
M  END
>  <MODEL>
3

>  <REMARK>
 VINA RESULT:      -8.3      3.212     11.328
  Name = 
  10 active torsions:
  status: ('A' for Active; 'I' for Inactive)
    1  A    between atoms: C_2  and  N_32
    2  A    between atoms: C_5  and  C_11
    3  A    between atoms: C_5  and  N_36
    4  A    between atoms: C_6  and  C_15
    5  A    between atoms: C_6  and  N_32
    6  A    between atoms: C_11  and  C_24
    7  A    between atoms: C_24  and  C_40
    8  A    between atoms: CA_25  and  C_43
    9  A    between atoms: C_26  and  C_37
   10  A    between atoms: C_35  and  C_40
                            x       y       z     vdW  Elec       q    Type
                         _______ _______ _______ _____ _____    ______ ____

>  <TORSDO>
F 10

$$$$
=
 OpenBabel10232407593D

 44 49  0  0  1  0  0  0  0  0999 V2000
  187.4040  177.7590  143.6130 C   0  0  0  0  0  0  0  0  0  0  0  0
  189.4110  177.3450  144.9160 C   0  0  0  0  0  0  0  0  0  0  0  0
  183.4250  179.0890  141.0750 C   0  0  1  0  0  3  0  0  0  0  0  0
  186.0740  177.9060  143.5750 C   0  0  0  0  0  3  0  0  0  0  0  0
  189.5500  177.7270  142.5510 N   0  0  0  0  0  0  0  0  0  0  0  0
  183.5770  179.2380  138.5940 C   0  0  0  0  0  3  0  0  0  0  0  0
  182.2820  179.5580  138.4990 C   0  0  0  0  0  3  0  0  0  0  0  0
  184.0980  178.5150  139.8140 C   0  0  1  0  0  3  0  0  0  0  0  0
  188.0250  177.4970  144.8320 C   0  0  0  0  0  3  0  0  0  0  0  0
  181.3930  179.3180  139.6010 N   0  0  0  0  0  2  0  0  0  0  0  0
  181.9260  179.0120  140.8940 C   0  0  0  0  0  0  0  0  0  0  0  0
  183.2970  178.2990  143.3520 O   0  0  0  0  0  0  0  0  0  0  0  0
  181.1450  178.7620  141.8490 O   0  0  0  0  0  0  0  0  0  0  0  0
  188.8120  178.4040  137.7020 C   0  0  0  0  0  1  0  0  0  0  0  0
  190.1760  177.4650  143.7300 C   0  0  0  0  0  0  0  0  0  0  0  0
  185.6200  178.4360  139.9160 C   0  0  0  0  0  0  0  0  0  0  0  0
  188.2010  177.8760  142.4490 C   0  0  0  0  0  0  0  0  0  0  0  0
  185.4020  178.1910  142.3390 N   0  0  0  0  0  0  0  0  0  0  0  0
  187.6450  178.1160  141.2460 C   0  0  0  0  0  0  0  0  0  0  0  0
  183.9970  178.4670  142.3160 C   0  0  0  0  0  0  0  0  0  0  0  0
  186.4740  178.3470  138.7420 N   0  0  0  0  0  0  0  0  0  0  0  0
  186.1840  178.2710  141.1330 C   0  0  0  0  0  0  0  0  0  0  0  0
  188.4490  178.2080  140.0660 N   0  0  0  0  0  0  0  0  0  0  0  0
  187.9130  178.3280  138.8910 C   0  0  0  0  0  0  0  0  0  0  0  0
  192.1150  177.3090  142.3940 O   0  0  0  0  0  1  0  0  0  0  0  0
  191.6630  177.3630  143.7130 C   0  0  0  0  0  2  0  0  0  0  0  0
  185.9230  178.0540  137.4210 C   0  0  0  0  0  2  0  0  0  0  0  0
  185.8100  176.5550  137.2220 C   0  0  0  0  0  2  0  0  0  0  0  0
  185.9580  176.2390  135.7490 C   0  0  0  0  0  2  0  0  0  0  0  0
  186.6980  174.9250  135.5850 C   0  0  0  0  0  2  0  0  0  0  0  0
  187.6830  172.6070  136.3030 O   0  0  0  0  0  1  0  0  0  0  0  0
  189.8060  172.9280  135.0380 O   0  0  0  0  0  1  0  0  0  0  0  0
  188.4210  173.5900  136.8880 N   0  0  0  0  0  0  0  0  0  0  0  0
  189.6440  173.8230  136.1040 C   0  0  2  0  0  0  0  0  0  0  0  0
  187.9530  174.9240  136.4600 C   0  0  1  0  0  3  0  0  0  0  0  0
  189.1900  175.1850  135.6220 C   0  0  0  0  0  2  0  0  0  0  0  0
  191.9230  173.2860  136.6200 O   0  0  0  0  0  0  0  0  0  0  0  0
  190.8680  173.8840  136.9680 C   0  0  0  0  0  0  0  0  0  0  0  0
  190.8700  174.6600  138.1220 O   0  0  0  0  0  1  0  0  0  0  0  0
  189.9670  177.0810  146.2140 N   0  0  0  0  0  2  0  0  0  0  0  0
  189.2310  176.6780  147.4030 C   0  0  0  0  0  2  0  0  0  0  0  0
  188.9000  177.8790  148.2200 C   0  0  0  0  0  0  0  0  0  0  0  0
  187.5010  178.3890  148.2650 C   0  0  0  0  0  1  0  0  0  0  0  0
  189.7670  178.4240  148.8820 O   0  0  0  0  0  0  0  0  0  0  0  0
  1  9  1  0  0  0  0
  2 40  1  0  0  0  0
  3 11  1  6  0  0  0
  3 20  1  0  0  0  0
  4  1  2  0  0  0  0
  5 15  2  0  0  0  0
  7  6  2  0  0  0  0
  7 10  1  0  0  0  0
  8  6  1  6  0  0  0
  8 16  1  0  0  0  0
  8  3  1  0  0  0  0
  9  2  2  0  0  0  0
 10 11  1  0  0  0  0
 11 13  2  0  0  0  0
 14 24  1  0  0  0  0
 15  2  1  0  0  0  0
 16 22  2  0  0  0  0
 17  5  1  0  0  0  0
 17  1  1  0  0  0  0
 18  4  1  0  0  0  0
 19 17  2  0  0  0  0
 20 18  1  0  0  0  0
 20 12  2  0  0  0  0
 21 24  1  0  0  0  0
 21 16  1  0  0  0  0
 22 19  1  0  0  0  0
 22 18  1  0  0  0  0
 23 19  1  0  0  0  0
 24 23  2  0  0  0  0
 25 26  1  0  0  0  0
 26 15  1  0  0  0  0
 27 21  1  0  0  0  0
 28 27  1  0  0  0  0
 29 28  1  0  0  0  0
 30 29  1  0  0  0  0
 31 33  1  0  0  0  0
 34 32  1  6  0  0  0
 34 33  1  0  0  0  0
 34 38  1  0  0  0  0
 35 30  1  6  0  0  0
 35 33  1  0  0  0  0
 36 34  1  0  0  0  0
 36 35  1  0  0  0  0
 37 38  2  0  0  0  0
 38 39  1  0  0  0  0
 40 41  1  0  0  0  0
 41 42  1  0  0  0  0
 42 43  1  0  0  0  0
 42 44  2  0  0  0  0
M  END
>  <MODEL>
4

>  <REMARK>
 VINA RESULT:      -8.2      3.610      5.533
  Name = 
  10 active torsions:
  status: ('A' for Active; 'I' for Inactive)
    1  A    between atoms: C_2  and  N_32
    2  A    between atoms: C_5  and  C_11
    3  A    between atoms: C_5  and  N_36
    4  A    between atoms: C_6  and  C_15
    5  A    between atoms: C_6  and  N_32
    6  A    between atoms: C_11  and  C_24
    7  A    between atoms: C_24  and  C_40
    8  A    between atoms: CA_25  and  C_43
    9  A    between atoms: C_26  and  C_37
   10  A    between atoms: C_35  and  C_40
                            x       y       z     vdW  Elec       q    Type
                         _______ _______ _______ _____ _____    ______ ____

>  <TORSDO>
F 10

$$$$
=
 OpenBabel10232407593D

 44 49  0  0  1  0  0  0  0  0999 V2000
  188.3600  177.9460  143.3850 C   0  0  0  0  0  0  0  0  0  0  0  0
  188.4630  177.9150  145.8100 C   0  0  0  0  0  0  0  0  0  0  0  0
  188.1040  177.5050  138.5070 C   0  0  1  0  0  3  0  0  0  0  0  0
  189.0010  177.8910  142.2110 C   0  0  0  0  0  3  0  0  0  0  0  0
  186.3530  178.1070  144.6820 N   0  0  0  0  0  0  0  0  0  0  0  0
  185.9320  177.9500  137.3740 C   0  0  0  0  0  3  0  0  0  0  0  0
  186.4770  177.7390  136.1700 C   0  0  0  0  0  3  0  0  0  0  0  0
  186.8010  178.3250  138.5510 C   0  0  1  0  0  3  0  0  0  0  0  0
  189.0930  177.8690  144.5660 C   0  0  0  0  0  3  0  0  0  0  0  0
  187.9040  177.7580  136.0070 N   0  0  0  0  0  2  0  0  0  0  0  0
  188.7540  177.7110  137.1580 C   0  0  0  0  0  0  0  0  0  0  0  0
  190.2050  177.7270  139.6740 O   0  0  0  0  0  0  0  0  0  0  0  0
  190.0030  177.7680  137.0160 O   0  0  0  0  0  0  0  0  0  0  0  0
  182.5850  178.6660  141.5190 C   0  0  0  0  0  1  0  0  0  0  0  0
  187.0520  178.0400  145.8480 C   0  0  0  0  0  0  0  0  0  0  0  0
  186.1000  178.2870  139.9080 C   0  0  0  0  0  0  0  0  0  0  0  0
  186.9510  178.0670  143.4600 C   0  0  0  0  0  0  0  0  0  0  0  0
  188.2750  177.9530  140.9740 N   0  0  0  0  0  0  0  0  0  0  0  0
  186.1990  178.1570  142.3460 C   0  0  0  0  0  0  0  0  0  0  0  0
  188.9450  177.7740  139.7210 C   0  0  0  0  0  0  0  0  0  0  0  0
  184.6890  178.6080  140.0630 N   0  0  0  0  0  0  0  0  0  0  0  0
  186.8460  178.1200  141.0220 C   0  0  0  0  0  0  0  0  0  0  0  0
  184.7780  178.3060  142.4240 N   0  0  0  0  0  0  0  0  0  0  0  0
  184.0610  178.5050  141.3620 C   0  0  0  0  0  0  0  0  0  0  0  0
  185.1090  178.8040  146.9480 O   0  0  0  0  0  1  0  0  0  0  0  0
  186.2740  178.0550  147.1190 C   0  0  0  0  0  2  0  0  0  0  0  0
  183.9310  179.2430  138.9880 C   0  0  0  0  0  2  0  0  0  0  0  0
  182.6670  178.4560  138.7050 C   0  0  0  0  0  2  0  0  0  0  0  0
  182.4770  178.3460  137.2070 C   0  0  0  0  0  2  0  0  0  0  0  0
  182.0040  176.9490  136.8570 C   0  0  0  0  0  2  0  0  0  0  0  0
  181.1720  174.7700  138.0520 O   0  0  0  0  0  1  0  0  0  0  0  0
  181.9340  173.2710  136.2140 O   0  0  0  0  0  1  0  0  0  0  0  0
  182.5320  174.7500  138.0120 N   0  0  0  0  0  0  0  0  0  0  0  0
  182.9820  173.9140  136.8870 C   0  0  2  0  0  0  0  0  0  0  0  0
  183.0560  175.9230  137.2840 C   0  0  1  0  0  3  0  0  0  0  0  0
  183.5070  175.0950  136.0970 C   0  0  0  0  0  2  0  0  0  0  0  0
  183.8820  171.7090  137.1580 O   0  0  0  0  0  0  0  0  0  0  0  0
  184.0580  172.9510  137.2900 C   0  0  0  0  0  0  0  0  0  0  0  0
  185.2840  173.4240  137.7440 O   0  0  0  0  0  1  0  0  0  0  0  0
  189.2970  177.8250  146.9760 N   0  0  0  0  0  2  0  0  0  0  0  0
  189.8810  176.6120  147.5280 C   0  0  0  0  0  2  0  0  0  0  0  0
  191.3490  176.6000  147.2770 C   0  0  0  0  0  0  0  0  0  0  0  0
  191.8790  176.1200  145.9700 C   0  0  0  0  0  1  0  0  0  0  0  0
  192.1160  177.0190  148.1260 O   0  0  0  0  0  0  0  0  0  0  0  0
  1 17  1  0  0  0  0
  1  9  1  0  0  0  0
  2 15  1  0  0  0  0
  2 40  1  0  0  0  0
  3 11  1  6  0  0  0
  3  8  1  0  0  0  0
  3 20  1  0  0  0  0
  4  1  2  0  0  0  0
  5 15  2  0  0  0  0
  7  6  2  0  0  0  0
  8  6  1  6  0  0  0
  8 16  1  0  0  0  0
  9  2  2  0  0  0  0
 10  7  1  0  0  0  0
 10 11  1  0  0  0  0
 12 20  2  0  0  0  0
 13 11  2  0  0  0  0
 15 26  1  0  0  0  0
 16 21  1  0  0  0  0
 16 22  2  0  0  0  0
 17  5  1  0  0  0  0
 18 22  1  0  0  0  0
 18  4  1  0  0  0  0
 19 23  1  0  0  0  0
 19 17  2  0  0  0  0
 20 18  1  0  0  0  0
 21 24  1  0  0  0  0
 22 19  1  0  0  0  0
 24 14  1  0  0  0  0
 24 23  2  0  0  0  0
 25 26  1  0  0  0  0
 27 21  1  0  0  0  0
 28 27  1  0  0  0  0
 29 28  1  0  0  0  0
 30 29  1  0  0  0  0
 33 31  1  0  0  0  0
 34 32  1  6  0  0  0
 34 38  1  0  0  0  0
 34 33  1  0  0  0  0
 35 30  1  6  0  0  0
 35 33  1  0  0  0  0
 36 34  1  0  0  0  0
 36 35  1  0  0  0  0
 37 38  2  0  0  0  0
 38 39  1  0  0  0  0
 40 41  1  0  0  0  0
 42 41  1  0  0  0  0
 42 44  2  0  0  0  0
 43 42  1  0  0  0  0
M  END
>  <MODEL>
5

>  <REMARK>
 VINA RESULT:      -8.1      4.466      8.040
  Name = 
  10 active torsions:
  status: ('A' for Active; 'I' for Inactive)
    1  A    between atoms: C_2  and  N_32
    2  A    between atoms: C_5  and  C_11
    3  A    between atoms: C_5  and  N_36
    4  A    between atoms: C_6  and  C_15
    5  A    between atoms: C_6  and  N_32
    6  A    between atoms: C_11  and  C_24
    7  A    between atoms: C_24  and  C_40
    8  A    between atoms: CA_25  and  C_43
    9  A    between atoms: C_26  and  C_37
   10  A    between atoms: C_35  and  C_40
                            x       y       z     vdW  Elec       q    Type
                         _______ _______ _______ _____ _____    ______ ____

>  <TORSDO>
F 10

$$$$
=
 OpenBabel10232407593D

 44 49  0  0  1  0  0  0  0  0999 V2000
  187.2130  178.0890  143.8060 C   0  0  0  0  0  0  0  0  0  0  0  0
  189.1550  177.8390  145.2410 C   0  0  0  0  0  0  0  0  0  0  0  0
  183.3350  179.0920  140.9760 C   0  0  1  0  0  3  0  0  0  0  0  0
  185.8820  178.1680  143.6840 C   0  0  0  0  0  3  0  0  0  0  0  0
  189.4170  178.1080  142.8700 N   0  0  0  0  0  0  0  0  0  0  0  0
  183.6290  179.1230  138.5040 C   0  0  0  0  0  3  0  0  0  0  0  0
  182.3280  179.3740  138.3180 C   0  0  0  0  0  3  0  0  0  0  0  0
  184.1080  178.4890  139.7890 C   0  0  1  0  0  3  0  0  0  0  0  0
  187.7720  177.9200  145.0700 C   0  0  0  0  0  3  0  0  0  0  0  0
  181.3870  179.1470  139.3780 N   0  0  0  0  0  2  0  0  0  0  0  0
  181.8550  178.9330  140.7150 C   0  0  0  0  0  0  0  0  0  0  0  0
  183.1090  178.4140  143.2810 O   0  0  0  0  0  0  0  0  0  0  0  0
  181.0310  178.6950  141.6360 O   0  0  0  0  0  0  0  0  0  0  0  0
  188.9400  178.5010  137.9580 C   0  0  0  0  0  1  0  0  0  0  0  0
  189.9840  177.9370  144.0960 C   0  0  0  0  0  0  0  0  0  0  0  0
  185.6240  178.4900  139.9810 C   0  0  0  0  0  0  0  0  0  0  0  0
  188.0720  178.1850  142.6840 C   0  0  0  0  0  0  0  0  0  0  0  0
  185.2730  178.3580  142.3980 N   0  0  0  0  0  0  0  0  0  0  0  0
  187.5780  178.3370  141.4400 C   0  0  0  0  0  0  0  0  0  0  0  0
  183.8610  178.5630  142.2790 C   0  0  0  0  0  0  0  0  0  0  0  0
  186.5490  178.3820  138.8640 N   0  0  0  0  0  0  0  0  0  0  0  0
  186.1200  178.4140  141.2350 C   0  0  0  0  0  0  0  0  0  0  0  0
  188.4460  178.4080  140.3040 N   0  0  0  0  0  0  0  0  0  0  0  0
  187.9760  178.4410  139.0970 C   0  0  0  0  0  0  0  0  0  0  0  0
  191.9720  179.2090  144.1070 O   0  0  0  0  0  1  0  0  0  0  0  0
  191.4730  177.9070  144.1690 C   0  0  0  0  0  2  0  0  0  0  0  0
  186.0920  177.9960  137.5320 C   0  0  0  0  0  2  0  0  0  0  0  0
  185.7820  176.5130  137.4950 C   0  0  0  0  0  2  0  0  0  0  0  0
  186.9010  175.7920  136.7730 C   0  0  0  0  0  2  0  0  0  0  0  0
  186.6230  174.3010  136.7690 C   0  0  0  0  0  2  0  0  0  0  0  0
  185.3540  173.2670  134.7240 O   0  0  0  0  0  1  0  0  0  0  0  0
  184.7810  171.1630  135.9300 O   0  0  0  0  0  1  0  0  0  0  0  0
  184.4490  173.5330  135.7060 N   0  0  0  0  0  0  0  0  0  0  0  0
  184.1590  172.3020  136.4580 C   0  0  2  0  0  0  0  0  0  0  0  0
  185.1200  174.0540  136.9140 C   0  0  1  0  0  3  0  0  0  0  0  0
  184.8610  172.7890  137.7090 C   0  0  0  0  0  2  0  0  0  0  0  0
  182.1980  170.9300  136.5990 O   0  0  0  0  0  0  0  0  0  0  0  0
  182.6870  172.0910  136.6540 C   0  0  0  0  0  0  0  0  0  0  0  0
  181.8640  173.1660  136.9710 O   0  0  0  0  0  1  0  0  0  0  0  0
  189.6440  177.6690  146.5810 N   0  0  0  0  0  2  0  0  0  0  0  0
  190.0210  176.4120  147.2100 C   0  0  0  0  0  2  0  0  0  0  0  0
  191.4870  176.4000  147.4710 C   0  0  0  0  0  0  0  0  0  0  0  0
  192.3570  175.3970  146.7950 C   0  0  0  0  0  1  0  0  0  0  0  0
  191.9820  177.2340  148.2100 O   0  0  0  0  0  0  0  0  0  0  0  0
  1  9  1  0  0  0  0
  2 40  1  0  0  0  0
  3 11  1  6  0  0  0
  3 20  1  0  0  0  0
  4  1  2  0  0  0  0
  5 15  2  0  0  0  0
  7  6  2  0  0  0  0
  7 10  1  0  0  0  0
  8  6  1  6  0  0  0
  8 16  1  0  0  0  0
  8  3  1  0  0  0  0
  9  2  2  0  0  0  0
 10 11  1  0  0  0  0
 11 13  2  0  0  0  0
 14 24  1  0  0  0  0
 15 26  1  0  0  0  0
 15  2  1  0  0  0  0
 16 22  2  0  0  0  0
 17  5  1  0  0  0  0
 17  1  1  0  0  0  0
 18  4  1  0  0  0  0
 19 17  2  0  0  0  0
 20 18  1  0  0  0  0
 20 12  2  0  0  0  0
 21 24  1  0  0  0  0
 21 16  1  0  0  0  0
 22 19  1  0  0  0  0
 22 18  1  0  0  0  0
 23 19  1  0  0  0  0
 24 23  2  0  0  0  0
 25 26  1  0  0  0  0
 27 21  1  0  0  0  0
 28 27  1  0  0  0  0
 29 28  1  0  0  0  0
 30 29  1  0  0  0  0
 31 33  1  0  0  0  0
 33 34  1  0  0  0  0
 33 35  1  0  0  0  0
 34 32  1  6  0  0  0
 34 38  1  0  0  0  0
 34 36  1  0  0  0  0
 35 30  1  6  0  0  0
 35 36  1  0  0  0  0
 37 38  2  0  0  0  0
 38 39  1  0  0  0  0
 40 41  1  0  0  0  0
 41 42  1  0  0  0  0
 42 44  2  0  0  0  0
 43 42  1  0  0  0  0
M  END
>  <MODEL>
6

>  <REMARK>
 VINA RESULT:      -8.1      4.905      7.548
  Name = 
  10 active torsions:
  status: ('A' for Active; 'I' for Inactive)
    1  A    between atoms: C_2  and  N_32
    2  A    between atoms: C_5  and  C_11
    3  A    between atoms: C_5  and  N_36
    4  A    between atoms: C_6  and  C_15
    5  A    between atoms: C_6  and  N_32
    6  A    between atoms: C_11  and  C_24
    7  A    between atoms: C_24  and  C_40
    8  A    between atoms: CA_25  and  C_43
    9  A    between atoms: C_26  and  C_37
   10  A    between atoms: C_35  and  C_40
                            x       y       z     vdW  Elec       q    Type
                         _______ _______ _______ _____ _____    ______ ____

>  <TORSDO>
F 10

$$$$
=
 OpenBabel10232407593D

 44 49  0  0  1  0  0  0  0  0999 V2000
  189.2000  177.3230  140.7810 C   0  0  0  0  0  0  0  0  0  0  0  0
  190.6400  177.0440  138.8460 C   0  0  0  0  0  0  0  0  0  0  0  0
  186.4950  178.3470  144.7410 C   0  0  1  0  0  3  0  0  0  0  0  0
  189.0190  177.1930  142.1010 C   0  0  0  0  0  3  0  0  0  0  0  0
  188.4450  177.9870  138.6080 N   0  0  0  0  0  0  0  0  0  0  0  0
  184.1420  179.0980  144.4260 C   0  0  0  0  0  3  0  0  0  0  0  0
  183.9470  179.1540  145.7490 C   0  0  0  0  0  3  0  0  0  0  0  0
  185.2420  178.2360  143.8520 C   0  0  1  0  0  3  0  0  0  0  0  0
  190.4080  176.9200  140.2170 C   0  0  0  0  0  3  0  0  0  0  0  0
  184.8480  178.4840  146.6440 N   0  0  0  0  0  2  0  0  0  0  0  0
  186.1070  178.0040  146.1610 C   0  0  0  0  0  0  0  0  0  0  0  0
  188.5200  177.0410  144.8650 O   0  0  0  0  0  0  0  0  0  0  0  0
  186.8780  177.3820  146.9370 O   0  0  0  0  0  0  0  0  0  0  0  0
  183.7900  179.6050  139.0860 C   0  0  0  0  0  1  0  0  0  0  0  0
  189.6160  177.5940  138.0350 C   0  0  0  0  0  0  0  0  0  0  0  0
  185.5240  178.4550  142.3670 C   0  0  0  0  0  0  0  0  0  0  0  0
  188.2010  177.8710  139.9420 C   0  0  0  0  0  0  0  0  0  0  0  0
  187.7930  177.6120  142.7180 N   0  0  0  0  0  0  0  0  0  0  0  0
  187.0120  178.2630  140.4380 C   0  0  0  0  0  0  0  0  0  0  0  0
  187.6430  177.5870  144.1420 C   0  0  0  0  0  0  0  0  0  0  0  0
  184.4800  178.8210  141.4230 N   0  0  0  0  0  0  0  0  0  0  0  0
  186.7430  178.1320  141.8820 C   0  0  0  0  0  0  0  0  0  0  0  0
  185.9930  178.7930  139.5840 N   0  0  0  0  0  0  0  0  0  0  0  0
  184.8090  179.0680  140.0370 C   0  0  0  0  0  0  0  0  0  0  0  0
  188.5640  177.5510  135.9230 O   0  0  0  0  0  1  0  0  0  0  0  0
  189.7740  177.8110  136.5690 C   0  0  0  0  0  2  0  0  0  0  0  0
  183.0660  178.7350  141.7820 C   0  0  0  0  0  2  0  0  0  0  0  0
  182.4390  177.5090  141.1490 C   0  0  0  0  0  2  0  0  0  0  0  0
  180.9870  177.8000  140.8380 C   0  0  0  0  0  2  0  0  0  0  0  0
  180.6280  177.2070  139.4890 C   0  0  0  0  0  2  0  0  0  0  0  0
  180.1640  174.6660  139.0530 O   0  0  0  0  0  1  0  0  0  0  0  0
  180.5530  174.8450  136.5980 O   0  0  0  0  0  1  0  0  0  0  0  0
  181.4810  174.9130  138.8140 N   0  0  0  0  0  0  0  0  0  0  0  0
  181.6990  175.0810  137.3690 C   0  0  2  0  0  0  0  0  0  0  0  0
  181.7860  176.3490  138.9760 C   0  0  1  0  0  3  0  0  0  0  0  0
  181.9920  176.5620  137.4900 C   0  0  0  0  0  2  0  0  0  0  0  0
  183.7330  173.8530  137.6890 O   0  0  0  0  0  1  0  0  0  0  0  0
  182.8730  174.2880  136.8760 C   0  0  0  0  0  0  0  0  0  0  0  0
  182.9800  173.9660  135.5280 O   0  0  0  0  0  0  0  0  0  0  0  0
  191.9150  176.6070  138.3510 N   0  0  0  0  0  2  0  0  0  0  0  0
  192.2050  175.3280  137.7200 C   0  0  0  0  0  2  0  0  0  0  0  0
  193.6800  175.1370  137.6250 C   0  0  0  0  0  0  0  0  0  0  0  0
  194.2490  174.2240  136.5950 C   0  0  0  0  0  1  0  0  0  0  0  0
  194.4240  175.7560  138.3650 O   0  0  0  0  0  0  0  0  0  0  0  0
  1  4  2  0  0  0  0
  2  9  2  0  0  0  0
  3 20  1  6  0  0  0
  3 11  1  0  0  0  0
  4 18  1  0  0  0  0
  5 17  1  0  0  0  0
  6  7  2  0  0  0  0
  7 10  1  0  0  0  0
  8  6  1  1  0  0  0
  8  3  1  0  0  0  0
  9  1  1  0  0  0  0
 11 10  1  0  0  0  0
 11 13  2  0  0  0  0
 14 24  1  0  0  0  0
 15  5  2  0  0  0  0
 15  2  1  0  0  0  0
 16  8  1  0  0  0  0
 17 19  2  0  0  0  0
 17  1  1  0  0  0  0
 18 20  1  0  0  0  0
 19 22  1  0  0  0  0
 20 12  2  0  0  0  0
 21 27  1  0  0  0  0
 21 16  1  0  0  0  0
 22 16  2  0  0  0  0
 22 18  1  0  0  0  0
 23 24  2  0  0  0  0
 23 19  1  0  0  0  0
 24 21  1  0  0  0  0
 25 26  1  0  0  0  0
 26 15  1  0  0  0  0
 28 27  1  0  0  0  0
 29 28  1  0  0  0  0
 30 29  1  0  0  0  0
 33 35  1  0  0  0  0
 33 31  1  0  0  0  0
 34 32  1  6  0  0  0
 34 36  1  0  0  0  0
 34 33  1  0  0  0  0
 35 30  1  6  0  0  0
 36 35  1  0  0  0  0
 38 34  1  0  0  0  0
 38 37  1  0  0  0  0
 39 38  2  0  0  0  0
 40  2  1  0  0  0  0
 41 40  1  0  0  0  0
 42 41  1  0  0  0  0
 42 44  2  0  0  0  0
 43 42  1  0  0  0  0
M  END
>  <MODEL>
7

>  <REMARK>
 VINA RESULT:      -8.1      3.498     10.399
  Name = 
  10 active torsions:
  status: ('A' for Active; 'I' for Inactive)
    1  A    between atoms: C_2  and  N_32
    2  A    between atoms: C_5  and  C_11
    3  A    between atoms: C_5  and  N_36
    4  A    between atoms: C_6  and  C_15
    5  A    between atoms: C_6  and  N_32
    6  A    between atoms: C_11  and  C_24
    7  A    between atoms: C_24  and  C_40
    8  A    between atoms: CA_25  and  C_43
    9  A    between atoms: C_26  and  C_37
   10  A    between atoms: C_35  and  C_40
                            x       y       z     vdW  Elec       q    Type
                         _______ _______ _______ _____ _____    ______ ____

>  <TORSDO>
F 10

$$$$
=
 OpenBabel10232407593D

 44 49  0  0  1  0  0  0  0  0999 V2000
  187.3060  178.1110  143.7500 C   0  0  0  0  0  0  0  0  0  0  0  0
  189.6700  177.8430  144.2320 C   0  0  0  0  0  0  0  0  0  0  0  0
  182.6050  179.1490  142.8130 C   0  0  1  0  0  3  0  0  0  0  0  0
  186.0490  178.2090  144.2010 C   0  0  0  0  0  3  0  0  0  0  0  0
  188.9070  178.0900  141.9700 N   0  0  0  0  0  0  0  0  0  0  0  0
  181.8250  179.1570  140.4490 C   0  0  0  0  0  3  0  0  0  0  0  0
  180.5700  179.4260  140.8270 C   0  0  0  0  0  3  0  0  0  0  0  0
  182.7970  178.5250  141.4180 C   0  0  1  0  0  3  0  0  0  0  0  0
  188.3450  177.9430  144.6610 C   0  0  0  0  0  3  0  0  0  0  0  0
  180.1640  179.2210  142.1890 N   0  0  0  0  0  2  0  0  0  0  0  0
  181.1520  179.0100  143.2050 C   0  0  0  0  0  0  0  0  0  0  0  0
  183.3690  178.4920  145.0070 O   0  0  0  0  0  0  0  0  0  0  0  0
  180.7930  178.7910  144.3910 O   0  0  0  0  0  0  0  0  0  0  0  0
  186.4000  178.4520  137.7160 C   0  0  0  0  0  1  0  0  0  0  0  0
  189.9370  177.9200  142.8430 C   0  0  0  0  0  0  0  0  0  0  0  0
  184.2520  178.5060  140.9520 C   0  0  0  0  0  0  0  0  0  0  0  0
  187.6100  178.1860  142.3690 C   0  0  0  0  0  0  0  0  0  0  0  0
  184.9550  178.3970  143.2920 N   0  0  0  0  0  0  0  0  0  0  0  0
  186.6380  178.3350  141.4490 C   0  0  0  0  0  0  0  0  0  0  0  0
  183.6270  178.6220  143.7790 C   0  0  0  0  0  0  0  0  0  0  0  0
  184.6170  178.3760  139.5500 N   0  0  0  0  0  0  0  0  0  0  0  0
  185.2310  178.4320  141.8790 C   0  0  0  0  0  0  0  0  0  0  0  0
  186.9450  178.3850  140.0520 N   0  0  0  0  0  0  0  0  0  0  0  0
  186.0080  178.4160  139.1560 C   0  0  0  0  0  0  0  0  0  0  0  0
  191.2830  177.2990  141.0060 O   0  0  0  0  0  1  0  0  0  0  0  0
  191.3170  177.8680  142.2800 C   0  0  0  0  0  2  0  0  0  0  0  0
  183.6340  177.9860  138.5410 C   0  0  0  0  0  2  0  0  0  0  0  0
  183.4090  176.4880  138.5820 C   0  0  0  0  0  2  0  0  0  0  0  0
  182.8240  176.0390  137.2590 C   0  0  0  0  0  2  0  0  0  0  0  0
  183.9340  175.8990  136.2360 C   0  0  0  0  0  2  0  0  0  0  0  0
  186.0740  174.4520  136.6750 O   0  0  0  0  0  1  0  0  0  0  0  0
  184.8670  172.7970  138.0950 O   0  0  0  0  0  1  0  0  0  0  0  0
  185.2130  173.7300  135.9070 N   0  0  0  0  0  0  0  0  0  0  0  0
  184.4550  172.7960  136.7560 C   0  0  2  0  0  0  0  0  0  0  0  0
  183.9550  174.4710  135.6860 C   0  0  1  0  0  3  0  0  0  0  0  0
  183.1500  173.5440  136.5750 C   0  0  0  0  0  2  0  0  0  0  0  0
  185.3640  171.0000  135.4530 O   0  0  0  0  0  0  0  0  0  0  0  0
  184.4220  171.4100  136.1860 C   0  0  0  0  0  0  0  0  0  0  0  0
  183.3890  170.5420  136.5210 O   0  0  0  0  0  1  0  0  0  0  0  0
  190.6780  177.6760  145.2410 N   0  0  0  0  0  2  0  0  0  0  0  0
  191.2880  176.4210  145.6540 C   0  0  0  0  0  2  0  0  0  0  0  0
  191.3370  176.3510  147.1410 C   0  0  0  0  0  0  0  0  0  0  0  0
  192.3000  175.4350  147.8130 C   0  0  0  0  0  1  0  0  0  0  0  0
  190.6150  177.0700  147.8100 O   0  0  0  0  0  0  0  0  0  0  0  0
  1  4  2  0  0  0  0
  1  9  1  0  0  0  0
  2  9  2  0  0  0  0
  2 40  1  0  0  0  0
  3 11  1  1  0  0  0
  3 20  1  0  0  0  0
  5 17  1  0  0  0  0
  5 15  2  0  0  0  0
  6  7  2  0  0  0  0
  7 10  1  0  0  0  0
  8  6  1  6  0  0  0
  8  3  1  0  0  0  0
 10 11  1  0  0  0  0
 11 13  2  0  0  0  0
 14 24  1  0  0  0  0
 15  2  1  0  0  0  0
 16  8  1  0  0  0  0
 16 22  2  0  0  0  0
 17  1  1  0  0  0  0
 18 20  1  0  0  0  0
 18  4  1  0  0  0  0
 19 22  1  0  0  0  0
 19 17  2  0  0  0  0
 20 12  2  0  0  0  0
 21 16  1  0  0  0  0
 22 18  1  0  0  0  0
 23 19  1  0  0  0  0
 24 21  1  0  0  0  0
 24 23  2  0  0  0  0
 25 26  1  0  0  0  0
 26 15  1  0  0  0  0
 27 28  1  0  0  0  0
 27 21  1  0  0  0  0
 29 28  1  0  0  0  0
 30 29  1  0  0  0  0
 33 31  1  0  0  0  0
 33 34  1  0  0  0  0
 34 32  1  1  0  0  0
 35 33  1  0  0  0  0
 35 30  1  1  0  0  0
 35 36  1  0  0  0  0
 36 34  1  0  0  0  0
 37 38  2  0  0  0  0
 38 39  1  0  0  0  0
 38 34  1  0  0  0  0
 40 41  1  0  0  0  0
 41 42  1  0  0  0  0
 42 44  2  0  0  0  0
 42 43  1  0  0  0  0
M  END
>  <MODEL>
8

>  <REMARK>
 VINA RESULT:      -7.9      4.575      8.299
  Name = 
  10 active torsions:
  status: ('A' for Active; 'I' for Inactive)
    1  A    between atoms: C_2  and  N_32
    2  A    between atoms: C_5  and  C_11
    3  A    between atoms: C_5  and  N_36
    4  A    between atoms: C_6  and  C_15
    5  A    between atoms: C_6  and  N_32
    6  A    between atoms: C_11  and  C_24
    7  A    between atoms: C_24  and  C_40
    8  A    between atoms: CA_25  and  C_43
    9  A    between atoms: C_26  and  C_37
   10  A    between atoms: C_35  and  C_40
                            x       y       z     vdW  Elec       q    Type
                         _______ _______ _______ _____ _____    ______ ____

>  <TORSDO>
F 10

$$$$
=
 OpenBabel10232407593D

 44 49  0  0  1  0  0  0  0  0999 V2000
  186.6360  176.9640  136.9450 C   0  0  0  0  0  0  0  0  0  0  0  0
  184.2730  177.3390  136.5300 C   0  0  0  0  0  0  0  0  0  0  0  0
  191.4900  176.6530  137.5650 C   0  0  1  0  0  3  0  0  0  0  0  0
  187.8090  176.4750  136.5240 C   0  0  0  0  0  3  0  0  0  0  0  0
  185.2900  178.1040  138.5650 N   0  0  0  0  0  0  0  0  0  0  0  0
  192.4580  177.2400  139.7840 C   0  0  0  0  0  3  0  0  0  0  0  0
  193.6900  176.9270  139.3670 C   0  0  0  0  0  3  0  0  0  0  0  0
  191.2470  176.6650  139.0860 C   0  0  1  0  0  3  0  0  0  0  0  0
  185.5130  176.8370  136.1310 C   0  0  0  0  0  3  0  0  0  0  0  0
  193.8770  176.1310  138.1870 N   0  0  0  0  0  2  0  0  0  0  0  0
  192.7800  175.9130  137.2920 C   0  0  0  0  0  0  0  0  0  0  0  0
  190.3500  175.5530  135.7450 O   0  0  0  0  0  0  0  0  0  0  0  0
  192.9340  175.1820  136.2790 O   0  0  0  0  0  0  0  0  0  0  0  0
  188.1820  179.1010  142.4580 C   0  0  0  0  0  1  0  0  0  0  0  0
  184.1800  177.9860  137.7860 C   0  0  0  0  0  0  0  0  0  0  0  0
  189.9130  177.2930  139.4870 C   0  0  0  0  0  0  0  0  0  0  0  0
  186.5060  177.6190  138.1940 C   0  0  0  0  0  0  0  0  0  0  0  0
  188.9890  176.6010  137.3310 N   0  0  0  0  0  0  0  0  0  0  0  0
  187.5590  177.7550  139.0220 C   0  0  0  0  0  0  0  0  0  0  0  0
  190.2660  176.1870  136.8330 C   0  0  0  0  0  0  0  0  0  0  0  0
  189.6640  177.7960  140.8290 N   0  0  0  0  0  0  0  0  0  0  0  0
  188.8760  177.2230  138.6250 C   0  0  0  0  0  0  0  0  0  0  0  0
  187.4210  178.3950  140.2950 N   0  0  0  0  0  0  0  0  0  0  0  0
  188.4020  178.4300  141.1420 C   0  0  0  0  0  0  0  0  0  0  0  0
  183.1910  179.8390  138.8640 O   0  0  0  0  0  1  0  0  0  0  0  0
  182.9160  178.5960  138.2910 C   0  0  0  0  0  2  0  0  0  0  0  0
  190.5650  177.4890  141.9370 C   0  0  0  0  0  2  0  0  0  0  0  0
  190.2420  176.1230  142.5100 C   0  0  0  0  0  2  0  0  0  0  0  0
  191.2030  175.8200  143.6390 C   0  0  0  0  0  2  0  0  0  0  0  0
  191.1110  176.9110  144.6890 C   0  0  0  0  0  2  0  0  0  0  0  0
  190.9490  176.0640  147.1620 O   0  0  0  0  0  1  0  0  0  0  0  0
  190.2000  178.2700  148.0460 O   0  0  0  0  0  1  0  0  0  0  0  0
  189.6920  176.3350  146.7140 N   0  0  0  0  0  0  0  0  0  0  0  0
  189.2750  177.6650  147.1840 C   0  0  2  0  0  0  0  0  0  0  0  0
  189.7290  176.8850  145.3440 C   0  0  1  0  0  3  0  0  0  0  0  0
  189.3260  178.2740  145.7980 C   0  0  0  0  0  2  0  0  0  0  0  0
  187.7350  177.7010  149.0210 O   0  0  0  0  0  1  0  0  0  0  0  0
  187.8950  177.6530  147.7710 C   0  0  0  0  0  0  0  0  0  0  0  0
  186.7830  177.6620  146.9370 O   0  0  0  0  0  0  0  0  0  0  0  0
  183.1710  177.1680  135.6250 N   0  0  0  0  0  2  0  0  0  0  0  0
  182.5440  175.9080  135.2560 C   0  0  0  0  0  2  0  0  0  0  0  0
  182.2550  175.1130  136.4820 C   0  0  0  0  0  0  0  0  0  0  0  0
  181.0940  175.4680  137.3450 C   0  0  0  0  0  1  0  0  0  0  0  0
  182.9450  174.1480  136.7600 O   0  0  0  0  0  0  0  0  0  0  0  0
  1 17  1  0  0  0  0
  2 15  1  0  0  0  0
  3 20  1  6  0  0  0
  3  8  1  0  0  0  0
  4  1  2  0  0  0  0
  4 18  1  0  0  0  0
  7  6  2  0  0  0  0
  8 16  1  0  0  0  0
  8  6  1  1  0  0  0
  9  2  2  0  0  0  0
  9  1  1  0  0  0  0
 10  7  1  0  0  0  0
 11  3  1  0  0  0  0
 11 10  1  0  0  0  0
 12 20  2  0  0  0  0
 13 11  2  0  0  0  0
 15 26  1  0  0  0  0
 15  5  2  0  0  0  0
 16 21  1  0  0  0  0
 17  5  1  0  0  0  0
 17 19  2  0  0  0  0
 18 22  1  0  0  0  0
 19 23  1  0  0  0  0
 20 18  1  0  0  0  0
 21 24  1  0  0  0  0
 21 27  1  0  0  0  0
 22 19  1  0  0  0  0
 22 16  2  0  0  0  0
 23 24  2  0  0  0  0
 24 14  1  0  0  0  0
 26 25  1  0  0  0  0
 27 28  1  0  0  0  0
 28 29  1  0  0  0  0
 29 30  1  0  0  0  0
 33 31  1  0  0  0  0
 33 34  1  0  0  0  0
 34 38  1  0  0  0  0
 34 32  1  1  0  0  0
 35 30  1  1  0  0  0
 35 36  1  0  0  0  0
 35 33  1  0  0  0  0
 36 34  1  0  0  0  0
 38 37  1  0  0  0  0
 39 38  2  0  0  0  0
 40  2  1  0  0  0  0
 41 40  1  0  0  0  0
 41 42  1  0  0  0  0
 42 44  2  0  0  0  0
 42 43  1  0  0  0  0
M  END
>  <MODEL>
9

>  <REMARK>
 VINA RESULT:      -7.1      2.792      8.374
  Name = 
  10 active torsions:
  status: ('A' for Active; 'I' for Inactive)
    1  A    between atoms: C_2  and  N_32
    2  A    between atoms: C_5  and  C_11
    3  A    between atoms: C_5  and  N_36
    4  A    between atoms: C_6  and  C_15
    5  A    between atoms: C_6  and  N_32
    6  A    between atoms: C_11  and  C_24
    7  A    between atoms: C_24  and  C_40
    8  A    between atoms: CA_25  and  C_43
    9  A    between atoms: C_26  and  C_37
   10  A    between atoms: C_35  and  C_40
                            x       y       z     vdW  Elec       q    Type
                         _______ _______ _______ _____ _____    ______ ____

>  <TORSDO>
F 10

$$$$
