=
 OpenBabel10232409483D

 45 49  0  0  1  0  0  0  0  0999 V2000
  189.0500  178.2090  141.6780 C   0  0  0  0  0  0  0  0  0  0  0  0
  189.3080  177.6490  140.2740 C   0  0  0  0  0  2  0  0  0  0  0  0
  183.7770  179.3980  139.7730 O   0  0  0  0  0  0  0  0  0  0  0  0
  185.7740  178.5240  139.1540 O   0  0  0  0  0  0  0  0  0  0  0  0
  188.1530  177.7680  139.3070 C   0  0  0  0  0  0  0  0  0  0  0  0
  186.9020  178.3440  139.7890 C   0  0  0  0  0  0  0  0  0  0  0  0
  188.2680  177.3360  138.0820 C   0  0  0  0  0  0  0  0  0  0  0  0
  187.8610  178.7330  142.0290 C   0  0  0  0  0  3  0  0  0  0  0  0
  186.7680  178.7930  141.0600 C   0  0  0  0  0  0  0  0  0  0  0  0
  184.9650  179.0780  140.0370 C   0  0  0  0  0  0  0  0  0  0  0  0
  188.3740  176.9040  136.8570 C   0  0  0  0  0  3  0  0  0  0  0  0
  185.5270  179.2760  141.2550 N   0  0  0  0  0  2  0  0  0  0  0  0
  187.9280  175.5280  136.5130 C   0  0  0  0  0  2  0  0  0  0  0  0
  189.0910  174.7180  135.9590 C   0  0  2  0  0  3  0  0  0  0  0  0
  187.2440  173.5540  135.5890 C   0  0  0  0  0  1  0  0  0  0  0  0
  188.6050  173.5950  135.2850 O   0  0  0  0  0  0  0  0  0  0  0  0
  189.9490  174.2920  137.0510 N   0  0  0  0  0  2  0  0  0  0  0  0
  190.8890  173.3280  136.5040 C   0  0  0  0  0  2  0  0  0  0  0  0
  193.8910  176.3250  138.5920 O   0  0  0  0  0  0  0  0  0  0  0  0
  193.7900  175.3940  137.7530 C   0  0  0  0  0  0  0  0  0  0  0  0
  195.0280  174.9200  137.0230 C   0  0  2  0  0  3  0  0  0  0  0  0
  194.6470  174.1490  135.4110 S   0  0  0  0  0  0  0  0  0  0  0  0
  193.4040  173.0220  136.1100 C   0  0  0  0  0  2  0  0  0  0  0  0
  192.4990  174.8240  137.4930 N   0  0  0  0  0  0  0  0  0  0  0  0
  192.2840  173.7960  136.7280 C   0  0  0  0  0  0  0  0  0  0  0  0
  195.8180  174.3380  139.2500 C   0  0  0  0  0  1  0  0  0  0  0  0
  195.9540  174.0950  137.8170 N   0  0  0  0  0  0  0  0  0  0  0  0
  197.3170  174.4400  137.4350 C   0  0  0  0  0  2  0  0  0  0  0  0
  199.5760  173.3880  137.5040 C   0  0  0  0  0  1  0  0  0  0  0  0
  198.1170  173.1820  137.1380 C   0  0  0  0  0  2  0  0  0  0  0  0
  190.0760  178.1870  142.6810 N   0  0  0  0  0  2  0  0  0  0  0  0
  189.9260  175.7390  143.2630 C   0  0  0  0  0  2  0  0  0  0  0  0
  190.4580  177.1110  143.6050 C   0  0  0  0  0  0  0  0  0  0  0  0
  191.4130  176.0590  143.0920 C   0  0  0  0  0  2  0  0  0  0  0  0
  190.5170  177.4350  145.0950 C   0  0  2  0  0  3  0  0  0  0  0  0
  191.6380  176.8140  145.6520 O   0  0  0  0  0  1  0  0  0  0  0  0
  187.5840  178.2450  148.0290 C   0  0  0  0  0  2  0  0  0  0  0  0
  189.5220  176.7860  147.3320 C   0  0  0  0  0  2  0  0  0  0  0  0
  187.0200  177.8710  146.6490 C   0  0  2  0  0  3  0  0  0  0  0  0
  189.2470  176.9890  145.8300 C   0  0  1  0  0  3  0  0  0  0  0  0
  188.0860  177.9620  145.5600 C   0  0  0  0  0  2  0  0  0  0  0  0
  189.0910  177.9960  148.1590 C   0  0  0  0  0  2  0  0  0  0  0  0
  185.6130  178.9190  146.2270 S   0  0  0  0  0  3  0  0  0  0  0  0
  184.4470  178.3070  146.9910 O   0  0  0  0  0  1  0  0  0  0  0  0
  185.2790  178.5180  144.6070 O   0  0  0  0  0  1  0  0  0  0  0  0
  1  8  2  0  0  0  0
  1 31  1  0  0  0  0
  2  1  1  0  0  0  0
  3 10  2  0  0  0  0
  4  6  1  0  0  0  0
  4 10  1  0  0  0  0
  5  6  1  0  0  0  0
  5  2  1  0  0  0  0
  6  9  2  0  0  0  0
  7  5  2  0  0  0  0
  9 12  1  0  0  0  0
  9  8  1  0  0  0  0
 10 12  1  0  0  0  0
 11  7  2  0  0  0  0
 13 11  1  0  0  0  0
 14 13  1  1  0  0  0
 14 17  1  0  0  0  0
 16 15  1  0  0  0  0
 16 14  1  0  0  0  0
 18 25  1  0  0  0  0
 18 17  1  0  0  0  0
 20 19  2  0  0  0  0
 21 20  1  0  0  0  0
 21 27  1  1  0  0  0
 22 23  1  0  0  0  0
 22 21  1  0  0  0  0
 23 25  1  0  0  0  0
 24 20  1  0  0  0  0
 25 24  2  0  0  0  0
 27 26  1  0  0  0  0
 28 27  1  0  0  0  0
 30 28  1  0  0  0  0
 30 29  1  0  0  0  0
 31 33  1  0  0  0  0
 32 33  1  0  0  0  0
 33 35  1  0  0  0  0
 34 32  1  0  0  0  0
 34 33  1  0  0  0  0
 35 36  1  1  0  0  0
 37 42  1  0  0  0  0
 38 42  1  0  0  0  0
 39 43  1  6  0  0  0
 39 37  1  0  0  0  0
 40 35  1  6  0  0  0
 40 38  1  0  0  0  0
 41 40  1  0  0  0  0
 41 39  1  0  0  0  0
 43 44  1  0  0  0  0
 45 43  1  0  0  0  0
M  END
>  <MODEL>
1

>  <REMARK>
 VINA RESULT:      -8.4      0.000      0.000
  Name = 
  14 active torsions:
  status: ('A' for Active; 'I' for Inactive)
    1  A    between atoms: C_3  and  N_32
    2  A    between atoms: C_5  and  N_31
    3  A    between atoms: C_6  and  C_24
    4  A    between atoms: C_6  and  N_31
    5  A    between atoms: S_12  and  C_14
    6  A    between atoms: C_15  and  C_25
    7  A    between atoms: C_15  and  C_28
    8  A    between atoms: N_18  and  C_29
    9  A    between atoms: N_18  and  C_39
   10  A    between atoms: C_23  and  C_29
   11  A    between atoms: C_23  and  C_38
   12  A    between atoms: C_25  and  N_32
   13  A    between atoms: C_29  and  O_36
   14  A    between atoms: C_39  and  C_43
                            x       y       z     vdW  Elec       q    Type
                         _______ _______ _______ _____ _____    ______ ____

>  <TORSDO>
F 14

$$$$
=
 OpenBabel10232409483D

 45 49  0  0  1  0  0  0  0  0999 V2000
  188.4800  178.3710  141.4350 C   0  0  0  0  0  0  0  0  0  0  0  0
  188.7840  178.0220  139.9730 C   0  0  0  0  0  2  0  0  0  0  0  0
  183.1410  179.4110  139.6290 O   0  0  0  0  0  0  0  0  0  0  0  0
  185.2000  178.7760  138.9280 O   0  0  0  0  0  0  0  0  0  0  0  0
  187.6280  178.1830  139.0140 C   0  0  0  0  0  0  0  0  0  0  0  0
  186.3360  178.5970  139.5500 C   0  0  0  0  0  0  0  0  0  0  0  0
  187.7810  177.9260  137.7450 C   0  0  0  0  0  0  0  0  0  0  0  0
  187.2540  178.7560  141.8350 C   0  0  0  0  0  3  0  0  0  0  0  0
  186.1630  178.8620  140.8670 C   0  0  0  0  0  0  0  0  0  0  0  0
  184.3490  179.1480  139.8650 C   0  0  0  0  0  0  0  0  0  0  0  0
  187.9240  177.6690  136.4750 C   0  0  0  0  0  3  0  0  0  0  0  0
  184.8890  179.2230  141.1060 N   0  0  0  0  0  2  0  0  0  0  0  0
  187.5830  176.3210  135.9470 C   0  0  0  0  0  2  0  0  0  0  0  0
  188.0730  175.2410  136.9010 C   0  0  2  0  0  3  0  0  0  0  0  0
  190.1760  175.0200  137.5560 C   0  0  0  0  0  1  0  0  0  0  0  0
  189.3200  174.7720  136.4820 O   0  0  0  0  0  0  0  0  0  0  0  0
  187.1240  174.1410  136.9150 N   0  0  0  0  0  2  0  0  0  0  0  0
  186.3480  174.2310  135.6890 C   0  0  0  0  0  2  0  0  0  0  0  0
  183.2800  170.8180  136.8290 O   0  0  0  0  0  0  0  0  0  0  0  0
  183.3910  172.0140  136.4550 C   0  0  0  0  0  0  0  0  0  0  0  0
  182.1400  172.8360  136.2290 C   0  0  2  0  0  3  0  0  0  0  0  0
  182.4000  174.2080  135.0510 S   0  0  0  0  0  0  0  0  0  0  0  0
  183.8660  174.8360  135.9220 C   0  0  0  0  0  2  0  0  0  0  0  0
  184.6990  172.5570  136.2310 N   0  0  0  0  0  0  0  0  0  0  0  0
  184.9460  173.8010  135.9440 C   0  0  0  0  0  0  0  0  0  0  0  0
  180.4330  172.3390  137.8910 C   0  0  0  0  0  1  0  0  0  0  0  0
  181.4510  173.2880  137.4490 N   0  0  0  0  0  0  0  0  0  0  0  0
  180.7860  174.5510  137.1570 C   0  0  0  0  0  2  0  0  0  0  0  0
  181.9170  175.8420  138.9640 C   0  0  0  0  0  1  0  0  0  0  0  0
  180.5830  175.3490  138.4340 C   0  0  0  0  0  2  0  0  0  0  0  0
  189.5010  178.2920  142.4410 N   0  0  0  0  0  2  0  0  0  0  0  0
  189.0600  175.9080  143.1300 C   0  0  0  0  0  2  0  0  0  0  0  0
  189.8460  177.1820  143.3370 C   0  0  0  0  0  0  0  0  0  0  0  0
  190.5360  175.9830  142.7290 C   0  0  0  0  0  2  0  0  0  0  0  0
  190.1800  177.5120  144.7900 C   0  0  2  0  0  3  0  0  0  0  0  0
  191.4280  176.9680  145.1050 O   0  0  0  0  0  1  0  0  0  0  0  0
  187.8260  178.1470  148.2430 C   0  0  0  0  0  2  0  0  0  0  0  0
  189.6910  176.8220  147.1770 C   0  0  0  0  0  2  0  0  0  0  0  0
  187.0320  177.7160  146.9990 C   0  0  2  0  0  3  0  0  0  0  0  0
  189.1140  176.9860  145.7580 C   0  0  1  0  0  3  0  0  0  0  0  0
  187.8550  177.8690  145.7230 C   0  0  0  0  0  2  0  0  0  0  0  0
  189.3430  178.0090  148.0740 C   0  0  0  0  0  2  0  0  0  0  0  0
  185.4970  178.6560  146.8620 S   0  0  0  0  0  3  0  0  0  0  0  0
  185.4700  179.1200  145.4110 O   0  0  0  0  0  1  0  0  0  0  0  0
  185.8160  180.0860  147.7280 O   0  0  0  0  0  1  0  0  0  0  0  0
  1  8  2  0  0  0  0
  1 31  1  0  0  0  0
  2  1  1  0  0  0  0
  3 10  2  0  0  0  0
  4  6  1  0  0  0  0
  4 10  1  0  0  0  0
  5  6  1  0  0  0  0
  5  2  1  0  0  0  0
  6  9  2  0  0  0  0
  7  5  2  0  0  0  0
  9 12  1  0  0  0  0
  9  8  1  0  0  0  0
 10 12  1  0  0  0  0
 11  7  2  0  0  0  0
 13 11  1  0  0  0  0
 14 13  1  6  0  0  0
 14 17  1  0  0  0  0
 16 14  1  0  0  0  0
 16 15  1  0  0  0  0
 18 25  1  0  0  0  0
 18 17  1  0  0  0  0
 20 19  2  0  0  0  0
 21 20  1  0  0  0  0
 21 27  1  1  0  0  0
 22 23  1  0  0  0  0
 22 21  1  0  0  0  0
 23 25  1  0  0  0  0
 24 20  1  0  0  0  0
 25 24  2  0  0  0  0
 27 26  1  0  0  0  0
 28 27  1  0  0  0  0
 28 30  1  0  0  0  0
 30 29  1  0  0  0  0
 31 33  1  0  0  0  0
 32 33  1  0  0  0  0
 33 35  1  0  0  0  0
 34 32  1  0  0  0  0
 34 33  1  0  0  0  0
 35 36  1  1  0  0  0
 38 42  1  0  0  0  0
 39 43  1  6  0  0  0
 39 37  1  0  0  0  0
 40 35  1  6  0  0  0
 40 38  1  0  0  0  0
 41 40  1  0  0  0  0
 41 39  1  0  0  0  0
 42 37  1  0  0  0  0
 43 45  1  0  0  0  0
 44 43  1  0  0  0  0
M  END
>  <MODEL>
2

>  <REMARK>
 VINA RESULT:      -8.2      3.729      7.061
  Name = 
  14 active torsions:
  status: ('A' for Active; 'I' for Inactive)
    1  A    between atoms: C_3  and  N_32
    2  A    between atoms: C_5  and  N_31
    3  A    between atoms: C_6  and  C_24
    4  A    between atoms: C_6  and  N_31
    5  A    between atoms: S_12  and  C_14
    6  A    between atoms: C_15  and  C_25
    7  A    between atoms: C_15  and  C_28
    8  A    between atoms: N_18  and  C_29
    9  A    between atoms: N_18  and  C_39
   10  A    between atoms: C_23  and  C_29
   11  A    between atoms: C_23  and  C_38
   12  A    between atoms: C_25  and  N_32
   13  A    between atoms: C_29  and  O_36
   14  A    between atoms: C_39  and  C_43
                            x       y       z     vdW  Elec       q    Type
                         _______ _______ _______ _____ _____    ______ ____

>  <TORSDO>
F 14

$$$$
=
 OpenBabel10232409483D

 45 49  0  0  1  0  0  0  0  0999 V2000
  191.1840  177.3680  140.8990 C   0  0  0  0  0  0  0  0  0  0  0  0
  189.9150  177.0130  140.1150 C   0  0  0  0  0  2  0  0  0  0  0  0
  194.0050  176.1150  136.0700 O   0  0  0  0  0  0  0  0  0  0  0  0
  191.9370  176.1950  136.9930 O   0  0  0  0  0  0  0  0  0  0  0  0
  190.1390  176.5500  138.6940 C   0  0  0  0  0  0  0  0  0  0  0  0
  191.5040  176.5280  138.1800 C   0  0  0  0  0  0  0  0  0  0  0  0
  189.1300  176.2100  137.9420 C   0  0  0  0  0  0  0  0  0  0  0  0
  192.4070  177.3080  140.3410 C   0  0  0  0  0  3  0  0  0  0  0  0
  192.5610  176.8830  138.9500 C   0  0  0  0  0  0  0  0  0  0  0  0
  193.2460  176.3480  137.0470 C   0  0  0  0  0  0  0  0  0  0  0  0
  188.1260  175.8700  137.1840 C   0  0  0  0  0  3  0  0  0  0  0  0
  193.7040  176.7770  138.2490 N   0  0  0  0  0  2  0  0  0  0  0  0
  187.5080  176.8740  136.2770 C   0  0  0  0  0  2  0  0  0  0  0  0
  186.2750  176.2900  135.6050 C   0  0  2  0  0  3  0  0  0  0  0  0
  186.7580  178.0880  134.4070 C   0  0  0  0  0  1  0  0  0  0  0  0
  185.7050  177.2410  134.7550 O   0  0  0  0  0  0  0  0  0  0  0  0
  185.3060  175.9060  136.6180 N   0  0  0  0  0  2  0  0  0  0  0  0
  184.0560  176.5710  136.2860 C   0  0  0  0  0  2  0  0  0  0  0  0
  184.7430  179.7400  139.7280 O   0  0  0  0  0  0  0  0  0  0  0  0
  183.9500  178.8760  139.2730 C   0  0  0  0  0  0  0  0  0  0  0  0
  182.6450  178.6180  139.9960 C   0  0  2  0  0  3  0  0  0  0  0  0
  181.9870  176.9410  139.6880 S   0  0  0  0  0  0  0  0  0  0  0  0
  182.1170  177.0920  137.8820 C   0  0  0  0  0  2  0  0  0  0  0  0
  184.3160  178.1430  138.0950 N   0  0  0  0  0  0  0  0  0  0  0  0
  183.5410  177.3030  137.4750 C   0  0  0  0  0  0  0  0  0  0  0  0
  180.2920  179.0730  139.5760 C   0  0  0  0  0  1  0  0  0  0  0  0
  181.6100  179.6500  139.8220 N   0  0  0  0  0  0  0  0  0  0  0  0
  181.9630  180.4610  138.6640 C   0  0  0  0  0  2  0  0  0  0  0  0
  180.8770  182.1820  137.2250 C   0  0  0  0  0  1  0  0  0  0  0  0
  180.7190  180.8160  137.8670 C   0  0  0  0  0  2  0  0  0  0  0  0
  191.1120  177.7910  142.2690 N   0  0  0  0  0  2  0  0  0  0  0  0
  190.1020  175.7100  143.2670 C   0  0  0  0  0  2  0  0  0  0  0  0
  190.8570  177.0010  143.4800 C   0  0  0  0  0  0  0  0  0  0  0  0
  191.5910  175.6890  143.6230 C   0  0  0  0  0  2  0  0  0  0  0  0
  190.5170  177.7510  144.7650 C   0  0  2  0  0  3  0  0  0  0  0  0
  191.6670  177.8480  145.5530 O   0  0  0  0  0  1  0  0  0  0  0  0
  187.7660  177.8810  147.9710 C   0  0  0  0  0  2  0  0  0  0  0  0
  189.8270  176.7910  147.0060 C   0  0  0  0  0  2  0  0  0  0  0  0
  187.1440  177.5300  146.6100 C   0  0  2  0  0  3  0  0  0  0  0  0
  189.3950  177.0630  145.5510 C   0  0  1  0  0  3  0  0  0  0  0  0
  188.0850  177.8640  145.4560 C   0  0  0  0  0  2  0  0  0  0  0  0
  189.2980  177.8560  147.9640 C   0  0  0  0  0  2  0  0  0  0  0  0
  185.5670  178.3800  146.3880 S   0  0  0  0  0  3  0  0  0  0  0  0
  185.6200  178.8990  144.9570 O   0  0  0  0  0  1  0  0  0  0  0  0
  185.7300  179.7910  147.3270 O   0  0  0  0  0  1  0  0  0  0  0  0
  1 31  1  0  0  0  0
  2  1  1  0  0  0  0
  3 10  2  0  0  0  0
  4 10  1  0  0  0  0
  4  6  1  0  0  0  0
  5  2  1  0  0  0  0
  6  5  1  0  0  0  0
  6  9  2  0  0  0  0
  7  5  2  0  0  0  0
  8  1  2  0  0  0  0
  9  8  1  0  0  0  0
 10 12  1  0  0  0  0
 11  7  2  0  0  0  0
 12  9  1  0  0  0  0
 13 11  1  0  0  0  0
 14 13  1  1  0  0  0
 14 17  1  0  0  0  0
 15 16  1  0  0  0  0
 16 14  1  0  0  0  0
 18 17  1  0  0  0  0
 18 25  1  0  0  0  0
 20 19  2  0  0  0  0
 20 21  1  0  0  0  0
 21 27  1  6  0  0  0
 22 21  1  0  0  0  0
 23 22  1  0  0  0  0
 24 20  1  0  0  0  0
 25 23  1  0  0  0  0
 25 24  2  0  0  0  0
 26 27  1  0  0  0  0
 28 27  1  0  0  0  0
 29 30  1  0  0  0  0
 30 28  1  0  0  0  0
 31 33  1  0  0  0  0
 32 33  1  0  0  0  0
 32 34  1  0  0  0  0
 33 34  1  0  0  0  0
 33 35  1  0  0  0  0
 35 36  1  1  0  0  0
 38 42  1  0  0  0  0
 39 43  1  6  0  0  0
 39 37  1  0  0  0  0
 40 35  1  1  0  0  0
 40 38  1  0  0  0  0
 41 40  1  0  0  0  0
 41 39  1  0  0  0  0
 42 37  1  0  0  0  0
 43 45  1  0  0  0  0
 44 43  1  0  0  0  0
M  END
>  <MODEL>
3

>  <REMARK>
 VINA RESULT:      -8.1      3.320      8.251
  Name = 
  14 active torsions:
  status: ('A' for Active; 'I' for Inactive)
    1  A    between atoms: C_3  and  N_32
    2  A    between atoms: C_5  and  N_31
    3  A    between atoms: C_6  and  C_24
    4  A    between atoms: C_6  and  N_31
    5  A    between atoms: S_12  and  C_14
    6  A    between atoms: C_15  and  C_25
    7  A    between atoms: C_15  and  C_28
    8  A    between atoms: N_18  and  C_29
    9  A    between atoms: N_18  and  C_39
   10  A    between atoms: C_23  and  C_29
   11  A    between atoms: C_23  and  C_38
   12  A    between atoms: C_25  and  N_32
   13  A    between atoms: C_29  and  O_36
   14  A    between atoms: C_39  and  C_43
                            x       y       z     vdW  Elec       q    Type
                         _______ _______ _______ _____ _____    ______ ____

>  <TORSDO>
F 14

$$$$
=
 OpenBabel10232409483D

 45 49  0  0  1  0  0  0  0  0999 V2000
  183.5500  178.7320  141.9580 C   0  0  0  0  0  0  0  0  0  0  0  0
  184.9500  178.2010  141.6300 C   0  0  0  0  0  2  0  0  0  0  0  0
  185.2740  178.6710  147.4240 O   0  0  0  0  0  0  0  0  0  0  0  0
  185.9350  178.1980  145.3090 O   0  0  0  0  0  0  0  0  0  0  0  0
  185.8490  177.9620  142.8210 C   0  0  0  0  0  0  0  0  0  0  0  0
  185.3420  178.2930  144.1480 C   0  0  0  0  0  0  0  0  0  0  0  0
  187.0560  177.4980  142.6560 C   0  0  0  0  0  0  0  0  0  0  0  0
  183.1670  179.0000  143.2200 C   0  0  0  0  0  3  0  0  0  0  0  0
  184.0910  178.7790  144.3320 C   0  0  0  0  0  0  0  0  0  0  0  0
  185.0470  178.6230  146.1870 C   0  0  0  0  0  0  0  0  0  0  0  0
  188.2650  177.0380  142.5000 C   0  0  0  0  0  3  0  0  0  0  0  0
  183.8660  179.0030  145.6400 N   0  0  0  0  0  2  0  0  0  0  0  0
  189.4110  177.9810  142.4000 C   0  0  0  0  0  2  0  0  0  0  0  0
  190.6490  177.2550  141.8940 C   0  0  2  0  0  3  0  0  0  0  0  0
  191.2810  178.5950  143.5390 C   0  0  0  0  0  1  0  0  0  0  0  0
  191.7770  177.7060  142.5840 O   0  0  0  0  0  0  0  0  0  0  0  0
  190.8170  177.5160  140.4740 N   0  0  0  0  0  2  0  0  0  0  0  0
  192.2190  177.2920  140.1620 C   0  0  0  0  0  2  0  0  0  0  0  0
  194.7780  176.4130  136.2840 O   0  0  0  0  0  0  0  0  0  0  0  0
  193.6500  176.2720  136.8210 C   0  0  0  0  0  0  0  0  0  0  0  0
  192.5520  175.5630  136.0580 C   0  0  2  0  0  3  0  0  0  0  0  0
  190.8800  176.0580  136.6010 S   0  0  0  0  0  0  0  0  0  0  0  0
  191.2310  175.7580  138.3590 C   0  0  0  0  0  2  0  0  0  0  0  0
  193.4280  176.8110  138.1330 N   0  0  0  0  0  0  0  0  0  0  0  0
  192.3440  176.6410  138.8290 C   0  0  0  0  0  0  0  0  0  0  0  0
  193.5200  173.6860  134.8470 C   0  0  0  0  0  1  0  0  0  0  0  0
  192.6860  174.0990  135.9720 N   0  0  0  0  0  0  0  0  0  0  0  0
  191.3600  173.5290  135.7750 C   0  0  0  0  0  2  0  0  0  0  0  0
  190.2390  171.6150  134.6380 C   0  0  0  0  0  1  0  0  0  0  0  0
  191.3380  172.6560  134.5320 C   0  0  0  0  0  2  0  0  0  0  0  0
  182.5880  178.9710  140.9190 N   0  0  0  0  0  2  0  0  0  0  0  0
  181.9130  176.6390  140.2450 C   0  0  0  0  0  2  0  0  0  0  0  0
  182.1280  178.0810  139.8470 C   0  0  0  0  0  0  0  0  0  0  0  0
  180.7180  177.5460  139.9420 C   0  0  0  0  0  2  0  0  0  0  0  0
  182.6970  178.2930  138.4470 C   0  0  2  0  0  3  0  0  0  0  0  0
  181.6730  178.1300  137.5100 O   0  0  0  0  0  1  0  0  0  0  0  0
  185.9630  177.2510  135.9740 C   0  0  0  0  0  2  0  0  0  0  0  0
  183.6500  176.6420  136.7780 C   0  0  0  0  0  2  0  0  0  0  0  0
  186.2900  177.3060  137.4750 C   0  0  2  0  0  3  0  0  0  0  0  0
  183.8490  177.3280  138.1440 C   0  0  1  0  0  3  0  0  0  0  0  0
  185.2080  178.0390  138.2630 C   0  0  0  0  0  2  0  0  0  0  0  0
  184.4610  177.3210  135.6760 C   0  0  0  0  0  2  0  0  0  0  0  0
  187.8940  178.0880  137.7520 S   0  0  0  0  0  3  0  0  0  0  0  0
  187.8240  178.5870  139.1890 O   0  0  0  0  0  1  0  0  0  0  0  0
  187.8140  179.5170  136.8320 O   0  0  0  0  0  1  0  0  0  0  0  0
  1  8  2  0  0  0  0
  2  1  1  0  0  0  0
  2  5  1  0  0  0  0
  4 10  1  0  0  0  0
  5  6  1  0  0  0  0
  6  9  2  0  0  0  0
  6  4  1  0  0  0  0
  7  5  2  0  0  0  0
  8  9  1  0  0  0  0
  9 12  1  0  0  0  0
 10  3  2  0  0  0  0
 11  7  2  0  0  0  0
 12 10  1  0  0  0  0
 13 11  1  0  0  0  0
 14 13  1  1  0  0  0
 14 16  1  0  0  0  0
 16 15  1  0  0  0  0
 17 14  1  0  0  0  0
 18 17  1  0  0  0  0
 19 20  2  0  0  0  0
 20 24  1  0  0  0  0
 21 27  1  1  0  0  0
 21 22  1  0  0  0  0
 21 20  1  0  0  0  0
 22 23  1  0  0  0  0
 23 25  1  0  0  0  0
 24 25  2  0  0  0  0
 25 18  1  0  0  0  0
 26 27  1  0  0  0  0
 28 27  1  0  0  0  0
 30 29  1  0  0  0  0
 30 28  1  0  0  0  0
 31  1  1  0  0  0  0
 33 34  1  0  0  0  0
 33 32  1  0  0  0  0
 33 31  1  0  0  0  0
 34 32  1  0  0  0  0
 35 36  1  6  0  0  0
 35 33  1  0  0  0  0
 37 39  1  0  0  0  0
 38 40  1  0  0  0  0
 39 43  1  6  0  0  0
 39 41  1  0  0  0  0
 40 41  1  0  0  0  0
 40 35  1  6  0  0  0
 42 37  1  0  0  0  0
 42 38  1  0  0  0  0
 43 44  1  0  0  0  0
 45 43  1  0  0  0  0
M  END
>  <MODEL>
4

>  <REMARK>
 VINA RESULT:      -7.9      3.258      7.476
  Name = 
  14 active torsions:
  status: ('A' for Active; 'I' for Inactive)
    1  A    between atoms: C_3  and  N_32
    2  A    between atoms: C_5  and  N_31
    3  A    between atoms: C_6  and  C_24
    4  A    between atoms: C_6  and  N_31
    5  A    between atoms: S_12  and  C_14
    6  A    between atoms: C_15  and  C_25
    7  A    between atoms: C_15  and  C_28
    8  A    between atoms: N_18  and  C_29
    9  A    between atoms: N_18  and  C_39
   10  A    between atoms: C_23  and  C_29
   11  A    between atoms: C_23  and  C_38
   12  A    between atoms: C_25  and  N_32
   13  A    between atoms: C_29  and  O_36
   14  A    between atoms: C_39  and  C_43
                            x       y       z     vdW  Elec       q    Type
                         _______ _______ _______ _____ _____    ______ ____

>  <TORSDO>
F 14

$$$$
=
 OpenBabel10232409483D

 45 49  0  0  1  0  0  0  0  0999 V2000
  183.5460  179.1500  143.4830 C   0  0  0  0  0  0  0  0  0  0  0  0
  184.7210  178.5620  142.6940 C   0  0  0  0  0  2  0  0  0  0  0  0
  186.7480  178.1940  148.1390 O   0  0  0  0  0  0  0  0  0  0  0  0
  186.7140  177.9690  145.8850 O   0  0  0  0  0  0  0  0  0  0  0  0
  185.8900  178.0880  143.5270 C   0  0  0  0  0  0  0  0  0  0  0  0
  185.8280  178.2710  144.9730 C   0  0  0  0  0  0  0  0  0  0  0  0
  186.9360  177.5590  142.9580 C   0  0  0  0  0  0  0  0  0  0  0  0
  183.5760  179.2700  144.8230 C   0  0  0  0  0  3  0  0  0  0  0  0
  184.7480  178.8240  145.5750 C   0  0  0  0  0  0  0  0  0  0  0  0
  186.1710  178.3370  147.0300 C   0  0  0  0  0  0  0  0  0  0  0  0
  187.9870  177.0310  142.3970 C   0  0  0  0  0  3  0  0  0  0  0  0
  184.9350  178.8800  146.9070 N   0  0  0  0  0  2  0  0  0  0  0  0
  189.1580  177.8850  142.0620 C   0  0  0  0  0  2  0  0  0  0  0  0
  190.4430  177.0730  142.1410 C   0  0  2  0  0  3  0  0  0  0  0  0
  191.4710  178.3710  143.6110 C   0  0  0  0  0  1  0  0  0  0  0  0
  191.5350  177.9320  142.2880 O   0  0  0  0  0  0  0  0  0  0  0  0
  190.6010  176.2970  140.9230 N   0  0  0  0  0  2  0  0  0  0  0  0
  190.9920  177.2240  139.8740 C   0  0  0  0  0  2  0  0  0  0  0  0
  189.8040  174.6800  136.0690 O   0  0  0  0  0  0  0  0  0  0  0  0
  189.5890  175.7490  136.6950 C   0  0  0  0  0  0  0  0  0  0  0  0
  188.5760  176.7330  136.1500 C   0  0  2  0  0  3  0  0  0  0  0  0
  188.8900  178.4470  136.6990 S   0  0  0  0  0  0  0  0  0  0  0  0
  188.9980  177.9920  138.4550 C   0  0  0  0  0  2  0  0  0  0  0  0
  190.3280  176.0170  137.8950 N   0  0  0  0  0  0  0  0  0  0  0  0
  190.1240  177.0330  138.6800 C   0  0  0  0  0  0  0  0  0  0  0  0
  186.6980  175.4530  135.2790 C   0  0  0  0  0  1  0  0  0  0  0  0
  187.1650  176.3530  136.3300 N   0  0  0  0  0  0  0  0  0  0  0  0
  186.3550  177.5620  136.2720 C   0  0  0  0  0  2  0  0  0  0  0  0
  185.4190  178.3700  138.4370 C   0  0  0  0  0  1  0  0  0  0  0  0
  185.1880  177.4640  137.2420 C   0  0  0  0  0  2  0  0  0  0  0  0
  182.3610  179.6070  142.8130 N   0  0  0  0  0  2  0  0  0  0  0  0
  180.7210  177.9100  143.6970 C   0  0  0  0  0  2  0  0  0  0  0  0
  181.0650  178.9390  142.6450 C   0  0  0  0  0  0  0  0  0  0  0  0
  179.9840  179.2510  143.6530 C   0  0  0  0  0  2  0  0  0  0  0  0
  180.6140  178.5980  141.2270 C   0  0  2  0  0  3  0  0  0  0  0  0
  180.6640  177.2120  141.0540 O   0  0  0  0  0  1  0  0  0  0  0  0
  181.1460  179.7140  137.1850 C   0  0  0  0  0  2  0  0  0  0  0  0
  181.9590  178.2900  139.1030 C   0  0  0  0  0  2  0  0  0  0  0  0
  181.3010  180.8650  138.1910 C   0  0  2  0  0  3  0  0  0  0  0  0
  181.4760  179.2940  140.1680 C   0  0  1  0  0  3  0  0  0  0  0  0
  180.7360  180.4990  139.5610 C   0  0  0  0  0  2  0  0  0  0  0  0
  181.0930  178.3320  137.8460 C   0  0  0  0  0  2  0  0  0  0  0  0
  180.5050  182.3640  137.5750 S   0  0  0  0  0  3  0  0  0  0  0  0
  180.3270  182.1090  136.0850 O   0  0  0  0  0  1  0  0  0  0  0  0
  181.7410  183.5330  137.6320 O   0  0  0  0  0  1  0  0  0  0  0  0
  1  8  2  0  0  0  0
  2  1  1  0  0  0  0
  2  5  1  0  0  0  0
  4 10  1  0  0  0  0
  5  6  1  0  0  0  0
  6  9  2  0  0  0  0
  6  4  1  0  0  0  0
  7  5  2  0  0  0  0
  8  9  1  0  0  0  0
  9 12  1  0  0  0  0
 10  3  2  0  0  0  0
 11  7  2  0  0  0  0
 12 10  1  0  0  0  0
 13 11  1  0  0  0  0
 14 13  1  6  0  0  0
 14 16  1  0  0  0  0
 16 15  1  0  0  0  0
 17 14  1  0  0  0  0
 18 17  1  0  0  0  0
 19 20  2  0  0  0  0
 20 24  1  0  0  0  0
 21 27  1  1  0  0  0
 21 20  1  0  0  0  0
 21 22  1  0  0  0  0
 22 23  1  0  0  0  0
 23 25  1  0  0  0  0
 24 25  2  0  0  0  0
 25 18  1  0  0  0  0
 26 27  1  0  0  0  0
 28 27  1  0  0  0  0
 28 30  1  0  0  0  0
 30 29  1  0  0  0  0
 31  1  1  0  0  0  0
 33 31  1  0  0  0  0
 33 34  1  0  0  0  0
 33 32  1  0  0  0  0
 34 32  1  0  0  0  0
 35 36  1  6  0  0  0
 35 33  1  0  0  0  0
 37 42  1  0  0  0  0
 37 39  1  0  0  0  0
 38 40  1  0  0  0  0
 39 43  1  6  0  0  0
 39 41  1  0  0  0  0
 40 35  1  1  0  0  0
 41 40  1  0  0  0  0
 42 38  1  0  0  0  0
 43 45  1  0  0  0  0
 44 43  1  0  0  0  0
M  END
>  <MODEL>
5

>  <REMARK>
 VINA RESULT:      -7.7      4.063      8.749
  Name = 
  14 active torsions:
  status: ('A' for Active; 'I' for Inactive)
    1  A    between atoms: C_3  and  N_32
    2  A    between atoms: C_5  and  N_31
    3  A    between atoms: C_6  and  C_24
    4  A    between atoms: C_6  and  N_31
    5  A    between atoms: S_12  and  C_14
    6  A    between atoms: C_15  and  C_25
    7  A    between atoms: C_15  and  C_28
    8  A    between atoms: N_18  and  C_29
    9  A    between atoms: N_18  and  C_39
   10  A    between atoms: C_23  and  C_29
   11  A    between atoms: C_23  and  C_38
   12  A    between atoms: C_25  and  N_32
   13  A    between atoms: C_29  and  O_36
   14  A    between atoms: C_39  and  C_43
                            x       y       z     vdW  Elec       q    Type
                         _______ _______ _______ _____ _____    ______ ____

>  <TORSDO>
F 14

$$$$
=
 OpenBabel10232409483D

 45 49  0  0  1  0  0  0  0  0999 V2000
  190.1030  177.9030  142.0390 C   0  0  0  0  0  0  0  0  0  0  0  0
  191.0890  177.2870  141.0390 C   0  0  0  0  0  2  0  0  0  0  0  0
  186.4560  178.1760  137.6270 O   0  0  0  0  0  0  0  0  0  0  0  0
  188.5580  177.5590  138.2060 O   0  0  0  0  0  0  0  0  0  0  0  0
  190.5830  177.1670  139.6200 C   0  0  0  0  0  0  0  0  0  0  0  0
  189.2160  177.5900  139.3350 C   0  0  0  0  0  0  0  0  0  0  0  0
  191.3440  176.6700  138.6860 C   0  0  0  0  0  0  0  0  0  0  0  0
  188.8610  178.2730  141.6800 C   0  0  0  0  0  3  0  0  0  0  0  0
  188.4130  178.1040  140.2970 C   0  0  0  0  0  0  0  0  0  0  0  0
  187.3670  178.0520  138.4870 C   0  0  0  0  0  0  0  0  0  0  0  0
  192.0970  176.1720  137.7470 C   0  0  0  0  0  3  0  0  0  0  0  0
  187.2100  178.4160  139.7830 N   0  0  0  0  0  2  0  0  0  0  0  0
  192.0120  174.7240  137.4170 C   0  0  0  0  0  2  0  0  0  0  0  0
  191.8290  174.5340  135.9180 C   0  0  2  0  0  3  0  0  0  0  0  0
  192.9340  175.6360  134.3460 C   0  0  0  0  0  1  0  0  0  0  0  0
  191.9000  175.7720  135.2740 O   0  0  0  0  0  0  0  0  0  0  0  0
  190.5330  173.9290  135.6600 N   0  0  0  0  0  2  0  0  0  0  0  0
  189.5870  175.0150  135.4650 C   0  0  0  0  0  2  0  0  0  0  0  0
  186.6400  171.3220  135.6380 O   0  0  0  0  0  0  0  0  0  0  0  0
  186.7120  172.5700  135.5000 C   0  0  0  0  0  0  0  0  0  0  0  0
  185.4410  173.3650  135.2940 C   0  0  2  0  0  3  0  0  0  0  0  0
  185.7280  174.9420  134.4170 S   0  0  0  0  0  0  0  0  0  0  0  0
  187.0620  175.4600  135.5370 C   0  0  0  0  0  2  0  0  0  0  0  0
  188.0000  173.2010  135.5180 N   0  0  0  0  0  0  0  0  0  0  0  0
  188.1960  174.4860  135.4870 C   0  0  0  0  0  0  0  0  0  0  0  0
  185.2760  173.0810  137.7050 C   0  0  0  0  0  1  0  0  0  0  0  0
  184.6110  173.5530  136.4950 N   0  0  0  0  0  0  0  0  0  0  0  0
  183.3870  172.7800  136.3300 C   0  0  0  0  0  2  0  0  0  0  0  0
  180.9820  173.4360  136.3300 C   0  0  0  0  0  1  0  0  0  0  0  0
  182.3210  173.6170  135.6400 C   0  0  0  0  0  2  0  0  0  0  0  0
  190.4720  178.1010  143.4130 N   0  0  0  0  0  2  0  0  0  0  0  0
  190.3430  175.6830  144.1110 C   0  0  0  0  0  2  0  0  0  0  0  0
  190.6380  177.1160  144.4880 C   0  0  0  0  0  0  0  0  0  0  0  0
  191.7820  176.1370  144.3670 C   0  0  0  0  0  2  0  0  0  0  0  0
  190.2160  177.5190  145.8990 C   0  0  2  0  0  3  0  0  0  0  0  0
  191.0790  176.9200  146.8210 O   0  0  0  0  0  1  0  0  0  0  0  0
  186.4740  178.5580  147.5680 C   0  0  0  0  0  2  0  0  0  0  0  0
  188.5100  177.0740  147.7180 C   0  0  0  0  0  2  0  0  0  0  0  0
  186.4070  178.0400  146.1220 C   0  0  2  0  0  3  0  0  0  0  0  0
  188.7660  177.1240  146.1990 C   0  0  1  0  0  3  0  0  0  0  0  0
  187.7800  178.0430  145.4560 C   0  0  0  0  0  2  0  0  0  0  0  0
  187.8440  178.3520  148.2250 C   0  0  0  0  0  2  0  0  0  0  0  0
  185.2440  179.0150  145.1460 S   0  0  0  0  0  3  0  0  0  0  0  0
  183.9370  178.9290  145.9230 O   0  0  0  0  0  1  0  0  0  0  0  0
  184.9520  178.0480  143.7760 O   0  0  0  0  0  1  0  0  0  0  0  0
  1 31  1  0  0  0  0
  2  1  1  0  0  0  0
  3 10  2  0  0  0  0
  4 10  1  0  0  0  0
  4  6  1  0  0  0  0
  5  2  1  0  0  0  0
  6  5  1  0  0  0  0
  6  9  2  0  0  0  0
  7  5  2  0  0  0  0
  8  1  2  0  0  0  0
  9  8  1  0  0  0  0
 10 12  1  0  0  0  0
 11  7  2  0  0  0  0
 12  9  1  0  0  0  0
 13 11  1  0  0  0  0
 14 13  1  1  0  0  0
 15 16  1  0  0  0  0
 16 14  1  0  0  0  0
 17 14  1  0  0  0  0
 18 25  1  0  0  0  0
 18 17  1  0  0  0  0
 20 24  1  0  0  0  0
 20 19  2  0  0  0  0
 21 20  1  0  0  0  0
 21 27  1  1  0  0  0
 22 21  1  0  0  0  0
 22 23  1  0  0  0  0
 25 24  2  0  0  0  0
 25 23  1  0  0  0  0
 27 26  1  0  0  0  0
 28 27  1  0  0  0  0
 30 28  1  0  0  0  0
 30 29  1  0  0  0  0
 31 33  1  0  0  0  0
 32 34  1  0  0  0  0
 32 33  1  0  0  0  0
 33 35  1  0  0  0  0
 34 33  1  0  0  0  0
 35 36  1  1  0  0  0
 37 42  1  0  0  0  0
 38 42  1  0  0  0  0
 39 43  1  6  0  0  0
 39 37  1  0  0  0  0
 40 35  1  1  0  0  0
 40 38  1  0  0  0  0
 41 39  1  0  0  0  0
 41 40  1  0  0  0  0
 43 44  1  0  0  0  0
 45 43  1  0  0  0  0
M  END
>  <MODEL>
6

>  <REMARK>
 VINA RESULT:      -7.6      2.911      6.061
  Name = 
  14 active torsions:
  status: ('A' for Active; 'I' for Inactive)
    1  A    between atoms: C_3  and  N_32
    2  A    between atoms: C_5  and  N_31
    3  A    between atoms: C_6  and  C_24
    4  A    between atoms: C_6  and  N_31
    5  A    between atoms: S_12  and  C_14
    6  A    between atoms: C_15  and  C_25
    7  A    between atoms: C_15  and  C_28
    8  A    between atoms: N_18  and  C_29
    9  A    between atoms: N_18  and  C_39
   10  A    between atoms: C_23  and  C_29
   11  A    between atoms: C_23  and  C_38
   12  A    between atoms: C_25  and  N_32
   13  A    between atoms: C_29  and  O_36
   14  A    between atoms: C_39  and  C_43
                            x       y       z     vdW  Elec       q    Type
                         _______ _______ _______ _____ _____    ______ ____

>  <TORSDO>
F 14

$$$$
=
 OpenBabel10232409483D

 45 49  0  0  1  0  0  0  0  0999 V2000
  187.1380  177.2400  144.6720 C   0  0  0  0  0  0  0  0  0  0  0  0
  187.8290  176.9630  143.3320 C   0  0  0  0  0  2  0  0  0  0  0  0
  192.3590  176.7380  146.9830 O   0  0  0  0  0  0  0  0  0  0  0  0
  191.2260  176.6360  145.0230 O   0  0  0  0  0  0  0  0  0  0  0  0
  189.3160  176.7060  143.4100 C   0  0  0  0  0  0  0  0  0  0  0  0
  189.9660  176.7910  144.7140 C   0  0  0  0  0  0  0  0  0  0  0  0
  190.0000  176.4460  142.3310 C   0  0  0  0  0  0  0  0  0  0  0  0
  187.8220  177.2890  145.8300 C   0  0  0  0  0  3  0  0  0  0  0  0
  189.2670  177.0650  145.8420 C   0  0  0  0  0  0  0  0  0  0  0  0
  191.2860  176.8150  146.3290 C   0  0  0  0  0  0  0  0  0  0  0  0
  190.6920  176.1880  141.2580 C   0  0  0  0  0  3  0  0  0  0  0  0
  190.0900  177.0870  146.9060 N   0  0  0  0  0  2  0  0  0  0  0  0
  191.3810  177.2900  140.5350 C   0  0  0  0  0  2  0  0  0  0  0  0
  190.9180  177.3420  139.0870 C   0  0  2  0  0  3  0  0  0  0  0  0
  189.2930  178.5750  138.2230 C   0  0  0  0  0  1  0  0  0  0  0  0
  189.5270  177.4670  139.0400 O   0  0  0  0  0  0  0  0  0  0  0  0
  191.3150  176.1210  138.4070 N   0  0  0  0  0  2  0  0  0  0  0  0
  192.0860  176.5140  137.2390 C   0  0  0  0  0  2  0  0  0  0  0  0
  196.6720  175.9780  136.2170 O   0  0  0  0  0  0  0  0  0  0  0  0
  195.6040  175.3710  136.4880 C   0  0  0  0  0  0  0  0  0  0  0  0
  195.6090  173.8580  136.5480 C   0  0  2  0  0  3  0  0  0  0  0  0
  193.9640  173.1320  136.2230 S   0  0  0  0  0  0  0  0  0  0  0  0
  193.1280  174.1800  137.4500 C   0  0  0  0  0  2  0  0  0  0  0  0
  194.4060  176.1290  136.7070 N   0  0  0  0  0  0  0  0  0  0  0  0
  193.2700  175.6250  137.0910 C   0  0  0  0  0  0  0  0  0  0  0  0
  196.5660  174.2880  138.7440 C   0  0  0  0  0  1  0  0  0  0  0  0
  196.2360  173.2750  137.7460 N   0  0  0  0  0  0  0  0  0  0  0  0
  197.4760  172.6270  137.3430 C   0  0  0  0  0  2  0  0  0  0  0  0
  199.6020  173.5380  136.4130 C   0  0  0  0  0  1  0  0  0  0  0  0
  198.6610  173.5430  137.6030 C   0  0  0  0  0  2  0  0  0  0  0  0
  185.7220  177.4690  144.7400 N   0  0  0  0  0  2  0  0  0  0  0  0
  184.6250  178.5600  146.7280 C   0  0  0  0  0  2  0  0  0  0  0  0
  184.9850  178.6250  145.2620 C   0  0  0  0  0  0  0  0  0  0  0  0
  185.7040  179.5280  146.2370 C   0  0  0  0  0  2  0  0  0  0  0  0
  183.9360  179.2730  144.3610 C   0  0  2  0  0  3  0  0  0  0  0  0
  182.7900  179.5390  145.1150 O   0  0  0  0  0  1  0  0  0  0  0  0
  182.3020  178.9570  140.4760 C   0  0  0  0  0  2  0  0  0  0  0  0
  182.0640  178.3640  142.9180 C   0  0  0  0  0  2  0  0  0  0  0  0
  183.7000  178.3390  140.6320 C   0  0  2  0  0  3  0  0  0  0  0  0
  183.5850  178.3860  143.1610 C   0  0  1  0  0  3  0  0  0  0  0  0
  184.3840  178.8060  141.9140 C   0  0  0  0  0  2  0  0  0  0  0  0
  181.6500  179.3330  141.8120 C   0  0  0  0  0  2  0  0  0  0  0  0
  184.7340  178.7250  139.2040 S   0  0  0  0  0  3  0  0  0  0  0  0
  186.1470  178.7870  139.7700 O   0  0  0  0  0  1  0  0  0  0  0  0
  184.3710  180.3530  138.8670 O   0  0  0  0  0  1  0  0  0  0  0  0
  1 31  1  0  0  0  0
  1  8  2  0  0  0  0
  2  5  1  0  0  0  0
  2  1  1  0  0  0  0
  4 10  1  0  0  0  0
  5  6  1  0  0  0  0
  6  4  1  0  0  0  0
  6  9  2  0  0  0  0
  7  5  2  0  0  0  0
  8  9  1  0  0  0  0
  9 12  1  0  0  0  0
 10 12  1  0  0  0  0
 10  3  2  0  0  0  0
 11  7  2  0  0  0  0
 13 11  1  0  0  0  0
 14 13  1  1  0  0  0
 15 16  1  0  0  0  0
 16 14  1  0  0  0  0
 17 14  1  0  0  0  0
 18 17  1  0  0  0  0
 19 20  2  0  0  0  0
 20 21  1  0  0  0  0
 20 24  1  0  0  0  0
 21 27  1  1  0  0  0
 22 21  1  0  0  0  0
 22 23  1  0  0  0  0
 24 25  2  0  0  0  0
 25 18  1  0  0  0  0
 25 23  1  0  0  0  0
 27 26  1  0  0  0  0
 28 30  1  0  0  0  0
 28 27  1  0  0  0  0
 29 30  1  0  0  0  0
 31 33  1  0  0  0  0
 33 34  1  0  0  0  0
 33 32  1  0  0  0  0
 34 32  1  0  0  0  0
 35 36  1  1  0  0  0
 35 33  1  0  0  0  0
 37 39  1  0  0  0  0
 37 42  1  0  0  0  0
 38 40  1  0  0  0  0
 39 43  1  6  0  0  0
 39 41  1  0  0  0  0
 40 35  1  1  0  0  0
 41 40  1  0  0  0  0
 42 38  1  0  0  0  0
 43 44  1  0  0  0  0
 45 43  1  0  0  0  0
M  END
>  <MODEL>
7

>  <REMARK>
 VINA RESULT:      -7.6      2.606      5.797
  Name = 
  14 active torsions:
  status: ('A' for Active; 'I' for Inactive)
    1  A    between atoms: C_3  and  N_32
    2  A    between atoms: C_5  and  N_31
    3  A    between atoms: C_6  and  C_24
    4  A    between atoms: C_6  and  N_31
    5  A    between atoms: S_12  and  C_14
    6  A    between atoms: C_15  and  C_25
    7  A    between atoms: C_15  and  C_28
    8  A    between atoms: N_18  and  C_29
    9  A    between atoms: N_18  and  C_39
   10  A    between atoms: C_23  and  C_29
   11  A    between atoms: C_23  and  C_38
   12  A    between atoms: C_25  and  N_32
   13  A    between atoms: C_29  and  O_36
   14  A    between atoms: C_39  and  C_43
                            x       y       z     vdW  Elec       q    Type
                         _______ _______ _______ _____ _____    ______ ____

>  <TORSDO>
F 14

$$$$
=
 OpenBabel10232409483D

 45 49  0  0  1  0  0  0  0  0999 V2000
  188.1930  177.1450  143.2240 C   0  0  0  0  0  0  0  0  0  0  0  0
  186.8370  177.8280  143.0140 C   0  0  0  0  0  2  0  0  0  0  0  0
  187.3080  178.0570  148.8130 O   0  0  0  0  0  0  0  0  0  0  0  0
  186.4080  178.3810  146.7590 O   0  0  0  0  0  0  0  0  0  0  0  0
  186.1590  178.3240  144.2710 C   0  0  0  0  0  0  0  0  0  0  0  0
  186.8090  178.0740  145.5530 C   0  0  0  0  0  0  0  0  0  0  0  0
  185.0080  178.9320  144.2060 C   0  0  0  0  0  0  0  0  0  0  0  0
  188.7200  176.9670  144.4500 C   0  0  0  0  0  3  0  0  0  0  0  0
  188.0030  177.4390  145.6340 C   0  0  0  0  0  0  0  0  0  0  0  0
  187.3560  177.9350  147.5610 C   0  0  0  0  0  0  0  0  0  0  0  0
  183.8560  179.5380  144.1490 C   0  0  0  0  0  3  0  0  0  0  0  0
  188.3870  177.3330  146.9190 N   0  0  0  0  0  2  0  0  0  0  0  0
  182.5990  178.7620  144.3230 C   0  0  0  0  0  2  0  0  0  0  0  0
  181.5340  179.2590  143.3560 C   0  0  2  0  0  3  0  0  0  0  0  0
  179.9830  177.8650  144.1020 C   0  0  0  0  0  1  0  0  0  0  0  0
  180.2820  179.2230  143.9740 O   0  0  0  0  0  0  0  0  0  0  0  0
  181.5150  178.4100  142.1770 N   0  0  0  0  0  2  0  0  0  0  0  0
  181.4790  179.2870  141.0200 C   0  0  0  0  0  2  0  0  0  0  0  0
  185.6380  178.7980  138.8230 O   0  0  0  0  0  0  0  0  0  0  0  0
  184.4100  178.5300  138.7660 C   0  0  0  0  0  0  0  0  0  0  0  0
  183.8800  177.7450  137.5850 C   0  0  2  0  0  3  0  0  0  0  0  0
  182.1080  178.0570  137.2670 S   0  0  0  0  0  0  0  0  0  0  0  0
  181.6190  177.7300  138.9860 C   0  0  0  0  0  2  0  0  0  0  0  0
  183.5430  178.9970  139.8090 N   0  0  0  0  0  0  0  0  0  0  0  0
  182.2820  178.7000  139.9130 C   0  0  0  0  0  0  0  0  0  0  0  0
  185.5510  176.0280  137.1520 C   0  0  0  0  0  1  0  0  0  0  0  0
  184.1870  176.3050  137.5940 N   0  0  0  0  0  0  0  0  0  0  0  0
  183.2780  175.6380  136.6710 C   0  0  0  0  0  2  0  0  0  0  0  0
  181.2930  174.2890  137.3460 C   0  0  0  0  0  1  0  0  0  0  0  0
  182.8080  174.3160  137.2550 C   0  0  0  0  0  2  0  0  0  0  0  0
  188.9550  176.6570  142.1090 N   0  0  0  0  0  2  0  0  0  0  0  0
  191.0390  178.0380  142.4200 C   0  0  0  0  0  2  0  0  0  0  0  0
  190.1800  177.1960  141.5070 C   0  0  0  0  0  0  0  0  0  0  0  0
  191.4990  176.6420  141.9940 C   0  0  0  0  0  2  0  0  0  0  0  0
  190.1180  177.6630  140.0550 C   0  0  2  0  0  3  0  0  0  0  0  0
  188.8930  178.2970  139.8330 O   0  0  0  0  0  1  0  0  0  0  0  0
  190.6920  176.3810  136.0680 C   0  0  0  0  0  2  0  0  0  0  0  0
  189.1390  176.4540  138.0560 C   0  0  0  0  0  2  0  0  0  0  0  0
  191.6900  175.7920  137.0780 C   0  0  2  0  0  3  0  0  0  0  0  0
  190.2980  176.5020  139.0700 C   0  0  1  0  0  3  0  0  0  0  0  0
  191.6800  176.5620  138.3960 C   0  0  0  0  0  2  0  0  0  0  0  0
  189.5150  177.1090  136.7290 C   0  0  0  0  0  2  0  0  0  0  0  0
  193.3580  175.7670  136.3890 S   0  0  0  0  0  3  0  0  0  0  0  0
  193.5180  174.3530  135.8470 O   0  0  0  0  0  1  0  0  0  0  0  0
  194.3650  175.7810  137.7610 O   0  0  0  0  0  1  0  0  0  0  0  0
  1  8  2  0  0  0  0
  2  1  1  0  0  0  0
  2  5  1  0  0  0  0
  4 10  1  0  0  0  0
  5  6  1  0  0  0  0
  6  9  2  0  0  0  0
  6  4  1  0  0  0  0
  7  5  2  0  0  0  0
  8  9  1  0  0  0  0
  9 12  1  0  0  0  0
 10  3  2  0  0  0  0
 11  7  2  0  0  0  0
 11 13  1  0  0  0  0
 12 10  1  0  0  0  0
 14 16  1  0  0  0  0
 14 13  1  1  0  0  0
 16 15  1  0  0  0  0
 17 14  1  0  0  0  0
 18 17  1  0  0  0  0
 20 19  2  0  0  0  0
 20 24  1  0  0  0  0
 21 27  1  1  0  0  0
 21 20  1  0  0  0  0
 22 21  1  0  0  0  0
 22 23  1  0  0  0  0
 23 25  1  0  0  0  0
 24 25  2  0  0  0  0
 25 18  1  0  0  0  0
 26 27  1  0  0  0  0
 28 30  1  0  0  0  0
 28 27  1  0  0  0  0
 30 29  1  0  0  0  0
 31  1  1  0  0  0  0
 33 34  1  0  0  0  0
 33 31  1  0  0  0  0
 33 32  1  0  0  0  0
 34 32  1  0  0  0  0
 35 36  1  6  0  0  0
 35 33  1  0  0  0  0
 37 42  1  0  0  0  0
 37 39  1  0  0  0  0
 38 40  1  0  0  0  0
 39 43  1  6  0  0  0
 39 41  1  0  0  0  0
 40 35  1  1  0  0  0
 41 40  1  0  0  0  0
 42 38  1  0  0  0  0
 43 45  1  0  0  0  0
 44 43  1  0  0  0  0
M  END
>  <MODEL>
8

>  <REMARK>
 VINA RESULT:      -7.6      3.680      9.944
  Name = 
  14 active torsions:
  status: ('A' for Active; 'I' for Inactive)
    1  A    between atoms: C_3  and  N_32
    2  A    between atoms: C_5  and  N_31
    3  A    between atoms: C_6  and  C_24
    4  A    between atoms: C_6  and  N_31
    5  A    between atoms: S_12  and  C_14
    6  A    between atoms: C_15  and  C_25
    7  A    between atoms: C_15  and  C_28
    8  A    between atoms: N_18  and  C_29
    9  A    between atoms: N_18  and  C_39
   10  A    between atoms: C_23  and  C_29
   11  A    between atoms: C_23  and  C_38
   12  A    between atoms: C_25  and  N_32
   13  A    between atoms: C_29  and  O_36
   14  A    between atoms: C_39  and  C_43
                            x       y       z     vdW  Elec       q    Type
                         _______ _______ _______ _____ _____    ______ ____

>  <TORSDO>
F 14

$$$$
=
 OpenBabel10232409483D

 45 49  0  0  1  0  0  0  0  0999 V2000
  185.2360  179.0340  141.6620 C   0  0  0  0  0  0  0  0  0  0  0  0
  186.4890  178.1580  141.7750 C   0  0  0  0  0  2  0  0  0  0  0  0
  184.7960  178.3930  147.3410 O   0  0  0  0  0  0  0  0  0  0  0  0
  186.0440  177.8090  145.5420 O   0  0  0  0  0  0  0  0  0  0  0  0
  186.8100  177.6610  143.1650 C   0  0  0  0  0  0  0  0  0  0  0  0
  185.9530  178.0850  144.2670 C   0  0  0  0  0  0  0  0  0  0  0  0
  187.8460  176.8970  143.3720 C   0  0  0  0  0  0  0  0  0  0  0  0
  184.4990  179.3660  142.7380 C   0  0  0  0  0  3  0  0  0  0  0  0
  184.8760  178.8820  144.0660 C   0  0  0  0  0  0  0  0  0  0  0  0
  185.0280  178.4350  146.1040 C   0  0  0  0  0  0  0  0  0  0  0  0
  188.8810  176.1360  143.5880 C   0  0  0  0  0  3  0  0  0  0  0  0
  184.2530  179.1270  145.2330 N   0  0  0  0  0  2  0  0  0  0  0  0
  190.1760  176.7410  143.9990 C   0  0  0  0  0  2  0  0  0  0  0  0
  191.1080  176.8580  142.8020 C   0  0  2  0  0  3  0  0  0  0  0  0
  191.6150  178.5100  144.1860 C   0  0  0  0  0  1  0  0  0  0  0  0
  191.8510  178.0370  142.8940 O   0  0  0  0  0  0  0  0  0  0  0  0
  190.3240  176.8760  141.5780 N   0  0  0  0  0  2  0  0  0  0  0  0
  191.2150  177.2950  140.5080 C   0  0  0  0  0  2  0  0  0  0  0  0
  188.4670  179.1820  137.1540 O   0  0  0  0  0  0  0  0  0  0  0  0
  189.0520  178.1340  137.5310 C   0  0  0  0  0  0  0  0  0  0  0  0
  188.9300  176.8790  136.6930 C   0  0  2  0  0  3  0  0  0  0  0  0
  189.1750  175.3530  137.6680 S   0  0  0  0  0  0  0  0  0  0  0  0
  190.7410  175.9250  138.3920 C   0  0  0  0  0  2  0  0  0  0  0  0
  189.7970  178.1520  138.7560 N   0  0  0  0  0  0  0  0  0  0  0  0
  190.5240  177.1680  139.1950 C   0  0  0  0  0  0  0  0  0  0  0  0
  189.1110  177.6740  134.4000 C   0  0  0  0  0  1  0  0  0  0  0  0
  189.7220  176.8670  135.4530 N   0  0  0  0  0  0  0  0  0  0  0  0
  189.7980  175.4940  134.9720 C   0  0  0  0  0  2  0  0  0  0  0  0
  191.6600  173.8640  135.2730 C   0  0  0  0  0  1  0  0  0  0  0  0
  191.2270  175.1460  134.5870 C   0  0  0  0  0  2  0  0  0  0  0  0
  184.8040  179.5450  140.3920 N   0  0  0  0  0  2  0  0  0  0  0  0
  182.4300  178.9000  139.8440 C   0  0  0  0  0  2  0  0  0  0  0  0
  183.8780  178.9600  139.4150 C   0  0  0  0  0  0  0  0  0  0  0  0
  182.8790  179.8850  138.7600 C   0  0  0  0  0  2  0  0  0  0  0  0
  184.3630  177.7690  138.5930 C   0  0  2  0  0  3  0  0  0  0  0  0
  185.6320  178.0550  138.0820 O   0  0  0  0  0  1  0  0  0  0  0  0
  183.1440  175.0410  135.6020 C   0  0  0  0  0  2  0  0  0  0  0  0
  184.1530  177.2980  136.1130 C   0  0  0  0  0  2  0  0  0  0  0  0
  182.0150  175.5210  136.5280 C   0  0  2  0  0  3  0  0  0  0  0  0
  183.3990  177.4290  137.4500 C   0  0  1  0  0  3  0  0  0  0  0  0
  182.5610  176.1840  137.7890 C   0  0  0  0  0  2  0  0  0  0  0  0
  184.4430  175.8400  135.7640 C   0  0  0  0  0  2  0  0  0  0  0  0
  180.9250  174.1520  136.9710 S   0  0  0  0  0  3  0  0  0  0  0  0
  180.6520  174.3550  138.4550 O   0  0  0  0  0  1  0  0  0  0  0  0
  181.9480  172.7920  136.9400 O   0  0  0  0  0  1  0  0  0  0  0  0
  1  2  1  0  0  0  0
  1  8  2  0  0  0  0
  2  5  1  0  0  0  0
  4 10  1  0  0  0  0
  5  7  2  0  0  0  0
  5  6  1  0  0  0  0
  6  4  1  0  0  0  0
  7 11  2  0  0  0  0
  8  9  1  0  0  0  0
  9  6  2  0  0  0  0
  9 12  1  0  0  0  0
 10  3  2  0  0  0  0
 11 13  1  0  0  0  0
 12 10  1  0  0  0  0
 14 16  1  0  0  0  0
 14 13  1  1  0  0  0
 16 15  1  0  0  0  0
 17 14  1  0  0  0  0
 18 17  1  0  0  0  0
 19 20  2  0  0  0  0
 20 24  1  0  0  0  0
 21 27  1  6  0  0  0
 21 20  1  0  0  0  0
 21 22  1  0  0  0  0
 22 23  1  0  0  0  0
 23 25  1  0  0  0  0
 24 25  2  0  0  0  0
 25 18  1  0  0  0  0
 26 27  1  0  0  0  0
 28 27  1  0  0  0  0
 30 28  1  0  0  0  0
 30 29  1  0  0  0  0
 31  1  1  0  0  0  0
 33 32  1  0  0  0  0
 33 31  1  0  0  0  0
 34 33  1  0  0  0  0
 34 32  1  0  0  0  0
 35 36  1  6  0  0  0
 35 33  1  0  0  0  0
 37 42  1  0  0  0  0
 37 39  1  0  0  0  0
 38 40  1  0  0  0  0
 39 43  1  1  0  0  0
 39 41  1  0  0  0  0
 40 41  1  0  0  0  0
 40 35  1  1  0  0  0
 42 38  1  0  0  0  0
 43 44  1  0  0  0  0
 45 43  1  0  0  0  0
M  END
>  <MODEL>
9

>  <REMARK>
 VINA RESULT:      -7.5      3.691      7.995
  Name = 
  14 active torsions:
  status: ('A' for Active; 'I' for Inactive)
    1  A    between atoms: C_3  and  N_32
    2  A    between atoms: C_5  and  N_31
    3  A    between atoms: C_6  and  C_24
    4  A    between atoms: C_6  and  N_31
    5  A    between atoms: S_12  and  C_14
    6  A    between atoms: C_15  and  C_25
    7  A    between atoms: C_15  and  C_28
    8  A    between atoms: N_18  and  C_29
    9  A    between atoms: N_18  and  C_39
   10  A    between atoms: C_23  and  C_29
   11  A    between atoms: C_23  and  C_38
   12  A    between atoms: C_25  and  N_32
   13  A    between atoms: C_29  and  O_36
   14  A    between atoms: C_39  and  C_43
                            x       y       z     vdW  Elec       q    Type
                         _______ _______ _______ _____ _____    ______ ____

>  <TORSDO>
F 14

$$$$
