=
 OpenBabel10232412333D

 34 38  0  0  1  0  0  0  0  0999 V2000
  189.3450  177.7940  141.2680 C   0  0  1  0  0  3  0  0  0  0  0  0
  187.9310  178.2370  141.4790 C   0  0  0  0  0  0  0  0  0  0  0  0
  185.8640  178.7410  141.2320 C   0  0  0  0  0  0  0  0  0  0  0  0
  190.7500  176.9330  142.9190 C   0  0  0  0  0  2  0  0  0  0  0  0
  187.4280  176.7340  143.2700 C   0  0  0  0  0  2  0  0  0  0  0  0
  188.8740  176.1880  143.1770 C   0  0  2  0  0  3  0  0  0  0  0  0
  189.9250  176.6610  144.1740 C   0  0  2  0  0  3  0  0  0  0  0  0
  185.9250  178.5040  142.5020 N   0  0  0  0  0  0  0  0  0  0  0  0
  187.3080  178.1720  142.8080 C   0  0  2  0  0  3  0  0  0  0  0  0
  189.6840  176.5510  141.9930 N   0  0  1  0  0  0  0  0  0  0  0  0
  187.0990  178.5700  140.5500 N   0  0  0  0  0  0  0  0  0  0  0  0
  189.7050  177.6660  139.8190 C   0  0  0  0  0  0  0  0  0  0  0  0
  189.2480  178.2040  137.5010 C   0  0  0  0  0  3  0  0  0  0  0  0
  191.0940  176.7250  138.0540 C   0  0  0  0  0  0  0  0  0  0  0  0
  190.3210  177.4020  137.1010 C   0  0  0  0  0  3  0  0  0  0  0  0
  188.9390  178.3340  138.8580 C   0  0  0  0  0  3  0  0  0  0  0  0
  190.7800  176.8620  139.4140 C   0  0  0  0  0  3  0  0  0  0  0  0
  193.5800  174.0980  137.2470 C   0  0  0  0  0  0  0  0  0  0  0  0
  192.1920  175.8970  137.6400 N   0  0  0  0  0  0  0  0  0  0  0  0
  191.2590  173.9730  136.4440 C   0  0  0  0  0  1  0  0  0  0  0  0
  192.1630  174.4300  137.5770 C   0  0  1  0  0  3  0  0  0  0  0  0
  193.4630  176.4200  137.3550 N   0  0  0  0  0  2  0  0  0  0  0  0
  194.0410  172.9390  137.0680 O   0  0  0  0  0  0  0  0  0  0  0  0
  194.3380  175.3280  137.1570 C   0  0  0  0  0  0  0  0  0  0  0  0
  195.4760  175.4420  136.5560 N   0  0  0  0  0  2  0  0  0  0  0  0
  184.6540  179.8850  139.4000 O   0  0  0  0  0  0  0  0  0  0  0  0
  184.6190  179.1070  140.5510 C   0  0  0  0  0  0  0  0  0  0  0  0
  183.5120  178.7190  141.0070 O   0  0  0  0  0  1  0  0  0  0  0  0
  189.5560  177.9160  144.8280 N   0  0  0  0  0  0  0  0  0  0  0  0
  190.4880  178.8410  144.4840 O   0  0  0  0  0  1  0  0  0  0  0  0
  189.7010  177.7080  146.2620 C   0  0  0  0  0  2  0  0  0  0  0  0
  187.3600  178.1470  146.3580 O   0  0  0  0  0  0  0  0  0  0  0  0
  188.3610  177.6150  146.9040 C   0  0  0  0  0  0  0  0  0  0  0  0
  188.2080  176.9110  148.0910 O   0  0  0  0  0  1  0  0  0  0  0  0
  1 12  1  6  0  0  0
  1  2  1  0  0  0  0
  1 10  1  0  0  0  0
  2  9  1  0  0  0  0
  3  8  2  0  0  0  0
  4  7  1  0  0  0  0
  6  5  1  6  0  0  0
  6  7  1  0  0  0  0
  7 29  1  6  0  0  0
  8  9  1  0  0  0  0
  9  5  1  6  0  0  0
 10  4  1  1  0  0  0
 10  6  1  0  0  0  0
 11  3  1  0  0  0  0
 11  2  2  0  0  0  0
 13 16  1  0  0  0  0
 14 17  2  0  0  0  0
 15 13  2  0  0  0  0
 15 14  1  0  0  0  0
 16 12  2  0  0  0  0
 17 12  1  0  0  0  0
 18 21  1  0  0  0  0
 19 14  1  0  0  0  0
 21 20  1  6  0  0  0
 21 19  1  0  0  0  0
 22 19  1  0  0  0  0
 23 18  2  0  0  0  0
 24 18  1  0  0  0  0
 24 22  1  0  0  0  0
 25 24  2  0  0  0  0
 26 27  2  0  0  0  0
 27 28  1  0  0  0  0
 27  3  1  0  0  0  0
 29 31  1  0  0  0  0
 30 29  1  0  0  0  0
 31 33  1  0  0  0  0
 32 33  2  0  0  0  0
 33 34  1  0  0  0  0
M  END
>  <MODEL>
1

>  <REMARK>
 VINA RESULT:      -9.1      0.000      0.000
  Name = 
  6 active torsions:
  status: ('A' for Active; 'I' for Inactive)
    1  A    between atoms: N_3  and  C_5
    2  A    between atoms: N_3  and  C_24
    3  A    between atoms: C_5  and  C_27
    4  A    between atoms: C_6  and  C_7
    5  A    between atoms: N_8  and  C_17
    6  A    between atoms: C_12  and  C_14
                            x       y       z     vdW  Elec       q    Type
                         _______ _______ _______ _____ _____    ______ ____

>  <TORSDO>
F 6

$$$$
=
 OpenBabel10232412333D

 34 38  0  0  1  0  0  0  0  0999 V2000
  189.3860  177.6670  140.9290 C   0  0  1  0  0  3  0  0  0  0  0  0
  188.1270  177.9760  141.6760 C   0  0  0  0  0  0  0  0  0  0  0  0
  186.0890  178.3190  142.2390 C   0  0  0  0  0  0  0  0  0  0  0  0
  191.3450  176.8250  141.8750 C   0  0  0  0  0  2  0  0  0  0  0  0
  188.4010  176.3270  143.3850 C   0  0  0  0  0  2  0  0  0  0  0  0
  189.7390  175.9110  142.7280 C   0  0  2  0  0  3  0  0  0  0  0  0
  191.0550  176.4070  143.3140 C   0  0  2  0  0  3  0  0  0  0  0  0
  186.6260  178.0090  143.3740 N   0  0  0  0  0  0  0  0  0  0  0  0
  188.0410  177.7760  143.1280 C   0  0  2  0  0  3  0  0  0  0  0  0
  190.0360  176.4140  141.3680 N   0  0  1  0  0  0  0  0  0  0  0  0
  186.9940  178.2960  141.1440 N   0  0  0  0  0  0  0  0  0  0  0  0
  189.1950  177.6610  139.4420 C   0  0  0  0  0  0  0  0  0  0  0  0
  189.0160  178.8820  137.3570 C   0  0  0  0  0  3  0  0  0  0  0  0
  188.7580  176.4660  137.3650 C   0  0  0  0  0  0  0  0  0  0  0  0
  188.7870  177.6850  136.6730 C   0  0  0  0  0  3  0  0  0  0  0  0
  189.2170  178.8700  138.7400 C   0  0  0  0  0  3  0  0  0  0  0  0
  188.9640  176.4620  138.7530 C   0  0  0  0  0  3  0  0  0  0  0  0
  188.7220  173.4100  135.2710 C   0  0  0  0  0  0  0  0  0  0  0  0
  188.5170  175.2390  136.6600 N   0  0  0  0  0  0  0  0  0  0  0  0
  190.5150  173.8420  136.8980 C   0  0  0  0  0  1  0  0  0  0  0  0
  189.5350  174.4770  135.9250 C   0  0  1  0  0  3  0  0  0  0  0  0
  187.2310  174.6990  136.5080 N   0  0  0  0  0  2  0  0  0  0  0  0
  189.1720  172.4870  134.5410 O   0  0  0  0  0  0  0  0  0  0  0  0
  187.3310  173.6020  135.6220 C   0  0  0  0  0  0  0  0  0  0  0  0
  186.4220  172.6890  135.5310 N   0  0  0  0  0  2  0  0  0  0  0  0
  183.8050  178.4930  143.1770 O   0  0  0  0  0  1  0  0  0  0  0  0
  184.6630  178.6220  142.0910 C   0  0  0  0  0  0  0  0  0  0  0  0
  184.2080  178.9990  140.9810 O   0  0  0  0  0  0  0  0  0  0  0  0
  190.8850  177.5840  144.1660 N   0  0  0  0  0  0  0  0  0  0  0  0
  191.5850  178.5990  143.5990 O   0  0  0  0  0  1  0  0  0  0  0  0
  191.5430  177.2930  145.4310 C   0  0  0  0  0  2  0  0  0  0  0  0
  190.7780  176.2570  147.4370 O   0  0  0  0  0  1  0  0  0  0  0  0
  190.5290  177.0520  146.4940 C   0  0  0  0  0  0  0  0  0  0  0  0
  189.3180  177.7310  146.4640 O   0  0  0  0  0  0  0  0  0  0  0  0
  1 12  1  6  0  0  0
  1 10  1  0  0  0  0
  1  2  1  0  0  0  0
  2  9  1  0  0  0  0
  3  8  2  0  0  0  0
  4  7  1  0  0  0  0
  6  7  1  0  0  0  0
  6  5  1  1  0  0  0
  7 29  1  1  0  0  0
  9  8  1  0  0  0  0
  9  5  1  6  0  0  0
 10  4  1  1  0  0  0
 10  6  1  0  0  0  0
 11  2  2  0  0  0  0
 11  3  1  0  0  0  0
 13 16  1  0  0  0  0
 14 17  2  0  0  0  0
 15 13  2  0  0  0  0
 15 14  1  0  0  0  0
 16 12  2  0  0  0  0
 17 12  1  0  0  0  0
 18 24  1  0  0  0  0
 18 21  1  0  0  0  0
 19 14  1  0  0  0  0
 21 19  1  0  0  0  0
 21 20  1  1  0  0  0
 22 19  1  0  0  0  0
 23 18  2  0  0  0  0
 24 22  1  0  0  0  0
 25 24  2  0  0  0  0
 27  3  1  0  0  0  0
 27 26  1  0  0  0  0
 28 27  2  0  0  0  0
 29 31  1  0  0  0  0
 30 29  1  0  0  0  0
 31 33  1  0  0  0  0
 33 32  1  0  0  0  0
 34 33  2  0  0  0  0
M  END
>  <MODEL>
2

>  <REMARK>
 VINA RESULT:      -8.8      2.411      3.210
  Name = 
  6 active torsions:
  status: ('A' for Active; 'I' for Inactive)
    1  A    between atoms: N_3  and  C_5
    2  A    between atoms: N_3  and  C_24
    3  A    between atoms: C_5  and  C_27
    4  A    between atoms: C_6  and  C_7
    5  A    between atoms: N_8  and  C_17
    6  A    between atoms: C_12  and  C_14
                            x       y       z     vdW  Elec       q    Type
                         _______ _______ _______ _____ _____    ______ ____

>  <TORSDO>
F 6

$$$$
=
 OpenBabel10232412333D

 34 38  0  0  1  0  0  0  0  0999 V2000
  189.4810  177.6860  140.6700 C   0  0  1  0  0  3  0  0  0  0  0  0
  188.1620  178.1360  141.2140 C   0  0  0  0  0  0  0  0  0  0  0  0
  186.0990  178.6570  141.4680 C   0  0  0  0  0  0  0  0  0  0  0  0
  191.2280  176.7930  141.9330 C   0  0  0  0  0  2  0  0  0  0  0  0
  188.0820  176.6140  143.0560 C   0  0  0  0  0  2  0  0  0  0  0  0
  189.4590  176.0580  142.6190 C   0  0  2  0  0  3  0  0  0  0  0  0
  190.7200  176.5110  143.3440 C   0  0  2  0  0  3  0  0  0  0  0  0
  186.4570  178.4030  142.6840 N   0  0  0  0  0  0  0  0  0  0  0  0
  187.8700  178.0580  142.6510 C   0  0  2  0  0  3  0  0  0  0  0  0
  189.9700  176.4310  141.2810 N   0  0  1  0  0  0  0  0  0  0  0  0
  187.1370  178.4870  140.5110 N   0  0  0  0  0  0  0  0  0  0  0  0
  189.4870  177.5740  139.1750 C   0  0  0  0  0  0  0  0  0  0  0  0
  189.2590  178.6250  137.0050 C   0  0  0  0  0  3  0  0  0  0  0  0
  189.6450  176.2310  137.1500 C   0  0  0  0  0  0  0  0  0  0  0  0
  189.4400  177.3870  136.3830 C   0  0  0  0  0  3  0  0  0  0  0  0
  189.2800  178.7190  138.3990 C   0  0  0  0  0  3  0  0  0  0  0  0
  189.6680  176.3340  138.5490 C   0  0  0  0  0  3  0  0  0  0  0  0
  190.6470  173.2230  135.2320 C   0  0  0  0  0  0  0  0  0  0  0  0
  189.8250  174.9600  136.5090 N   0  0  0  0  0  0  0  0  0  0  0  0
  192.1430  174.2610  136.8860 C   0  0  0  0  0  1  0  0  0  0  0  0
  191.0620  174.5170  135.8490 C   0  0  1  0  0  3  0  0  0  0  0  0
  188.7760  174.0420  136.3480 N   0  0  0  0  0  2  0  0  0  0  0  0
  191.3920  172.4530  134.5690 O   0  0  0  0  0  0  0  0  0  0  0  0
  189.2490  172.9920  135.5290 C   0  0  0  0  0  0  0  0  0  0  0  0
  188.6700  171.8400  135.4620 N   0  0  0  0  0  2  0  0  0  0  0  0
  184.4970  179.7840  139.9550 O   0  0  0  0  0  0  0  0  0  0  0  0
  184.7320  179.0410  141.1050 C   0  0  0  0  0  0  0  0  0  0  0  0
  183.7660  178.7000  141.8340 O   0  0  0  0  0  1  0  0  0  0  0  0
  190.5290  177.7610  144.0800 N   0  0  0  0  0  0  0  0  0  0  0  0
  191.3900  178.6720  143.5620 O   0  0  0  0  0  1  0  0  0  0  0  0
  190.9670  177.5210  145.4480 C   0  0  0  0  0  2  0  0  0  0  0  0
  188.7270  177.9990  146.1060 O   0  0  0  0  0  0  0  0  0  0  0  0
  189.7880  177.3670  146.3450 C   0  0  0  0  0  0  0  0  0  0  0  0
  189.8470  176.4990  147.4270 O   0  0  0  0  0  1  0  0  0  0  0  0
  1 12  1  6  0  0  0
  1  2  1  0  0  0  0
  1 10  1  0  0  0  0
  2  9  1  0  0  0  0
  3  8  2  0  0  0  0
  4  7  1  0  0  0  0
  6  5  1  1  0  0  0
  6  7  1  0  0  0  0
  7 29  1  1  0  0  0
  9  8  1  0  0  0  0
  9  5  1  6  0  0  0
 10  4  1  1  0  0  0
 10  6  1  0  0  0  0
 11  2  2  0  0  0  0
 11  3  1  0  0  0  0
 13 16  1  0  0  0  0
 14 17  2  0  0  0  0
 15 13  2  0  0  0  0
 15 14  1  0  0  0  0
 16 12  2  0  0  0  0
 17 12  1  0  0  0  0
 18 24  1  0  0  0  0
 18 21  1  0  0  0  0
 19 14  1  0  0  0  0
 21 19  1  0  0  0  0
 21 20  1  1  0  0  0
 22 19  1  0  0  0  0
 23 18  2  0  0  0  0
 24 22  1  0  0  0  0
 25 24  2  0  0  0  0
 26 27  2  0  0  0  0
 27  3  1  0  0  0  0
 27 28  1  0  0  0  0
 29 31  1  0  0  0  0
 30 29  1  0  0  0  0
 31 33  1  0  0  0  0
 32 33  2  0  0  0  0
 33 34  1  0  0  0  0
M  END
>  <MODEL>
3

>  <REMARK>
 VINA RESULT:      -8.8      1.756      2.373
  Name = 
  6 active torsions:
  status: ('A' for Active; 'I' for Inactive)
    1  A    between atoms: N_3  and  C_5
    2  A    between atoms: N_3  and  C_24
    3  A    between atoms: C_5  and  C_27
    4  A    between atoms: C_6  and  C_7
    5  A    between atoms: N_8  and  C_17
    6  A    between atoms: C_12  and  C_14
                            x       y       z     vdW  Elec       q    Type
                         _______ _______ _______ _____ _____    ______ ____

>  <TORSDO>
F 6

$$$$
=
 OpenBabel10232412333D

 34 38  0  0  1  0  0  0  0  0999 V2000
  188.8350  177.9830  141.2650 C   0  0  1  0  0  3  0  0  0  0  0  0
  187.6920  178.1050  142.2230 C   0  0  0  0  0  0  0  0  0  0  0  0
  185.7510  178.2320  143.1190 C   0  0  0  0  0  0  0  0  0  0  0  0
  190.9530  177.1570  141.7880 C   0  0  0  0  0  2  0  0  0  0  0  0
  188.3020  176.2660  143.6250 C   0  0  0  0  0  2  0  0  0  0  0  0
  189.5410  176.0320  142.7280 C   0  0  2  0  0  3  0  0  0  0  0  0
  190.9070  176.5340  143.1800 C   0  0  2  0  0  3  0  0  0  0  0  0
  186.4690  177.8110  144.1090 N   0  0  0  0  0  0  0  0  0  0  0  0
  187.8390  177.7080  143.6290 C   0  0  2  0  0  3  0  0  0  0  0  0
  189.6030  176.7290  141.4240 N   0  0  1  0  0  0  0  0  0  0  0  0
  186.4780  178.4150  141.9120 N   0  0  0  0  0  0  0  0  0  0  0  0
  188.4180  178.1600  139.8350 C   0  0  0  0  0  0  0  0  0  0  0  0
  188.9770  178.7890  137.5640 C   0  0  0  0  0  3  0  0  0  0  0  0
  186.7050  178.1190  138.1060 C   0  0  0  0  0  0  0  0  0  0  0  0
  187.6560  178.5520  137.1710 C   0  0  0  0  0  3  0  0  0  0  0  0
  189.3570  178.5960  138.8950 C   0  0  0  0  0  3  0  0  0  0  0  0
  187.0950  177.9240  139.4390 C   0  0  0  0  0  3  0  0  0  0  0  0
  183.0700  177.5250  137.7010 C   0  0  0  0  0  0  0  0  0  0  0  0
  185.3490  177.8820  137.7000 N   0  0  0  0  0  0  0  0  0  0  0  0
  183.9350  179.5230  138.8460 C   0  0  0  0  0  1  0  0  0  0  0  0
  184.1710  178.0480  138.5630 C   0  0  1  0  0  3  0  0  0  0  0  0
  185.0210  177.3480  136.4450 N   0  0  0  0  0  2  0  0  0  0  0  0
  181.8500  177.4840  138.0130 O   0  0  0  0  0  0  0  0  0  0  0  0
  183.6330  177.0800  136.4440 C   0  0  0  0  0  0  0  0  0  0  0  0
  182.9520  176.9090  135.3600 N   0  0  0  0  0  2  0  0  0  0  0  0
  183.6980  178.5150  144.4720 O   0  0  0  0  0  1  0  0  0  0  0  0
  184.3060  178.4540  143.2250 C   0  0  0  0  0  0  0  0  0  0  0  0
  183.6100  178.5900  142.1860 O   0  0  0  0  0  0  0  0  0  0  0  0
  190.8140  177.5730  144.2050 N   0  0  0  0  0  0  0  0  0  0  0  0
  191.4390  178.6760  143.7210 O   0  0  0  0  0  1  0  0  0  0  0  0
  191.6070  177.1240  145.3410 C   0  0  0  0  0  2  0  0  0  0  0  0
  191.0910  176.1660  147.4620 O   0  0  0  0  0  1  0  0  0  0  0  0
  190.7340  176.9360  146.5330 C   0  0  0  0  0  0  0  0  0  0  0  0
  189.5390  177.6360  146.6360 O   0  0  0  0  0  0  0  0  0  0  0  0
  1 12  1  6  0  0  0
  1 10  1  0  0  0  0
  1  2  1  0  0  0  0
  2  9  1  0  0  0  0
  3 27  1  0  0  0  0
  3  8  2  0  0  0  0
  4  7  1  0  0  0  0
  6  7  1  0  0  0  0
  6  5  1  1  0  0  0
  7 29  1  1  0  0  0
  9  5  1  6  0  0  0
  9  8  1  0  0  0  0
 10  4  1  1  0  0  0
 10  6  1  0  0  0  0
 11  2  2  0  0  0  0
 11  3  1  0  0  0  0
 13 16  1  0  0  0  0
 14 17  2  0  0  0  0
 15 13  2  0  0  0  0
 15 14  1  0  0  0  0
 16 12  2  0  0  0  0
 17 12  1  0  0  0  0
 18 23  2  0  0  0  0
 18 21  1  0  0  0  0
 19 14  1  0  0  0  0
 19 21  1  0  0  0  0
 21 20  1  6  0  0  0
 22 19  1  0  0  0  0
 24 22  1  0  0  0  0
 24 18  1  0  0  0  0
 25 24  2  0  0  0  0
 27 26  1  0  0  0  0
 28 27  2  0  0  0  0
 29 31  1  0  0  0  0
 30 29  1  0  0  0  0
 31 33  1  0  0  0  0
 33 34  2  0  0  0  0
 33 32  1  0  0  0  0
M  END
>  <MODEL>
4

>  <REMARK>
 VINA RESULT:      -8.7      3.406      5.431
  Name = 
  6 active torsions:
  status: ('A' for Active; 'I' for Inactive)
    1  A    between atoms: N_3  and  C_5
    2  A    between atoms: N_3  and  C_24
    3  A    between atoms: C_5  and  C_27
    4  A    between atoms: C_6  and  C_7
    5  A    between atoms: N_8  and  C_17
    6  A    between atoms: C_12  and  C_14
                            x       y       z     vdW  Elec       q    Type
                         _______ _______ _______ _____ _____    ______ ____

>  <TORSDO>
F 6

$$$$
=
 OpenBabel10232412333D

 34 38  0  0  1  0  0  0  0  0999 V2000
  183.9390  178.7890  141.4170 C   0  0  1  0  0  3  0  0  0  0  0  0
  184.8860  178.7270  140.2600 C   0  0  0  0  0  0  0  0  0  0  0  0
  186.5940  178.4360  139.0000 C   0  0  0  0  0  0  0  0  0  0  0  0
  181.6130  178.6830  141.2630 C   0  0  0  0  0  2  0  0  0  0  0  0
  183.5170  177.3710  138.8450 C   0  0  0  0  0  2  0  0  0  0  0  0
  182.4340  177.3620  139.9510 C   0  0  2  0  0  3  0  0  0  0  0  0
  181.2330  178.2920  139.8380 C   0  0  2  0  0  3  0  0  0  0  0  0
  185.6260  178.3910  138.1440 N   0  0  0  0  0  0  0  0  0  0  0  0
  184.3920  178.6070  138.8830 C   0  0  2  0  0  3  0  0  0  0  0  0
  182.8090  177.8420  141.3000 N   0  0  1  0  0  0  0  0  0  0  0  0
  186.1720  178.6310  140.3430 N   0  0  0  0  0  0  0  0  0  0  0  0
  184.6230  178.6220  142.7400 C   0  0  0  0  0  0  0  0  0  0  0  0
  184.6020  178.8940  145.1470 C   0  0  0  0  0  3  0  0  0  0  0  0
  186.5670  177.9730  144.0550 C   0  0  0  0  0  0  0  0  0  0  0  0
  185.8970  178.3730  145.2190 C   0  0  0  0  0  3  0  0  0  0  0  0
  183.9670  179.0210  143.9080 C   0  0  0  0  0  3  0  0  0  0  0  0
  185.9220  178.1010  142.8160 C   0  0  0  0  0  3  0  0  0  0  0  0
  190.1190  177.1100  144.6630 C   0  0  0  0  0  0  0  0  0  0  0  0
  187.8990  177.4440  144.1330 N   0  0  0  0  0  0  0  0  0  0  0  0
  188.4970  177.2880  146.5040 C   0  0  0  0  0  1  0  0  0  0  0  0
  188.8990  177.8260  145.1400 C   0  0  1  0  0  3  0  0  0  0  0  0
  188.4210  176.5750  143.1630 N   0  0  0  0  0  2  0  0  0  0  0  0
  191.2440  177.1190  145.2290 O   0  0  0  0  0  0  0  0  0  0  0  0
  189.7950  176.3950  143.4470 C   0  0  0  0  0  0  0  0  0  0  0  0
  190.4860  175.4130  142.9710 N   0  0  0  0  0  2  0  0  0  0  0  0
  188.6150  179.1640  137.7710 O   0  0  0  0  0  0  0  0  0  0  0  0
  187.9980  178.2550  138.6220 C   0  0  0  0  0  0  0  0  0  0  0  0
  188.6510  177.2760  139.0660 O   0  0  0  0  0  1  0  0  0  0  0  0
  181.4660  179.4060  138.9190 N   0  0  0  0  0  0  0  0  0  0  0  0
  181.1930  180.5510  139.5950 O   0  0  0  0  0  1  0  0  0  0  0  0
  180.4650  179.3070  137.8670 C   0  0  0  0  0  2  0  0  0  0  0  0
  181.0310  180.5640  135.9220 O   0  0  0  0  0  0  0  0  0  0  0  0
  181.1070  179.4660  136.5320 C   0  0  0  0  0  0  0  0  0  0  0  0
  181.8190  178.4130  135.9750 O   0  0  0  0  0  1  0  0  0  0  0  0
  1 12  1  1  0  0  0
  2 11  2  0  0  0  0
  2  1  1  0  0  0  0
  3 11  1  0  0  0  0
  6  5  1  6  0  0  0
  6 10  1  0  0  0  0
  7 29  1  6  0  0  0
  7  6  1  0  0  0  0
  7  4  1  0  0  0  0
  8  9  1  0  0  0  0
  8  3  2  0  0  0  0
  9  5  1  1  0  0  0
  9  2  1  0  0  0  0
 10  4  1  6  0  0  0
 10  1  1  0  0  0  0
 12 17  2  0  0  0  0
 12 16  1  0  0  0  0
 13 15  1  0  0  0  0
 14 19  1  0  0  0  0
 14 15  2  0  0  0  0
 16 13  2  0  0  0  0
 17 14  1  0  0  0  0
 18 21  1  0  0  0  0
 18 23  2  0  0  0  0
 19 21  1  0  0  0  0
 21 20  1  1  0  0  0
 22 24  1  0  0  0  0
 22 19  1  0  0  0  0
 24 18  1  0  0  0  0
 25 24  2  0  0  0  0
 26 27  2  0  0  0  0
 27  3  1  0  0  0  0
 27 28  1  0  0  0  0
 29 30  1  0  0  0  0
 31 29  1  0  0  0  0
 32 33  2  0  0  0  0
 33 31  1  0  0  0  0
 34 33  1  0  0  0  0
M  END
>  <MODEL>
5

>  <REMARK>
 VINA RESULT:      -8.5      3.824      8.277
  Name = 
  6 active torsions:
  status: ('A' for Active; 'I' for Inactive)
    1  A    between atoms: N_3  and  C_5
    2  A    between atoms: N_3  and  C_24
    3  A    between atoms: C_5  and  C_27
    4  A    between atoms: C_6  and  C_7
    5  A    between atoms: N_8  and  C_17
    6  A    between atoms: C_12  and  C_14
                            x       y       z     vdW  Elec       q    Type
                         _______ _______ _______ _____ _____    ______ ____

>  <TORSDO>
F 6

$$$$
=
 OpenBabel10232412333D

 34 38  0  0  1  0  0  0  0  0999 V2000
  189.7810  177.1230  140.5750 C   0  0  1  0  0  3  0  0  0  0  0  0
  188.3900  177.5880  140.2780 C   0  0  0  0  0  0  0  0  0  0  0  0
  186.4700  178.5370  140.3380 C   0  0  0  0  0  0  0  0  0  0  0  0
  191.3400  176.4290  138.9850 C   0  0  0  0  0  2  0  0  0  0  0  0
  188.8480  178.4820  138.1080 C   0  0  0  0  0  2  0  0  0  0  0  0
  190.3230  178.0400  138.2700 C   0  0  2  0  0  3  0  0  0  0  0  0
  190.8060  176.7620  137.5950 C   0  0  2  0  0  3  0  0  0  0  0  0
  186.6080  178.3040  139.0730 N   0  0  0  0  0  0  0  0  0  0  0  0
  187.8830  177.6240  138.9000 C   0  0  2  0  0  3  0  0  0  0  0  0
  190.7850  177.6270  139.6140 N   0  0  1  0  0  0  0  0  0  0  0  0
  187.5740  178.1160  141.1280 N   0  0  0  0  0  0  0  0  0  0  0  0
  190.2080  177.4240  141.9800 C   0  0  0  0  0  0  0  0  0  0  0  0
  191.9750  177.9210  143.5610 C   0  0  0  0  0  3  0  0  0  0  0  0
  189.6860  177.6930  144.3430 C   0  0  0  0  0  0  0  0  0  0  0  0
  191.0420  177.9350  144.6020 C   0  0  0  0  0  3  0  0  0  0  0  0
  191.5580  177.6630  142.2520 C   0  0  0  0  0  3  0  0  0  0  0  0
  189.2750  177.4380  143.0260 C   0  0  0  0  0  3  0  0  0  0  0  0
  186.8410  178.0460  146.6910 C   0  0  0  0  0  0  0  0  0  0  0  0
  188.7320  177.7020  145.4160 N   0  0  0  0  0  0  0  0  0  0  0  0
  186.5870  176.9440  144.5070 C   0  0  0  0  0  1  0  0  0  0  0  0
  187.3090  178.0400  145.2740 C   0  0  1  0  0  3  0  0  0  0  0  0
  189.1010  177.4950  146.7530 N   0  0  0  0  0  2  0  0  0  0  0  0
  185.6620  178.2680  147.0740 O   0  0  0  0  0  0  0  0  0  0  0  0
  187.9640  177.7470  147.5540 C   0  0  0  0  0  0  0  0  0  0  0  0
  187.8570  177.3290  148.7720 N   0  0  0  0  0  2  0  0  0  0  0  0
  185.2450  179.5120  142.2540 O   0  0  0  0  0  1  0  0  0  0  0  0
  185.2990  179.2180  140.8970 C   0  0  0  0  0  0  0  0  0  0  0  0
  184.3380  179.5380  140.1510 O   0  0  0  0  0  0  0  0  0  0  0  0
  189.7090  175.8630  137.2370 N   0  0  0  0  0  0  0  0  0  0  0  0
  190.0180  174.6340  137.7210 O   0  0  0  0  0  1  0  0  0  0  0  0
  189.7130  175.7410  135.7860 C   0  0  0  0  0  2  0  0  0  0  0  0
  187.3510  175.8860  135.5090 O   0  0  0  0  0  1  0  0  0  0  0  0
  188.4810  176.3540  135.2160 C   0  0  0  0  0  0  0  0  0  0  0  0
  188.5780  177.4630  134.3870 O   0  0  0  0  0  0  0  0  0  0  0  0
  1 12  1  1  0  0  0
  2  1  1  0  0  0  0
  2 11  2  0  0  0  0
  3 27  1  0  0  0  0
  3 11  1  0  0  0  0
  6  5  1  1  0  0  0
  6 10  1  0  0  0  0
  7 29  1  1  0  0  0
  7  6  1  0  0  0  0
  7  4  1  0  0  0  0
  8  3  2  0  0  0  0
  9  5  1  6  0  0  0
  9  8  1  0  0  0  0
  9  2  1  0  0  0  0
 10  4  1  6  0  0  0
 10  1  1  0  0  0  0
 12 16  2  0  0  0  0
 12 17  1  0  0  0  0
 13 15  2  0  0  0  0
 14 15  1  0  0  0  0
 14 19  1  0  0  0  0
 16 13  1  0  0  0  0
 17 14  2  0  0  0  0
 18 23  2  0  0  0  0
 18 24  1  0  0  0  0
 19 22  1  0  0  0  0
 21 20  1  6  0  0  0
 21 19  1  0  0  0  0
 21 18  1  0  0  0  0
 22 24  1  0  0  0  0
 24 25  2  0  0  0  0
 27 26  1  0  0  0  0
 28 27  2  0  0  0  0
 29 30  1  0  0  0  0
 31 29  1  0  0  0  0
 33 32  1  0  0  0  0
 33 31  1  0  0  0  0
 34 33  2  0  0  0  0
M  END
>  <MODEL>
6

>  <REMARK>
 VINA RESULT:      -8.4      2.419      7.926
  Name = 
  6 active torsions:
  status: ('A' for Active; 'I' for Inactive)
    1  A    between atoms: N_3  and  C_5
    2  A    between atoms: N_3  and  C_24
    3  A    between atoms: C_5  and  C_27
    4  A    between atoms: C_6  and  C_7
    5  A    between atoms: N_8  and  C_17
    6  A    between atoms: C_12  and  C_14
                            x       y       z     vdW  Elec       q    Type
                         _______ _______ _______ _____ _____    ______ ____

>  <TORSDO>
F 6

$$$$
=
 OpenBabel10232412333D

 34 38  0  0  1  0  0  0  0  0999 V2000
  189.9380  177.4190  141.3670 C   0  0  1  0  0  3  0  0  0  0  0  0
  188.5420  177.9490  141.2790 C   0  0  0  0  0  0  0  0  0  0  0  0
  186.5780  178.5030  140.6260 C   0  0  0  0  0  0  0  0  0  0  0  0
  191.0040  176.7420  143.3290 C   0  0  0  0  0  2  0  0  0  0  0  0
  187.6630  176.7420  143.1460 C   0  0  0  0  0  2  0  0  0  0  0  0
  189.0650  176.1250  143.3690 C   0  0  2  0  0  3  0  0  0  0  0  0
  189.9740  176.6890  144.4540 C   0  0  2  0  0  3  0  0  0  0  0  0
  186.4220  178.4480  141.9090 N   0  0  0  0  0  0  0  0  0  0  0  0
  187.7140  178.1030  142.4820 C   0  0  2  0  0  3  0  0  0  0  0  0
  190.0750  176.2780  142.2980 N   0  0  1  0  0  0  0  0  0  0  0  0
  187.8910  178.1820  140.1880 N   0  0  0  0  0  0  0  0  0  0  0  0
  190.5140  177.0690  140.0280 C   0  0  0  0  0  0  0  0  0  0  0  0
  192.4270  176.9550  138.5450 C   0  0  0  0  0  3  0  0  0  0  0  0
  190.2350  176.2880  137.7380 C   0  0  0  0  0  0  0  0  0  0  0  0
  191.6070  176.4750  137.5210 C   0  0  0  0  0  3  0  0  0  0  0  0
  191.8810  177.2540  139.7970 C   0  0  0  0  0  3  0  0  0  0  0  0
  189.6950  176.5870  138.9980 C   0  0  0  0  0  3  0  0  0  0  0  0
  187.6980  175.5550  135.1390 C   0  0  0  0  0  0  0  0  0  0  0  0
  189.3950  175.7990  136.6820 N   0  0  0  0  0  0  0  0  0  0  0  0
  188.9570  177.6680  135.1580 C   0  0  0  0  0  1  0  0  0  0  0  0
  188.3390  176.5760  136.0170 C   0  0  1  0  0  3  0  0  0  0  0  0
  189.4270  174.4650  136.2500 N   0  0  0  0  0  2  0  0  0  0  0  0
  186.7400  175.7640  134.3470 O   0  0  0  0  0  0  0  0  0  0  0  0
  188.3640  174.2850  135.3360 C   0  0  0  0  0  0  0  0  0  0  0  0
  188.3110  173.2960  134.5070 N   0  0  0  0  0  2  0  0  0  0  0  0
  185.1280  177.9250  138.7050 O   0  0  0  0  0  0  0  0  0  0  0  0
  185.4840  178.8220  139.7060 C   0  0  0  0  0  0  0  0  0  0  0  0
  184.8610  179.9100  139.8160 O   0  0  0  0  0  1  0  0  0  0  0  0
  189.5920  178.0410  144.8630 N   0  0  0  0  0  0  0  0  0  0  0  0
  190.5760  178.8810  144.4550 O   0  0  0  0  0  1  0  0  0  0  0  0
  189.6130  178.0670  146.3190 C   0  0  0  0  0  2  0  0  0  0  0  0
  187.2300  178.0630  146.3710 O   0  0  0  0  0  0  0  0  0  0  0  0
  188.3000  177.6170  146.8590 C   0  0  0  0  0  0  0  0  0  0  0  0
  188.2560  176.6780  147.8810 O   0  0  0  0  0  1  0  0  0  0  0  0
  1 12  1  6  0  0  0
  1 10  1  0  0  0  0
  2  1  1  0  0  0  0
  2  9  1  0  0  0  0
  3  8  2  0  0  0  0
  4  7  1  0  0  0  0
  6  5  1  6  0  0  0
  6  7  1  0  0  0  0
  7 29  1  6  0  0  0
  8  9  1  0  0  0  0
  9  5  1  6  0  0  0
 10  4  1  1  0  0  0
 10  6  1  0  0  0  0
 11  3  1  0  0  0  0
 11  2  2  0  0  0  0
 13 16  2  0  0  0  0
 14 17  1  0  0  0  0
 15 14  2  0  0  0  0
 15 13  1  0  0  0  0
 16 12  1  0  0  0  0
 17 12  2  0  0  0  0
 18 24  1  0  0  0  0
 18 21  1  0  0  0  0
 19 14  1  0  0  0  0
 21 20  1  6  0  0  0
 21 19  1  0  0  0  0
 22 19  1  0  0  0  0
 23 18  2  0  0  0  0
 24 22  1  0  0  0  0
 25 24  2  0  0  0  0
 26 27  2  0  0  0  0
 27 28  1  0  0  0  0
 27  3  1  0  0  0  0
 29 31  1  0  0  0  0
 30 29  1  0  0  0  0
 31 33  1  0  0  0  0
 32 33  2  0  0  0  0
 33 34  1  0  0  0  0
M  END
>  <MODEL>
7

>  <REMARK>
 VINA RESULT:      -8.1      2.334      3.104
  Name = 
  6 active torsions:
  status: ('A' for Active; 'I' for Inactive)
    1  A    between atoms: N_3  and  C_5
    2  A    between atoms: N_3  and  C_24
    3  A    between atoms: C_5  and  C_27
    4  A    between atoms: C_6  and  C_7
    5  A    between atoms: N_8  and  C_17
    6  A    between atoms: C_12  and  C_14
                            x       y       z     vdW  Elec       q    Type
                         _______ _______ _______ _____ _____    ______ ____

>  <TORSDO>
F 6

$$$$
=
 OpenBabel10232412333D

 34 38  0  0  1  0  0  0  0  0999 V2000
  187.2940  177.6450  145.2970 C   0  0  1  0  0  3  0  0  0  0  0  0
  188.1860  177.3750  144.1260 C   0  0  0  0  0  0  0  0  0  0  0  0
  189.0570  177.2690  142.1720 C   0  0  0  0  0  0  0  0  0  0  0  0
  187.9920  177.8080  147.5170 C   0  0  0  0  0  2  0  0  0  0  0  0
  190.1530  178.3920  145.0300 C   0  0  0  0  0  2  0  0  0  0  0  0
  189.3550  178.7230  146.3150 C   0  0  2  0  0  3  0  0  0  0  0  0
  189.5180  177.8470  147.5500 C   0  0  2  0  0  3  0  0  0  0  0  0
  190.0970  177.1400  142.9300 N   0  0  0  0  0  0  0  0  0  0  0  0
  189.6290  177.1680  144.3070 C   0  0  2  0  0  3  0  0  0  0  0  0
  187.8830  178.5800  146.2800 N   0  0  1  0  0  0  0  0  0  0  0  0
  187.8380  177.4340  142.8840 N   0  0  0  0  0  0  0  0  0  0  0  0
  185.9260  178.1080  144.8930 C   0  0  0  0  0  0  0  0  0  0  0  0
  183.6870  178.7870  145.5160 C   0  0  0  0  0  3  0  0  0  0  0  0
  184.2950  178.6490  143.1680 C   0  0  0  0  0  0  0  0  0  0  0  0
  183.3490  178.9200  144.1670 C   0  0  0  0  0  3  0  0  0  0  0  0
  184.9730  178.3780  145.8790 C   0  0  0  0  0  3  0  0  0  0  0  0
  185.5850  178.2420  143.5400 C   0  0  0  0  0  3  0  0  0  0  0  0
  182.9890  178.4830  139.7050 C   0  0  0  0  0  0  0  0  0  0  0  0
  183.9430  178.7820  141.7830 N   0  0  0  0  0  0  0  0  0  0  0  0
  181.4970  178.7870  141.6370 C   0  0  0  0  0  1  0  0  0  0  0  0
  182.7840  178.1450  141.1440 C   0  0  1  0  0  3  0  0  0  0  0  0
  184.7560  179.4590  140.8620 N   0  0  0  0  0  2  0  0  0  0  0  0
  182.2210  178.1630  138.7580 O   0  0  0  0  0  0  0  0  0  0  0  0
  184.2110  179.2470  139.5750 C   0  0  0  0  0  0  0  0  0  0  0  0
  184.5030  179.9890  138.5590 N   0  0  0  0  0  2  0  0  0  0  0  0
  188.1680  177.9510  139.9650 O   0  0  0  0  0  0  0  0  0  0  0  0
  189.1370  177.2900  140.7090 C   0  0  0  0  0  0  0  0  0  0  0  0
  190.0840  176.7080  140.1200 O   0  0  0  0  0  1  0  0  0  0  0  0
  190.0720  176.5290  147.2390 N   0  0  0  0  0  0  0  0  0  0  0  0
  189.2780  175.6050  147.8360 O   0  0  0  0  0  1  0  0  0  0  0  0
  191.3650  176.4430  147.9020 C   0  0  0  0  0  2  0  0  0  0  0  0
  193.4710  175.4130  147.4760 O   0  0  0  0  0  1  0  0  0  0  0  0
  192.3470  175.7500  147.0230 C   0  0  0  0  0  0  0  0  0  0  0  0
  192.0100  175.4450  145.7120 O   0  0  0  0  0  0  0  0  0  0  0  0
  1 12  1  6  0  0  0
  1 10  1  0  0  0  0
  2  9  1  0  0  0  0
  2  1  1  0  0  0  0
  3 11  1  0  0  0  0
  3  8  2  0  0  0  0
  4  7  1  0  0  0  0
  6  5  1  6  0  0  0
  6  7  1  0  0  0  0
  7 29  1  6  0  0  0
  8  9  1  0  0  0  0
  9  5  1  1  0  0  0
 10  6  1  0  0  0  0
 10  4  1  1  0  0  0
 11  2  2  0  0  0  0
 12 16  1  0  0  0  0
 13 16  2  0  0  0  0
 14 17  1  0  0  0  0
 14 15  2  0  0  0  0
 15 13  1  0  0  0  0
 17 12  2  0  0  0  0
 18 21  1  0  0  0  0
 19 14  1  0  0  0  0
 21 20  1  1  0  0  0
 21 19  1  0  0  0  0
 22 19  1  0  0  0  0
 23 18  2  0  0  0  0
 24 18  1  0  0  0  0
 24 22  1  0  0  0  0
 25 24  2  0  0  0  0
 26 27  2  0  0  0  0
 27  3  1  0  0  0  0
 28 27  1  0  0  0  0
 29 30  1  0  0  0  0
 29 31  1  0  0  0  0
 33 32  1  0  0  0  0
 33 31  1  0  0  0  0
 34 33  2  0  0  0  0
M  END
>  <MODEL>
8

>  <REMARK>
 VINA RESULT:      -7.8      3.710      7.356
  Name = 
  6 active torsions:
  status: ('A' for Active; 'I' for Inactive)
    1  A    between atoms: N_3  and  C_5
    2  A    between atoms: N_3  and  C_24
    3  A    between atoms: C_5  and  C_27
    4  A    between atoms: C_6  and  C_7
    5  A    between atoms: N_8  and  C_17
    6  A    between atoms: C_12  and  C_14
                            x       y       z     vdW  Elec       q    Type
                         _______ _______ _______ _____ _____    ______ ____

>  <TORSDO>
F 6

$$$$
=
 OpenBabel10232412333D

 34 38  0  0  1  0  0  0  0  0999 V2000
  191.4930  175.7730  138.0960 C   0  0  1  0  0  3  0  0  0  0  0  0
  190.7990  174.5940  137.4890 C   0  0  0  0  0  0  0  0  0  0  0  0
  189.3440  173.1950  136.7740 C   0  0  0  0  0  0  0  0  0  0  0  0
  193.6220  176.5310  137.5180 C   0  0  0  0  0  2  0  0  0  0  0  0
  191.8280  174.7390  135.3350 C   0  0  0  0  0  2  0  0  0  0  0  0
  192.6300  175.9660  135.8340 C   0  0  2  0  0  3  0  0  0  0  0  0
  194.0820  175.7950  136.2630 C   0  0  2  0  0  3  0  0  0  0  0  0
  190.3670  172.9080  136.0370 N   0  0  0  0  0  0  0  0  0  0  0  0
  191.4510  173.7860  136.4500 C   0  0  2  0  0  3  0  0  0  0  0  0
  192.2200  176.5990  137.1080 N   0  0  1  0  0  0  0  0  0  0  0  0
  189.5690  174.2580  137.6890 N   0  0  0  0  0  0  0  0  0  0  0  0
  190.5750  176.6300  138.9150 C   0  0  0  0  0  0  0  0  0  0  0  0
  188.8230  178.2990  139.0220 C   0  0  0  0  0  3  0  0  0  0  0  0
  189.7970  177.4410  141.0760 C   0  0  0  0  0  0  0  0  0  0  0  0
  188.8890  178.2820  140.4180 C   0  0  0  0  0  3  0  0  0  0  0  0
  189.6670  177.4760  138.2720 C   0  0  0  0  0  3  0  0  0  0  0  0
  190.6390  176.6160  140.3150 C   0  0  0  0  0  3  0  0  0  0  0  0
  189.3890  177.7090  144.7490 C   0  0  0  0  0  0  0  0  0  0  0  0
  189.8660  177.4300  142.5100 N   0  0  0  0  0  0  0  0  0  0  0  0
  187.7420  176.5390  143.3460 C   0  0  0  0  0  1  0  0  0  0  0  0
  188.7330  177.6900  143.4080 C   0  0  1  0  0  3  0  0  0  0  0  0
  191.0750  177.2770  143.2040 N   0  0  0  0  0  2  0  0  0  0  0  0
  188.8030  177.8800  145.8510 O   0  0  0  0  0  0  0  0  0  0  0  0
  190.8090  177.4910  144.5760 C   0  0  0  0  0  0  0  0  0  0  0  0
  191.6070  177.1010  145.5140 N   0  0  0  0  0  2  0  0  0  0  0  0
  186.9460  172.9700  137.3460 O   0  0  0  0  0  1  0  0  0  0  0  0
  188.0530  172.5130  136.6420 C   0  0  0  0  0  0  0  0  0  0  0  0
  187.9430  171.5100  135.8910 O   0  0  0  0  0  0  0  0  0  0  0  0
  194.4180  174.4060  136.5760 N   0  0  0  0  0  0  0  0  0  0  0  0
  194.7160  174.3500  137.8990 O   0  0  0  0  0  1  0  0  0  0  0  0
  195.6510  174.0960  135.8680 C   0  0  0  0  0  2  0  0  0  0  0  0
  197.3880  173.6600  137.4420 O   0  0  0  0  0  1  0  0  0  0  0  0
  196.8280  174.4970  136.6880 C   0  0  0  0  0  0  0  0  0  0  0  0
  197.3290  175.7890  136.5960 O   0  0  0  0  0  0  0  0  0  0  0  0
  1 12  1  6  0  0  0
  2 11  2  0  0  0  0
  2  1  1  0  0  0  0
  3 11  1  0  0  0  0
  6  5  1  1  0  0  0
  6  7  1  0  0  0  0
  6 10  1  0  0  0  0
  7 29  1  1  0  0  0
  7  4  1  0  0  0  0
  8  9  1  0  0  0  0
  8  3  2  0  0  0  0
  9  5  1  6  0  0  0
  9  2  1  0  0  0  0
 10  4  1  1  0  0  0
 10  1  1  0  0  0  0
 12 17  1  0  0  0  0
 13 15  2  0  0  0  0
 14 19  1  0  0  0  0
 15 14  1  0  0  0  0
 16 12  2  0  0  0  0
 16 13  1  0  0  0  0
 17 14  2  0  0  0  0
 18 23  2  0  0  0  0
 19 22  1  0  0  0  0
 19 21  1  0  0  0  0
 21 20  1  1  0  0  0
 21 18  1  0  0  0  0
 22 24  1  0  0  0  0
 24 18  1  0  0  0  0
 24 25  2  0  0  0  0
 27  3  1  0  0  0  0
 27 26  1  0  0  0  0
 28 27  2  0  0  0  0
 29 30  1  0  0  0  0
 31 29  1  0  0  0  0
 31 33  1  0  0  0  0
 33 32  1  0  0  0  0
 34 33  2  0  0  0  0
M  END
>  <MODEL>
9

>  <REMARK>
 VINA RESULT:      -7.6      2.594      8.416
  Name = 
  6 active torsions:
  status: ('A' for Active; 'I' for Inactive)
    1  A    between atoms: N_3  and  C_5
    2  A    between atoms: N_3  and  C_24
    3  A    between atoms: C_5  and  C_27
    4  A    between atoms: C_6  and  C_7
    5  A    between atoms: N_8  and  C_17
    6  A    between atoms: C_12  and  C_14
                            x       y       z     vdW  Elec       q    Type
                         _______ _______ _______ _____ _____    ______ ____

>  <TORSDO>
F 6

$$$$
