=
 OpenBabel10232409463D

 25 27  0  0  1  0  0  0  0  0999 V2000
  186.2880  178.1120  142.7260 C   0  0  0  0  0  0  0  0  0  0  0  0
  186.2580  178.4280  146.4990 C   0  0  0  0  0  0  0  0  0  0  0  0
  187.8330  177.4620  144.4920 N   0  0  0  0  0  0  0  0  0  0  0  0
  185.8450  178.5200  145.1240 C   0  0  0  0  0  0  0  0  0  0  0  0
  185.0090  178.6360  142.4170 C   0  0  0  0  0  0  0  0  0  0  0  0
  188.2160  177.3720  145.7890 N   0  0  0  0  0  0  0  0  0  0  0  0
  187.4960  177.8270  146.8280 C   0  0  0  0  0  0  0  0  0  0  0  0
  185.5160  178.8740  147.4170 O   0  0  0  0  0  0  0  0  0  0  0  0
  184.6040  179.0650  144.7870 C   0  0  0  0  0  3  0  0  0  0  0  0
  186.6830  178.0300  144.0770 C   0  0  0  0  0  0  0  0  0  0  0  0
  189.0340  176.7580  144.0700 C   0  0  0  0  0  2  0  0  0  0  0  0
  187.9020  177.7080  148.0150 O   0  0  0  0  0  0  0  0  0  0  0  0
  189.4430  176.6830  145.4140 C   0  0  1  0  0  3  0  0  0  0  0  0
  184.1940  179.1160  143.4560 C   0  0  0  0  0  3  0  0  0  0  0  0
  184.8920  179.6490  140.2670 O   0  0  0  0  0  0  0  0  0  0  0  0
  184.4920  178.7260  141.0280 C   0  0  0  0  0  0  0  0  0  0  0  0
  183.5360  177.7960  140.5270 N   0  0  0  0  0  1  0  0  0  0  0  0
  190.6560  177.5800  145.6540 C   0  0  1  0  0  3  0  0  0  0  0  0
  191.4610  177.0370  146.7370 N   0  0  0  0  0  1  0  0  0  0  0  0
  191.8290  178.9980  144.1310 O   0  0  0  0  0  1  0  0  0  0  0  0
  191.5050  177.6670  144.3960 C   0  0  0  0  0  2  0  0  0  0  0  0
  187.1380  177.6910  141.7010 O   0  0  0  0  0  0  0  0  0  0  0  0
  188.0310  178.5890  141.0590 C   0  0  0  0  0  2  0  0  0  0  0  0
  188.9530  179.1200  138.9260 O   0  0  0  0  0  1  0  0  0  0  0  0
  188.3210  178.1090  139.6500 C   0  0  0  0  0  2  0  0  0  0  0  0
  1 10  1  0  0  0  0
  2  7  1  0  0  0  0
  2  8  2  0  0  0  0
  3  6  1  0  0  0  0
  4  2  1  0  0  0  0
  5  1  2  0  0  0  0
  5 14  1  0  0  0  0
  6  7  1  0  0  0  0
  7 12  2  0  0  0  0
  9  4  1  0  0  0  0
 10  3  1  0  0  0  0
 10  4  2  0  0  0  0
 11  3  1  0  0  0  0
 11 13  1  0  0  0  0
 13 18  1  6  0  0  0
 13  6  1  0  0  0  0
 14  9  2  0  0  0  0
 15 16  2  0  0  0  0
 16  5  1  0  0  0  0
 17 16  1  0  0  0  0
 18 19  1  1  0  0  0
 20 21  1  0  0  0  0
 21 18  1  0  0  0  0
 22  1  1  0  0  0  0
 23 22  1  0  0  0  0
 24 25  1  0  0  0  0
 25 23  1  0  0  0  0
M  END
>  <MODEL>
1

>  <REMARK>
 VINA RESULT:      -8.2      0.000      0.000
  Name = 
  6 active torsions:
  status: ('A' for Active; 'I' for Inactive)
    1  A    between atoms: C_1  and  O_22
    2  A    between atoms: C_5  and  C_10
    3  A    between atoms: CA_15  and  C_20
    4  A    between atoms: CA_15  and  C_25
    5  A    between atoms: C_16  and  C_24
    6  A    between atoms: O_22  and  C_24
                            x       y       z     vdW  Elec       q    Type
                         _______ _______ _______ _____ _____    ______ ____

>  <TORSDO>
F 6

$$$$
=
 OpenBabel10232409463D

 25 27  0  0  1  0  0  0  0  0999 V2000
  185.5270  178.2060  143.9840 C   0  0  0  0  0  0  0  0  0  0  0  0
  188.2050  177.6630  146.6050 C   0  0  0  0  0  0  0  0  0  0  0  0
  187.7570  177.2250  143.9500 N   0  0  0  0  0  0  0  0  0  0  0  0
  186.9630  178.0480  145.9920 C   0  0  0  0  0  0  0  0  0  0  0  0
  184.4920  178.7430  144.7860 C   0  0  0  0  0  0  0  0  0  0  0  0
  188.9230  176.8580  144.5340 N   0  0  0  0  0  0  0  0  0  0  0  0
  189.2160  177.0440  145.8320 C   0  0  0  0  0  0  0  0  0  0  0  0
  188.3970  177.8660  147.8360 O   0  0  0  0  0  0  0  0  0  0  0  0
  185.9370  178.6140  146.7520 C   0  0  0  0  0  3  0  0  0  0  0  0
  186.7420  177.8340  144.5970 C   0  0  0  0  0  0  0  0  0  0  0  0
  188.1980  176.6750  142.6790 C   0  0  0  0  0  2  0  0  0  0  0  0
  190.3180  176.6740  146.3200 O   0  0  0  0  0  0  0  0  0  0  0  0
  189.4180  176.3130  143.2780 C   0  0  1  0  0  3  0  0  0  0  0  0
  184.7210  178.9490  146.1580 C   0  0  0  0  0  3  0  0  0  0  0  0
  183.0130  180.2560  143.6980 O   0  0  0  0  0  0  0  0  0  0  0  0
  183.1670  179.1260  144.2380 C   0  0  0  0  0  0  0  0  0  0  0  0
  182.0470  178.2500  144.3140 N   0  0  0  0  0  1  0  0  0  0  0  0
  190.5580  177.1720  142.7320 C   0  0  1  0  0  3  0  0  0  0  0  0
  191.8150  176.7640  143.3400 N   0  0  0  0  0  1  0  0  0  0  0  0
  191.8630  177.5550  140.7680 O   0  0  0  0  0  1  0  0  0  0  0  0
  190.6580  177.0170  141.2230 C   0  0  0  0  0  2  0  0  0  0  0  0
  185.3400  178.0540  142.6090 O   0  0  0  0  0  0  0  0  0  0  0  0
  185.6000  179.1160  141.7010 C   0  0  0  0  0  2  0  0  0  0  0  0
  184.7080  179.9750  139.6660 O   0  0  0  0  0  1  0  0  0  0  0  0
  185.0030  178.7940  140.3450 C   0  0  0  0  0  2  0  0  0  0  0  0
  1 10  2  0  0  0  0
  1  5  1  0  0  0  0
  2  8  2  0  0  0  0
  3  6  1  0  0  0  0
  3 10  1  0  0  0  0
  4  2  1  0  0  0  0
  4  9  2  0  0  0  0
  5 14  2  0  0  0  0
  6  7  1  0  0  0  0
  7 12  2  0  0  0  0
  7  2  1  0  0  0  0
 10  4  1  0  0  0  0
 11 13  1  0  0  0  0
 11  3  1  0  0  0  0
 13 18  1  6  0  0  0
 13  6  1  0  0  0  0
 14  9  1  0  0  0  0
 15 16  2  0  0  0  0
 16 17  1  0  0  0  0
 16  5  1  0  0  0  0
 18 19  1  1  0  0  0
 20 21  1  0  0  0  0
 21 18  1  0  0  0  0
 22  1  1  0  0  0  0
 23 22  1  0  0  0  0
 24 25  1  0  0  0  0
 25 23  1  0  0  0  0
M  END
>  <MODEL>
2

>  <REMARK>
 VINA RESULT:      -8.0      2.035      2.786
  Name = 
  6 active torsions:
  status: ('A' for Active; 'I' for Inactive)
    1  A    between atoms: C_1  and  O_22
    2  A    between atoms: C_5  and  C_10
    3  A    between atoms: CA_15  and  C_20
    4  A    between atoms: CA_15  and  C_25
    5  A    between atoms: C_16  and  C_24
    6  A    between atoms: O_22  and  C_24
                            x       y       z     vdW  Elec       q    Type
                         _______ _______ _______ _____ _____    ______ ____

>  <TORSDO>
F 6

$$$$
=
 OpenBabel10232409463D

 25 27  0  0  1  0  0  0  0  0999 V2000
  188.0490  177.3380  143.1360 C   0  0  0  0  0  0  0  0  0  0  0  0
  185.4480  178.4640  145.6470 C   0  0  0  0  0  0  0  0  0  0  0  0
  185.8400  178.3480  142.9500 N   0  0  0  0  0  0  0  0  0  0  0  0
  186.6670  177.9330  145.0990 C   0  0  0  0  0  0  0  0  0  0  0  0
  189.0930  176.9460  144.0090 C   0  0  0  0  0  0  0  0  0  0  0  0
  184.6970  178.8540  143.4710 N   0  0  0  0  0  0  0  0  0  0  0  0
  184.4320  178.9410  144.7850 C   0  0  0  0  0  0  0  0  0  0  0  0
  185.2830  178.5180  146.8970 O   0  0  0  0  0  0  0  0  0  0  0  0
  187.7000  177.5050  145.9370 C   0  0  0  0  0  3  0  0  0  0  0  0
  186.8580  177.8560  143.6860 C   0  0  0  0  0  0  0  0  0  0  0  0
  185.3800  178.6420  141.6030 C   0  0  0  0  0  2  0  0  0  0  0  0
  183.3510  179.4290  145.2110 O   0  0  0  0  0  0  0  0  0  0  0  0
  184.1830  179.1480  142.1410 C   0  0  1  0  0  3  0  0  0  0  0  0
  188.8930  177.0260  145.3980 C   0  0  0  0  0  3  0  0  0  0  0  0
  190.4520  175.2980  142.9630 O   0  0  0  0  0  0  0  0  0  0  0  0
  190.3950  176.4270  143.5230 C   0  0  0  0  0  0  0  0  0  0  0  0
  191.6000  177.1700  143.6810 N   0  0  0  0  0  1  0  0  0  0  0  0
  183.0120  178.2260  141.8030 C   0  0  1  0  0  3  0  0  0  0  0  0
  181.7740  178.7990  142.3070 N   0  0  0  0  0  1  0  0  0  0  0  0
  182.9510  176.6880  139.9760 O   0  0  0  0  0  1  0  0  0  0  0  0
  182.9020  178.0450  140.2970 C   0  0  0  0  0  2  0  0  0  0  0  0
  188.2050  177.2050  141.7550 O   0  0  0  0  0  0  0  0  0  0  0  0
  188.8770  178.1910  140.9840 C   0  0  0  0  0  2  0  0  0  0  0  0
  188.9300  179.0980  138.7810 O   0  0  0  0  0  1  0  0  0  0  0  0
  188.6360  177.9450  139.5080 C   0  0  0  0  0  2  0  0  0  0  0  0
  1 10  2  0  0  0  0
  1  5  1  0  0  0  0
  2  8  2  0  0  0  0
  3  6  1  0  0  0  0
  3 10  1  0  0  0  0
  4  2  1  0  0  0  0
  4  9  2  0  0  0  0
  5 14  2  0  0  0  0
  6  7  1  0  0  0  0
  7 12  2  0  0  0  0
  7  2  1  0  0  0  0
 10  4  1  0  0  0  0
 11 13  1  0  0  0  0
 11  3  1  0  0  0  0
 13 18  1  6  0  0  0
 13  6  1  0  0  0  0
 14  9  1  0  0  0  0
 15 16  2  0  0  0  0
 16 17  1  0  0  0  0
 16  5  1  0  0  0  0
 18 19  1  6  0  0  0
 20 21  1  0  0  0  0
 21 18  1  0  0  0  0
 22  1  1  0  0  0  0
 23 22  1  0  0  0  0
 24 25  1  0  0  0  0
 25 23  1  0  0  0  0
M  END
>  <MODEL>
3

>  <REMARK>
 VINA RESULT:      -7.8      1.950      5.576
  Name = 
  6 active torsions:
  status: ('A' for Active; 'I' for Inactive)
    1  A    between atoms: C_1  and  O_22
    2  A    between atoms: C_5  and  C_10
    3  A    between atoms: CA_15  and  C_20
    4  A    between atoms: CA_15  and  C_25
    5  A    between atoms: C_16  and  C_24
    6  A    between atoms: O_22  and  C_24
                            x       y       z     vdW  Elec       q    Type
                         _______ _______ _______ _____ _____    ______ ____

>  <TORSDO>
F 6

$$$$
=
 OpenBabel10232409463D

 25 27  0  0  1  0  0  0  0  0999 V2000
  188.8630  177.7650  143.8410 C   0  0  0  0  0  0  0  0  0  0  0  0
  185.5380  178.2160  145.5950 C   0  0  0  0  0  0  0  0  0  0  0  0
  186.6670  178.5470  143.1340 N   0  0  0  0  0  0  0  0  0  0  0  0
  186.9240  177.9070  145.3700 C   0  0  0  0  0  0  0  0  0  0  0  0
  189.6730  177.3630  144.9300 C   0  0  0  0  0  0  0  0  0  0  0  0
  185.3630  178.8440  143.3530 N   0  0  0  0  0  0  0  0  0  0  0  0
  184.7380  178.7030  144.5340 C   0  0  0  0  0  0  0  0  0  0  0  0
  185.0310  178.0640  146.7410 O   0  0  0  0  0  0  0  0  0  0  0  0
  187.7390  177.4730  146.4180 C   0  0  0  0  0  3  0  0  0  0  0  0
  187.5050  178.0640  144.0750 C   0  0  0  0  0  0  0  0  0  0  0  0
  186.5560  178.9890  141.7530 C   0  0  0  0  0  2  0  0  0  0  0  0
  183.5230  179.0030  144.6780 O   0  0  0  0  0  0  0  0  0  0  0  0
  185.1960  179.2760  141.9730 C   0  0  1  0  0  3  0  0  0  0  0  0
  189.0900  177.2110  146.2000 C   0  0  0  0  0  3  0  0  0  0  0  0
  191.9740  177.9470  145.0810 O   0  0  0  0  0  0  0  0  0  0  0  0
  191.1210  177.0660  144.7890 C   0  0  0  0  0  0  0  0  0  0  0  0
  191.5800  175.8030  144.3170 N   0  0  0  0  0  1  0  0  0  0  0  0
  184.3110  178.2940  141.2060 C   0  0  1  0  0  3  0  0  0  0  0  0
  182.9160  178.5170  141.5530 N   0  0  0  0  0  1  0  0  0  0  0  0
  184.4590  179.8410  139.3920 O   0  0  0  0  0  1  0  0  0  0  0  0
  184.4910  178.4830  139.7080 C   0  0  0  0  0  2  0  0  0  0  0  0
  189.4100  177.8590  142.5590 O   0  0  0  0  0  0  0  0  0  0  0  0
  189.4240  176.7480  141.6740 C   0  0  0  0  0  2  0  0  0  0  0  0
  191.6550  177.4790  141.2660 O   0  0  0  0  0  1  0  0  0  0  0  0
  190.5360  176.9130  140.6560 C   0  0  0  0  0  2  0  0  0  0  0  0
  1 10  2  0  0  0  0
  1  5  1  0  0  0  0
  2  8  2  0  0  0  0
  3  6  1  0  0  0  0
  3 10  1  0  0  0  0
  4  2  1  0  0  0  0
  4  9  2  0  0  0  0
  5 14  2  0  0  0  0
  6  7  1  0  0  0  0
  7 12  2  0  0  0  0
  7  2  1  0  0  0  0
 10  4  1  0  0  0  0
 11 13  1  0  0  0  0
 11  3  1  0  0  0  0
 13 18  1  6  0  0  0
 13  6  1  0  0  0  0
 14  9  1  0  0  0  0
 16  5  1  0  0  0  0
 16 15  2  0  0  0  0
 17 16  1  0  0  0  0
 18 19  1  6  0  0  0
 20 21  1  0  0  0  0
 21 18  1  0  0  0  0
 22  1  1  0  0  0  0
 23 22  1  0  0  0  0
 25 24  1  0  0  0  0
 25 23  1  0  0  0  0
M  END
>  <MODEL>
4

>  <REMARK>
 VINA RESULT:      -7.6      1.799      5.581
  Name = 
  6 active torsions:
  status: ('A' for Active; 'I' for Inactive)
    1  A    between atoms: C_1  and  O_22
    2  A    between atoms: C_5  and  C_10
    3  A    between atoms: CA_15  and  C_20
    4  A    between atoms: CA_15  and  C_25
    5  A    between atoms: C_16  and  C_24
    6  A    between atoms: O_22  and  C_24
                            x       y       z     vdW  Elec       q    Type
                         _______ _______ _______ _____ _____    ______ ____

>  <TORSDO>
F 6

$$$$
=
 OpenBabel10232409463D

 25 27  0  0  1  0  0  0  0  0999 V2000
  187.9710  177.6590  144.9330 C   0  0  0  0  0  0  0  0  0  0  0  0
  185.1480  178.9120  142.7430 C   0  0  0  0  0  0  0  0  0  0  0  0
  187.7780  178.2110  142.5690 N   0  0  0  0  0  0  0  0  0  0  0  0
  185.8750  178.4740  143.9040 C   0  0  0  0  0  0  0  0  0  0  0  0
  187.3350  177.6710  146.1990 C   0  0  0  0  0  0  0  0  0  0  0  0
  187.0910  178.6310  141.4790 N   0  0  0  0  0  0  0  0  0  0  0  0
  185.7960  178.9880  141.4870 C   0  0  0  0  0  0  0  0  0  0  0  0
  183.9330  179.2390  142.8400 O   0  0  0  0  0  0  0  0  0  0  0  0
  185.2630  178.4410  145.1590 C   0  0  0  0  0  3  0  0  0  0  0  0
  187.2470  178.0900  143.8030 C   0  0  0  0  0  0  0  0  0  0  0  0
  188.9930  178.0890  141.7790 C   0  0  0  0  0  2  0  0  0  0  0  0
  185.2120  179.3780  140.4410 O   0  0  0  0  0  0  0  0  0  0  0  0
  188.2760  178.5030  140.6430 C   0  0  1  0  0  3  0  0  0  0  0  0
  185.9850  178.0510  146.2860 C   0  0  0  0  0  3  0  0  0  0  0  0
  188.5790  176.1430  147.5310 O   0  0  0  0  0  0  0  0  0  0  0  0
  188.0290  177.2740  147.4500 C   0  0  0  0  0  0  0  0  0  0  0  0
  188.0810  178.1400  148.5800 N   0  0  0  0  0  1  0  0  0  0  0  0
  188.1160  177.3450  139.6590 C   0  0  1  0  0  3  0  0  0  0  0  0
  187.3390  177.7800  138.5090 N   0  0  0  0  0  1  0  0  0  0  0  0
  190.1290  177.8790  138.4900 O   0  0  0  0  0  1  0  0  0  0  0  0
  189.4780  176.8610  139.1880 C   0  0  0  0  0  2  0  0  0  0  0  0
  189.2930  177.2230  144.8180 O   0  0  0  0  0  0  0  0  0  0  0  0
  190.3840  178.0490  145.1980 C   0  0  0  0  0  2  0  0  0  0  0  0
  191.7020  176.9260  146.8350 O   0  0  0  0  0  1  0  0  0  0  0  0
  191.6070  177.1950  145.4710 C   0  0  0  0  0  2  0  0  0  0  0  0
  1  5  1  0  0  0  0
  2  8  2  0  0  0  0
  2  4  1  0  0  0  0
  3 10  1  0  0  0  0
  4  9  2  0  0  0  0
  5 14  2  0  0  0  0
  5 16  1  0  0  0  0
  6  7  1  0  0  0  0
  6  3  1  0  0  0  0
  7  2  1  0  0  0  0
  9 14  1  0  0  0  0
 10  4  1  0  0  0  0
 10  1  2  0  0  0  0
 11  3  1  0  0  0  0
 12  7  2  0  0  0  0
 13 18  1  6  0  0  0
 13  6  1  0  0  0  0
 13 11  1  0  0  0  0
 16 15  2  0  0  0  0
 16 17  1  0  0  0  0
 18 19  1  6  0  0  0
 20 21  1  0  0  0  0
 21 18  1  0  0  0  0
 22  1  1  0  0  0  0
 22 23  1  0  0  0  0
 23 25  1  0  0  0  0
 25 24  1  0  0  0  0
M  END
>  <MODEL>
5

>  <REMARK>
 VINA RESULT:      -7.5      2.004      5.716
  Name = 
  6 active torsions:
  status: ('A' for Active; 'I' for Inactive)
    1  A    between atoms: C_1  and  O_22
    2  A    between atoms: C_5  and  C_10
    3  A    between atoms: CA_15  and  C_20
    4  A    between atoms: CA_15  and  C_25
    5  A    between atoms: C_16  and  C_24
    6  A    between atoms: O_22  and  C_24
                            x       y       z     vdW  Elec       q    Type
                         _______ _______ _______ _____ _____    ______ ____

>  <TORSDO>
F 6

$$$$
=
 OpenBabel10232409463D

 25 27  0  0  1  0  0  0  0  0999 V2000
  189.2420  177.1980  141.8220 C   0  0  0  0  0  0  0  0  0  0  0  0
  185.8620  178.8980  141.6770 C   0  0  0  0  0  0  0  0  0  0  0  0
  187.4300  177.5040  143.4200 N   0  0  0  0  0  0  0  0  0  0  0  0
  187.1520  178.4020  141.2780 C   0  0  0  0  0  0  0  0  0  0  0  0
  189.6680  177.3640  140.4810 C   0  0  0  0  0  0  0  0  0  0  0  0
  186.2110  177.9670  143.7890 N   0  0  0  0  0  0  0  0  0  0  0  0
  185.3870  178.6630  142.9890 C   0  0  0  0  0  0  0  0  0  0  0  0
  185.1450  179.5360  140.8580 O   0  0  0  0  0  0  0  0  0  0  0  0
  187.6130  178.5830  139.9720 C   0  0  0  0  0  3  0  0  0  0  0  0
  187.9760  177.6900  142.2010 C   0  0  0  0  0  0  0  0  0  0  0  0
  187.6120  176.8870  144.7240 C   0  0  0  0  0  2  0  0  0  0  0  0
  184.2600  179.0620  143.3880 O   0  0  0  0  0  0  0  0  0  0  0  0
  186.3570  177.3860  145.1170 C   0  0  1  0  0  3  0  0  0  0  0  0
  188.8480  178.0670  139.5820 C   0  0  0  0  0  3  0  0  0  0  0  0
  190.9920  175.8090  139.2620 O   0  0  0  0  0  0  0  0  0  0  0  0
  190.9650  176.8450  139.9800 C   0  0  0  0  0  0  0  0  0  0  0  0
  192.1970  177.4840  140.3010 N   0  0  0  0  0  1  0  0  0  0  0  0
  186.5220  178.4820  146.1680 C   0  0  1  0  0  3  0  0  0  0  0  0
  185.2310  178.7920  146.7620 N   0  0  0  0  0  1  0  0  0  0  0  0
  187.3000  178.8050  148.4030 O   0  0  0  0  0  1  0  0  0  0  0  0
  187.4780  178.0270  147.2590 C   0  0  0  0  0  2  0  0  0  0  0  0
  190.0720  176.5580  142.7450 O   0  0  0  0  0  0  0  0  0  0  0  0
  190.9000  177.2940  143.6350 C   0  0  0  0  0  2  0  0  0  0  0  0
  191.8320  175.1260  143.9610 O   0  0  0  0  0  1  0  0  0  0  0  0
  191.5990  176.3470  144.5910 C   0  0  0  0  0  2  0  0  0  0  0  0
  1 10  1  0  0  0  0
  1 22  1  0  0  0  0
  2  7  1  0  0  0  0
  3  6  1  0  0  0  0
  3 11  1  0  0  0  0
  4  2  1  0  0  0  0
  4 10  2  0  0  0  0
  5  1  2  0  0  0  0
  6 13  1  0  0  0  0
  7 12  2  0  0  0  0
  7  6  1  0  0  0  0
  8  2  2  0  0  0  0
  9  4  1  0  0  0  0
 10  3  1  0  0  0  0
 11 13  1  0  0  0  0
 13 18  1  1  0  0  0
 14  9  2  0  0  0  0
 14  5  1  0  0  0  0
 15 16  2  0  0  0  0
 16 17  1  0  0  0  0
 16  5  1  0  0  0  0
 18 19  1  1  0  0  0
 18 21  1  0  0  0  0
 21 20  1  0  0  0  0
 22 23  1  0  0  0  0
 23 25  1  0  0  0  0
 24 25  1  0  0  0  0
M  END
>  <MODEL>
6

>  <REMARK>
 VINA RESULT:      -7.3      2.332      5.249
  Name = 
  6 active torsions:
  status: ('A' for Active; 'I' for Inactive)
    1  A    between atoms: C_1  and  O_22
    2  A    between atoms: C_5  and  C_10
    3  A    between atoms: CA_15  and  C_20
    4  A    between atoms: CA_15  and  C_25
    5  A    between atoms: C_16  and  C_24
    6  A    between atoms: O_22  and  C_24
                            x       y       z     vdW  Elec       q    Type
                         _______ _______ _______ _____ _____    ______ ____

>  <TORSDO>
F 6

$$$$
=
 OpenBabel10232409463D

 25 27  0  0  1  0  0  0  0  0999 V2000
  186.7490  177.8300  144.6540 C   0  0  0  0  0  0  0  0  0  0  0  0
  190.4090  177.0250  145.1860 C   0  0  0  0  0  0  0  0  0  0  0  0
  188.5590  177.1270  143.1850 N   0  0  0  0  0  0  0  0  0  0  0  0
  189.0470  177.3970  145.4570 C   0  0  0  0  0  0  0  0  0  0  0  0
  186.3430  178.0670  145.9900 C   0  0  0  0  0  0  0  0  0  0  0  0
  189.8430  176.7700  142.9360 N   0  0  0  0  0  0  0  0  0  0  0  0
  190.8080  176.7010  143.8680 C   0  0  0  0  0  0  0  0  0  0  0  0
  191.2540  176.9760  146.1240 O   0  0  0  0  0  0  0  0  0  0  0  0
  188.6270  177.6720  146.7610 C   0  0  0  0  0  3  0  0  0  0  0  0
  188.0880  177.4680  144.4020 C   0  0  0  0  0  0  0  0  0  0  0  0
  188.2100  176.9160  141.7890 C   0  0  0  0  0  2  0  0  0  0  0  0
  191.9840  176.3550  143.5760 O   0  0  0  0  0  0  0  0  0  0  0  0
  189.5460  176.5660  141.5250 C   0  0  1  0  0  3  0  0  0  0  0  0
  187.2960  177.9950  147.0200 C   0  0  0  0  0  3  0  0  0  0  0  0
  184.4750  178.0340  147.4620 O   0  0  0  0  0  0  0  0  0  0  0  0
  184.9470  178.4140  146.3570 C   0  0  0  0  0  0  0  0  0  0  0  0
  184.1110  179.1640  145.4810 N   0  0  0  0  0  1  0  0  0  0  0  0
  190.2220  177.6410  140.6740 C   0  0  1  0  0  3  0  0  0  0  0  0
  191.6220  177.3010  140.4730 N   0  0  0  0  0  1  0  0  0  0  0  0
  188.9730  179.0210  139.1770 O   0  0  0  0  0  1  0  0  0  0  0  0
  189.5350  177.7520  139.3220 C   0  0  0  0  0  2  0  0  0  0  0  0
  185.8290  177.9610  143.6100 O   0  0  0  0  0  0  0  0  0  0  0  0
  185.7540  179.1450  142.8300 C   0  0  0  0  0  2  0  0  0  0  0  0
  185.7650  179.1720  140.4470 O   0  0  0  0  0  1  0  0  0  0  0  0
  184.9750  178.8750  141.5570 C   0  0  0  0  0  2  0  0  0  0  0  0
  1  5  1  0  0  0  0
  2  4  1  0  0  0  0
  2  8  2  0  0  0  0
  3 10  1  0  0  0  0
  4  9  2  0  0  0  0
  5 16  1  0  0  0  0
  5 14  2  0  0  0  0
  6  3  1  0  0  0  0
  6  7  1  0  0  0  0
  7  2  1  0  0  0  0
  9 14  1  0  0  0  0
 10  1  2  0  0  0  0
 10  4  1  0  0  0  0
 11  3  1  0  0  0  0
 12  7  2  0  0  0  0
 13 18  1  6  0  0  0
 13 11  1  0  0  0  0
 13  6  1  0  0  0  0
 16 15  2  0  0  0  0
 17 16  1  0  0  0  0
 18 19  1  6  0  0  0
 20 21  1  0  0  0  0
 21 18  1  0  0  0  0
 22  1  1  0  0  0  0
 23 22  1  0  0  0  0
 24 25  1  0  0  0  0
 25 23  1  0  0  0  0
M  END
>  <MODEL>
7

>  <REMARK>
 VINA RESULT:      -7.0      2.079      4.517
  Name = 
  6 active torsions:
  status: ('A' for Active; 'I' for Inactive)
    1  A    between atoms: C_1  and  O_22
    2  A    between atoms: C_5  and  C_10
    3  A    between atoms: CA_15  and  C_20
    4  A    between atoms: CA_15  and  C_25
    5  A    between atoms: C_16  and  C_24
    6  A    between atoms: O_22  and  C_24
                            x       y       z     vdW  Elec       q    Type
                         _______ _______ _______ _____ _____    ______ ____

>  <TORSDO>
F 6

$$$$
=
 OpenBabel10232409463D

 25 27  0  0  1  0  0  0  0  0999 V2000
  189.6840  176.9240  145.6200 C   0  0  0  0  0  0  0  0  0  0  0  0
  189.7520  177.5970  141.8950 C   0  0  0  0  0  0  0  0  0  0  0  0
  187.9770  177.4340  143.9590 N   0  0  0  0  0  0  0  0  0  0  0  0
  190.1950  177.2890  143.2280 C   0  0  0  0  0  0  0  0  0  0  0  0
  191.0480  176.6200  145.8490 C   0  0  0  0  0  0  0  0  0  0  0  0
  187.5640  177.7170  142.7000 N   0  0  0  0  0  0  0  0  0  0  0  0
  188.3790  177.8160  141.6360 C   0  0  0  0  0  0  0  0  0  0  0  0
  190.5850  177.6620  140.9480 O   0  0  0  0  0  0  0  0  0  0  0  0
  191.5400  177.0210  143.4900 C   0  0  0  0  0  3  0  0  0  0  0  0
  189.2630  177.2250  144.3080 C   0  0  0  0  0  0  0  0  0  0  0  0
  186.6040  177.4630  144.4360 C   0  0  0  0  0  2  0  0  0  0  0  0
  187.9340  178.0750  140.4860 O   0  0  0  0  0  0  0  0  0  0  0  0
  186.1760  177.7780  143.1340 C   0  0  1  0  0  3  0  0  0  0  0  0
  191.9550  176.6870  144.7780 C   0  0  0  0  0  3  0  0  0  0  0  0
  191.6620  175.0390  147.5160 O   0  0  0  0  0  0  0  0  0  0  0  0
  191.5760  176.2530  147.1870 C   0  0  0  0  0  0  0  0  0  0  0  0
  191.9820  177.2440  148.1260 N   0  0  0  0  0  1  0  0  0  0  0  0
  185.6580  179.2140  143.0730 C   0  0  1  0  0  3  0  0  0  0  0  0
  185.2340  179.5270  141.7180 N   0  0  0  0  0  1  0  0  0  0  0  0
  183.3420  178.7910  143.4780 O   0  0  0  0  0  1  0  0  0  0  0  0
  184.4800  179.3900  144.0190 C   0  0  0  0  0  2  0  0  0  0  0  0
  188.7790  176.9260  146.6840 O   0  0  0  0  0  0  0  0  0  0  0  0
  188.5810  178.0780  147.4900 C   0  0  0  0  0  2  0  0  0  0  0  0
  186.3720  178.9710  147.4710 O   0  0  0  0  0  1  0  0  0  0  0  0
  187.1970  178.0450  148.1080 C   0  0  0  0  0  2  0  0  0  0  0  0
  1  5  1  0  0  0  0
  1 22  1  0  0  0  0
  2  4  1  0  0  0  0
  3 10  1  0  0  0  0
  3 11  1  0  0  0  0
  4  9  2  0  0  0  0
  4 10  1  0  0  0  0
  5 16  1  0  0  0  0
  6 13  1  0  0  0  0
  6  3  1  0  0  0  0
  7  2  1  0  0  0  0
  7  6  1  0  0  0  0
  8  2  2  0  0  0  0
  9 14  1  0  0  0  0
 10  1  2  0  0  0  0
 12  7  2  0  0  0  0
 13 18  1  1  0  0  0
 13 11  1  0  0  0  0
 14  5  2  0  0  0  0
 16 15  2  0  0  0  0
 16 17  1  0  0  0  0
 18 19  1  6  0  0  0
 18 21  1  0  0  0  0
 20 21  1  0  0  0  0
 22 23  1  0  0  0  0
 23 25  1  0  0  0  0
 24 25  1  0  0  0  0
M  END
>  <MODEL>
8

>  <REMARK>
 VINA RESULT:      -7.0      1.857      7.053
  Name = 
  6 active torsions:
  status: ('A' for Active; 'I' for Inactive)
    1  A    between atoms: C_1  and  O_22
    2  A    between atoms: C_5  and  C_10
    3  A    between atoms: CA_15  and  C_20
    4  A    between atoms: CA_15  and  C_25
    5  A    between atoms: C_16  and  C_24
    6  A    between atoms: O_22  and  C_24
                            x       y       z     vdW  Elec       q    Type
                         _______ _______ _______ _____ _____    ______ ____

>  <TORSDO>
F 6

$$$$
=
 OpenBabel10232409463D

 25 27  0  0  1  0  0  0  0  0999 V2000
  186.6790  178.2360  143.7770 C   0  0  0  0  0  0  0  0  0  0  0  0
  184.6280  178.7290  140.6330 C   0  0  0  0  0  0  0  0  0  0  0  0
  187.2180  178.3620  141.4050 N   0  0  0  0  0  0  0  0  0  0  0  0
  184.9730  178.5870  142.0220 C   0  0  0  0  0  0  0  0  0  0  0  0
  185.6710  178.3720  144.7620 C   0  0  0  0  0  0  0  0  0  0  0  0
  186.8890  178.5030  140.0980 N   0  0  0  0  0  0  0  0  0  0  0  0
  185.6380  178.6830  139.6430 C   0  0  0  0  0  0  0  0  0  0  0  0
  183.4250  178.9050  140.2910 O   0  0  0  0  0  0  0  0  0  0  0  0
  183.9930  178.6810  143.0130 C   0  0  0  0  0  3  0  0  0  0  0  0
  186.3280  178.3760  142.4180 C   0  0  0  0  0  0  0  0  0  0  0  0
  188.6280  178.2720  141.0600 C   0  0  0  0  0  2  0  0  0  0  0  0
  185.3950  178.8150  138.4140 O   0  0  0  0  0  0  0  0  0  0  0  0
  188.2860  178.3960  139.7010 C   0  0  1  0  0  3  0  0  0  0  0  0
  184.3410  178.5800  144.3600 C   0  0  0  0  0  3  0  0  0  0  0  0
  186.4760  177.2370  146.6910 O   0  0  0  0  0  0  0  0  0  0  0  0
  185.9520  178.2810  146.2170 C   0  0  0  0  0  0  0  0  0  0  0  0
  185.6320  179.3470  147.1060 N   0  0  0  0  0  1  0  0  0  0  0  0
  188.5360  177.0810  138.9640 C   0  0  1  0  0  3  0  0  0  0  0  0
  188.2140  177.2390  137.5550 N   0  0  0  0  0  1  0  0  0  0  0  0
  190.7430  177.2160  138.0600 O   0  0  0  0  0  1  0  0  0  0  0  0
  189.9930  176.6690  139.1020 C   0  0  0  0  0  2  0  0  0  0  0  0
  187.9960  177.9650  144.1550 O   0  0  0  0  0  0  0  0  0  0  0  0
  188.5290  176.6500  144.1010 C   0  0  0  0  0  2  0  0  0  0  0  0
  190.4840  178.0120  144.1110 O   0  0  0  0  0  1  0  0  0  0  0  0
  190.0380  176.6980  144.2460 C   0  0  0  0  0  2  0  0  0  0  0  0
  1 22  1  0  0  0  0
  1  5  1  0  0  0  0
  2  4  1  0  0  0  0
  3 10  1  0  0  0  0
  4 10  1  0  0  0  0
  4  9  2  0  0  0  0
  5 16  1  0  0  0  0
  6  3  1  0  0  0  0
  7  6  1  0  0  0  0
  7  2  1  0  0  0  0
  8  2  2  0  0  0  0
  9 14  1  0  0  0  0
 10  1  2  0  0  0  0
 11  3  1  0  0  0  0
 12  7  2  0  0  0  0
 13 18  1  6  0  0  0
 13  6  1  0  0  0  0
 13 11  1  0  0  0  0
 14  5  2  0  0  0  0
 16 15  2  0  0  0  0
 16 17  1  0  0  0  0
 18 19  1  6  0  0  0
 18 21  1  0  0  0  0
 20 21  1  0  0  0  0
 23 22  1  0  0  0  0
 23 25  1  0  0  0  0
 24 25  1  0  0  0  0
M  END
>  <MODEL>
9

>  <REMARK>
 VINA RESULT:      -6.8      2.155      5.623
  Name = 
  6 active torsions:
  status: ('A' for Active; 'I' for Inactive)
    1  A    between atoms: C_1  and  O_22
    2  A    between atoms: C_5  and  C_10
    3  A    between atoms: CA_15  and  C_20
    4  A    between atoms: CA_15  and  C_25
    5  A    between atoms: C_16  and  C_24
    6  A    between atoms: O_22  and  C_24
                            x       y       z     vdW  Elec       q    Type
                         _______ _______ _______ _____ _____    ______ ____

>  <TORSDO>
F 6

$$$$
