=
 OpenBabel10232412383D

 37 43  0  0  1  0  0  0  0  0999 V2000
  188.8380  175.8540  136.6790 N   0  0  0  0  0  0  0  0  0  0  0  0
  192.9850  174.2250  136.7630 C   0  0  0  0  0  3  0  0  0  0  0  0
  187.2280  175.2810  134.6660 C   0  0  1  0  0  3  0  0  0  0  0  0
  191.2740  175.0430  138.2450 N   0  0  0  0  0  2  0  0  0  0  0  0
  190.2200  176.3010  139.8690 O   0  0  0  0  0  0  0  0  0  0  0  0
  188.4670  174.5190  134.8160 N   0  0  0  0  0  2  0  0  0  0  0  0
  190.2940  175.9990  138.6470 C   0  0  0  0  0  0  0  0  0  0  0  0
  188.6860  177.8280  138.0290 C   0  0  0  0  0  0  0  0  0  0  0  0
  184.7920  175.4970  134.4440 N   0  0  0  0  0  0  0  0  0  0  0  0
  190.7820  174.6290  135.8130 C   0  0  0  0  0  0  0  0  0  0  0  0
  185.9280  174.5650  134.3700 C   0  0  2  0  0  3  0  0  0  0  0  0
  193.4540  173.7780  135.5280 C   0  0  0  0  0  0  0  0  0  0  0  0
  186.3020  174.8440  135.8020 C   0  0  2  0  0  0  0  0  0  0  0  0
  186.3280  177.2370  137.4500 C   0  0  2  0  0  3  0  0  0  0  0  0
  191.6650  174.6660  136.9220 C   0  0  0  0  0  0  0  0  0  0  0  0
  189.3200  178.8100  138.6690 C   0  0  0  0  0  2  0  0  0  0  0  0
  192.5930  173.7410  134.4340 C   0  0  0  0  0  3  0  0  0  0  0  0
  189.3490  174.9850  135.8580 C   0  0  0  0  0  0  0  0  0  0  0  0
  185.0620  175.6940  135.8710 C   0  0  1  0  0  3  0  0  0  0  0  0
  191.2700  174.1560  134.5800 C   0  0  0  0  0  3  0  0  0  0  0  0
  187.4250  178.1960  137.2450 C   0  0  1  0  0  3  0  0  0  0  0  0
  189.4030  176.6100  137.7060 N   0  0  0  0  0  0  0  0  0  0  0  0
  195.1190  173.2620  135.3520 Cl  0  0  0  0  0  0  0  0  0  0  0  0
  183.5810  174.6990  134.3460 C   0  0  0  0  0  1  0  0  0  0  0  0
  185.4450  177.1550  136.1930 C   0  0  0  0  0  2  0  0  0  0  0  0
  186.2310  178.5720  138.0570 N   0  0  0  0  0  0  0  0  0  0  0  0
  186.4680  178.3890  139.4310 N   0  0  0  0  0  2  0  0  0  0  0  0
  185.8900  178.7840  141.7930 N   0  0  0  0  0  2  0  0  0  0  0  0
  185.6360  179.0120  140.4070 C   0  0  0  0  0  0  0  0  0  0  0  0
  184.6940  179.7700  140.0470 O   0  0  0  0  0  0  0  0  0  0  0  0
  183.9970  178.3620  143.2450 C   0  0  0  0  0  2  0  0  0  0  0  0
  185.2210  178.5760  144.1130 C   0  0  0  0  0  2  0  0  0  0  0  0
  185.0510  179.3670  142.8280 C   0  0  0  0  0  3  0  0  0  0  0  0
  186.3660  173.4550  136.4560 C   0  0  0  0  0  2  0  0  0  0  0  0
  185.4430  173.3100  137.6630 C   0  0  0  0  0  2  0  0  0  0  0  0
  184.6940  171.6220  136.2340 C   0  0  0  0  0  1  0  0  0  0  0  0
  184.2840  172.4930  137.3250 N   0  0  0  0  0  2  0  0  0  0  0  0
  1 22  1  0  0  0  0
  2 15  1  0  0  0  0
  3  6  1  1  0  0  0
  3 13  1  0  0  0  0
  4  7  1  0  0  0  0
  6 18  1  0  0  0  0
  7  5  2  0  0  0  0
  8 16  2  0  0  0  0
  9 19  1  0  0  0  0
 10 18  1  0  0  0  0
 10 15  2  0  0  0  0
 11  9  1  6  0  0  0
 11  3  1  0  0  0  0
 11 13  1  0  0  0  0
 12  2  2  0  0  0  0
 13 19  1  0  0  0  0
 13 34  1  1  0  0  0
 14 25  1  6  0  0  0
 14 26  1  0  0  0  0
 15  4  1  0  0  0  0
 17 20  2  0  0  0  0
 17 12  1  0  0  0  0
 18  1  2  0  0  0  0
 19 25  1  6  0  0  0
 20 10  1  0  0  0  0
 21 14  1  0  0  0  0
 21  8  1  1  0  0  0
 21 26  1  0  0  0  0
 22  8  1  0  0  0  0
 22  7  1  0  0  0  0
 23 12  1  0  0  0  0
 24  9  1  0  0  0  0
 26 27  1  0  0  0  0
 27 29  1  0  0  0  0
 28 33  1  0  0  0  0
 29 28  1  0  0  0  0
 30 29  2  0  0  0  0
 31 32  1  0  0  0  0
 33 31  1  0  0  0  0
 33 32  1  0  0  0  0
 34 35  1  0  0  0  0
 36 37  1  0  0  0  0
 37 35  1  0  0  0  0
M  END
>  <MODEL>
1

>  <REMARK>
 VINA RESULT:      -7.3      0.000      0.000
  Name = 
  5 active torsions:
  status: ('A' for Active; 'I' for Inactive)
    1  A    between atoms: N_1  and  N_37
    2  A    between atoms: N_3  and  C_27
    3  A    between atoms: C_10  and  C_23
    4  A    between atoms: C_10  and  N_24
    5  A    between atoms: C_19  and  C_23
                            x       y       z     vdW  Elec       q    Type
                         _______ _______ _______ _____ _____    ______ ____

>  <TORSDO>
F 5

$$$$
=
 OpenBabel10232412383D

 37 43  0  0  1  0  0  0  0  0999 V2000
  188.8950  176.5500  137.0830 N   0  0  0  0  0  0  0  0  0  0  0  0
  193.1730  175.3550  136.7230 C   0  0  0  0  0  3  0  0  0  0  0  0
  187.3120  176.4690  134.9710 C   0  0  1  0  0  3  0  0  0  0  0  0
  191.4180  175.5280  138.3610 N   0  0  0  0  0  2  0  0  0  0  0  0
  190.2800  176.1350  140.2760 O   0  0  0  0  0  0  0  0  0  0  0  0
  188.6160  175.8130  134.9000 N   0  0  0  0  0  2  0  0  0  0  0  0
  190.3620  176.2250  139.0210 C   0  0  0  0  0  0  0  0  0  0  0  0
  188.5860  178.0010  138.9660 C   0  0  0  0  0  0  0  0  0  0  0  0
  184.8630  176.5210  134.7950 N   0  0  0  0  0  0  0  0  0  0  0  0
  190.9280  175.8250  135.9120 C   0  0  0  0  0  0  0  0  0  0  0  0
  186.0780  175.7620  134.4560 C   0  0  2  0  0  3  0  0  0  0  0  0
  193.6600  175.3470  135.4160 C   0  0  0  0  0  0  0  0  0  0  0  0
  186.4470  175.6270  135.9100 C   0  0  2  0  0  0  0  0  0  0  0  0
  186.2820  177.4010  138.2050 C   0  0  2  0  0  3  0  0  0  0  0  0
  191.8200  175.6060  136.9920 C   0  0  0  0  0  0  0  0  0  0  0  0
  189.1380  178.7970  139.8800 C   0  0  0  0  0  2  0  0  0  0  0  0
  192.7890  175.5650  134.3520 C   0  0  0  0  0  3  0  0  0  0  0  0
  189.4690  176.0200  136.0450 C   0  0  0  0  0  0  0  0  0  0  0  0
  185.1370  176.3010  136.2170 C   0  0  1  0  0  3  0  0  0  0  0  0
  191.4370  175.7940  134.6000 C   0  0  0  0  0  3  0  0  0  0  0  0
  187.2850  178.4730  138.3130 C   0  0  1  0  0  3  0  0  0  0  0  0
  189.4050  177.0080  138.2990 N   0  0  0  0  0  0  0  0  0  0  0  0
  195.3620  175.0610  135.1130 Cl  0  0  0  0  0  0  0  0  0  0  0  0
  183.7280  175.6830  134.4440 C   0  0  0  0  0  1  0  0  0  0  0  0
  185.3910  177.6240  136.9710 C   0  0  0  0  0  2  0  0  0  0  0  0
  186.0750  178.4760  139.1860 N   0  0  0  0  0  0  0  0  0  0  0  0
  186.3480  177.9080  140.4440 N   0  0  0  0  0  2  0  0  0  0  0  0
  186.2300  177.9500  142.9040 N   0  0  0  0  0  2  0  0  0  0  0  0
  185.9590  178.5680  141.6460 C   0  0  0  0  0  0  0  0  0  0  0  0
  185.3940  179.6950  141.5970 O   0  0  0  0  0  0  0  0  0  0  0  0
  185.6780  177.4910  145.2170 C   0  0  0  0  0  2  0  0  0  0  0  0
  186.9180  178.3620  145.1910 C   0  0  0  0  0  2  0  0  0  0  0  0
  185.8240  178.5640  144.1580 C   0  0  0  0  0  3  0  0  0  0  0  0
  186.6460  174.1170  136.1140 C   0  0  0  0  0  2  0  0  0  0  0  0
  185.9710  173.5810  137.3740 C   0  0  0  0  0  2  0  0  0  0  0  0
  185.0520  172.2140  135.7200 C   0  0  0  0  0  1  0  0  0  0  0  0
  184.7940  172.7950  137.0290 N   0  0  0  0  0  2  0  0  0  0  0  0
  1 22  1  0  0  0  0
  2 15  1  0  0  0  0
  3  6  1  6  0  0  0
  3 13  1  0  0  0  0
  4  7  1  0  0  0  0
  6 18  1  0  0  0  0
  7  5  2  0  0  0  0
  8 16  2  0  0  0  0
  9 19  1  0  0  0  0
 10 18  1  0  0  0  0
 10 15  2  0  0  0  0
 11  9  1  1  0  0  0
 11  3  1  0  0  0  0
 11 13  1  0  0  0  0
 12  2  2  0  0  0  0
 13 34  1  1  0  0  0
 13 19  1  0  0  0  0
 14 25  1  6  0  0  0
 14 21  1  0  0  0  0
 14 26  1  0  0  0  0
 15  4  1  0  0  0  0
 17 20  2  0  0  0  0
 17 12  1  0  0  0  0
 18  1  2  0  0  0  0
 19 25  1  1  0  0  0
 20 10  1  0  0  0  0
 21  8  1  1  0  0  0
 21 26  1  0  0  0  0
 22  8  1  0  0  0  0
 22  7  1  0  0  0  0
 23 12  1  0  0  0  0
 24  9  1  0  0  0  0
 26 27  1  0  0  0  0
 27 29  1  0  0  0  0
 28 33  1  0  0  0  0
 29 28  1  0  0  0  0
 30 29  2  0  0  0  0
 32 31  1  0  0  0  0
 33 32  1  0  0  0  0
 33 31  1  0  0  0  0
 34 35  1  0  0  0  0
 36 37  1  0  0  0  0
 37 35  1  0  0  0  0
M  END
>  <MODEL>
2

>  <REMARK>
 VINA RESULT:      -5.5      1.156      1.250
  Name = 
  5 active torsions:
  status: ('A' for Active; 'I' for Inactive)
    1  A    between atoms: N_1  and  N_37
    2  A    between atoms: N_3  and  C_27
    3  A    between atoms: C_10  and  C_23
    4  A    between atoms: C_10  and  N_24
    5  A    between atoms: C_19  and  C_23
                            x       y       z     vdW  Elec       q    Type
                         _______ _______ _______ _____ _____    ______ ____

>  <TORSDO>
F 5

$$$$
=
 OpenBabel10232412383D

 37 43  0  0  1  0  0  0  0  0999 V2000
  188.4140  176.7940  137.9820 N   0  0  0  0  0  0  0  0  0  0  0  0
  192.7280  175.7170  137.6810 C   0  0  0  0  0  3  0  0  0  0  0  0
  186.8570  176.6450  135.8540 C   0  0  1  0  0  3  0  0  0  0  0  0
  190.9500  175.8580  139.2980 N   0  0  0  0  0  2  0  0  0  0  0  0
  189.7740  176.4530  141.1940 O   0  0  0  0  0  0  0  0  0  0  0  0
  188.1810  176.0260  135.8040 N   0  0  0  0  0  2  0  0  0  0  0  0
  189.8680  176.5310  139.9390 C   0  0  0  0  0  0  0  0  0  0  0  0
  188.0430  178.2550  139.8450 C   0  0  0  0  0  0  0  0  0  0  0  0
  184.4100  176.6250  135.6500 N   0  0  0  0  0  0  0  0  0  0  0  0
  190.4790  176.1150  136.8410 C   0  0  0  0  0  0  0  0  0  0  0  0
  185.6490  175.8970  135.3340 C   0  0  2  0  0  3  0  0  0  0  0  0
  193.2300  175.7090  136.3800 C   0  0  0  0  0  0  0  0  0  0  0  0
  186.0060  175.7890  136.7930 C   0  0  2  0  0  0  0  0  0  0  0  0
  185.7660  177.5820  139.0660 C   0  0  2  0  0  3  0  0  0  0  0  0
  191.3660  175.9330  137.9320 C   0  0  0  0  0  0  0  0  0  0  0  0
  188.5620  179.0760  140.7560 C   0  0  0  0  0  2  0  0  0  0  0  0
  192.3650  175.8910  135.3040 C   0  0  0  0  0  3  0  0  0  0  0  0
  189.0140  176.2700  136.9560 C   0  0  0  0  0  0  0  0  0  0  0  0
  184.6740  176.4280  137.0780 C   0  0  1  0  0  3  0  0  0  0  0  0
  191.0030  176.0840  135.5350 C   0  0  0  0  0  3  0  0  0  0  0  0
  186.7360  178.6830  139.1730 C   0  0  1  0  0  3  0  0  0  0  0  0
  188.8970  177.2790  139.1980 N   0  0  0  0  0  0  0  0  0  0  0  0
  194.9420  175.4690  136.0980 Cl  0  0  0  0  0  0  0  0  0  0  0  0
  183.3040  175.7510  135.2970 C   0  0  0  0  0  1  0  0  0  0  0  0
  184.8830  177.7660  137.8200 C   0  0  0  0  0  2  0  0  0  0  0  0
  185.5170  178.6610  140.0330 N   0  0  0  0  0  0  0  0  0  0  0  0
  185.7930  178.1140  141.3000 N   0  0  0  0  0  2  0  0  0  0  0  0
  185.8350  178.2740  143.7570 N   0  0  0  0  0  2  0  0  0  0  0  0
  185.5680  178.8690  142.4880 C   0  0  0  0  0  0  0  0  0  0  0  0
  185.1520  180.0580  142.4150 O   0  0  0  0  0  0  0  0  0  0  0  0
  184.1710  178.7240  145.4600 C   0  0  0  0  0  2  0  0  0  0  0  0
  185.3240  177.9840  146.1080 C   0  0  0  0  0  2  0  0  0  0  0  0
  185.5910  178.9880  145.0010 C   0  0  0  0  0  3  0  0  0  0  0  0
  186.2460  174.2870  137.0160 C   0  0  0  0  0  2  0  0  0  0  0  0
  185.1070  173.5960  137.7600 C   0  0  0  0  0  2  0  0  0  0  0  0
  185.6960  172.1160  136.0530 C   0  0  0  0  0  1  0  0  0  0  0  0
  184.6600  172.4160  137.0310 N   0  0  0  0  0  2  0  0  0  0  0  0
  1 22  1  0  0  0  0
  2 15  1  0  0  0  0
  3  6  1  6  0  0  0
  3 13  1  0  0  0  0
  4  7  1  0  0  0  0
  6 18  1  0  0  0  0
  7  5  2  0  0  0  0
  8 16  2  0  0  0  0
  9 19  1  0  0  0  0
 10 18  1  0  0  0  0
 10 15  2  0  0  0  0
 11  9  1  1  0  0  0
 11  3  1  0  0  0  0
 11 13  1  0  0  0  0
 12  2  2  0  0  0  0
 13 34  1  1  0  0  0
 13 19  1  0  0  0  0
 14 25  1  6  0  0  0
 14 21  1  0  0  0  0
 14 26  1  0  0  0  0
 15  4  1  0  0  0  0
 17 20  2  0  0  0  0
 17 12  1  0  0  0  0
 18  1  2  0  0  0  0
 19 25  1  1  0  0  0
 20 10  1  0  0  0  0
 21  8  1  1  0  0  0
 21 26  1  0  0  0  0
 22  8  1  0  0  0  0
 22  7  1  0  0  0  0
 23 12  1  0  0  0  0
 24  9  1  0  0  0  0
 26 27  1  0  0  0  0
 27 29  1  0  0  0  0
 28 33  1  0  0  0  0
 29 28  1  0  0  0  0
 30 29  2  0  0  0  0
 31 32  1  0  0  0  0
 33 31  1  0  0  0  0
 33 32  1  0  0  0  0
 34 35  1  0  0  0  0
 36 37  1  0  0  0  0
 37 35  1  0  0  0  0
M  END
>  <MODEL>
3

>  <REMARK>
 VINA RESULT:      -5.4      1.593      1.818
  Name = 
  5 active torsions:
  status: ('A' for Active; 'I' for Inactive)
    1  A    between atoms: N_1  and  N_37
    2  A    between atoms: N_3  and  C_27
    3  A    between atoms: C_10  and  C_23
    4  A    between atoms: C_10  and  N_24
    5  A    between atoms: C_19  and  C_23
                            x       y       z     vdW  Elec       q    Type
                         _______ _______ _______ _____ _____    ______ ____

>  <TORSDO>
F 5

$$$$
=
 OpenBabel10232412383D

 37 43  0  0  1  0  0  0  0  0999 V2000
  188.2960  177.4150  139.2580 N   0  0  0  0  0  0  0  0  0  0  0  0
  184.1220  177.6630  137.7210 C   0  0  0  0  0  3  0  0  0  0  0  0
  188.9810  178.7100  141.4560 C   0  0  1  0  0  3  0  0  0  0  0  0
  186.0510  176.2260  137.6510 N   0  0  0  0  0  2  0  0  0  0  0  0
  187.7870  174.9520  136.8170 O   0  0  0  0  0  0  0  0  0  0  0  0
  187.5620  178.5750  141.1300 N   0  0  0  0  0  2  0  0  0  0  0  0
  187.4430  175.9800  137.4620 C   0  0  0  0  0  0  0  0  0  0  0  0
  189.8070  176.8320  137.4920 C   0  0  0  0  0  0  0  0  0  0  0  0
  190.9340  178.4650  142.9240 N   0  0  0  0  0  0  0  0  0  0  0  0
  185.9700  178.1980  139.2090 C   0  0  0  0  0  0  0  0  0  0  0  0
  189.4640  178.4540  142.8670 C   0  0  2  0  0  3  0  0  0  0  0  0
  183.3860  178.7380  138.2220 C   0  0  0  0  0  0  0  0  0  0  0  0
  189.4710  177.3230  141.8720 C   0  0  2  0  0  0  0  0  0  0  0  0
  191.1450  176.6510  139.5940 C   0  0  2  0  0  3  0  0  0  0  0  0
  185.4140  177.3880  138.1880 C   0  0  0  0  0  0  0  0  0  0  0  0
  190.0240  176.7230  136.1820 C   0  0  0  0  0  2  0  0  0  0  0  0
  183.9280  179.5400  139.2230 C   0  0  0  0  0  3  0  0  0  0  0  0
  187.2830  177.9730  139.8490 C   0  0  0  0  0  0  0  0  0  0  0  0
  190.9650  177.2880  142.0510 C   0  0  1  0  0  3  0  0  0  0  0  0
  185.2040  179.2660  139.7140 C   0  0  0  0  0  3  0  0  0  0  0  0
  190.9370  177.4050  138.3490 C   0  0  1  0  0  3  0  0  0  0  0  0
  188.4450  176.8590  137.9870 N   0  0  0  0  0  0  0  0  0  0  0  0
  181.7850  179.0770  137.5960 Cl  0  0  0  0  0  0  0  0  0  0  0  0
  191.3100  178.0190  144.2550 C   0  0  0  0  0  1  0  0  0  0  0  0
  191.6610  177.5820  140.7050 C   0  0  0  0  0  2  0  0  0  0  0  0
  192.1390  176.5370  138.5180 N   0  0  0  0  0  0  0  0  0  0  0  0
  191.9420  175.2700  137.9420 N   0  0  0  0  0  2  0  0  0  0  0  0
  192.7310  173.3610  136.6010 N   0  0  0  0  0  2  0  0  0  0  0  0
  192.9560  174.6590  137.1490 C   0  0  0  0  0  0  0  0  0  0  0  0
  194.0360  175.2690  136.9210 O   0  0  0  0  0  0  0  0  0  0  0  0
  194.5660  171.7830  136.7190 C   0  0  0  0  0  2  0  0  0  0  0  0
  193.4820  171.1840  135.8460 C   0  0  0  0  0  2  0  0  0  0  0  0
  193.7460  172.6790  135.8130 C   0  0  0  0  0  3  0  0  0  0  0  0
  188.5580  176.2580  142.5010 C   0  0  0  0  0  2  0  0  0  0  0  0
  188.2160  176.5380  143.9610 C   0  0  0  0  0  2  0  0  0  0  0  0
  186.7020  177.6620  145.3380 C   0  0  0  0  0  1  0  0  0  0  0  0
  186.8140  176.9130  144.0960 N   0  0  0  0  0  2  0  0  0  0  0  0
  1 18  2  0  0  0  0
  2 15  2  0  0  0  0
  2 12  1  0  0  0  0
  3  6  1  1  0  0  0
  3 13  1  0  0  0  0
  3 11  1  0  0  0  0
  4 15  1  0  0  0  0
  5  7  2  0  0  0  0
  7  4  1  0  0  0  0
  7 22  1  0  0  0  0
  8 22  1  0  0  0  0
  9 24  1  0  0  0  0
 10 20  2  0  0  0  0
 10 18  1  0  0  0  0
 11  9  1  6  0  0  0
 12 17  2  0  0  0  0
 13 19  1  0  0  0  0
 13 34  1  1  0  0  0
 13 11  1  0  0  0  0
 14 25  1  1  0  0  0
 15 10  1  0  0  0  0
 16  8  2  0  0  0  0
 17 20  1  0  0  0  0
 18  6  1  0  0  0  0
 19 25  1  6  0  0  0
 19  9  1  0  0  0  0
 21  8  1  6  0  0  0
 21 26  1  0  0  0  0
 21 14  1  0  0  0  0
 22  1  1  0  0  0  0
 23 12  1  0  0  0  0
 26 14  1  0  0  0  0
 27 26  1  0  0  0  0
 28 29  1  0  0  0  0
 29 27  1  0  0  0  0
 30 29  2  0  0  0  0
 32 31  1  0  0  0  0
 33 32  1  0  0  0  0
 33 28  1  0  0  0  0
 33 31  1  0  0  0  0
 34 35  1  0  0  0  0
 35 37  1  0  0  0  0
 37 36  1  0  0  0  0
M  END
>  <MODEL>
4

>  <REMARK>
 VINA RESULT:      -5.2      3.737      8.772
  Name = 
  5 active torsions:
  status: ('A' for Active; 'I' for Inactive)
    1  A    between atoms: N_1  and  N_37
    2  A    between atoms: N_3  and  C_27
    3  A    between atoms: C_10  and  C_23
    4  A    between atoms: C_10  and  N_24
    5  A    between atoms: C_19  and  C_23
                            x       y       z     vdW  Elec       q    Type
                         _______ _______ _______ _____ _____    ______ ____

>  <TORSDO>
F 5

$$$$
=
 OpenBabel10232412383D

 37 43  0  0  1  0  0  0  0  0999 V2000
  189.0800  176.8540  137.9890 N   0  0  0  0  0  0  0  0  0  0  0  0
  189.4290  178.1780  142.2290 C   0  0  0  0  0  3  0  0  0  0  0  0
  190.8450  175.1710  136.9740 C   0  0  1  0  0  3  0  0  0  0  0  0
  187.7900  177.9240  140.4850 N   0  0  0  0  0  2  0  0  0  0  0  0
  186.1150  178.4370  138.9810 O   0  0  0  0  0  0  0  0  0  0  0  0
  190.8110  175.3690  138.4220 N   0  0  0  0  0  2  0  0  0  0  0  0
  187.3190  178.1040  139.1510 C   0  0  0  0  0  0  0  0  0  0  0  0
  187.8250  178.4480  136.7140 C   0  0  0  0  0  0  0  0  0  0  0  0
  190.7730  173.8000  134.9390 N   0  0  0  0  0  0  0  0  0  0  0  0
  190.1170  177.0090  140.2090 C   0  0  0  0  0  0  0  0  0  0  0  0
  190.9390  173.7750  136.4010 C   0  0  2  0  0  3  0  0  0  0  0  0
  190.6890  177.9760  142.7940 C   0  0  0  0  0  0  0  0  0  0  0  0
  189.5810  174.3930  136.6060 C   0  0  2  0  0  0  0  0  0  0  0  0
  188.0750  176.4580  135.2240 C   0  0  2  0  0  3  0  0  0  0  0  0
  189.1300  177.7180  140.9400 C   0  0  0  0  0  0  0  0  0  0  0  0
  187.3210  179.6790  136.6260 C   0  0  0  0  0  2  0  0  0  0  0  0
  191.6630  177.2840  142.0800 C   0  0  0  0  0  3  0  0  0  0  0  0
  189.9120  176.4010  138.8780 C   0  0  0  0  0  0  0  0  0  0  0  0
  189.4030  174.2890  135.1160 C   0  0  1  0  0  3  0  0  0  0  0  0
  191.3750  176.8000  140.8050 C   0  0  0  0  0  3  0  0  0  0  0  0
  188.4650  177.8570  135.4550 C   0  0  1  0  0  3  0  0  0  0  0  0
  188.1720  177.9120  138.0150 N   0  0  0  0  0  0  0  0  0  0  0  0
  191.0440  178.5900  144.3960 Cl  0  0  0  0  0  0  0  0  0  0  0  0
  190.6780  172.4170  134.4990 C   0  0  0  0  0  1  0  0  0  0  0  0
  189.2070  175.6970  134.5120 C   0  0  0  0  0  2  0  0  0  0  0  0
  187.5300  177.5040  134.3480 N   0  0  0  0  0  0  0  0  0  0  0  0
  186.1890  177.6720  134.7340 N   0  0  0  0  0  2  0  0  0  0  0  0
  183.9380  176.7710  135.1680 N   0  0  0  0  0  2  0  0  0  0  0  0
  185.2860  176.5690  134.7460 C   0  0  0  0  0  0  0  0  0  0  0  0
  185.6730  175.4280  134.3710 O   0  0  0  0  0  0  0  0  0  0  0  0
  182.2430  175.7290  136.5510 C   0  0  0  0  0  2  0  0  0  0  0  0
  181.5770  176.2360  135.2880 C   0  0  0  0  0  2  0  0  0  0  0  0
  182.9860  175.6730  135.2320 C   0  0  0  0  0  3  0  0  0  0  0  0
  188.8690  173.4330  137.5730 C   0  0  0  0  0  2  0  0  0  0  0  0
  187.5240  172.9360  137.0520 C   0  0  0  0  0  2  0  0  0  0  0  0
  185.2770  173.1930  137.6310 C   0  0  0  0  0  1  0  0  0  0  0  0
  186.4840  173.9290  137.2900 N   0  0  0  0  0  2  0  0  0  0  0  0
  1 22  1  0  0  0  0
  1 18  2  0  0  0  0
  2 12  1  0  0  0  0
  3  6  1  1  0  0  0
  4 15  1  0  0  0  0
  5  7  2  0  0  0  0
  6 18  1  0  0  0  0
  7  4  1  0  0  0  0
  8 22  1  0  0  0  0
  9 19  1  0  0  0  0
 10 20  2  0  0  0  0
 10 15  1  0  0  0  0
 11  9  1  6  0  0  0
 11 13  1  0  0  0  0
 11  3  1  0  0  0  0
 12 23  1  0  0  0  0
 13  3  1  0  0  0  0
 13 34  1  1  0  0  0
 14 25  1  6  0  0  0
 14 21  1  0  0  0  0
 15  2  2  0  0  0  0
 16  8  2  0  0  0  0
 17 12  2  0  0  0  0
 18 10  1  0  0  0  0
 19 25  1  6  0  0  0
 19 13  1  0  0  0  0
 20 17  1  0  0  0  0
 21  8  1  1  0  0  0
 22  7  1  0  0  0  0
 24  9  1  0  0  0  0
 26 27  1  0  0  0  0
 26 14  1  0  0  0  0
 26 21  1  0  0  0  0
 27 29  1  0  0  0  0
 28 33  1  0  0  0  0
 29 28  1  0  0  0  0
 30 29  2  0  0  0  0
 32 31  1  0  0  0  0
 33 32  1  0  0  0  0
 33 31  1  0  0  0  0
 35 37  1  0  0  0  0
 35 34  1  0  0  0  0
 37 36  1  0  0  0  0
M  END
>  <MODEL>
5

>  <REMARK>
 VINA RESULT:      -5.1      3.018      5.666
  Name = 
  5 active torsions:
  status: ('A' for Active; 'I' for Inactive)
    1  A    between atoms: N_1  and  N_37
    2  A    between atoms: N_3  and  C_27
    3  A    between atoms: C_10  and  C_23
    4  A    between atoms: C_10  and  N_24
    5  A    between atoms: C_19  and  C_23
                            x       y       z     vdW  Elec       q    Type
                         _______ _______ _______ _____ _____    ______ ____

>  <TORSDO>
F 5

$$$$
=
 OpenBabel10232412383D

 37 43  0  0  1  0  0  0  0  0999 V2000
  189.5190  176.7810  138.7900 N   0  0  0  0  0  0  0  0  0  0  0  0
  185.6380  176.2510  136.6660 C   0  0  0  0  0  3  0  0  0  0  0  0
  189.6740  178.3680  140.8960 C   0  0  1  0  0  3  0  0  0  0  0  0
  187.7300  175.1200  137.0340 N   0  0  0  0  0  2  0  0  0  0  0  0
  189.7300  174.0480  136.6060 O   0  0  0  0  0  0  0  0  0  0  0  0
  188.3540  177.9900  140.3930 N   0  0  0  0  0  2  0  0  0  0  0  0
  189.1550  175.0690  137.0720 C   0  0  0  0  0  0  0  0  0  0  0  0
  191.3500  176.2660  137.3320 C   0  0  0  0  0  0  0  0  0  0  0  0
  191.3910  178.5600  142.6400 N   0  0  0  0  0  0  0  0  0  0  0  0
  187.1450  177.1970  138.3250 C   0  0  0  0  0  0  0  0  0  0  0  0
  189.9620  178.3230  142.3800 C   0  0  2  0  0  3  0  0  0  0  0  0
  184.6960  177.2450  136.9310 C   0  0  0  0  0  0  0  0  0  0  0  0
  190.2760  177.1160  141.5350 C   0  0  2  0  0  0  0  0  0  0  0  0
  192.3570  176.4890  139.6080 C   0  0  2  0  0  3  0  0  0  0  0  0
  186.8670  176.2180  137.3380 C   0  0  0  0  0  0  0  0  0  0  0  0
  191.7800  176.0660  136.0870 C   0  0  0  0  0  2  0  0  0  0  0  0
  184.9640  178.2110  137.8970 C   0  0  0  0  0  3  0  0  0  0  0  0
  188.3600  177.2340  139.1640 C   0  0  0  0  0  0  0  0  0  0  0  0
  191.7150  177.3240  141.9240 C   0  0  1  0  0  3  0  0  0  0  0  0
  186.1730  178.1810  138.5900 C   0  0  0  0  0  3  0  0  0  0  0  0
  192.2460  177.0810  138.2660 C   0  0  1  0  0  3  0  0  0  0  0  0
  189.9360  176.1350  137.6260 N   0  0  0  0  0  0  0  0  0  0  0  0
  183.1810  177.2780  136.0520 Cl  0  0  0  0  0  0  0  0  0  0  0  0
  191.6120  178.3050  144.0540 C   0  0  0  0  0  1  0  0  0  0  0  0
  192.5650  177.5890  140.6630 C   0  0  0  0  0  2  0  0  0  0  0  0
  193.5130  176.4240  138.7010 N   0  0  0  0  0  0  0  0  0  0  0  0
  193.5790  175.0920  138.2550 N   0  0  0  0  0  2  0  0  0  0  0  0
  194.8370  173.0170  137.8330 N   0  0  0  0  0  2  0  0  0  0  0  0
  194.8110  174.3760  138.2700 C   0  0  0  0  0  0  0  0  0  0  0  0
  195.8720  174.9440  138.6500 O   0  0  0  0  0  0  0  0  0  0  0  0
  195.7130  170.7600  137.7490 C   0  0  0  0  0  2  0  0  0  0  0  0
  196.2200  171.5100  136.5340 C   0  0  0  0  0  2  0  0  0  0  0  0
  196.0600  172.2300  137.8600 C   0  0  0  0  0  3  0  0  0  0  0  0
  189.4280  175.9910  142.1500 C   0  0  0  0  0  2  0  0  0  0  0  0
  188.8980  176.3220  143.5420 C   0  0  0  0  0  2  0  0  0  0  0  0
  187.1010  177.3020  144.6660 C   0  0  0  0  0  1  0  0  0  0  0  0
  187.4500  176.4870  143.5120 N   0  0  0  0  0  2  0  0  0  0  0  0
  1 18  2  0  0  0  0
  2 12  2  0  0  0  0
  2 15  1  0  0  0  0
  3  6  1  1  0  0  0
  3 13  1  0  0  0  0
  3 11  1  0  0  0  0
  4  7  1  0  0  0  0
  4 15  1  0  0  0  0
  5  7  2  0  0  0  0
  7 22  1  0  0  0  0
  8 22  1  0  0  0  0
  9 24  1  0  0  0  0
 10 20  1  0  0  0  0
 10 18  1  0  0  0  0
 11  9  1  6  0  0  0
 12 17  1  0  0  0  0
 13 19  1  0  0  0  0
 13 34  1  1  0  0  0
 13 11  1  0  0  0  0
 14 25  1  1  0  0  0
 15 10  2  0  0  0  0
 16  8  2  0  0  0  0
 17 20  2  0  0  0  0
 18  6  1  0  0  0  0
 19 25  1  6  0  0  0
 19  9  1  0  0  0  0
 21  8  1  6  0  0  0
 21 26  1  0  0  0  0
 21 14  1  0  0  0  0
 22  1  1  0  0  0  0
 23 12  1  0  0  0  0
 26 14  1  0  0  0  0
 27 29  1  0  0  0  0
 27 26  1  0  0  0  0
 28 33  1  0  0  0  0
 28 29  1  0  0  0  0
 29 30  2  0  0  0  0
 31 33  1  0  0  0  0
 32 31  1  0  0  0  0
 32 33  1  0  0  0  0
 34 35  1  0  0  0  0
 37 35  1  0  0  0  0
 37 36  1  0  0  0  0
M  END
>  <MODEL>
6

>  <REMARK>
 VINA RESULT:      -4.8      3.676      8.689
  Name = 
  5 active torsions:
  status: ('A' for Active; 'I' for Inactive)
    1  A    between atoms: N_1  and  N_37
    2  A    between atoms: N_3  and  C_27
    3  A    between atoms: C_10  and  C_23
    4  A    between atoms: C_10  and  N_24
    5  A    between atoms: C_19  and  C_23
                            x       y       z     vdW  Elec       q    Type
                         _______ _______ _______ _____ _____    ______ ____

>  <TORSDO>
F 5

$$$$
