=
 OpenBabel10232409183D

 30 35  0  0  1  0  0  0  0  0999 V2000
  188.7230  178.1260  142.5040 C   0  0  2  0  0  3  0  0  0  0  0  0
  184.0670  177.8540  138.2240 C   0  0  1  0  0  0  0  0  0  0  0  0
  181.1480  175.9070  137.4030 C   0  0  0  0  0  1  0  0  0  0  0  0
  188.8190  177.4470  139.3500 C   0  0  0  0  0  0  0  0  0  0  0  0
  187.9330  177.6720  143.7350 C   0  0  0  0  0  3  0  0  0  0  0  0
  186.2710  176.9590  137.5410 C   0  0  1  0  0  3  0  0  0  0  0  0
  185.6940  175.0380  136.2570 O   0  0  0  0  0  1  0  0  0  0  0  0
  187.6950  177.3310  137.1210 C   0  0  1  0  0  0  0  0  0  0  0  0
  188.6950  176.6720  138.0690 C   0  0  0  0  0  2  0  0  0  0  0  0
  186.5340  177.8750  143.4190 N   0  0  0  0  0  0  0  0  0  0  0  0
  183.4380  176.6230  137.8040 N   0  0  0  0  0  0  0  0  0  0  0  0
  187.6300  177.3190  134.6630 O   0  0  0  0  0  1  0  0  0  0  0  0
  185.0350  177.7550  139.2810 C   0  0  2  0  0  3  0  0  0  0  0  0
  184.9200  178.9780  140.1630 C   0  0  1  0  0  3  0  0  0  0  0  0
  183.2040  179.5880  140.0490 S   0  0  0  0  0  0  0  0  0  0  0  0
  185.4770  178.1250  137.9060 N   0  0  2  0  0  0  0  0  0  0  0  0
  181.8420  178.2580  138.1290 N   0  0  0  0  0  2  0  0  0  0  0  0
  187.8080  177.3980  140.3170 O   0  0  0  0  0  0  0  0  0  0  0  0
  189.8220  178.1870  139.5140 O   0  0  0  0  0  0  0  0  0  0  0  0
  186.0050  176.3940  136.1550 C   0  0  2  0  0  3  0  0  0  0  0  0
  185.1870  178.5570  141.5710 C   0  0  0  0  0  3  0  0  0  0  0  0
  187.4830  176.5500  135.8190 C   0  0  2  0  0  3  0  0  0  0  0  0
  183.0890  178.9740  138.3460 C   0  0  2  0  0  3  0  0  0  0  0  0
  187.7030  178.3680  141.3650 C   0  0  1  0  0  3  0  0  0  0  0  0
  182.1770  176.9090  137.7830 C   0  0  0  0  0  0  0  0  0  0  0  0
  186.3920  178.2620  142.0680 C   0  0  0  0  0  0  0  0  0  0  0  0
  188.0030  178.8390  136.9160 C   0  0  0  0  0  2  0  0  0  0  0  0
  189.3370  179.0700  136.5710 O   0  0  0  0  0  1  0  0  0  0  0  0
  189.6840  177.1650  142.1710 O   0  0  0  0  0  0  0  0  0  0  0  0
  189.5380  176.1600  143.1270 C   0  0  0  0  0  1  0  0  0  0  0  0
  1 29  1  6  0  0  0
  1  5  1  0  0  0  0
  2 11  1  6  0  0  0
  2 23  1  0  0  0  0
  2 13  1  0  0  0  0
  3 25  1  0  0  0  0
  4 19  2  0  0  0  0
  4 18  1  0  0  0  0
  6 16  1  0  0  0  0
  8  6  1  0  0  0  0
  8  9  1  0  0  0  0
  9  4  1  0  0  0  0
 10  5  2  0  0  0  0
 12 22  1  0  0  0  0
 13 14  1  0  0  0  0
 14 21  1  0  0  0  0
 15 14  1  0  0  0  0
 16  2  1  0  0  0  0
 16 13  1  0  0  0  0
 17 23  1  0  0  0  0
 18 24  1  0  0  0  0
 20  7  1  0  0  0  0
 20  6  1  0  0  0  0
 21 26  2  0  0  0  0
 22 20  1  0  0  0  0
 22  8  1  0  0  0  0
 23 15  1  0  0  0  0
 24 26  1  0  0  0  0
 24  1  1  0  0  0  0
 25 11  2  0  0  0  0
 25 17  1  0  0  0  0
 26 10  1  0  0  0  0
 27  8  1  0  0  0  0
 28 27  1  0  0  0  0
 29 30  1  0  0  0  0
M  END
>  <MODEL>
1

>  <REMARK>
 VINA RESULT:      -5.7      0.000      0.000
  Name = 
  2 active torsions:
  status: ('A' for Active; 'I' for Inactive)
    1  A    between atoms: C_1  and  O_16
    2  A    between atoms: C_8  and  C_13
                            x       y       z     vdW  Elec       q    Type
                         _______ _______ _______ _____ _____    ______ ____

>  <TORSDO>
F 2

$$$$
=
 OpenBabel10232409183D

 30 35  0  0  1  0  0  0  0  0999 V2000
  184.3120  178.9190  142.7570 C   0  0  2  0  0  3  0  0  0  0  0  0
  189.8480  177.2570  140.1760 C   0  0  1  0  0  0  0  0  0  0  0  0
  191.2960  174.6890  138.1030 C   0  0  0  0  0  1  0  0  0  0  0  0
  187.0540  177.9300  144.1450 C   0  0  0  0  0  0  0  0  0  0  0  0
  183.3830  178.4550  141.6320 C   0  0  0  0  0  3  0  0  0  0  0  0
  189.5340  176.7490  142.5780 C   0  0  1  0  0  3  0  0  0  0  0  0
  190.5780  174.6220  142.8160 O   0  0  0  0  0  1  0  0  0  0  0  0
  189.4790  177.3490  143.9840 C   0  0  1  0  0  0  0  0  0  0  0  0
  188.1370  177.0100  144.6310 C   0  0  0  0  0  2  0  0  0  0  0  0
  184.2060  178.3390  140.4450 N   0  0  0  0  0  0  0  0  0  0  0  0
  190.2400  175.8860  139.9390 N   0  0  0  0  0  0  0  0  0  0  0  0
  191.7550  177.0540  144.8640 O   0  0  0  0  0  1  0  0  0  0  0  0
  188.5170  177.4690  140.6710 C   0  0  2  0  0  3  0  0  0  0  0  0
  187.9630  178.7340  140.0540 C   0  0  1  0  0  3  0  0  0  0  0  0
  188.7850  178.9730  138.4430 S   0  0  0  0  0  0  0  0  0  0  0  0
  189.6860  177.7670  141.5450 N   0  0  2  0  0  0  0  0  0  0  0  0
  190.7970  177.1970  138.1230 N   0  0  0  0  0  2  0  0  0  0  0  0
  186.5170  177.7870  142.8600 O   0  0  0  0  0  0  0  0  0  0  0  0
  186.6770  178.8680  144.8920 O   0  0  0  0  0  0  0  0  0  0  0  0
  190.8010  175.9930  142.9440 C   0  0  2  0  0  3  0  0  0  0  0  0
  186.5010  178.5320  139.8210 C   0  0  0  0  0  3  0  0  0  0  0  0
  190.6120  176.4030  144.3990 C   0  0  2  0  0  3  0  0  0  0  0  0
  190.2800  178.1660  139.0750 C   0  0  2  0  0  3  0  0  0  0  0  0
  185.7630  178.8260  142.2250 C   0  0  1  0  0  3  0  0  0  0  0  0
  190.7580  175.9110  138.7540 C   0  0  0  0  0  0  0  0  0  0  0  0
  185.5640  178.5390  140.7750 C   0  0  0  0  0  0  0  0  0  0  0  0
  189.8230  178.8560  144.1270 C   0  0  0  0  0  2  0  0  0  0  0  0
  191.0930  179.1630  143.6300 O   0  0  0  0  0  1  0  0  0  0  0  0
  184.1070  178.1370  143.9000 O   0  0  0  0  0  0  0  0  0  0  0  0
  183.2830  178.9050  144.7220 C   0  0  0  0  0  1  0  0  0  0  0  0
  1 29  1  1  0  0  0
  2 11  1  6  0  0  0
  2 13  1  0  0  0  0
  2 16  1  0  0  0  0
  3 25  1  0  0  0  0
  4  9  1  0  0  0  0
  4 19  2  0  0  0  0
  5  1  1  0  0  0  0
  6 20  1  0  0  0  0
  6  8  1  0  0  0  0
  7 20  1  0  0  0  0
  8 27  1  0  0  0  0
  8 22  1  0  0  0  0
  8  9  1  0  0  0  0
 10 26  1  0  0  0  0
 10  5  2  0  0  0  0
 13 16  1  0  0  0  0
 14 13  1  0  0  0  0
 15 23  1  0  0  0  0
 15 14  1  0  0  0  0
 16  6  1  0  0  0  0
 17 25  1  0  0  0  0
 17 23  1  0  0  0  0
 18  4  1  0  0  0  0
 20 22  1  0  0  0  0
 21 14  1  0  0  0  0
 21 26  2  0  0  0  0
 22 12  1  0  0  0  0
 23  2  1  0  0  0  0
 24  1  1  0  0  0  0
 24 18  1  0  0  0  0
 25 11  2  0  0  0  0
 26 24  1  0  0  0  0
 28 27  1  0  0  0  0
 29 30  1  0  0  0  0
M  END
>  <MODEL>
2

>  <REMARK>
 VINA RESULT:      -5.5      3.807      6.587
  Name = 
  2 active torsions:
  status: ('A' for Active; 'I' for Inactive)
    1  A    between atoms: C_1  and  O_16
    2  A    between atoms: C_8  and  C_13
                            x       y       z     vdW  Elec       q    Type
                         _______ _______ _______ _____ _____    ______ ____

>  <TORSDO>
F 2

$$$$
=
 OpenBabel10232409183D

 30 35  0  0  1  0  0  0  0  0999 V2000
  185.9260  179.0560  142.1790 C   0  0  2  0  0  3  0  0  0  0  0  0
  184.0410  176.8220  136.5650 C   0  0  1  0  0  0  0  0  0  0  0  0
  182.3920  173.9650  135.1140 C   0  0  0  0  0  1  0  0  0  0  0  0
  187.6500  178.0850  139.6290 C   0  0  0  0  0  0  0  0  0  0  0  0
  184.7790  178.5180  143.0400 C   0  0  0  0  0  3  0  0  0  0  0  0
  186.4450  176.6050  137.1070 C   0  0  1  0  0  3  0  0  0  0  0  0
  187.0020  174.4650  136.2210 O   0  0  0  0  0  1  0  0  0  0  0  0
  187.7690  177.3610  137.2410 C   0  0  1  0  0  0  0  0  0  0  0  0
  188.3270  177.1690  138.6500 C   0  0  0  0  0  2  0  0  0  0  0  0
  183.6890  178.2260  142.1310 N   0  0  0  0  0  0  0  0  0  0  0  0
  183.9880  175.4150  136.2410 N   0  0  0  0  0  0  0  0  0  0  0  0
  188.8750  177.0450  135.0670 O   0  0  0  0  0  1  0  0  0  0  0  0
  184.3900  177.1600  137.9160 C   0  0  2  0  0  3  0  0  0  0  0  0
  183.5940  178.3740  138.3370 C   0  0  1  0  0  3  0  0  0  0  0  0
  182.0460  178.3880  137.3710 S   0  0  0  0  0  0  0  0  0  0  0  0
  185.3280  177.4900  136.8070 N   0  0  2  0  0  0  0  0  0  0  0  0
  182.0980  176.4820  135.4540 N   0  0  0  0  0  2  0  0  0  0  0  0
  186.3450  177.8270  140.0660 O   0  0  0  0  0  0  0  0  0  0  0  0
  188.2560  179.1190  140.0070 O   0  0  0  0  0  0  0  0  0  0  0  0
  187.0020  175.8280  135.9240 C   0  0  2  0  0  3  0  0  0  0  0  0
  183.2550  178.2260  139.7840 C   0  0  0  0  0  3  0  0  0  0  0  0
  188.3830  176.4080  136.2070 C   0  0  2  0  0  3  0  0  0  0  0  0
  182.8910  177.5780  135.9870 C   0  0  2  0  0  3  0  0  0  0  0  0
  185.5380  178.8260  140.6990 C   0  0  1  0  0  3  0  0  0  0  0  0
  182.8580  175.2790  135.6270 C   0  0  0  0  0  0  0  0  0  0  0  0
  184.1150  178.3900  140.7940 C   0  0  0  0  0  0  0  0  0  0  0  0
  187.7800  178.8540  136.8150 C   0  0  0  0  0  2  0  0  0  0  0  0
  189.0190  179.4620  137.0320 O   0  0  0  0  0  1  0  0  0  0  0  0
  187.1230  178.4190  142.5270 O   0  0  0  0  0  0  0  0  0  0  0  0
  186.8240  177.6850  143.6740 C   0  0  0  0  0  1  0  0  0  0  0  0
  1 29  1  1  0  0  0
  1  5  1  0  0  0  0
  2 11  1  6  0  0  0
  2 16  1  0  0  0  0
  2 13  1  0  0  0  0
  3 25  1  0  0  0  0
  4 19  2  0  0  0  0
  4 18  1  0  0  0  0
  6  8  1  0  0  0  0
  8  9  1  0  0  0  0
  9  4  1  0  0  0  0
 10  5  2  0  0  0  0
 12 22  1  0  0  0  0
 13 14  1  0  0  0  0
 14 21  1  0  0  0  0
 15 14  1  0  0  0  0
 16  6  1  0  0  0  0
 16 13  1  0  0  0  0
 17 25  1  0  0  0  0
 17 23  1  0  0  0  0
 18 24  1  0  0  0  0
 20 22  1  0  0  0  0
 20  7  1  0  0  0  0
 20  6  1  0  0  0  0
 21 26  2  0  0  0  0
 22  8  1  0  0  0  0
 23  2  1  0  0  0  0
 23 15  1  0  0  0  0
 24 26  1  0  0  0  0
 24  1  1  0  0  0  0
 25 11  2  0  0  0  0
 26 10  1  0  0  0  0
 27 28  1  0  0  0  0
 27  8  1  0  0  0  0
 29 30  1  0  0  0  0
M  END
>  <MODEL>
3

>  <REMARK>
 VINA RESULT:      -5.5      1.778      2.212
  Name = 
  2 active torsions:
  status: ('A' for Active; 'I' for Inactive)
    1  A    between atoms: C_1  and  O_16
    2  A    between atoms: C_8  and  C_13
                            x       y       z     vdW  Elec       q    Type
                         _______ _______ _______ _____ _____    ______ ____

>  <TORSDO>
F 2

$$$$
=
 OpenBabel10232409183D

 30 35  0  0  1  0  0  0  0  0999 V2000
  190.7900  177.8640  141.1620 C   0  0  2  0  0  3  0  0  0  0  0  0
  187.1830  175.8010  136.3870 C   0  0  1  0  0  0  0  0  0  0  0  0
  184.3270  173.6930  135.7610 C   0  0  0  0  0  1  0  0  0  0  0  0
  191.5030  175.9070  138.6960 C   0  0  0  0  0  0  0  0  0  0  0  0
  189.7070  177.9770  142.2390 C   0  0  0  0  0  3  0  0  0  0  0  0
  189.3770  174.6980  136.6910 C   0  0  1  0  0  3  0  0  0  0  0  0
  188.8980  172.4140  136.2170 O   0  0  0  0  0  1  0  0  0  0  0  0
  190.8890  174.8550  136.5140 C   0  0  1  0  0  0  0  0  0  0  0  0
  191.5830  174.6610  137.8610 C   0  0  0  0  0  2  0  0  0  0  0  0
  188.4390  178.0280  141.5390 N   0  0  0  0  0  0  0  0  0  0  0  0
  186.5360  174.5090  136.3730 N   0  0  0  0  0  0  0  0  0  0  0  0
  191.3630  173.7980  134.3460 O   0  0  0  0  0  1  0  0  0  0  0  0
  187.8790  176.1610  137.5900 C   0  0  2  0  0  3  0  0  0  0  0  0
  187.7020  177.6420  137.8330 C   0  0  1  0  0  3  0  0  0  0  0  0
  186.1260  178.1470  137.0650 S   0  0  0  0  0  0  0  0  0  0  0  0
  188.6480  175.9100  136.3380 N   0  0  2  0  0  0  0  0  0  0  0  0
  185.0870  176.1290  135.5970 N   0  0  0  0  0  2  0  0  0  0  0  0
  190.3050  176.2750  139.3210 O   0  0  0  0  0  0  0  0  0  0  0  0
  192.5170  176.6450  138.7790 O   0  0  0  0  0  0  0  0  0  0  0  0
  189.3640  173.5970  135.6430 C   0  0  2  0  0  3  0  0  0  0  0  0
  187.6080  177.8610  139.3080 C   0  0  0  0  0  3  0  0  0  0  0  0
  190.8870  173.5940  135.6420 C   0  0  2  0  0  3  0  0  0  0  0  0
  186.3230  176.8680  135.7950 C   0  0  2  0  0  3  0  0  0  0  0  0
  190.0750  177.5990  139.8150 C   0  0  1  0  0  3  0  0  0  0  0  0
  185.3470  174.7600  135.9320 C   0  0  0  0  0  0  0  0  0  0  0  0
  188.6380  177.8040  140.1590 C   0  0  0  0  0  0  0  0  0  0  0  0
  191.3900  176.1320  135.7870 C   0  0  0  0  0  2  0  0  0  0  0  0
  192.7680  176.1090  135.5550 O   0  0  0  0  0  1  0  0  0  0  0  0
  191.6950  176.8510  141.4990 O   0  0  0  0  0  0  0  0  0  0  0  0
  191.5790  176.7070  142.8810 C   0  0  0  0  0  1  0  0  0  0  0  0
  1 29  1  1  0  0  0
  1  5  1  0  0  0  0
  2 11  1  6  0  0  0
  2 13  1  0  0  0  0
  3 25  1  0  0  0  0
  4 19  2  0  0  0  0
  4 18  1  0  0  0  0
  8  6  1  0  0  0  0
  8  9  1  0  0  0  0
  9  4  1  0  0  0  0
 10  5  2  0  0  0  0
 12 22  1  0  0  0  0
 13 14  1  0  0  0  0
 14 21  1  0  0  0  0
 15 14  1  0  0  0  0
 16  2  1  0  0  0  0
 16  6  1  0  0  0  0
 16 13  1  0  0  0  0
 17 23  1  0  0  0  0
 17 25  1  0  0  0  0
 18 24  1  0  0  0  0
 20  7  1  0  0  0  0
 20  6  1  0  0  0  0
 21 26  2  0  0  0  0
 22 20  1  0  0  0  0
 22  8  1  0  0  0  0
 23  2  1  0  0  0  0
 23 15  1  0  0  0  0
 24 26  1  0  0  0  0
 24  1  1  0  0  0  0
 25 11  2  0  0  0  0
 26 10  1  0  0  0  0
 27  8  1  0  0  0  0
 28 27  1  0  0  0  0
 29 30  1  0  0  0  0
M  END
>  <MODEL>
4

>  <REMARK>
 VINA RESULT:      -5.3      3.000      3.797
  Name = 
  2 active torsions:
  status: ('A' for Active; 'I' for Inactive)
    1  A    between atoms: C_1  and  O_16
    2  A    between atoms: C_8  and  C_13
                            x       y       z     vdW  Elec       q    Type
                         _______ _______ _______ _____ _____    ______ ____

>  <TORSDO>
F 2

$$$$
=
 OpenBabel10232409183D

 30 35  0  0  1  0  0  0  0  0999 V2000
  182.0410  172.6860  136.7340 C   0  0  2  0  0  3  0  0  0  0  0  0
  186.1010  177.5290  137.0850 C   0  0  1  0  0  0  0  0  0  0  0  0
  189.0880  178.5410  138.8310 C   0  0  0  0  0  1  0  0  0  0  0  0
  181.6120  175.7010  137.8030 C   0  0  0  0  0  0  0  0  0  0  0  0
  183.0300  171.5370  136.9560 C   0  0  0  0  0  3  0  0  0  0  0  0
  183.9410  177.7900  138.2650 C   0  0  1  0  0  3  0  0  0  0  0  0
  184.5570  178.9250  140.2650 O   0  0  0  0  0  1  0  0  0  0  0  0
  182.4420  178.0410  138.0850 C   0  0  1  0  0  0  0  0  0  0  0  0
  181.6540  176.8940  138.7150 C   0  0  0  0  0  2  0  0  0  0  0  0
  184.3450  172.0690  136.6610 N   0  0  0  0  0  0  0  0  0  0  0  0
  186.8030  177.8980  138.2930 N   0  0  0  0  0  0  0  0  0  0  0  0
  182.1870  180.4660  138.3940 O   0  0  0  0  0  1  0  0  0  0  0  0
  185.2960  176.3410  137.1450 C   0  0  2  0  0  3  0  0  0  0  0  0
  185.3880  175.6230  135.8180 C   0  0  1  0  0  3  0  0  0  0  0  0
  186.9950  176.0460  135.0660 S   0  0  0  0  0  0  0  0  0  0  0  0
  184.6410  177.6710  136.9920 N   0  0  2  0  0  0  0  0  0  0  0  0
  188.2350  177.9840  136.4850 N   0  0  0  0  0  2  0  0  0  0  0  0
  182.7390  174.8880  137.6360 O   0  0  0  0  0  0  0  0  0  0  0  0
  180.5620  175.4770  137.1490 O   0  0  0  0  0  0  0  0  0  0  0  0
  184.0850  179.1300  138.9690 C   0  0  2  0  0  3  0  0  0  0  0  0
  185.3550  174.1530  136.0860 C   0  0  0  0  0  3  0  0  0  0  0  0
  182.5690  179.2670  138.9970 C   0  0  2  0  0  3  0  0  0  0  0  0
  186.9560  177.6700  135.8710 C   0  0  2  0  0  3  0  0  0  0  0  0
  182.8710  173.9770  136.5390 C   0  0  1  0  0  3  0  0  0  0  0  0
  188.0110  178.1290  137.8930 C   0  0  0  0  0  0  0  0  0  0  0  0
  184.2650  173.4610  136.4310 C   0  0  0  0  0  0  0  0  0  0  0  0
  181.9430  178.3630  136.6500 C   0  0  0  0  0  2  0  0  0  0  0  0
  180.5840  178.6890  136.6170 O   0  0  0  0  0  1  0  0  0  0  0  0
  181.1590  172.7720  137.8170 O   0  0  0  0  0  0  0  0  0  0  0  0
  180.1050  171.9160  137.4960 C   0  0  0  0  0  1  0  0  0  0  0  0
  1  5  1  0  0  0  0
  1 29  1  1  0  0  0
  2 13  1  0  0  0  0
  2 11  1  1  0  0  0
  4  9  1  0  0  0  0
  6 20  1  0  0  0  0
  8  6  1  0  0  0  0
  8  9  1  0  0  0  0
  8 22  1  0  0  0  0
 10  5  2  0  0  0  0
 12 22  1  0  0  0  0
 14 21  1  0  0  0  0
 14 13  1  0  0  0  0
 15 14  1  0  0  0  0
 15 23  1  0  0  0  0
 16  2  1  0  0  0  0
 16 13  1  0  0  0  0
 16  6  1  0  0  0  0
 17 25  1  0  0  0  0
 18  4  1  0  0  0  0
 19  4  2  0  0  0  0
 20 22  1  0  0  0  0
 20  7  1  0  0  0  0
 21 26  2  0  0  0  0
 23 17  1  0  0  0  0
 23  2  1  0  0  0  0
 24  1  1  0  0  0  0
 24 18  1  0  0  0  0
 25 11  2  0  0  0  0
 25  3  1  0  0  0  0
 26 24  1  0  0  0  0
 26 10  1  0  0  0  0
 27  8  1  0  0  0  0
 28 27  1  0  0  0  0
 30 29  1  0  0  0  0
M  END
>  <MODEL>
5

>  <REMARK>
 VINA RESULT:      -5.3      3.496      7.184
  Name = 
  2 active torsions:
  status: ('A' for Active; 'I' for Inactive)
    1  A    between atoms: C_1  and  O_16
    2  A    between atoms: C_8  and  C_13
                            x       y       z     vdW  Elec       q    Type
                         _______ _______ _______ _____ _____    ______ ____

>  <TORSDO>
F 2

$$$$
=
 OpenBabel10232409183D

 30 35  0  0  1  0  0  0  0  0999 V2000
  184.3360  179.1780  139.2600 C   0  0  2  0  0  3  0  0  0  0  0  0
  184.2670  173.8500  135.8440 C   0  0  1  0  0  0  0  0  0  0  0  0
  183.7320  170.3060  136.2210 C   0  0  0  0  0  1  0  0  0  0  0  0
  186.7330  177.6310  137.7490 C   0  0  0  0  0  0  0  0  0  0  0  0
  183.2140  178.8380  140.2450 C   0  0  0  0  0  3  0  0  0  0  0  0
  186.4850  174.7480  136.4760 C   0  0  1  0  0  3  0  0  0  0  0  0
  187.7370  172.7820  136.9670 O   0  0  0  0  0  1  0  0  0  0  0  0
  187.5170  175.8420  136.1920 C   0  0  1  0  0  0  0  0  0  0  0  0
  187.8050  176.6160  137.4760 C   0  0  0  0  0  2  0  0  0  0  0  0
  182.4440  177.7750  139.6320 N   0  0  0  0  0  0  0  0  0  0  0  0
  184.6420  172.5570  136.3710 N   0  0  0  0  0  0  0  0  0  0  0  0
  189.0840  174.8070  134.6060 O   0  0  0  0  0  1  0  0  0  0  0  0
  184.2360  174.9410  136.7770 C   0  0  2  0  0  3  0  0  0  0  0  0
  183.0880  175.8580  136.4170 C   0  0  1  0  0  3  0  0  0  0  0  0
  181.8180  174.8550  135.5740 S   0  0  0  0  0  0  0  0  0  0  0  0
  185.2640  174.9200  135.6990 N   0  0  2  0  0  0  0  0  0  0  0  0
  182.7440  172.3650  135.0720 N   0  0  0  0  0  2  0  0  0  0  0  0
  185.4760  177.2350  138.2230 O   0  0  0  0  0  0  0  0  0  0  0  0
  186.9650  178.8400  137.4920 O   0  0  0  0  0  0  0  0  0  0  0  0
  187.4500  173.6950  135.9530 C   0  0  2  0  0  3  0  0  0  0  0  0
  182.5110  176.3950  137.6860 C   0  0  0  0  0  3  0  0  0  0  0  0
  188.5500  174.7480  135.8930 C   0  0  2  0  0  3  0  0  0  0  0  0
  183.1060  173.7640  134.9110 C   0  0  2  0  0  3  0  0  0  0  0  0
  184.3300  178.0910  138.1590 C   0  0  1  0  0  3  0  0  0  0  0  0
  183.7330  171.7590  135.9120 C   0  0  0  0  0  0  0  0  0  0  0  0
  183.0770  177.3360  138.4480 C   0  0  0  0  0  0  0  0  0  0  0  0
  187.2330  176.7920  134.9970 C   0  0  0  0  0  2  0  0  0  0  0  0
  188.2930  177.6670  134.7470 O   0  0  0  0  0  1  0  0  0  0  0  0
  185.5590  179.2510  139.9370 O   0  0  0  0  0  0  0  0  0  0  0  0
  185.2320  179.1630  141.2890 C   0  0  0  0  0  1  0  0  0  0  0  0
  1 29  1  1  0  0  0
  1  5  1  0  0  0  0
  2 11  1  1  0  0  0
  2 13  1  0  0  0  0
  4 18  1  0  0  0  0
  8  6  1  0  0  0  0
  8  9  1  0  0  0  0
  9  4  1  0  0  0  0
 10  5  2  0  0  0  0
 12 22  1  0  0  0  0
 14 13  1  0  0  0  0
 14 21  1  0  0  0  0
 15 14  1  0  0  0  0
 16  2  1  0  0  0  0
 16  6  1  0  0  0  0
 16 13  1  0  0  0  0
 17 25  1  0  0  0  0
 19  4  2  0  0  0  0
 20  6  1  0  0  0  0
 20  7  1  0  0  0  0
 21 26  2  0  0  0  0
 22 20  1  0  0  0  0
 22  8  1  0  0  0  0
 23 17  1  0  0  0  0
 23 15  1  0  0  0  0
 23  2  1  0  0  0  0
 24 18  1  0  0  0  0
 24 26  1  0  0  0  0
 24  1  1  0  0  0  0
 25  3  1  0  0  0  0
 25 11  2  0  0  0  0
 26 10  1  0  0  0  0
 27  8  1  0  0  0  0
 28 27  1  0  0  0  0
 29 30  1  0  0  0  0
M  END
>  <MODEL>
6

>  <REMARK>
 VINA RESULT:      -5.2      3.004      4.525
  Name = 
  2 active torsions:
  status: ('A' for Active; 'I' for Inactive)
    1  A    between atoms: C_1  and  O_16
    2  A    between atoms: C_8  and  C_13
                            x       y       z     vdW  Elec       q    Type
                         _______ _______ _______ _____ _____    ______ ____

>  <TORSDO>
F 2

$$$$
=
 OpenBabel10232409183D

 30 35  0  0  1  0  0  0  0  0999 V2000
  192.3590  172.8990  135.8230 C   0  0  2  0  0  3  0  0  0  0  0  0
  186.5500  175.2490  136.7160 C   0  0  1  0  0  0  0  0  0  0  0  0
  183.7360  176.5060  134.8480 C   0  0  0  0  0  1  0  0  0  0  0  0
  191.4100  175.6720  137.1750 C   0  0  0  0  0  0  0  0  0  0  0  0
  192.1000  172.1260  134.5270 C   0  0  0  0  0  2  0  0  0  0  0  0
  188.4520  176.7860  137.0960 C   0  0  1  0  0  3  0  0  0  0  0  0
  187.6540  178.8520  136.2190 O   0  0  0  0  0  1  0  0  0  0  0  0
  189.5940  177.1490  138.0480 C   0  0  1  0  0  0  0  0  0  0  0  0
  190.9230  177.0870  137.2980 C   0  0  0  0  0  2  0  0  0  0  0  0
  190.6670  171.9360  134.4450 N   0  0  0  0  0  0  0  0  0  0  0  0
  185.9390  176.2240  135.8410 N   0  0  0  0  0  0  0  0  0  0  0  0
  188.6730  178.9470  139.4500 O   0  0  0  0  0  1  0  0  0  0  0  0
  187.8310  174.7380  136.3160 C   0  0  2  0  0  3  0  0  0  0  0  0
  187.9130  173.2760  136.6910 C   0  0  1  0  0  3  0  0  0  0  0  0
  186.2150  172.6100  136.7060 S   0  0  0  0  0  0  0  0  0  0  0  0
  187.7250  175.5990  137.5270 N   0  0  2  0  0  0  0  0  0  0  0  0
  184.4050  174.5960  136.4110 N   0  0  0  0  0  2  0  0  0  0  0  0
  190.8120  174.7850  136.2720 O   0  0  0  0  0  0  0  0  0  0  0  0
  192.3290  175.2810  137.9380 O   0  0  0  0  0  0  0  0  0  0  0  0
  187.7740  178.1140  137.3960 C   0  0  2  0  0  3  0  0  0  0  0  0
  188.6970  172.5710  135.6330 C   0  0  0  0  0  2  0  0  0  0  0  0
  189.0170  178.5660  138.1520 C   0  0  2  0  0  3  0  0  0  0  0  0
  185.5710  174.2320  137.1980 C   0  0  2  0  0  3  0  0  0  0  0  0
  190.9860  173.3660  136.3630 C   0  0  1  0  0  3  0  0  0  0  0  0
  184.7290  175.7920  135.6920 C   0  0  0  0  0  0  0  0  0  0  0  0
  190.0230  172.6470  135.4820 C   0  0  0  0  0  0  0  0  0  0  0  0
  189.6600  176.3880  139.4000 C   0  0  0  0  0  2  0  0  0  0  0  0
  190.6790  176.8610  140.2300 O   0  0  0  0  0  1  0  0  0  0  0  0
  193.2320  173.9650  135.5780 O   0  0  0  0  0  0  0  0  0  0  0  0
  194.5090  173.4440  135.7850 C   0  0  0  0  0  1  0  0  0  0  0  0
  1 29  1  6  0  0  0
  1 24  1  0  0  0  0
  2 11  1  6  0  0  0
  2 23  1  0  0  0  0
  2 16  1  0  0  0  0
  3 25  1  0  0  0  0
  4  9  1  0  0  0  0
  4 19  2  0  0  0  0
  5  1  1  0  0  0  0
  6 20  1  0  0  0  0
  6 16  1  0  0  0  0
  6  8  1  0  0  0  0
  7 20  1  0  0  0  0
  8 22  1  0  0  0  0
  8 27  1  0  0  0  0
  9  8  1  0  0  0  0
 10  5  1  0  0  0  0
 10 26  2  0  0  0  0
 13 14  1  0  0  0  0
 13  2  1  0  0  0  0
 13 16  1  0  0  0  0
 14 15  1  0  0  0  0
 15 23  1  0  0  0  0
 17 23  1  0  0  0  0
 18 24  1  0  0  0  0
 18  4  1  0  0  0  0
 20 22  1  0  0  0  0
 21 14  1  0  0  0  0
 22 12  1  0  0  0  0
 25 11  2  0  0  0  0
 25 17  1  0  0  0  0
 26 21  1  0  0  0  0
 26 24  1  0  0  0  0
 27 28  1  0  0  0  0
 29 30  1  0  0  0  0
M  END
>  <MODEL>
7

>  <REMARK>
 VINA RESULT:      -4.9      4.068      6.267
  Name = 
  2 active torsions:
  status: ('A' for Active; 'I' for Inactive)
    1  A    between atoms: C_1  and  O_16
    2  A    between atoms: C_8  and  C_13
                            x       y       z     vdW  Elec       q    Type
                         _______ _______ _______ _____ _____    ______ ____

>  <TORSDO>
F 2

$$$$
=
 OpenBabel10232409183D

 30 35  0  0  1  0  0  0  0  0999 V2000
  181.7570  172.9440  136.0540 C   0  0  2  0  0  3  0  0  0  0  0  0
  184.5340  178.0340  138.5920 C   0  0  1  0  0  0  0  0  0  0  0  0
  186.0100  179.1510  141.6850 C   0  0  0  0  0  1  0  0  0  0  0  0
  180.5490  175.8540  136.7540 C   0  0  0  0  0  0  0  0  0  0  0  0
  182.5710  171.8570  136.7620 C   0  0  0  0  0  2  0  0  0  0  0  0
  182.0650  178.0720  138.4220 C   0  0  1  0  0  3  0  0  0  0  0  0
  181.4050  179.1310  140.4500 O   0  0  0  0  0  1  0  0  0  0  0  0
  180.8820  178.2270  137.4640 C   0  0  1  0  0  0  0  0  0  0  0  0
  179.9860  176.9930  137.5560 C   0  0  0  0  0  2  0  0  0  0  0  0
  183.7840  172.4970  137.2290 N   0  0  0  0  0  0  0  0  0  0  0  0
  184.4410  178.3810  139.9920 N   0  0  0  0  0  0  0  0  0  0  0  0
  180.2810  180.6060  137.6120 O   0  0  0  0  0  1  0  0  0  0  0  0
  183.9350  176.7910  138.1960 C   0  0  2  0  0  3  0  0  0  0  0  0
  184.7890  176.1580  137.1200 C   0  0  1  0  0  3  0  0  0  0  0  0
  186.5030  176.7370  137.3590 S   0  0  0  0  0  0  0  0  0  0  0  0
  183.3460  178.0770  137.7270 N   0  0  2  0  0  0  0  0  0  0  0  0
  186.6050  178.6730  139.2440 N   0  0  0  0  0  2  0  0  0  0  0  0
  181.6580  175.1340  137.2130 O   0  0  0  0  0  0  0  0  0  0  0  0
  180.0400  175.5950  135.6340 O   0  0  0  0  0  0  0  0  0  0  0  0
  181.6870  179.3760  139.1070 C   0  0  2  0  0  3  0  0  0  0  0  0
  184.7520  174.6780  137.3120 C   0  0  0  0  0  2  0  0  0  0  0  0
  180.3870  179.4040  138.3130 C   0  0  2  0  0  3  0  0  0  0  0  0
  185.8900  178.3050  138.0330 C   0  0  2  0  0  3  0  0  0  0  0  0
  182.4400  174.3000  136.3510 C   0  0  1  0  0  3  0  0  0  0  0  0
  185.6480  178.7200  140.3100 C   0  0  0  0  0  0  0  0  0  0  0  0
  183.7150  173.8900  137.0080 C   0  0  0  0  0  0  0  0  0  0  0  0
  181.2040  178.5960  135.9900 C   0  0  0  0  0  2  0  0  0  0  0  0
  180.0530  178.8460  135.2380 O   0  0  0  0  0  1  0  0  0  0  0  0
  180.4270  172.9040  136.4900 O   0  0  0  0  0  0  0  0  0  0  0  0
  180.3550  171.7970  137.3340 C   0  0  0  0  0  1  0  0  0  0  0  0
  1 24  1  0  0  0  0
  1 29  1  1  0  0  0
  1  5  1  0  0  0  0
  2 11  1  1  0  0  0
  4 18  1  0  0  0  0
  4  9  1  0  0  0  0
  5 10  1  0  0  0  0
  6 20  1  0  0  0  0
  8  9  1  0  0  0  0
  8 22  1  0  0  0  0
  8  6  1  0  0  0  0
 11 25  2  0  0  0  0
 12 22  1  0  0  0  0
 13  2  1  0  0  0  0
 14 21  1  0  0  0  0
 14 15  1  0  0  0  0
 14 13  1  0  0  0  0
 15 23  1  0  0  0  0
 16 13  1  0  0  0  0
 16  6  1  0  0  0  0
 16  2  1  0  0  0  0
 17 25  1  0  0  0  0
 19  4  2  0  0  0  0
 20  7  1  0  0  0  0
 22 20  1  0  0  0  0
 23  2  1  0  0  0  0
 23 17  1  0  0  0  0
 24 26  1  0  0  0  0
 24 18  1  0  0  0  0
 25  3  1  0  0  0  0
 26 10  2  0  0  0  0
 26 21  1  0  0  0  0
 27  8  1  0  0  0  0
 28 27  1  0  0  0  0
 29 30  1  0  0  0  0
M  END
>  <MODEL>
8

>  <REMARK>
 VINA RESULT:      -4.9      4.011      7.419
  Name = 
  2 active torsions:
  status: ('A' for Active; 'I' for Inactive)
    1  A    between atoms: C_1  and  O_16
    2  A    between atoms: C_8  and  C_13
                            x       y       z     vdW  Elec       q    Type
                         _______ _______ _______ _____ _____    ______ ____

>  <TORSDO>
F 2

$$$$
=
 OpenBabel10232409183D

 30 35  0  0  1  0  0  0  0  0999 V2000
  185.9270  172.3710  135.3740 C   0  0  2  0  0  3  0  0  0  0  0  0
  191.5660  175.0320  136.4600 C   0  0  1  0  0  0  0  0  0  0  0  0
  194.5040  174.5990  138.5020 C   0  0  0  0  0  1  0  0  0  0  0  0
  186.6750  175.2250  136.6810 C   0  0  0  0  0  0  0  0  0  0  0  0
  186.3230  170.9030  135.5600 C   0  0  0  0  0  3  0  0  0  0  0  0
  189.5980  176.1130  137.5000 C   0  0  1  0  0  3  0  0  0  0  0  0
  190.4170  176.7760  139.6350 O   0  0  0  0  0  1  0  0  0  0  0  0
  188.3650  176.9810  137.2360 C   0  0  1  0  0  0  0  0  0  0  0  0
  187.1120  176.2400  137.6990 C   0  0  0  0  0  2  0  0  0  0  0  0
  187.7630  170.8480  135.4100 N   0  0  0  0  0  0  0  0  0  0  0  0
  192.2280  175.0060  137.7450 N   0  0  0  0  0  0  0  0  0  0  0  0
  189.1050  179.2680  137.7480 O   0  0  0  0  0  1  0  0  0  0  0  0
  190.3410  174.2910  136.3530 C   0  0  2  0  0  3  0  0  0  0  0  0
  190.2640  173.6720  134.9750 C   0  0  1  0  0  3  0  0  0  0  0  0
  191.9710  173.4200  134.3830 S   0  0  0  0  0  0  0  0  0  0  0  0
  190.3140  175.7790  136.2750 N   0  0  2  0  0  0  0  0  0  0  0  0
  193.7470  174.5780  136.0600 N   0  0  0  0  0  2  0  0  0  0  0  0
  187.3760  174.0240  136.5220 O   0  0  0  0  0  0  0  0  0  0  0  0
  185.7010  175.4990  135.9350 O   0  0  0  0  0  0  0  0  0  0  0  0
  190.2100  177.2290  138.3320 C   0  0  2  0  0  3  0  0  0  0  0  0
  189.5990  172.3410  135.1030 C   0  0  0  0  0  3  0  0  0  0  0  0
  188.8920  177.9890  138.2640 C   0  0  2  0  0  3  0  0  0  0  0  0
  192.5240  174.8650  135.3280 C   0  0  2  0  0  3  0  0  0  0  0  0
  187.2320  173.2020  135.3580 C   0  0  1  0  0  3  0  0  0  0  0  0
  193.4580  174.7290  137.4550 C   0  0  0  0  0  0  0  0  0  0  0  0
  188.2900  172.1530  135.3040 C   0  0  0  0  0  0  0  0  0  0  0  0
  188.1960  177.5590  135.8050 C   0  0  0  0  0  2  0  0  0  0  0  0
  187.0670  178.3750  135.6870 O   0  0  0  0  0  1  0  0  0  0  0  0
  185.0520  172.7620  136.3930 O   0  0  0  0  0  0  0  0  0  0  0  0
  183.9870  171.8650  136.3220 C   0  0  0  0  0  1  0  0  0  0  0  0
  1  5  1  0  0  0  0
  1 29  1  1  0  0  0
  2 11  1  1  0  0  0
  4  9  1  0  0  0  0
  6 20  1  0  0  0  0
  8  6  1  0  0  0  0
  8  9  1  0  0  0  0
  8 22  1  0  0  0  0
 10  5  2  0  0  0  0
 12 22  1  0  0  0  0
 13  2  1  0  0  0  0
 14 21  1  0  0  0  0
 14 13  1  0  0  0  0
 15 14  1  0  0  0  0
 15 23  1  0  0  0  0
 16 13  1  0  0  0  0
 16  2  1  0  0  0  0
 16  6  1  0  0  0  0
 17 25  1  0  0  0  0
 18  4  1  0  0  0  0
 19  4  2  0  0  0  0
 20  7  1  0  0  0  0
 21 26  2  0  0  0  0
 22 20  1  0  0  0  0
 23 17  1  0  0  0  0
 23  2  1  0  0  0  0
 24  1  1  0  0  0  0
 24 18  1  0  0  0  0
 25 11  2  0  0  0  0
 25  3  1  0  0  0  0
 26 24  1  0  0  0  0
 26 10  1  0  0  0  0
 27  8  1  0  0  0  0
 28 27  1  0  0  0  0
 30 29  1  0  0  0  0
M  END
>  <MODEL>
9

>  <REMARK>
 VINA RESULT:      -4.8      4.697      8.118
  Name = 
  2 active torsions:
  status: ('A' for Active; 'I' for Inactive)
    1  A    between atoms: C_1  and  O_16
    2  A    between atoms: C_8  and  C_13
                            x       y       z     vdW  Elec       q    Type
                         _______ _______ _______ _____ _____    ______ ____

>  <TORSDO>
F 2

$$$$
