=
 OpenBabel10232411393D

 63 69  0  0  1  0  0  0  0  0999 V2000
  187.8600  177.4490  138.3600 C   0  0  1  0  0  3  0  0  0  0  0  0
  188.8230  176.9420  139.4460 C   0  0  1  0  0  3  0  0  0  0  0  0
  191.8260  176.1610  137.9310 O   0  0  0  0  0  0  0  0  0  0  0  0
  190.4400  176.4900  137.8700 C   0  0  1  0  0  3  0  0  0  0  0  0
  186.0580  176.2260  137.3220 N   0  0  0  0  0  0  0  0  0  0  0  0
  187.4720  176.4010  137.3710 C   0  0  0  0  0  0  0  0  0  0  0  0
  189.7950  175.9630  136.6030 C   0  0  0  0  0  0  0  0  0  0  0  0
  192.0320  175.8100  135.6120 C   0  0  0  0  0  3  0  0  0  0  0  0
  189.7810  175.9930  139.0100 O   0  0  0  0  0  0  0  0  0  0  0  0
  186.5330  177.8650  138.9900 C   0  0  0  0  0  2  0  0  0  0  0  0
  192.6170  176.0730  136.7800 C   0  0  0  0  0  0  0  0  0  0  0  0
  190.0020  175.2150  134.3470 O   0  0  0  0  0  1  0  0  0  0  0  0
  190.5670  175.6660  135.5410 C   0  0  0  0  0  0  0  0  0  0  0  0
  188.3270  175.8110  136.5260 C   0  0  0  0  0  3  0  0  0  0  0  0
  185.4110  177.1770  138.2040 C   0  0  1  0  0  3  0  0  0  0  0  0
  185.6330  172.0670  135.3250 O   0  0  0  0  0  0  0  0  0  0  0  0
  184.7620  171.9510  136.4120 C   0  0  0  0  0  2  0  0  0  0  0  0
  185.2810  172.7740  137.5910 C   0  0  0  0  0  2  0  0  0  0  0  0
  185.1270  174.3360  134.5830 C   0  0  0  0  0  2  0  0  0  0  0  0
  186.0450  174.5860  135.6190 O   0  0  0  0  0  0  0  0  0  0  0  0
  185.2870  175.1750  136.6450 C   0  0  1  0  0  3  0  0  0  0  0  0
  184.9620  172.8280  134.3540 C   0  0  0  0  0  2  0  0  0  0  0  0
  184.6280  174.1630  137.6010 C   0  0  0  0  0  2  0  0  0  0  0  0
  194.1100  176.1910  136.8540 C   0  0  0  0  0  2  0  0  0  0  0  0
  194.7950  175.0190  137.5020 C   0  0  0  0  0  0  0  0  0  0  0  0
  195.1750  175.0640  138.7050 O   0  0  0  0  0  0  0  0  0  0  0  0
  195.0600  173.7970  136.7260 C   0  0  0  0  0  0  0  0  0  0  0  0
  195.5920  172.6260  137.3700 N   0  0  0  0  0  2  0  0  0  0  0  0
  194.7990  173.7830  135.4910 O   0  0  0  0  0  0  0  0  0  0  0  0
  195.9610  171.4560  136.6780 N   0  0  0  0  0  2  0  0  0  0  0  0
  197.2060  171.7020  135.9580 C   0  0  2  0  0  3  0  0  0  0  0  0
  197.4940  170.5880  135.0300 N   0  0  0  0  0  0  0  0  0  0  0  0
  199.2010  168.5580  135.3320 O   0  0  0  0  0  0  0  0  0  0  0  0
  196.0560  168.5920  134.7430 C   0  0  1  0  0  3  0  0  0  0  0  0
  198.0200  169.2380  135.9870 P   0  0  1  0  0  0  0  0  0  0  0  0
  196.2850  170.0750  134.3800 C   0  0  0  0  0  2  0  0  0  0  0  0
  198.4160  169.6830  137.5690 O   0  0  0  0  0  1  0  0  0  0  0  0
  196.6830  168.2270  135.9500 O   0  0  0  0  0  0  0  0  0  0  0  0
  194.2750  168.2540  134.8390 S   0  0  0  0  0  0  0  0  0  0  0  0
  193.2140  168.0460  137.3350 C   0  0  0  0  0  1  0  0  0  0  0  0
  194.1820  168.9030  136.5350 C   0  0  0  0  0  2  0  0  0  0  0  0
  198.3410  172.0690  136.9290 C   0  0  0  0  0  2  0  0  0  0  0  0
  199.3580  172.9820  136.2620 C   0  0  0  0  0  2  0  0  0  0  0  0
  199.3500  174.3620  136.9120 C   0  0  1  0  0  3  0  0  0  0  0  0
  198.3040  175.1800  136.3210 N   0  0  0  0  0  1  0  0  0  0  0  0
  199.1780  174.2840  138.4320 C   0  0  0  0  0  2  0  0  0  0  0  0
  198.3470  175.3790  138.9190 N   0  0  0  0  0  1  0  0  0  0  0  0
  189.4440  178.0620  140.2890 C   0  0  0  0  0  2  0  0  0  0  0  0
  189.1760  177.8910  141.6750 O   0  0  0  0  0  0  0  0  0  0  0  0
  188.8800  176.1490  143.3150 O   0  0  0  0  0  1  0  0  0  0  0  0
  189.6970  176.8310  142.4210 C   0  0  0  0  0  0  0  0  0  0  0  0
  190.9010  176.4800  142.2900 O   0  0  0  0  0  0  0  0  0  0  0  0
  184.6940  178.1770  137.4070 N   0  0  0  0  0  2  0  0  0  0  0  0
  183.2440  177.9620  137.4170 C   0  0  2  0  0  0  0  0  0  0  0  0
  181.0130  175.4500  139.3240 C   0  0  0  0  0  2  0  0  0  0  0  0
  181.8100  176.5610  135.9330 C   0  0  0  0  0  3  0  0  0  0  0  0
  182.5190  179.2940  137.6080 C   0  0  0  0  0  1  0  0  0  0  0  0
  180.2420  174.9550  137.0800 C   0  0  0  0  0  2  0  0  0  0  0  0
  179.9880  174.6340  138.5480 C   0  0  0  0  0  2  0  0  0  0  0  0
  182.8490  176.9780  138.5350 C   0  0  0  0  0  2  0  0  0  0  0  0
  182.8450  177.3990  136.0730 C   0  0  0  0  0  3  0  0  0  0  0  0
  181.0550  176.1510  137.0820 N   0  0  0  0  0  0  0  0  0  0  0  0
  181.3640  176.6120  138.4220 C   0  0  1  0  0  3  0  0  0  0  0  0
  1 10  1  1  0  0  0
  1  2  1  0  0  0  0
  2 48  1  6  0  0  0
  4  7  1  6  0  0  0
  4  3  1  0  0  0  0
  4  9  1  0  0  0  0
  5  6  1  0  0  0  0
  5 15  1  0  0  0  0
  6  1  1  0  0  0  0
  8 11  2  0  0  0  0
  9  2  1  0  0  0  0
 11 24  1  0  0  0  0
 11  3  1  0  0  0  0
 12 13  1  0  0  0  0
 13  8  1  0  0  0  0
 13  7  2  0  0  0  0
 14  7  1  0  0  0  0
 14  6  2  0  0  0  0
 15 53  1  6  0  0  0
 15 10  1  0  0  0  0
 16 17  1  0  0  0  0
 17 18  1  0  0  0  0
 18 23  1  0  0  0  0
 19 20  1  0  0  0  0
 20 21  1  0  0  0  0
 21  5  1  1  0  0  0
 21 23  1  0  0  0  0
 22 19  1  0  0  0  0
 22 16  1  0  0  0  0
 24 25  1  0  0  0  0
 25 26  2  0  0  0  0
 27 28  1  0  0  0  0
 27 25  1  0  0  0  0
 29 27  2  0  0  0  0
 30 28  1  0  0  0  0
 31 30  1  0  0  0  0
 31 42  1  1  0  0  0
 32 31  1  0  0  0  0
 32 35  1  0  0  0  0
 34 39  1  1  0  0  0
 34 38  1  0  0  0  0
 35 33  2  6  0  0  0
 35 37  1  0  0  0  0
 36 34  1  0  0  0  0
 36 32  1  0  0  0  0
 38 35  1  0  0  0  0
 39 41  1  0  0  0  0
 41 40  1  0  0  0  0
 43 44  1  0  0  0  0
 43 42  1  0  0  0  0
 44 45  1  6  0  0  0
 44 46  1  0  0  0  0
 46 47  1  0  0  0  0
 48 49  1  0  0  0  0
 49 51  1  0  0  0  0
 51 50  1  0  0  0  0
 52 51  2  0  0  0  0
 53 54  1  0  0  0  0
 54 57  1  1  0  0  0
 54 60  1  0  0  0  0
 56 61  2  0  0  0  0
 56 62  1  0  0  0  0
 58 62  1  0  0  0  0
 58 59  1  0  0  0  0
 59 55  1  0  0  0  0
 61 54  1  0  0  0  0
 62 63  1  0  0  0  0
 63 60  1  6  0  0  0
 63 55  1  0  0  0  0
M  END
>  <MODEL>
1

>  <REMARK>
 VINA RESULT:      -5.5      0.000      0.000
  Name = 
  18 active torsions:
  status: ('A' for Active; 'I' for Inactive)
    1  A    between atoms: C_3  and  C_11
    2  A    between atoms: S_5  and  C_28
    3  A    between atoms: S_5  and  C_50
    4  A    between atoms: C_7  and  N_9
    5  A    between atoms: C_8  and  C_36
    6  A    between atoms: C_8  and  C_63
    7  A    between atoms: N_9  and  C_59
    8  A    between atoms: C_11  and  O_13
    9  A    between atoms: N_12  and  C_43
   10  A    between atoms: O_13  and  C_38
   11  A    between atoms: N_16  and  C_46
   12  A    between atoms: C_18  and  C_29
   13  A    between atoms: C_18  and  C_45
   14  A    between atoms: C_19  and  C_29
   15  A    between atoms: N_32  and  N_56
   16  A    between atoms: C_43  and  C_47
   17  A    between atoms: C_43  and  N_56
   18  A    between atoms: C_47  and  C_63
                            x       y       z     vdW  Elec       q    Type
                         _______ _______ _______ _____ _____    ______ ____

>  <TORSDO>
F 18

$$$$
=
 OpenBabel10232411393D

 63 69  0  0  1  0  0  0  0  0999 V2000
  187.6530  177.6360  138.7550 C   0  0  1  0  0  3  0  0  0  0  0  0
  188.5490  177.1180  139.8920 C   0  0  1  0  0  3  0  0  0  0  0  0
  191.6460  176.3750  138.5560 O   0  0  0  0  0  0  0  0  0  0  0  0
  190.2640  176.6980  138.4130 C   0  0  1  0  0  3  0  0  0  0  0  0
  185.9260  176.4210  137.5900 N   0  0  0  0  0  0  0  0  0  0  0  0
  187.3330  176.6020  137.7290 C   0  0  0  0  0  0  0  0  0  0  0  0
  189.7020  176.1870  137.1010 C   0  0  0  0  0  0  0  0  0  0  0  0
  191.9970  176.0600  136.2490 C   0  0  0  0  0  3  0  0  0  0  0  0
  189.5390  176.1810  139.5020 O   0  0  0  0  0  0  0  0  0  0  0  0
  186.2870  178.0370  139.3080 C   0  0  0  0  0  2  0  0  0  0  0  0
  192.5070  176.3090  137.4550 C   0  0  0  0  0  0  0  0  0  0  0  0
  190.0530  175.4730  134.8520 O   0  0  0  0  0  1  0  0  0  0  0  0
  190.5400  175.9100  136.0850 C   0  0  0  0  0  0  0  0  0  0  0  0
  188.2420  176.0280  136.9300 C   0  0  0  0  0  3  0  0  0  0  0  0
  185.2200  177.3550  138.4440 C   0  0  1  0  0  3  0  0  0  0  0  0
  185.4750  172.1240  135.9150 O   0  0  0  0  0  0  0  0  0  0  0  0
  184.3850  172.2060  136.7860 C   0  0  0  0  0  2  0  0  0  0  0  0
  184.7290  173.1020  137.9750 C   0  0  0  0  0  2  0  0  0  0  0  0
  185.3960  174.3350  134.8860 C   0  0  0  0  0  2  0  0  0  0  0  0
  186.0930  174.6130  136.0750 O   0  0  0  0  0  0  0  0  0  0  0  0
  185.2040  175.3760  136.8510 C   0  0  1  0  0  3  0  0  0  0  0  0
  185.1160  172.8330  134.7560 C   0  0  0  0  0  2  0  0  0  0  0  0
  184.2480  174.5370  137.7190 C   0  0  0  0  0  2  0  0  0  0  0  0
  193.9910  176.4330  137.6230 C   0  0  0  0  0  2  0  0  0  0  0  0
  194.6290  175.2960  138.3750 C   0  0  0  0  0  0  0  0  0  0  0  0
  195.1410  175.4690  139.5150 O   0  0  0  0  0  0  0  0  0  0  0  0
  194.6910  173.9550  137.7720 C   0  0  0  0  0  0  0  0  0  0  0  0
  195.2310  172.8470  138.5140 N   0  0  0  0  0  2  0  0  0  0  0  0
  194.2490  173.7850  136.6020 O   0  0  0  0  0  0  0  0  0  0  0  0
  195.4110  171.5600  137.9720 N   0  0  0  0  0  2  0  0  0  0  0  0
  196.4130  171.6260  136.9140 C   0  0  2  0  0  3  0  0  0  0  0  0
  196.0550  170.7140  135.8060 N   0  0  0  0  0  0  0  0  0  0  0  0
  195.8590  168.0510  135.8300 O   0  0  0  0  0  0  0  0  0  0  0  0
  193.7450  170.3100  135.0120 C   0  0  1  0  0  3  0  0  0  0  0  0
  195.3410  169.2970  136.5120 P   0  0  1  0  0  0  0  0  0  0  0  0
  194.9730  171.2430  134.9730 C   0  0  0  0  0  2  0  0  0  0  0  0
  195.6120  169.1970  138.1770 O   0  0  0  0  0  1  0  0  0  0  0  0
  193.7130  169.5040  136.1660 O   0  0  0  0  0  0  0  0  0  0  0  0
  192.2250  171.2940  134.8960 S   0  0  0  0  0  0  0  0  0  0  0  0
  189.7610  170.1750  134.6200 C   0  0  0  0  0  1  0  0  0  0  0  0
  191.2340  169.8260  134.4820 C   0  0  0  0  0  2  0  0  0  0  0  0
  197.8310  171.4540  137.4850 C   0  0  0  0  0  2  0  0  0  0  0  0
  198.7230  172.6220  137.0990 C   0  0  0  0  0  2  0  0  0  0  0  0
  197.8830  173.8450  136.7410 C   0  0  1  0  0  3  0  0  0  0  0  0
  198.0640  174.8790  137.7460 N   0  0  0  0  0  1  0  0  0  0  0  0
  198.2130  174.3860  135.3470 C   0  0  0  0  0  2  0  0  0  0  0  0
  199.3910  175.2450  135.3870 N   0  0  0  0  0  1  0  0  0  0  0  0
  189.1100  178.2290  140.7880 C   0  0  0  0  0  2  0  0  0  0  0  0
  188.4710  178.2560  142.0580 O   0  0  0  0  0  0  0  0  0  0  0  0
  187.9750  177.2740  144.2030 O   0  0  0  0  0  1  0  0  0  0  0  0
  188.8030  177.3770  143.0910 C   0  0  0  0  0  0  0  0  0  0  0  0
  189.8440  176.6680  143.0270 O   0  0  0  0  0  0  0  0  0  0  0  0
  184.5480  178.3640  137.6180 N   0  0  0  0  0  2  0  0  0  0  0  0
  183.1160  178.4620  137.9150 C   0  0  2  0  0  0  0  0  0  0  0  0
  180.9050  181.4190  139.0530 C   0  0  0  0  0  2  0  0  0  0  0  0
  181.8740  178.0320  140.0350 C   0  0  0  0  0  3  0  0  0  0  0  0
  182.3030  177.8270  136.7860 C   0  0  0  0  0  1  0  0  0  0  0  0
  180.3250  179.8600  140.8170 C   0  0  0  0  0  2  0  0  0  0  0  0
  179.9860  181.2350  140.2540 C   0  0  0  0  0  2  0  0  0  0  0  0
  182.7000  179.9330  138.1050 C   0  0  0  0  0  2  0  0  0  0  0  0
  182.8470  177.6850  139.1820 C   0  0  0  0  0  3  0  0  0  0  0  0
  181.0650  179.1870  139.7720 N   0  0  0  0  0  0  0  0  0  0  0  0
  181.2510  180.0180  138.5980 C   0  0  1  0  0  3  0  0  0  0  0  0
  1 10  1  1  0  0  0
  1  2  1  0  0  0  0
  2 48  1  6  0  0  0
  4  7  1  6  0  0  0
  4  3  1  0  0  0  0
  4  9  1  0  0  0  0
  5  6  1  0  0  0  0
  5 15  1  0  0  0  0
  6  1  1  0  0  0  0
  8 11  2  0  0  0  0
  9  2  1  0  0  0  0
 11 24  1  0  0  0  0
 11  3  1  0  0  0  0
 12 13  1  0  0  0  0
 13  8  1  0  0  0  0
 13  7  2  0  0  0  0
 14  7  1  0  0  0  0
 14  6  2  0  0  0  0
 15 53  1  6  0  0  0
 15 10  1  0  0  0  0
 16 17  1  0  0  0  0
 17 18  1  0  0  0  0
 19 20  1  0  0  0  0
 20 21  1  0  0  0  0
 21  5  1  1  0  0  0
 21 23  1  0  0  0  0
 22 19  1  0  0  0  0
 22 16  1  0  0  0  0
 23 18  1  0  0  0  0
 24 25  1  0  0  0  0
 25 26  2  0  0  0  0
 27 25  1  0  0  0  0
 27 28  1  0  0  0  0
 29 27  2  0  0  0  0
 30 28  1  0  0  0  0
 31 42  1  1  0  0  0
 31 30  1  0  0  0  0
 32 35  1  0  0  0  0
 32 31  1  0  0  0  0
 34 39  1  1  0  0  0
 34 38  1  0  0  0  0
 35 33  2  6  0  0  0
 35 37  1  0  0  0  0
 36 34  1  0  0  0  0
 36 32  1  0  0  0  0
 38 35  1  0  0  0  0
 41 40  1  0  0  0  0
 41 39  1  0  0  0  0
 43 42  1  0  0  0  0
 44 43  1  0  0  0  0
 44 45  1  1  0  0  0
 46 47  1  0  0  0  0
 46 44  1  0  0  0  0
 48 49  1  0  0  0  0
 49 51  1  0  0  0  0
 51 50  1  0  0  0  0
 52 51  2  0  0  0  0
 53 54  1  0  0  0  0
 54 57  1  6  0  0  0
 54 60  1  0  0  0  0
 54 61  1  0  0  0  0
 55 59  1  0  0  0  0
 59 58  1  0  0  0  0
 61 56  2  0  0  0  0
 62 56  1  0  0  0  0
 62 58  1  0  0  0  0
 63 60  1  1  0  0  0
 63 55  1  0  0  0  0
 63 62  1  0  0  0  0
M  END
>  <MODEL>
2

>  <REMARK>
 VINA RESULT:      -5.1      1.735      2.351
  Name = 
  18 active torsions:
  status: ('A' for Active; 'I' for Inactive)
    1  A    between atoms: C_3  and  C_11
    2  A    between atoms: S_5  and  C_28
    3  A    between atoms: S_5  and  C_50
    4  A    between atoms: C_7  and  N_9
    5  A    between atoms: C_8  and  C_36
    6  A    between atoms: C_8  and  C_63
    7  A    between atoms: N_9  and  C_59
    8  A    between atoms: C_11  and  O_13
    9  A    between atoms: N_12  and  C_43
   10  A    between atoms: O_13  and  C_38
   11  A    between atoms: N_16  and  C_46
   12  A    between atoms: C_18  and  C_29
   13  A    between atoms: C_18  and  C_45
   14  A    between atoms: C_19  and  C_29
   15  A    between atoms: N_32  and  N_56
   16  A    between atoms: C_43  and  C_47
   17  A    between atoms: C_43  and  N_56
   18  A    between atoms: C_47  and  C_63
                            x       y       z     vdW  Elec       q    Type
                         _______ _______ _______ _____ _____    ______ ____

>  <TORSDO>
F 18

$$$$
=
 OpenBabel10232411393D

 63 69  0  0  1  0  0  0  0  0999 V2000
  189.1590  176.3730  138.7570 C   0  0  1  0  0  3  0  0  0  0  0  0
  188.3410  177.1910  137.7450 C   0  0  1  0  0  3  0  0  0  0  0  0
  186.7790  174.9810  135.5990 O   0  0  0  0  0  0  0  0  0  0  0  0
  187.7350  175.2780  136.6150 C   0  0  1  0  0  3  0  0  0  0  0  0
  191.5420  176.0030  138.7470 N   0  0  0  0  0  0  0  0  0  0  0  0
  190.3040  175.6380  138.1440 C   0  0  0  0  0  0  0  0  0  0  0  0
  188.8920  174.2990  136.5970 C   0  0  0  0  0  0  0  0  0  0  0  0
  187.4650  172.7420  135.3530 C   0  0  0  0  0  3  0  0  0  0  0  0
  188.1960  176.5990  136.4650 O   0  0  0  0  0  0  0  0  0  0  0  0
  189.8220  177.3050  139.7680 C   0  0  0  0  0  2  0  0  0  0  0  0
  186.5220  173.6690  135.1860 C   0  0  0  0  0  0  0  0  0  0  0  0
  189.7680  172.1590  136.0100 O   0  0  0  0  0  1  0  0  0  0  0  0
  188.7350  173.0980  136.0100 C   0  0  0  0  0  0  0  0  0  0  0  0
  190.1710  174.6490  137.2500 C   0  0  0  0  0  3  0  0  0  0  0  0
  191.3090  176.9340  139.8330 C   0  0  1  0  0  3  0  0  0  0  0  0
  194.6240  174.5120  135.6260 O   0  0  0  0  0  0  0  0  0  0  0  0
  195.0530  175.8240  135.8440 C   0  0  0  0  0  2  0  0  0  0  0  0
  193.8560  176.7230  136.1550 C   0  0  0  0  0  2  0  0  0  0  0  0
  194.0910  173.8270  137.9060 C   0  0  0  0  0  2  0  0  0  0  0  0
  192.9120  174.5000  137.5410 O   0  0  0  0  0  0  0  0  0  0  0  0
  192.9070  175.6740  138.3130 C   0  0  1  0  0  3  0  0  0  0  0  0
  195.0670  173.7580  136.7250 C   0  0  0  0  0  2  0  0  0  0  0  0
  193.6650  176.8520  137.6720 C   0  0  0  0  0  2  0  0  0  0  0  0
  185.2430  173.3120  134.4910 C   0  0  0  0  0  2  0  0  0  0  0  0
  184.0550  173.1780  135.4040 C   0  0  0  0  0  0  0  0  0  0  0  0
  184.1510  172.6000  136.5230 O   0  0  0  0  0  0  0  0  0  0  0  0
  182.7420  173.6980  134.9910 C   0  0  0  0  0  0  0  0  0  0  0  0
  182.3650  175.0510  135.3010 N   0  0  0  0  0  2  0  0  0  0  0  0
  181.9580  172.9480  134.3470 O   0  0  0  0  0  0  0  0  0  0  0  0
  181.0920  175.5880  135.0230 N   0  0  0  0  0  2  0  0  0  0  0  0
  180.7390  176.5390  136.0720 C   0  0  2  0  0  3  0  0  0  0  0  0
  181.8030  177.5540  136.2280 N   0  0  0  0  0  0  0  0  0  0  0  0
  182.4370  179.5740  134.6020 O   0  0  0  0  0  1  0  0  0  0  0  0
  181.6450  179.5370  137.7020 C   0  0  1  0  0  3  0  0  0  0  0  0
  181.2860  178.9800  135.3820 P   0  0  1  0  0  0  0  0  0  0  0  0
  181.9300  178.0230  137.6100 C   0  0  0  0  0  2  0  0  0  0  0  0
  179.9830  178.6810  134.3470 O   0  0  0  0  0  0  0  0  0  0  0  0
  180.8530  180.0060  136.6350 O   0  0  0  0  0  0  0  0  0  0  0  0
  180.8420  179.9140  139.2850 S   0  0  0  0  0  0  0  0  0  0  0  0
  181.9890  178.6600  141.4080 C   0  0  0  0  0  1  0  0  0  0  0  0
  181.4350  178.3630  140.0240 C   0  0  0  0  0  2  0  0  0  0  0  0
  180.3230  175.8080  137.3600 C   0  0  0  0  0  2  0  0  0  0  0  0
  180.0120  174.3460  137.0850 C   0  0  0  0  0  2  0  0  0  0  0  0
  180.5770  173.4580  138.1890 C   0  0  1  0  0  3  0  0  0  0  0  0
  180.2320  174.0080  139.4890 N   0  0  0  0  0  1  0  0  0  0  0  0
  180.0930  172.0100  138.0710 C   0  0  0  0  0  2  0  0  0  0  0  0
  180.4360  171.4500  136.7680 N   0  0  0  0  0  1  0  0  0  0  0  0
  187.0140  177.7140  138.3060 C   0  0  0  0  0  2  0  0  0  0  0  0
  187.2100  178.5270  139.4550 O   0  0  0  0  0  0  0  0  0  0  0  0
  185.0160  179.4520  139.8350 O   0  0  0  0  0  0  0  0  0  0  0  0
  186.1740  178.8650  140.3300 C   0  0  0  0  0  0  0  0  0  0  0  0
  186.2740  178.6380  141.5670 O   0  0  0  0  0  1  0  0  0  0  0  0
  191.5880  176.2750  141.1140 N   0  0  0  0  0  2  0  0  0  0  0  0
  191.2290  177.1140  142.2610 C   0  0  2  0  0  0  0  0  0  0  0  0
  191.3240  176.4700  146.0690 C   0  0  0  0  0  2  0  0  0  0  0  0
  189.0320  177.4470  143.3930 C   0  0  0  0  0  3  0  0  0  0  0  0
  191.8710  178.4940  142.1200 C   0  0  0  0  0  1  0  0  0  0  0  0
  189.0030  177.1490  145.8950 C   0  0  0  0  0  2  0  0  0  0  0  0
  190.0850  176.7750  146.9010 C   0  0  0  0  0  2  0  0  0  0  0  0
  191.6770  176.4530  143.5790 C   0  0  0  0  0  2  0  0  0  0  0  0
  189.7300  177.2920  142.2600 C   0  0  0  0  0  3  0  0  0  0  0  0
  189.7030  177.4250  144.6600 N   0  0  0  0  0  0  0  0  0  0  0  0
  191.1370  177.2380  144.7800 C   0  0  1  0  0  3  0  0  0  0  0  0
  1 10  1  1  0  0  0
  2 48  1  1  0  0  0
  2  1  1  0  0  0  0
  4  3  1  6  0  0  0
  5 15  1  0  0  0  0
  6  5  1  0  0  0  0
  6  1  1  0  0  0  0
  7  4  1  0  0  0  0
  7 14  1  0  0  0  0
  8 13  1  0  0  0  0
  9  4  1  0  0  0  0
  9  2  1  0  0  0  0
 10 15  1  0  0  0  0
 11  8  2  0  0  0  0
 11  3  1  0  0  0  0
 13 12  1  0  0  0  0
 13  7  2  0  0  0  0
 14  6  2  0  0  0  0
 15 53  1  1  0  0  0
 16 17  1  0  0  0  0
 16 22  1  0  0  0  0
 17 18  1  0  0  0  0
 18 23  1  0  0  0  0
 20 19  1  0  0  0  0
 20 21  1  0  0  0  0
 21 23  1  6  0  0  0
 21  5  1  0  0  0  0
 22 19  1  0  0  0  0
 24 11  1  0  0  0  0
 24 25  1  0  0  0  0
 25 26  2  0  0  0  0
 27 28  1  0  0  0  0
 27 25  1  0  0  0  0
 29 27  2  0  0  0  0
 30 28  1  0  0  0  0
 30 31  1  0  0  0  0
 31 32  1  0  0  0  0
 31 42  1  1  0  0  0
 32 36  1  0  0  0  0
 33 35  1  0  0  0  0
 34 39  1  1  0  0  0
 35 37  2  6  0  0  0
 35 32  1  0  0  0  0
 35 38  1  0  0  0  0
 36 34  1  0  0  0  0
 38 34  1  0  0  0  0
 39 41  1  0  0  0  0
 41 40  1  0  0  0  0
 43 42  1  0  0  0  0
 43 44  1  0  0  0  0
 44 45  1  1  0  0  0
 46 44  1  0  0  0  0
 47 46  1  0  0  0  0
 48 49  1  0  0  0  0
 49 51  1  0  0  0  0
 50 51  2  0  0  0  0
 51 52  1  0  0  0  0
 53 54  1  0  0  0  0
 54 57  1  6  0  0  0
 54 60  1  0  0  0  0
 55 59  1  0  0  0  0
 56 62  1  0  0  0  0
 58 59  1  0  0  0  0
 61 54  1  0  0  0  0
 61 56  2  0  0  0  0
 62 63  1  0  0  0  0
 62 58  1  0  0  0  0
 63 60  1  6  0  0  0
 63 55  1  0  0  0  0
M  END
>  <MODEL>
3

>  <REMARK>
 VINA RESULT:      -4.9      4.853     12.120
  Name = 
  18 active torsions:
  status: ('A' for Active; 'I' for Inactive)
    1  A    between atoms: C_3  and  C_11
    2  A    between atoms: S_5  and  C_28
    3  A    between atoms: S_5  and  C_50
    4  A    between atoms: C_7  and  N_9
    5  A    between atoms: C_8  and  C_36
    6  A    between atoms: C_8  and  C_63
    7  A    between atoms: N_9  and  C_59
    8  A    between atoms: C_11  and  O_13
    9  A    between atoms: N_12  and  C_43
   10  A    between atoms: O_13  and  C_38
   11  A    between atoms: N_16  and  C_46
   12  A    between atoms: C_18  and  C_29
   13  A    between atoms: C_18  and  C_45
   14  A    between atoms: C_19  and  C_29
   15  A    between atoms: N_32  and  N_56
   16  A    between atoms: C_43  and  C_47
   17  A    between atoms: C_43  and  N_56
   18  A    between atoms: C_47  and  C_63
                            x       y       z     vdW  Elec       q    Type
                         _______ _______ _______ _____ _____    ______ ____

>  <TORSDO>
F 18

$$$$
=
 OpenBabel10232411393D

 63 69  0  0  1  0  0  0  0  0999 V2000
  188.2770  177.8390  139.6840 C   0  0  1  0  0  3  0  0  0  0  0  0
  188.9560  177.1530  140.8800 C   0  0  1  0  0  3  0  0  0  0  0  0
  192.2710  176.6260  140.0670 O   0  0  0  0  0  0  0  0  0  0  0  0
  190.9320  176.9650  139.7120 C   0  0  1  0  0  3  0  0  0  0  0  0
  186.8400  176.8150  138.0390 N   0  0  0  0  0  0  0  0  0  0  0  0
  188.1890  176.9740  138.4720 C   0  0  0  0  0  0  0  0  0  0  0  0
  190.6460  176.6620  138.2550 C   0  0  0  0  0  0  0  0  0  0  0  0
  193.0630  176.6690  137.8500 C   0  0  0  0  0  3  0  0  0  0  0  0
  190.0300  176.2870  140.5510 O   0  0  0  0  0  0  0  0  0  0  0  0
  186.8190  178.1490  140.0180 C   0  0  0  0  0  2  0  0  0  0  0  0
  193.3270  176.7300  139.1550 C   0  0  0  0  0  0  0  0  0  0  0  0
  191.4380  176.3030  136.0340 O   0  0  0  0  0  1  0  0  0  0  0  0
  191.6690  176.5450  137.3890 C   0  0  0  0  0  0  0  0  0  0  0  0
  189.2500  176.5300  137.7850 C   0  0  0  0  0  3  0  0  0  0  0  0
  185.9570  177.6060  138.8720 C   0  0  1  0  0  3  0  0  0  0  0  0
  183.3750  174.9340  135.6060 O   0  0  0  0  0  0  0  0  0  0  0  0
  184.1350  175.5350  134.6000 C   0  0  0  0  0  2  0  0  0  0  0  0
  184.8040  176.8020  135.1330 C   0  0  0  0  0  2  0  0  0  0  0  0
  185.1400  173.9910  137.0030 C   0  0  0  0  0  2  0  0  0  0  0  0
  185.1020  175.3170  137.4690 O   0  0  0  0  0  0  0  0  0  0  0  0
  186.3040  175.8950  137.0270 C   0  0  1  0  0  3  0  0  0  0  0  0
  184.0420  173.7490  135.9590 C   0  0  0  0  0  2  0  0  0  0  0  0
  186.2300  176.4930  135.6090 C   0  0  0  0  0  2  0  0  0  0  0  0
  194.7490  176.8280  139.6230 C   0  0  0  0  0  2  0  0  0  0  0  0
  195.5220  175.5400  139.5360 C   0  0  0  0  0  0  0  0  0  0  0  0
  196.4620  175.2850  140.3380 O   0  0  0  0  0  0  0  0  0  0  0  0
  195.2080  174.5590  138.4850 C   0  0  0  0  0  0  0  0  0  0  0  0
  195.0230  173.1720  138.8150 N   0  0  0  0  0  2  0  0  0  0  0  0
  195.0860  174.9530  137.2920 O   0  0  0  0  0  0  0  0  0  0  0  0
  194.8160  172.1630  137.8540 N   0  0  0  0  0  2  0  0  0  0  0  0
  195.9770  172.1000  136.9730 C   0  0  2  0  0  3  0  0  0  0  0  0
  195.6150  171.4700  135.6860 N   0  0  0  0  0  0  0  0  0  0  0  0
  194.7780  168.9780  135.2200 O   0  0  0  0  0  0  0  0  0  0  0  0
  193.4590  171.8080  134.5150 C   0  0  1  0  0  3  0  0  0  0  0  0
  194.4630  170.2170  136.0280 P   0  0  1  0  0  0  0  0  0  0  0  0
  194.8640  172.3750  134.8120 C   0  0  0  0  0  2  0  0  0  0  0  0
  194.3960  169.8310  137.6720 O   0  0  0  0  0  1  0  0  0  0  0  0
  193.0240  170.8960  135.4970 O   0  0  0  0  0  0  0  0  0  0  0  0
  192.2700  173.1690  134.3580 S   0  0  0  0  0  0  0  0  0  0  0  0
  190.2200  173.1170  136.1450 C   0  0  0  0  0  1  0  0  0  0  0  0
  191.7320  172.9790  136.0840 C   0  0  0  0  0  2  0  0  0  0  0  0
  197.1860  171.4850  137.6980 C   0  0  0  0  0  2  0  0  0  0  0  0
  198.1940  170.9260  136.7060 C   0  0  0  0  0  2  0  0  0  0  0  0
  198.6990  169.5610  137.1640 C   0  0  1  0  0  3  0  0  0  0  0  0
  197.6680  168.8870  137.9350 N   0  0  0  0  0  1  0  0  0  0  0  0
  199.1500  168.6880  135.9890 C   0  0  0  0  0  2  0  0  0  0  0  0
  199.9520  169.4590  135.0450 N   0  0  0  0  0  1  0  0  0  0  0  0
  189.3030  178.1130  142.0240 C   0  0  0  0  0  2  0  0  0  0  0  0
  189.0610  177.5270  143.2970 O   0  0  0  0  0  0  0  0  0  0  0  0
  190.6250  178.8390  144.5810 O   0  0  0  0  0  0  0  0  0  0  0  0
  189.4230  178.1450  144.4960 C   0  0  0  0  0  0  0  0  0  0  0  0
  188.6690  178.0870  145.5060 O   0  0  0  0  0  1  0  0  0  0  0  0
  185.4240  178.7300  138.0940 N   0  0  0  0  0  2  0  0  0  0  0  0
  184.0040  178.9730  138.3690 C   0  0  2  0  0  0  0  0  0  0  0  0
  181.3240  176.8730  140.1940 C   0  0  0  0  0  2  0  0  0  0  0  0
  181.9870  178.4940  136.9840 C   0  0  0  0  0  3  0  0  0  0  0  0
  183.8190  180.3710  138.9580 C   0  0  0  0  0  1  0  0  0  0  0  0
  180.1310  177.2130  138.1110 C   0  0  0  0  0  2  0  0  0  0  0  0
  179.9840  176.6300  139.5110 C   0  0  0  0  0  2  0  0  0  0  0  0
  183.4490  177.9120  139.3390 C   0  0  0  0  0  2  0  0  0  0  0  0
  183.2570  178.9120  137.0590 C   0  0  0  0  0  3  0  0  0  0  0  0
  181.3000  178.0620  138.1680 N   0  0  0  0  0  0  0  0  0  0  0  0
  181.9290  178.0580  139.4750 C   0  0  1  0  0  3  0  0  0  0  0  0
  1 10  1  1  0  0  0
  1  2  1  0  0  0  0
  2 48  1  1  0  0  0
  4  7  1  6  0  0  0
  4  3  1  0  0  0  0
  4  9  1  0  0  0  0
  5  6  1  0  0  0  0
  5 15  1  0  0  0  0
  6  1  1  0  0  0  0
  8 11  2  0  0  0  0
  9  2  1  0  0  0  0
 11 24  1  0  0  0  0
 11  3  1  0  0  0  0
 12 13  1  0  0  0  0
 13  8  1  0  0  0  0
 13  7  2  0  0  0  0
 14  7  1  0  0  0  0
 14  6  2  0  0  0  0
 15 53  1  6  0  0  0
 15 10  1  0  0  0  0
 16 22  1  0  0  0  0
 17 18  1  0  0  0  0
 17 16  1  0  0  0  0
 18 23  1  0  0  0  0
 19 20  1  0  0  0  0
 21 23  1  6  0  0  0
 21 20  1  0  0  0  0
 21  5  1  0  0  0  0
 22 19  1  0  0  0  0
 25 24  1  0  0  0  0
 25 26  2  0  0  0  0
 27 28  1  0  0  0  0
 27 25  1  0  0  0  0
 29 27  2  0  0  0  0
 30 28  1  0  0  0  0
 31 42  1  1  0  0  0
 31 30  1  0  0  0  0
 32 35  1  0  0  0  0
 32 31  1  0  0  0  0
 34 39  1  1  0  0  0
 34 36  1  0  0  0  0
 34 38  1  0  0  0  0
 35 33  2  6  0  0  0
 35 37  1  0  0  0  0
 36 32  1  0  0  0  0
 38 35  1  0  0  0  0
 39 41  1  0  0  0  0
 41 40  1  0  0  0  0
 43 44  1  0  0  0  0
 43 42  1  0  0  0  0
 44 45  1  6  0  0  0
 46 44  1  0  0  0  0
 47 46  1  0  0  0  0
 48 49  1  0  0  0  0
 49 51  1  0  0  0  0
 51 50  2  0  0  0  0
 51 52  1  0  0  0  0
 53 54  1  0  0  0  0
 54 57  1  1  0  0  0
 54 60  1  0  0  0  0
 56 61  2  0  0  0  0
 56 62  1  0  0  0  0
 58 62  1  0  0  0  0
 58 59  1  0  0  0  0
 59 55  1  0  0  0  0
 61 54  1  0  0  0  0
 62 63  1  0  0  0  0
 63 60  1  6  0  0  0
 63 55  1  0  0  0  0
M  END
>  <MODEL>
4

>  <REMARK>
 VINA RESULT:      -3.8      2.329      3.093
  Name = 
  18 active torsions:
  status: ('A' for Active; 'I' for Inactive)
    1  A    between atoms: C_3  and  C_11
    2  A    between atoms: S_5  and  C_28
    3  A    between atoms: S_5  and  C_50
    4  A    between atoms: C_7  and  N_9
    5  A    between atoms: C_8  and  C_36
    6  A    between atoms: C_8  and  C_63
    7  A    between atoms: N_9  and  C_59
    8  A    between atoms: C_11  and  O_13
    9  A    between atoms: N_12  and  C_43
   10  A    between atoms: O_13  and  C_38
   11  A    between atoms: N_16  and  C_46
   12  A    between atoms: C_18  and  C_29
   13  A    between atoms: C_18  and  C_45
   14  A    between atoms: C_19  and  C_29
   15  A    between atoms: N_32  and  N_56
   16  A    between atoms: C_43  and  C_47
   17  A    between atoms: C_43  and  N_56
   18  A    between atoms: C_47  and  C_63
                            x       y       z     vdW  Elec       q    Type
                         _______ _______ _______ _____ _____    ______ ____

>  <TORSDO>
F 18

$$$$
=
 OpenBabel10232411393D

 63 69  0  0  1  0  0  0  0  0999 V2000
  189.8360  176.6520  139.2310 C   0  0  1  0  0  3  0  0  0  0  0  0
  189.0630  177.4200  138.1470 C   0  0  1  0  0  3  0  0  0  0  0  0
  188.0940  175.1610  135.7210 O   0  0  0  0  0  0  0  0  0  0  0  0
  188.8610  175.5140  136.8710 C   0  0  1  0  0  3  0  0  0  0  0  0
  192.2270  176.5730  139.5390 N   0  0  0  0  0  0  0  0  0  0  0  0
  191.1360  176.0960  138.7560 C   0  0  0  0  0  0  0  0  0  0  0  0
  190.1260  174.6840  136.9770 C   0  0  0  0  0  0  0  0  0  0  0  0
  189.0860  173.0380  135.4870 C   0  0  0  0  0  3  0  0  0  0  0  0
  189.1660  176.8870  136.8370 O   0  0  0  0  0  0  0  0  0  0  0  0
  190.2350  177.5990  140.3600 C   0  0  0  0  0  2  0  0  0  0  0  0
  188.0640  173.8520  135.2260 C   0  0  0  0  0  0  0  0  0  0  0  0
  191.3360  172.7010  136.4350 O   0  0  0  0  0  1  0  0  0  0  0  0
  190.2010  173.5070  136.3280 C   0  0  0  0  0  0  0  0  0  0  0  0
  191.2510  175.1490  137.8140 C   0  0  0  0  0  3  0  0  0  0  0  0
  191.7340  177.4080  140.6170 C   0  0  1  0  0  3  0  0  0  0  0  0
  196.2680  174.3280  139.8480 O   0  0  0  0  0  0  0  0  0  0  0  0
  196.0690  174.3670  138.4660 C   0  0  0  0  0  2  0  0  0  0  0  0
  194.5750  174.3060  138.1480 C   0  0  0  0  0  2  0  0  0  0  0  0
  195.5550  176.5780  140.4690 C   0  0  0  0  0  2  0  0  0  0  0  0
  194.3210  175.9070  140.4120 O   0  0  0  0  0  0  0  0  0  0  0  0
  193.6670  176.4360  139.2860 C   0  0  1  0  0  3  0  0  0  0  0  0
  196.7160  175.6060  140.2250 C   0  0  0  0  0  2  0  0  0  0  0  0
  194.0100  175.7210  137.9660 C   0  0  0  0  0  2  0  0  0  0  0  0
  186.9440  173.3820  134.3460 C   0  0  0  0  0  2  0  0  0  0  0  0
  185.7330  172.8900  135.0910 C   0  0  0  0  0  0  0  0  0  0  0  0
  185.8380  172.0640  136.0390 O   0  0  0  0  0  0  0  0  0  0  0  0
  184.3900  173.3480  134.7010 C   0  0  0  0  0  0  0  0  0  0  0  0
  184.0920  174.7530  134.6260 N   0  0  0  0  0  2  0  0  0  0  0  0
  183.5070  172.4920  134.4170 O   0  0  0  0  0  0  0  0  0  0  0  0
  182.8080  175.2640  134.3550 N   0  0  0  0  0  2  0  0  0  0  0  0
  182.2460  175.8120  135.5840 C   0  0  2  0  0  3  0  0  0  0  0  0
  182.7220  177.1950  135.7980 N   0  0  0  0  0  0  0  0  0  0  0  0
  181.8480  179.4560  134.6800 O   0  0  0  0  0  1  0  0  0  0  0  0
  182.1260  178.5980  137.7500 C   0  0  1  0  0  3  0  0  0  0  0  0
  181.3860  178.2580  135.4790 P   0  0  1  0  0  0  0  0  0  0  0  0
  183.0270  177.4700  137.2040 C   0  0  0  0  0  2  0  0  0  0  0  0
  180.1200  177.4820  134.6710 O   0  0  0  0  0  0  0  0  0  0  0  0
  180.9310  178.7380  137.0190 O   0  0  0  0  0  0  0  0  0  0  0  0
  181.7550  178.2930  139.5000 S   0  0  0  0  0  0  0  0  0  0  0  0
  181.9880  175.6880  140.2470 C   0  0  0  0  0  1  0  0  0  0  0  0
  182.7550  176.7740  139.5100 C   0  0  0  0  0  2  0  0  0  0  0  0
  182.4550  174.8460  136.7630 C   0  0  0  0  0  2  0  0  0  0  0  0
  181.1240  174.3950  137.3440 C   0  0  0  0  0  2  0  0  0  0  0  0
  180.9610  172.8850  137.2060 C   0  0  1  0  0  3  0  0  0  0  0  0
  180.5470  172.5560  135.8520 N   0  0  0  0  0  1  0  0  0  0  0  0
  182.2410  172.1290  137.5750 C   0  0  0  0  0  2  0  0  0  0  0  0
  182.2430  170.7920  136.9930 N   0  0  0  0  0  1  0  0  0  0  0  0
  187.6170  177.7470  138.5370 C   0  0  0  0  0  2  0  0  0  0  0  0
  186.7140  177.5130  137.4640 O   0  0  0  0  0  0  0  0  0  0  0  0
  186.3220  179.7830  136.7530 O   0  0  0  0  0  1  0  0  0  0  0  0
  186.4950  178.4390  136.4420 C   0  0  0  0  0  0  0  0  0  0  0  0
  186.4570  178.0730  135.2360 O   0  0  0  0  0  0  0  0  0  0  0  0
  191.9210  176.7170  141.8970 N   0  0  0  0  0  2  0  0  0  0  0  0
  191.3550  177.4670  143.0220 C   0  0  2  0  0  0  0  0  0  0  0  0
  190.9990  176.6280  146.7760 C   0  0  0  0  0  2  0  0  0  0  0  0
  189.0100  177.5890  143.8620 C   0  0  0  0  0  3  0  0  0  0  0  0
  191.9050  178.8930  143.0290 C   0  0  0  0  0  1  0  0  0  0  0  0
  188.6760  177.1560  146.3230 C   0  0  0  0  0  2  0  0  0  0  0  0
  189.6420  176.8030  147.4470 C   0  0  0  0  0  2  0  0  0  0  0  0
  191.6740  176.7690  144.3570 C   0  0  0  0  0  2  0  0  0  0  0  0
  189.8590  177.5420  142.8280 C   0  0  0  0  0  3  0  0  0  0  0  0
  189.5090  177.5440  145.2060 N   0  0  0  0  0  0  0  0  0  0  0  0
  190.9250  177.4500  145.5080 C   0  0  1  0  0  3  0  0  0  0  0  0
  1 10  1  1  0  0  0
  2 48  1  1  0  0  0
  2  1  1  0  0  0  0
  4  3  1  6  0  0  0
  4  7  1  0  0  0  0
  5 15  1  0  0  0  0
  6  1  1  0  0  0  0
  6  5  1  0  0  0  0
  7 14  1  0  0  0  0
  8 13  1  0  0  0  0
  9  4  1  0  0  0  0
  9  2  1  0  0  0  0
 10 15  1  0  0  0  0
 11  8  2  0  0  0  0
 11  3  1  0  0  0  0
 13 12  1  0  0  0  0
 13  7  2  0  0  0  0
 14  6  2  0  0  0  0
 15 53  1  1  0  0  0
 16 22  1  0  0  0  0
 17 16  1  0  0  0  0
 18 17  1  0  0  0  0
 20 19  1  0  0  0  0
 21 23  1  6  0  0  0
 21  5  1  0  0  0  0
 21 20  1  0  0  0  0
 22 19  1  0  0  0  0
 23 18  1  0  0  0  0
 24 25  1  0  0  0  0
 24 11  1  0  0  0  0
 25 26  2  0  0  0  0
 27 25  1  0  0  0  0
 28 27  1  0  0  0  0
 29 27  2  0  0  0  0
 30 28  1  0  0  0  0
 30 31  1  0  0  0  0
 31 32  1  0  0  0  0
 31 42  1  1  0  0  0
 32 36  1  0  0  0  0
 33 35  1  0  0  0  0
 34 39  1  1  0  0  0
 35 37  2  6  0  0  0
 35 32  1  0  0  0  0
 35 38  1  0  0  0  0
 36 34  1  0  0  0  0
 38 34  1  0  0  0  0
 39 41  1  0  0  0  0
 41 40  1  0  0  0  0
 42 43  1  0  0  0  0
 44 45  1  6  0  0  0
 44 43  1  0  0  0  0
 44 46  1  0  0  0  0
 47 46  1  0  0  0  0
 49 48  1  0  0  0  0
 51 50  1  0  0  0  0
 51 49  1  0  0  0  0
 52 51  2  0  0  0  0
 53 54  1  0  0  0  0
 54 57  1  1  0  0  0
 54 60  1  0  0  0  0
 55 59  1  0  0  0  0
 56 62  1  0  0  0  0
 58 59  1  0  0  0  0
 61 54  1  0  0  0  0
 61 56  2  0  0  0  0
 62 63  1  0  0  0  0
 62 58  1  0  0  0  0
 63 60  1  6  0  0  0
 63 55  1  0  0  0  0
M  END
>  <MODEL>
5

>  <REMARK>
 VINA RESULT:      -3.5      4.834     11.775
  Name = 
  18 active torsions:
  status: ('A' for Active; 'I' for Inactive)
    1  A    between atoms: C_3  and  C_11
    2  A    between atoms: S_5  and  C_28
    3  A    between atoms: S_5  and  C_50
    4  A    between atoms: C_7  and  N_9
    5  A    between atoms: C_8  and  C_36
    6  A    between atoms: C_8  and  C_63
    7  A    between atoms: N_9  and  C_59
    8  A    between atoms: C_11  and  O_13
    9  A    between atoms: N_12  and  C_43
   10  A    between atoms: O_13  and  C_38
   11  A    between atoms: N_16  and  C_46
   12  A    between atoms: C_18  and  C_29
   13  A    between atoms: C_18  and  C_45
   14  A    between atoms: C_19  and  C_29
   15  A    between atoms: N_32  and  N_56
   16  A    between atoms: C_43  and  C_47
   17  A    between atoms: C_43  and  N_56
   18  A    between atoms: C_47  and  C_63
                            x       y       z     vdW  Elec       q    Type
                         _______ _______ _______ _____ _____    ______ ____

>  <TORSDO>
F 18

$$$$
=
 OpenBabel10232411393D

 63 69  0  0  1  0  0  0  0  0999 V2000
  187.8690  177.9730  140.1030 C   0  0  1  0  0  3  0  0  0  0  0  0
  188.7600  176.7230  140.0350 C   0  0  1  0  0  3  0  0  0  0  0  0
  190.1340  176.5610  136.8700 O   0  0  0  0  0  0  0  0  0  0  0  0
  189.2020  177.0990  137.8060 C   0  0  1  0  0  3  0  0  0  0  0  0
  185.4620  178.0590  139.9650 N   0  0  0  0  0  0  0  0  0  0  0  0
  186.6670  177.8990  139.2220 C   0  0  0  0  0  0  0  0  0  0  0  0
  187.9640  177.6380  137.1170 C   0  0  0  0  0  0  0  0  0  0  0  0
  189.2560  177.7500  135.0370 C   0  0  0  0  0  3  0  0  0  0  0  0
  188.8590  176.1190  138.7550 O   0  0  0  0  0  0  0  0  0  0  0  0
  187.2840  178.1230  141.5050 C   0  0  0  0  0  2  0  0  0  0  0  0
  190.2770  177.0890  135.5820 C   0  0  0  0  0  0  0  0  0  0  0  0
  186.9080  178.4900  135.1540 O   0  0  0  0  0  1  0  0  0  0  0  0
  188.0190  177.9560  135.8100 C   0  0  0  0  0  0  0  0  0  0  0  0
  186.7180  177.8440  137.8840 C   0  0  0  0  0  3  0  0  0  0  0  0
  185.7710  178.3200  141.3570 C   0  0  1  0  0  3  0  0  0  0  0  0
  180.8740  178.1710  140.6020 O   0  0  0  0  0  0  0  0  0  0  0  0
  181.0370  179.0670  139.5420 C   0  0  0  0  0  2  0  0  0  0  0  0
  182.3790  179.7890  139.6640 C   0  0  0  0  0  2  0  0  0  0  0  0
  182.4270  176.4080  139.9430 C   0  0  0  0  0  2  0  0  0  0  0  0
  183.2980  177.3200  140.5650 O   0  0  0  0  0  0  0  0  0  0  0  0
  184.0770  177.8510  139.5230 C   0  0  1  0  0  3  0  0  0  0  0  0
  180.9720  176.8810  140.0550 C   0  0  0  0  0  2  0  0  0  0  0  0
  183.4480  179.0730  138.8280 C   0  0  0  0  0  2  0  0  0  0  0  0
  191.5240  176.8550  134.7830 C   0  0  0  0  0  2  0  0  0  0  0  0
  192.1510  175.5040  134.9910 C   0  0  0  0  0  0  0  0  0  0  0  0
  191.7570  174.4920  134.3470 O   0  0  0  0  0  0  0  0  0  0  0  0
  193.2270  175.3330  135.9800 C   0  0  0  0  0  0  0  0  0  0  0  0
  194.3820  174.5330  135.6690 N   0  0  0  0  0  2  0  0  0  0  0  0
  193.1330  175.9100  137.0980 O   0  0  0  0  0  0  0  0  0  0  0  0
  195.4040  174.2460  136.5950 N   0  0  0  0  0  2  0  0  0  0  0  0
  196.1520  173.0830  136.1310 C   0  0  2  0  0  3  0  0  0  0  0  0
  195.8420  171.9020  136.9650 N   0  0  0  0  0  0  0  0  0  0  0  0
  193.7980  170.1970  136.7550 O   0  0  0  0  0  1  0  0  0  0  0  0
  196.9590  169.7030  136.7570 C   0  0  1  0  0  3  0  0  0  0  0  0
  194.9510  170.7880  135.9750 P   0  0  1  0  0  0  0  0  0  0  0  0
  197.0390  171.1370  137.3200 C   0  0  0  0  0  2  0  0  0  0  0  0
  194.3790  171.5000  134.5530 O   0  0  0  0  0  0  0  0  0  0  0  0
  196.0910  169.6020  135.6520 O   0  0  0  0  0  0  0  0  0  0  0  0
  198.6200  169.1320  136.2980 S   0  0  0  0  0  0  0  0  0  0  0  0
  200.1310  169.8210  138.4510 C   0  0  0  0  0  1  0  0  0  0  0  0
  199.0610  168.8250  138.0340 C   0  0  0  0  0  2  0  0  0  0  0  0
  197.6460  173.4150  135.9780 C   0  0  0  0  0  2  0  0  0  0  0  0
  198.0020  174.6930  136.7210 C   0  0  0  0  0  2  0  0  0  0  0  0
  198.7660  174.3750  138.0030 C   0  0  1  0  0  3  0  0  0  0  0  0
  200.1360  174.8470  137.8910 N   0  0  0  0  0  1  0  0  0  0  0  0
  198.0900  174.9720  139.2410 C   0  0  0  0  0  2  0  0  0  0  0  0
  199.0180  175.0270  140.3650 N   0  0  0  0  0  1  0  0  0  0  0  0
  190.1250  176.9020  140.7080 C   0  0  0  0  0  2  0  0  0  0  0  0
  190.0780  176.5820  142.0930 O   0  0  0  0  0  0  0  0  0  0  0  0
  190.0160  178.4100  143.6630 O   0  0  0  0  0  1  0  0  0  0  0  0
  190.7030  177.3570  143.0720 C   0  0  0  0  0  0  0  0  0  0  0  0
  191.8860  177.1100  143.4320 O   0  0  0  0  0  0  0  0  0  0  0  0
  185.4290  179.7090  141.6840 N   0  0  0  0  0  2  0  0  0  0  0  0
  185.2210  179.9070  143.1210 C   0  0  2  0  0  0  0  0  0  0  0  0
  186.6780  178.1160  146.2190 C   0  0  0  0  0  2  0  0  0  0  0  0
  183.4880  178.9640  144.6460 C   0  0  0  0  0  3  0  0  0  0  0  0
  185.3640  181.3890  143.4700 C   0  0  0  0  0  1  0  0  0  0  0  0
  184.3260  177.8590  146.7510 C   0  0  0  0  0  2  0  0  0  0  0  0
  185.7270  177.6200  147.3010 C   0  0  0  0  0  2  0  0  0  0  0  0
  186.2270  179.0710  143.9360 C   0  0  0  0  0  2  0  0  0  0  0  0
  183.8120  179.4800  143.4530 C   0  0  0  0  0  3  0  0  0  0  0  0
  184.4970  178.7810  145.6490 N   0  0  0  0  0  0  0  0  0  0  0  0
  185.8860  179.1350  145.4300 C   0  0  1  0  0  3  0  0  0  0  0  0
  1 10  1  1  0  0  0
  2  1  1  0  0  0  0
  2 48  1  6  0  0  0
  4  3  1  6  0  0  0
  4  9  1  0  0  0  0
  5 15  1  0  0  0  0
  6  5  1  0  0  0  0
  6  1  1  0  0  0  0
  7  4  1  0  0  0  0
  7 14  1  0  0  0  0
  8 11  2  0  0  0  0
  8 13  1  0  0  0  0
  9  2  1  0  0  0  0
 11  3  1  0  0  0  0
 12 13  1  0  0  0  0
 13  7  2  0  0  0  0
 14  6  2  0  0  0  0
 15 10  1  0  0  0  0
 15 53  1  6  0  0  0
 17 18  1  0  0  0  0
 17 16  1  0  0  0  0
 19 22  1  0  0  0  0
 19 20  1  0  0  0  0
 21 23  1  1  0  0  0
 21  5  1  0  0  0  0
 21 20  1  0  0  0  0
 22 16  1  0  0  0  0
 23 18  1  0  0  0  0
 24 25  1  0  0  0  0
 24 11  1  0  0  0  0
 25 27  1  0  0  0  0
 26 25  2  0  0  0  0
 27 29  2  0  0  0  0
 28 27  1  0  0  0  0
 28 30  1  0  0  0  0
 31 42  1  1  0  0  0
 31 30  1  0  0  0  0
 31 32  1  0  0  0  0
 32 36  1  0  0  0  0
 34 39  1  6  0  0  0
 34 36  1  0  0  0  0
 35 37  2  6  0  0  0
 35 33  1  0  0  0  0
 35 32  1  0  0  0  0
 38 35  1  0  0  0  0
 38 34  1  0  0  0  0
 39 41  1  0  0  0  0
 41 40  1  0  0  0  0
 42 43  1  0  0  0  0
 43 44  1  0  0  0  0
 44 45  1  6  0  0  0
 44 46  1  0  0  0  0
 46 47  1  0  0  0  0
 48 49  1  0  0  0  0
 49 51  1  0  0  0  0
 51 52  2  0  0  0  0
 51 50  1  0  0  0  0
 53 54  1  0  0  0  0
 54 61  1  0  0  0  0
 54 57  1  1  0  0  0
 54 60  1  0  0  0  0
 55 59  1  0  0  0  0
 56 62  1  0  0  0  0
 58 59  1  0  0  0  0
 61 56  2  0  0  0  0
 62 58  1  0  0  0  0
 63 60  1  6  0  0  0
 63 62  1  0  0  0  0
 63 55  1  0  0  0  0
M  END
>  <MODEL>
6

>  <REMARK>
 VINA RESULT:      -3.4      3.332      5.109
  Name = 
  18 active torsions:
  status: ('A' for Active; 'I' for Inactive)
    1  A    between atoms: C_3  and  C_11
    2  A    between atoms: S_5  and  C_28
    3  A    between atoms: S_5  and  C_50
    4  A    between atoms: C_7  and  N_9
    5  A    between atoms: C_8  and  C_36
    6  A    between atoms: C_8  and  C_63
    7  A    between atoms: N_9  and  C_59
    8  A    between atoms: C_11  and  O_13
    9  A    between atoms: N_12  and  C_43
   10  A    between atoms: O_13  and  C_38
   11  A    between atoms: N_16  and  C_46
   12  A    between atoms: C_18  and  C_29
   13  A    between atoms: C_18  and  C_45
   14  A    between atoms: C_19  and  C_29
   15  A    between atoms: N_32  and  N_56
   16  A    between atoms: C_43  and  C_47
   17  A    between atoms: C_43  and  N_56
   18  A    between atoms: C_47  and  C_63
                            x       y       z     vdW  Elec       q    Type
                         _______ _______ _______ _____ _____    ______ ____

>  <TORSDO>
F 18

$$$$
=
 OpenBabel10232411393D

 63 69  0  0  1  0  0  0  0  0999 V2000
  185.6720  178.7520  141.5840 C   0  0  1  0  0  3  0  0  0  0  0  0
  186.3210  177.7460  142.5470 C   0  0  1  0  0  3  0  0  0  0  0  0
  189.6260  177.3620  141.6210 O   0  0  0  0  0  0  0  0  0  0  0  0
  188.3000  177.8250  141.3720 C   0  0  1  0  0  3  0  0  0  0  0  0
  184.2190  178.2590  139.7220 N   0  0  0  0  0  0  0  0  0  0  0  0
  185.5680  178.2530  140.1810 C   0  0  0  0  0  0  0  0  0  0  0  0
  188.0170  177.9390  139.8870 C   0  0  0  0  0  0  0  0  0  0  0  0
  190.4370  177.9840  139.5000 C   0  0  0  0  0  3  0  0  0  0  0  0
  187.3720  176.9700  141.9950 O   0  0  0  0  0  0  0  0  0  0  0  0
  184.2210  179.0020  141.9890 C   0  0  0  0  0  2  0  0  0  0  0  0
  190.6920  177.6790  140.7720 C   0  0  0  0  0  0  0  0  0  0  0  0
  188.8170  178.1760  137.6520 O   0  0  0  0  0  1  0  0  0  0  0  0
  189.0440  178.0320  139.0220 C   0  0  0  0  0  0  0  0  0  0  0  0
  186.6220  177.9820  139.4000 C   0  0  0  0  0  3  0  0  0  0  0  0
  183.3520  178.8190  140.7390 C   0  0  1  0  0  3  0  0  0  0  0  0
  184.3460  175.3150  136.1460 O   0  0  0  0  0  0  0  0  0  0  0  0
  183.2000  174.8910  136.8230 C   0  0  0  0  0  2  0  0  0  0  0  0
  183.3660  175.1090  138.3270 C   0  0  0  0  0  2  0  0  0  0  0  0
  184.0950  177.7370  136.3080 C   0  0  0  0  0  2  0  0  0  0  0  0
  184.6790  177.4390  137.5520 O   0  0  0  0  0  0  0  0  0  0  0  0
  183.6640  177.6670  138.4970 C   0  0  1  0  0  3  0  0  0  0  0  0
  183.9890  176.4760  135.4410 C   0  0  0  0  0  2  0  0  0  0  0  0
  182.7500  176.4520  138.7430 C   0  0  0  0  0  2  0  0  0  0  0  0
  192.1120  177.6030  141.2480 C   0  0  0  0  0  2  0  0  0  0  0  0
  193.1400  177.6810  140.1520 C   0  0  0  0  0  0  0  0  0  0  0  0
  194.0840  178.5180  140.1980 O   0  0  0  0  0  0  0  0  0  0  0  0
  193.0430  176.7930  138.9840 C   0  0  0  0  0  0  0  0  0  0  0  0
  194.0920  176.7660  138.0000 N   0  0  0  0  0  2  0  0  0  0  0  0
  192.0370  176.0410  138.8640 O   0  0  0  0  0  0  0  0  0  0  0  0
  194.0260  176.0150  136.8100 N   0  0  0  0  0  2  0  0  0  0  0  0
  194.5010  174.6610  137.0750 C   0  0  2  0  0  3  0  0  0  0  0  0
  195.7870  174.4220  136.3880 N   0  0  0  0  0  0  0  0  0  0  0  0
  198.2390  174.2690  137.4340 O   0  0  0  0  0  0  0  0  0  0  0  0
  196.5850  172.2010  135.6370 C   0  0  1  0  0  3  0  0  0  0  0  0
  196.8540  173.6690  137.5330 P   0  0  1  0  0  0  0  0  0  0  0  0
  195.6780  173.4120  135.3320 C   0  0  0  0  0  2  0  0  0  0  0  0
  196.2880  173.7890  139.1210 O   0  0  0  0  0  1  0  0  0  0  0  0
  196.8810  172.0770  137.0080 O   0  0  0  0  0  0  0  0  0  0  0  0
  195.8030  170.6810  135.0280 S   0  0  0  0  0  0  0  0  0  0  0  0
  193.6880  169.8490  136.5220 C   0  0  0  0  0  1  0  0  0  0  0  0
  195.1330  170.2950  136.6740 C   0  0  0  0  0  2  0  0  0  0  0  0
  193.3960  173.6270  136.7990 C   0  0  0  0  0  2  0  0  0  0  0  0
  192.1830  174.2790  136.1560 C   0  0  0  0  0  2  0  0  0  0  0  0
  190.9420  173.4120  136.3460 C   0  0  1  0  0  3  0  0  0  0  0  0
  190.0630  174.0190  137.3310 N   0  0  0  0  0  1  0  0  0  0  0  0
  190.1950  173.1760  135.0300 C   0  0  0  0  0  2  0  0  0  0  0  0
  188.9360  173.9120  135.0060 N   0  0  0  0  0  1  0  0  0  0  0  0
  186.6860  178.3470  143.9100 C   0  0  0  0  0  2  0  0  0  0  0  0
  185.5300  178.6870  144.6640 O   0  0  0  0  0  0  0  0  0  0  0  0
  186.5820  178.3440  146.8060 O   0  0  0  0  0  1  0  0  0  0  0  0
  185.4290  178.4610  146.0380 C   0  0  0  0  0  0  0  0  0  0  0  0
  184.3010  178.3670  146.5960 O   0  0  0  0  0  0  0  0  0  0  0  0
  182.8580  180.1270  140.2970 N   0  0  0  0  0  2  0  0  0  0  0  0
  181.6730  180.0140  139.4420 C   0  0  2  0  0  0  0  0  0  0  0  0
  181.2630  179.2970  135.6680 C   0  0  0  0  0  2  0  0  0  0  0  0
  180.3930  181.7700  138.2170 C   0  0  0  0  0  3  0  0  0  0  0  0
  180.6460  179.0860  140.0920 C   0  0  0  0  0  1  0  0  0  0  0  0
  179.9820  181.3530  135.7650 C   0  0  0  0  0  2  0  0  0  0  0  0
  180.3820  180.2170  134.8320 C   0  0  0  0  0  2  0  0  0  0  0  0
  182.0580  179.4850  138.0470 C   0  0  0  0  0  2  0  0  0  0  0  0
  181.0540  181.3860  139.3170 C   0  0  0  0  0  3  0  0  0  0  0  0
  180.2770  180.8780  137.0990 N   0  0  0  0  0  0  0  0  0  0  0  0
  180.8520  179.5470  137.1020 C   0  0  1  0  0  3  0  0  0  0  0  0
  1 10  1  1  0  0  0
  1  2  1  0  0  0  0
  2 48  1  1  0  0  0
  4  7  1  6  0  0  0
  4  3  1  0  0  0  0
  4  9  1  0  0  0  0
  5  6  1  0  0  0  0
  5 15  1  0  0  0  0
  6  1  1  0  0  0  0
  8 11  2  0  0  0  0
  9  2  1  0  0  0  0
 11 24  1  0  0  0  0
 11  3  1  0  0  0  0
 12 13  1  0  0  0  0
 13  8  1  0  0  0  0
 13  7  2  0  0  0  0
 14  7  1  0  0  0  0
 14  6  2  0  0  0  0
 15 53  1  6  0  0  0
 15 10  1  0  0  0  0
 16 17  1  0  0  0  0
 17 18  1  0  0  0  0
 18 23  1  0  0  0  0
 19 20  1  0  0  0  0
 20 21  1  0  0  0  0
 21 23  1  1  0  0  0
 21  5  1  0  0  0  0
 22 16  1  0  0  0  0
 22 19  1  0  0  0  0
 25 26  2  0  0  0  0
 25 24  1  0  0  0  0
 27 25  1  0  0  0  0
 28 27  1  0  0  0  0
 29 27  2  0  0  0  0
 30 31  1  0  0  0  0
 30 28  1  0  0  0  0
 31 42  1  6  0  0  0
 32 31  1  0  0  0  0
 32 35  1  0  0  0  0
 34 39  1  1  0  0  0
 34 38  1  0  0  0  0
 35 33  2  6  0  0  0
 35 37  1  0  0  0  0
 36 34  1  0  0  0  0
 36 32  1  0  0  0  0
 38 35  1  0  0  0  0
 39 41  1  0  0  0  0
 40 41  1  0  0  0  0
 43 44  1  0  0  0  0
 43 42  1  0  0  0  0
 44 45  1  1  0  0  0
 46 44  1  0  0  0  0
 47 46  1  0  0  0  0
 48 49  1  0  0  0  0
 49 51  1  0  0  0  0
 51 52  2  0  0  0  0
 51 50  1  0  0  0  0
 54 57  1  1  0  0  0
 54 53  1  0  0  0  0
 56 61  2  0  0  0  0
 58 62  1  0  0  0  0
 59 55  1  0  0  0  0
 59 58  1  0  0  0  0
 60 54  1  0  0  0  0
 61 54  1  0  0  0  0
 62 63  1  0  0  0  0
 62 56  1  0  0  0  0
 63 55  1  6  0  0  0
 63 60  1  0  0  0  0
M  END
>  <MODEL>
7

>  <REMARK>
 VINA RESULT:      -3.4      2.930      4.933
  Name = 
  18 active torsions:
  status: ('A' for Active; 'I' for Inactive)
    1  A    between atoms: C_3  and  C_11
    2  A    between atoms: S_5  and  C_28
    3  A    between atoms: S_5  and  C_50
    4  A    between atoms: C_7  and  N_9
    5  A    between atoms: C_8  and  C_36
    6  A    between atoms: C_8  and  C_63
    7  A    between atoms: N_9  and  C_59
    8  A    between atoms: C_11  and  O_13
    9  A    between atoms: N_12  and  C_43
   10  A    between atoms: O_13  and  C_38
   11  A    between atoms: N_16  and  C_46
   12  A    between atoms: C_18  and  C_29
   13  A    between atoms: C_18  and  C_45
   14  A    between atoms: C_19  and  C_29
   15  A    between atoms: N_32  and  N_56
   16  A    between atoms: C_43  and  C_47
   17  A    between atoms: C_43  and  N_56
   18  A    between atoms: C_47  and  C_63
                            x       y       z     vdW  Elec       q    Type
                         _______ _______ _______ _____ _____    ______ ____

>  <TORSDO>
F 18

$$$$
=
 OpenBabel10232411393D

 63 69  0  0  1  0  0  0  0  0999 V2000
  189.7150  175.5330  137.1300 C   0  0  1  0  0  3  0  0  0  0  0  0
  188.7300  174.3820  136.8720 C   0  0  1  0  0  3  0  0  0  0  0  0
  185.7440  175.7490  135.8050 O   0  0  0  0  0  0  0  0  0  0  0  0
  187.0430  175.8700  136.3810 C   0  0  1  0  0  3  0  0  0  0  0  0
  190.3450  176.4640  139.2640 N   0  0  0  0  0  0  0  0  0  0  0  0
  189.3230  176.4100  138.2720 C   0  0  0  0  0  0  0  0  0  0  0  0
  187.1440  177.0840  137.2840 C   0  0  0  0  0  0  0  0  0  0  0  0
  185.1870  178.0130  136.1370 C   0  0  0  0  0  3  0  0  0  0  0  0
  187.3640  174.6950  137.0850 O   0  0  0  0  0  0  0  0  0  0  0  0
  191.0740  174.9760  137.5470 C   0  0  0  0  0  2  0  0  0  0  0  0
  184.9690  176.8700  135.4870 C   0  0  0  0  0  0  0  0  0  0  0  0
  186.3550  179.2420  137.9260 O   0  0  0  0  0  1  0  0  0  0  0  0
  186.2660  178.0940  137.1370 C   0  0  0  0  0  0  0  0  0  0  0  0
  188.2210  177.1710  138.2930 C   0  0  0  0  0  3  0  0  0  0  0  0
  191.4980  175.7020  138.8290 C   0  0  1  0  0  3  0  0  0  0  0  0
  190.5320  176.1520  143.8830 O   0  0  0  0  0  0  0  0  0  0  0  0
  191.6010  177.0100  143.6120 C   0  0  0  0  0  2  0  0  0  0  0  0
  192.2300  176.6580  142.2650 C   0  0  0  0  0  2  0  0  0  0  0  0
  188.8570  177.0170  142.3330 C   0  0  0  0  0  2  0  0  0  0  0  0
  189.6000  176.1730  141.4890 O   0  0  0  0  0  0  0  0  0  0  0  0
  190.2820  177.0370  140.6160 C   0  0  1  0  0  3  0  0  0  0  0  0
  189.3630  176.9240  143.7790 C   0  0  0  0  0  2  0  0  0  0  0  0
  191.6370  177.5340  141.1530 C   0  0  0  0  0  2  0  0  0  0  0  0
  183.8510  176.7820  134.4910 C   0  0  0  0  0  2  0  0  0  0  0  0
  182.7690  177.8100  134.6790 C   0  0  0  0  0  0  0  0  0  0  0  0
  182.9430  179.0150  134.3460 O   0  0  0  0  0  0  0  0  0  0  0  0
  181.4850  177.4280  135.2880 C   0  0  0  0  0  0  0  0  0  0  0  0
  181.1480  177.8680  136.6160 N   0  0  0  0  0  2  0  0  0  0  0  0
  180.6750  176.7230  134.6250 O   0  0  0  0  0  0  0  0  0  0  0  0
  179.9850  177.4640  137.2990 N   0  0  0  0  0  2  0  0  0  0  0  0
  180.3680  176.8210  138.5520 C   0  0  2  0  0  3  0  0  0  0  0  0
  180.4820  177.8230  139.6330 N   0  0  0  0  0  0  0  0  0  0  0  0
  180.0100  177.5280  142.2440 O   0  0  0  0  0  1  0  0  0  0  0  0
  182.6150  178.5270  140.6760 C   0  0  1  0  0  3  0  0  0  0  0  0
  180.8260  176.9640  141.1020 P   0  0  1  0  0  0  0  0  0  0  0  0
  181.6570  178.6840  139.4760 C   0  0  0  0  0  2  0  0  0  0  0  0
  180.5480  175.3030  140.9610 O   0  0  0  0  0  0  0  0  0  0  0  0
  182.4520  177.2970  141.3420 O   0  0  0  0  0  0  0  0  0  0  0  0
  184.3310  178.7110  140.1170 S   0  0  0  0  0  0  0  0  0  0  0  0
  184.4380  179.1060  142.8060 C   0  0  0  0  0  1  0  0  0  0  0  0
  184.9780  178.1770  141.7300 C   0  0  0  0  0  2  0  0  0  0  0  0
  181.5960  175.9160  138.3530 C   0  0  0  0  0  2  0  0  0  0  0  0
  181.2300  174.6620  137.5740 C   0  0  0  0  0  2  0  0  0  0  0  0
  182.4820  173.9930  137.0140 C   0  0  1  0  0  3  0  0  0  0  0  0
  183.6430  174.3890  137.7930 N   0  0  0  0  0  1  0  0  0  0  0  0
  182.3540  172.4680  136.9740 C   0  0  0  0  0  2  0  0  0  0  0  0
  183.5880  171.8530  136.4980 N   0  0  0  0  0  1  0  0  0  0  0  0
  188.9670  173.6540  135.5440 C   0  0  0  0  0  2  0  0  0  0  0  0
  189.7050  172.4520  135.7240 O   0  0  0  0  0  0  0  0  0  0  0  0
  188.1640  170.7560  134.9740 O   0  0  0  0  0  1  0  0  0  0  0  0
  189.4470  171.2890  134.9940 C   0  0  0  0  0  0  0  0  0  0  0  0
  190.3660  170.7180  134.3460 O   0  0  0  0  0  0  0  0  0  0  0  0
  192.6040  176.6160  138.5240 N   0  0  0  0  0  2  0  0  0  0  0  0
  193.7390  175.9280  137.9000 C   0  0  2  0  0  0  0  0  0  0  0  0
  194.0650  172.4540  136.2420 C   0  0  0  0  0  2  0  0  0  0  0  0
  195.5100  174.4930  138.9110 C   0  0  0  0  0  3  0  0  0  0  0  0
  194.4330  176.8600  136.9070 C   0  0  0  0  0  1  0  0  0  0  0  0
  195.8750  172.2400  137.8410 C   0  0  0  0  0  2  0  0  0  0  0  0
  195.2020  171.5340  136.6700 C   0  0  0  0  0  2  0  0  0  0  0  0
  193.2700  174.6460  137.1850 C   0  0  0  0  0  2  0  0  0  0  0  0
  194.7280  175.5770  138.9860 C   0  0  0  0  0  3  0  0  0  0  0  0
  195.4080  173.6080  137.7870 N   0  0  0  0  0  0  0  0  0  0  0  0
  194.4770  173.8360  136.6980 C   0  0  1  0  0  3  0  0  0  0  0  0
  1 10  1  1  0  0  0
  1  6  1  0  0  0  0
  2 48  1  6  0  0  0
  2  9  1  0  0  0  0
  2  1  1  0  0  0  0
  4  3  1  1  0  0  0
  4  9  1  0  0  0  0
  4  7  1  0  0  0  0
  6 14  2  0  0  0  0
  6  5  1  0  0  0  0
  7 14  1  0  0  0  0
  8 13  1  0  0  0  0
 10 15  1  0  0  0  0
 11  3  1  0  0  0  0
 11  8  2  0  0  0  0
 13  7  2  0  0  0  0
 13 12  1  0  0  0  0
 15 53  1  6  0  0  0
 15  5  1  0  0  0  0
 17 16  1  0  0  0  0
 18 17  1  0  0  0  0
 19 22  1  0  0  0  0
 20 19  1  0  0  0  0
 21  5  1  6  0  0  0
 21 23  1  0  0  0  0
 21 20  1  0  0  0  0
 22 16  1  0  0  0  0
 23 18  1  0  0  0  0
 24 25  1  0  0  0  0
 24 11  1  0  0  0  0
 25 27  1  0  0  0  0
 26 25  2  0  0  0  0
 27 28  1  0  0  0  0
 28 30  1  0  0  0  0
 29 27  2  0  0  0  0
 30 31  1  0  0  0  0
 31 42  1  6  0  0  0
 31 32  1  0  0  0  0
 32 35  1  0  0  0  0
 34 39  1  6  0  0  0
 34 38  1  0  0  0  0
 35 37  2  6  0  0  0
 35 38  1  0  0  0  0
 35 33  1  0  0  0  0
 36 32  1  0  0  0  0
 36 34  1  0  0  0  0
 39 41  1  0  0  0  0
 41 40  1  0  0  0  0
 43 42  1  0  0  0  0
 44 43  1  0  0  0  0
 44 45  1  1  0  0  0
 46 44  1  0  0  0  0
 47 46  1  0  0  0  0
 48 49  1  0  0  0  0
 50 51  1  0  0  0  0
 51 49  1  0  0  0  0
 52 51  2  0  0  0  0
 54 57  1  6  0  0  0
 54 53  1  0  0  0  0
 54 61  1  0  0  0  0
 55 59  1  0  0  0  0
 56 61  2  0  0  0  0
 59 58  1  0  0  0  0
 60 54  1  0  0  0  0
 62 58  1  0  0  0  0
 62 56  1  0  0  0  0
 63 55  1  1  0  0  0
 63 60  1  0  0  0  0
 63 62  1  0  0  0  0
M  END
>  <MODEL>
8

>  <REMARK>
 VINA RESULT:      -3.2      4.412     12.550
  Name = 
  18 active torsions:
  status: ('A' for Active; 'I' for Inactive)
    1  A    between atoms: C_3  and  C_11
    2  A    between atoms: S_5  and  C_28
    3  A    between atoms: S_5  and  C_50
    4  A    between atoms: C_7  and  N_9
    5  A    between atoms: C_8  and  C_36
    6  A    between atoms: C_8  and  C_63
    7  A    between atoms: N_9  and  C_59
    8  A    between atoms: C_11  and  O_13
    9  A    between atoms: N_12  and  C_43
   10  A    between atoms: O_13  and  C_38
   11  A    between atoms: N_16  and  C_46
   12  A    between atoms: C_18  and  C_29
   13  A    between atoms: C_18  and  C_45
   14  A    between atoms: C_19  and  C_29
   15  A    between atoms: N_32  and  N_56
   16  A    between atoms: C_43  and  C_47
   17  A    between atoms: C_43  and  N_56
   18  A    between atoms: C_47  and  C_63
                            x       y       z     vdW  Elec       q    Type
                         _______ _______ _______ _____ _____    ______ ____

>  <TORSDO>
F 18

$$$$
=
 OpenBabel10232411393D

 63 69  0  0  1  0  0  0  0  0999 V2000
  187.4880  178.3440  140.2320 C   0  0  1  0  0  3  0  0  0  0  0  0
  187.1610  177.3980  139.0660 C   0  0  1  0  0  3  0  0  0  0  0  0
  184.1540  178.3960  137.6920 O   0  0  0  0  0  0  0  0  0  0  0  0
  185.1350  178.4370  138.7270 C   0  0  1  0  0  3  0  0  0  0  0  0
  187.2240  177.9000  142.5880 N   0  0  0  0  0  0  0  0  0  0  0  0
  186.5420  178.2250  141.3800 C   0  0  0  0  0  0  0  0  0  0  0  0
  184.5270  178.8350  140.0580 C   0  0  0  0  0  0  0  0  0  0  0  0
  182.6310  179.7850  138.8290 C   0  0  0  0  0  3  0  0  0  0  0  0
  185.7790  177.1910  138.8240 O   0  0  0  0  0  0  0  0  0  0  0  0
  188.8420  177.9800  140.8370 C   0  0  0  0  0  2  0  0  0  0  0  0
  183.0540  179.2610  137.6800 C   0  0  0  0  0  0  0  0  0  0  0  0
  182.7830  179.9020  141.2860 O   0  0  0  0  0  1  0  0  0  0  0  0
  183.3510  179.4890  140.0800 C   0  0  0  0  0  0  0  0  0  0  0  0
  185.2410  178.5370  141.3170 C   0  0  0  0  0  3  0  0  0  0  0  0
  188.6530  177.8520  142.3530 C   0  0  1  0  0  3  0  0  0  0  0  0
  186.4420  178.5200  147.1130 O   0  0  0  0  0  0  0  0  0  0  0  0
  185.1450  178.5400  146.5950 C   0  0  0  0  0  2  0  0  0  0  0  0
  185.1490  179.1380  145.1880 C   0  0  0  0  0  2  0  0  0  0  0  0
  187.4160  176.6940  145.8210 C   0  0  0  0  0  2  0  0  0  0  0  0
  187.5600  177.7680  144.9250 O   0  0  0  0  0  0  0  0  0  0  0  0
  186.6560  177.5000  143.8830 C   0  0  1  0  0  3  0  0  0  0  0  0
  186.8360  177.1720  147.1580 C   0  0  0  0  0  2  0  0  0  0  0  0
  185.2310  178.0240  144.1350 C   0  0  0  0  0  2  0  0  0  0  0  0
  182.3030  179.5410  136.4130 C   0  0  0  0  0  2  0  0  0  0  0  0
  180.8640  179.1010  136.4320 C   0  0  0  0  0  0  0  0  0  0  0  0
  180.0330  179.6120  137.2330 O   0  0  0  0  0  0  0  0  0  0  0  0
  180.4060  178.0350  135.5280 C   0  0  0  0  0  0  0  0  0  0  0  0
  180.3190  176.6750  135.9900 N   0  0  0  0  0  2  0  0  0  0  0  0
  180.0730  178.3300  134.3470 O   0  0  0  0  0  0  0  0  0  0  0  0
  179.9820  175.5890  135.1580 N   0  0  0  0  0  2  0  0  0  0  0  0
  180.9210  174.4990  135.3970 C   0  0  2  0  0  3  0  0  0  0  0  0
  182.2930  175.0250  135.5580 N   0  0  0  0  0  0  0  0  0  0  0  0
  183.6170  175.5840  137.8090 O   0  0  0  0  0  0  0  0  0  0  0  0
  184.3520  173.6640  135.3560 C   0  0  1  0  0  3  0  0  0  0  0  0
  182.8840  174.4700  137.0940 P   0  0  1  0  0  0  0  0  0  0  0  0
  183.2370  174.4270  134.6110 C   0  0  0  0  0  2  0  0  0  0  0  0
  181.6530  173.8650  138.0810 O   0  0  0  0  0  1  0  0  0  0  0  0
  183.9640  173.2670  136.6510 O   0  0  0  0  0  0  0  0  0  0  0  0
  184.8570  172.2160  134.3860 S   0  0  0  0  0  0  0  0  0  0  0  0
  187.0390  172.5620  135.9730 C   0  0  0  0  0  1  0  0  0  0  0  0
  186.6140  172.6660  134.5170 C   0  0  0  0  0  2  0  0  0  0  0  0
  180.7540  173.3880  134.3460 C   0  0  0  0  0  2  0  0  0  0  0  0
  180.0350  172.1830  134.9320 C   0  0  0  0  0  2  0  0  0  0  0  0
  181.0160  171.2800  135.6730 C   0  0  1  0  0  3  0  0  0  0  0  0
  180.3860  170.7420  136.8670 N   0  0  0  0  0  1  0  0  0  0  0  0
  181.5430  170.1480  134.7860 C   0  0  0  0  0  2  0  0  0  0  0  0
  180.9100  168.8790  135.1300 N   0  0  0  0  0  1  0  0  0  0  0  0
  187.9440  177.7070  137.7850 C   0  0  0  0  0  2  0  0  0  0  0  0
  187.7020  176.7400  136.7710 O   0  0  0  0  0  0  0  0  0  0  0  0
  189.0730  177.8380  135.1200 O   0  0  0  0  0  1  0  0  0  0  0  0
  188.0670  176.9330  135.4370 C   0  0  0  0  0  0  0  0  0  0  0  0
  187.4990  176.2910  134.5120 O   0  0  0  0  0  0  0  0  0  0  0  0
  189.3000  178.9870  143.0190 N   0  0  0  0  0  2  0  0  0  0  0  0
  190.3930  178.5660  143.9000 C   0  0  2  0  0  0  0  0  0  0  0  0
  191.9640  175.1080  144.6050 C   0  0  0  0  0  2  0  0  0  0  0  0
  190.3680  177.9220  146.3090 C   0  0  0  0  0  3  0  0  0  0  0  0
  191.6080  179.4710  143.6930 C   0  0  0  0  0  1  0  0  0  0  0  0
  191.4570  175.7260  146.8940 C   0  0  0  0  0  2  0  0  0  0  0  0
  192.1400  174.6570  146.0500 C   0  0  0  0  0  2  0  0  0  0  0  0
  190.7730  177.0980  143.6300 C   0  0  0  0  0  2  0  0  0  0  0  0
  189.9290  178.7220  145.3280 C   0  0  0  0  0  3  0  0  0  0  0  0
  191.2890  176.8620  146.0160 N   0  0  0  0  0  0  0  0  0  0  0  0
  191.7820  176.6080  144.6760 C   0  0  1  0  0  3  0  0  0  0  0  0
  1 10  1  1  0  0  0
  1  6  1  0  0  0  0
  2 48  1  6  0  0  0
  2  1  1  0  0  0  0
  4  3  1  6  0  0  0
  4  9  1  0  0  0  0
  4  7  1  0  0  0  0
  6  5  1  0  0  0  0
  7 13  2  0  0  0  0
  7 14  1  0  0  0  0
  8 13  1  0  0  0  0
  9  2  1  0  0  0  0
 10 15  1  0  0  0  0
 11  3  1  0  0  0  0
 11  8  2  0  0  0  0
 13 12  1  0  0  0  0
 14  6  2  0  0  0  0
 15  5  1  0  0  0  0
 15 53  1  1  0  0  0
 16 22  1  0  0  0  0
 17 16  1  0  0  0  0
 18 17  1  0  0  0  0
 19 22  1  0  0  0  0
 20 19  1  0  0  0  0
 21  5  1  6  0  0  0
 21 23  1  0  0  0  0
 21 20  1  0  0  0  0
 23 18  1  0  0  0  0
 24 25  1  0  0  0  0
 24 11  1  0  0  0  0
 25 26  2  0  0  0  0
 27 28  1  0  0  0  0
 27 25  1  0  0  0  0
 29 27  2  0  0  0  0
 30 31  1  0  0  0  0
 30 28  1  0  0  0  0
 31 42  1  6  0  0  0
 31 32  1  0  0  0  0
 32 35  1  0  0  0  0
 34 39  1  6  0  0  0
 34 38  1  0  0  0  0
 35 33  2  1  0  0  0
 35 37  1  0  0  0  0
 36 34  1  0  0  0  0
 36 32  1  0  0  0  0
 38 35  1  0  0  0  0
 39 41  1  0  0  0  0
 41 40  1  0  0  0  0
 42 43  1  0  0  0  0
 43 44  1  0  0  0  0
 44 45  1  1  0  0  0
 46 47  1  0  0  0  0
 46 44  1  0  0  0  0
 49 48  1  0  0  0  0
 50 51  1  0  0  0  0
 51 49  1  0  0  0  0
 52 51  2  0  0  0  0
 53 54  1  0  0  0  0
 54 57  1  6  0  0  0
 54 61  1  0  0  0  0
 55 63  1  0  0  0  0
 55 59  1  0  0  0  0
 59 58  1  0  0  0  0
 60 54  1  0  0  0  0
 61 56  2  0  0  0  0
 62 56  1  0  0  0  0
 62 58  1  0  0  0  0
 63 60  1  6  0  0  0
 63 62  1  0  0  0  0
M  END
>  <MODEL>
9

>  <REMARK>
 VINA RESULT:      -3.1      6.856     12.190
  Name = 
  18 active torsions:
  status: ('A' for Active; 'I' for Inactive)
    1  A    between atoms: C_3  and  C_11
    2  A    between atoms: S_5  and  C_28
    3  A    between atoms: S_5  and  C_50
    4  A    between atoms: C_7  and  N_9
    5  A    between atoms: C_8  and  C_36
    6  A    between atoms: C_8  and  C_63
    7  A    between atoms: N_9  and  C_59
    8  A    between atoms: C_11  and  O_13
    9  A    between atoms: N_12  and  C_43
   10  A    between atoms: O_13  and  C_38
   11  A    between atoms: N_16  and  C_46
   12  A    between atoms: C_18  and  C_29
   13  A    between atoms: C_18  and  C_45
   14  A    between atoms: C_19  and  C_29
   15  A    between atoms: N_32  and  N_56
   16  A    between atoms: C_43  and  C_47
   17  A    between atoms: C_43  and  N_56
   18  A    between atoms: C_47  and  C_63
                            x       y       z     vdW  Elec       q    Type
                         _______ _______ _______ _____ _____    ______ ____

>  <TORSDO>
F 18

$$$$
