=
 OpenBabel10232411243D

 36 39  0  0  1  0  0  0  0  0999 V2000
  190.8560  177.0500  145.2820 C   0  0  0  0  0  3  0  0  0  0  0  0
  188.7670  177.6550  140.5900 N   0  0  0  0  0  0  0  0  0  0  0  0
  190.4820  176.9130  146.5510 C   0  0  0  0  0  3  0  0  0  0  0  0
  188.2720  177.1740  147.9010 C   0  0  0  0  0  1  0  0  0  0  0  0
  189.7400  177.6310  144.4670 C   0  0  1  0  0  3  0  0  0  0  0  0
  189.0970  177.3420  146.6710 C   0  0  0  0  0  0  0  0  0  0  0  0
  187.9200  177.1370  142.7560 C   0  0  2  0  0  3  0  0  0  0  0  0
  190.5530  176.3920  139.6690 N   0  0  0  0  0  2  0  0  0  0  0  0
  186.9450  177.6920  143.6820 N   0  0  0  0  0  0  0  0  0  0  0  0
  186.0640  178.5880  142.9380 C   0  0  1  0  0  3  0  0  0  0  0  0
  190.3700  176.6700  142.1900 C   0  0  0  0  0  2  0  0  0  0  0  0
  186.3760  178.2890  145.8750 O   0  0  0  0  0  0  0  0  0  0  0  0
  187.2630  177.9180  145.0610 C   0  0  0  0  0  0  0  0  0  0  0  0
  189.8400  176.9330  140.7810 C   0  0  0  0  0  0  0  0  0  0  0  0
  189.2980  176.7190  143.3160 C   0  0  1  0  0  3  0  0  0  0  0  0
  186.6730  178.6940  141.5260 C   0  0  0  0  0  2  0  0  0  0  0  0
  188.6550  177.7080  145.4800 C   0  0  0  0  0  0  0  0  0  0  0  0
  188.0930  178.2190  141.7450 C   0  0  2  0  0  3  0  0  0  0  0  0
  183.9750  178.1030  141.7910 C   0  0  0  0  0  0  0  0  0  0  0  0
  184.6860  178.0180  142.8810 C   0  0  0  0  0  3  0  0  0  0  0  0
  183.2620  178.1880  140.6950 C   0  0  0  0  0  0  0  0  0  0  0  0
  181.7940  179.7130  139.6140 O   0  0  0  0  0  0  0  0  0  0  0  0
  180.0030  179.9330  141.8000 C   0  0  0  0  0  1  0  0  0  0  0  0
  182.0630  179.0430  140.6490 C   0  0  0  0  0  0  0  0  0  0  0  0
  181.2000  179.1080  141.7870 N   0  0  0  0  0  2  0  0  0  0  0  0
  183.6470  177.4540  139.5300 N   0  0  0  0  0  2  0  0  0  0  0  0
  183.0100  176.3180  139.1590 O   0  0  0  0  0  1  0  0  0  0  0  0
  190.1250  176.5970  138.2930 C   0  0  0  0  0  2  0  0  0  0  0  0
  191.2700  176.3020  137.3380 C   0  0  0  0  0  2  0  0  0  0  0  0
  191.5340  173.9360  137.4990 O   0  0  0  0  0  1  0  0  0  0  0  0
  192.1280  175.1510  137.8500 C   0  0  1  0  0  3  0  0  0  0  0  0
  193.5320  175.2340  137.2530 C   0  0  1  0  0  3  0  0  0  0  0  0
  193.9200  176.5690  137.1150 O   0  0  0  0  0  1  0  0  0  0  0  0
  194.6490  173.2730  138.0210 O   0  0  0  0  0  0  0  0  0  0  0  0
  194.5220  174.5210  138.1150 C   0  0  0  0  0  0  0  0  0  0  0  0
  195.2980  175.2270  139.0270 O   0  0  0  0  0  1  0  0  0  0  0  0
  1  3  2  0  0  0  0
  2 14  2  0  0  0  0
  2 18  1  0  0  0  0
  3  6  1  0  0  0  0
  5  1  1  1  0  0  0
  5 17  1  0  0  0  0
  6  4  1  0  0  0  0
  7 15  1  0  0  0  0
  7  9  1  1  0  0  0
  8 14  1  0  0  0  0
  9 13  1  0  0  0  0
 10 20  1  6  0  0  0
 10  9  1  0  0  0  0
 13 17  1  0  0  0  0
 13 12  2  0  0  0  0
 14 11  1  0  0  0  0
 15 11  1  6  0  0  0
 15  5  1  0  0  0  0
 16 10  1  0  0  0  0
 17  6  2  0  0  0  0
 18 16  1  6  0  0  0
 18  7  1  0  0  0  0
 19 20  2  0  0  0  0
 21 19  2  0  0  0  0
 22 24  2  0  0  0  0
 24 21  1  0  0  0  0
 24 25  1  0  0  0  0
 25 23  1  0  0  0  0
 26 21  1  0  0  0  0
 27 26  1  0  0  0  0
 28  8  1  0  0  0  0
 29 31  1  0  0  0  0
 29 28  1  0  0  0  0
 31 30  1  6  0  0  0
 32 33  1  1  0  0  0
 32 31  1  0  0  0  0
 32 35  1  0  0  0  0
 34 35  2  0  0  0  0
 35 36  1  0  0  0  0
M  END
>  <MODEL>
1

>  <REMARK>
 VINA RESULT:      -9.5      0.000      0.000
  Name = 
  8 active torsions:
  status: ('A' for Active; 'I' for Inactive)
    1  A    between atoms: C_6  and  C_12
    2  A    between atoms: C_12  and  C_34
    3  A    between atoms: C_13  and  N_15
    4  A    between atoms: C_13  and  C_20
    5  A    between atoms: C_17  and  C_24
    6  A    between atoms: N_19  and  C_26
    7  A    between atoms: C_20  and  C_34
    8  A    between atoms: C_22  and  C_26
                            x       y       z     vdW  Elec       q    Type
                         _______ _______ _______ _____ _____    ______ ____

>  <TORSDO>
F 8

$$$$
=
 OpenBabel10232411243D

 36 39  0  0  1  0  0  0  0  0999 V2000
  190.9060  177.1380  145.3200 C   0  0  0  0  0  3  0  0  0  0  0  0
  189.0220  177.8340  140.5540 N   0  0  0  0  0  0  0  0  0  0  0  0
  190.4780  176.9320  146.5620 C   0  0  0  0  0  3  0  0  0  0  0  0
  188.1950  177.0330  147.8060 C   0  0  0  0  0  1  0  0  0  0  0  0
  189.8050  177.6980  144.4710 C   0  0  1  0  0  3  0  0  0  0  0  0
  189.0700  177.2900  146.6280 C   0  0  0  0  0  0  0  0  0  0  0  0
  188.0970  177.1890  142.6530 C   0  0  2  0  0  3  0  0  0  0  0  0
  190.9120  176.6960  139.6780 N   0  0  0  0  0  2  0  0  0  0  0  0
  187.0510  177.6590  143.5490 N   0  0  0  0  0  0  0  0  0  0  0  0
  186.1650  178.5420  142.7960 C   0  0  1  0  0  3  0  0  0  0  0  0
  190.5920  176.8620  142.1940 C   0  0  0  0  0  2  0  0  0  0  0  0
  186.3470  178.1380  145.7310 O   0  0  0  0  0  0  0  0  0  0  0  0
  187.2900  177.8430  144.9500 C   0  0  0  0  0  0  0  0  0  0  0  0
  190.1190  177.1570  140.7720 C   0  0  0  0  0  0  0  0  0  0  0  0
  189.4640  176.8140  143.2660 C   0  0  1  0  0  3  0  0  0  0  0  0
  186.8370  178.7340  141.4220 C   0  0  0  0  0  2  0  0  0  0  0  0
  188.6680  177.6830  145.4300 C   0  0  0  0  0  0  0  0  0  0  0  0
  188.2660  178.3180  141.6940 C   0  0  2  0  0  3  0  0  0  0  0  0
  184.1170  178.0880  141.5630 C   0  0  0  0  0  0  0  0  0  0  0  0
  184.8210  177.9100  142.6460 C   0  0  0  0  0  3  0  0  0  0  0  0
  183.4120  178.2680  140.4740 C   0  0  0  0  0  0  0  0  0  0  0  0
  181.7840  179.6960  139.4930 O   0  0  0  0  0  0  0  0  0  0  0  0
  180.1570  179.8520  141.8080 C   0  0  0  0  0  1  0  0  0  0  0  0
  182.1680  179.0560  140.5120 C   0  0  0  0  0  0  0  0  0  0  0  0
  181.3920  179.0930  141.7120 N   0  0  0  0  0  2  0  0  0  0  0  0
  183.8490  177.7040  139.2350 N   0  0  0  0  0  2  0  0  0  0  0  0
  184.6310  178.3970  138.3730 O   0  0  0  0  0  1  0  0  0  0  0  0
  190.5420  176.9370  138.2910 C   0  0  0  0  0  2  0  0  0  0  0  0
  189.8280  175.7230  137.7190 C   0  0  0  0  0  2  0  0  0  0  0  0
  187.4980  176.2360  137.7040 O   0  0  0  0  0  1  0  0  0  0  0  0
  188.6240  176.1390  136.8820 C   0  0  1  0  0  3  0  0  0  0  0  0
  188.8900  177.4820  136.2060 C   0  0  1  0  0  3  0  0  0  0  0  0
  189.3640  177.2840  134.9070 O   0  0  0  0  0  1  0  0  0  0  0  0
  187.5230  179.2970  136.9260 O   0  0  0  0  0  1  0  0  0  0  0  0
  187.6480  178.3100  136.1550 C   0  0  0  0  0  0  0  0  0  0  0  0
  186.6260  177.9930  135.2680 O   0  0  0  0  0  0  0  0  0  0  0  0
  1  3  2  0  0  0  0
  2 14  2  0  0  0  0
  2 18  1  0  0  0  0
  3  6  1  0  0  0  0
  5  1  1  1  0  0  0
  5 17  1  0  0  0  0
  6  4  1  0  0  0  0
  7 15  1  0  0  0  0
  7  9  1  1  0  0  0
  8 14  1  0  0  0  0
  9 13  1  0  0  0  0
 10 20  1  6  0  0  0
 10  9  1  0  0  0  0
 13 17  1  0  0  0  0
 13 12  2  0  0  0  0
 14 11  1  0  0  0  0
 15 11  1  6  0  0  0
 15  5  1  0  0  0  0
 16 10  1  0  0  0  0
 17  6  2  0  0  0  0
 18 16  1  6  0  0  0
 18  7  1  0  0  0  0
 19 20  2  0  0  0  0
 21 24  1  0  0  0  0
 21 19  2  0  0  0  0
 22 24  2  0  0  0  0
 24 25  1  0  0  0  0
 25 23  1  0  0  0  0
 26 21  1  0  0  0  0
 27 26  1  0  0  0  0
 28  8  1  0  0  0  0
 29 28  1  0  0  0  0
 31 30  1  1  0  0  0
 31 29  1  0  0  0  0
 32 33  1  6  0  0  0
 32 31  1  0  0  0  0
 35 32  1  0  0  0  0
 35 34  1  0  0  0  0
 36 35  2  0  0  0  0
M  END
>  <MODEL>
2

>  <REMARK>
 VINA RESULT:      -9.3      2.411      3.128
  Name = 
  8 active torsions:
  status: ('A' for Active; 'I' for Inactive)
    1  A    between atoms: C_6  and  C_12
    2  A    between atoms: C_12  and  C_34
    3  A    between atoms: C_13  and  N_15
    4  A    between atoms: C_13  and  C_20
    5  A    between atoms: C_17  and  C_24
    6  A    between atoms: N_19  and  C_26
    7  A    between atoms: C_20  and  C_34
    8  A    between atoms: C_22  and  C_26
                            x       y       z     vdW  Elec       q    Type
                         _______ _______ _______ _____ _____    ______ ____

>  <TORSDO>
F 8

$$$$
=
 OpenBabel10232411243D

 36 39  0  0  1  0  0  0  0  0999 V2000
  187.5210  177.8930  147.9720 C   0  0  0  0  0  3  0  0  0  0  0  0
  186.4190  177.3420  142.9490 N   0  0  0  0  0  0  0  0  0  0  0  0
  188.5740  178.0360  148.7710 C   0  0  0  0  0  3  0  0  0  0  0  0
  191.1570  177.8230  148.5390 C   0  0  0  0  0  1  0  0  0  0  0  0
  187.9420  177.3380  146.6440 C   0  0  1  0  0  3  0  0  0  0  0  0
  189.7660  177.6380  148.0380 C   0  0  0  0  0  0  0  0  0  0  0  0
  188.3800  177.8760  144.1940 C   0  0  2  0  0  3  0  0  0  0  0  0
  184.4140  178.5660  143.2900 N   0  0  0  0  0  2  0  0  0  0  0  0
  189.7230  177.3420  144.3510 N   0  0  0  0  0  0  0  0  0  0  0  0
  190.0040  176.4660  143.2150 C   0  0  1  0  0  3  0  0  0  0  0  0
  186.0650  178.2880  145.2030 C   0  0  0  0  0  2  0  0  0  0  0  0
  191.4960  176.7540  145.7660 O   0  0  0  0  0  0  0  0  0  0  0  0
  190.2920  177.1070  145.6450 C   0  0  0  0  0  0  0  0  0  0  0  0
  185.6580  178.0390  143.7520 C   0  0  0  0  0  0  0  0  0  0  0  0
  187.5980  178.2620  145.4700 C   0  0  1  0  0  3  0  0  0  0  0  0
  188.6760  176.3490  142.4410 C   0  0  0  0  0  2  0  0  0  0  0  0
  189.4190  177.2830  146.8120 C   0  0  0  0  0  0  0  0  0  0  0  0
  187.6570  176.7920  143.4680 C   0  0  2  0  0  3  0  0  0  0  0  0
  190.9190  177.1400  141.0640 C   0  0  0  0  0  0  0  0  0  0  0  0
  191.0670  177.0680  142.3580 C   0  0  0  0  0  3  0  0  0  0  0  0
  190.7670  177.2130  139.7650 C   0  0  0  0  0  0  0  0  0  0  0  0
  192.7980  176.7330  138.6260 O   0  0  0  0  0  0  0  0  0  0  0  0
  191.8380  174.3730  137.3830 C   0  0  0  0  0  1  0  0  0  0  0  0
  191.6050  176.3970  138.8690 C   0  0  0  0  0  0  0  0  0  0  0  0
  191.0600  175.2180  138.2740 N   0  0  0  0  0  2  0  0  0  0  0  0
  189.7810  178.0840  139.2060 N   0  0  0  0  0  2  0  0  0  0  0  0
  189.6690  178.2690  137.8680 O   0  0  0  0  0  1  0  0  0  0  0  0
  183.9430  178.3720  141.9260 C   0  0  0  0  0  2  0  0  0  0  0  0
  184.8200  179.1420  140.9540 C   0  0  0  0  0  2  0  0  0  0  0  0
  183.6950  180.2760  139.1810 O   0  0  0  0  0  1  0  0  0  0  0  0
  184.2730  179.0540  139.5330 C   0  0  1  0  0  3  0  0  0  0  0  0
  185.3960  178.7100  138.5570 C   0  0  1  0  0  3  0  0  0  0  0  0
  186.5790  178.4500  139.2520 O   0  0  0  0  0  1  0  0  0  0  0  0
  185.7470  177.2110  136.7370 O   0  0  0  0  0  0  0  0  0  0  0  0
  185.0390  177.5170  137.7310 C   0  0  0  0  0  0  0  0  0  0  0  0
  183.9260  176.7480  138.0490 O   0  0  0  0  0  1  0  0  0  0  0  0
  1  3  2  0  0  0  0
  2 18  1  0  0  0  0
  2 14  2  0  0  0  0
  5 17  1  0  0  0  0
  5  1  1  1  0  0  0
  6  4  1  0  0  0  0
  6  3  1  0  0  0  0
  7  9  1  1  0  0  0
  7 15  1  0  0  0  0
  8 14  1  0  0  0  0
  9 13  1  0  0  0  0
 10 20  1  6  0  0  0
 10  9  1  0  0  0  0
 13 12  2  0  0  0  0
 13 17  1  0  0  0  0
 14 11  1  0  0  0  0
 15 11  1  6  0  0  0
 15  5  1  0  0  0  0
 16 10  1  0  0  0  0
 17  6  2  0  0  0  0
 18 16  1  6  0  0  0
 18  7  1  0  0  0  0
 19 20  2  0  0  0  0
 21 19  2  0  0  0  0
 22 24  2  0  0  0  0
 23 25  1  0  0  0  0
 24 21  1  0  0  0  0
 25 24  1  0  0  0  0
 26 21  1  0  0  0  0
 27 26  1  0  0  0  0
 28  8  1  0  0  0  0
 29 28  1  0  0  0  0
 31 30  1  6  0  0  0
 31 29  1  0  0  0  0
 32 33  1  1  0  0  0
 32 31  1  0  0  0  0
 34 35  2  0  0  0  0
 35 36  1  0  0  0  0
 35 32  1  0  0  0  0
M  END
>  <MODEL>
3

>  <REMARK>
 VINA RESULT:      -9.3      2.197      7.125
  Name = 
  8 active torsions:
  status: ('A' for Active; 'I' for Inactive)
    1  A    between atoms: C_6  and  C_12
    2  A    between atoms: C_12  and  C_34
    3  A    between atoms: C_13  and  N_15
    4  A    between atoms: C_13  and  C_20
    5  A    between atoms: C_17  and  C_24
    6  A    between atoms: N_19  and  C_26
    7  A    between atoms: C_20  and  C_34
    8  A    between atoms: C_22  and  C_26
                            x       y       z     vdW  Elec       q    Type
                         _______ _______ _______ _____ _____    ______ ____

>  <TORSDO>
F 8

$$$$
=
 OpenBabel10232411243D

 36 39  0  0  1  0  0  0  0  0999 V2000
  184.5690  178.6610  143.0600 C   0  0  0  0  0  3  0  0  0  0  0  0
  188.7060  177.4370  140.2070 N   0  0  0  0  0  0  0  0  0  0  0  0
  184.2480  178.9230  144.3230 C   0  0  0  0  0  3  0  0  0  0  0  0
  185.4090  178.7170  146.6430 C   0  0  0  0  0  1  0  0  0  0  0  0
  185.8830  177.9420  142.9920 C   0  0  1  0  0  3  0  0  0  0  0  0
  185.3230  178.4480  145.1800 C   0  0  0  0  0  0  0  0  0  0  0  0
  188.3620  178.1580  142.4530 C   0  0  2  0  0  3  0  0  0  0  0  0
  187.7820  178.6670  138.4000 N   0  0  0  0  0  2  0  0  0  0  0  0
  188.6620  177.6680  143.7890 N   0  0  0  0  0  0  0  0  0  0  0  0
  189.7090  176.6550  143.6830 C   0  0  1  0  0  3  0  0  0  0  0  0
  186.6130  178.6670  140.6580 C   0  0  0  0  0  2  0  0  0  0  0  0
  187.9590  177.2970  145.9930 O   0  0  0  0  0  0  0  0  0  0  0  0
  187.6590  177.6140  144.8110 C   0  0  0  0  0  0  0  0  0  0  0  0
  187.7630  178.2230  139.7570 C   0  0  0  0  0  0  0  0  0  0  0  0
  186.9410  178.6980  142.1790 C   0  0  1  0  0  3  0  0  0  0  0  0
  189.9070  176.4180  142.1720 C   0  0  0  0  0  2  0  0  0  0  0  0
  186.2790  177.9310  144.4250 C   0  0  0  0  0  0  0  0  0  0  0  0
  188.6310  176.9780  141.5820 C   0  0  2  0  0  3  0  0  0  0  0  0
  191.5110  176.5150  145.3110 C   0  0  0  0  0  0  0  0  0  0  0  0
  190.9670  177.1530  144.3110 C   0  0  0  0  0  3  0  0  0  0  0  0
  192.0550  175.8730  146.3140 C   0  0  0  0  0  0  0  0  0  0  0  0
  191.1080  177.1790  148.0600 O   0  0  0  0  0  0  0  0  0  0  0  0
  193.2690  176.8050  149.8560 C   0  0  0  0  0  1  0  0  0  0  0  0
  192.0740  176.4700  147.6610 C   0  0  0  0  0  0  0  0  0  0  0  0
  193.1950  176.2420  148.5180 N   0  0  0  0  0  2  0  0  0  0  0  0
  192.6320  174.5810  146.1100 N   0  0  0  0  0  2  0  0  0  0  0  0
  192.6490  173.9920  144.8900 O   0  0  0  0  0  1  0  0  0  0  0  0
  188.8350  178.2890  137.4700 C   0  0  0  0  0  2  0  0  0  0  0  0
  188.3090  177.2770  136.4650 C   0  0  0  0  0  2  0  0  0  0  0  0
  187.0650  175.2990  136.9470 O   0  0  0  0  0  1  0  0  0  0  0  0
  188.3400  175.8660  137.0400 C   0  0  1  0  0  3  0  0  0  0  0  0
  189.3460  175.0080  136.2770 C   0  0  1  0  0  3  0  0  0  0  0  0
  189.8990  175.7350  135.2210 O   0  0  0  0  0  1  0  0  0  0  0  0
  191.1260  173.5330  136.8630 O   0  0  0  0  0  0  0  0  0  0  0  0
  190.4420  174.5410  137.1790 C   0  0  0  0  0  0  0  0  0  0  0  0
  190.7060  175.2080  138.3700 O   0  0  0  0  0  1  0  0  0  0  0  0
  1  3  2  0  0  0  0
  2 18  1  0  0  0  0
  3  6  1  0  0  0  0
  5  1  1  1  0  0  0
  5 17  1  0  0  0  0
  6  4  1  0  0  0  0
  7  9  1  1  0  0  0
  8 14  1  0  0  0  0
  9 13  1  0  0  0  0
 10  9  1  0  0  0  0
 10 20  1  6  0  0  0
 13 12  2  0  0  0  0
 14  2  2  0  0  0  0
 14 11  1  0  0  0  0
 15 11  1  6  0  0  0
 15  7  1  0  0  0  0
 15  5  1  0  0  0  0
 16 10  1  0  0  0  0
 17 13  1  0  0  0  0
 17  6  2  0  0  0  0
 18 16  1  1  0  0  0
 18  7  1  0  0  0  0
 19 21  2  0  0  0  0
 20 19  2  0  0  0  0
 21 24  1  0  0  0  0
 24 22  2  0  0  0  0
 24 25  1  0  0  0  0
 25 23  1  0  0  0  0
 26 21  1  0  0  0  0
 27 26  1  0  0  0  0
 28  8  1  0  0  0  0
 29 31  1  0  0  0  0
 29 28  1  0  0  0  0
 31 30  1  6  0  0  0
 32 33  1  6  0  0  0
 32 31  1  0  0  0  0
 32 35  1  0  0  0  0
 34 35  2  0  0  0  0
 35 36  1  0  0  0  0
M  END
>  <MODEL>
4

>  <REMARK>
 VINA RESULT:      -9.0      3.017      6.771
  Name = 
  8 active torsions:
  status: ('A' for Active; 'I' for Inactive)
    1  A    between atoms: C_6  and  C_12
    2  A    between atoms: C_12  and  C_34
    3  A    between atoms: C_13  and  N_15
    4  A    between atoms: C_13  and  C_20
    5  A    between atoms: C_17  and  C_24
    6  A    between atoms: N_19  and  C_26
    7  A    between atoms: C_20  and  C_34
    8  A    between atoms: C_22  and  C_26
                            x       y       z     vdW  Elec       q    Type
                         _______ _______ _______ _____ _____    ______ ____

>  <TORSDO>
F 8

$$$$
=
 OpenBabel10232411243D

 36 39  0  0  1  0  0  0  0  0999 V2000
  187.9110  177.9110  148.2300 C   0  0  0  0  0  3  0  0  0  0  0  0
  186.5050  177.2940  143.2920 N   0  0  0  0  0  0  0  0  0  0  0  0
  189.0130  178.0280  148.9660 C   0  0  0  0  0  3  0  0  0  0  0  0
  191.5680  177.7010  148.5950 C   0  0  0  0  0  1  0  0  0  0  0  0
  188.2340  177.3090  146.8960 C   0  0  1  0  0  3  0  0  0  0  0  0
  190.1440  177.5630  148.1780 C   0  0  0  0  0  0  0  0  0  0  0  0
  188.5540  177.7720  144.4120 C   0  0  2  0  0  3  0  0  0  0  0  0
  184.5750  178.6080  143.7130 N   0  0  0  0  0  2  0  0  0  0  0  0
  189.8810  177.1860  144.5070 N   0  0  0  0  0  0  0  0  0  0  0  0
  190.0610  176.2740  143.3800 C   0  0  1  0  0  3  0  0  0  0  0  0
  186.3190  178.3040  145.5370 C   0  0  0  0  0  2  0  0  0  0  0  0
  191.7050  176.5560  145.8360 O   0  0  0  0  0  0  0  0  0  0  0  0
  190.5110  176.9560  145.7730 C   0  0  0  0  0  0  0  0  0  0  0  0
  185.8200  178.0400  144.1180 C   0  0  0  0  0  0  0  0  0  0  0  0
  187.8620  178.2190  145.7190 C   0  0  1  0  0  3  0  0  0  0  0  0
  188.6880  176.1950  142.6840 C   0  0  0  0  0  2  0  0  0  0  0  0
  189.7140  177.1960  146.9820 C   0  0  0  0  0  0  0  0  0  0  0  0
  187.7480  176.7030  143.7550 C   0  0  2  0  0  3  0  0  0  0  0  0
  190.8420  176.9560  141.1800 C   0  0  0  0  0  0  0  0  0  0  0  0
  191.0980  176.8100  142.4500 C   0  0  0  0  0  3  0  0  0  0  0  0
  190.5830  177.1030  139.9040 C   0  0  0  0  0  0  0  0  0  0  0  0
  190.6450  175.2750  138.3850 O   0  0  0  0  0  0  0  0  0  0  0  0
  193.3110  175.7390  137.5410 C   0  0  0  0  0  1  0  0  0  0  0  0
  191.2530  176.2530  138.9040 C   0  0  0  0  0  0  0  0  0  0  0  0
  192.5990  176.5410  138.5210 N   0  0  0  0  0  2  0  0  0  0  0  0
  189.6420  178.0880  139.4720 N   0  0  0  0  0  2  0  0  0  0  0  0
  188.3070  177.8550  139.4890 O   0  0  0  0  0  1  0  0  0  0  0  0
  184.0200  178.4040  142.3830 C   0  0  0  0  0  2  0  0  0  0  0  0
  182.5850  178.9010  142.3310 C   0  0  0  0  0  2  0  0  0  0  0  0
  181.1360  179.5590  140.5520 O   0  0  0  0  0  1  0  0  0  0  0  0
  181.9100  178.4960  141.0250 C   0  0  1  0  0  3  0  0  0  0  0  0
  182.9620  178.1160  139.9850 C   0  0  1  0  0  3  0  0  0  0  0  0
  182.5940  176.9360  139.3340 O   0  0  0  0  0  1  0  0  0  0  0  0
  182.4960  179.1480  137.8870 O   0  0  0  0  0  0  0  0  0  0  0  0
  183.1290  179.2030  138.9730 C   0  0  0  0  0  0  0  0  0  0  0  0
  183.9850  180.2690  139.2200 O   0  0  0  0  0  1  0  0  0  0  0  0
  1  3  2  0  0  0  0
  2 18  1  0  0  0  0
  2 14  2  0  0  0  0
  5 17  1  0  0  0  0
  5  1  1  1  0  0  0
  6  4  1  0  0  0  0
  6  3  1  0  0  0  0
  7  9  1  1  0  0  0
  7 15  1  0  0  0  0
  8 14  1  0  0  0  0
  9 13  1  0  0  0  0
 10 20  1  6  0  0  0
 10  9  1  0  0  0  0
 13 12  2  0  0  0  0
 13 17  1  0  0  0  0
 14 11  1  0  0  0  0
 15 11  1  6  0  0  0
 15  5  1  0  0  0  0
 16 10  1  0  0  0  0
 17  6  2  0  0  0  0
 18 16  1  6  0  0  0
 18  7  1  0  0  0  0
 19 20  2  0  0  0  0
 21 19  2  0  0  0  0
 22 24  2  0  0  0  0
 23 25  1  0  0  0  0
 24 21  1  0  0  0  0
 25 24  1  0  0  0  0
 26 27  1  0  0  0  0
 26 21  1  0  0  0  0
 28  8  1  0  0  0  0
 29 28  1  0  0  0  0
 31 30  1  6  0  0  0
 31 29  1  0  0  0  0
 32 33  1  6  0  0  0
 32 31  1  0  0  0  0
 34 35  2  0  0  0  0
 35 36  1  0  0  0  0
 35 32  1  0  0  0  0
M  END
>  <MODEL>
5

>  <REMARK>
 VINA RESULT:      -8.7      2.218      7.898
  Name = 
  8 active torsions:
  status: ('A' for Active; 'I' for Inactive)
    1  A    between atoms: C_6  and  C_12
    2  A    between atoms: C_12  and  C_34
    3  A    between atoms: C_13  and  N_15
    4  A    between atoms: C_13  and  C_20
    5  A    between atoms: C_17  and  C_24
    6  A    between atoms: N_19  and  C_26
    7  A    between atoms: C_20  and  C_34
    8  A    between atoms: C_22  and  C_26
                            x       y       z     vdW  Elec       q    Type
                         _______ _______ _______ _____ _____    ______ ____

>  <TORSDO>
F 8

$$$$
=
 OpenBabel10232411243D

 36 39  0  0  1  0  0  0  0  0999 V2000
  184.5940  178.6880  143.0260 C   0  0  0  0  0  3  0  0  0  0  0  0
  188.7800  177.5300  140.2180 N   0  0  0  0  0  0  0  0  0  0  0  0
  184.2530  178.9320  144.2870 C   0  0  0  0  0  3  0  0  0  0  0  0
  185.3830  178.7060  146.6210 C   0  0  0  0  0  1  0  0  0  0  0  0
  185.9140  177.9800  142.9670 C   0  0  1  0  0  3  0  0  0  0  0  0
  185.3200  178.4540  145.1530 C   0  0  0  0  0  0  0  0  0  0  0  0
  188.3990  178.2200  142.4670 C   0  0  2  0  0  3  0  0  0  0  0  0
  187.8720  178.7760  138.4130 N   0  0  0  0  0  2  0  0  0  0  0  0
  188.6840  177.7160  143.8010 N   0  0  0  0  0  0  0  0  0  0  0  0
  189.7390  176.7120  143.6970 C   0  0  1  0  0  3  0  0  0  0  0  0
  186.6710  178.7390  140.6540 C   0  0  0  0  0  2  0  0  0  0  0  0
  187.9520  177.3130  145.9900 O   0  0  0  0  0  0  0  0  0  0  0  0
  187.6660  177.6410  144.8080 C   0  0  0  0  0  0  0  0  0  0  0  0
  187.8380  178.3150  139.7640 C   0  0  0  0  0  0  0  0  0  0  0  0
  186.9780  178.7530  142.1790 C   0  0  1  0  0  3  0  0  0  0  0  0
  189.9600  176.4950  142.1870 C   0  0  0  0  0  2  0  0  0  0  0  0
  186.2900  177.9530  144.4060 C   0  0  0  0  0  0  0  0  0  0  0  0
  188.6890  177.0530  141.5850 C   0  0  2  0  0  3  0  0  0  0  0  0
  191.4900  176.5940  145.3820 C   0  0  0  0  0  0  0  0  0  0  0  0
  190.9850  177.2110  144.3500 C   0  0  0  0  0  3  0  0  0  0  0  0
  191.9960  175.9730  146.4180 C   0  0  0  0  0  0  0  0  0  0  0  0
  190.9870  177.2880  148.1220 O   0  0  0  0  0  0  0  0  0  0  0  0
  193.1480  177.0450  149.9400 C   0  0  0  0  0  1  0  0  0  0  0  0
  191.9820  176.6070  147.7480 C   0  0  0  0  0  0  0  0  0  0  0  0
  193.1050  176.4450  148.6180 N   0  0  0  0  0  2  0  0  0  0  0  0
  192.5620  174.6690  146.2660 N   0  0  0  0  0  2  0  0  0  0  0  0
  192.5130  174.0030  145.0870 O   0  0  0  0  0  1  0  0  0  0  0  0
  188.9410  178.4170  137.4930 C   0  0  0  0  0  2  0  0  0  0  0  0
  188.4310  177.4310  136.4550 C   0  0  0  0  0  2  0  0  0  0  0  0
  187.1290  178.3870  134.6990 O   0  0  0  0  0  1  0  0  0  0  0  0
  187.0380  177.8160  135.9710 C   0  0  1  0  0  3  0  0  0  0  0  0
  186.1380  176.5830  135.9230 C   0  0  1  0  0  3  0  0  0  0  0  0
  186.7810  175.4920  136.5110 O   0  0  0  0  0  1  0  0  0  0  0  0
  184.8540  177.4150  137.7510 O   0  0  0  0  0  1  0  0  0  0  0  0
  184.8490  176.8350  136.6340 C   0  0  0  0  0  0  0  0  0  0  0  0
  183.6440  176.4260  136.0750 O   0  0  0  0  0  0  0  0  0  0  0  0
  1  3  2  0  0  0  0
  2 18  1  0  0  0  0
  3  6  1  0  0  0  0
  5  1  1  1  0  0  0
  5 17  1  0  0  0  0
  6  4  1  0  0  0  0
  7  9  1  1  0  0  0
  8 14  1  0  0  0  0
  9 13  1  0  0  0  0
 10  9  1  0  0  0  0
 10 20  1  6  0  0  0
 13 12  2  0  0  0  0
 14  2  2  0  0  0  0
 14 11  1  0  0  0  0
 15 11  1  6  0  0  0
 15  7  1  0  0  0  0
 15  5  1  0  0  0  0
 16 10  1  0  0  0  0
 17 13  1  0  0  0  0
 17  6  2  0  0  0  0
 18 16  1  1  0  0  0
 18  7  1  0  0  0  0
 19 21  2  0  0  0  0
 20 19  2  0  0  0  0
 21 24  1  0  0  0  0
 24 22  2  0  0  0  0
 24 25  1  0  0  0  0
 25 23  1  0  0  0  0
 26 21  1  0  0  0  0
 27 26  1  0  0  0  0
 28  8  1  0  0  0  0
 29 28  1  0  0  0  0
 31 30  1  6  0  0  0
 31 29  1  0  0  0  0
 32 31  1  0  0  0  0
 32 33  1  1  0  0  0
 32 35  1  0  0  0  0
 35 34  1  0  0  0  0
 36 35  2  0  0  0  0
M  END
>  <MODEL>
6

>  <REMARK>
 VINA RESULT:      -8.6      3.633      7.578
  Name = 
  8 active torsions:
  status: ('A' for Active; 'I' for Inactive)
    1  A    between atoms: C_6  and  C_12
    2  A    between atoms: C_12  and  C_34
    3  A    between atoms: C_13  and  N_15
    4  A    between atoms: C_13  and  C_20
    5  A    between atoms: C_17  and  C_24
    6  A    between atoms: N_19  and  C_26
    7  A    between atoms: C_20  and  C_34
    8  A    between atoms: C_22  and  C_26
                            x       y       z     vdW  Elec       q    Type
                         _______ _______ _______ _____ _____    ______ ____

>  <TORSDO>
F 8

$$$$
=
 OpenBabel10232411243D

 36 39  0  0  1  0  0  0  0  0999 V2000
  190.1830  177.1270  138.0030 C   0  0  0  0  0  3  0  0  0  0  0  0
  189.4010  177.6490  143.0890 N   0  0  0  0  0  0  0  0  0  0  0  0
  189.5840  177.4070  136.8490 C   0  0  0  0  0  3  0  0  0  0  0  0
  187.2240  178.2040  136.0970 C   0  0  0  0  0  1  0  0  0  0  0  0
  189.1920  177.1540  139.1280 C   0  0  1  0  0  3  0  0  0  0  0  0
  188.1810  177.6820  137.1140 C   0  0  0  0  0  0  0  0  0  0  0  0
  188.3300  178.4750  141.1260 C   0  0  2  0  0  3  0  0  0  0  0  0
  191.7390  177.9290  143.3850 N   0  0  0  0  0  2  0  0  0  0  0  0
  187.0000  178.4350  140.5380 N   0  0  0  0  0  0  0  0  0  0  0  0
  186.0470  178.0730  141.5840 C   0  0  1  0  0  3  0  0  0  0  0  0
  190.7760  177.7350  141.0400 C   0  0  0  0  0  2  0  0  0  0  0  0
  185.6540  178.1470  138.6420 O   0  0  0  0  0  0  0  0  0  0  0  0
  186.7960  178.0660  139.1690 C   0  0  0  0  0  0  0  0  0  0  0  0
  190.5880  177.7740  142.5550 C   0  0  0  0  0  0  0  0  0  0  0  0
  189.5390  178.1830  140.2100 C   0  0  1  0  0  3  0  0  0  0  0  0
  186.8980  177.7110  142.8170 C   0  0  0  0  0  2  0  0  0  0  0  0
  187.9600  177.5860  138.4140 C   0  0  0  0  0  0  0  0  0  0  0  0
  188.2610  177.4550  142.2120 C   0  0  2  0  0  3  0  0  0  0  0  0
  184.2390  179.1450  142.8090 C   0  0  0  0  0  0  0  0  0  0  0  0
  185.1490  179.2280  141.8780 C   0  0  0  0  0  3  0  0  0  0  0  0
  183.3250  179.0590  143.7440 C   0  0  0  0  0  0  0  0  0  0  0  0
  181.0200  178.8200  144.2730 O   0  0  0  0  0  0  0  0  0  0  0  0
  180.1040  179.3040  141.6350 C   0  0  0  0  0  1  0  0  0  0  0  0
  181.8950  179.0490  143.3910 C   0  0  0  0  0  0  0  0  0  0  0  0
  181.4990  179.3000  142.0410 N   0  0  0  0  0  2  0  0  0  0  0  0
  183.7120  178.9690  145.1180 N   0  0  0  0  0  2  0  0  0  0  0  0
  185.0060  179.0800  145.5030 O   0  0  0  0  0  1  0  0  0  0  0  0
  191.6540  177.9690  144.8370 C   0  0  0  0  0  2  0  0  0  0  0  0
  191.5430  176.5610  145.3970 C   0  0  0  0  0  2  0  0  0  0  0  0
  191.6920  177.0270  147.7320 O   0  0  0  0  0  1  0  0  0  0  0  0
  190.8250  176.5590  146.7410 C   0  0  1  0  0  3  0  0  0  0  0  0
  189.5830  177.4460  146.6760 C   0  0  1  0  0  3  0  0  0  0  0  0
  188.6200  176.8690  145.8450 O   0  0  0  0  0  1  0  0  0  0  0  0
  189.2820  178.6880  148.6880 O   0  0  0  0  0  1  0  0  0  0  0  0
  189.0010  177.6490  148.0370 C   0  0  0  0  0  0  0  0  0  0  0  0
  188.1570  176.6940  148.5910 O   0  0  0  0  0  0  0  0  0  0  0  0
  3  6  1  0  0  0  0
  3  1  2  0  0  0  0
  4  6  1  0  0  0  0
  5  1  1  6  0  0  0
  5 15  1  0  0  0  0
  6 17  2  0  0  0  0
  7  9  1  6  0  0  0
  7 18  1  0  0  0  0
  8 28  1  0  0  0  0
  9 10  1  0  0  0  0
 10 20  1  1  0  0  0
 10 16  1  0  0  0  0
 11 14  1  0  0  0  0
 12 13  2  0  0  0  0
 13  9  1  0  0  0  0
 14  2  2  0  0  0  0
 14  8  1  0  0  0  0
 15 11  1  1  0  0  0
 15  7  1  0  0  0  0
 17  5  1  0  0  0  0
 17 13  1  0  0  0  0
 18 16  1  1  0  0  0
 18  2  1  0  0  0  0
 19 21  2  0  0  0  0
 20 19  2  0  0  0  0
 21 26  1  0  0  0  0
 23 25  1  0  0  0  0
 24 21  1  0  0  0  0
 24 22  2  0  0  0  0
 25 24  1  0  0  0  0
 26 27  1  0  0  0  0
 28 29  1  0  0  0  0
 29 31  1  0  0  0  0
 31 30  1  1  0  0  0
 32 33  1  6  0  0  0
 32 31  1  0  0  0  0
 32 35  1  0  0  0  0
 35 36  2  0  0  0  0
 35 34  1  0  0  0  0
M  END
>  <MODEL>
7

>  <REMARK>
 VINA RESULT:      -8.4      3.661      6.918
  Name = 
  8 active torsions:
  status: ('A' for Active; 'I' for Inactive)
    1  A    between atoms: C_6  and  C_12
    2  A    between atoms: C_12  and  C_34
    3  A    between atoms: C_13  and  N_15
    4  A    between atoms: C_13  and  C_20
    5  A    between atoms: C_17  and  C_24
    6  A    between atoms: N_19  and  C_26
    7  A    between atoms: C_20  and  C_34
    8  A    between atoms: C_22  and  C_26
                            x       y       z     vdW  Elec       q    Type
                         _______ _______ _______ _____ _____    ______ ____

>  <TORSDO>
F 8

$$$$
=
 OpenBabel10232411243D

 36 39  0  0  1  0  0  0  0  0999 V2000
  190.8740  177.4420  144.9590 C   0  0  0  0  0  3  0  0  0  0  0  0
  188.4350  178.1170  140.4490 N   0  0  0  0  0  0  0  0  0  0  0  0
  190.5980  177.2080  146.2390 C   0  0  0  0  0  3  0  0  0  0  0  0
  188.4700  177.2130  147.7370 C   0  0  0  0  0  1  0  0  0  0  0  0
  189.6640  177.9700  144.2500 C   0  0  1  0  0  3  0  0  0  0  0  0
  189.1950  177.5140  146.4700 C   0  0  0  0  0  0  0  0  0  0  0  0
  187.7780  177.4170  142.6310 C   0  0  2  0  0  3  0  0  0  0  0  0
  190.2500  177.0570  139.3480 N   0  0  0  0  0  2  0  0  0  0  0  0
  186.8260  177.8390  143.6460 N   0  0  0  0  0  0  0  0  0  0  0  0
  185.8290  178.6970  143.0110 C   0  0  1  0  0  3  0  0  0  0  0  0
  190.2140  177.1860  141.8860 C   0  0  0  0  0  2  0  0  0  0  0  0
  186.3590  178.2700  145.9010 O   0  0  0  0  0  0  0  0  0  0  0  0
  187.2170  178.0180  145.0130 C   0  0  0  0  0  0  0  0  0  0  0  0
  189.5730  177.4780  140.5310 C   0  0  0  0  0  0  0  0  0  0  0  0
  189.2190  177.0860  143.0790 C   0  0  1  0  0  3  0  0  0  0  0  0
  186.3320  178.9270  141.5730 C   0  0  0  0  0  2  0  0  0  0  0  0
  188.6450  177.9040  145.3310 C   0  0  0  0  0  0  0  0  0  0  0  0
  187.7960  178.5610  141.6750 C   0  0  2  0  0  3  0  0  0  0  0  0
  183.6540  178.2130  142.0330 C   0  0  0  0  0  0  0  0  0  0  0  0
  184.5000  178.0170  143.0070 C   0  0  0  0  0  3  0  0  0  0  0  0
  182.8070  178.4110  141.0550 C   0  0  0  0  0  0  0  0  0  0  0  0
  180.7730  179.4070  140.3320 O   0  0  0  0  0  0  0  0  0  0  0  0
  179.9920  180.2860  142.9110 C   0  0  0  0  0  1  0  0  0  0  0  0
  181.5510  179.1450  141.2910 C   0  0  0  0  0  0  0  0  0  0  0  0
  181.2160  179.5600  142.6170 N   0  0  0  0  0  2  0  0  0  0  0  0
  183.0970  177.9190  139.7440 N   0  0  0  0  0  2  0  0  0  0  0  0
  183.9530  178.5620  138.9140 O   0  0  0  0  0  1  0  0  0  0  0  0
  189.7170  177.2980  138.0150 C   0  0  0  0  0  2  0  0  0  0  0  0
  188.8720  176.1170  137.5660 C   0  0  0  0  0  2  0  0  0  0  0  0
  190.2460  176.5080  135.6550 O   0  0  0  0  0  1  0  0  0  0  0  0
  189.3110  175.6190  136.1940 C   0  0  1  0  0  3  0  0  0  0  0  0
  189.9260  174.2260  136.3100 C   0  0  1  0  0  3  0  0  0  0  0  0
  190.1400  173.9030  137.6520 O   0  0  0  0  0  1  0  0  0  0  0  0
  189.4770  172.0380  135.4780 O   0  0  0  0  0  1  0  0  0  0  0  0
  189.0360  173.1970  135.6930 C   0  0  0  0  0  0  0  0  0  0  0  0
  187.7280  173.5130  135.3470 O   0  0  0  0  0  0  0  0  0  0  0  0
  1  3  2  0  0  0  0
  2 14  2  0  0  0  0
  2 18  1  0  0  0  0
  3  6  1  0  0  0  0
  5  1  1  1  0  0  0
  5 17  1  0  0  0  0
  6  4  1  0  0  0  0
  7 15  1  0  0  0  0
  7  9  1  1  0  0  0
  8 14  1  0  0  0  0
  9 13  1  0  0  0  0
 10 20  1  6  0  0  0
 10  9  1  0  0  0  0
 13 17  1  0  0  0  0
 13 12  2  0  0  0  0
 14 11  1  0  0  0  0
 15 11  1  6  0  0  0
 15  5  1  0  0  0  0
 16 10  1  0  0  0  0
 17  6  2  0  0  0  0
 18 16  1  6  0  0  0
 18  7  1  0  0  0  0
 19 20  2  0  0  0  0
 21 24  1  0  0  0  0
 21 19  2  0  0  0  0
 22 24  2  0  0  0  0
 24 25  1  0  0  0  0
 25 23  1  0  0  0  0
 26 21  1  0  0  0  0
 27 26  1  0  0  0  0
 28  8  1  0  0  0  0
 29 28  1  0  0  0  0
 31 30  1  1  0  0  0
 31 32  1  0  0  0  0
 31 29  1  0  0  0  0
 32 33  1  1  0  0  0
 34 35  1  0  0  0  0
 35 32  1  0  0  0  0
 36 35  2  0  0  0  0
M  END
>  <MODEL>
8

>  <REMARK>
 VINA RESULT:      -8.4      1.943      2.512
  Name = 
  8 active torsions:
  status: ('A' for Active; 'I' for Inactive)
    1  A    between atoms: C_6  and  C_12
    2  A    between atoms: C_12  and  C_34
    3  A    between atoms: C_13  and  N_15
    4  A    between atoms: C_13  and  C_20
    5  A    between atoms: C_17  and  C_24
    6  A    between atoms: N_19  and  C_26
    7  A    between atoms: C_20  and  C_34
    8  A    between atoms: C_22  and  C_26
                            x       y       z     vdW  Elec       q    Type
                         _______ _______ _______ _____ _____    ______ ____

>  <TORSDO>
F 8

$$$$
=
 OpenBabel10232411243D

 36 39  0  0  1  0  0  0  0  0999 V2000
  183.7240  178.8210  144.8030 C   0  0  0  0  0  3  0  0  0  0  0  0
  188.8270  178.0260  145.0790 N   0  0  0  0  0  0  0  0  0  0  0  0
  182.7360  178.7840  143.9130 C   0  0  0  0  0  3  0  0  0  0  0  0
  182.5400  178.5940  141.3250 C   0  0  0  0  0  1  0  0  0  0  0  0
  185.0500  178.9090  144.1110 C   0  0  1  0  0  3  0  0  0  0  0  0
  183.3170  178.8000  142.5800 C   0  0  0  0  0  0  0  0  0  0  0  0
  187.1470  177.6350  143.4330 C   0  0  2  0  0  3  0  0  0  0  0  0
  188.5470  177.2160  147.2910 N   0  0  0  0  0  2  0  0  0  0  0  0
  186.8950  178.0180  142.0530 N   0  0  0  0  0  0  0  0  0  0  0  0
  188.1500  178.4850  141.4690 C   0  0  1  0  0  3  0  0  0  0  0  0
  186.5070  177.8260  145.9020 C   0  0  0  0  0  2  0  0  0  0  0  0
  185.3860  178.7630  140.4230 O   0  0  0  0  0  0  0  0  0  0  0  0
  185.6280  178.5450  141.6400 C   0  0  0  0  0  0  0  0  0  0  0  0
  188.0210  177.6930  146.0530 C   0  0  0  0  0  0  0  0  0  0  0  0
  185.9800  177.7360  144.4400 C   0  0  1  0  0  3  0  0  0  0  0  0
  189.1570  178.5390  142.6350 C   0  0  0  0  0  2  0  0  0  0  0  0
  184.6360  178.8240  142.6850 C   0  0  0  0  0  0  0  0  0  0  0  0
  188.2540  178.5430  143.8490 C   0  0  2  0  0  3  0  0  0  0  0  0
  188.2100  177.6620  139.1800 C   0  0  0  0  0  0  0  0  0  0  0  0
  188.6080  177.5320  140.4160 C   0  0  0  0  0  3  0  0  0  0  0  0
  187.8090  177.7950  137.9410 C   0  0  0  0  0  0  0  0  0  0  0  0
  185.6540  176.9720  137.3680 O   0  0  0  0  0  0  0  0  0  0  0  0
  186.6090  174.6220  136.1030 C   0  0  0  0  0  1  0  0  0  0  0  0
  186.9040  176.8010  137.3380 C   0  0  0  0  0  0  0  0  0  0  0  0
  187.4510  175.6370  136.7140 N   0  0  0  0  0  2  0  0  0  0  0  0
  188.2440  178.9130  137.1620 N   0  0  0  0  0  2  0  0  0  0  0  0
  188.9820  179.9130  137.7010 O   0  0  0  0  0  1  0  0  0  0  0  0
  189.9750  177.0640  147.5260 C   0  0  0  0  0  2  0  0  0  0  0  0
  190.5160  175.8900  146.7270 C   0  0  0  0  0  2  0  0  0  0  0  0
  192.7620  175.5070  147.4360 O   0  0  0  0  0  1  0  0  0  0  0  0
  191.9960  176.0750  146.4140 C   0  0  1  0  0  3  0  0  0  0  0  0
  192.3400  175.4160  145.0800 C   0  0  1  0  0  3  0  0  0  0  0  0
  192.0110  174.0590  145.1130 O   0  0  0  0  0  1  0  0  0  0  0  0
  190.7020  175.4430  143.3480 O   0  0  0  0  0  0  0  0  0  0  0  0
  191.6070  176.0720  143.9560 C   0  0  0  0  0  0  0  0  0  0  0  0
  191.9230  177.3700  143.5720 O   0  0  0  0  0  1  0  0  0  0  0  0
  2 14  2  0  0  0  0
  3  1  2  0  0  0  0
  4  6  1  0  0  0  0
  5 15  1  0  0  0  0
  5  1  1  1  0  0  0
  6 17  2  0  0  0  0
  6  3  1  0  0  0  0
  7  9  1  6  0  0  0
  7 18  1  0  0  0  0
  7 15  1  0  0  0  0
  8 28  1  0  0  0  0
 10 20  1  6  0  0  0
 10  9  1  0  0  0  0
 10 16  1  0  0  0  0
 11 14  1  0  0  0  0
 12 13  2  0  0  0  0
 13  9  1  0  0  0  0
 13 17  1  0  0  0  0
 14  8  1  0  0  0  0
 15 11  1  1  0  0  0
 17  5  1  0  0  0  0
 18 16  1  6  0  0  0
 18  2  1  0  0  0  0
 19 20  2  0  0  0  0
 21 19  2  0  0  0  0
 23 25  1  0  0  0  0
 24 22  2  0  0  0  0
 24 21  1  0  0  0  0
 25 24  1  0  0  0  0
 26 27  1  0  0  0  0
 26 21  1  0  0  0  0
 29 28  1  0  0  0  0
 31 29  1  0  0  0  0
 31 30  1  1  0  0  0
 32 33  1  1  0  0  0
 32 31  1  0  0  0  0
 34 35  2  0  0  0  0
 35 32  1  0  0  0  0
 36 35  1  0  0  0  0
M  END
>  <MODEL>
9

>  <REMARK>
 VINA RESULT:      -8.4      3.577      6.565
  Name = 
  8 active torsions:
  status: ('A' for Active; 'I' for Inactive)
    1  A    between atoms: C_6  and  C_12
    2  A    between atoms: C_12  and  C_34
    3  A    between atoms: C_13  and  N_15
    4  A    between atoms: C_13  and  C_20
    5  A    between atoms: C_17  and  C_24
    6  A    between atoms: N_19  and  C_26
    7  A    between atoms: C_20  and  C_34
    8  A    between atoms: C_22  and  C_26
                            x       y       z     vdW  Elec       q    Type
                         _______ _______ _______ _____ _____    ______ ____

>  <TORSDO>
F 8

$$$$
