=
 OpenBabel10232411423D

 52 54  0  0  1  0  0  0  0  0999 V2000
  186.6480  178.5050  139.6830 F   0  0  0  0  0  0  0  0  0  0  0  0
  189.8870  177.1600  140.7440 C   0  0  0  0  0  0  0  0  0  0  0  0
  190.4870  176.9180  139.4850 C   0  0  0  0  0  0  0  0  0  0  0  0
  188.5940  177.7010  140.7820 C   0  0  0  0  0  3  0  0  0  0  0  0
  189.7840  177.2140  138.3130 C   0  0  0  0  0  3  0  0  0  0  0  0
  187.8990  177.9890  139.6060 C   0  0  0  0  0  0  0  0  0  0  0  0
  188.4890  177.7450  138.3610 C   0  0  0  0  0  0  0  0  0  0  0  0
  187.7550  178.0500  137.1650 N   0  0  0  0  0  2  0  0  0  0  0  0
  187.0620  175.8830  136.5910 O   0  0  0  0  0  0  0  0  0  0  0  0
  186.3440  177.6000  135.1940 N   0  0  0  0  0  2  0  0  0  0  0  0
  187.0580  177.1150  136.3300 C   0  0  0  0  0  0  0  0  0  0  0  0
  185.5690  176.7080  134.3460 C   0  0  0  0  0  2  0  0  0  0  0  0
  182.3960  172.9600  135.6920 N   0  0  0  0  0  2  0  0  0  0  0  0
  182.0510  175.4550  135.4080 C   0  0  2  0  0  3  0  0  0  0  0  0
  180.3400  173.8220  135.0200 O   0  0  0  0  0  0  0  0  0  0  0  0
  184.3280  174.3770  135.6540 C   0  0  0  0  0  3  0  0  0  0  0  0
  183.4850  177.7760  134.7270 O   0  0  0  0  0  0  0  0  0  0  0  0
  184.6680  172.0550  136.3170 C   0  0  0  0  0  1  0  0  0  0  0  0
  184.1380  176.7010  134.7780 C   0  0  0  0  0  0  0  0  0  0  0  0
  183.7940  173.1810  135.8940 C   0  0  0  0  0  0  0  0  0  0  0  0
  181.5350  174.0460  135.3460 C   0  0  0  0  0  0  0  0  0  0  0  0
  183.5120  175.4920  135.2500 N   0  0  0  0  0  0  0  0  0  0  0  0
  180.6550  177.2170  136.4920 C   0  0  0  0  0  1  0  0  0  0  0  0
  181.6560  176.1020  136.7290 C   0  0  0  0  0  2  0  0  0  0  0  0
  190.6560  175.6620  142.4320 O   0  0  0  0  0  0  0  0  0  0  0  0
  190.5630  176.8510  142.0270 C   0  0  0  0  0  0  0  0  0  0  0  0
  191.2680  178.1550  143.0380 S   0  0  0  0  0  0  0  0  0  0  0  0
  190.6490  177.4220  144.5830 C   0  0  0  0  0  2  0  0  0  0  0  0
  189.0360  177.8490  146.4070 C   0  0  0  0  0  2  0  0  0  0  0  0
  188.2760  177.2690  144.2430 O   0  0  0  0  0  0  0  0  0  0  0  0
  187.5610  177.6180  146.5030 C   0  0  0  0  0  2  0  0  0  0  0  0
  187.1510  177.2510  145.0890 C   0  0  1  0  0  3  0  0  0  0  0  0
  189.2800  177.9770  144.9270 C   0  0  2  0  0  3  0  0  0  0  0  0
  186.0660  178.1850  144.5640 C   0  0  0  0  0  2  0  0  0  0  0  0
  185.6820  177.8230  143.2560 O   0  0  0  0  0  0  0  0  0  0  0  0
  184.4170  178.3850  142.9660 C   0  0  2  0  0  3  0  0  0  0  0  0
  184.3150  178.8300  141.5740 N   0  0  0  0  0  2  0  0  0  0  0  0
  183.6710  177.7700  140.8140 C   0  0  0  0  0  2  0  0  0  0  0  0
  181.2690  177.4890  140.2930 C   0  0  0  0  0  1  0  0  0  0  0  0
  182.4990  178.3380  140.0340 C   0  0  0  0  0  2  0  0  0  0  0  0
  184.0360  179.5030  143.9450 C   0  0  0  0  0  2  0  0  0  0  0  0
  182.7590  179.1590  144.6940 C   0  0  0  0  0  2  0  0  0  0  0  0
  181.6620  178.7700  143.7290 C   0  0  0  0  0  1  0  0  0  0  0  0
  191.8980  176.4370  139.3390 C   0  0  0  0  0  2  0  0  0  0  0  0
  192.2950  176.3300  137.8740 C   0  0  0  0  0  2  0  0  0  0  0  0
  193.7710  176.0030  137.7400 C   0  0  0  0  0  2  0  0  0  0  0  0
  193.9560  174.8100  136.8210 C   0  0  0  0  0  2  0  0  0  0  0  0
  193.7900  173.5740  137.5680 N   0  0  0  0  0  2  0  0  0  0  0  0
  196.4690  173.2080  136.7770 O   0  0  0  0  0  0  0  0  0  0  0  0
  195.3860  173.0510  138.0670 P   0  0  0  0  0  0  0  0  0  0  0  0
  195.3270  171.6060  138.4970 O   0  0  0  0  0  1  0  0  0  0  0  0
  195.9130  173.9970  139.3680 O   0  0  0  0  0  1  0  0  0  0  0  0
  2  4  1  0  0  0  0
  2 26  1  0  0  0  0
  3  2  2  0  0  0  0
  5  7  2  0  0  0  0
  5  3  1  0  0  0  0
  6  1  1  0  0  0  0
  6  4  2  0  0  0  0
  7  6  1  0  0  0  0
  8  7  1  0  0  0  0
 10 11  1  0  0  0  0
 11  9  2  0  0  0  0
 11  8  1  0  0  0  0
 12 19  1  0  0  0  0
 12 10  1  0  0  0  0
 13 20  1  0  0  0  0
 14 24  1  1  0  0  0
 15 21  2  0  0  0  0
 16 20  2  0  0  0  0
 17 19  2  0  0  0  0
 19 22  1  0  0  0  0
 20 18  1  0  0  0  0
 21 14  1  0  0  0  0
 21 13  1  0  0  0  0
 22 14  1  0  0  0  0
 22 16  1  0  0  0  0
 23 24  1  0  0  0  0
 26 25  2  0  0  0  0
 26 27  1  0  0  0  0
 27 28  1  0  0  0  0
 29 31  1  0  0  0  0
 30 33  1  0  0  0  0
 30 32  1  0  0  0  0
 32 34  1  6  0  0  0
 32 31  1  0  0  0  0
 33 28  1  1  0  0  0
 33 29  1  0  0  0  0
 35 34  1  0  0  0  0
 36 35  1  0  0  0  0
 36 41  1  1  0  0  0
 37 36  1  0  0  0  0
 38 37  1  0  0  0  0
 40 39  1  0  0  0  0
 40 38  1  0  0  0  0
 41 42  1  0  0  0  0
 43 42  1  0  0  0  0
 44  3  1  0  0  0  0
 45 44  1  0  0  0  0
 46 45  1  0  0  0  0
 47 48  1  0  0  0  0
 47 46  1  0  0  0  0
 48 50  1  0  0  0  0
 49 50  2  0  0  0  0
 50 51  1  0  0  0  0
 50 52  1  0  0  0  0
M  END
>  <MODEL>
1

>  <REMARK>
 VINA RESULT:      -6.4      0.000      0.000
  Name = 
  22 active torsions:
  status: ('A' for Active; 'I' for Inactive)
    1  A    between atoms: C_5  and  C_10
    2  A    between atoms: C_5  and  C_19
    3  A    between atoms: N_6  and  C_44
    4  A    between atoms: C_8  and  C_40
    5  A    between atoms: C_9  and  C_48
    6  A    between atoms: C_12  and  C_51
    7  A    between atoms: S_13  and  C_37
    8  A    between atoms: S_13  and  C_40
    9  A    between atoms: C_14  and  C_45
   10  A    between atoms: C_14  and  N_50
   11  A    between atoms: N_16  and  C_36
   12  A    between atoms: C_17  and  C_31
   13  A    between atoms: C_19  and  C_45
   14  A    between atoms: N_20  and  C_28
   15  A    between atoms: N_20  and  C_39
   16  A    between atoms: C_28  and  C_48
   17  A    between atoms: C_28  and  O_49
   18  A    between atoms: C_31  and  O_49
   19  A    between atoms: C_33  and  C_36
   20  A    between atoms: C_34  and  C_39
   21  A    between atoms: C_37  and  C_41
   22  A    between atoms: P_42  and  N_50
                            x       y       z     vdW  Elec       q    Type
                         _______ _______ _______ _____ _____    ______ ____

>  <TORSDO>
F 22

$$$$
=
 OpenBabel10232411423D

 52 54  0  0  1  0  0  0  0  0999 V2000
  186.9840  178.2740  139.5290 F   0  0  0  0  0  0  0  0  0  0  0  0
  190.4280  177.0860  139.9280 C   0  0  0  0  0  0  0  0  0  0  0  0
  190.5890  176.3640  138.7200 C   0  0  0  0  0  0  0  0  0  0  0  0
  189.2050  177.7240  140.1720 C   0  0  0  0  0  3  0  0  0  0  0  0
  189.5340  176.2970  137.8050 C   0  0  0  0  0  3  0  0  0  0  0  0
  188.1560  177.6480  139.2540 C   0  0  0  0  0  0  0  0  0  0  0  0
  188.3120  176.9310  138.0630 C   0  0  0  0  0  0  0  0  0  0  0  0
  187.2190  176.8660  137.1340 N   0  0  0  0  0  2  0  0  0  0  0  0
  187.1530  174.5450  136.7980 O   0  0  0  0  0  0  0  0  0  0  0  0
  185.5510  175.7980  135.6660 N   0  0  0  0  0  2  0  0  0  0  0  0
  186.6690  175.6800  136.5450 C   0  0  0  0  0  0  0  0  0  0  0  0
  184.9140  174.6260  135.0870 C   0  0  0  0  0  2  0  0  0  0  0  0
  180.8650  176.9540  137.1170 N   0  0  0  0  0  2  0  0  0  0  0  0
  181.7740  174.6010  137.3710 C   0  0  2  0  0  3  0  0  0  0  0  0
  180.5820  175.7610  139.0970 O   0  0  0  0  0  0  0  0  0  0  0  0
  182.4260  176.1560  135.4830 C   0  0  0  0  0  3  0  0  0  0  0  0
  183.8790  172.9800  136.4490 O   0  0  0  0  0  0  0  0  0  0  0  0
  181.2850  178.2550  134.9950 C   0  0  0  0  0  1  0  0  0  0  0  0
  183.8130  174.1460  135.9770 C   0  0  0  0  0  0  0  0  0  0  0  0
  181.5370  177.0720  135.8600 C   0  0  0  0  0  0  0  0  0  0  0  0
  181.0520  175.7930  137.9290 C   0  0  0  0  0  0  0  0  0  0  0  0
  182.6910  174.9940  136.2910 N   0  0  0  0  0  0  0  0  0  0  0  0
  180.7010  172.3880  137.7950 C   0  0  0  0  0  1  0  0  0  0  0  0
  180.7740  173.5750  136.8530 C   0  0  0  0  0  2  0  0  0  0  0  0
  192.5740  177.7800  140.7020 O   0  0  0  0  0  0  0  0  0  0  0  0
  191.4940  177.1810  140.9530 C   0  0  0  0  0  0  0  0  0  0  0  0
  191.2820  176.4500  142.5790 S   0  0  0  0  0  0  0  0  0  0  0  0
  191.2300  178.0700  143.4040 C   0  0  0  0  0  2  0  0  0  0  0  0
  189.9800  177.9800  145.5350 C   0  0  0  0  0  2  0  0  0  0  0  0
  188.9100  177.4510  143.4930 O   0  0  0  0  0  0  0  0  0  0  0  0
  188.6280  177.4360  145.8710 C   0  0  0  0  0  2  0  0  0  0  0  0
  188.0100  177.1190  144.5230 C   0  0  1  0  0  3  0  0  0  0  0  0
  189.8830  178.2900  144.0650 C   0  0  2  0  0  3  0  0  0  0  0  0
  186.6840  177.8470  144.3340 C   0  0  0  0  0  2  0  0  0  0  0  0
  186.3720  177.9760  142.9640 O   0  0  0  0  0  0  0  0  0  0  0  0
  184.9930  178.2550  142.8200 C   0  0  2  0  0  3  0  0  0  0  0  0
  184.7470  179.3800  141.9150 N   0  0  0  0  0  2  0  0  0  0  0  0
  184.4080  178.8340  140.6090 C   0  0  0  0  0  2  0  0  0  0  0  0
  181.9540  178.8630  140.2990 C   0  0  0  0  0  1  0  0  0  0  0  0
  183.1380  178.0090  140.7120 C   0  0  0  0  0  2  0  0  0  0  0  0
  184.2930  178.4540  144.1710 C   0  0  0  0  0  2  0  0  0  0  0  0
  183.1720  179.4740  144.0580 C   0  0  0  0  0  2  0  0  0  0  0  0
  181.8250  178.7860  144.0270 C   0  0  0  0  0  1  0  0  0  0  0  0
  191.8880  175.7320  138.3220 C   0  0  0  0  0  2  0  0  0  0  0  0
  192.4100  176.3200  137.0190 C   0  0  0  0  0  2  0  0  0  0  0  0
  193.9200  176.1930  136.9380 C   0  0  0  0  0  2  0  0  0  0  0  0
  194.3090  175.4240  135.6910 C   0  0  0  0  0  2  0  0  0  0  0  0
  195.0770  174.2430  136.0520 N   0  0  0  0  0  2  0  0  0  0  0  0
  196.9920  176.2760  135.6800 O   0  0  0  0  0  0  0  0  0  0  0  0
  196.7100  174.7740  136.4040 P   0  0  0  0  0  0  0  0  0  0  0  0
  197.6910  173.7640  135.8610 O   0  0  0  0  0  1  0  0  0  0  0  0
  196.9150  174.9040  138.0790 O   0  0  0  0  0  1  0  0  0  0  0  0
  2  4  1  0  0  0  0
  2 26  1  0  0  0  0
  3  2  2  0  0  0  0
  5  7  2  0  0  0  0
  5  3  1  0  0  0  0
  6  1  1  0  0  0  0
  6  4  2  0  0  0  0
  7  6  1  0  0  0  0
  8  7  1  0  0  0  0
 10 11  1  0  0  0  0
 11  9  2  0  0  0  0
 11  8  1  0  0  0  0
 12 10  1  0  0  0  0
 12 19  1  0  0  0  0
 13 21  1  0  0  0  0
 14 24  1  6  0  0  0
 14 21  1  0  0  0  0
 16 20  2  0  0  0  0
 16 22  1  0  0  0  0
 18 20  1  0  0  0  0
 19 22  1  0  0  0  0
 19 17  2  0  0  0  0
 20 13  1  0  0  0  0
 21 15  2  0  0  0  0
 22 14  1  0  0  0  0
 24 23  1  0  0  0  0
 25 26  2  0  0  0  0
 26 27  1  0  0  0  0
 27 28  1  0  0  0  0
 29 31  1  0  0  0  0
 30 33  1  0  0  0  0
 30 32  1  0  0  0  0
 32 34  1  6  0  0  0
 32 31  1  0  0  0  0
 33 28  1  6  0  0  0
 33 29  1  0  0  0  0
 35 34  1  0  0  0  0
 36 35  1  0  0  0  0
 36 41  1  1  0  0  0
 37 36  1  0  0  0  0
 38 40  1  0  0  0  0
 38 37  1  0  0  0  0
 39 40  1  0  0  0  0
 42 41  1  0  0  0  0
 43 42  1  0  0  0  0
 44  3  1  0  0  0  0
 45 44  1  0  0  0  0
 46 45  1  0  0  0  0
 47 48  1  0  0  0  0
 47 46  1  0  0  0  0
 48 50  1  0  0  0  0
 49 50  2  0  0  0  0
 50 52  1  0  0  0  0
 51 50  1  0  0  0  0
M  END
>  <MODEL>
2

>  <REMARK>
 VINA RESULT:      -6.1      1.706      2.423
  Name = 
  22 active torsions:
  status: ('A' for Active; 'I' for Inactive)
    1  A    between atoms: C_5  and  C_10
    2  A    between atoms: C_5  and  C_19
    3  A    between atoms: N_6  and  C_44
    4  A    between atoms: C_8  and  C_40
    5  A    between atoms: C_9  and  C_48
    6  A    between atoms: C_12  and  C_51
    7  A    between atoms: S_13  and  C_37
    8  A    between atoms: S_13  and  C_40
    9  A    between atoms: C_14  and  C_45
   10  A    between atoms: C_14  and  N_50
   11  A    between atoms: N_16  and  C_36
   12  A    between atoms: C_17  and  C_31
   13  A    between atoms: C_19  and  C_45
   14  A    between atoms: N_20  and  C_28
   15  A    between atoms: N_20  and  C_39
   16  A    between atoms: C_28  and  C_48
   17  A    between atoms: C_28  and  O_49
   18  A    between atoms: C_31  and  O_49
   19  A    between atoms: C_33  and  C_36
   20  A    between atoms: C_34  and  C_39
   21  A    between atoms: C_37  and  C_41
   22  A    between atoms: P_42  and  N_50
                            x       y       z     vdW  Elec       q    Type
                         _______ _______ _______ _____ _____    ______ ____

>  <TORSDO>
F 22

$$$$
=
 OpenBabel10232411423D

 52 54  0  0  1  0  0  0  0  0999 V2000
  189.9850  178.0270  141.1560 F   0  0  0  0  0  0  0  0  0  0  0  0
  186.4220  178.3690  140.3700 C   0  0  0  0  0  0  0  0  0  0  0  0
  186.4600  178.2500  138.9590 C   0  0  0  0  0  0  0  0  0  0  0  0
  187.6240  178.2850  141.0860 C   0  0  0  0  0  3  0  0  0  0  0  0
  187.6840  178.0580  138.3120 C   0  0  0  0  0  3  0  0  0  0  0  0
  188.8420  178.0970  140.4300 C   0  0  0  0  0  0  0  0  0  0  0  0
  188.8820  177.9840  139.0360 C   0  0  0  0  0  0  0  0  0  0  0  0
  190.1450  177.7920  138.3820 N   0  0  0  0  0  2  0  0  0  0  0  0
  190.4460  175.5060  138.8170 O   0  0  0  0  0  0  0  0  0  0  0  0
  192.1050  176.5450  137.5580 N   0  0  0  0  0  2  0  0  0  0  0  0
  190.8770  176.5620  138.2830 C   0  0  0  0  0  0  0  0  0  0  0  0
  192.8600  175.3150  137.3720 C   0  0  0  0  0  2  0  0  0  0  0  0
  197.3470  172.9130  137.5370 N   0  0  0  0  0  2  0  0  0  0  0  0
  196.6320  175.1050  136.4810 C   0  0  2  0  0  3  0  0  0  0  0  0
  198.8370  174.6890  137.3250 O   0  0  0  0  0  0  0  0  0  0  0  0
  195.0060  173.3030  137.2010 C   0  0  0  0  0  3  0  0  0  0  0  0
  194.3460  176.7090  136.1570 O   0  0  0  0  0  0  0  0  0  0  0  0
  195.6740  171.0490  137.8480 C   0  0  0  0  0  1  0  0  0  0  0  0
  194.1890  175.6150  136.7600 C   0  0  0  0  0  0  0  0  0  0  0  0
  195.9910  172.4580  137.4980 C   0  0  0  0  0  0  0  0  0  0  0  0
  197.6720  174.2470  137.1440 C   0  0  0  0  0  0  0  0  0  0  0  0
  195.2770  174.6730  136.8500 N   0  0  0  0  0  0  0  0  0  0  0  0
  197.2250  173.6680  134.5280 C   0  0  0  0  0  1  0  0  0  0  0  0
  196.7980  175.0560  134.9680 C   0  0  0  0  0  2  0  0  0  0  0  0
  184.0940  178.0350  140.7660 O   0  0  0  0  0  0  0  0  0  0  0  0
  185.1640  178.5950  141.1220 C   0  0  0  0  0  0  0  0  0  0  0  0
  185.1270  179.6710  142.5590 S   0  0  0  0  0  0  0  0  0  0  0  0
  184.1500  178.4890  143.5360 C   0  0  0  0  0  2  0  0  0  0  0  0
  184.3190  178.4130  146.0010 C   0  0  0  0  0  2  0  0  0  0  0  0
  186.2700  178.4710  144.6650 O   0  0  0  0  0  0  0  0  0  0  0  0
  185.4810  178.6020  146.9230 C   0  0  0  0  0  2  0  0  0  0  0  0
  186.6850  178.6310  146.0010 C   0  0  1  0  0  3  0  0  0  0  0  0
  184.9560  177.9710  144.7110 C   0  0  2  0  0  3  0  0  0  0  0  0
  187.7040  177.5620  146.3810 C   0  0  0  0  0  2  0  0  0  0  0  0
  188.4400  177.1460  145.2520 O   0  0  0  0  0  0  0  0  0  0  0  0
  189.7530  176.8030  145.6480 C   0  0  2  0  0  3  0  0  0  0  0  0
  189.8770  176.6720  147.1020 N   0  0  0  0  0  2  0  0  0  0  0  0
  191.2650  176.9320  147.4550 C   0  0  0  0  0  2  0  0  0  0  0  0
  193.1040  175.8160  148.6760 C   0  0  0  0  0  1  0  0  0  0  0  0
  191.9970  175.6170  147.6580 C   0  0  0  0  0  2  0  0  0  0  0  0
  190.8050  177.7620  145.0760 C   0  0  0  0  0  2  0  0  0  0  0  0
  191.3930  177.2180  143.7840 C   0  0  0  0  0  2  0  0  0  0  0  0
  191.6640  175.7350  143.9030 C   0  0  0  0  0  1  0  0  0  0  0  0
  185.2230  178.2270  138.1150 C   0  0  0  0  0  2  0  0  0  0  0  0
  185.1800  176.9870  137.2340 C   0  0  0  0  0  2  0  0  0  0  0  0
  184.3320  177.2330  136.0000 C   0  0  0  0  0  2  0  0  0  0  0  0
  183.1450  176.2890  135.9900 C   0  0  0  0  0  2  0  0  0  0  0  0
  182.1380  176.7430  136.9360 N   0  0  0  0  0  2  0  0  0  0  0  0
  181.9780  175.6580  139.5310 O   0  0  0  0  0  1  0  0  0  0  0  0
  181.6670  175.3550  137.8970 P   0  0  0  0  0  0  0  0  0  0  0  0
  182.4570  174.1480  137.4530 O   0  0  0  0  0  0  0  0  0  0  0  0
  180.0170  175.0490  137.6800 O   0  0  0  0  0  1  0  0  0  0  0  0
  2  4  1  0  0  0  0
  2 26  1  0  0  0  0
  3  2  2  0  0  0  0
  5  3  1  0  0  0  0
  5  7  2  0  0  0  0
  6  4  2  0  0  0  0
  6  1  1  0  0  0  0
  7  6  1  0  0  0  0
  8  7  1  0  0  0  0
 10 11  1  0  0  0  0
 11  8  1  0  0  0  0
 11  9  2  0  0  0  0
 12 10  1  0  0  0  0
 14 24  1  6  0  0  0
 14 22  1  0  0  0  0
 14 21  1  0  0  0  0
 16 20  2  0  0  0  0
 17 19  2  0  0  0  0
 19 22  1  0  0  0  0
 19 12  1  0  0  0  0
 20 13  1  0  0  0  0
 20 18  1  0  0  0  0
 21 15  2  0  0  0  0
 21 13  1  0  0  0  0
 22 16  1  0  0  0  0
 23 24  1  0  0  0  0
 25 26  2  0  0  0  0
 26 27  1  0  0  0  0
 27 28  1  0  0  0  0
 29 31  1  0  0  0  0
 30 33  1  0  0  0  0
 30 32  1  0  0  0  0
 32 34  1  1  0  0  0
 32 31  1  0  0  0  0
 33 28  1  6  0  0  0
 33 29  1  0  0  0  0
 35 36  1  0  0  0  0
 35 34  1  0  0  0  0
 36 41  1  1  0  0  0
 36 37  1  0  0  0  0
 37 38  1  0  0  0  0
 38 40  1  0  0  0  0
 40 39  1  0  0  0  0
 42 43  1  0  0  0  0
 42 41  1  0  0  0  0
 44  3  1  0  0  0  0
 45 44  1  0  0  0  0
 46 45  1  0  0  0  0
 47 46  1  0  0  0  0
 47 48  1  0  0  0  0
 48 50  1  0  0  0  0
 50 49  1  0  0  0  0
 51 50  2  0  0  0  0
 52 50  1  0  0  0  0
M  END
>  <MODEL>
3

>  <REMARK>
 VINA RESULT:      -6.1      3.494      9.713
  Name = 
  22 active torsions:
  status: ('A' for Active; 'I' for Inactive)
    1  A    between atoms: C_5  and  C_10
    2  A    between atoms: C_5  and  C_19
    3  A    between atoms: N_6  and  C_44
    4  A    between atoms: C_8  and  C_40
    5  A    between atoms: C_9  and  C_48
    6  A    between atoms: C_12  and  C_51
    7  A    between atoms: S_13  and  C_37
    8  A    between atoms: S_13  and  C_40
    9  A    between atoms: C_14  and  C_45
   10  A    between atoms: C_14  and  N_50
   11  A    between atoms: N_16  and  C_36
   12  A    between atoms: C_17  and  C_31
   13  A    between atoms: C_19  and  C_45
   14  A    between atoms: N_20  and  C_28
   15  A    between atoms: N_20  and  C_39
   16  A    between atoms: C_28  and  C_48
   17  A    between atoms: C_28  and  O_49
   18  A    between atoms: C_31  and  O_49
   19  A    between atoms: C_33  and  C_36
   20  A    between atoms: C_34  and  C_39
   21  A    between atoms: C_37  and  C_41
   22  A    between atoms: P_42  and  N_50
                            x       y       z     vdW  Elec       q    Type
                         _______ _______ _______ _____ _____    ______ ____

>  <TORSDO>
F 22

$$$$
=
 OpenBabel10232411423D

 52 54  0  0  1  0  0  0  0  0999 V2000
  182.2000  178.3890  143.8720 F   0  0  0  0  0  0  0  0  0  0  0  0
  181.8390  179.4550  140.3850 C   0  0  0  0  0  0  0  0  0  0  0  0
  183.1070  179.0870  139.8740 C   0  0  0  0  0  0  0  0  0  0  0  0
  181.5580  179.2040  141.7350 C   0  0  0  0  0  3  0  0  0  0  0  0
  184.0480  178.4890  140.7180 C   0  0  0  0  0  3  0  0  0  0  0  0
  182.5060  178.6100  142.5700 C   0  0  0  0  0  0  0  0  0  0  0  0
  183.7610  178.2500  142.0680 C   0  0  0  0  0  0  0  0  0  0  0  0
  184.7210  177.6420  142.9450 N   0  0  0  0  0  2  0  0  0  0  0  0
  185.2310  179.4990  144.2860 O   0  0  0  0  0  0  0  0  0  0  0  0
  186.3070  177.5070  144.8280 N   0  0  0  0  0  2  0  0  0  0  0  0
  185.4110  178.2790  144.0290 C   0  0  0  0  0  0  0  0  0  0  0  0
  186.9890  178.0840  145.9760 C   0  0  0  0  0  2  0  0  0  0  0  0
  190.5490  176.5990  142.6520 N   0  0  0  0  0  0  0  0  0  0  0  0
  190.3960  176.4030  145.1750 C   0  0  2  0  0  3  0  0  0  0  0  0
  191.5330  174.8170  143.7820 O   0  0  0  0  0  0  0  0  0  0  0  0
  188.9830  177.9970  143.8070 C   0  0  0  0  0  2  0  0  0  0  0  0
  188.6840  177.0820  147.3000 O   0  0  0  0  0  0  0  0  0  0  0  0
  189.3790  178.4870  141.4510 C   0  0  0  0  0  1  0  0  0  0  0  0
  188.3310  177.4500  146.1480 C   0  0  0  0  0  0  0  0  0  0  0  0
  189.6390  177.7020  142.6870 C   0  0  0  0  0  0  0  0  0  0  0  0
  190.8540  175.8760  143.8450 C   0  0  0  0  0  0  0  0  0  0  0  0
  189.2140  177.2630  145.0240 N   0  0  0  0  0  0  0  0  0  0  0  0
  191.9920  176.4530  147.0930 C   0  0  0  0  0  1  0  0  0  0  0  0
  191.5200  177.1800  145.8480 C   0  0  0  0  0  2  0  0  0  0  0  0
  180.2580  181.1830  139.9350 O   0  0  0  0  0  0  0  0  0  0  0  0
  180.8010  180.1120  139.5560 C   0  0  0  0  0  0  0  0  0  0  0  0
  180.2860  179.4050  137.9880 S   0  0  0  0  0  0  0  0  0  0  0  0
  180.0250  177.7560  138.7090 C   0  0  0  0  0  2  0  0  0  0  0  0
  180.2520  176.4510  136.6210 C   0  0  0  0  0  2  0  0  0  0  0  0
  180.8750  175.5090  138.7000 O   0  0  0  0  0  0  0  0  0  0  0  0
  180.5460  175.0050  136.3810 C   0  0  0  0  0  2  0  0  0  0  0  0
  180.9310  174.4730  137.7490 C   0  0  1  0  0  3  0  0  0  0  0  0
  180.8510  176.7150  137.9780 C   0  0  2  0  0  3  0  0  0  0  0  0
  182.3160  173.8350  137.7270 C   0  0  0  0  0  2  0  0  0  0  0  0
  182.7180  173.5520  136.4050 O   0  0  0  0  0  0  0  0  0  0  0  0
  183.7450  172.5800  136.4250 C   0  0  2  0  0  3  0  0  0  0  0  0
  183.2160  171.2140  136.4070 N   0  0  0  0  0  2  0  0  0  0  0  0
  182.9060  170.8740  135.0270 C   0  0  0  0  0  2  0  0  0  0  0  0
  183.8340  168.7990  136.0030 C   0  0  0  0  0  1  0  0  0  0  0  0
  183.1060  169.3850  134.8080 C   0  0  0  0  0  2  0  0  0  0  0  0
  184.7260  172.7900  137.5860 C   0  0  0  0  0  2  0  0  0  0  0  0
  186.1600  172.8410  137.0850 C   0  0  0  0  0  2  0  0  0  0  0  0
  186.2000  173.1990  135.6160 C   0  0  0  0  0  1  0  0  0  0  0  0
  183.4670  179.2220  138.4260 C   0  0  0  0  0  2  0  0  0  0  0  0
  184.2580  178.0170  137.9400 C   0  0  0  0  0  2  0  0  0  0  0  0
  185.6690  178.4190  137.5520 C   0  0  0  0  0  2  0  0  0  0  0  0
  186.5190  177.1830  137.3370 C   0  0  0  0  0  2  0  0  0  0  0  0
  187.6810  177.2180  138.2100 N   0  0  0  0  0  2  0  0  0  0  0  0
  190.4540  177.3840  137.7380 O   0  0  0  0  0  1  0  0  0  0  0  0
  188.9530  178.0600  137.3480 P   0  0  0  0  0  0  0  0  0  0  0  0
  188.9430  179.5170  137.7400 O   0  0  0  0  0  1  0  0  0  0  0  0
  188.6900  177.9310  135.6810 O   0  0  0  0  0  0  0  0  0  0  0  0
  2  4  1  0  0  0  0
  3  2  2  0  0  0  0
  3  5  1  0  0  0  0
  4  6  2  0  0  0  0
  5  7  2  0  0  0  0
  6  1  1  0  0  0  0
  7  6  1  0  0  0  0
  7  8  1  0  0  0  0
  8 11  1  0  0  0  0
 10 12  1  0  0  0  0
 11  9  2  0  0  0  0
 11 10  1  0  0  0  0
 12 19  1  0  0  0  0
 13 20  2  0  0  0  0
 13 21  1  0  0  0  0
 14 24  1  6  0  0  0
 15 21  2  0  0  0  0
 16 22  1  0  0  0  0
 18 20  1  0  0  0  0
 19 17  2  0  0  0  0
 20 16  1  0  0  0  0
 21 14  1  0  0  0  0
 22 14  1  0  0  0  0
 22 19  1  0  0  0  0
 24 23  1  0  0  0  0
 26 25  2  0  0  0  0
 26  2  1  0  0  0  0
 27 28  1  0  0  0  0
 27 26  1  0  0  0  0
 29 33  1  0  0  0  0
 31 29  1  0  0  0  0
 31 32  1  0  0  0  0
 32 34  1  6  0  0  0
 32 30  1  0  0  0  0
 33 30  1  0  0  0  0
 33 28  1  1  0  0  0
 35 36  1  0  0  0  0
 35 34  1  0  0  0  0
 36 41  1  1  0  0  0
 37 36  1  0  0  0  0
 38 37  1  0  0  0  0
 40 38  1  0  0  0  0
 40 39  1  0  0  0  0
 42 41  1  0  0  0  0
 43 42  1  0  0  0  0
 44  3  1  0  0  0  0
 45 44  1  0  0  0  0
 46 45  1  0  0  0  0
 47 46  1  0  0  0  0
 47 48  1  0  0  0  0
 50 49  1  0  0  0  0
 50 51  1  0  0  0  0
 50 48  1  0  0  0  0
 52 50  2  0  0  0  0
M  END
>  <MODEL>
4

>  <REMARK>
 VINA RESULT:      -5.2      3.854     10.133
  Name = 
  22 active torsions:
  status: ('A' for Active; 'I' for Inactive)
    1  A    between atoms: C_5  and  C_10
    2  A    between atoms: C_5  and  C_19
    3  A    between atoms: N_6  and  C_44
    4  A    between atoms: C_8  and  C_40
    5  A    between atoms: C_9  and  C_48
    6  A    between atoms: C_12  and  C_51
    7  A    between atoms: S_13  and  C_37
    8  A    between atoms: S_13  and  C_40
    9  A    between atoms: C_14  and  C_45
   10  A    between atoms: C_14  and  N_50
   11  A    between atoms: N_16  and  C_36
   12  A    between atoms: C_17  and  C_31
   13  A    between atoms: C_19  and  C_45
   14  A    between atoms: N_20  and  C_28
   15  A    between atoms: N_20  and  C_39
   16  A    between atoms: C_28  and  C_48
   17  A    between atoms: C_28  and  O_49
   18  A    between atoms: C_31  and  O_49
   19  A    between atoms: C_33  and  C_36
   20  A    between atoms: C_34  and  C_39
   21  A    between atoms: C_37  and  C_41
   22  A    between atoms: P_42  and  N_50
                            x       y       z     vdW  Elec       q    Type
                         _______ _______ _______ _____ _____    ______ ____

>  <TORSDO>
F 22

$$$$
=
 OpenBabel10232411423D

 52 54  0  0  1  0  0  0  0  0999 V2000
  188.1430  178.3170  140.7650 F   0  0  0  0  0  0  0  0  0  0  0  0
  189.4190  176.4330  137.8930 C   0  0  0  0  0  0  0  0  0  0  0  0
  190.7270  176.1330  138.3460 C   0  0  0  0  0  0  0  0  0  0  0  0
  188.5670  177.1650  138.7300 C   0  0  0  0  0  3  0  0  0  0  0  0
  191.1420  176.5740  139.6060 C   0  0  0  0  0  3  0  0  0  0  0  0
  188.9940  177.6050  139.9850 C   0  0  0  0  0  0  0  0  0  0  0  0
  190.2870  177.3140  140.4320 C   0  0  0  0  0  0  0  0  0  0  0  0
  190.7040  177.7770  141.7260 N   0  0  0  0  0  2  0  0  0  0  0  0
  190.7330  175.7250  142.8640 O   0  0  0  0  0  0  0  0  0  0  0  0
  191.3790  177.5950  144.0900 N   0  0  0  0  0  2  0  0  0  0  0  0
  190.9250  176.9700  142.8900 C   0  0  0  0  0  0  0  0  0  0  0  0
  191.6780  176.8200  145.2840 C   0  0  0  0  0  2  0  0  0  0  0  0
  186.7470  178.0880  145.3560 N   0  0  0  0  0  2  0  0  0  0  0  0
  188.5050  178.0040  147.1810 C   0  0  2  0  0  3  0  0  0  0  0  0
  186.6620  179.5380  147.1770 O   0  0  0  0  0  0  0  0  0  0  0  0
  188.7510  176.8380  144.9480 C   0  0  0  0  0  3  0  0  0  0  0  0
  191.2190  177.3670  147.5470 O   0  0  0  0  0  0  0  0  0  0  0  0
  186.9320  176.5750  143.3440 C   0  0  0  0  0  1  0  0  0  0  0  0
  190.7490  177.2010  146.3900 C   0  0  0  0  0  0  0  0  0  0  0  0
  187.5080  177.1530  144.5870 C   0  0  0  0  0  0  0  0  0  0  0  0
  187.2650  178.6040  146.5840 C   0  0  0  0  0  0  0  0  0  0  0  0
  189.3390  177.3730  146.1480 N   0  0  0  0  0  0  0  0  0  0  0  0
  187.7820  177.6740  149.5470 C   0  0  0  0  0  1  0  0  0  0  0  0
  188.1340  176.9790  148.2450 C   0  0  0  0  0  2  0  0  0  0  0  0
  188.3030  174.9270  136.4180 O   0  0  0  0  0  0  0  0  0  0  0  0
  188.9170  176.0170  136.5610 C   0  0  0  0  0  0  0  0  0  0  0  0
  189.1680  177.0510  135.1150 S   0  0  0  0  0  0  0  0  0  0  0  0
  187.6700  178.0300  135.4380 C   0  0  0  0  0  2  0  0  0  0  0  0
  185.6890  176.9340  134.4460 C   0  0  0  0  0  2  0  0  0  0  0  0
  185.6480  177.6850  136.6890 O   0  0  0  0  0  0  0  0  0  0  0  0
  184.2810  176.7970  134.9330 C   0  0  0  0  0  2  0  0  0  0  0  0
  184.3350  177.2960  136.3650 C   0  0  1  0  0  3  0  0  0  0  0  0
  186.4860  177.1220  135.7090 C   0  0  2  0  0  3  0  0  0  0  0  0
  183.8290  176.2400  137.3410 C   0  0  0  0  0  2  0  0  0  0  0  0
  182.5600  176.5910  137.8480 O   0  0  0  0  0  0  0  0  0  0  0  0
  182.6640  177.7960  138.5800 C   0  0  2  0  0  3  0  0  0  0  0  0
  182.6430  177.5700  140.0270 N   0  0  0  0  0  2  0  0  0  0  0  0
  183.3660  178.6630  140.6590 C   0  0  0  0  0  2  0  0  0  0  0  0
  184.1590  179.0800  142.9650 C   0  0  0  0  0  1  0  0  0  0  0  0
  184.2250  178.1250  141.7880 C   0  0  0  0  0  2  0  0  0  0  0  0
  181.6110  178.8290  138.1560 C   0  0  0  0  0  2  0  0  0  0  0  0
  180.7540  178.2980  137.0180 C   0  0  0  0  0  2  0  0  0  0  0  0
  180.6770  179.3060  135.8930 C   0  0  0  0  0  1  0  0  0  0  0  0
  191.6760  175.2730  137.5690 C   0  0  0  0  0  2  0  0  0  0  0  0
  193.1220  175.6160  137.8930 C   0  0  0  0  0  2  0  0  0  0  0  0
  193.8800  175.9950  136.6350 C   0  0  0  0  0  2  0  0  0  0  0  0
  194.9050  174.9270  136.3060 C   0  0  0  0  0  2  0  0  0  0  0  0
  196.2480  175.4780  136.3960 N   0  0  0  0  0  2  0  0  0  0  0  0
  196.0970  173.9270  138.7430 O   0  0  0  0  0  1  0  0  0  0  0  0
  197.1380  174.4870  137.5340 P   0  0  0  0  0  0  0  0  0  0  0  0
  198.2360  175.3110  138.1620 O   0  0  0  0  0  1  0  0  0  0  0  0
  197.8270  173.1710  136.7230 O   0  0  0  0  0  0  0  0  0  0  0  0
  2  3  2  0  0  0  0
  2  4  1  0  0  0  0
  3  5  1  0  0  0  0
  4  6  2  0  0  0  0
  5  7  2  0  0  0  0
  6  7  1  0  0  0  0
  6  1  1  0  0  0  0
  7  8  1  0  0  0  0
  8 11  1  0  0  0  0
  9 11  2  0  0  0  0
 10 12  1  0  0  0  0
 11 10  1  0  0  0  0
 12 19  1  0  0  0  0
 13 21  1  0  0  0  0
 14 24  1  1  0  0  0
 16 22  1  0  0  0  0
 18 20  1  0  0  0  0
 19 17  2  0  0  0  0
 20 16  2  0  0  0  0
 20 13  1  0  0  0  0
 21 15  2  0  0  0  0
 21 14  1  0  0  0  0
 22 19  1  0  0  0  0
 22 14  1  0  0  0  0
 24 23  1  0  0  0  0
 25 26  2  0  0  0  0
 26  2  1  0  0  0  0
 27 28  1  0  0  0  0
 27 26  1  0  0  0  0
 29 31  1  0  0  0  0
 29 33  1  0  0  0  0
 31 32  1  0  0  0  0
 32 30  1  0  0  0  0
 32 34  1  1  0  0  0
 33 28  1  6  0  0  0
 33 30  1  0  0  0  0
 34 35  1  0  0  0  0
 35 36  1  0  0  0  0
 36 41  1  6  0  0  0
 36 37  1  0  0  0  0
 37 38  1  0  0  0  0
 38 40  1  0  0  0  0
 40 39  1  0  0  0  0
 42 41  1  0  0  0  0
 43 42  1  0  0  0  0
 44 45  1  0  0  0  0
 44  3  1  0  0  0  0
 46 45  1  0  0  0  0
 47 48  1  0  0  0  0
 47 46  1  0  0  0  0
 48 50  1  0  0  0  0
 50 51  1  0  0  0  0
 50 49  1  0  0  0  0
 52 50  2  0  0  0  0
M  END
>  <MODEL>
5

>  <REMARK>
 VINA RESULT:      -5.2      2.787      8.288
  Name = 
  22 active torsions:
  status: ('A' for Active; 'I' for Inactive)
    1  A    between atoms: C_5  and  C_10
    2  A    between atoms: C_5  and  C_19
    3  A    between atoms: N_6  and  C_44
    4  A    between atoms: C_8  and  C_40
    5  A    between atoms: C_9  and  C_48
    6  A    between atoms: C_12  and  C_51
    7  A    between atoms: S_13  and  C_37
    8  A    between atoms: S_13  and  C_40
    9  A    between atoms: C_14  and  C_45
   10  A    between atoms: C_14  and  N_50
   11  A    between atoms: N_16  and  C_36
   12  A    between atoms: C_17  and  C_31
   13  A    between atoms: C_19  and  C_45
   14  A    between atoms: N_20  and  C_28
   15  A    between atoms: N_20  and  C_39
   16  A    between atoms: C_28  and  C_48
   17  A    between atoms: C_28  and  O_49
   18  A    between atoms: C_31  and  O_49
   19  A    between atoms: C_33  and  C_36
   20  A    between atoms: C_34  and  C_39
   21  A    between atoms: C_37  and  C_41
   22  A    between atoms: P_42  and  N_50
                            x       y       z     vdW  Elec       q    Type
                         _______ _______ _______ _____ _____    ______ ____

>  <TORSDO>
F 22

$$$$
=
 OpenBabel10232411423D

 52 54  0  0  1  0  0  0  0  0999 V2000
  188.2980  178.5310  136.8650 F   0  0  0  0  0  0  0  0  0  0  0  0
  185.3570  176.3720  136.5150 C   0  0  0  0  0  0  0  0  0  0  0  0
  185.9570  175.2130  135.9650 C   0  0  0  0  0  0  0  0  0  0  0  0
  186.1700  177.4740  136.8140 C   0  0  0  0  0  3  0  0  0  0  0  0
  187.3340  175.1910  135.7270 C   0  0  0  0  0  3  0  0  0  0  0  0
  187.5440  177.4430  136.5680 C   0  0  0  0  0  0  0  0  0  0  0  0
  188.1370  176.3000  136.0200 C   0  0  0  0  0  0  0  0  0  0  0  0
  189.5520  176.2910  135.7770 N   0  0  0  0  0  2  0  0  0  0  0  0
  190.2950  175.6800  137.9160 O   0  0  0  0  0  0  0  0  0  0  0  0
  191.9410  175.9730  136.2970 N   0  0  0  0  0  2  0  0  0  0  0  0
  190.5790  175.9700  136.7240 C   0  0  0  0  0  0  0  0  0  0  0  0
  193.0200  175.5970  137.1970 C   0  0  0  0  0  2  0  0  0  0  0  0
  197.8430  174.2210  138.0730 N   0  0  0  0  0  0  0  0  0  0  0  0
  196.1910  173.5590  136.2680 C   0  0  2  0  0  3  0  0  0  0  0  0
  198.5630  173.6460  135.9340 O   0  0  0  0  0  0  0  0  0  0  0  0
  195.5160  174.6560  138.4470 C   0  0  0  0  0  2  0  0  0  0  0  0
  193.5390  174.0530  135.4710 O   0  0  0  0  0  0  0  0  0  0  0  0
  197.0180  174.9410  140.3470 C   0  0  0  0  0  1  0  0  0  0  0  0
  193.9280  174.6160  136.5290 C   0  0  0  0  0  0  0  0  0  0  0  0
  196.7560  174.5840  138.9280 C   0  0  0  0  0  0  0  0  0  0  0  0
  197.5980  173.8160  136.7250 C   0  0  0  0  0  0  0  0  0  0  0  0
  195.2240  174.3100  137.0800 N   0  0  0  0  0  0  0  0  0  0  0  0
  195.3420  171.5800  135.0050 C   0  0  0  0  0  1  0  0  0  0  0  0
  195.8790  172.0700  136.3370 C   0  0  0  0  0  2  0  0  0  0  0  0
  183.1560  177.1270  135.9940 O   0  0  0  0  0  0  0  0  0  0  0  0
  183.9010  176.4760  136.7730 C   0  0  0  0  0  0  0  0  0  0  0  0
  183.1560  175.6770  138.1980 S   0  0  0  0  0  0  0  0  0  0  0  0
  182.0100  177.0590  138.4920 C   0  0  0  0  0  2  0  0  0  0  0  0
  182.7270  179.4140  138.7240 C   0  0  0  0  0  2  0  0  0  0  0  0
  183.9290  177.6820  139.7970 O   0  0  0  0  0  0  0  0  0  0  0  0
  183.9710  180.0220  139.2880 C   0  0  0  0  0  2  0  0  0  0  0  0
  184.6840  178.8590  139.9520 C   0  0  1  0  0  3  0  0  0  0  0  0
  182.6340  178.0820  139.4210 C   0  0  2  0  0  3  0  0  0  0  0  0
  184.9500  179.1390  141.4270 C   0  0  0  0  0  2  0  0  0  0  0  0
  185.1720  177.9380  142.1340 O   0  0  0  0  0  0  0  0  0  0  0  0
  186.2770  178.1000  143.0000 C   0  0  2  0  0  3  0  0  0  0  0  0
  187.4610  177.3760  142.5290 N   0  0  0  0  0  2  0  0  0  0  0  0
  188.5070  178.3530  142.2710 C   0  0  0  0  0  2  0  0  0  0  0  0
  190.5610  177.7440  143.5090 C   0  0  0  0  0  1  0  0  0  0  0  0
  189.8500  177.6520  142.1710 C   0  0  0  0  0  2  0  0  0  0  0  0
  185.9390  177.7420  144.4530 C   0  0  0  0  0  2  0  0  0  0  0  0
  185.6620  178.9920  145.2720 C   0  0  0  0  0  2  0  0  0  0  0  0
  185.4580  178.6420  146.7290 C   0  0  0  0  0  1  0  0  0  0  0  0
  185.1910  173.9520  135.7050 C   0  0  0  0  0  2  0  0  0  0  0  0
  185.9440  172.7340  136.2210 C   0  0  0  0  0  2  0  0  0  0  0  0
  185.0960  171.4830  136.0910 C   0  0  0  0  0  2  0  0  0  0  0  0
  183.6960  171.7490  136.6080 C   0  0  0  0  0  2  0  0  0  0  0  0
  182.7110  171.3210  135.6280 N   0  0  0  0  0  2  0  0  0  0  0  0
  180.8180  171.9520  137.6160 O   0  0  0  0  0  1  0  0  0  0  0  0
  181.2190  172.1670  135.9880 P   0  0  0  0  0  0  0  0  0  0  0  0
  180.1110  171.6160  135.1220 O   0  0  0  0  0  0  0  0  0  0  0  0
  181.4100  173.8170  135.6630 O   0  0  0  0  0  1  0  0  0  0  0  0
  2 26  1  0  0  0  0
  2  4  1  0  0  0  0
  3  2  2  0  0  0  0
  5  3  1  0  0  0  0
  5  7  2  0  0  0  0
  6  4  2  0  0  0  0
  6  1  1  0  0  0  0
  7  6  1  0  0  0  0
  8  7  1  0  0  0  0
  8 11  1  0  0  0  0
 10 11  1  0  0  0  0
 10 12  1  0  0  0  0
 11  9  2  0  0  0  0
 13 20  2  0  0  0  0
 14 24  1  1  0  0  0
 14 21  1  0  0  0  0
 14 22  1  0  0  0  0
 15 21  2  0  0  0  0
 16 20  1  0  0  0  0
 17 19  2  0  0  0  0
 19 22  1  0  0  0  0
 19 12  1  0  0  0  0
 20 18  1  0  0  0  0
 21 13  1  0  0  0  0
 22 16  1  0  0  0  0
 23 24  1  0  0  0  0
 25 26  2  0  0  0  0
 26 27  1  0  0  0  0
 27 28  1  0  0  0  0
 29 31  1  0  0  0  0
 29 33  1  0  0  0  0
 30 32  1  0  0  0  0
 31 32  1  0  0  0  0
 32 34  1  1  0  0  0
 33 28  1  6  0  0  0
 33 30  1  0  0  0  0
 34 35  1  0  0  0  0
 35 36  1  0  0  0  0
 36 41  1  1  0  0  0
 37 36  1  0  0  0  0
 38 37  1  0  0  0  0
 40 38  1  0  0  0  0
 40 39  1  0  0  0  0
 41 42  1  0  0  0  0
 42 43  1  0  0  0  0
 44  3  1  0  0  0  0
 44 45  1  0  0  0  0
 46 45  1  0  0  0  0
 46 47  1  0  0  0  0
 48 50  1  0  0  0  0
 48 47  1  0  0  0  0
 50 49  1  0  0  0  0
 51 50  2  0  0  0  0
 52 50  1  0  0  0  0
M  END
>  <MODEL>
6

>  <REMARK>
 VINA RESULT:      -5.0      3.421      9.779
  Name = 
  22 active torsions:
  status: ('A' for Active; 'I' for Inactive)
    1  A    between atoms: C_5  and  C_10
    2  A    between atoms: C_5  and  C_19
    3  A    between atoms: N_6  and  C_44
    4  A    between atoms: C_8  and  C_40
    5  A    between atoms: C_9  and  C_48
    6  A    between atoms: C_12  and  C_51
    7  A    between atoms: S_13  and  C_37
    8  A    between atoms: S_13  and  C_40
    9  A    between atoms: C_14  and  C_45
   10  A    between atoms: C_14  and  N_50
   11  A    between atoms: N_16  and  C_36
   12  A    between atoms: C_17  and  C_31
   13  A    between atoms: C_19  and  C_45
   14  A    between atoms: N_20  and  C_28
   15  A    between atoms: N_20  and  C_39
   16  A    between atoms: C_28  and  C_48
   17  A    between atoms: C_28  and  O_49
   18  A    between atoms: C_31  and  O_49
   19  A    between atoms: C_33  and  C_36
   20  A    between atoms: C_34  and  C_39
   21  A    between atoms: C_37  and  C_41
   22  A    between atoms: P_42  and  N_50
                            x       y       z     vdW  Elec       q    Type
                         _______ _______ _______ _____ _____    ______ ____

>  <TORSDO>
F 22

$$$$
=
 OpenBabel10232411423D

 52 54  0  0  1  0  0  0  0  0999 V2000
  188.1700  177.6980  140.8960 F   0  0  0  0  0  0  0  0  0  0  0  0
  189.7700  176.4280  137.8540 C   0  0  0  0  0  0  0  0  0  0  0  0
  191.1250  176.4140  138.2660 C   0  0  0  0  0  0  0  0  0  0  0  0
  188.7940  176.8600  138.7620 C   0  0  0  0  0  3  0  0  0  0  0  0
  191.4620  176.8320  139.5570 C   0  0  0  0  0  3  0  0  0  0  0  0
  189.1420  177.2800  140.0480 C   0  0  0  0  0  0  0  0  0  0  0  0
  190.4800  177.2720  140.4550 C   0  0  0  0  0  0  0  0  0  0  0  0
  190.8140  177.7080  141.7810 N   0  0  0  0  0  2  0  0  0  0  0  0
  190.7660  175.6350  142.8790 O   0  0  0  0  0  0  0  0  0  0  0  0
  191.3350  177.4790  144.1800 N   0  0  0  0  0  2  0  0  0  0  0  0
  190.9590  176.8780  142.9410 C   0  0  0  0  0  0  0  0  0  0  0  0
  191.5560  176.6810  145.3750 C   0  0  0  0  0  2  0  0  0  0  0  0
  186.7180  178.2680  145.3770 N   0  0  0  0  0  2  0  0  0  0  0  0
  188.4430  178.0790  147.2260 C   0  0  2  0  0  3  0  0  0  0  0  0
  186.7040  179.7290  147.1900 O   0  0  0  0  0  0  0  0  0  0  0  0
  188.6410  176.8880  145.0000 C   0  0  0  0  0  3  0  0  0  0  0  0
  191.1040  177.2670  147.6300 O   0  0  0  0  0  0  0  0  0  0  0  0
  186.8300  176.7360  143.3740 C   0  0  0  0  0  1  0  0  0  0  0  0
  190.6390  177.1260  146.4680 C   0  0  0  0  0  0  0  0  0  0  0  0
  187.4260  177.2820  144.6210 C   0  0  0  0  0  0  0  0  0  0  0  0
  187.2520  178.7550  146.6090 C   0  0  0  0  0  0  0  0  0  0  0  0
  189.2460  177.3900  146.2060 N   0  0  0  0  0  0  0  0  0  0  0  0
  187.7900  177.7890  149.6170 C   0  0  0  0  0  1  0  0  0  0  0  0
  187.9910  177.0850  148.2880 C   0  0  0  0  0  2  0  0  0  0  0  0
  189.1780  174.8040  136.2110 O   0  0  0  0  0  0  0  0  0  0  0  0
  189.3420  176.0200  136.4950 C   0  0  0  0  0  0  0  0  0  0  0  0
  189.0410  177.2420  135.2140 S   0  0  0  0  0  0  0  0  0  0  0  0
  188.0510  178.2950  136.3180 C   0  0  0  0  0  2  0  0  0  0  0  0
  185.8550  178.1100  137.4380 C   0  0  0  0  0  2  0  0  0  0  0  0
  186.3630  176.7620  135.5610 O   0  0  0  0  0  0  0  0  0  0  0  0
  184.7480  177.1140  137.2950 C   0  0  0  0  0  2  0  0  0  0  0  0
  185.1430  176.2910  136.0830 C   0  0  1  0  0  3  0  0  0  0  0  0
  186.5700  178.0380  136.1150 C   0  0  2  0  0  3  0  0  0  0  0  0
  184.0550  176.3150  135.0150 C   0  0  0  0  0  2  0  0  0  0  0  0
  183.9730  175.0720  134.3540 O   0  0  0  0  0  0  0  0  0  0  0  0
  183.3810  174.1200  135.2160 C   0  0  2  0  0  3  0  0  0  0  0  0
  184.2480  172.9620  135.4410 N   0  0  0  0  0  2  0  0  0  0  0  0
  184.0030  172.4780  136.7920 C   0  0  0  0  0  2  0  0  0  0  0  0
  186.4390  172.8620  136.9920 C   0  0  0  0  0  1  0  0  0  0  0  0
  185.1090  172.9550  137.7160 C   0  0  0  0  0  2  0  0  0  0  0  0
  181.9840  173.6950  134.7450 C   0  0  0  0  0  2  0  0  0  0  0  0
  180.9250  174.0720  135.7690 C   0  0  0  0  0  2  0  0  0  0  0  0
  181.5030  174.9950  136.8190 C   0  0  0  0  0  1  0  0  0  0  0  0
  192.2270  175.8770  137.4060 C   0  0  0  0  0  2  0  0  0  0  0  0
  192.3910  174.3760  137.5930 C   0  0  0  0  0  2  0  0  0  0  0  0
  193.8390  173.9640  137.4020 C   0  0  0  0  0  2  0  0  0  0  0  0
  194.7410  175.1780  137.5130 C   0  0  0  0  0  2  0  0  0  0  0  0
  195.9820  174.9460  136.7920 N   0  0  0  0  0  2  0  0  0  0  0  0
  198.3530  175.4290  138.2340 O   0  0  0  0  0  1  0  0  0  0  0  0
  197.1350  174.2940  137.9390 P   0  0  0  0  0  0  0  0  0  0  0  0
  197.7490  173.0380  137.3710 O   0  0  0  0  0  0  0  0  0  0  0  0
  196.3440  173.9200  139.3880 O   0  0  0  0  0  1  0  0  0  0  0  0
  2  3  2  0  0  0  0
  2  4  1  0  0  0  0
  3  5  1  0  0  0  0
  4  6  2  0  0  0  0
  5  7  2  0  0  0  0
  6  7  1  0  0  0  0
  6  1  1  0  0  0  0
  7  8  1  0  0  0  0
  8 11  1  0  0  0  0
  9 11  2  0  0  0  0
 10 12  1  0  0  0  0
 11 10  1  0  0  0  0
 12 19  1  0  0  0  0
 13 21  1  0  0  0  0
 14 24  1  1  0  0  0
 16 22  1  0  0  0  0
 18 20  1  0  0  0  0
 19 17  2  0  0  0  0
 20 16  2  0  0  0  0
 20 13  1  0  0  0  0
 21 15  2  0  0  0  0
 21 14  1  0  0  0  0
 22 19  1  0  0  0  0
 22 14  1  0  0  0  0
 24 23  1  0  0  0  0
 25 26  2  0  0  0  0
 26  2  1  0  0  0  0
 27 28  1  0  0  0  0
 27 26  1  0  0  0  0
 30 32  1  0  0  0  0
 30 33  1  0  0  0  0
 31 29  1  0  0  0  0
 32 34  1  6  0  0  0
 32 31  1  0  0  0  0
 33 28  1  1  0  0  0
 33 29  1  0  0  0  0
 35 34  1  0  0  0  0
 35 36  1  0  0  0  0
 36 41  1  6  0  0  0
 36 37  1  0  0  0  0
 37 38  1  0  0  0  0
 38 40  1  0  0  0  0
 39 40  1  0  0  0  0
 41 42  1  0  0  0  0
 42 43  1  0  0  0  0
 44 45  1  0  0  0  0
 44  3  1  0  0  0  0
 46 47  1  0  0  0  0
 46 45  1  0  0  0  0
 48 47  1  0  0  0  0
 48 50  1  0  0  0  0
 50 49  1  0  0  0  0
 50 52  1  0  0  0  0
 51 50  2  0  0  0  0
M  END
>  <MODEL>
7

>  <REMARK>
 VINA RESULT:      -4.9      2.775      8.664
  Name = 
  22 active torsions:
  status: ('A' for Active; 'I' for Inactive)
    1  A    between atoms: C_5  and  C_10
    2  A    between atoms: C_5  and  C_19
    3  A    between atoms: N_6  and  C_44
    4  A    between atoms: C_8  and  C_40
    5  A    between atoms: C_9  and  C_48
    6  A    between atoms: C_12  and  C_51
    7  A    between atoms: S_13  and  C_37
    8  A    between atoms: S_13  and  C_40
    9  A    between atoms: C_14  and  C_45
   10  A    between atoms: C_14  and  N_50
   11  A    between atoms: N_16  and  C_36
   12  A    between atoms: C_17  and  C_31
   13  A    between atoms: C_19  and  C_45
   14  A    between atoms: N_20  and  C_28
   15  A    between atoms: N_20  and  C_39
   16  A    between atoms: C_28  and  C_48
   17  A    between atoms: C_28  and  O_49
   18  A    between atoms: C_31  and  O_49
   19  A    between atoms: C_33  and  C_36
   20  A    between atoms: C_34  and  C_39
   21  A    between atoms: C_37  and  C_41
   22  A    between atoms: P_42  and  N_50
                            x       y       z     vdW  Elec       q    Type
                         _______ _______ _______ _____ _____    ______ ____

>  <TORSDO>
F 22

$$$$
=
 OpenBabel10232411423D

 52 54  0  0  1  0  0  0  0  0999 V2000
  190.9440  176.5040  141.5240 F   0  0  0  0  0  0  0  0  0  0  0  0
  190.5300  176.8690  137.9010 C   0  0  0  0  0  0  0  0  0  0  0  0
  189.4830  177.8210  137.8590 C   0  0  0  0  0  0  0  0  0  0  0  0
  191.0080  176.4470  139.1490 C   0  0  0  0  0  3  0  0  0  0  0  0
  188.9450  178.3140  139.0520 C   0  0  0  0  0  3  0  0  0  0  0  0
  190.4600  176.9420  140.3350 C   0  0  0  0  0  0  0  0  0  0  0  0
  189.4220  177.8780  140.2950 C   0  0  0  0  0  0  0  0  0  0  0  0
  188.8750  178.3730  141.5270 N   0  0  0  0  0  2  0  0  0  0  0  0
  187.5260  176.5400  142.0990 O   0  0  0  0  0  0  0  0  0  0  0  0
  187.5470  178.3160  143.6030 N   0  0  0  0  0  2  0  0  0  0  0  0
  187.9590  177.6860  142.3910 C   0  0  0  0  0  0  0  0  0  0  0  0
  186.6680  177.6430  144.5470 C   0  0  0  0  0  2  0  0  0  0  0  0
  191.5730  177.2870  145.8670 N   0  0  0  0  0  2  0  0  0  0  0  0
  189.4360  177.1490  147.2240 C   0  0  2  0  0  3  0  0  0  0  0  0
  191.4490  175.9730  147.7860 O   0  0  0  0  0  0  0  0  0  0  0  0
  189.5530  178.1340  144.8960 C   0  0  0  0  0  3  0  0  0  0  0  0
  186.6480  177.3060  146.8960 O   0  0  0  0  0  0  0  0  0  0  0  0
  191.6380  178.6370  143.7350 C   0  0  0  0  0  1  0  0  0  0  0  0
  187.3510  177.4940  145.8680 C   0  0  0  0  0  0  0  0  0  0  0  0
  190.8800  178.0290  144.8600 C   0  0  0  0  0  0  0  0  0  0  0  0
  190.8650  176.7510  146.9860 C   0  0  0  0  0  0  0  0  0  0  0  0
  188.7870  177.5650  145.9740 N   0  0  0  0  0  0  0  0  0  0  0  0
  188.2310  178.0380  149.2210 C   0  0  0  0  0  1  0  0  0  0  0  0
  189.3680  178.2780  148.2450 C   0  0  0  0  0  2  0  0  0  0  0  0
  190.4060  175.8670  135.7410 O   0  0  0  0  0  0  0  0  0  0  0  0
  191.1340  176.2870  136.6790 C   0  0  0  0  0  0  0  0  0  0  0  0
  192.9160  176.1650  136.4950 S   0  0  0  0  0  0  0  0  0  0  0  0
  192.7880  175.3540  134.8730 C   0  0  0  0  0  2  0  0  0  0  0  0
  192.4630  172.9030  134.9100 C   0  0  0  0  0  2  0  0  0  0  0  0
  194.2950  173.8880  136.0370 O   0  0  0  0  0  0  0  0  0  0  0  0
  193.1190  171.8260  135.7140 C   0  0  0  0  0  2  0  0  0  0  0  0
  194.2720  172.5290  136.4040 C   0  0  1  0  0  3  0  0  0  0  0  0
  193.4860  174.0070  134.8920 C   0  0  2  0  0  3  0  0  0  0  0  0
  195.6050  171.8620  136.0810 C   0  0  0  0  0  2  0  0  0  0  0  0
  196.5820  172.8240  135.7510 O   0  0  0  0  0  0  0  0  0  0  0  0
  197.5570  172.8740  136.7740 C   0  0  2  0  0  3  0  0  0  0  0  0
  196.9590  173.0370  138.1010 N   0  0  0  0  0  2  0  0  0  0  0  0
  197.0430  174.4450  138.4580 C   0  0  0  0  0  2  0  0  0  0  0  0
  197.4240  175.4110  140.7040 C   0  0  0  0  0  1  0  0  0  0  0  0
  196.4330  174.6640  139.8310 C   0  0  0  0  0  2  0  0  0  0  0  0
  198.6310  173.9360  136.5050 C   0  0  0  0  0  2  0  0  0  0  0  0
  199.8830  173.3070  135.9160 C   0  0  0  0  0  2  0  0  0  0  0  0
  199.9480  171.8330  136.2490 C   0  0  0  0  0  1  0  0  0  0  0  0
  188.9730  178.4080  136.5790 C   0  0  0  0  0  2  0  0  0  0  0  0
  187.4560  178.3240  136.5000 C   0  0  0  0  0  2  0  0  0  0  0  0
  187.0220  177.0190  135.8590 C   0  0  0  0  0  2  0  0  0  0  0  0
  186.7570  175.9790  136.9300 C   0  0  0  0  0  2  0  0  0  0  0  0
  185.3370  175.6730  136.9900 N   0  0  0  0  0  2  0  0  0  0  0  0
  186.5140  173.4540  135.7140 O   0  0  0  0  0  1  0  0  0  0  0  0
  185.1530  173.9820  136.5680 P   0  0  0  0  0  0  0  0  0  0  0  0
  183.9250  173.8130  135.7060 O   0  0  0  0  0  0  0  0  0  0  0  0
  184.9740  173.0610  137.9770 O   0  0  0  0  0  1  0  0  0  0  0  0
  2  4  1  0  0  0  0
  3  2  2  0  0  0  0
  3  5  1  0  0  0  0
  4  6  2  0  0  0  0
  5  7  2  0  0  0  0
  6  1  1  0  0  0  0
  7  6  1  0  0  0  0
  7  8  1  0  0  0  0
  8 11  1  0  0  0  0
  9 11  2  0  0  0  0
 10 12  1  0  0  0  0
 11 10  1  0  0  0  0
 12 19  1  0  0  0  0
 13 21  1  0  0  0  0
 14 24  1  1  0  0  0
 16 22  1  0  0  0  0
 18 20  1  0  0  0  0
 19 22  1  0  0  0  0
 19 17  2  0  0  0  0
 20 16  2  0  0  0  0
 20 13  1  0  0  0  0
 21 14  1  0  0  0  0
 21 15  2  0  0  0  0
 22 14  1  0  0  0  0
 24 23  1  0  0  0  0
 25 26  2  0  0  0  0
 26  2  1  0  0  0  0
 27 26  1  0  0  0  0
 28 27  1  0  0  0  0
 29 31  1  0  0  0  0
 30 32  1  0  0  0  0
 31 32  1  0  0  0  0
 32 34  1  6  0  0  0
 33 28  1  1  0  0  0
 33 29  1  0  0  0  0
 33 30  1  0  0  0  0
 35 34  1  0  0  0  0
 35 36  1  0  0  0  0
 36 41  1  6  0  0  0
 36 37  1  0  0  0  0
 37 38  1  0  0  0  0
 38 40  1  0  0  0  0
 40 39  1  0  0  0  0
 42 43  1  0  0  0  0
 42 41  1  0  0  0  0
 44  3  1  0  0  0  0
 45 44  1  0  0  0  0
 46 45  1  0  0  0  0
 46 47  1  0  0  0  0
 47 48  1  0  0  0  0
 49 50  1  0  0  0  0
 50 48  1  0  0  0  0
 50 52  1  0  0  0  0
 51 50  2  0  0  0  0
M  END
>  <MODEL>
8

>  <REMARK>
 VINA RESULT:      -4.8      3.702     11.500
  Name = 
  22 active torsions:
  status: ('A' for Active; 'I' for Inactive)
    1  A    between atoms: C_5  and  C_10
    2  A    between atoms: C_5  and  C_19
    3  A    between atoms: N_6  and  C_44
    4  A    between atoms: C_8  and  C_40
    5  A    between atoms: C_9  and  C_48
    6  A    between atoms: C_12  and  C_51
    7  A    between atoms: S_13  and  C_37
    8  A    between atoms: S_13  and  C_40
    9  A    between atoms: C_14  and  C_45
   10  A    between atoms: C_14  and  N_50
   11  A    between atoms: N_16  and  C_36
   12  A    between atoms: C_17  and  C_31
   13  A    between atoms: C_19  and  C_45
   14  A    between atoms: N_20  and  C_28
   15  A    between atoms: N_20  and  C_39
   16  A    between atoms: C_28  and  C_48
   17  A    between atoms: C_28  and  O_49
   18  A    between atoms: C_31  and  O_49
   19  A    between atoms: C_33  and  C_36
   20  A    between atoms: C_34  and  C_39
   21  A    between atoms: C_37  and  C_41
   22  A    between atoms: P_42  and  N_50
                            x       y       z     vdW  Elec       q    Type
                         _______ _______ _______ _____ _____    ______ ____

>  <TORSDO>
F 22

$$$$
=
 OpenBabel10232411423D

 52 54  0  0  1  0  0  0  0  0999 V2000
  189.0930  178.5710  141.7460 F   0  0  0  0  0  0  0  0  0  0  0  0
  185.5240  178.7510  140.9360 C   0  0  0  0  0  0  0  0  0  0  0  0
  185.5690  178.5270  139.5380 C   0  0  0  0  0  0  0  0  0  0  0  0
  186.7260  178.7550  141.6570 C   0  0  0  0  0  3  0  0  0  0  0  0
  186.8000  178.3220  138.9080 C   0  0  0  0  0  3  0  0  0  0  0  0
  187.9500  178.5530  141.0170 C   0  0  0  0  0  0  0  0  0  0  0  0
  187.9970  178.3380  139.6350 C   0  0  0  0  0  0  0  0  0  0  0  0
  189.2670  178.1340  138.9980 N   0  0  0  0  0  2  0  0  0  0  0  0
  188.9860  175.9090  138.3090 O   0  0  0  0  0  0  0  0  0  0  0  0
  190.9990  176.9220  137.7290 N   0  0  0  0  0  2  0  0  0  0  0  0
  189.7130  176.9360  138.3470 C   0  0  0  0  0  0  0  0  0  0  0  0
  191.4800  175.7580  137.0030 C   0  0  0  0  0  2  0  0  0  0  0  0
  194.5430  171.6920  136.8710 N   0  0  0  0  0  2  0  0  0  0  0  0
  194.9760  174.1260  137.4320 C   0  0  2  0  0  3  0  0  0  0  0  0
  196.1950  172.3000  138.3950 O   0  0  0  0  0  0  0  0  0  0  0  0
  192.9240  173.3220  136.1870 C   0  0  0  0  0  3  0  0  0  0  0  0
  193.6220  176.5850  137.5980 O   0  0  0  0  0  0  0  0  0  0  0  0
  192.6720  171.0660  135.2960 C   0  0  0  0  0  1  0  0  0  0  0  0
  192.9510  175.5930  137.2090 C   0  0  0  0  0  0  0  0  0  0  0  0
  193.3900  172.0760  136.1170 C   0  0  0  0  0  0  0  0  0  0  0  0
  195.2770  172.6660  137.6140 C   0  0  0  0  0  0  0  0  0  0  0  0
  193.5970  174.3280  136.9660 N   0  0  0  0  0  0  0  0  0  0  0  0
  197.3740  174.6400  136.9660 C   0  0  0  0  0  1  0  0  0  0  0  0
  195.9540  174.7450  136.4410 C   0  0  0  0  0  2  0  0  0  0  0  0
  183.1600  178.5930  141.2040 O   0  0  0  0  0  0  0  0  0  0  0  0
  184.2590  178.9960  141.6680 C   0  0  0  0  0  0  0  0  0  0  0  0
  184.2520  179.8740  143.2340 S   0  0  0  0  0  0  0  0  0  0  0  0
  183.5900  178.4430  144.1410 C   0  0  0  0  0  2  0  0  0  0  0  0
  184.1880  178.5240  146.5380 C   0  0  0  0  0  2  0  0  0  0  0  0
  185.8750  178.4170  144.8830 O   0  0  0  0  0  0  0  0  0  0  0  0
  185.4990  178.7280  147.2280 C   0  0  0  0  0  2  0  0  0  0  0  0
  186.5220  178.6500  146.1110 C   0  0  1  0  0  3  0  0  0  0  0  0
  184.5770  177.9730  145.1920 C   0  0  2  0  0  3  0  0  0  0  0  0
  187.5630  177.5700  146.3850 C   0  0  0  0  0  2  0  0  0  0  0  0
  188.5390  178.0320  147.2930 O   0  0  0  0  0  0  0  0  0  0  0  0
  189.8270  177.7840  146.7640 C   0  0  2  0  0  3  0  0  0  0  0  0
  189.7840  176.9300  145.5750 N   0  0  0  0  0  2  0  0  0  0  0  0
  190.7650  177.4360  144.6280 C   0  0  0  0  0  2  0  0  0  0  0  0
  191.9790  175.6730  143.3870 C   0  0  0  0  0  1  0  0  0  0  0  0
  190.7600  176.5770  143.3760 C   0  0  0  0  0  2  0  0  0  0  0  0
  190.7950  177.2320  147.8190 C   0  0  0  0  0  2  0  0  0  0  0  0
  191.4040  175.9160  147.3640 C   0  0  0  0  0  2  0  0  0  0  0  0
  192.7700  175.7180  147.9820 C   0  0  0  0  0  1  0  0  0  0  0  0
  184.3350  178.4050  138.6980 C   0  0  0  0  0  2  0  0  0  0  0  0
  184.6490  177.7810  137.3460 C   0  0  0  0  0  2  0  0  0  0  0  0
  183.4040  177.1590  136.7390 C   0  0  0  0  0  2  0  0  0  0  0  0
  182.4710  176.6890  137.8380 C   0  0  0  0  0  2  0  0  0  0  0  0
  181.1970  176.2800  137.2710 N   0  0  0  0  0  2  0  0  0  0  0  0
  180.1290  173.7960  138.0610 O   0  0  0  0  0  1  0  0  0  0  0  0
  181.2610  174.5430  137.0510 P   0  0  0  0  0  0  0  0  0  0  0  0
  182.6440  174.0460  137.3950 O   0  0  0  0  0  1  0  0  0  0  0  0
  180.9190  174.1620  135.4370 O   0  0  0  0  0  0  0  0  0  0  0  0
  2  4  1  0  0  0  0
  2 26  1  0  0  0  0
  3  2  2  0  0  0  0
  5  3  1  0  0  0  0
  5  7  2  0  0  0  0
  6  4  2  0  0  0  0
  6  1  1  0  0  0  0
  7  6  1  0  0  0  0
  8  7  1  0  0  0  0
  9 11  2  0  0  0  0
 10 11  1  0  0  0  0
 11  8  1  0  0  0  0
 12 19  1  0  0  0  0
 12 10  1  0  0  0  0
 13 21  1  0  0  0  0
 14 24  1  6  0  0  0
 14 21  1  0  0  0  0
 16 22  1  0  0  0  0
 18 20  1  0  0  0  0
 19 17  2  0  0  0  0
 20 16  2  0  0  0  0
 20 13  1  0  0  0  0
 21 15  2  0  0  0  0
 22 19  1  0  0  0  0
 22 14  1  0  0  0  0
 24 23  1  0  0  0  0
 25 26  2  0  0  0  0
 26 27  1  0  0  0  0
 27 28  1  0  0  0  0
 29 31  1  0  0  0  0
 30 33  1  0  0  0  0
 30 32  1  0  0  0  0
 32 34  1  1  0  0  0
 32 31  1  0  0  0  0
 33 28  1  6  0  0  0
 33 29  1  0  0  0  0
 34 35  1  0  0  0  0
 36 35  1  0  0  0  0
 36 41  1  1  0  0  0
 37 36  1  0  0  0  0
 38 37  1  0  0  0  0
 40 39  1  0  0  0  0
 40 38  1  0  0  0  0
 42 41  1  0  0  0  0
 42 43  1  0  0  0  0
 44  3  1  0  0  0  0
 45 44  1  0  0  0  0
 46 45  1  0  0  0  0
 46 47  1  0  0  0  0
 48 47  1  0  0  0  0
 50 48  1  0  0  0  0
 50 51  1  0  0  0  0
 50 49  1  0  0  0  0
 52 50  2  0  0  0  0
M  END
>  <MODEL>
9

>  <REMARK>
 VINA RESULT:      -4.8      3.339      9.187
  Name = 
  22 active torsions:
  status: ('A' for Active; 'I' for Inactive)
    1  A    between atoms: C_5  and  C_10
    2  A    between atoms: C_5  and  C_19
    3  A    between atoms: N_6  and  C_44
    4  A    between atoms: C_8  and  C_40
    5  A    between atoms: C_9  and  C_48
    6  A    between atoms: C_12  and  C_51
    7  A    between atoms: S_13  and  C_37
    8  A    between atoms: S_13  and  C_40
    9  A    between atoms: C_14  and  C_45
   10  A    between atoms: C_14  and  N_50
   11  A    between atoms: N_16  and  C_36
   12  A    between atoms: C_17  and  C_31
   13  A    between atoms: C_19  and  C_45
   14  A    between atoms: N_20  and  C_28
   15  A    between atoms: N_20  and  C_39
   16  A    between atoms: C_28  and  C_48
   17  A    between atoms: C_28  and  O_49
   18  A    between atoms: C_31  and  O_49
   19  A    between atoms: C_33  and  C_36
   20  A    between atoms: C_34  and  C_39
   21  A    between atoms: C_37  and  C_41
   22  A    between atoms: P_42  and  N_50
                            x       y       z     vdW  Elec       q    Type
                         _______ _______ _______ _____ _____    ______ ____

>  <TORSDO>
F 22

$$$$
