=
 OpenBabel10232407443D

 63 67  0  0  1  0  0  0  0  0999 V2000
  190.3710  176.3540  138.2540 C   0  0  2  0  0  3  0  0  0  0  0  0
  188.7190  178.1410  137.7730 C   0  0  0  0  0  0  0  0  0  0  0  0
  189.4460  177.3470  140.0560 C   0  0  0  0  0  2  0  0  0  0  0  0
  187.3530  178.7990  135.7840 C   0  0  0  0  0  3  0  0  0  0  0  0
  188.6810  178.4090  139.2620 C   0  0  2  0  0  3  0  0  0  0  0  0
  189.5340  177.1700  137.2770 C   0  0  0  0  0  0  0  0  0  0  0  0
  189.6340  176.8130  135.8380 C   0  0  0  0  0  3  0  0  0  0  0  0
  188.6670  176.9320  134.9260 C   0  0  0  0  0  3  0  0  0  0  0  0
  190.6690  177.0830  139.4260 O   0  0  0  0  0  0  0  0  0  0  0  0
  187.2950  177.4090  135.2580 C   0  0  0  0  0  2  0  0  0  0  0  0
  187.9780  179.1010  136.9240 C   0  0  0  0  0  3  0  0  0  0  0  0
  191.8910  174.5180  137.3220 C   0  0  0  0  0  0  0  0  0  0  0  0
  191.0480  173.6190  137.5880 O   0  0  0  0  0  0  0  0  0  0  0  0
  193.1250  174.1840  136.6890 N   0  0  0  0  0  2  0  0  0  0  0  0
  191.6180  175.8850  137.6440 N   0  0  0  0  0  2  0  0  0  0  0  0
  193.4320  172.8280  136.2670 C   0  0  0  0  0  2  0  0  0  0  0  0
  194.7260  172.7890  135.4740 C   0  0  0  0  0  2  0  0  0  0  0  0
  195.8420  173.5280  136.2140 C   0  0  0  0  0  2  0  0  0  0  0  0
  196.7210  174.3650  135.2800 C   0  0  1  0  0  3  0  0  0  0  0  0
  196.2970  175.8280  135.3270 C   0  0  0  0  0  1  0  0  0  0  0  0
  198.8890  175.4320  135.4380 O   0  0  0  0  0  1  0  0  0  0  0  0
  198.2200  174.2130  135.5980 C   0  0  1  0  0  3  0  0  0  0  0  0
  198.5190  173.6470  136.9900 C   0  0  2  0  0  3  0  0  0  0  0  0
  199.1710  174.5870  137.7970 O   0  0  0  0  0  0  0  0  0  0  0  0
  198.2360  174.9300  138.7740 C   0  0  0  0  0  1  0  0  0  0  0  0
  199.2720  172.3130  136.9590 C   0  0  0  0  0  2  0  0  0  0  0  0
  199.1550  171.6990  135.7090 O   0  0  0  0  0  0  0  0  0  0  0  0
  197.1470  169.4600  137.5560 C   0  0  0  0  0  2  0  0  0  0  0  0
  197.3230  170.3670  135.3560 O   0  0  0  0  0  0  0  0  0  0  0  0
  196.5690  169.4860  136.1560 C   0  0  0  0  0  2  0  0  0  0  0  0
  198.3900  170.2880  137.4570 C   0  0  0  0  0  2  0  0  0  0  0  0
  198.5830  170.4540  135.9730 C   0  0  2  0  0  3  0  0  0  0  0  0
  187.2450  178.5480  139.7720 C   0  0  0  0  0  2  0  0  0  0  0  0
  186.2310  178.0310  138.7630 C   0  0  0  0  0  2  0  0  0  0  0  0
  183.7570  177.3950  138.6110 C   0  0  0  0  0  0  0  0  0  0  0  0
  183.4300  178.2130  141.2960 C   0  0  0  0  0  0  0  0  0  0  0  0
  184.8650  177.8570  139.3550 C   0  0  0  0  0  0  0  0  0  0  0  0
  184.6860  178.2760  140.6750 C   0  0  0  0  0  3  0  0  0  0  0  0
  182.5030  177.3180  139.2350 C   0  0  0  0  0  3  0  0  0  0  0  0
  182.3400  177.7260  140.5610 C   0  0  0  0  0  3  0  0  0  0  0  0
  184.2170  175.5530  135.3200 O   0  0  0  0  0  0  0  0  0  0  0  0
  184.1680  175.7270  136.6920 C   0  0  0  0  0  0  0  0  0  0  0  0
  183.9230  177.0340  137.2290 N   0  0  0  0  0  2  0  0  0  0  0  0
  184.2970  174.7260  137.4460 O   0  0  0  0  0  1  0  0  0  0  0  0
  184.3660  179.1500  143.4760 C   0  0  0  0  0  0  0  0  0  0  0  0
  183.2680  178.7350  142.6330 N   0  0  0  0  0  0  0  0  0  0  0  0
  184.1520  179.9480  144.4320 O   0  0  0  0  0  0  0  0  0  0  0  0
  181.9110  178.8700  143.1600 C   0  0  0  0  0  2  0  0  0  0  0  0
  181.3010  180.0070  142.6240 O   0  0  0  0  0  1  0  0  0  0  0  0
  185.7590  178.6440  143.2820 C   0  0  0  0  0  2  0  0  0  0  0  0
  186.1360  177.6650  144.3790 C   0  0  0  0  0  2  0  0  0  0  0  0
  186.9530  178.4080  145.4350 C   0  0  1  0  0  3  0  0  0  0  0  0
  184.8090  177.9630  146.6900 C   0  0  0  0  0  1  0  0  0  0  0  0
  186.1890  179.8960  147.2970 C   0  0  0  0  0  1  0  0  0  0  0  0
  186.2390  178.4660  146.7950 C   0  0  0  0  0  3  0  0  0  0  0  0
  188.3840  176.7670  146.4710 O   0  0  0  0  0  1  0  0  0  0  0  0
  188.3700  177.8260  145.5580 C   0  0  1  0  0  3  0  0  0  0  0  0
  188.9310  177.3770  144.2030 C   0  0  2  0  0  3  0  0  0  0  0  0
  191.9610  177.4110  142.4540 N   0  0  0  0  0  1  0  0  0  0  0  0
  191.2380  176.8170  144.6420 N   0  0  0  0  0  2  0  0  0  0  0  0
  189.9260  176.2470  144.3820 C   0  0  0  0  0  2  0  0  0  0  0  0
  191.4190  177.9150  143.7040 C   0  0  2  0  0  3  0  0  0  0  0  0
  189.8250  178.7360  143.3990 S   0  0  0  0  0  0  0  0  0  0  0  0
  1 15  1  6  0  0  0
  1  9  1  0  0  0  0
  2  5  1  0  0  0  0
  4 11  2  0  0  0  0
  5 33  1  1  0  0  0
  5  3  1  0  0  0  0
  6  2  2  0  0  0  0
  6  1  1  0  0  0  0
  7  6  1  0  0  0  0
  8 10  1  0  0  0  0
  8  7  2  0  0  0  0
  9  3  1  0  0  0  0
 10  4  1  0  0  0  0
 11  2  1  0  0  0  0
 12 13  2  0  0  0  0
 12 15  1  0  0  0  0
 14 12  1  0  0  0  0
 16 14  1  0  0  0  0
 17 18  1  0  0  0  0
 17 16  1  0  0  0  0
 19 20  1  1  0  0  0
 19 22  1  0  0  0  0
 19 18  1  0  0  0  0
 22 21  1  1  0  0  0
 22 23  1  0  0  0  0
 23 26  1  6  0  0  0
 23 24  1  0  0  0  0
 24 25  1  0  0  0  0
 27 26  1  0  0  0  0
 29 32  1  0  0  0  0
 29 30  1  0  0  0  0
 30 28  1  0  0  0  0
 31 28  1  0  0  0  0
 32 27  1  1  0  0  0
 32 31  1  0  0  0  0
 34 37  1  0  0  0  0
 34 33  1  0  0  0  0
 35 39  2  0  0  0  0
 35 37  1  0  0  0  0
 36 46  1  0  0  0  0
 37 38  2  0  0  0  0
 38 36  1  0  0  0  0
 39 40  1  0  0  0  0
 40 36  2  0  0  0  0
 41 42  2  0  0  0  0
 42 43  1  0  0  0  0
 42 44  1  0  0  0  0
 43 35  1  0  0  0  0
 45 47  2  0  0  0  0
 46 48  1  0  0  0  0
 46 45  1  0  0  0  0
 49 48  1  0  0  0  0
 50 45  1  0  0  0  0
 50 51  1  0  0  0  0
 52 51  1  6  0  0  0
 52 57  1  0  0  0  0
 52 55  1  0  0  0  0
 53 55  1  0  0  0  0
 55 54  1  0  0  0  0
 57 56  1  1  0  0  0
 58 61  1  0  0  0  0
 58 57  1  1  0  0  0
 61 60  1  0  0  0  0
 62 59  1  6  0  0  0
 62 60  1  0  0  0  0
 63 62  1  0  0  0  0
 63 58  1  0  0  0  0
M  END
>  <MODEL>
1

>  <REMARK>
 VINA RESULT:      -6.2      0.000      0.000
  Name = 
  23 active torsions:
  status: ('A' for Active; 'I' for Inactive)
    1  A    between atoms: C_1  and  N_60
    2  A    between atoms: C_2  and  C_22
    3  A    between atoms: C_2  and  C_49
    4  A    between atoms: O_3  and  C_10
    5  A    between atoms: C_6  and  C_43
    6  A    between atoms: C_6  and  C_63
    7  A    between atoms: C_9  and  N_56
    8  A    between atoms: C_10  and  C_26
    9  A    between atoms: C_10  and  C_34
   10  A    between atoms: C_11  and  N_50
   11  A    between atoms: C_12  and  C_14
   12  A    between atoms: C_12  and  C_34
   13  A    between atoms: C_14  and  C_53
   14  A    between atoms: C_15  and  N_50
   15  A    between atoms: C_16  and  N_47
   16  A    between atoms: C_16  and  C_53
   17  A    between atoms: C_21  and  C_49
   18  A    between atoms: C_24  and  C_58
   19  A    between atoms: C_26  and  O_30
   20  A    between atoms: C_29  and  C_43
   21  A    between atoms: O_30  and  C_46
   22  A    between atoms: C_31  and  C_63
   23  A    between atoms: C_58  and  C_63
                            x       y       z     vdW  Elec       q    Type
                         _______ _______ _______ _____ _____    ______ ____

>  <TORSDO>
F 23

$$$$
=
 OpenBabel10232407443D

 63 67  0  0  1  0  0  0  0  0999 V2000
  184.1230  178.7890  143.0970 C   0  0  2  0  0  3  0  0  0  0  0  0
  182.5370  178.4760  141.2160 C   0  0  0  0  0  0  0  0  0  0  0  0
  185.0470  178.6840  141.0420 C   0  0  0  0  0  2  0  0  0  0  0  0
  180.0760  178.7940  140.9050 C   0  0  0  0  0  3  0  0  0  0  0  0
  183.7450  178.3420  140.3130 C   0  0  2  0  0  3  0  0  0  0  0  0
  182.7060  178.6760  142.5510 C   0  0  0  0  0  0  0  0  0  0  0  0
  181.5920  178.8390  143.5230 C   0  0  0  0  0  3  0  0  0  0  0  0
  180.3850  179.3440  143.2610 C   0  0  0  0  0  3  0  0  0  0  0  0
  185.0490  178.0760  142.3040 O   0  0  0  0  0  0  0  0  0  0  0  0
  180.0010  179.8760  141.9230 C   0  0  0  0  0  2  0  0  0  0  0  0
  181.2260  178.1950  140.5880 C   0  0  0  0  0  3  0  0  0  0  0  0
  185.0330  178.9310  145.4850 C   0  0  0  0  0  0  0  0  0  0  0  0
  185.7670  179.9150  145.1970 O   0  0  0  0  0  0  0  0  0  0  0  0
  185.0060  178.4180  146.8160 N   0  0  0  0  0  2  0  0  0  0  0  0
  184.2120  178.3240  144.4840 N   0  0  0  0  0  2  0  0  0  0  0  0
  185.7560  179.0350  147.8960 C   0  0  0  0  0  2  0  0  0  0  0  0
  187.2430  178.7760  147.7380 C   0  0  0  0  0  2  0  0  0  0  0  0
  187.5840  177.3270  148.0880 C   0  0  0  0  0  2  0  0  0  0  0  0
  189.0080  176.9370  147.6790 C   0  0  1  0  0  3  0  0  0  0  0  0
  189.2440  175.4530  147.9390 C   0  0  0  0  0  1  0  0  0  0  0  0
  189.3190  178.6840  146.0320 O   0  0  0  0  0  1  0  0  0  0  0  0
  189.3130  177.2970  146.2140 C   0  0  1  0  0  3  0  0  0  0  0  0
  190.6200  176.7070  145.6750 C   0  0  2  0  0  3  0  0  0  0  0  0
  191.7080  177.0420  146.4890 O   0  0  0  0  0  0  0  0  0  0  0  0
  192.3570  175.8320  146.7380 C   0  0  0  0  0  1  0  0  0  0  0  0
  190.8890  177.0530  144.2070 C   0  0  0  0  0  2  0  0  0  0  0  0
  191.1170  175.8990  143.4530 O   0  0  0  0  0  0  0  0  0  0  0  0
  188.4170  177.2610  141.6340 C   0  0  0  0  0  2  0  0  0  0  0  0
  190.7970  177.1110  141.5340 O   0  0  0  0  0  0  0  0  0  0  0  0
  189.6690  177.6240  140.8620 C   0  0  0  0  0  2  0  0  0  0  0  0
  188.9060  176.3680  142.7310 C   0  0  0  0  0  2  0  0  0  0  0  0
  190.3180  176.0470  142.3190 C   0  0  2  0  0  3  0  0  0  0  0  0
  183.5920  179.1790  139.0410 C   0  0  0  0  0  2  0  0  0  0  0  0
  184.1560  178.4670  137.8200 C   0  0  0  0  0  2  0  0  0  0  0  0
  181.8640  177.7710  136.9210 C   0  0  0  0  0  0  0  0  0  0  0  0
  182.8220  175.1240  136.6620 C   0  0  0  0  0  0  0  0  0  0  0  0
  183.2040  177.4630  137.2450 C   0  0  0  0  0  0  0  0  0  0  0  0
  183.6590  176.1480  137.1290 C   0  0  0  0  0  3  0  0  0  0  0  0
  181.0290  176.7520  136.4400 C   0  0  0  0  0  3  0  0  0  0  0  0
  181.5010  175.4430  136.3140 C   0  0  0  0  0  3  0  0  0  0  0  0
  180.2520  181.1880  136.5200 O   0  0  0  0  0  1  0  0  0  0  0  0
  180.7430  179.9520  136.1350 C   0  0  0  0  0  0  0  0  0  0  0  0
  181.3710  179.1090  137.1100 N   0  0  0  0  0  2  0  0  0  0  0  0
  180.5910  179.5710  134.9440 O   0  0  0  0  0  0  0  0  0  0  0  0
  184.6440  173.3880  136.2530 C   0  0  0  0  0  0  0  0  0  0  0  0
  183.3020  173.7630  136.6390 N   0  0  0  0  0  0  0  0  0  0  0  0
  185.1130  172.2770  136.6310 O   0  0  0  0  0  0  0  0  0  0  0  0
  182.3840  172.7010  137.0460 C   0  0  0  0  0  2  0  0  0  0  0  0
  181.9440  171.9950  135.9250 O   0  0  0  0  0  1  0  0  0  0  0  0
  185.5010  174.2560  135.3900 C   0  0  0  0  0  2  0  0  0  0  0  0
  186.9530  173.8170  135.4560 C   0  0  0  0  0  2  0  0  0  0  0  0
  187.8180  175.0390  135.7640 C   0  0  1  0  0  3  0  0  0  0  0  0
  187.3100  177.5000  135.5330 C   0  0  0  0  0  1  0  0  0  0  0  0
  187.3040  176.4660  137.7540 C   0  0  0  0  0  1  0  0  0  0  0  0
  186.9910  176.2230  136.2900 C   0  0  0  0  0  3  0  0  0  0  0  0
  188.8960  173.3380  137.0880 O   0  0  0  0  0  1  0  0  0  0  0  0
  188.9740  174.6820  136.7100 C   0  0  1  0  0  3  0  0  0  0  0  0
  190.3440  174.9910  136.0950 C   0  0  2  0  0  3  0  0  0  0  0  0
  193.5100  176.0850  137.1050 N   0  0  0  0  0  1  0  0  0  0  0  0
  191.9380  174.4510  137.8260 N   0  0  0  0  0  2  0  0  0  0  0  0
  191.3810  173.9900  136.5650 C   0  0  0  0  0  2  0  0  0  0  0  0
  192.1940  175.8770  137.6830 C   0  0  2  0  0  3  0  0  0  0  0  0
  190.9260  176.6280  136.6180 S   0  0  0  0  0  0  0  0  0  0  0  0
  1 15  1  1  0  0  0
  2  6  2  0  0  0  0
  3  9  1  0  0  0  0
  4 10  1  0  0  0  0
  5 33  1  6  0  0  0
  5  3  1  0  0  0  0
  5  2  1  0  0  0  0
  6  1  1  0  0  0  0
  6  7  1  0  0  0  0
  8  7  2  0  0  0  0
  9  1  1  0  0  0  0
 10  8  1  0  0  0  0
 11  4  2  0  0  0  0
 11  2  1  0  0  0  0
 12 14  1  0  0  0  0
 13 12  2  0  0  0  0
 14 16  1  0  0  0  0
 15 12  1  0  0  0  0
 17 16  1  0  0  0  0
 17 18  1  0  0  0  0
 19 20  1  6  0  0  0
 19 18  1  0  0  0  0
 22 21  1  1  0  0  0
 22 19  1  0  0  0  0
 23 26  1  6  0  0  0
 23 22  1  0  0  0  0
 23 24  1  0  0  0  0
 24 25  1  0  0  0  0
 27 26  1  0  0  0  0
 28 31  1  0  0  0  0
 29 32  1  0  0  0  0
 30 29  1  0  0  0  0
 30 28  1  0  0  0  0
 32 31  1  0  0  0  0
 32 27  1  1  0  0  0
 34 33  1  0  0  0  0
 35 43  1  0  0  0  0
 35 37  1  0  0  0  0
 36 38  1  0  0  0  0
 37 34  1  0  0  0  0
 38 37  2  0  0  0  0
 39 35  2  0  0  0  0
 40 39  1  0  0  0  0
 40 36  2  0  0  0  0
 42 41  1  0  0  0  0
 42 43  1  0  0  0  0
 44 42  2  0  0  0  0
 45 47  2  0  0  0  0
 45 46  1  0  0  0  0
 46 36  1  0  0  0  0
 46 48  1  0  0  0  0
 49 48  1  0  0  0  0
 50 51  1  0  0  0  0
 50 45  1  0  0  0  0
 52 51  1  1  0  0  0
 52 55  1  0  0  0  0
 52 57  1  0  0  0  0
 53 55  1  0  0  0  0
 55 54  1  0  0  0  0
 57 56  1  6  0  0  0
 58 61  1  0  0  0  0
 58 63  1  0  0  0  0
 58 57  1  1  0  0  0
 61 60  1  0  0  0  0
 62 59  1  6  0  0  0
 62 60  1  0  0  0  0
 63 62  1  0  0  0  0
M  END
>  <MODEL>
2

>  <REMARK>
 VINA RESULT:      -6.1      4.337      9.855
  Name = 
  23 active torsions:
  status: ('A' for Active; 'I' for Inactive)
    1  A    between atoms: C_1  and  N_60
    2  A    between atoms: C_2  and  C_22
    3  A    between atoms: C_2  and  C_49
    4  A    between atoms: O_3  and  C_10
    5  A    between atoms: C_6  and  C_43
    6  A    between atoms: C_6  and  C_63
    7  A    between atoms: C_9  and  N_56
    8  A    between atoms: C_10  and  C_26
    9  A    between atoms: C_10  and  C_34
   10  A    between atoms: C_11  and  N_50
   11  A    between atoms: C_12  and  C_14
   12  A    between atoms: C_12  and  C_34
   13  A    between atoms: C_14  and  C_53
   14  A    between atoms: C_15  and  N_50
   15  A    between atoms: C_16  and  N_47
   16  A    between atoms: C_16  and  C_53
   17  A    between atoms: C_21  and  C_49
   18  A    between atoms: C_24  and  C_58
   19  A    between atoms: C_26  and  O_30
   20  A    between atoms: C_29  and  C_43
   21  A    between atoms: O_30  and  C_46
   22  A    between atoms: C_31  and  C_63
   23  A    between atoms: C_58  and  C_63
                            x       y       z     vdW  Elec       q    Type
                         _______ _______ _______ _____ _____    ______ ____

>  <TORSDO>
F 23

$$$$
=
 OpenBabel10232407443D

 63 67  0  0  1  0  0  0  0  0999 V2000
  189.4620  177.5720  140.5870 C   0  0  2  0  0  3  0  0  0  0  0  0
  187.8670  177.3960  142.4770 C   0  0  0  0  0  0  0  0  0  0  0  0
  187.3110  178.0450  140.1020 C   0  0  0  0  0  2  0  0  0  0  0  0
  188.0730  177.3600  144.9690 C   0  0  0  0  0  3  0  0  0  0  0  0
  186.7610  177.6510  141.4750 C   0  0  2  0  0  3  0  0  0  0  0  0
  189.1610  177.3420  142.0620 C   0  0  0  0  0  0  0  0  0  0  0  0
  190.3230  177.1150  142.9610 C   0  0  0  0  0  3  0  0  0  0  0  0
  190.4010  177.4570  144.2490 C   0  0  0  0  0  3  0  0  0  0  0  0
  188.3760  177.2000  139.7650 O   0  0  0  0  0  0  0  0  0  0  0  0
  189.3120  178.1820  144.9630 C   0  0  0  0  0  2  0  0  0  0  0  0
  187.4290  177.0380  143.8450 C   0  0  0  0  0  3  0  0  0  0  0  0
  191.2730  176.9990  138.8700 C   0  0  0  0  0  0  0  0  0  0  0  0
  190.7620  177.7640  138.0070 O   0  0  0  0  0  0  0  0  0  0  0  0
  192.4700  176.2790  138.5780 N   0  0  0  0  0  2  0  0  0  0  0  0
  190.6640  176.8530  140.1560 N   0  0  0  0  0  2  0  0  0  0  0  0
  193.1790  176.4420  137.3210 C   0  0  0  0  0  2  0  0  0  0  0  0
  194.1100  175.2700  137.0700 C   0  0  0  0  0  2  0  0  0  0  0  0
  194.8470  174.8750  138.3500 C   0  0  0  0  0  2  0  0  0  0  0  0
  195.7200  173.6290  138.1730 C   0  0  1  0  0  3  0  0  0  0  0  0
  194.8960  172.4860  137.5910 C   0  0  0  0  0  1  0  0  0  0  0  0
  197.4760  175.1830  137.5710 O   0  0  0  0  0  1  0  0  0  0  0  0
  196.9650  173.9070  137.3110 C   0  0  1  0  0  3  0  0  0  0  0  0
  198.0840  172.8700  137.4600 C   0  0  2  0  0  3  0  0  0  0  0  0
  199.3480  173.4650  137.3820 O   0  0  0  0  0  0  0  0  0  0  0  0
  200.2280  172.5060  137.8830 C   0  0  0  0  0  1  0  0  0  0  0  0
  197.9570  171.6900  136.4920 C   0  0  0  0  0  2  0  0  0  0  0  0
  198.0200  170.4720  137.1750 O   0  0  0  0  0  0  0  0  0  0  0  0
  195.6290  167.9260  136.6660 C   0  0  0  0  0  2  0  0  0  0  0  0
  196.3720  169.4200  138.3730 O   0  0  0  0  0  0  0  0  0  0  0  0
  195.4440  168.3970  138.0940 C   0  0  0  0  0  2  0  0  0  0  0  0
  196.6450  168.8660  136.0960 C   0  0  0  0  0  2  0  0  0  0  0  0
  196.7210  169.9640  137.1240 C   0  0  2  0  0  3  0  0  0  0  0  0
  185.7660  178.6940  141.9890 C   0  0  0  0  0  2  0  0  0  0  0  0
  184.3490  178.1430  142.0590 C   0  0  0  0  0  2  0  0  0  0  0  0
  182.2650  179.0230  140.8640 C   0  0  0  0  0  0  0  0  0  0  0  0
  183.3860  178.1990  138.4030 C   0  0  0  0  0  0  0  0  0  0  0  0
  183.5520  178.4410  140.8270 C   0  0  0  0  0  0  0  0  0  0  0  0
  184.0860  178.0230  139.6060 C   0  0  0  0  0  3  0  0  0  0  0  0
  181.5690  179.2130  139.6610 C   0  0  0  0  0  3  0  0  0  0  0  0
  182.1220  178.8030  138.4450 C   0  0  0  0  0  3  0  0  0  0  0  0
  180.2110  179.1810  144.0560 O   0  0  0  0  0  1  0  0  0  0  0  0
  180.5880  178.7440  142.7980 C   0  0  0  0  0  0  0  0  0  0  0  0
  181.6800  179.3860  142.1260 N   0  0  0  0  0  2  0  0  0  0  0  0
  179.9930  177.7600  142.2820 O   0  0  0  0  0  0  0  0  0  0  0  0
  183.1310  177.2070  136.0680 C   0  0  0  0  0  0  0  0  0  0  0  0
  183.9340  177.6750  137.1750 N   0  0  0  0  0  0  0  0  0  0  0  0
  183.6360  177.1490  134.9110 O   0  0  0  0  0  0  0  0  0  0  0  0
  185.3890  177.6300  137.0330 C   0  0  0  0  0  2  0  0  0  0  0  0
  185.8480  176.3270  137.2370 O   0  0  0  0  0  1  0  0  0  0  0  0
  181.7170  176.7550  136.2400 C   0  0  0  0  0  2  0  0  0  0  0  0
  181.5810  175.2750  135.9290 C   0  0  0  0  0  2  0  0  0  0  0  0
  181.8450  174.4830  137.2100 C   0  0  1  0  0  3  0  0  0  0  0  0
  181.8720  175.2720  139.6070 C   0  0  0  0  0  1  0  0  0  0  0  0
  179.9840  173.9390  138.7920 C   0  0  0  0  0  1  0  0  0  0  0  0
  181.0040  174.9880  138.3930 C   0  0  0  0  0  3  0  0  0  0  0  0
  180.9680  172.7430  135.7900 O   0  0  0  0  0  1  0  0  0  0  0  0
  181.6630  172.9750  136.9810 C   0  0  1  0  0  3  0  0  0  0  0  0
  183.0000  172.2240  136.9800 C   0  0  2  0  0  3  0  0  0  0  0  0
  185.8140  171.8390  134.9370 N   0  0  0  0  0  1  0  0  0  0  0  0
  184.5140  173.6540  135.7600 N   0  0  0  0  0  2  0  0  0  0  0  0
  184.1610  173.1930  137.0930 C   0  0  0  0  0  2  0  0  0  0  0  0
  184.5150  172.4870  134.8900 C   0  0  2  0  0  3  0  0  0  0  0  0
  183.2250  171.3210  135.4220 S   0  0  0  0  0  0  0  0  0  0  0  0
  1 15  1  6  0  0  0
  1  6  1  0  0  0  0
  2 11  1  0  0  0  0
  3  5  1  0  0  0  0
  5 33  1  1  0  0  0
  5  2  1  0  0  0  0
  6  2  2  0  0  0  0
  6  7  1  0  0  0  0
  7  8  2  0  0  0  0
  8 10  1  0  0  0  0
  9  3  1  0  0  0  0
  9  1  1  0  0  0  0
 10  4  1  0  0  0  0
 11  4  2  0  0  0  0
 12 15  1  0  0  0  0
 13 12  2  0  0  0  0
 14 12  1  0  0  0  0
 16 14  1  0  0  0  0
 17 16  1  0  0  0  0
 17 18  1  0  0  0  0
 19 20  1  6  0  0  0
 19 18  1  0  0  0  0
 22 23  1  0  0  0  0
 22 21  1  1  0  0  0
 22 19  1  0  0  0  0
 23 26  1  6  0  0  0
 24 23  1  0  0  0  0
 24 25  1  0  0  0  0
 26 27  1  0  0  0  0
 28 30  1  0  0  0  0
 30 29  1  0  0  0  0
 31 28  1  0  0  0  0
 31 32  1  0  0  0  0
 32 27  1  1  0  0  0
 32 29  1  0  0  0  0
 33 34  1  0  0  0  0
 35 43  1  0  0  0  0
 36 40  2  0  0  0  0
 36 38  1  0  0  0  0
 37 35  1  0  0  0  0
 37 34  1  0  0  0  0
 38 37  2  0  0  0  0
 39 35  2  0  0  0  0
 40 39  1  0  0  0  0
 42 41  1  0  0  0  0
 43 42  1  0  0  0  0
 44 42  2  0  0  0  0
 45 50  1  0  0  0  0
 45 46  1  0  0  0  0
 46 36  1  0  0  0  0
 47 45  2  0  0  0  0
 48 46  1  0  0  0  0
 48 49  1  0  0  0  0
 51 50  1  0  0  0  0
 52 51  1  6  0  0  0
 52 55  1  0  0  0  0
 55 54  1  0  0  0  0
 55 53  1  0  0  0  0
 57 56  1  6  0  0  0
 57 52  1  0  0  0  0
 58 57  1  6  0  0  0
 58 61  1  0  0  0  0
 60 61  1  0  0  0  0
 62 59  1  1  0  0  0
 62 63  1  0  0  0  0
 62 60  1  0  0  0  0
 63 58  1  0  0  0  0
M  END
>  <MODEL>
3

>  <REMARK>
 VINA RESULT:      -5.5      2.809      6.837
  Name = 
  23 active torsions:
  status: ('A' for Active; 'I' for Inactive)
    1  A    between atoms: C_1  and  N_60
    2  A    between atoms: C_2  and  C_22
    3  A    between atoms: C_2  and  C_49
    4  A    between atoms: O_3  and  C_10
    5  A    between atoms: C_6  and  C_43
    6  A    between atoms: C_6  and  C_63
    7  A    between atoms: C_9  and  N_56
    8  A    between atoms: C_10  and  C_26
    9  A    between atoms: C_10  and  C_34
   10  A    between atoms: C_11  and  N_50
   11  A    between atoms: C_12  and  C_14
   12  A    between atoms: C_12  and  C_34
   13  A    between atoms: C_14  and  C_53
   14  A    between atoms: C_15  and  N_50
   15  A    between atoms: C_16  and  N_47
   16  A    between atoms: C_16  and  C_53
   17  A    between atoms: C_21  and  C_49
   18  A    between atoms: C_24  and  C_58
   19  A    between atoms: C_26  and  O_30
   20  A    between atoms: C_29  and  C_43
   21  A    between atoms: O_30  and  C_46
   22  A    between atoms: C_31  and  C_63
   23  A    between atoms: C_58  and  C_63
                            x       y       z     vdW  Elec       q    Type
                         _______ _______ _______ _____ _____    ______ ____

>  <TORSDO>
F 23

$$$$
=
 OpenBabel10232407443D

 63 67  0  0  1  0  0  0  0  0999 V2000
  186.3700  175.3240  135.2990 C   0  0  2  0  0  3  0  0  0  0  0  0
  187.9420  173.5030  135.9030 C   0  0  0  0  0  0  0  0  0  0  0  0
  188.4970  175.9580  135.7060 C   0  0  0  0  0  2  0  0  0  0  0  0
  187.9470  171.0150  135.6550 C   0  0  0  0  0  3  0  0  0  0  0  0
  188.9760  174.5780  136.1630 C   0  0  2  0  0  3  0  0  0  0  0  0
  186.6880  173.8490  135.5030 C   0  0  0  0  0  0  0  0  0  0  0  0
  185.6050  172.8760  135.2040 C   0  0  0  0  0  3  0  0  0  0  0  0
  185.7660  171.6300  134.7530 C   0  0  0  0  0  3  0  0  0  0  0  0
  187.1710  176.1520  136.1160 O   0  0  0  0  0  0  0  0  0  0  0  0
  187.1000  171.0500  134.4320 C   0  0  0  0  0  2  0  0  0  0  0  0
  188.3310  172.1260  136.2860 C   0  0  0  0  0  3  0  0  0  0  0  0
  184.2700  176.7630  135.0380 C   0  0  0  0  0  0  0  0  0  0  0  0
  184.8850  177.6190  134.3460 O   0  0  0  0  0  0  0  0  0  0  0  0
  182.8780  176.9220  135.3110 N   0  0  0  0  0  2  0  0  0  0  0  0
  184.9570  175.6170  135.5490 N   0  0  0  0  0  2  0  0  0  0  0  0
  182.1050  178.0210  134.7590 C   0  0  0  0  0  2  0  0  0  0  0  0
  180.7750  178.1590  135.4740 C   0  0  0  0  0  2  0  0  0  0  0  0
  180.9770  178.6220  136.9180 C   0  0  0  0  0  2  0  0  0  0  0  0
  180.2480  177.7370  137.9330 C   0  0  1  0  0  3  0  0  0  0  0  0
  180.2290  176.2900  137.4540 C   0  0  0  0  0  1  0  0  0  0  0  0
  180.8310  176.6050  139.9930 O   0  0  0  0  0  1  0  0  0  0  0  0
  180.8560  177.8440  139.3440 C   0  0  1  0  0  3  0  0  0  0  0  0
  182.2800  178.4090  139.3800 C   0  0  2  0  0  3  0  0  0  0  0  0
  183.1810  177.5700  138.7150 O   0  0  0  0  0  0  0  0  0  0  0  0
  184.3110  178.3590  138.4960 C   0  0  0  0  0  1  0  0  0  0  0  0
  182.7660  178.7530  140.7910 C   0  0  0  0  0  2  0  0  0  0  0  0
  183.6040  177.7510  141.2910 O   0  0  0  0  0  0  0  0  0  0  0  0
  184.7110  179.6410  144.0580 C   0  0  0  0  0  2  0  0  0  0  0  0
  182.6810  178.8850  143.0570 O   0  0  0  0  0  0  0  0  0  0  0  0
  183.1990  179.6260  144.1380 C   0  0  0  0  0  2  0  0  0  0  0  0
  185.0300  178.7220  142.9210 C   0  0  0  0  0  2  0  0  0  0  0  0
  183.7200  178.0280  142.6540 C   0  0  2  0  0  3  0  0  0  0  0  0
  190.3240  174.2270  135.5290 C   0  0  0  0  0  2  0  0  0  0  0  0
  191.2240  175.4460  135.3940 C   0  0  0  0  0  2  0  0  0  0  0  0
  192.8280  175.8830  137.3390 C   0  0  0  0  0  0  0  0  0  0  0  0
  190.7640  177.2910  138.6620 C   0  0  0  0  0  0  0  0  0  0  0  0
  191.5720  176.0570  136.7170 C   0  0  0  0  0  0  0  0  0  0  0  0
  190.5550  176.7390  137.3890 C   0  0  0  0  0  3  0  0  0  0  0  0
  193.0430  176.4460  138.6060 C   0  0  0  0  0  3  0  0  0  0  0  0
  192.0230  177.1400  139.2610 C   0  0  0  0  0  3  0  0  0  0  0  0
  195.7050  174.6940  135.1620 O   0  0  0  0  0  1  0  0  0  0  0  0
  194.7120  175.5440  135.6180 C   0  0  0  0  0  0  0  0  0  0  0  0
  193.8520  175.1170  136.6820 N   0  0  0  0  0  2  0  0  0  0  0  0
  194.6100  176.6970  135.1190 O   0  0  0  0  0  0  0  0  0  0  0  0
  189.4490  177.8060  140.7850 C   0  0  0  0  0  0  0  0  0  0  0  0
  189.6640  177.9130  139.3600 N   0  0  0  0  0  0  0  0  0  0  0  0
  188.7410  178.6700  141.3750 O   0  0  0  0  0  0  0  0  0  0  0  0
  188.7190  178.7120  138.5820 C   0  0  0  0  0  2  0  0  0  0  0  0
  187.5560  177.9770  138.3420 O   0  0  0  0  0  1  0  0  0  0  0  0
  190.0130  176.6860  141.5980 C   0  0  0  0  0  2  0  0  0  0  0  0
  189.0340  176.2550  142.6750 C   0  0  0  0  0  2  0  0  0  0  0  0
  189.6850  176.4730  144.0410 C   0  0  1  0  0  3  0  0  0  0  0  0
  191.9710  176.2050  145.0760 C   0  0  0  0  0  1  0  0  0  0  0  0
  191.3800  178.3120  143.9730 C   0  0  0  0  0  1  0  0  0  0  0  0
  191.1800  176.8100  143.9290 C   0  0  0  0  0  3  0  0  0  0  0  0
  187.9340  178.1290  144.0810 O   0  0  0  0  0  1  0  0  0  0  0  0
  188.9220  177.5230  144.8630 C   0  0  1  0  0  3  0  0  0  0  0  0
  188.3110  176.9290  146.1380 C   0  0  2  0  0  3  0  0  0  0  0  0
  187.9170  177.7580  149.5140 N   0  0  0  0  0  1  0  0  0  0  0  0
  187.5770  178.8370  147.4210 N   0  0  0  0  0  2  0  0  0  0  0  0
  187.1120  177.7410  146.5870 C   0  0  0  0  0  2  0  0  0  0  0  0
  188.5720  178.2900  148.3310 C   0  0  2  0  0  3  0  0  0  0  0  0
  189.5090  176.9720  147.5000 S   0  0  0  0  0  0  0  0  0  0  0  0
  1  6  1  0  0  0  0
  1 15  1  1  0  0  0
  1  9  1  0  0  0  0
  2  5  1  0  0  0  0
  2 11  1  0  0  0  0
  3  9  1  0  0  0  0
  3  5  1  0  0  0  0
  4 11  2  0  0  0  0
  5 33  1  6  0  0  0
  6  2  2  0  0  0  0
  7  6  1  0  0  0  0
  8  7  2  0  0  0  0
 10  8  1  0  0  0  0
 10  4  1  0  0  0  0
 12 14  1  0  0  0  0
 12 15  1  0  0  0  0
 13 12  2  0  0  0  0
 16 14  1  0  0  0  0
 16 17  1  0  0  0  0
 17 18  1  0  0  0  0
 18 19  1  0  0  0  0
 19 20  1  6  0  0  0
 19 22  1  0  0  0  0
 22 23  1  0  0  0  0
 22 21  1  6  0  0  0
 23 26  1  1  0  0  0
 24 23  1  0  0  0  0
 25 24  1  0  0  0  0
 26 27  1  0  0  0  0
 28 30  1  0  0  0  0
 29 30  1  0  0  0  0
 31 28  1  0  0  0  0
 32 27  1  6  0  0  0
 32 31  1  0  0  0  0
 32 29  1  0  0  0  0
 34 33  1  0  0  0  0
 34 37  1  0  0  0  0
 35 39  1  0  0  0  0
 36 40  1  0  0  0  0
 36 46  1  0  0  0  0
 37 35  2  0  0  0  0
 37 38  1  0  0  0  0
 38 36  2  0  0  0  0
 39 40  2  0  0  0  0
 41 42  1  0  0  0  0
 42 43  1  0  0  0  0
 43 35  1  0  0  0  0
 44 42  2  0  0  0  0
 45 47  2  0  0  0  0
 45 50  1  0  0  0  0
 46 45  1  0  0  0  0
 48 46  1  0  0  0  0
 49 48  1  0  0  0  0
 50 51  1  0  0  0  0
 52 51  1  6  0  0  0
 52 57  1  0  0  0  0
 55 54  1  0  0  0  0
 55 52  1  0  0  0  0
 55 53  1  0  0  0  0
 57 56  1  6  0  0  0
 58 57  1  6  0  0  0
 58 61  1  0  0  0  0
 58 63  1  0  0  0  0
 60 62  1  0  0  0  0
 61 60  1  0  0  0  0
 62 59  1  1  0  0  0
 63 62  1  0  0  0  0
M  END
>  <MODEL>
4

>  <REMARK>
 VINA RESULT:      -5.5      3.139     10.636
  Name = 
  23 active torsions:
  status: ('A' for Active; 'I' for Inactive)
    1  A    between atoms: C_1  and  N_60
    2  A    between atoms: C_2  and  C_22
    3  A    between atoms: C_2  and  C_49
    4  A    between atoms: O_3  and  C_10
    5  A    between atoms: C_6  and  C_43
    6  A    between atoms: C_6  and  C_63
    7  A    between atoms: C_9  and  N_56
    8  A    between atoms: C_10  and  C_26
    9  A    between atoms: C_10  and  C_34
   10  A    between atoms: C_11  and  N_50
   11  A    between atoms: C_12  and  C_14
   12  A    between atoms: C_12  and  C_34
   13  A    between atoms: C_14  and  C_53
   14  A    between atoms: C_15  and  N_50
   15  A    between atoms: C_16  and  N_47
   16  A    between atoms: C_16  and  C_53
   17  A    between atoms: C_21  and  C_49
   18  A    between atoms: C_24  and  C_58
   19  A    between atoms: C_26  and  O_30
   20  A    between atoms: C_29  and  C_43
   21  A    between atoms: O_30  and  C_46
   22  A    between atoms: C_31  and  C_63
   23  A    between atoms: C_58  and  C_63
                            x       y       z     vdW  Elec       q    Type
                         _______ _______ _______ _____ _____    ______ ____

>  <TORSDO>
F 23

$$$$
=
 OpenBabel10232407443D

 63 67  0  0  1  0  0  0  0  0999 V2000
  189.8410  177.3530  143.8970 C   0  0  2  0  0  3  0  0  0  0  0  0
  189.7240  177.1710  141.4260 C   0  0  0  0  0  0  0  0  0  0  0  0
  191.8190  177.1370  142.8340 C   0  0  0  0  0  2  0  0  0  0  0  0
  188.0070  177.7170  139.6910 C   0  0  0  0  0  3  0  0  0  0  0  0
  191.2160  176.9130  141.4450 C   0  0  2  0  0  3  0  0  0  0  0  0
  189.0540  177.3700  142.5930 C   0  0  0  0  0  0  0  0  0  0  0  0
  187.5960  177.6480  142.6880 C   0  0  0  0  0  3  0  0  0  0  0  0
  186.8500  178.2630  141.7680 C   0  0  0  0  0  3  0  0  0  0  0  0
  190.9970  176.5470  143.8020 O   0  0  0  0  0  0  0  0  0  0  0  0
  187.4130  178.8130  140.5020 C   0  0  0  0  0  2  0  0  0  0  0  0
  189.0560  177.0090  140.1140 C   0  0  0  0  0  3  0  0  0  0  0  0
  188.1750  177.7490  145.7980 C   0  0  0  0  0  0  0  0  0  0  0  0
  188.1150  178.9850  145.5530 O   0  0  0  0  0  0  0  0  0  0  0  0
  187.3890  177.1840  146.8470 N   0  0  0  0  0  2  0  0  0  0  0  0
  189.0230  176.8980  145.0240 N   0  0  0  0  0  2  0  0  0  0  0  0
  186.4500  177.9800  147.6200 C   0  0  0  0  0  2  0  0  0  0  0  0
  185.7350  178.9840  146.7360 C   0  0  0  0  0  2  0  0  0  0  0  0
  184.4840  178.3650  146.1100 C   0  0  0  0  0  2  0  0  0  0  0  0
  183.8740  179.2420  145.0130 C   0  0  1  0  0  3  0  0  0  0  0  0
  184.9740  179.8550  144.1540 C   0  0  0  0  0  1  0  0  0  0  0  0
  181.7090  178.1660  144.8800 O   0  0  0  0  0  1  0  0  0  0  0  0
  182.8600  178.4720  144.1460 C   0  0  1  0  0  3  0  0  0  0  0  0
  182.4640  179.1840  142.8490 C   0  0  2  0  0  3  0  0  0  0  0  0
  181.0860  179.4250  142.7960 O   0  0  0  0  0  0  0  0  0  0  0  0
  180.8070  179.6210  141.4440 C   0  0  0  0  0  1  0  0  0  0  0  0
  182.9600  178.4750  141.5850 C   0  0  0  0  0  2  0  0  0  0  0  0
  183.8900  179.2620  140.9000 O   0  0  0  0  0  0  0  0  0  0  0  0
  182.0780  177.9020  138.1930 C   0  0  0  0  0  2  0  0  0  0  0  0
  182.9250  179.9990  138.9570 O   0  0  0  0  0  0  0  0  0  0  0  0
  182.2090  179.3850  137.9100 C   0  0  0  0  0  2  0  0  0  0  0  0
  182.9090  177.6870  139.4210 C   0  0  0  0  0  2  0  0  0  0  0  0
  183.6810  178.9740  139.5510 C   0  0  2  0  0  3  0  0  0  0  0  0
  191.9440  177.7450  140.3880 C   0  0  0  0  0  2  0  0  0  0  0  0
  192.9310  176.9090  139.5850 C   0  0  0  0  0  2  0  0  0  0  0  0
  193.1900  175.8830  137.2560 C   0  0  0  0  0  0  0  0  0  0  0  0
  190.5600  176.7200  136.6460 C   0  0  0  0  0  0  0  0  0  0  0  0
  192.4070  176.5390  138.2320 C   0  0  0  0  0  0  0  0  0  0  0  0
  191.1150  176.9630  137.9110 C   0  0  0  0  0  3  0  0  0  0  0  0
  192.6320  175.6270  135.9950 C   0  0  0  0  0  3  0  0  0  0  0  0
  191.3330  176.0430  135.6930 C   0  0  0  0  0  3  0  0  0  0  0  0
  196.3950  174.0230  138.0930 O   0  0  0  0  0  1  0  0  0  0  0  0
  195.0350  174.2140  137.9190 C   0  0  0  0  0  0  0  0  0  0  0  0
  194.5460  175.5130  137.5580 N   0  0  0  0  0  2  0  0  0  0  0  0
  194.2530  173.2330  138.0390 O   0  0  0  0  0  0  0  0  0  0  0  0
  188.0790  176.4330  136.1290 C   0  0  0  0  0  0  0  0  0  0  0  0
  189.2560  177.2500  136.3260 N   0  0  0  0  0  0  0  0  0  0  0  0
  186.9330  176.9500  136.2540 O   0  0  0  0  0  0  0  0  0  0  0  0
  189.1100  178.7000  136.2090 C   0  0  0  0  0  2  0  0  0  0  0  0
  188.4560  179.2050  137.3340 O   0  0  0  0  0  1  0  0  0  0  0  0
  188.1610  174.9900  135.7500 C   0  0  0  0  0  2  0  0  0  0  0  0
  186.8390  174.5050  135.1830 C   0  0  0  0  0  2  0  0  0  0  0  0
  186.6810  173.0210  135.5150 C   0  0  1  0  0  3  0  0  0  0  0  0
  188.0390  171.2430  134.3480 C   0  0  0  0  0  1  0  0  0  0  0  0
  188.2430  171.5250  136.7740 C   0  0  0  0  0  1  0  0  0  0  0  0
  188.0190  172.2660  135.4710 C   0  0  0  0  0  3  0  0  0  0  0  0
  185.7760  174.0530  137.4980 O   0  0  0  0  0  1  0  0  0  0  0  0
  185.9570  172.8230  136.8560 C   0  0  1  0  0  3  0  0  0  0  0  0
  184.6160  172.1000  136.6890 C   0  0  2  0  0  3  0  0  0  0  0  0
  181.5920  172.4980  134.9740 N   0  0  0  0  0  1  0  0  0  0  0  0
  183.9080  172.6160  134.4400 N   0  0  0  0  0  2  0  0  0  0  0  0
  184.4650  171.5670  135.2770 C   0  0  0  0  0  2  0  0  0  0  0  0
  182.8260  173.2340  135.1920 C   0  0  2  0  0  3  0  0  0  0  0  0
  183.2340  173.2430  136.9640 S   0  0  0  0  0  0  0  0  0  0  0  0
  1 15  1  1  0  0  0
  2  5  1  0  0  0  0
  2  6  2  0  0  0  0
  3  9  1  0  0  0  0
  4 11  2  0  0  0  0
  4 10  1  0  0  0  0
  5 33  1  6  0  0  0
  5  3  1  0  0  0  0
  6  7  1  0  0  0  0
  6  1  1  0  0  0  0
  8  7  2  0  0  0  0
  9  1  1  0  0  0  0
 10  8  1  0  0  0  0
 11  2  1  0  0  0  0
 12 14  1  0  0  0  0
 13 12  2  0  0  0  0
 14 16  1  0  0  0  0
 15 12  1  0  0  0  0
 17 16  1  0  0  0  0
 18 17  1  0  0  0  0
 19 20  1  6  0  0  0
 19 18  1  0  0  0  0
 22 21  1  1  0  0  0
 22 19  1  0  0  0  0
 23 26  1  6  0  0  0
 23 22  1  0  0  0  0
 24 23  1  0  0  0  0
 25 24  1  0  0  0  0
 27 26  1  0  0  0  0
 28 31  1  0  0  0  0
 29 32  1  0  0  0  0
 30 28  1  0  0  0  0
 30 29  1  0  0  0  0
 31 32  1  0  0  0  0
 32 27  1  1  0  0  0
 34 33  1  0  0  0  0
 35 43  1  0  0  0  0
 35 37  1  0  0  0  0
 36 38  1  0  0  0  0
 37 34  1  0  0  0  0
 38 37  2  0  0  0  0
 39 35  2  0  0  0  0
 40 39  1  0  0  0  0
 40 36  2  0  0  0  0
 42 44  2  0  0  0  0
 42 41  1  0  0  0  0
 43 42  1  0  0  0  0
 45 47  2  0  0  0  0
 45 46  1  0  0  0  0
 46 36  1  0  0  0  0
 48 46  1  0  0  0  0
 48 49  1  0  0  0  0
 50 45  1  0  0  0  0
 51 50  1  0  0  0  0
 52 51  1  1  0  0  0
 52 57  1  0  0  0  0
 53 55  1  0  0  0  0
 55 52  1  0  0  0  0
 55 54  1  0  0  0  0
 57 56  1  6  0  0  0
 58 57  1  6  0  0  0
 58 63  1  0  0  0  0
 60 62  1  0  0  0  0
 60 61  1  0  0  0  0
 61 58  1  0  0  0  0
 62 59  1  1  0  0  0
 62 63  1  0  0  0  0
M  END
>  <MODEL>
5

>  <REMARK>
 VINA RESULT:      -5.3      3.108     12.116
  Name = 
  23 active torsions:
  status: ('A' for Active; 'I' for Inactive)
    1  A    between atoms: C_1  and  N_60
    2  A    between atoms: C_2  and  C_22
    3  A    between atoms: C_2  and  C_49
    4  A    between atoms: O_3  and  C_10
    5  A    between atoms: C_6  and  C_43
    6  A    between atoms: C_6  and  C_63
    7  A    between atoms: C_9  and  N_56
    8  A    between atoms: C_10  and  C_26
    9  A    between atoms: C_10  and  C_34
   10  A    between atoms: C_11  and  N_50
   11  A    between atoms: C_12  and  C_14
   12  A    between atoms: C_12  and  C_34
   13  A    between atoms: C_14  and  C_53
   14  A    between atoms: C_15  and  N_50
   15  A    between atoms: C_16  and  N_47
   16  A    between atoms: C_16  and  C_53
   17  A    between atoms: C_21  and  C_49
   18  A    between atoms: C_24  and  C_58
   19  A    between atoms: C_26  and  O_30
   20  A    between atoms: C_29  and  C_43
   21  A    between atoms: O_30  and  C_46
   22  A    between atoms: C_31  and  C_63
   23  A    between atoms: C_58  and  C_63
                            x       y       z     vdW  Elec       q    Type
                         _______ _______ _______ _____ _____    ______ ____

>  <TORSDO>
F 23

$$$$
=
 OpenBabel10232407443D

 63 67  0  0  1  0  0  0  0  0999 V2000
  189.7700  176.5490  138.5800 C   0  0  2  0  0  3  0  0  0  0  0  0
  190.0280  176.0810  136.1580 C   0  0  0  0  0  0  0  0  0  0  0  0
  187.8540  176.2350  137.4310 C   0  0  0  0  0  2  0  0  0  0  0  0
  191.9030  175.3050  134.6970 C   0  0  0  0  0  3  0  0  0  0  0  0
  188.5200  176.1540  136.0550 C   0  0  2  0  0  3  0  0  0  0  0  0
  190.6390  176.2820  137.3580 C   0  0  0  0  0  0  0  0  0  0  0  0
  192.1080  176.2160  137.5740 C   0  0  0  0  0  3  0  0  0  0  0  0
  192.9740  175.4740  136.8810 C   0  0  0  0  0  3  0  0  0  0  0  0
  188.5440  177.1560  138.2310 O   0  0  0  0  0  0  0  0  0  0  0  0
  192.5570  174.5430  135.7940 C   0  0  0  0  0  2  0  0  0  0  0  0
  190.7590  175.9690  134.8750 C   0  0  0  0  0  3  0  0  0  0  0  0
  190.6970  176.9930  140.9240 C   0  0  0  0  0  0  0  0  0  0  0  0
  190.2790  175.8830  141.3510 O   0  0  0  0  0  0  0  0  0  0  0  0
  191.4190  177.8710  141.7860 N   0  0  0  0  0  2  0  0  0  0  0  0
  190.4600  177.3820  139.5680 N   0  0  0  0  0  2  0  0  0  0  0  0
  191.7600  177.5050  143.1500 C   0  0  0  0  0  2  0  0  0  0  0  0
  191.3510  178.5960  144.1210 C   0  0  0  0  0  2  0  0  0  0  0  0
  189.8990  178.4150  144.5660 C   0  0  0  0  0  2  0  0  0  0  0  0
  189.6060  177.0000  145.0720 C   0  0  1  0  0  3  0  0  0  0  0  0
  190.8610  176.1390  144.9900 C   0  0  0  0  0  1  0  0  0  0  0  0
  190.0290  177.2460  147.4440 O   0  0  0  0  0  1  0  0  0  0  0  0
  189.0270  176.9990  146.4990 C   0  0  1  0  0  3  0  0  0  0  0  0
  187.8710  177.9810  146.7150 C   0  0  2  0  0  3  0  0  0  0  0  0
  187.0710  177.6010  147.7990 O   0  0  0  0  0  0  0  0  0  0  0  0
  187.8770  177.7870  148.9230 C   0  0  0  0  0  1  0  0  0  0  0  0
  187.0330  178.2260  145.4570 C   0  0  0  0  0  2  0  0  0  0  0  0
  186.3000  177.0870  145.1120 O   0  0  0  0  0  0  0  0  0  0  0  0
  184.5140  179.4960  143.2500 C   0  0  0  0  0  2  0  0  0  0  0  0
  186.2230  177.8570  142.9540 O   0  0  0  0  0  0  0  0  0  0  0  0
  185.4700  178.8370  142.2770 C   0  0  0  0  0  2  0  0  0  0  0  0
  184.6760  178.7120  144.5150 C   0  0  0  0  0  2  0  0  0  0  0  0
  185.4580  177.5010  144.0780 C   0  0  2  0  0  3  0  0  0  0  0  0
  187.9550  174.9890  135.2390 C   0  0  0  0  0  2  0  0  0  0  0  0
  186.5600  175.2890  134.7090 C   0  0  0  0  0  2  0  0  0  0  0  0
  185.7310  172.8830  134.9750 C   0  0  0  0  0  0  0  0  0  0  0  0
  183.2990  173.8860  136.0090 C   0  0  0  0  0  0  0  0  0  0  0  0
  185.5470  174.2740  135.1420 C   0  0  0  0  0  0  0  0  0  0  0  0
  184.3340  174.7570  135.6380 C   0  0  0  0  0  3  0  0  0  0  0  0
  184.7020  172.0100  135.3590 C   0  0  0  0  0  3  0  0  0  0  0  0
  183.4990  172.5060  135.8680 C   0  0  0  0  0  3  0  0  0  0  0  0
  189.1790  171.4110  134.3620 O   0  0  0  0  0  0  0  0  0  0  0  0
  188.1240  171.9390  135.0860 C   0  0  0  0  0  0  0  0  0  0  0  0
  186.9490  172.3870  134.3950 N   0  0  0  0  0  2  0  0  0  0  0  0
  188.1960  171.9780  136.3430 O   0  0  0  0  0  1  0  0  0  0  0  0
  181.4660  175.6580  135.9270 C   0  0  0  0  0  0  0  0  0  0  0  0
  182.0300  174.4270  136.4350 N   0  0  0  0  0  0  0  0  0  0  0  0
  180.2230  175.8600  136.0230 O   0  0  0  0  0  0  0  0  0  0  0  0
  181.2590  173.6780  137.4250 C   0  0  0  0  0  2  0  0  0  0  0  0
  180.2460  172.9530  136.7930 O   0  0  0  0  0  1  0  0  0  0  0  0
  182.3070  176.7290  135.3120 C   0  0  0  0  0  2  0  0  0  0  0  0
  181.9020  178.0980  135.8310 C   0  0  0  0  0  2  0  0  0  0  0  0
  181.9140  178.0610  137.3590 C   0  0  1  0  0  3  0  0  0  0  0  0
  183.2090  176.5520  138.9120 C   0  0  0  0  0  1  0  0  0  0  0  0
  183.8830  178.8950  138.6590 C   0  0  0  0  0  1  0  0  0  0  0  0
  183.2970  177.7040  137.9260 C   0  0  0  0  0  3  0  0  0  0  0  0
  180.8670  180.1930  136.9410 O   0  0  0  0  0  1  0  0  0  0  0  0
  181.3730  179.3710  137.9540 C   0  0  1  0  0  3  0  0  0  0  0  0
  180.3090  179.1240  139.0290 C   0  0  2  0  0  3  0  0  0  0  0  0
  179.9960  177.5100  142.1180 N   0  0  0  0  0  1  0  0  0  0  0  0
  181.5370  179.0130  141.1040 N   0  0  0  0  0  2  0  0  0  0  0  0
  180.6590  179.8560  140.3100 C   0  0  0  0  0  2  0  0  0  0  0  0
  180.9860  177.6670  141.0660 C   0  0  2  0  0  3  0  0  0  0  0  0
  180.2190  177.3600  139.4460 S   0  0  0  0  0  0  0  0  0  0  0  0
  1 15  1  1  0  0  0
  2  6  2  0  0  0  0
  3  9  1  0  0  0  0
  4 11  2  0  0  0  0
  4 10  1  0  0  0  0
  5 33  1  1  0  0  0
  5  2  1  0  0  0  0
  5  3  1  0  0  0  0
  6  7  1  0  0  0  0
  6  1  1  0  0  0  0
  8  7  2  0  0  0  0
  9  1  1  0  0  0  0
 10  8  1  0  0  0  0
 11  2  1  0  0  0  0
 12 13  2  0  0  0  0
 12 14  1  0  0  0  0
 14 16  1  0  0  0  0
 15 12  1  0  0  0  0
 16 17  1  0  0  0  0
 17 18  1  0  0  0  0
 18 19  1  0  0  0  0
 19 20  1  1  0  0  0
 19 22  1  0  0  0  0
 22 23  1  0  0  0  0
 22 21  1  1  0  0  0
 23 26  1  6  0  0  0
 23 24  1  0  0  0  0
 24 25  1  0  0  0  0
 27 26  1  0  0  0  0
 28 31  1  0  0  0  0
 29 32  1  0  0  0  0
 30 29  1  0  0  0  0
 30 28  1  0  0  0  0
 32 31  1  0  0  0  0
 32 27  1  1  0  0  0
 34 37  1  0  0  0  0
 34 33  1  0  0  0  0
 35 37  2  0  0  0  0
 35 39  1  0  0  0  0
 36 46  1  0  0  0  0
 37 38  1  0  0  0  0
 38 36  2  0  0  0  0
 39 40  2  0  0  0  0
 40 36  1  0  0  0  0
 41 42  2  0  0  0  0
 42 44  1  0  0  0  0
 43 35  1  0  0  0  0
 43 42  1  0  0  0  0
 45 47  2  0  0  0  0
 45 46  1  0  0  0  0
 46 48  1  0  0  0  0
 49 48  1  0  0  0  0
 50 51  1  0  0  0  0
 50 45  1  0  0  0  0
 52 51  1  6  0  0  0
 52 55  1  0  0  0  0
 52 57  1  0  0  0  0
 55 54  1  0  0  0  0
 55 53  1  0  0  0  0
 57 56  1  6  0  0  0
 58 57  1  6  0  0  0
 58 63  1  0  0  0  0
 58 61  1  0  0  0  0
 61 60  1  0  0  0  0
 62 60  1  0  0  0  0
 62 59  1  1  0  0  0
 63 62  1  0  0  0  0
M  END
>  <MODEL>
6

>  <REMARK>
 VINA RESULT:      -4.6      4.258      9.923
  Name = 
  23 active torsions:
  status: ('A' for Active; 'I' for Inactive)
    1  A    between atoms: C_1  and  N_60
    2  A    between atoms: C_2  and  C_22
    3  A    between atoms: C_2  and  C_49
    4  A    between atoms: O_3  and  C_10
    5  A    between atoms: C_6  and  C_43
    6  A    between atoms: C_6  and  C_63
    7  A    between atoms: C_9  and  N_56
    8  A    between atoms: C_10  and  C_26
    9  A    between atoms: C_10  and  C_34
   10  A    between atoms: C_11  and  N_50
   11  A    between atoms: C_12  and  C_14
   12  A    between atoms: C_12  and  C_34
   13  A    between atoms: C_14  and  C_53
   14  A    between atoms: C_15  and  N_50
   15  A    between atoms: C_16  and  N_47
   16  A    between atoms: C_16  and  C_53
   17  A    between atoms: C_21  and  C_49
   18  A    between atoms: C_24  and  C_58
   19  A    between atoms: C_26  and  O_30
   20  A    between atoms: C_29  and  C_43
   21  A    between atoms: O_30  and  C_46
   22  A    between atoms: C_31  and  C_63
   23  A    between atoms: C_58  and  C_63
                            x       y       z     vdW  Elec       q    Type
                         _______ _______ _______ _____ _____    ______ ____

>  <TORSDO>
F 23

$$$$
=
 OpenBabel10232407443D

 63 67  0  0  1  0  0  0  0  0999 V2000
  186.0930  174.7700  135.0910 C   0  0  2  0  0  3  0  0  0  0  0  0
  187.5060  172.8850  135.8670 C   0  0  0  0  0  0  0  0  0  0  0  0
  188.1990  175.3070  135.6980 C   0  0  0  0  0  2  0  0  0  0  0  0
  187.4120  170.3960  135.6480 C   0  0  0  0  0  3  0  0  0  0  0  0
  188.5630  173.9120  136.2150 C   0  0  2  0  0  3  0  0  0  0  0  0
  186.3160  173.2840  135.3420 C   0  0  0  0  0  0  0  0  0  0  0  0
  185.2200  172.3600  134.9490 C   0  0  0  0  0  3  0  0  0  0  0  0
  185.3620  171.1010  134.5300 C   0  0  0  0  0  3  0  0  0  0  0  0
  186.8510  175.5700  135.9740 O   0  0  0  0  0  0  0  0  0  0  0  0
  186.6910  170.4520  134.3480 C   0  0  0  0  0  2  0  0  0  0  0  0
  187.7870  171.4970  136.3010 C   0  0  0  0  0  3  0  0  0  0  0  0
  184.1420  176.4010  134.8060 C   0  0  0  0  0  0  0  0  0  0  0  0
  184.9010  177.3050  134.3600 O   0  0  0  0  0  0  0  0  0  0  0  0
  182.7380  176.6290  134.9150 N   0  0  0  0  0  2  0  0  0  0  0  0
  184.6780  175.1350  135.1980 N   0  0  0  0  0  2  0  0  0  0  0  0
  182.1200  177.8640  134.4630 C   0  0  0  0  0  2  0  0  0  0  0  0
  180.6850  177.9590  134.9480 C   0  0  0  0  0  2  0  0  0  0  0  0
  180.6180  177.8770  136.4740 C   0  0  0  0  0  2  0  0  0  0  0  0
  181.3320  179.0440  137.1630 C   0  0  1  0  0  3  0  0  0  0  0  0
  180.6670  180.3640  136.7900 C   0  0  0  0  0  1  0  0  0  0  0  0
  180.1130  178.7070  139.2280 O   0  0  0  0  0  1  0  0  0  0  0  0
  181.3950  178.8690  138.6910 C   0  0  1  0  0  3  0  0  0  0  0  0
  182.2930  177.7200  139.1620 C   0  0  2  0  0  3  0  0  0  0  0  0
  181.5530  176.5560  139.4000 O   0  0  0  0  0  0  0  0  0  0  0  0
  181.7990  175.7410  138.2950 C   0  0  0  0  0  1  0  0  0  0  0  0
  183.1730  178.0820  140.3620 C   0  0  0  0  0  2  0  0  0  0  0  0
  182.4370  178.0550  141.5500 O   0  0  0  0  0  0  0  0  0  0  0  0
  185.2260  179.5630  143.1020 C   0  0  0  0  0  2  0  0  0  0  0  0
  182.9260  179.0970  143.5330 O   0  0  0  0  0  0  0  0  0  0  0  0
  184.0820  179.6800  144.0870 C   0  0  0  0  0  2  0  0  0  0  0  0
  184.6700  178.7290  141.9890 C   0  0  0  0  0  2  0  0  0  0  0  0
  183.3870  178.1890  142.5640 C   0  0  2  0  0  3  0  0  0  0  0  0
  189.9460  173.4860  135.7200 C   0  0  0  0  0  2  0  0  0  0  0  0
  190.8500  174.6820  135.4590 C   0  0  0  0  0  2  0  0  0  0  0  0
  192.5470  175.2820  137.2780 C   0  0  0  0  0  0  0  0  0  0  0  0
  190.5240  176.7280  138.6220 C   0  0  0  0  0  0  0  0  0  0  0  0
  191.2540  175.3870  136.7180 C   0  0  0  0  0  0  0  0  0  0  0  0
  190.2600  176.0890  137.4010 C   0  0  0  0  0  3  0  0  0  0  0  0
  192.8180  175.9320  138.4910 C   0  0  0  0  0  3  0  0  0  0  0  0
  191.8170  176.6440  139.1570 C   0  0  0  0  0  3  0  0  0  0  0  0
  195.7660  173.9480  135.7640 O   0  0  0  0  0  0  0  0  0  0  0  0
  194.9100  174.8700  136.3410 C   0  0  0  0  0  0  0  0  0  0  0  0
  193.5530  174.4970  136.6150 N   0  0  0  0  0  2  0  0  0  0  0  0
  195.3490  176.0090  136.6550 O   0  0  0  0  0  1  0  0  0  0  0  0
  189.5710  177.8890  140.6830 C   0  0  0  0  0  0  0  0  0  0  0  0
  189.4480  177.3700  139.3390 N   0  0  0  0  0  0  0  0  0  0  0  0
  188.7600  178.7690  141.0880 O   0  0  0  0  0  0  0  0  0  0  0  0
  188.1620  177.5210  138.6620 C   0  0  0  0  0  2  0  0  0  0  0  0
  188.2600  178.4910  137.6620 O   0  0  0  0  0  1  0  0  0  0  0  0
  190.6140  177.4010  141.6370 C   0  0  0  0  0  2  0  0  0  0  0  0
  190.0030  176.4810  142.6790 C   0  0  0  0  0  2  0  0  0  0  0  0
  189.5790  177.3220  143.8820 C   0  0  1  0  0  3  0  0  0  0  0  0
  187.2730  176.3830  143.4720 C   0  0  0  0  0  1  0  0  0  0  0  0
  187.6420  177.9070  145.3550 C   0  0  0  0  0  1  0  0  0  0  0  0
  188.2810  176.8100  144.5250 C   0  0  0  0  0  3  0  0  0  0  0  0
  190.6860  178.6990  145.5240 O   0  0  0  0  0  1  0  0  0  0  0  0
  190.7160  177.4430  144.9080 C   0  0  1  0  0  3  0  0  0  0  0  0
  190.6700  176.3270  145.9590 C   0  0  2  0  0  3  0  0  0  0  0  0
  192.6570  175.0350  148.5330 N   0  0  0  0  0  1  0  0  0  0  0  0
  191.9230  177.1880  147.8340 N   0  0  0  0  0  2  0  0  0  0  0  0
  190.5790  176.9090  147.3570 C   0  0  0  0  0  2  0  0  0  0  0  0
  192.7470  176.0400  147.4870 C   0  0  2  0  0  3  0  0  0  0  0  0
  192.1890  175.3350  145.9060 S   0  0  0  0  0  0  0  0  0  0  0  0
  1 15  1  1  0  0  0
  1  6  1  0  0  0  0
  1  9  1  0  0  0  0
  2  5  1  0  0  0  0
  2 11  1  0  0  0  0
  3  9  1  0  0  0  0
  3  5  1  0  0  0  0
  4 11  2  0  0  0  0
  5 33  1  6  0  0  0
  6  2  2  0  0  0  0
  7  6  1  0  0  0  0
  8  7  2  0  0  0  0
 10  8  1  0  0  0  0
 10  4  1  0  0  0  0
 12 14  1  0  0  0  0
 12 15  1  0  0  0  0
 13 12  2  0  0  0  0
 16 14  1  0  0  0  0
 16 17  1  0  0  0  0
 17 18  1  0  0  0  0
 18 19  1  0  0  0  0
 19 20  1  1  0  0  0
 19 22  1  0  0  0  0
 22 23  1  0  0  0  0
 22 21  1  6  0  0  0
 23 24  1  0  0  0  0
 23 26  1  1  0  0  0
 25 24  1  0  0  0  0
 26 27  1  0  0  0  0
 28 30  1  0  0  0  0
 29 30  1  0  0  0  0
 31 32  1  0  0  0  0
 31 28  1  0  0  0  0
 32 27  1  6  0  0  0
 32 29  1  0  0  0  0
 34 33  1  0  0  0  0
 34 37  1  0  0  0  0
 35 39  1  0  0  0  0
 36 40  1  0  0  0  0
 36 46  1  0  0  0  0
 37 35  2  0  0  0  0
 37 38  1  0  0  0  0
 38 36  2  0  0  0  0
 39 40  2  0  0  0  0
 41 42  2  0  0  0  0
 42 43  1  0  0  0  0
 42 44  1  0  0  0  0
 43 35  1  0  0  0  0
 45 47  2  0  0  0  0
 45 50  1  0  0  0  0
 46 45  1  0  0  0  0
 48 46  1  0  0  0  0
 49 48  1  0  0  0  0
 50 51  1  0  0  0  0
 52 51  1  6  0  0  0
 52 55  1  0  0  0  0
 52 57  1  0  0  0  0
 53 55  1  0  0  0  0
 55 54  1  0  0  0  0
 57 56  1  1  0  0  0
 58 57  1  6  0  0  0
 58 61  1  0  0  0  0
 61 60  1  0  0  0  0
 62 60  1  0  0  0  0
 62 59  1  1  0  0  0
 63 58  1  0  0  0  0
 63 62  1  0  0  0  0
M  END
>  <MODEL>
7

>  <REMARK>
 VINA RESULT:      -4.6      2.985     10.682
  Name = 
  23 active torsions:
  status: ('A' for Active; 'I' for Inactive)
    1  A    between atoms: C_1  and  N_60
    2  A    between atoms: C_2  and  C_22
    3  A    between atoms: C_2  and  C_49
    4  A    between atoms: O_3  and  C_10
    5  A    between atoms: C_6  and  C_43
    6  A    between atoms: C_6  and  C_63
    7  A    between atoms: C_9  and  N_56
    8  A    between atoms: C_10  and  C_26
    9  A    between atoms: C_10  and  C_34
   10  A    between atoms: C_11  and  N_50
   11  A    between atoms: C_12  and  C_14
   12  A    between atoms: C_12  and  C_34
   13  A    between atoms: C_14  and  C_53
   14  A    between atoms: C_15  and  N_50
   15  A    between atoms: C_16  and  N_47
   16  A    between atoms: C_16  and  C_53
   17  A    between atoms: C_21  and  C_49
   18  A    between atoms: C_24  and  C_58
   19  A    between atoms: C_26  and  O_30
   20  A    between atoms: C_29  and  C_43
   21  A    between atoms: O_30  and  C_46
   22  A    between atoms: C_31  and  C_63
   23  A    between atoms: C_58  and  C_63
                            x       y       z     vdW  Elec       q    Type
                         _______ _______ _______ _____ _____    ______ ____

>  <TORSDO>
F 23

$$$$
=
 OpenBabel10232407443D

 63 67  0  0  1  0  0  0  0  0999 V2000
  191.6660  176.4730  138.8570 C   0  0  2  0  0  3  0  0  0  0  0  0
  192.6450  175.8690  136.6600 C   0  0  0  0  0  0  0  0  0  0  0  0
  190.2410  176.4930  137.1090 C   0  0  0  0  0  2  0  0  0  0  0  0
  194.7170  174.6850  135.9120 C   0  0  0  0  0  3  0  0  0  0  0  0
  191.3090  176.2290  136.0450 C   0  0  2  0  0  3  0  0  0  0  0  0
  192.8320  175.9950  138.0020 C   0  0  0  0  0  0  0  0  0  0  0  0
  194.0940  175.6530  138.7100 C   0  0  0  0  0  3  0  0  0  0  0  0
  194.9820  174.7300  138.3360 C   0  0  0  0  0  3  0  0  0  0  0  0
  190.7800  177.2930  138.1250 O   0  0  0  0  0  0  0  0  0  0  0  0
  194.7910  173.8560  137.1440 C   0  0  0  0  0  2  0  0  0  0  0  0
  193.7350  175.5650  135.7050 C   0  0  0  0  0  3  0  0  0  0  0  0
  191.5510  177.0440  141.3500 C   0  0  0  0  0  0  0  0  0  0  0  0
  190.5700  176.2720  141.5300 O   0  0  0  0  0  0  0  0  0  0  0  0
  192.1090  177.7680  142.4450 N   0  0  0  0  0  2  0  0  0  0  0  0
  192.1230  177.1960  140.0480 N   0  0  0  0  0  2  0  0  0  0  0  0
  191.6250  177.6020  143.8050 C   0  0  0  0  0  2  0  0  0  0  0  0
  190.1230  177.8040  143.8730 C   0  0  0  0  0  2  0  0  0  0  0  0
  189.6980  178.2780  145.2640 C   0  0  0  0  0  2  0  0  0  0  0  0
  188.4490  177.5580  145.7810 C   0  0  1  0  0  3  0  0  0  0  0  0
  188.0930  178.0560  147.1770 C   0  0  0  0  0  1  0  0  0  0  0  0
  186.8190  176.4480  144.3770 O   0  0  0  0  0  1  0  0  0  0  0  0
  187.2540  177.7010  144.8210 C   0  0  1  0  0  3  0  0  0  0  0  0
  186.0660  178.4780  145.3990 C   0  0  2  0  0  3  0  0  0  0  0  0
  185.1840  177.6320  146.0810 O   0  0  0  0  0  0  0  0  0  0  0  0
  184.8820  178.3070  147.2640 C   0  0  0  0  0  1  0  0  0  0  0  0
  185.3340  179.3370  144.3630 C   0  0  0  0  0  2  0  0  0  0  0  0
  184.7180  178.5390  143.3940 O   0  0  0  0  0  0  0  0  0  0  0  0
  185.8540  178.5700  140.0520 C   0  0  0  0  0  2  0  0  0  0  0  0
  183.9040  179.0940  141.3250 O   0  0  0  0  0  0  0  0  0  0  0  0
  184.4280  179.0800  140.0170 C   0  0  0  0  0  2  0  0  0  0  0  0
  186.1600  178.4310  141.5120 C   0  0  0  0  0  2  0  0  0  0  0  0
  185.0190  179.1540  142.1780 C   0  0  2  0  0  3  0  0  0  0  0  0
  190.8430  175.1650  135.0500 C   0  0  0  0  0  2  0  0  0  0  0  0
  190.2590  173.9470  135.7510 C   0  0  0  0  0  2  0  0  0  0  0  0
  188.2890  172.4390  135.1250 C   0  0  0  0  0  0  0  0  0  0  0  0
  186.6650  174.7410  134.8850 C   0  0  0  0  0  0  0  0  0  0  0  0
  188.8190  173.7180  135.4070 C   0  0  0  0  0  0  0  0  0  0  0  0
  188.0110  174.8480  135.2670 C   0  0  0  0  0  3  0  0  0  0  0  0
  186.9400  172.3280  134.7560 C   0  0  0  0  0  3  0  0  0  0  0  0
  186.1380  173.4660  134.6350 C   0  0  0  0  0  3  0  0  0  0  0  0
  189.7190  168.9200  135.0880 O   0  0  0  0  0  1  0  0  0  0  0  0
  188.7480  169.9060  135.0800 C   0  0  0  0  0  0  0  0  0  0  0  0
  189.1380  171.2810  135.1950 N   0  0  0  0  0  2  0  0  0  0  0  0
  187.5400  169.5810  134.9300 O   0  0  0  0  0  0  0  0  0  0  0  0
  184.4420  175.9670  134.6430 C   0  0  0  0  0  0  0  0  0  0  0  0
  185.8870  175.9370  134.6670 N   0  0  0  0  0  0  0  0  0  0  0  0
  183.8370  177.0560  134.8520 O   0  0  0  0  0  0  0  0  0  0  0  0
  186.6020  177.1980  134.4760 C   0  0  0  0  0  2  0  0  0  0  0  0
  186.0010  178.2060  135.2330 O   0  0  0  0  0  1  0  0  0  0  0  0
  183.6220  174.7530  134.3480 C   0  0  0  0  0  2  0  0  0  0  0  0
  182.1950  174.9340  134.8350 C   0  0  0  0  0  2  0  0  0  0  0  0
  182.0710  174.3030  136.2220 C   0  0  1  0  0  3  0  0  0  0  0  0
  181.0680  176.5750  136.6710 C   0  0  0  0  0  1  0  0  0  0  0  0
  182.8740  175.7440  138.1040 C   0  0  0  0  0  1  0  0  0  0  0  0
  181.6620  175.3240  137.2950 C   0  0  0  0  0  3  0  0  0  0  0  0
  180.7770  172.7690  134.8860 O   0  0  0  0  0  1  0  0  0  0  0  0
  181.1310  173.0880  136.2010 C   0  0  1  0  0  3  0  0  0  0  0  0
  181.7410  171.8710  136.9050 C   0  0  2  0  0  3  0  0  0  0  0  0
  183.7930  169.1370  136.1570 N   0  0  0  0  0  1  0  0  0  0  0  0
  183.8380  171.4850  135.7730 N   0  0  0  0  0  2  0  0  0  0  0  0
  183.2490  172.0030  136.9970 C   0  0  0  0  0  2  0  0  0  0  0  0
  183.1510  170.2400  135.4620 C   0  0  2  0  0  3  0  0  0  0  0  0
  181.4080  170.3540  135.9650 S   0  0  0  0  0  0  0  0  0  0  0  0
  1 15  1  1  0  0  0
  2  6  2  0  0  0  0
  3  9  1  0  0  0  0
  4 10  1  0  0  0  0
  5 33  1  6  0  0  0
  5  2  1  0  0  0  0
  5  3  1  0  0  0  0
  6  7  1  0  0  0  0
  6  1  1  0  0  0  0
  8  7  2  0  0  0  0
  9  1  1  0  0  0  0
 10  8  1  0  0  0  0
 11  4  2  0  0  0  0
 11  2  1  0  0  0  0
 12 13  2  0  0  0  0
 12 14  1  0  0  0  0
 14 16  1  0  0  0  0
 15 12  1  0  0  0  0
 16 17  1  0  0  0  0
 17 18  1  0  0  0  0
 18 19  1  0  0  0  0
 19 20  1  1  0  0  0
 22 21  1  1  0  0  0
 22 23  1  0  0  0  0
 22 19  1  0  0  0  0
 23 26  1  6  0  0  0
 23 24  1  0  0  0  0
 24 25  1  0  0  0  0
 27 26  1  0  0  0  0
 28 31  1  0  0  0  0
 29 32  1  0  0  0  0
 30 28  1  0  0  0  0
 30 29  1  0  0  0  0
 31 32  1  0  0  0  0
 32 27  1  1  0  0  0
 33 34  1  0  0  0  0
 35 43  1  0  0  0  0
 35 37  1  0  0  0  0
 36 38  1  0  0  0  0
 37 34  1  0  0  0  0
 38 37  2  0  0  0  0
 39 35  2  0  0  0  0
 40 39  1  0  0  0  0
 40 36  2  0  0  0  0
 42 41  1  0  0  0  0
 42 43  1  0  0  0  0
 44 42  2  0  0  0  0
 45 46  1  0  0  0  0
 45 47  2  0  0  0  0
 46 36  1  0  0  0  0
 48 46  1  0  0  0  0
 48 49  1  0  0  0  0
 50 45  1  0  0  0  0
 50 51  1  0  0  0  0
 52 51  1  6  0  0  0
 52 55  1  0  0  0  0
 53 55  1  0  0  0  0
 55 54  1  0  0  0  0
 57 56  1  6  0  0  0
 57 52  1  0  0  0  0
 58 57  1  6  0  0  0
 58 61  1  0  0  0  0
 60 61  1  0  0  0  0
 62 60  1  0  0  0  0
 62 63  1  0  0  0  0
 62 59  1  1  0  0  0
 63 58  1  0  0  0  0
M  END
>  <MODEL>
8

>  <REMARK>
 VINA RESULT:      -4.5      3.922     10.907
  Name = 
  23 active torsions:
  status: ('A' for Active; 'I' for Inactive)
    1  A    between atoms: C_1  and  N_60
    2  A    between atoms: C_2  and  C_22
    3  A    between atoms: C_2  and  C_49
    4  A    between atoms: O_3  and  C_10
    5  A    between atoms: C_6  and  C_43
    6  A    between atoms: C_6  and  C_63
    7  A    between atoms: C_9  and  N_56
    8  A    between atoms: C_10  and  C_26
    9  A    between atoms: C_10  and  C_34
   10  A    between atoms: C_11  and  N_50
   11  A    between atoms: C_12  and  C_14
   12  A    between atoms: C_12  and  C_34
   13  A    between atoms: C_14  and  C_53
   14  A    between atoms: C_15  and  N_50
   15  A    between atoms: C_16  and  N_47
   16  A    between atoms: C_16  and  C_53
   17  A    between atoms: C_21  and  C_49
   18  A    between atoms: C_24  and  C_58
   19  A    between atoms: C_26  and  O_30
   20  A    between atoms: C_29  and  C_43
   21  A    between atoms: O_30  and  C_46
   22  A    between atoms: C_31  and  C_63
   23  A    between atoms: C_58  and  C_63
                            x       y       z     vdW  Elec       q    Type
                         _______ _______ _______ _____ _____    ______ ____

>  <TORSDO>
F 23

$$$$
=
 OpenBabel10232407443D

 63 67  0  0  1  0  0  0  0  0999 V2000
  188.5510  176.9940  138.2290 C   0  0  2  0  0  3  0  0  0  0  0  0
  189.0860  176.3680  135.8890 C   0  0  0  0  0  0  0  0  0  0  0  0
  186.7860  176.4680  136.9260 C   0  0  0  0  0  2  0  0  0  0  0  0
  191.1440  175.6160  134.6850 C   0  0  0  0  0  3  0  0  0  0  0  0
  187.5940  176.3310  135.6330 C   0  0  2  0  0  3  0  0  0  0  0  0
  189.5560  176.6970  137.1230 C   0  0  0  0  0  0  0  0  0  0  0  0
  190.9960  176.7460  137.4870 C   0  0  0  0  0  3  0  0  0  0  0  0
  191.9720  176.0160  136.9440 C   0  0  0  0  0  3  0  0  0  0  0  0
  187.3340  177.4890  137.7130 O   0  0  0  0  0  0  0  0  0  0  0  0
  191.7260  174.9820  135.8990 C   0  0  0  0  0  2  0  0  0  0  0  0
  189.9510  176.2120  134.6970 C   0  0  0  0  0  3  0  0  0  0  0  0
  188.5740  178.0980  140.5370 C   0  0  0  0  0  0  0  0  0  0  0  0
  187.5850  177.4190  140.9250 O   0  0  0  0  0  0  0  0  0  0  0  0
  189.2030  179.0240  141.4220 N   0  0  0  0  0  2  0  0  0  0  0  0
  189.0840  177.9420  139.2110 N   0  0  0  0  0  2  0  0  0  0  0  0
  188.7840  179.1750  142.8050 C   0  0  0  0  0  2  0  0  0  0  0  0
  189.0090  177.8910  143.5820 C   0  0  0  0  0  2  0  0  0  0  0  0
  190.3850  177.3010  143.2720 C   0  0  0  0  0  2  0  0  0  0  0  0
  190.8710  176.3290  144.3510 C   0  0  1  0  0  3  0  0  0  0  0  0
  191.3630  175.0350  143.7140 C   0  0  0  0  0  1  0  0  0  0  0  0
  192.2150  178.2740  144.8770 O   0  0  0  0  0  1  0  0  0  0  0  0
  191.9560  176.9500  145.2500 C   0  0  1  0  0  3  0  0  0  0  0  0
  191.6460  176.8950  146.7490 C   0  0  2  0  0  3  0  0  0  0  0  0
  191.9210  175.6310  147.2840 O   0  0  0  0  0  0  0  0  0  0  0  0
  192.8370  175.8660  148.3090 C   0  0  0  0  0  1  0  0  0  0  0  0
  190.2280  177.3570  147.0990 C   0  0  0  0  0  2  0  0  0  0  0  0
  189.3010  176.3320  146.8890 O   0  0  0  0  0  0  0  0  0  0  0  0
  187.2890  178.7440  148.5000 C   0  0  0  0  0  2  0  0  0  0  0  0
  187.5030  177.6610  146.3840 O   0  0  0  0  0  0  0  0  0  0  0  0
  186.7430  178.6130  147.0930 C   0  0  0  0  0  2  0  0  0  0  0  0
  188.3370  177.6790  148.5900 C   0  0  0  0  0  2  0  0  0  0  0  0
  188.0910  176.8410  147.3630 C   0  0  2  0  0  3  0  0  0  0  0  0
  187.1870  175.0750  134.8610 C   0  0  0  0  0  2  0  0  0  0  0  0
  185.7580  175.1610  134.3460 C   0  0  0  0  0  2  0  0  0  0  0  0
  184.8850  173.7420  136.2880 C   0  0  0  0  0  0  0  0  0  0  0  0
  182.5350  175.3130  136.3170 C   0  0  0  0  0  0  0  0  0  0  0  0
  184.7440  174.8300  135.3990 C   0  0  0  0  0  0  0  0  0  0  0  0
  183.5700  175.5870  135.4120 C   0  0  0  0  0  3  0  0  0  0  0  0
  183.8560  173.4750  137.2040 C   0  0  0  0  0  3  0  0  0  0  0  0
  182.6940  174.2490  137.2170 C   0  0  0  0  0  3  0  0  0  0  0  0
  187.4070  170.9800  135.6240 O   0  0  0  0  0  1  0  0  0  0  0  0
  186.1690  171.5960  135.6740 C   0  0  0  0  0  0  0  0  0  0  0  0
  186.0590  172.9150  136.2270 N   0  0  0  0  0  2  0  0  0  0  0  0
  185.1650  171.0060  135.1920 O   0  0  0  0  0  0  0  0  0  0  0  0
  181.2030  177.4800  136.5040 C   0  0  0  0  0  0  0  0  0  0  0  0
  181.3030  176.0620  136.2410 N   0  0  0  0  0  0  0  0  0  0  0  0
  180.2250  178.1320  136.0410 O   0  0  0  0  0  0  0  0  0  0  0  0
  180.0850  175.3480  135.8590 C   0  0  0  0  0  2  0  0  0  0  0  0
  180.3680  174.4320  134.8440 O   0  0  0  0  0  1  0  0  0  0  0  0
  182.2050  178.2120  137.3360 C   0  0  0  0  0  2  0  0  0  0  0  0
  182.0610  177.8450  138.8020 C   0  0  0  0  0  2  0  0  0  0  0  0
  182.0580  179.1310  139.6280 C   0  0  1  0  0  3  0  0  0  0  0  0
  182.1510  181.3790  138.4860 C   0  0  0  0  0  1  0  0  0  0  0  0
  180.2590  180.8410  139.9490 C   0  0  0  0  0  1  0  0  0  0  0  0
  181.2480  180.2530  138.9610 C   0  0  0  0  0  3  0  0  0  0  0  0
  180.4270  178.0950  141.0710 O   0  0  0  0  0  1  0  0  0  0  0  0
  181.5930  178.8690  141.0690 C   0  0  1  0  0  3  0  0  0  0  0  0
  182.6820  178.2050  141.9180 C   0  0  2  0  0  3  0  0  0  0  0  0
  185.2940  179.1230  144.0580 N   0  0  0  0  0  1  0  0  0  0  0  0
  182.9980  179.6900  143.7950 N   0  0  0  0  0  2  0  0  0  0  0  0
  182.4170  178.4190  143.3960 C   0  0  0  0  0  2  0  0  0  0  0  0
  184.3200  179.7630  143.1910 C   0  0  2  0  0  3  0  0  0  0  0  0
  184.3040  178.9410  141.5690 S   0  0  0  0  0  0  0  0  0  0  0  0
  1 15  1  1  0  0  0
  2  6  2  0  0  0  0
  3  9  1  0  0  0  0
  4 11  2  0  0  0  0
  4 10  1  0  0  0  0
  5 33  1  1  0  0  0
  5  2  1  0  0  0  0
  5  3  1  0  0  0  0
  6  7  1  0  0  0  0
  6  1  1  0  0  0  0
  8  7  2  0  0  0  0
  9  1  1  0  0  0  0
 10  8  1  0  0  0  0
 11  2  1  0  0  0  0
 12 13  2  0  0  0  0
 12 14  1  0  0  0  0
 14 16  1  0  0  0  0
 15 12  1  0  0  0  0
 16 17  1  0  0  0  0
 18 17  1  0  0  0  0
 18 19  1  0  0  0  0
 19 20  1  6  0  0  0
 19 22  1  0  0  0  0
 22 21  1  6  0  0  0
 22 23  1  0  0  0  0
 23 26  1  6  0  0  0
 23 24  1  0  0  0  0
 24 25  1  0  0  0  0
 27 26  1  0  0  0  0
 28 31  1  0  0  0  0
 29 30  1  0  0  0  0
 29 32  1  0  0  0  0
 30 28  1  0  0  0  0
 32 27  1  6  0  0  0
 32 31  1  0  0  0  0
 34 33  1  0  0  0  0
 34 37  1  0  0  0  0
 35 39  1  0  0  0  0
 36 40  1  0  0  0  0
 37 38  1  0  0  0  0
 37 35  2  0  0  0  0
 38 36  2  0  0  0  0
 39 40  2  0  0  0  0
 41 42  1  0  0  0  0
 42 43  1  0  0  0  0
 43 35  1  0  0  0  0
 44 42  2  0  0  0  0
 45 50  1  0  0  0  0
 46 36  1  0  0  0  0
 46 45  1  0  0  0  0
 47 45  2  0  0  0  0
 48 46  1  0  0  0  0
 49 48  1  0  0  0  0
 50 51  1  0  0  0  0
 52 51  1  6  0  0  0
 52 57  1  0  0  0  0
 53 55  1  0  0  0  0
 55 52  1  0  0  0  0
 55 54  1  0  0  0  0
 57 56  1  6  0  0  0
 58 57  1  6  0  0  0
 58 61  1  0  0  0  0
 61 60  1  0  0  0  0
 62 60  1  0  0  0  0
 62 59  1  1  0  0  0
 63 58  1  0  0  0  0
 63 62  1  0  0  0  0
M  END
>  <MODEL>
9

>  <REMARK>
 VINA RESULT:      -4.5      4.613      8.916
  Name = 
  23 active torsions:
  status: ('A' for Active; 'I' for Inactive)
    1  A    between atoms: C_1  and  N_60
    2  A    between atoms: C_2  and  C_22
    3  A    between atoms: C_2  and  C_49
    4  A    between atoms: O_3  and  C_10
    5  A    between atoms: C_6  and  C_43
    6  A    between atoms: C_6  and  C_63
    7  A    between atoms: C_9  and  N_56
    8  A    between atoms: C_10  and  C_26
    9  A    between atoms: C_10  and  C_34
   10  A    between atoms: C_11  and  N_50
   11  A    between atoms: C_12  and  C_14
   12  A    between atoms: C_12  and  C_34
   13  A    between atoms: C_14  and  C_53
   14  A    between atoms: C_15  and  N_50
   15  A    between atoms: C_16  and  N_47
   16  A    between atoms: C_16  and  C_53
   17  A    between atoms: C_21  and  C_49
   18  A    between atoms: C_24  and  C_58
   19  A    between atoms: C_26  and  O_30
   20  A    between atoms: C_29  and  C_43
   21  A    between atoms: O_30  and  C_46
   22  A    between atoms: C_31  and  C_63
   23  A    between atoms: C_58  and  C_63
                            x       y       z     vdW  Elec       q    Type
                         _______ _______ _______ _____ _____    ______ ____

>  <TORSDO>
F 23

$$$$
