=
 OpenBabel10232408073D

 38 42  0  0  1  0  0  0  0  0999 V2000
  188.8990  177.8090  139.9700 C   0  0  0  0  0  0  0  0  0  0  0  0
  189.6030  176.8980  137.8380 C   0  0  0  0  0  3  0  0  0  0  0  0
  190.6220  176.1500  139.8520 N   0  0  0  0  0  0  0  0  0  0  0  0
  189.8440  176.9700  140.6120 C   0  0  0  0  0  0  0  0  0  0  0  0
  188.0600  178.7840  140.7350 C   0  0  0  0  0  1  0  0  0  0  0  0
  190.5260  176.0850  138.4980 C   0  0  0  0  0  0  0  0  0  0  0  0
  188.7850  177.7630  138.5690 C   0  0  0  0  0  0  0  0  0  0  0  0
  190.8500  174.0640  137.0190 C   0  0  0  0  0  0  0  0  0  0  0  0
  194.0080  172.6540  135.6020 N   0  0  0  0  0  2  0  0  0  0  0  0
  192.8160  175.3720  137.6890 C   0  0  0  0  0  0  0  0  0  0  0  0
  193.6010  174.4810  136.9510 C   0  0  0  0  0  0  0  0  0  0  0  0
  189.3870  173.7630  137.0440 C   0  0  0  0  0  1  0  0  0  0  0  0
  191.4080  175.1640  137.7360 C   0  0  0  0  0  0  0  0  0  0  0  0
  193.4740  176.5360  138.3610 C   0  0  0  0  0  1  0  0  0  0  0  0
  193.0460  173.4330  136.2790 C   0  0  0  0  0  0  0  0  0  0  0  0
  195.3180  173.2530  135.8580 C   0  0  1  0  0  3  0  0  0  0  0  0
  195.0760  174.4850  136.7580 C   0  0  0  0  0  2  0  0  0  0  0  0
  191.6760  173.1970  136.2920 C   0  0  0  0  0  3  0  0  0  0  0  0
  197.0000  172.6530  137.4530 O   0  0  0  0  0  1  0  0  0  0  0  0
  196.2120  172.2740  136.5460 C   0  0  0  0  0  0  0  0  0  0  0  0
  196.1930  170.9400  136.1630 O   0  0  0  0  0  0  0  0  0  0  0  0
  190.0430  176.9450  142.0820 C   0  0  0  0  0  0  0  0  0  0  0  0
  188.9230  176.9290  142.9270 C   0  0  0  0  0  3  0  0  0  0  0  0
  189.0740  176.9430  144.3180 C   0  0  0  0  0  0  0  0  0  0  0  0
  191.4820  177.0150  144.0430 C   0  0  0  0  0  3  0  0  0  0  0  0
  190.3600  176.9850  144.8730 C   0  0  0  0  0  3  0  0  0  0  0  0
  191.3230  176.9990  142.6550 C   0  0  0  0  0  3  0  0  0  0  0  0
  187.9360  176.9180  145.1240 O   0  0  0  0  0  0  0  0  0  0  0  0
  187.2420  178.0700  145.4260 N   0  0  0  0  0  2  0  0  0  0  0  0
  185.9420  178.3150  144.8900 C   0  0  0  0  0  0  0  0  0  0  0  0
  184.8930  178.7000  145.7410 C   0  0  0  0  0  0  0  0  0  0  0  0
  184.4270  178.4110  142.9950 C   0  0  0  0  0  3  0  0  0  0  0  0
  185.7020  178.1710  143.5170 C   0  0  0  0  0  3  0  0  0  0  0  0
  183.3860  178.7970  143.8440 C   0  0  0  0  0  3  0  0  0  0  0  0
  185.1100  178.8410  147.1060 O   0  0  0  0  0  1  0  0  0  0  0  0
  183.6190  178.9400  145.2150 C   0  0  0  0  0  3  0  0  0  0  0  0
  187.8400  178.6070  137.8960 N   0  0  0  0  0  2  0  0  0  0  0  0
  186.6150  178.1050  137.2940 C   0  0  0  0  0  1  0  0  0  0  0  0
  1  4  1  0  0  0  0
  1  5  1  0  0  0  0
  2  6  2  0  0  0  0
  2  7  1  0  0  0  0
  3  4  2  0  0  0  0
  4 22  1  0  0  0  0
  6  3  1  0  0  0  0
  7  1  2  0  0  0  0
  8 12  1  0  0  0  0
  8 13  1  0  0  0  0
  9 16  1  0  0  0  0
  9 15  1  0  0  0  0
 10 13  2  0  0  0  0
 10 14  1  0  0  0  0
 11 10  1  0  0  0  0
 13  6  1  0  0  0  0
 15 18  1  0  0  0  0
 15 11  2  0  0  0  0
 16 20  1  1  0  0  0
 16 17  1  0  0  0  0
 17 11  1  0  0  0  0
 18  8  2  0  0  0  0
 20 19  1  0  0  0  0
 21 20  2  0  0  0  0
 22 27  2  0  0  0  0
 22 23  1  0  0  0  0
 23 24  2  0  0  0  0
 24 26  1  0  0  0  0
 24 28  1  0  0  0  0
 25 26  2  0  0  0  0
 27 25  1  0  0  0  0
 28 29  1  0  0  0  0
 30 29  1  0  0  0  0
 30 31  1  0  0  0  0
 31 35  1  0  0  0  0
 32 33  1  0  0  0  0
 32 34  2  0  0  0  0
 33 30  2  0  0  0  0
 34 36  1  0  0  0  0
 36 31  2  0  0  0  0
 37  7  1  0  0  0  0
 38 37  1  0  0  0  0
M  END
>  <MODEL>
1

>  <REMARK>
 VINA RESULT:      -9.6      0.000      0.000
  Name = 
  7 active torsions:
  status: ('A' for Active; 'I' for Inactive)
    1  A    between atoms: C_1  and  C_28
    2  A    between atoms: N_4  and  C_6
    3  A    between atoms: N_4  and  O_23
    4  A    between atoms: N_11  and  C_33
    5  A    between atoms: C_14  and  C_32
    6  A    between atoms: C_20  and  O_23
    7  A    between atoms: C_21  and  CA_25
                            x       y       z     vdW  Elec       q    Type
                         _______ _______ _______ _____ _____    ______ ____

>  <TORSDO>
F 7

$$$$
=
 OpenBabel10232408073D

 38 42  0  0  1  0  0  0  0  0999 V2000
  189.7050  177.2780  145.1070 C   0  0  0  0  0  0  0  0  0  0  0  0
  187.4410  177.6780  145.8730 C   0  0  0  0  0  3  0  0  0  0  0  0
  187.9590  177.8110  143.5570 N   0  0  0  0  0  0  0  0  0  0  0  0
  189.2670  177.5030  143.7780 C   0  0  0  0  0  0  0  0  0  0  0  0
  191.1400  177.0040  145.4310 C   0  0  0  0  0  1  0  0  0  0  0  0
  187.0400  177.8970  144.5540 C   0  0  0  0  0  0  0  0  0  0  0  0
  188.7740  177.3670  146.1570 C   0  0  0  0  0  0  0  0  0  0  0  0
  184.7010  178.5060  145.2840 C   0  0  0  0  0  0  0  0  0  0  0  0
  181.6800  179.2020  143.1960 N   0  0  0  0  0  2  0  0  0  0  0  0
  185.1840  178.3140  142.8850 C   0  0  0  0  0  0  0  0  0  0  0  0
  183.8480  178.6440  142.6380 C   0  0  0  0  0  0  0  0  0  0  0  0
  185.0840  178.4130  146.7240 C   0  0  0  0  0  1  0  0  0  0  0  0
  185.6290  178.2350  144.2350 C   0  0  0  0  0  0  0  0  0  0  0  0
  186.1080  178.1060  141.7260 C   0  0  0  0  0  1  0  0  0  0  0  0
  182.9770  178.8930  143.6570 C   0  0  0  0  0  0  0  0  0  0  0  0
  181.7090  179.1500  141.7340 C   0  0  1  0  0  3  0  0  0  0  0  0
  183.1530  178.7810  141.3300 C   0  0  0  0  0  2  0  0  0  0  0  0
  183.3710  178.8330  144.9880 C   0  0  0  0  0  3  0  0  0  0  0  0
  179.9830  177.5180  142.0310 O   0  0  0  0  0  1  0  0  0  0  0  0
  180.7490  178.1210  141.2330 C   0  0  0  0  0  0  0  0  0  0  0  0
  180.7200  177.8080  139.8810 O   0  0  0  0  0  0  0  0  0  0  0  0
  190.1700  177.4360  142.6020 C   0  0  0  0  0  0  0  0  0  0  0  0
  189.7580  176.7320  141.4590 C   0  0  0  0  0  3  0  0  0  0  0  0
  190.5970  176.6160  140.3470 C   0  0  0  0  0  0  0  0  0  0  0  0
  192.2980  177.8910  141.5140 C   0  0  0  0  0  3  0  0  0  0  0  0
  191.8710  177.2000  140.3790 C   0  0  0  0  0  3  0  0  0  0  0  0
  191.4520  178.0040  142.6210 C   0  0  0  0  0  3  0  0  0  0  0  0
  190.1490  175.9170  139.2270 O   0  0  0  0  0  0  0  0  0  0  0  0
  189.7320  176.5720  138.0880 N   0  0  0  0  0  2  0  0  0  0  0  0
  188.3480  176.8200  137.8380 C   0  0  0  0  0  0  0  0  0  0  0  0
  187.7610  178.0210  138.2670 C   0  0  0  0  0  0  0  0  0  0  0  0
  186.2120  176.1120  136.9270 C   0  0  0  0  0  3  0  0  0  0  0  0
  187.5670  175.8680  137.1690 C   0  0  0  0  0  3  0  0  0  0  0  0
  185.6320  177.3100  137.3520 C   0  0  0  0  0  3  0  0  0  0  0  0
  188.5180  178.9730  138.9390 O   0  0  0  0  0  1  0  0  0  0  0  0
  186.4050  178.2620  138.0220 C   0  0  0  0  0  3  0  0  0  0  0  0
  189.1930  177.1480  147.5110 N   0  0  0  0  0  2  0  0  0  0  0  0
  188.8350  178.0360  148.6060 C   0  0  0  0  0  1  0  0  0  0  0  0
  1  5  1  0  0  0  0
  1  7  1  0  0  0  0
  2  7  2  0  0  0  0
  3  4  1  0  0  0  0
  3  6  2  0  0  0  0
  4  1  2  0  0  0  0
  6  2  1  0  0  0  0
  7 37  1  0  0  0  0
  8 12  1  0  0  0  0
  9 15  1  0  0  0  0
 10 13  1  0  0  0  0
 11 10  2  0  0  0  0
 11 15  1  0  0  0  0
 13  6  1  0  0  0  0
 13  8  2  0  0  0  0
 14 10  1  0  0  0  0
 15 18  2  0  0  0  0
 16 20  1  1  0  0  0
 16  9  1  0  0  0  0
 17 16  1  0  0  0  0
 17 11  1  0  0  0  0
 18  8  1  0  0  0  0
 20 19  1  0  0  0  0
 21 20  2  0  0  0  0
 22 27  1  0  0  0  0
 22  4  1  0  0  0  0
 23 22  2  0  0  0  0
 24 26  2  0  0  0  0
 24 23  1  0  0  0  0
 25 27  2  0  0  0  0
 26 25  1  0  0  0  0
 28 24  1  0  0  0  0
 29 28  1  0  0  0  0
 30 29  1  0  0  0  0
 30 31  1  0  0  0  0
 31 35  1  0  0  0  0
 32 33  1  0  0  0  0
 32 34  2  0  0  0  0
 33 30  2  0  0  0  0
 34 36  1  0  0  0  0
 36 31  2  0  0  0  0
 37 38  1  0  0  0  0
M  END
>  <MODEL>
2

>  <REMARK>
 VINA RESULT:      -9.6      3.882      9.864
  Name = 
  7 active torsions:
  status: ('A' for Active; 'I' for Inactive)
    1  A    between atoms: C_1  and  C_28
    2  A    between atoms: N_4  and  C_6
    3  A    between atoms: N_4  and  O_23
    4  A    between atoms: N_11  and  C_33
    5  A    between atoms: C_14  and  C_32
    6  A    between atoms: C_20  and  O_23
    7  A    between atoms: C_21  and  CA_25
                            x       y       z     vdW  Elec       q    Type
                         _______ _______ _______ _____ _____    ______ ____

>  <TORSDO>
F 7

$$$$
=
 OpenBabel10232408073D

 38 42  0  0  1  0  0  0  0  0999 V2000
  183.1590  178.7510  143.1980 C   0  0  0  0  0  0  0  0  0  0  0  0
  183.4100  178.6780  140.7890 C   0  0  0  0  0  3  0  0  0  0  0  0
  185.3040  178.3900  142.1970 N   0  0  0  0  0  0  0  0  0  0  0  0
  184.5510  178.5210  143.3240 C   0  0  0  0  0  0  0  0  0  0  0  0
  182.2830  178.9730  144.3900 C   0  0  0  0  0  1  0  0  0  0  0  0
  184.7790  178.4540  140.9450 C   0  0  0  0  0  0  0  0  0  0  0  0
  182.5930  178.8270  141.9120 C   0  0  0  0  0  0  0  0  0  0  0  0
  185.1010  178.0920  138.4670 C   0  0  0  0  0  0  0  0  0  0  0  0
  188.2730  177.9060  136.4980 N   0  0  0  0  0  2  0  0  0  0  0  0
  187.0800  178.3770  139.8920 C   0  0  0  0  0  0  0  0  0  0  0  0
  187.8670  178.2340  138.7460 C   0  0  0  0  0  0  0  0  0  0  0  0
  183.6280  177.9700  138.2540 C   0  0  0  0  0  1  0  0  0  0  0  0
  185.6640  178.3000  139.7610 C   0  0  0  0  0  0  0  0  0  0  0  0
  187.7470  178.6550  141.2030 C   0  0  0  0  0  1  0  0  0  0  0  0
  187.3070  178.0290  137.5190 C   0  0  0  0  0  0  0  0  0  0  0  0
  189.5910  178.0450  137.1200 C   0  0  1  0  0  3  0  0  0  0  0  0
  189.3500  178.2690  138.6280 C   0  0  0  0  0  2  0  0  0  0  0  0
  185.9310  177.9540  137.3460 C   0  0  0  0  0  3  0  0  0  0  0  0
  191.3530  176.5220  137.6730 O   0  0  0  0  0  1  0  0  0  0  0  0
  190.4000  176.8090  136.9000 C   0  0  0  0  0  0  0  0  0  0  0  0
  190.1180  175.9850  135.8200 O   0  0  0  0  0  0  0  0  0  0  0  0
  185.2450  178.4260  144.6330 C   0  0  0  0  0  0  0  0  0  0  0  0
  186.5470  177.9030  144.6840 C   0  0  0  0  0  3  0  0  0  0  0  0
  187.2160  177.7640  145.9040 C   0  0  0  0  0  0  0  0  0  0  0  0
  185.2740  178.6510  147.0550 C   0  0  0  0  0  3  0  0  0  0  0  0
  186.5740  178.1420  147.0910 C   0  0  0  0  0  3  0  0  0  0  0  0
  184.6130  178.7880  145.8320 C   0  0  0  0  0  3  0  0  0  0  0  0
  188.5110  177.2490  145.9130 O   0  0  0  0  0  0  0  0  0  0  0  0
  189.5630  177.9330  145.3410 N   0  0  0  0  0  2  0  0  0  0  0  0
  190.0870  177.5570  144.0670 C   0  0  0  0  0  0  0  0  0  0  0  0
  191.0740  178.3440  143.4540 C   0  0  0  0  0  0  0  0  0  0  0  0
  190.1330  176.0400  142.1720 C   0  0  0  0  0  3  0  0  0  0  0  0
  189.6190  176.4050  143.4200 C   0  0  0  0  0  3  0  0  0  0  0  0
  191.1180  176.8240  141.5660 C   0  0  0  0  0  3  0  0  0  0  0  0
  191.5450  179.4930  144.0770 O   0  0  0  0  0  1  0  0  0  0  0  0
  191.5870  177.9740  142.2060 C   0  0  0  0  0  3  0  0  0  0  0  0
  181.1880  179.0650  141.7580 N   0  0  0  0  0  2  0  0  0  0  0  0
  180.2610  178.0600  141.2610 C   0  0  0  0  0  1  0  0  0  0  0  0
  1  4  1  0  0  0  0
  1  5  1  0  0  0  0
  2  6  2  0  0  0  0
  2  7  1  0  0  0  0
  3  4  2  0  0  0  0
  4 22  1  0  0  0  0
  6  3  1  0  0  0  0
  7  1  2  0  0  0  0
  8 13  1  0  0  0  0
  9 16  1  0  0  0  0
  9 15  1  0  0  0  0
 10 14  1  0  0  0  0
 11 10  1  0  0  0  0
 12  8  1  0  0  0  0
 13 10  2  0  0  0  0
 13  6  1  0  0  0  0
 15 11  2  0  0  0  0
 16 20  1  1  0  0  0
 16 17  1  0  0  0  0
 17 11  1  0  0  0  0
 18 15  1  0  0  0  0
 18  8  2  0  0  0  0
 20 19  1  0  0  0  0
 21 20  2  0  0  0  0
 22 23  2  0  0  0  0
 22 27  1  0  0  0  0
 23 24  1  0  0  0  0
 24 28  1  0  0  0  0
 24 26  2  0  0  0  0
 25 26  1  0  0  0  0
 27 25  2  0  0  0  0
 29 28  1  0  0  0  0
 30 29  1  0  0  0  0
 31 30  1  0  0  0  0
 31 35  1  0  0  0  0
 32 33  1  0  0  0  0
 33 30  2  0  0  0  0
 34 32  2  0  0  0  0
 34 36  1  0  0  0  0
 36 31  2  0  0  0  0
 37  7  1  0  0  0  0
 38 37  1  0  0  0  0
M  END
>  <MODEL>
3

>  <REMARK>
 VINA RESULT:      -8.9      3.418      6.616
  Name = 
  7 active torsions:
  status: ('A' for Active; 'I' for Inactive)
    1  A    between atoms: C_1  and  C_28
    2  A    between atoms: N_4  and  C_6
    3  A    between atoms: N_4  and  O_23
    4  A    between atoms: N_11  and  C_33
    5  A    between atoms: C_14  and  C_32
    6  A    between atoms: C_20  and  O_23
    7  A    between atoms: C_21  and  CA_25
                            x       y       z     vdW  Elec       q    Type
                         _______ _______ _______ _____ _____    ______ ____

>  <TORSDO>
F 7

$$$$
=
 OpenBabel10232408073D

 38 42  0  0  1  0  0  0  0  0999 V2000
  190.2790  177.4810  142.9830 C   0  0  0  0  0  0  0  0  0  0  0  0
  188.5450  177.8320  144.6390 C   0  0  0  0  0  3  0  0  0  0  0  0
  188.0080  177.8560  142.3230 N   0  0  0  0  0  0  0  0  0  0  0  0
  189.3000  177.6140  141.9670 C   0  0  0  0  0  0  0  0  0  0  0  0
  191.7270  177.2820  142.6650 C   0  0  0  0  0  1  0  0  0  0  0  0
  187.6040  177.9620  143.6160 C   0  0  0  0  0  0  0  0  0  0  0  0
  189.8860  177.5910  144.3290 C   0  0  0  0  0  0  0  0  0  0  0  0
  185.7320  178.2720  145.2820 C   0  0  0  0  0  0  0  0  0  0  0  0
  182.1180  179.0040  144.6680 N   0  0  0  0  0  2  0  0  0  0  0  0
  185.2310  178.4550  142.8860 C   0  0  0  0  0  0  0  0  0  0  0  0
  183.9000  178.7060  143.2320 C   0  0  0  0  0  0  0  0  0  0  0  0
  186.6550  178.0120  146.4270 C   0  0  0  0  0  1  0  0  0  0  0  0
  186.1750  178.2250  143.9270 C   0  0  0  0  0  0  0  0  0  0  0  0
  185.6250  178.4850  141.4430 C   0  0  0  0  0  1  0  0  0  0  0  0
  183.4980  178.7400  144.5350 C   0  0  0  0  0  0  0  0  0  0  0  0
  181.5680  179.1580  143.3210 C   0  0  1  0  0  3  0  0  0  0  0  0
  182.7410  178.9660  142.3360 C   0  0  0  0  0  2  0  0  0  0  0  0
  184.3870  178.5280  145.5810 C   0  0  0  0  0  3  0  0  0  0  0  0
  179.9820  177.5130  144.0360 O   0  0  0  0  0  1  0  0  0  0  0  0
  180.5090  178.1340  143.0740 C   0  0  0  0  0  0  0  0  0  0  0  0
  180.1210  177.8450  141.7730 O   0  0  0  0  0  0  0  0  0  0  0  0
  189.6120  177.5170  140.5200 C   0  0  0  0  0  0  0  0  0  0  0  0
  188.9660  178.3780  139.6190 C   0  0  0  0  0  3  0  0  0  0  0  0
  189.2070  178.2890  138.2440 C   0  0  0  0  0  0  0  0  0  0  0  0
  190.7350  176.4480  138.6440 C   0  0  0  0  0  3  0  0  0  0  0  0
  190.0960  177.3200  137.7590 C   0  0  0  0  0  3  0  0  0  0  0  0
  190.4890  176.5450  140.0170 C   0  0  0  0  0  3  0  0  0  0  0  0
  188.5520  179.1680  137.3820 O   0  0  0  0  0  0  0  0  0  0  0  0
  187.6380  178.7180  136.4530 N   0  0  0  0  0  2  0  0  0  0  0  0
  186.5490  177.8770  136.8310 C   0  0  0  0  0  0  0  0  0  0  0  0
  186.4690  176.5660  136.3360 C   0  0  0  0  0  0  0  0  0  0  0  0
  184.4860  177.5260  138.0620 C   0  0  0  0  0  3  0  0  0  0  0  0
  185.5520  178.3520  137.6940 C   0  0  0  0  0  3  0  0  0  0  0  0
  184.4120  176.2200  137.5700 C   0  0  0  0  0  3  0  0  0  0  0  0
  187.4440  176.0790  135.4730 O   0  0  0  0  0  1  0  0  0  0  0  0
  185.4010  175.7410  136.7070 C   0  0  0  0  0  3  0  0  0  0  0  0
  190.8580  177.4650  145.3760 N   0  0  0  0  0  2  0  0  0  0  0  0
  190.6900  176.5760  146.5140 C   0  0  0  0  0  1  0  0  0  0  0  0
  1  7  1  0  0  0  0
  3  6  2  0  0  0  0
  4  3  1  0  0  0  0
  4  1  2  0  0  0  0
  5  1  1  0  0  0  0
  6 13  1  0  0  0  0
  6  2  1  0  0  0  0
  7  2  2  0  0  0  0
  7 37  1  0  0  0  0
  8 18  1  0  0  0  0
  8 12  1  0  0  0  0
 10 11  2  0  0  0  0
 10 13  1  0  0  0  0
 11 15  1  0  0  0  0
 13  8  2  0  0  0  0
 14 10  1  0  0  0  0
 15  9  1  0  0  0  0
 15 18  2  0  0  0  0
 16 20  1  6  0  0  0
 16  9  1  0  0  0  0
 17 11  1  0  0  0  0
 17 16  1  0  0  0  0
 20 19  1  0  0  0  0
 21 20  2  0  0  0  0
 22  4  1  0  0  0  0
 23 22  2  0  0  0  0
 24 23  1  0  0  0  0
 25 27  2  0  0  0  0
 26 24  2  0  0  0  0
 26 25  1  0  0  0  0
 27 22  1  0  0  0  0
 28 24  1  0  0  0  0
 29 30  1  0  0  0  0
 29 28  1  0  0  0  0
 30 33  1  0  0  0  0
 31 36  1  0  0  0  0
 31 30  2  0  0  0  0
 33 32  2  0  0  0  0
 34 32  1  0  0  0  0
 35 31  1  0  0  0  0
 36 34  2  0  0  0  0
 37 38  1  0  0  0  0
M  END
>  <MODEL>
4

>  <REMARK>
 VINA RESULT:      -8.9      4.099     10.095
  Name = 
  7 active torsions:
  status: ('A' for Active; 'I' for Inactive)
    1  A    between atoms: C_1  and  C_28
    2  A    between atoms: N_4  and  C_6
    3  A    between atoms: N_4  and  O_23
    4  A    between atoms: N_11  and  C_33
    5  A    between atoms: C_14  and  C_32
    6  A    between atoms: C_20  and  O_23
    7  A    between atoms: C_21  and  CA_25
                            x       y       z     vdW  Elec       q    Type
                         _______ _______ _______ _____ _____    ______ ____

>  <TORSDO>
F 7

$$$$
=
 OpenBabel10232408073D

 38 42  0  0  1  0  0  0  0  0999 V2000
  181.8220  179.1480  139.2020 C   0  0  0  0  0  0  0  0  0  0  0  0
  182.8510  178.0480  137.3050 C   0  0  0  0  0  3  0  0  0  0  0  0
  183.6700  177.6550  139.5020 N   0  0  0  0  0  0  0  0  0  0  0  0
  182.7430  178.4870  140.0520 C   0  0  0  0  0  0  0  0  0  0  0  0
  180.8220  180.1280  139.7300 C   0  0  0  0  0  1  0  0  0  0  0  0
  183.7470  177.4130  138.1670 C   0  0  0  0  0  0  0  0  0  0  0  0
  181.8840  178.9170  137.8170 C   0  0  0  0  0  0  0  0  0  0  0  0
  184.4480  175.1440  137.3110 C   0  0  0  0  0  0  0  0  0  0  0  0
  187.8050  173.9960  136.1320 N   0  0  0  0  0  2  0  0  0  0  0  0
  186.1210  176.9360  137.4320 C   0  0  0  0  0  0  0  0  0  0  0  0
  187.0580  176.0300  136.9250 C   0  0  0  0  0  0  0  0  0  0  0  0
  183.0770  174.5940  137.5280 C   0  0  0  0  0  1  0  0  0  0  0  0
  184.7850  176.4900  137.6390 C   0  0  0  0  0  0  0  0  0  0  0  0
  186.5420  178.3480  137.6910 C   0  0  0  0  0  1  0  0  0  0  0  0
  186.7150  174.7450  136.6250 C   0  0  0  0  0  0  0  0  0  0  0  0
  188.9710  174.8790  136.1090 C   0  0  1  0  0  3  0  0  0  0  0  0
  188.5000  176.2530  136.6320 C   0  0  0  0  0  2  0  0  0  0  0  0
  185.4220  174.2710  136.8050 C   0  0  0  0  0  3  0  0  0  0  0  0
  190.5750  173.2130  136.7290 O   0  0  0  0  0  0  0  0  0  0  0  0
  190.0530  174.3330  136.9810 C   0  0  0  0  0  0  0  0  0  0  0  0
  190.4680  175.0510  138.0940 O   0  0  0  0  0  1  0  0  0  0  0  0
  182.7630  178.6640  141.5260 C   0  0  0  0  0  0  0  0  0  0  0  0
  183.9960  178.7490  142.1910 C   0  0  0  0  0  3  0  0  0  0  0  0
  184.0520  178.8780  143.5830 C   0  0  0  0  0  0  0  0  0  0  0  0
  181.6290  178.8150  143.6730 C   0  0  0  0  0  3  0  0  0  0  0  0
  182.8620  178.9120  144.3220 C   0  0  0  0  0  3  0  0  0  0  0  0
  181.5820  178.6880  142.2830 C   0  0  0  0  0  3  0  0  0  0  0  0
  185.2960  178.9670  144.2070 O   0  0  0  0  0  0  0  0  0  0  0  0
  185.9890  177.8410  144.5960 N   0  0  0  0  0  2  0  0  0  0  0  0
  186.9290  177.8820  145.6690 C   0  0  0  0  0  0  0  0  0  0  0  0
  186.5340  178.3550  146.9310 C   0  0  0  0  0  0  0  0  0  0  0  0
  189.1690  177.4990  146.5260 C   0  0  0  0  0  3  0  0  0  0  0  0
  188.2500  177.4560  145.4730 C   0  0  0  0  0  3  0  0  0  0  0  0
  188.7710  177.9670  147.7810 C   0  0  0  0  0  3  0  0  0  0  0  0
  185.2320  178.7900  147.1430 O   0  0  0  0  0  1  0  0  0  0  0  0
  187.4560  178.3960  147.9830 C   0  0  0  0  0  3  0  0  0  0  0  0
  180.9670  179.5780  136.9350 N   0  0  0  0  0  2  0  0  0  0  0  0
  181.1010  179.5580  135.4870 C   0  0  0  0  0  1  0  0  0  0  0  0
  1  5  1  0  0  0  0
  1  4  1  0  0  0  0
  2  7  1  0  0  0  0
  2  6  2  0  0  0  0
  3  4  2  0  0  0  0
  4 22  1  0  0  0  0
  6  3  1  0  0  0  0
  7  1  2  0  0  0  0
  8 12  1  0  0  0  0
  8 13  1  0  0  0  0
  9 15  1  0  0  0  0
 10 13  2  0  0  0  0
 10 14  1  0  0  0  0
 11 10  1  0  0  0  0
 13  6  1  0  0  0  0
 15 18  1  0  0  0  0
 15 11  2  0  0  0  0
 16  9  1  0  0  0  0
 16 17  1  0  0  0  0
 16 20  1  1  0  0  0
 17 11  1  0  0  0  0
 18  8  2  0  0  0  0
 19 20  2  0  0  0  0
 20 21  1  0  0  0  0
 22 23  2  0  0  0  0
 22 27  1  0  0  0  0
 23 24  1  0  0  0  0
 24 28  1  0  0  0  0
 24 26  2  0  0  0  0
 25 26  1  0  0  0  0
 27 25  2  0  0  0  0
 28 29  1  0  0  0  0
 29 30  1  0  0  0  0
 30 31  1  0  0  0  0
 31 35  1  0  0  0  0
 31 36  2  0  0  0  0
 32 34  2  0  0  0  0
 33 30  2  0  0  0  0
 33 32  1  0  0  0  0
 34 36  1  0  0  0  0
 37  7  1  0  0  0  0
 38 37  1  0  0  0  0
M  END
>  <MODEL>
5

>  <REMARK>
 VINA RESULT:      -8.6      3.501      6.430
  Name = 
  7 active torsions:
  status: ('A' for Active; 'I' for Inactive)
    1  A    between atoms: C_1  and  C_28
    2  A    between atoms: N_4  and  C_6
    3  A    between atoms: N_4  and  O_23
    4  A    between atoms: N_11  and  C_33
    5  A    between atoms: C_14  and  C_32
    6  A    between atoms: C_20  and  O_23
    7  A    between atoms: C_21  and  CA_25
                            x       y       z     vdW  Elec       q    Type
                         _______ _______ _______ _____ _____    ______ ____

>  <TORSDO>
F 7

$$$$
=
 OpenBabel10232408073D

 38 42  0  0  1  0  0  0  0  0999 V2000
  188.0320  177.7010  145.5430 C   0  0  0  0  0  0  0  0  0  0  0  0
  189.8370  177.3410  143.9670 C   0  0  0  0  0  3  0  0  0  0  0  0
  187.6430  177.8150  143.1830 N   0  0  0  0  0  0  0  0  0  0  0  0
  187.1540  177.9080  144.4510 C   0  0  0  0  0  0  0  0  0  0  0  0
  187.5500  177.7190  146.9600 C   0  0  0  0  0  1  0  0  0  0  0  0
  188.9470  177.5470  142.9110 C   0  0  0  0  0  0  0  0  0  0  0  0
  189.3850  177.4170  145.2870 C   0  0  0  0  0  0  0  0  0  0  0  0
  188.5630  177.9050  140.4420 C   0  0  0  0  0  0  0  0  0  0  0  0
  190.8450  177.1980  137.5670 N   0  0  0  0  0  2  0  0  0  0  0  0
  190.7050  176.9640  141.1860 C   0  0  0  0  0  0  0  0  0  0  0  0
  191.0940  176.9140  139.8440 C   0  0  0  0  0  0  0  0  0  0  0  0
  187.1800  178.4120  140.6910 C   0  0  0  0  0  1  0  0  0  0  0  0
  189.4090  177.4640  141.5020 C   0  0  0  0  0  0  0  0  0  0  0  0
  191.6770  176.5400  142.2410 C   0  0  0  0  0  1  0  0  0  0  0  0
  190.2650  177.3360  138.8460 C   0  0  0  0  0  0  0  0  0  0  0  0
  192.1820  176.6310  137.7490 C   0  0  1  0  0  3  0  0  0  0  0  0
  192.3790  176.4340  139.2680 C   0  0  0  0  0  2  0  0  0  0  0  0
  188.9960  177.8360  139.1110 C   0  0  0  0  0  3  0  0  0  0  0  0
  191.7460  174.2900  137.5040 O   0  0  0  0  0  1  0  0  0  0  0  0
  192.2930  175.3240  137.0350 C   0  0  0  0  0  0  0  0  0  0  0  0
  193.0260  175.2420  135.8600 O   0  0  0  0  0  0  0  0  0  0  0  0
  185.7100  178.2100  144.6130 C   0  0  0  0  0  0  0  0  0  0  0  0
  184.8950  178.3040  143.4740 C   0  0  0  0  0  3  0  0  0  0  0  0
  183.5380  178.6240  143.5880 C   0  0  0  0  0  0  0  0  0  0  0  0
  183.7920  178.7890  145.9940 C   0  0  0  0  0  3  0  0  0  0  0  0
  182.9890  178.8650  144.8540 C   0  0  0  0  0  3  0  0  0  0  0  0
  185.1460  178.4670  145.8720 C   0  0  0  0  0  3  0  0  0  0  0  0
  182.7590  178.6990  142.4330 O   0  0  0  0  0  0  0  0  0  0  0  0
  183.2790  179.1610  141.2430 N   0  0  0  0  0  2  0  0  0  0  0  0
  183.3820  178.3130  140.0990 C   0  0  0  0  0  0  0  0  0  0  0  0
  183.9850  178.7880  138.9240 C   0  0  0  0  0  0  0  0  0  0  0  0
  182.9820  176.1760  139.0170 C   0  0  0  0  0  3  0  0  0  0  0  0
  182.8800  177.0050  140.1390 C   0  0  0  0  0  3  0  0  0  0  0  0
  183.5860  176.6520  137.8510 C   0  0  0  0  0  3  0  0  0  0  0  0
  184.4820  180.0850  138.8630 O   0  0  0  0  0  1  0  0  0  0  0  0
  184.0860  177.9560  137.8040 C   0  0  0  0  0  3  0  0  0  0  0  0
  190.2930  177.1980  146.3760 N   0  0  0  0  0  2  0  0  0  0  0  0
  191.6020  176.5850  146.2080 C   0  0  0  0  0  1  0  0  0  0  0  0
  1  5  1  0  0  0  0
  2  7  2  0  0  0  0
  3  4  1  0  0  0  0
  4 22  1  0  0  0  0
  4  1  2  0  0  0  0
  6  3  2  0  0  0  0
  6  2  1  0  0  0  0
  7  1  1  0  0  0  0
  7 37  1  0  0  0  0
  8 12  1  0  0  0  0
  8 13  1  0  0  0  0
  9 16  1  0  0  0  0
  9 15  1  0  0  0  0
 10 13  2  0  0  0  0
 10 14  1  0  0  0  0
 11 10  1  0  0  0  0
 13  6  1  0  0  0  0
 15 18  1  0  0  0  0
 15 11  2  0  0  0  0
 16 20  1  6  0  0  0
 16 17  1  0  0  0  0
 17 11  1  0  0  0  0
 18  8  2  0  0  0  0
 20 19  1  0  0  0  0
 21 20  2  0  0  0  0
 22 27  1  0  0  0  0
 23 24  1  0  0  0  0
 23 22  2  0  0  0  0
 24 26  2  0  0  0  0
 26 25  1  0  0  0  0
 27 25  2  0  0  0  0
 28 24  1  0  0  0  0
 29 28  1  0  0  0  0
 30 33  1  0  0  0  0
 30 29  1  0  0  0  0
 31 30  2  0  0  0  0
 32 33  2  0  0  0  0
 34 32  1  0  0  0  0
 35 31  1  0  0  0  0
 36 34  2  0  0  0  0
 36 31  1  0  0  0  0
 38 37  1  0  0  0  0
M  END
>  <MODEL>
6

>  <REMARK>
 VINA RESULT:      -8.5      2.819      6.078
  Name = 
  7 active torsions:
  status: ('A' for Active; 'I' for Inactive)
    1  A    between atoms: C_1  and  C_28
    2  A    between atoms: N_4  and  C_6
    3  A    between atoms: N_4  and  O_23
    4  A    between atoms: N_11  and  C_33
    5  A    between atoms: C_14  and  C_32
    6  A    between atoms: C_20  and  O_23
    7  A    between atoms: C_21  and  CA_25
                            x       y       z     vdW  Elec       q    Type
                         _______ _______ _______ _____ _____    ______ ____

>  <TORSDO>
F 7

$$$$
=
 OpenBabel10232408073D

 38 42  0  0  1  0  0  0  0  0999 V2000
  190.1380  177.4870  141.4230 C   0  0  0  0  0  0  0  0  0  0  0  0
  188.7390  177.7550  143.3830 C   0  0  0  0  0  3  0  0  0  0  0  0
  187.7860  177.8840  141.2090 N   0  0  0  0  0  0  0  0  0  0  0  0
  188.9900  177.6640  140.6110 C   0  0  0  0  0  0  0  0  0  0  0  0
  191.5020  177.3100  140.8340 C   0  0  0  0  0  1  0  0  0  0  0  0
  187.6270  177.9280  142.5580 C   0  0  0  0  0  0  0  0  0  0  0  0
  190.0000  177.5330  142.8210 C   0  0  0  0  0  0  0  0  0  0  0  0
  186.0730  178.0510  144.5440 C   0  0  0  0  0  0  0  0  0  0  0  0
  182.4370  178.9090  144.6510 N   0  0  0  0  0  2  0  0  0  0  0  0
  185.1850  178.5450  142.3100 C   0  0  0  0  0  0  0  0  0  0  0  0
  183.9410  178.7700  142.9070 C   0  0  0  0  0  0  0  0  0  0  0  0
  187.1650  177.6340  145.4740 C   0  0  0  0  0  1  0  0  0  0  0  0
  186.2810  178.1710  143.1390 C   0  0  0  0  0  0  0  0  0  0  0  0
  185.3320  178.7520  140.8350 C   0  0  0  0  0  1  0  0  0  0  0  0
  183.7640  178.6440  144.2530 C   0  0  0  0  0  0  0  0  0  0  0  0
  181.6740  179.2410  143.4470 C   0  0  1  0  0  3  0  0  0  0  0  0
  182.6590  179.1590  142.2600 C   0  0  0  0  0  2  0  0  0  0  0  0
  184.8080  178.2870  145.0980 C   0  0  0  0  0  3  0  0  0  0  0  0
  179.9820  177.7540  144.2580 O   0  0  0  0  0  1  0  0  0  0  0  0
  180.5520  178.2730  143.2610 C   0  0  0  0  0  0  0  0  0  0  0  0
  180.1530  177.9210  141.9790 O   0  0  0  0  0  0  0  0  0  0  0  0
  189.0290  177.6350  139.1280 C   0  0  0  0  0  0  0  0  0  0  0  0
  189.1070  176.4000  138.4660 C   0  0  0  0  0  3  0  0  0  0  0  0
  189.1840  176.3370  137.0710 C   0  0  0  0  0  0  0  0  0  0  0  0
  189.1320  178.7600  136.9730 C   0  0  0  0  0  3  0  0  0  0  0  0
  189.1950  177.5240  136.3260 C   0  0  0  0  0  3  0  0  0  0  0  0
  189.0540  178.8140  138.3670 C   0  0  0  0  0  3  0  0  0  0  0  0
  189.2510  175.0900  136.4500 O   0  0  0  0  0  0  0  0  0  0  0  0
  188.1770  174.5710  135.7590 N   0  0  0  0  0  2  0  0  0  0  0  0
  186.9320  174.3130  136.4080 C   0  0  0  0  0  0  0  0  0  0  0  0
  186.7380  173.1060  137.0990 C   0  0  0  0  0  0  0  0  0  0  0  0
  184.6780  174.9990  136.9940 C   0  0  0  0  0  3  0  0  0  0  0  0
  185.8970  175.2550  136.3580 C   0  0  0  0  0  3  0  0  0  0  0  0
  184.4900  173.7980  137.6840 C   0  0  0  0  0  3  0  0  0  0  0  0
  187.7500  172.1550  137.1530 O   0  0  0  0  0  1  0  0  0  0  0  0
  185.5180  172.8530  137.7350 C   0  0  0  0  0  3  0  0  0  0  0  0
  191.1470  177.3630  143.6640 N   0  0  0  0  0  2  0  0  0  0  0  0
  191.5930  176.0650  144.1470 C   0  0  0  0  0  1  0  0  0  0  0  0
  1  7  1  0  0  0  0
  3  6  2  0  0  0  0
  4  3  1  0  0  0  0
  4  1  2  0  0  0  0
  5  1  1  0  0  0  0
  6 13  1  0  0  0  0
  6  2  1  0  0  0  0
  7  2  2  0  0  0  0
  7 37  1  0  0  0  0
  8 18  1  0  0  0  0
  8 12  1  0  0  0  0
 10 11  2  0  0  0  0
 10 13  1  0  0  0  0
 11 15  1  0  0  0  0
 13  8  2  0  0  0  0
 14 10  1  0  0  0  0
 15  9  1  0  0  0  0
 15 18  2  0  0  0  0
 16 20  1  6  0  0  0
 16  9  1  0  0  0  0
 17 11  1  0  0  0  0
 17 16  1  0  0  0  0
 20 19  1  0  0  0  0
 21 20  2  0  0  0  0
 22  4  1  0  0  0  0
 23 22  1  0  0  0  0
 24 23  2  0  0  0  0
 25 27  1  0  0  0  0
 26 25  2  0  0  0  0
 26 24  1  0  0  0  0
 27 22  2  0  0  0  0
 28 24  1  0  0  0  0
 29 30  1  0  0  0  0
 29 28  1  0  0  0  0
 30 31  1  0  0  0  0
 31 35  1  0  0  0  0
 31 36  2  0  0  0  0
 32 34  2  0  0  0  0
 33 30  2  0  0  0  0
 33 32  1  0  0  0  0
 34 36  1  0  0  0  0
 37 38  1  0  0  0  0
M  END
>  <MODEL>
7

>  <REMARK>
 VINA RESULT:      -8.4      3.977     10.186
  Name = 
  7 active torsions:
  status: ('A' for Active; 'I' for Inactive)
    1  A    between atoms: C_1  and  C_28
    2  A    between atoms: N_4  and  C_6
    3  A    between atoms: N_4  and  O_23
    4  A    between atoms: N_11  and  C_33
    5  A    between atoms: C_14  and  C_32
    6  A    between atoms: C_20  and  O_23
    7  A    between atoms: C_21  and  CA_25
                            x       y       z     vdW  Elec       q    Type
                         _______ _______ _______ _____ _____    ______ ____

>  <TORSDO>
F 7

$$$$
=
 OpenBabel10232408073D

 38 42  0  0  1  0  0  0  0  0999 V2000
  190.2350  177.3580  142.7000 C   0  0  0  0  0  0  0  0  0  0  0  0
  188.5590  177.7070  144.4140 C   0  0  0  0  0  3  0  0  0  0  0  0
  187.9610  177.8310  142.1170 N   0  0  0  0  0  0  0  0  0  0  0  0
  189.2340  177.5590  141.7170 C   0  0  0  0  0  0  0  0  0  0  0  0
  191.6670  177.1240  142.3340 C   0  0  0  0  0  1  0  0  0  0  0  0
  187.5950  177.9030  143.4240 C   0  0  0  0  0  0  0  0  0  0  0  0
  189.8820  177.4320  144.0590 C   0  0  0  0  0  0  0  0  0  0  0  0
  185.7910  178.2590  145.1530 C   0  0  0  0  0  0  0  0  0  0  0  0
  182.1770  179.0810  144.6630 N   0  0  0  0  0  2  0  0  0  0  0  0
  185.2120  178.4550  142.7750 C   0  0  0  0  0  0  0  0  0  0  0  0
  183.9010  178.7400  143.1680 C   0  0  0  0  0  0  0  0  0  0  0  0
  186.7460  177.9750  146.2650 C   0  0  0  0  0  1  0  0  0  0  0  0
  186.1850  178.2020  143.7840 C   0  0  0  0  0  0  0  0  0  0  0  0
  185.5570  178.4760  141.3190 C   0  0  0  0  0  1  0  0  0  0  0  0
  183.5450  178.7830  144.4830 C   0  0  0  0  0  0  0  0  0  0  0  0
  181.5840  179.2490  143.3360 C   0  0  1  0  0  3  0  0  0  0  0  0
  182.7180  179.0290  142.3120 C   0  0  0  0  0  2  0  0  0  0  0  0
  184.4630  178.5480  145.4980 C   0  0  0  0  0  3  0  0  0  0  0  0
  179.9820  177.6460  144.1060 O   0  0  0  0  0  1  0  0  0  0  0  0
  180.4920  178.2520  143.1260 C   0  0  0  0  0  0  0  0  0  0  0  0
  180.0550  177.9720  141.8400 O   0  0  0  0  0  0  0  0  0  0  0  0
  189.5030  177.5030  140.2590 C   0  0  0  0  0  0  0  0  0  0  0  0
  190.3620  176.5130  139.7550 C   0  0  0  0  0  3  0  0  0  0  0  0
  190.6670  176.4540  138.3920 C   0  0  0  0  0  0  0  0  0  0  0  0
  189.2740  178.4020  138.0090 C   0  0  0  0  0  3  0  0  0  0  0  0
  190.1180  177.4030  137.5190 C   0  0  0  0  0  3  0  0  0  0  0  0
  188.9720  178.4530  139.3730 C   0  0  0  0  0  3  0  0  0  0  0  0
  191.5170  175.4500  137.9290 O   0  0  0  0  0  0  0  0  0  0  0  0
  192.8680  175.6700  137.7650 N   0  0  0  0  0  2  0  0  0  0  0  0
  193.7920  174.5840  137.6850 C   0  0  0  0  0  0  0  0  0  0  0  0
  194.9120  174.5520  138.5300 C   0  0  0  0  0  0  0  0  0  0  0  0
  194.4970  172.4860  136.6860 C   0  0  0  0  0  3  0  0  0  0  0  0
  193.5900  173.5480  136.7630 C   0  0  0  0  0  3  0  0  0  0  0  0
  195.6090  172.4550  137.5310 C   0  0  0  0  0  3  0  0  0  0  0  0
  195.1340  175.5740  139.4450 O   0  0  0  0  0  1  0  0  0  0  0  0
  195.8170  173.4870  138.4510 C   0  0  0  0  0  3  0  0  0  0  0  0
  190.8780  177.2380  145.0730 N   0  0  0  0  0  2  0  0  0  0  0  0
  190.5530  176.9140  146.4530 C   0  0  0  0  0  1  0  0  0  0  0  0
  1  7  1  0  0  0  0
  3  6  2  0  0  0  0
  4  3  1  0  0  0  0
  4  1  2  0  0  0  0
  5  1  1  0  0  0  0
  6 13  1  0  0  0  0
  6  2  1  0  0  0  0
  7  2  2  0  0  0  0
  7 37  1  0  0  0  0
  8 18  1  0  0  0  0
  8 12  1  0  0  0  0
 10 11  2  0  0  0  0
 10 13  1  0  0  0  0
 11 15  1  0  0  0  0
 13  8  2  0  0  0  0
 14 10  1  0  0  0  0
 15  9  1  0  0  0  0
 15 18  2  0  0  0  0
 16 20  1  6  0  0  0
 16  9  1  0  0  0  0
 17 11  1  0  0  0  0
 17 16  1  0  0  0  0
 20 19  1  0  0  0  0
 21 20  2  0  0  0  0
 22  4  1  0  0  0  0
 23 22  1  0  0  0  0
 24 23  2  0  0  0  0
 25 27  1  0  0  0  0
 26 25  2  0  0  0  0
 26 24  1  0  0  0  0
 27 22  2  0  0  0  0
 28 24  1  0  0  0  0
 29 28  1  0  0  0  0
 30 29  1  0  0  0  0
 30 31  1  0  0  0  0
 31 35  1  0  0  0  0
 32 33  1  0  0  0  0
 32 34  2  0  0  0  0
 33 30  2  0  0  0  0
 34 36  1  0  0  0  0
 36 31  2  0  0  0  0
 37 38  1  0  0  0  0
M  END
>  <MODEL>
8

>  <REMARK>
 VINA RESULT:      -8.4      2.647     11.024
  Name = 
  7 active torsions:
  status: ('A' for Active; 'I' for Inactive)
    1  A    between atoms: C_1  and  C_28
    2  A    between atoms: N_4  and  C_6
    3  A    between atoms: N_4  and  O_23
    4  A    between atoms: N_11  and  C_33
    5  A    between atoms: C_14  and  C_32
    6  A    between atoms: C_20  and  O_23
    7  A    between atoms: C_21  and  CA_25
                            x       y       z     vdW  Elec       q    Type
                         _______ _______ _______ _____ _____    ______ ____

>  <TORSDO>
F 7

$$$$
=
 OpenBabel10232408073D

 38 42  0  0  1  0  0  0  0  0999 V2000
  187.4650  177.5930  136.1860 C   0  0  0  0  0  0  0  0  0  0  0  0
  189.6360  177.5080  137.2570 C   0  0  0  0  0  3  0  0  0  0  0  0
  187.6570  177.5780  138.5720 N   0  0  0  0  0  0  0  0  0  0  0  0
  186.8610  177.6050  137.4680 C   0  0  0  0  0  0  0  0  0  0  0  0
  186.6560  177.6910  134.9300 C   0  0  0  0  0  1  0  0  0  0  0  0
  189.0140  177.5230  138.5060 C   0  0  0  0  0  0  0  0  0  0  0  0
  188.8670  177.5420  136.0910 C   0  0  0  0  0  0  0  0  0  0  0  0
  191.1710  177.0470  139.7290 C   0  0  0  0  0  0  0  0  0  0  0  0
  191.9800  177.4850  143.3510 N   0  0  0  0  0  2  0  0  0  0  0  0
  189.2590  177.9280  140.9920 C   0  0  0  0  0  0  0  0  0  0  0  0
  190.0600  177.8880  142.1380 C   0  0  0  0  0  0  0  0  0  0  0  0
  191.8160  176.5480  138.4770 C   0  0  0  0  0  1  0  0  0  0  0  0
  189.8170  177.4940  139.7560 C   0  0  0  0  0  0  0  0  0  0  0  0
  187.8680  178.4690  141.0960 C   0  0  0  0  0  1  0  0  0  0  0  0
  191.3510  177.4500  142.0890 C   0  0  0  0  0  0  0  0  0  0  0  0
  191.0060  177.9940  144.3160 C   0  0  1  0  0  3  0  0  0  0  0  0
  189.7070  178.2770  143.5300 C   0  0  0  0  0  2  0  0  0  0  0  0
  191.9350  177.0240  140.9030 C   0  0  0  0  0  3  0  0  0  0  0  0
  191.6650  176.1790  145.7310 O   0  0  0  0  0  0  0  0  0  0  0  0
  190.7570  176.9820  145.3860 C   0  0  0  0  0  0  0  0  0  0  0  0
  189.5080  176.9070  145.9850 O   0  0  0  0  0  1  0  0  0  0  0  0
  185.3930  177.6600  137.6750 C   0  0  0  0  0  0  0  0  0  0  0  0
  184.8780  178.4110  138.7440 C   0  0  0  0  0  3  0  0  0  0  0  0
  183.5020  178.4540  138.9920 C   0  0  0  0  0  0  0  0  0  0  0  0
  183.1290  176.9680  137.1120 C   0  0  0  0  0  3  0  0  0  0  0  0
  182.6280  177.7290  138.1700 C   0  0  0  0  0  3  0  0  0  0  0  0
  184.5050  176.9310  136.8700 C   0  0  0  0  0  3  0  0  0  0  0  0
  183.0280  179.2180  140.0580 O   0  0  0  0  0  0  0  0  0  0  0  0
  182.5090  178.6300  141.1910 N   0  0  0  0  0  2  0  0  0  0  0  0
  183.2010  178.6830  142.4380 C   0  0  0  0  0  0  0  0  0  0  0  0
  182.5020  178.9860  143.6170 C   0  0  0  0  0  0  0  0  0  0  0  0
  185.2550  178.4890  143.7190 C   0  0  0  0  0  3  0  0  0  0  0  0
  184.5790  178.4360  142.4960 C   0  0  0  0  0  3  0  0  0  0  0  0
  184.5550  178.7890  144.8900 C   0  0  0  0  0  3  0  0  0  0  0  0
  181.1360  179.2410  143.5800 O   0  0  0  0  0  1  0  0  0  0  0  0
  183.1810  179.0380  144.8400 C   0  0  0  0  0  3  0  0  0  0  0  0
  189.5020  177.5350  134.8050 N   0  0  0  0  0  2  0  0  0  0  0  0
  190.5110  176.5600  134.4220 C   0  0  0  0  0  1  0  0  0  0  0  0
  1  4  1  0  0  0  0
  2  6  2  0  0  0  0
  4 22  1  0  0  0  0
  4  3  2  0  0  0  0
  5  1  1  0  0  0  0
  6  3  1  0  0  0  0
  6 13  1  0  0  0  0
  7  1  2  0  0  0  0
  7  2  1  0  0  0  0
  8 13  2  0  0  0  0
  8 18  1  0  0  0  0
  9 16  1  0  0  0  0
 10 14  1  0  0  0  0
 10 11  2  0  0  0  0
 11 17  1  0  0  0  0
 12  8  1  0  0  0  0
 13 10  1  0  0  0  0
 15 11  1  0  0  0  0
 15  9  1  0  0  0  0
 16 20  1  1  0  0  0
 17 16  1  0  0  0  0
 18 15  2  0  0  0  0
 20 19  2  0  0  0  0
 20 21  1  0  0  0  0
 22 23  1  0  0  0  0
 23 24  2  0  0  0  0
 24 28  1  0  0  0  0
 25 26  2  0  0  0  0
 26 24  1  0  0  0  0
 27 25  1  0  0  0  0
 27 22  2  0  0  0  0
 28 29  1  0  0  0  0
 29 30  1  0  0  0  0
 30 33  2  0  0  0  0
 30 31  1  0  0  0  0
 31 36  2  0  0  0  0
 32 34  2  0  0  0  0
 33 32  1  0  0  0  0
 35 31  1  0  0  0  0
 36 34  1  0  0  0  0
 37  7  1  0  0  0  0
 38 37  1  0  0  0  0
M  END
>  <MODEL>
9

>  <REMARK>
 VINA RESULT:      -8.4      3.783      6.677
  Name = 
  7 active torsions:
  status: ('A' for Active; 'I' for Inactive)
    1  A    between atoms: C_1  and  C_28
    2  A    between atoms: N_4  and  C_6
    3  A    between atoms: N_4  and  O_23
    4  A    between atoms: N_11  and  C_33
    5  A    between atoms: C_14  and  C_32
    6  A    between atoms: C_20  and  O_23
    7  A    between atoms: C_21  and  CA_25
                            x       y       z     vdW  Elec       q    Type
                         _______ _______ _______ _____ _____    ______ ____

>  <TORSDO>
F 7

$$$$
