=
 OpenBabel10232410013D

 26 28  0  0  1  0  0  0  0  0999 V2000
  188.1730  177.4590  144.7440 C   0  0  0  0  0  3  0  0  0  0  0  0
  186.2310  178.0990  143.4310 C   0  0  0  0  0  0  0  0  0  0  0  0
  188.9890  177.5340  143.6090 C   0  0  0  0  0  0  0  0  0  0  0  0
  188.4270  177.9140  142.3740 C   0  0  0  0  0  0  0  0  0  0  0  0
  186.8070  177.7360  144.6570 C   0  0  0  0  0  3  0  0  0  0  0  0
  187.0520  178.1860  142.2990 C   0  0  0  0  0  3  0  0  0  0  0  0
  182.0670  178.9460  143.1540 N   0  0  0  0  0  0  0  0  0  0  0  0
  184.1290  178.3810  142.0920 C   0  0  0  0  0  3  0  0  0  0  0  0
  182.7630  178.6620  142.0220 C   0  0  0  0  0  3  0  0  0  0  0  0
  184.7810  178.3930  143.3360 C   0  0  0  0  0  0  0  0  0  0  0  0
  184.0320  178.6910  144.4850 C   0  0  0  0  0  3  0  0  0  0  0  0
  182.6680  178.9660  144.3720 C   0  0  0  0  0  3  0  0  0  0  0  0
  190.9240  179.5440  144.1200 O   0  0  0  0  0  1  0  0  0  0  0  0
  191.3130  178.2160  143.9930 C   0  0  0  0  0  3  0  0  0  0  0  0
  190.4330  177.2370  143.7470 C   0  0  0  0  0  0  0  0  0  0  0  0
  190.3240  175.1070  142.7920 O   0  0  0  0  0  0  0  0  0  0  0  0
  190.9010  175.8890  143.5760 N   0  0  0  0  0  0  0  0  0  0  0  0
  192.0230  175.4540  144.2420 O   0  0  0  0  0  0  0  0  0  0  0  0
  189.2440  178.0350  141.2420 O   0  0  0  0  0  0  0  0  0  0  0  0
  190.1360  177.5410  139.0760 C   0  0  0  0  0  2  0  0  0  0  0  0
  188.8730  178.3690  138.8970 C   0  0  2  0  0  3  0  0  0  0  0  0
  188.9750  177.3540  140.0250 C   0  0  2  0  0  3  0  0  0  0  0  0
  188.6080  177.0990  136.8180 C   0  0  0  0  0  2  0  0  0  0  0  0
  188.0270  177.8200  137.7770 C   0  0  0  0  0  0  0  0  0  0  0  0
  186.5240  177.8580  137.8060 C   0  0  0  0  0  2  0  0  0  0  0  0
  186.0240  178.7340  138.8540 N   0  0  0  0  0  1  0  0  0  0  0  0
  2  5  2  0  0  0  0
  3 15  1  0  0  0  0
  3  1  2  0  0  0  0
  4  3  1  0  0  0  0
  5  1  1  0  0  0  0
  6  4  2  0  0  0  0
  6  2  1  0  0  0  0
  7 12  1  0  0  0  0
  8 10  2  0  0  0  0
  9  8  1  0  0  0  0
  9  7  2  0  0  0  0
 10  2  1  0  0  0  0
 10 11  1  0  0  0  0
 12 11  2  0  0  0  0
 14 13  1  0  0  0  0
 15 14  2  0  0  0  0
 16 17  2  0  0  0  0
 17 15  1  0  0  0  0
 17 18  2  0  0  0  0
 19  4  1  0  0  0  0
 20 22  1  0  0  0  0
 21 24  1  6  0  0  0
 21 20  1  0  0  0  0
 21 22  1  0  0  0  0
 22 19  1  1  0  0  0
 23 24  2  0  0  0  0
 24 25  1  0  0  0  0
 25 26  1  0  0  0  0
M  END
>  <MODEL>
1

>  <REMARK>
 VINA RESULT:      -8.1      0.000      0.000
  Name = 
  7 active torsions:
  status: ('A' for Active; 'I' for Inactive)
    1  A    between atoms: C_2  and  C_19
    2  A    between atoms: C_3  and  C_26
    3  A    between atoms: C_6  and  O_18
    4  A    between atoms: C_8  and  C_14
    5  A    between atoms: C_8  and  C_22
    6  A    between atoms: N_10  and  C_26
    7  A    between atoms: O_18  and  C_24
                            x       y       z     vdW  Elec       q    Type
                         _______ _______ _______ _____ _____    ______ ____

>  <TORSDO>
F 7

$$$$
=
 OpenBabel10232410013D

 26 28  0  0  1  0  0  0  0  0999 V2000
  188.1850  177.3060  144.8540 C   0  0  0  0  0  3  0  0  0  0  0  0
  186.3060  178.0260  143.4910 C   0  0  0  0  0  0  0  0  0  0  0  0
  189.0440  177.3950  143.7520 C   0  0  0  0  0  0  0  0  0  0  0  0
  188.5360  177.8230  142.5090 C   0  0  0  0  0  0  0  0  0  0  0  0
  186.8290  177.6150  144.7260 C   0  0  0  0  0  3  0  0  0  0  0  0
  187.1710  178.1280  142.3920 C   0  0  0  0  0  3  0  0  0  0  0  0
  182.1730  178.9710  143.0930 N   0  0  0  0  0  0  0  0  0  0  0  0
  184.1000  178.6940  144.4770 C   0  0  0  0  0  3  0  0  0  0  0  0
  182.7460  179.0010  144.3260 C   0  0  0  0  0  3  0  0  0  0  0  0
  184.8680  178.3560  143.3510 C   0  0  0  0  0  0  0  0  0  0  0  0
  184.2460  178.3350  142.0940 C   0  0  0  0  0  3  0  0  0  0  0  0
  182.8890  178.6480  141.9850 C   0  0  0  0  0  3  0  0  0  0  0  0
  190.1750  174.9580  142.8420 O   0  0  0  0  0  1  0  0  0  0  0  0
  190.9700  175.9010  143.4850 C   0  0  0  0  0  3  0  0  0  0  0  0
  190.4750  177.0620  143.9340 C   0  0  0  0  0  0  0  0  0  0  0  0
  191.6380  179.0790  144.1340 O   0  0  0  0  0  0  0  0  0  0  0  0
  191.3350  177.9750  144.6350 N   0  0  0  0  0  0  0  0  0  0  0  0
  191.8010  177.6640  145.8910 O   0  0  0  0  0  0  0  0  0  0  0  0
  189.3970  177.9580  141.4120 O   0  0  0  0  0  0  0  0  0  0  0  0
  190.5090  176.6520  139.7410 C   0  0  0  0  0  2  0  0  0  0  0  0
  190.0080  177.9330  139.0930 C   0  0  2  0  0  3  0  0  0  0  0  0
  189.2010  177.2580  140.1910 C   0  0  2  0  0  3  0  0  0  0  0  0
  188.9650  178.6620  136.9990 C   0  0  0  0  0  2  0  0  0  0  0  0
  189.3960  177.6470  137.7460 C   0  0  0  0  0  0  0  0  0  0  0  0
  189.4490  176.2860  137.1070 C   0  0  0  0  0  2  0  0  0  0  0  0
  189.2410  176.3530  135.6690 N   0  0  0  0  0  1  0  0  0  0  0  0
  2  5  2  0  0  0  0
  3 15  1  0  0  0  0
  3  1  2  0  0  0  0
  4  3  1  0  0  0  0
  5  1  1  0  0  0  0
  6  4  2  0  0  0  0
  6  2  1  0  0  0  0
  7  9  1  0  0  0  0
  9  8  2  0  0  0  0
 10  2  1  0  0  0  0
 10  8  1  0  0  0  0
 11 10  2  0  0  0  0
 12 11  1  0  0  0  0
 12  7  2  0  0  0  0
 13 14  1  0  0  0  0
 14 15  2  0  0  0  0
 15 17  1  0  0  0  0
 16 17  2  0  0  0  0
 17 18  2  0  0  0  0
 19  4  1  0  0  0  0
 20 22  1  0  0  0  0
 21 24  1  6  0  0  0
 21 20  1  0  0  0  0
 21 22  1  0  0  0  0
 22 19  1  1  0  0  0
 23 24  2  0  0  0  0
 25 24  1  0  0  0  0
 26 25  1  0  0  0  0
M  END
>  <MODEL>
2

>  <REMARK>
 VINA RESULT:      -7.9      1.428      2.236
  Name = 
  7 active torsions:
  status: ('A' for Active; 'I' for Inactive)
    1  A    between atoms: C_2  and  C_19
    2  A    between atoms: C_3  and  C_26
    3  A    between atoms: C_6  and  O_18
    4  A    between atoms: C_8  and  C_14
    5  A    between atoms: C_8  and  C_22
    6  A    between atoms: N_10  and  C_26
    7  A    between atoms: O_18  and  C_24
                            x       y       z     vdW  Elec       q    Type
                         _______ _______ _______ _____ _____    ______ ____

>  <TORSDO>
F 7

$$$$
=
 OpenBabel10232410013D

 26 28  0  0  1  0  0  0  0  0999 V2000
  191.9600  177.4490  141.5700 C   0  0  0  0  0  3  0  0  0  0  0  0
  190.2700  177.1790  139.8460 C   0  0  0  0  0  0  0  0  0  0  0  0
  190.9970  177.2670  142.5700 C   0  0  0  0  0  0  0  0  0  0  0  0
  189.6590  177.0190  142.2070 C   0  0  0  0  0  0  0  0  0  0  0  0
  191.6020  177.4080  140.2220 C   0  0  0  0  0  3  0  0  0  0  0  0
  189.3100  176.9830  140.8480 C   0  0  0  0  0  3  0  0  0  0  0  0
  189.1630  177.0540  135.7360 N   0  0  0  0  0  0  0  0  0  0  0  0
  189.2940  178.2490  137.7990 C   0  0  0  0  0  3  0  0  0  0  0  0
  188.9380  178.1880  136.4500 C   0  0  0  0  0  3  0  0  0  0  0  0
  189.8860  177.1350  138.4150 C   0  0  0  0  0  0  0  0  0  0  0  0
  190.1040  175.9800  137.6490 C   0  0  0  0  0  3  0  0  0  0  0  0
  189.7340  175.9590  136.3020 C   0  0  0  0  0  3  0  0  0  0  0  0
  191.2060  179.6920  144.0270 O   0  0  0  0  0  1  0  0  0  0  0  0
  191.5040  178.4800  144.6410 C   0  0  0  0  0  3  0  0  0  0  0  0
  191.4220  177.3130  143.9880 C   0  0  0  0  0  0  0  0  0  0  0  0
  192.0030  175.0490  144.0150 O   0  0  0  0  0  0  0  0  0  0  0  0
  191.7910  176.0980  144.6600 N   0  0  0  0  0  0  0  0  0  0  0  0
  191.9590  176.0840  146.0260 O   0  0  0  0  0  0  0  0  0  0  0  0
  188.6960  176.7910  143.2000 O   0  0  0  0  0  0  0  0  0  0  0  0
  187.9180  177.6450  145.2970 C   0  0  0  0  0  2  0  0  0  0  0  0
  186.7090  177.2550  144.4600 C   0  0  2  0  0  3  0  0  0  0  0  0
  187.9490  177.8400  143.8000 C   0  0  2  0  0  3  0  0  0  0  0  0
  184.6910  178.3590  143.6180 C   0  0  0  0  0  2  0  0  0  0  0  0
  185.6300  178.3020  144.5600 C   0  0  0  0  0  0  0  0  0  0  0  0
  185.4340  179.1460  145.7900 C   0  0  0  0  0  2  0  0  0  0  0  0
  184.7050  178.4320  146.8270 N   0  0  0  0  0  1  0  0  0  0  0  0
  1  3  1  0  0  0  0
  2  5  1  0  0  0  0
  2  6  2  0  0  0  0
  3 15  1  0  0  0  0
  4  3  2  0  0  0  0
  4 19  1  0  0  0  0
  5  1  2  0  0  0  0
  6  4  1  0  0  0  0
  7 12  2  0  0  0  0
  7  9  1  0  0  0  0
  8 10  1  0  0  0  0
  9  8  2  0  0  0  0
 10  2  1  0  0  0  0
 11 10  2  0  0  0  0
 12 11  1  0  0  0  0
 13 14  1  0  0  0  0
 15 14  2  0  0  0  0
 15 17  1  0  0  0  0
 16 17  2  0  0  0  0
 17 18  2  0  0  0  0
 21 24  1  1  0  0  0
 21 20  1  0  0  0  0
 22 19  1  6  0  0  0
 22 21  1  0  0  0  0
 22 20  1  0  0  0  0
 23 24  2  0  0  0  0
 24 25  1  0  0  0  0
 25 26  1  0  0  0  0
M  END
>  <MODEL>
3

>  <REMARK>
 VINA RESULT:      -7.8      1.916      6.090
  Name = 
  7 active torsions:
  status: ('A' for Active; 'I' for Inactive)
    1  A    between atoms: C_2  and  C_19
    2  A    between atoms: C_3  and  C_26
    3  A    between atoms: C_6  and  O_18
    4  A    between atoms: C_8  and  C_14
    5  A    between atoms: C_8  and  C_22
    6  A    between atoms: N_10  and  C_26
    7  A    between atoms: O_18  and  C_24
                            x       y       z     vdW  Elec       q    Type
                         _______ _______ _______ _____ _____    ______ ____

>  <TORSDO>
F 7

$$$$
=
 OpenBabel10232410013D

 26 28  0  0  1  0  0  0  0  0999 V2000
  188.1680  178.4290  141.2040 C   0  0  0  0  0  3  0  0  0  0  0  0
  186.0090  178.2900  142.3120 C   0  0  0  0  0  0  0  0  0  0  0  0
  188.8070  177.9270  142.3440 C   0  0  0  0  0  0  0  0  0  0  0  0
  188.0400  177.5850  143.4750 C   0  0  0  0  0  0  0  0  0  0  0  0
  186.7840  178.6110  141.1870 C   0  0  0  0  0  3  0  0  0  0  0  0
  186.6500  177.7760  143.4470 C   0  0  0  0  0  3  0  0  0  0  0  0
  181.7880  178.8450  142.2670 N   0  0  0  0  0  0  0  0  0  0  0  0
  183.8070  178.3030  141.1140 C   0  0  0  0  0  3  0  0  0  0  0  0
  182.4230  178.4900  141.1190 C   0  0  0  0  0  3  0  0  0  0  0  0
  184.5400  178.4830  142.2970 C   0  0  0  0  0  0  0  0  0  0  0  0
  183.8530  178.8500  143.4650 C   0  0  0  0  0  3  0  0  0  0  0  0
  182.4680  179.0270  143.4290 C   0  0  0  0  0  3  0  0  0  0  0  0
  190.1170  176.3380  140.3930 O   0  0  0  0  0  1  0  0  0  0  0  0
  190.8550  176.9890  141.3750 C   0  0  0  0  0  3  0  0  0  0  0  0
  190.2760  177.7450  142.3170 C   0  0  0  0  0  0  0  0  0  0  0  0
  192.0170  177.7170  143.8750 O   0  0  0  0  0  0  0  0  0  0  0  0
  191.0870  178.3530  143.3360 N   0  0  0  0  0  0  0  0  0  0  0  0
  190.8780  179.6630  143.7000 O   0  0  0  0  0  0  0  0  0  0  0  0
  188.6660  177.0400  144.6050 O   0  0  0  0  0  0  0  0  0  0  0  0
  189.3410  176.8220  146.8920 C   0  0  0  0  0  2  0  0  0  0  0  0
  187.8460  177.1000  146.8580 C   0  0  2  0  0  3  0  0  0  0  0  0
  188.7730  177.7410  145.8360 C   0  0  2  0  0  3  0  0  0  0  0  0
  188.2070  178.1990  149.0170 C   0  0  0  0  0  2  0  0  0  0  0  0
  187.4640  178.1030  147.9160 C   0  0  0  0  0  0  0  0  0  0  0  0
  186.4140  179.1560  147.6900 C   0  0  0  0  0  2  0  0  0  0  0  0
  185.2320  178.6120  147.0370 N   0  0  0  0  0  1  0  0  0  0  0  0
  1  3  1  0  0  0  0
  2  6  2  0  0  0  0
  3  4  2  0  0  0  0
  4 19  1  0  0  0  0
  5  1  2  0  0  0  0
  5  2  1  0  0  0  0
  6  4  1  0  0  0  0
  7 12  1  0  0  0  0
  8  9  1  0  0  0  0
  8 10  2  0  0  0  0
  9  7  2  0  0  0  0
 10  2  1  0  0  0  0
 10 11  1  0  0  0  0
 12 11  2  0  0  0  0
 13 14  1  0  0  0  0
 14 15  2  0  0  0  0
 15  3  1  0  0  0  0
 15 17  1  0  0  0  0
 17 18  2  0  0  0  0
 17 16  2  0  0  0  0
 21 20  1  0  0  0  0
 21 24  1  1  0  0  0
 22 19  1  6  0  0  0
 22 21  1  0  0  0  0
 22 20  1  0  0  0  0
 24 23  2  0  0  0  0
 25 24  1  0  0  0  0
 26 25  1  0  0  0  0
M  END
>  <MODEL>
4

>  <REMARK>
 VINA RESULT:      -7.7      2.241      5.211
  Name = 
  7 active torsions:
  status: ('A' for Active; 'I' for Inactive)
    1  A    between atoms: C_2  and  C_19
    2  A    between atoms: C_3  and  C_26
    3  A    between atoms: C_6  and  O_18
    4  A    between atoms: C_8  and  C_14
    5  A    between atoms: C_8  and  C_22
    6  A    between atoms: N_10  and  C_26
    7  A    between atoms: O_18  and  C_24
                            x       y       z     vdW  Elec       q    Type
                         _______ _______ _______ _____ _____    ______ ____

>  <TORSDO>
F 7

$$$$
=
 OpenBabel10232410013D

 26 28  0  0  1  0  0  0  0  0999 V2000
  187.0450  178.4170  146.1850 C   0  0  0  0  0  3  0  0  0  0  0  0
  185.5120  178.1980  144.3120 C   0  0  0  0  0  0  0  0  0  0  0  0
  188.0100  177.6590  145.5090 C   0  0  0  0  0  0  0  0  0  0  0  0
  187.7320  177.1790  144.2130 C   0  0  0  0  0  0  0  0  0  0  0  0
  185.8080  178.6820  145.5950 C   0  0  0  0  0  3  0  0  0  0  0  0
  186.4840  177.4500  143.6320 C   0  0  0  0  0  3  0  0  0  0  0  0
  181.7400  179.0010  142.5070 N   0  0  0  0  0  0  0  0  0  0  0  0
  183.0810  178.7890  144.4720 C   0  0  0  0  0  3  0  0  0  0  0  0
  181.8520  179.0490  143.8610 C   0  0  0  0  0  3  0  0  0  0  0  0
  184.2000  178.4780  143.6830 C   0  0  0  0  0  0  0  0  0  0  0  0
  184.0490  178.4360  142.2890 C   0  0  0  0  0  3  0  0  0  0  0  0
  182.8030  178.7020  141.7160 C   0  0  0  0  0  3  0  0  0  0  0  0
  188.2120  176.6310  148.1450 O   0  0  0  0  0  1  0  0  0  0  0  0
  189.3610  176.9140  147.4150 C   0  0  0  0  0  3  0  0  0  0  0  0
  189.3100  177.4050  146.1700 C   0  0  0  0  0  0  0  0  0  0  0  0
  190.6450  178.7940  144.8470 O   0  0  0  0  0  0  0  0  0  0  0  0
  190.5310  177.7260  145.4840 N   0  0  0  0  0  0  0  0  0  0  0  0
  191.6120  176.8770  145.5570 O   0  0  0  0  0  0  0  0  0  0  0  0
  188.7070  176.4580  143.5120 O   0  0  0  0  0  0  0  0  0  0  0  0
  190.1680  177.2090  141.7690 C   0  0  0  0  0  2  0  0  0  0  0  0
  188.8720  178.0000  141.6830 C   0  0  2  0  0  3  0  0  0  0  0  0
  188.8560  176.5380  142.1010 C   0  0  2  0  0  3  0  0  0  0  0  0
  187.1460  178.4110  139.9940 C   0  0  0  0  0  2  0  0  0  0  0  0
  188.4230  178.1370  140.2510 C   0  0  0  0  0  0  0  0  0  0  0  0
  189.3930  178.1970  139.1030 C   0  0  0  0  0  2  0  0  0  0  0  0
  188.9800  179.1600  138.0940 N   0  0  0  0  0  1  0  0  0  0  0  0
  2  5  2  0  0  0  0
  3 15  1  0  0  0  0
  3  1  2  0  0  0  0
  4  3  1  0  0  0  0
  5  1  1  0  0  0  0
  6  4  2  0  0  0  0
  6  2  1  0  0  0  0
  7  9  1  0  0  0  0
  9  8  2  0  0  0  0
 10  2  1  0  0  0  0
 10  8  1  0  0  0  0
 11 10  2  0  0  0  0
 12 11  1  0  0  0  0
 12  7  2  0  0  0  0
 14 13  1  0  0  0  0
 15 14  2  0  0  0  0
 16 17  2  0  0  0  0
 17 18  2  0  0  0  0
 17 15  1  0  0  0  0
 19  4  1  0  0  0  0
 20 22  1  0  0  0  0
 21 24  1  6  0  0  0
 21 20  1  0  0  0  0
 21 22  1  0  0  0  0
 22 19  1  1  0  0  0
 23 24  2  0  0  0  0
 25 24  1  0  0  0  0
 26 25  1  0  0  0  0
M  END
>  <MODEL>
5

>  <REMARK>
 VINA RESULT:      -7.5      1.893      2.758
  Name = 
  7 active torsions:
  status: ('A' for Active; 'I' for Inactive)
    1  A    between atoms: C_2  and  C_19
    2  A    between atoms: C_3  and  C_26
    3  A    between atoms: C_6  and  O_18
    4  A    between atoms: C_8  and  C_14
    5  A    between atoms: C_8  and  C_22
    6  A    between atoms: N_10  and  C_26
    7  A    between atoms: O_18  and  C_24
                            x       y       z     vdW  Elec       q    Type
                         _______ _______ _______ _____ _____    ______ ____

>  <TORSDO>
F 7

$$$$
=
 OpenBabel10232410013D

 26 28  0  0  1  0  0  0  0  0999 V2000
  183.4870  178.5800  142.1540 C   0  0  0  0  0  3  0  0  0  0  0  0
  185.4910  178.3760  143.5130 C   0  0  0  0  0  0  0  0  0  0  0  0
  184.2580  178.5980  140.9850 C   0  0  0  0  0  0  0  0  0  0  0  0
  185.6600  178.4850  141.0770 C   0  0  0  0  0  0  0  0  0  0  0  0
  184.0960  178.4730  143.4060 C   0  0  0  0  0  3  0  0  0  0  0  0
  186.2600  178.3810  142.3420 C   0  0  0  0  0  3  0  0  0  0  0  0
  187.3580  178.0440  147.3260 N   0  0  0  0  0  0  0  0  0  0  0  0
  187.4080  177.6730  144.9680 C   0  0  0  0  0  3  0  0  0  0  0  0
  188.0040  177.5740  146.2270 C   0  0  0  0  0  3  0  0  0  0  0  0
  186.1400  178.2620  144.8410 C   0  0  0  0  0  0  0  0  0  0  0  0
  185.5000  178.7370  145.9960 C   0  0  0  0  0  3  0  0  0  0  0  0
  186.1290  178.6190  147.2370 C   0  0  0  0  0  3  0  0  0  0  0  0
  183.2520  176.3440  139.5880 O   0  0  0  0  0  1  0  0  0  0  0  0
  183.1070  177.6190  139.0540 C   0  0  0  0  0  3  0  0  0  0  0  0
  183.5710  178.7090  139.6790 C   0  0  0  0  0  0  0  0  0  0  0  0
  184.4420  180.6880  138.7900 O   0  0  0  0  0  0  0  0  0  0  0  0
  183.4360  179.9960  139.0530 N   0  0  0  0  0  0  0  0  0  0  0  0
  182.1940  180.4650  138.6930 O   0  0  0  0  0  0  0  0  0  0  0  0
  186.4360  178.4580  139.9110 O   0  0  0  0  0  0  0  0  0  0  0  0
  188.3860  178.4240  138.5220 C   0  0  0  0  0  2  0  0  0  0  0  0
  188.4470  177.2310  139.4630 C   0  0  2  0  0  3  0  0  0  0  0  0
  187.8540  178.5510  139.9300 C   0  0  2  0  0  3  0  0  0  0  0  0
  190.0100  177.0360  141.3400 C   0  0  0  0  0  2  0  0  0  0  0  0
  189.8370  177.0590  140.0190 C   0  0  0  0  0  0  0  0  0  0  0  0
  191.0130  176.6910  139.1570 C   0  0  0  0  0  2  0  0  0  0  0  0
  190.8230  175.4080  138.4990 N   0  0  0  0  0  1  0  0  0  0  0  0
  1  5  1  0  0  0  0
  2 10  1  0  0  0  0
  3  4  1  0  0  0  0
  3  1  2  0  0  0  0
  4  6  2  0  0  0  0
  5  2  2  0  0  0  0
  6  2  1  0  0  0  0
  8  9  1  0  0  0  0
  9  7  2  0  0  0  0
 10  8  2  0  0  0  0
 10 11  1  0  0  0  0
 11 12  2  0  0  0  0
 12  7  1  0  0  0  0
 14 13  1  0  0  0  0
 14 15  2  0  0  0  0
 15  3  1  0  0  0  0
 16 17  2  0  0  0  0
 17 15  1  0  0  0  0
 18 17  2  0  0  0  0
 19  4  1  0  0  0  0
 20 21  1  0  0  0  0
 20 22  1  0  0  0  0
 21 22  1  0  0  0  0
 21 24  1  1  0  0  0
 22 19  1  6  0  0  0
 24 23  2  0  0  0  0
 25 24  1  0  0  0  0
 26 25  1  0  0  0  0
M  END
>  <MODEL>
6

>  <REMARK>
 VINA RESULT:      -7.2      3.176      5.896
  Name = 
  7 active torsions:
  status: ('A' for Active; 'I' for Inactive)
    1  A    between atoms: C_2  and  C_19
    2  A    between atoms: C_3  and  C_26
    3  A    between atoms: C_6  and  O_18
    4  A    between atoms: C_8  and  C_14
    5  A    between atoms: C_8  and  C_22
    6  A    between atoms: N_10  and  C_26
    7  A    between atoms: O_18  and  C_24
                            x       y       z     vdW  Elec       q    Type
                         _______ _______ _______ _____ _____    ______ ____

>  <TORSDO>
F 7

$$$$
=
 OpenBabel10232410013D

 26 28  0  0  1  0  0  0  0  0999 V2000
  191.3600  177.2910  141.3450 C   0  0  0  0  0  3  0  0  0  0  0  0
  189.3560  177.5940  140.0050 C   0  0  0  0  0  0  0  0  0  0  0  0
  190.5850  177.0610  142.4880 C   0  0  0  0  0  0  0  0  0  0  0  0
  189.1790  177.0770  142.3870 C   0  0  0  0  0  0  0  0  0  0  0  0
  190.7530  177.5570  140.1160 C   0  0  0  0  0  3  0  0  0  0  0  0
  188.5810  177.3500  141.1470 C   0  0  0  0  0  3  0  0  0  0  0  0
  187.4990  178.4060  136.2600 N   0  0  0  0  0  0  0  0  0  0  0  0
  189.4770  177.9960  137.5330 C   0  0  0  0  0  3  0  0  0  0  0  0
  188.8490  178.2620  136.3140 C   0  0  0  0  0  3  0  0  0  0  0  0
  188.7090  177.8760  138.7020 C   0  0  0  0  0  0  0  0  0  0  0  0
  187.3170  178.0300  138.6100 C   0  0  0  0  0  3  0  0  0  0  0  0
  186.7270  178.2970  137.3730 C   0  0  0  0  0  3  0  0  0  0  0  0
  191.2040  174.4280  143.3450 O   0  0  0  0  0  1  0  0  0  0  0  0
  191.5470  175.5200  144.1350 C   0  0  0  0  0  3  0  0  0  0  0  0
  191.2700  176.7780  143.7690 C   0  0  0  0  0  0  0  0  0  0  0  0
  191.6720  179.0350  144.2260 O   0  0  0  0  0  0  0  0  0  0  0  0
  191.6050  177.8620  144.6520 N   0  0  0  0  0  0  0  0  0  0  0  0
  191.8130  177.6280  145.9910 O   0  0  0  0  0  0  0  0  0  0  0  0
  188.3960  176.8040  143.5160 O   0  0  0  0  0  0  0  0  0  0  0  0
  187.9640  177.4120  145.7920 C   0  0  0  0  0  2  0  0  0  0  0  0
  186.6320  177.2890  145.0680 C   0  0  2  0  0  3  0  0  0  0  0  0
  187.8570  177.8260  144.3430 C   0  0  2  0  0  3  0  0  0  0  0  0
  185.6870  178.8450  146.7080 C   0  0  0  0  0  2  0  0  0  0  0  0
  185.7120  178.4210  145.4450 C   0  0  0  0  0  0  0  0  0  0  0  0
  184.9820  179.2450  144.4200 C   0  0  0  0  0  2  0  0  0  0  0  0
  184.2820  178.4130  143.4530 N   0  0  0  0  0  1  0  0  0  0  0  0
  1  3  1  0  0  0  0
  2  5  1  0  0  0  0
  2  6  2  0  0  0  0
  3 15  1  0  0  0  0
  4  3  2  0  0  0  0
  4 19  1  0  0  0  0
  5  1  2  0  0  0  0
  6  4  1  0  0  0  0
  7  9  2  0  0  0  0
  7 12  1  0  0  0  0
  8 10  2  0  0  0  0
  9  8  1  0  0  0  0
 10  2  1  0  0  0  0
 11 10  1  0  0  0  0
 12 11  2  0  0  0  0
 13 14  1  0  0  0  0
 15 14  2  0  0  0  0
 15 17  1  0  0  0  0
 16 17  2  0  0  0  0
 17 18  2  0  0  0  0
 21 24  1  1  0  0  0
 21 20  1  0  0  0  0
 22 19  1  6  0  0  0
 22 21  1  0  0  0  0
 22 20  1  0  0  0  0
 24 23  2  0  0  0  0
 25 24  1  0  0  0  0
 26 25  1  0  0  0  0
M  END
>  <MODEL>
7

>  <REMARK>
 VINA RESULT:      -7.1      1.739      5.786
  Name = 
  7 active torsions:
  status: ('A' for Active; 'I' for Inactive)
    1  A    between atoms: C_2  and  C_19
    2  A    between atoms: C_3  and  C_26
    3  A    between atoms: C_6  and  O_18
    4  A    between atoms: C_8  and  C_14
    5  A    between atoms: C_8  and  C_22
    6  A    between atoms: N_10  and  C_26
    7  A    between atoms: O_18  and  C_24
                            x       y       z     vdW  Elec       q    Type
                         _______ _______ _______ _____ _____    ______ ____

>  <TORSDO>
F 7

$$$$
=
 OpenBabel10232410013D

 26 28  0  0  1  0  0  0  0  0999 V2000
  183.7300  178.3260  141.5890 C   0  0  0  0  0  3  0  0  0  0  0  0
  185.4960  178.3750  143.2570 C   0  0  0  0  0  0  0  0  0  0  0  0
  184.6760  178.3770  140.5580 C   0  0  0  0  0  0  0  0  0  0  0  0
  186.0480  178.4090  140.8760 C   0  0  0  0  0  0  0  0  0  0  0  0
  184.1350  178.3280  142.9250 C   0  0  0  0  0  3  0  0  0  0  0  0
  186.4420  178.4130  142.2230 C   0  0  0  0  0  3  0  0  0  0  0  0
  186.7380  178.3830  147.3300 N   0  0  0  0  0  0  0  0  0  0  0  0
  185.1840  179.0610  145.6490 C   0  0  0  0  0  3  0  0  0  0  0  0
  185.6080  179.0520  146.9790 C   0  0  0  0  0  3  0  0  0  0  0  0
  185.9290  178.3770  144.6750 C   0  0  0  0  0  0  0  0  0  0  0  0
  187.0910  177.6970  145.0710 C   0  0  0  0  0  3  0  0  0  0  0  0
  187.4810  177.7120  146.4120 C   0  0  0  0  0  3  0  0  0  0  0  0
  184.1060  180.7560  139.1200 O   0  0  0  0  0  1  0  0  0  0  0  0
  183.9500  179.5160  138.5110 C   0  0  0  0  0  3  0  0  0  0  0  0
  184.2030  178.3690  139.1550 C   0  0  0  0  0  0  0  0  0  0  0  0
  182.9870  176.4100  138.7770 O   0  0  0  0  0  0  0  0  0  0  0  0
  183.9750  177.1170  138.4880 N   0  0  0  0  0  0  0  0  0  0  0  0
  184.8210  176.6990  137.4870 O   0  0  0  0  0  0  0  0  0  0  0  0
  187.0030  178.4150  139.8500 O   0  0  0  0  0  0  0  0  0  0  0  0
  189.1580  178.3710  138.8070 C   0  0  0  0  0  2  0  0  0  0  0  0
  189.0890  177.2320  139.8130 C   0  0  2  0  0  3  0  0  0  0  0  0
  188.3950  178.5560  140.0980 C   0  0  2  0  0  3  0  0  0  0  0  0
  191.5340  177.2880  139.9690 C   0  0  0  0  0  2  0  0  0  0  0  0
  190.3710  177.1370  140.6010 C   0  0  0  0  0  0  0  0  0  0  0  0
  190.3940  177.1000  142.1040 C   0  0  0  0  0  2  0  0  0  0  0  0
  190.2710  175.7440  142.6150 N   0  0  0  0  0  1  0  0  0  0  0  0
  1  5  1  0  0  0  0
  2 10  1  0  0  0  0
  3  4  1  0  0  0  0
  3  1  2  0  0  0  0
  4  6  2  0  0  0  0
  5  2  2  0  0  0  0
  6  2  1  0  0  0  0
  8  9  2  0  0  0  0
  9  7  1  0  0  0  0
 10 11  2  0  0  0  0
 10  8  1  0  0  0  0
 11 12  1  0  0  0  0
 12  7  2  0  0  0  0
 14 13  1  0  0  0  0
 14 15  2  0  0  0  0
 15  3  1  0  0  0  0
 17 16  2  0  0  0  0
 17 15  1  0  0  0  0
 18 17  2  0  0  0  0
 19  4  1  0  0  0  0
 20 21  1  0  0  0  0
 20 22  1  0  0  0  0
 21 22  1  0  0  0  0
 21 24  1  1  0  0  0
 22 19  1  6  0  0  0
 23 24  2  0  0  0  0
 24 25  1  0  0  0  0
 25 26  1  0  0  0  0
M  END
>  <MODEL>
8

>  <REMARK>
 VINA RESULT:      -7.1      2.945      5.528
  Name = 
  7 active torsions:
  status: ('A' for Active; 'I' for Inactive)
    1  A    between atoms: C_2  and  C_19
    2  A    between atoms: C_3  and  C_26
    3  A    between atoms: C_6  and  O_18
    4  A    between atoms: C_8  and  C_14
    5  A    between atoms: C_8  and  C_22
    6  A    between atoms: N_10  and  C_26
    7  A    between atoms: O_18  and  C_24
                            x       y       z     vdW  Elec       q    Type
                         _______ _______ _______ _____ _____    ______ ____

>  <TORSDO>
F 7

$$$$
=
 OpenBabel10232410013D

 26 28  0  0  1  0  0  0  0  0999 V2000
  190.6920  176.9420  141.1360 C   0  0  0  0  0  3  0  0  0  0  0  0
  190.0050  177.1870  143.4540 C   0  0  0  0  0  0  0  0  0  0  0  0
  189.4310  177.3630  140.6970 C   0  0  0  0  0  0  0  0  0  0  0  0
  188.4490  177.7180  141.6450 C   0  0  0  0  0  0  0  0  0  0  0  0
  190.9770  176.8530  142.5000 C   0  0  0  0  0  3  0  0  0  0  0  0
  188.7470  177.6200  143.0130 C   0  0  0  0  0  3  0  0  0  0  0  0
  190.8660  176.9140  147.6150 N   0  0  0  0  0  0  0  0  0  0  0  0
  191.5430  176.6030  145.3470 C   0  0  0  0  0  3  0  0  0  0  0  0
  191.8060  176.5210  146.7150 C   0  0  0  0  0  3  0  0  0  0  0  0
  190.3040  177.0930  144.9020 C   0  0  0  0  0  0  0  0  0  0  0  0
  189.3560  177.4890  145.8580 C   0  0  0  0  0  3  0  0  0  0  0  0
  189.6580  177.3910  147.2180 C   0  0  0  0  0  3  0  0  0  0  0  0
  190.4320  175.4560  138.8510 O   0  0  0  0  0  1  0  0  0  0  0  0
  189.6610  176.5230  138.4050 C   0  0  0  0  0  3  0  0  0  0  0  0
  189.1730  177.4480  139.2420 C   0  0  0  0  0  0  0  0  0  0  0  0
  188.9820  179.6480  138.4780 O   0  0  0  0  0  0  0  0  0  0  0  0
  188.4240  178.5560  138.7160 N   0  0  0  0  0  0  0  0  0  0  0  0
  187.0870  178.4140  138.4240 O   0  0  0  0  0  0  0  0  0  0  0  0
  187.1990  178.1820  141.2140 O   0  0  0  0  0  0  0  0  0  0  0  0
  184.9070  178.8550  141.3840 C   0  0  0  0  0  2  0  0  0  0  0  0
  185.6440  179.3430  142.6220 C   0  0  2  0  0  3  0  0  0  0  0  0
  186.0140  178.0150  141.9790 C   0  0  2  0  0  3  0  0  0  0  0  0
  183.4960  178.9970  143.7500 C   0  0  0  0  0  2  0  0  0  0  0  0
  184.8190  179.1100  143.8620 C   0  0  0  0  0  0  0  0  0  0  0  0
  185.4360  178.7760  145.1920 C   0  0  0  0  0  2  0  0  0  0  0  0
  184.4530  178.7890  146.2650 N   0  0  0  0  0  1  0  0  0  0  0  0
  1  5  1  0  0  0  0
  2 10  1  0  0  0  0
  3  1  2  0  0  0  0
  3  4  1  0  0  0  0
  4  6  2  0  0  0  0
  5  2  2  0  0  0  0
  6  2  1  0  0  0  0
  8  9  1  0  0  0  0
  9  7  2  0  0  0  0
 10  8  2  0  0  0  0
 10 11  1  0  0  0  0
 11 12  2  0  0  0  0
 12  7  1  0  0  0  0
 14 13  1  0  0  0  0
 14 15  2  0  0  0  0
 15  3  1  0  0  0  0
 16 17  2  0  0  0  0
 17 15  1  0  0  0  0
 18 17  2  0  0  0  0
 19  4  1  0  0  0  0
 20 22  1  0  0  0  0
 20 21  1  0  0  0  0
 21 24  1  1  0  0  0
 22 19  1  6  0  0  0
 22 21  1  0  0  0  0
 23 24  2  0  0  0  0
 24 25  1  0  0  0  0
 25 26  1  0  0  0  0
M  END
>  <MODEL>
9

>  <REMARK>
 VINA RESULT:      -7.1      2.442      6.327
  Name = 
  7 active torsions:
  status: ('A' for Active; 'I' for Inactive)
    1  A    between atoms: C_2  and  C_19
    2  A    between atoms: C_3  and  C_26
    3  A    between atoms: C_6  and  O_18
    4  A    between atoms: C_8  and  C_14
    5  A    between atoms: C_8  and  C_22
    6  A    between atoms: N_10  and  C_26
    7  A    between atoms: O_18  and  C_24
                            x       y       z     vdW  Elec       q    Type
                         _______ _______ _______ _____ _____    ______ ____

>  <TORSDO>
F 7

$$$$
