=
 OpenBabel10222421583D

 40 44  0  0  1  0  0  0  0  0999 V2000
  188.4480  177.8360  140.9630 C   0  0  0  0  0  1  0  0  0  0  0  0
  186.5640  175.8640  136.5840 C   0  0  0  0  0  1  0  0  0  0  0  0
  185.7210  176.9140  137.2770 C   0  0  1  0  0  0  0  0  0  0  0  0
  182.3840  177.9170  137.3070 C   0  0  0  0  0  2  0  0  0  0  0  0
  186.3340  177.2680  138.6490 C   0  0  1  0  0  3  0  0  0  0  0  0
  183.9740  178.1220  139.3480 C   0  0  1  0  0  0  0  0  0  0  0  0
  187.6310  178.0680  138.6850 C   0  0  1  0  0  3  0  0  0  0  0  0
  183.3420  177.2070  138.2740 C   0  0  2  0  0  3  0  0  0  0  0  0
  181.8470  179.2740  137.7900 C   0  0  2  0  0  3  0  0  0  0  0  0
  183.1000  178.7320  140.4440 C   0  0  0  0  0  2  0  0  0  0  0  0
  185.6370  178.0370  136.4490 O   0  0  0  0  0  1  0  0  0  0  0  0
  185.4550  178.1390  139.5120 C   0  0  2  0  0  0  0  0  0  0  0  0
  180.9900  179.2160  139.0730 C   0  0  1  0  0  3  0  0  0  0  0  0
  187.7440  178.7100  140.0200 N   0  0  0  0  0  0  0  0  0  0  0  0
  184.7660  179.1000  138.7360 O   0  0  0  0  0  0  0  0  0  0  0  0
  186.3370  178.9470  140.4400 C   0  0  2  0  0  3  0  0  0  0  0  0
  184.3270  176.3090  137.5030 C   0  0  0  0  0  2  0  0  0  0  0  0
  181.6210  178.4140  140.2230 C   0  0  0  0  0  2  0  0  0  0  0  0
  186.0250  178.7830  141.9090 C   0  0  0  0  0  0  0  0  0  0  0  0
  185.4280  178.5370  144.6350 C   0  0  0  0  0  0  0  0  0  0  0  0
  184.8690  179.5770  143.8880 C   0  0  0  0  0  3  0  0  0  0  0  0
  185.1690  179.7010  142.5270 C   0  0  0  0  0  3  0  0  0  0  0  0
  186.2880  177.6210  144.0250 C   0  0  0  0  0  3  0  0  0  0  0  0
  186.5890  177.7430  142.6660 C   0  0  0  0  0  3  0  0  0  0  0  0
  184.8710  178.3100  147.1580 N   0  0  0  0  0  0  0  0  0  0  0  0
  185.1190  178.4110  146.0320 C   0  0  0  0  0  0  0  0  0  0  0  0
  180.6620  180.6240  139.5550 C   0  0  0  0  0  2  0  0  0  0  0  0
  180.0400  180.5710  140.8020 O   0  0  0  0  0  1  0  0  0  0  0  0
  188.8900  177.3760  138.1170 C   0  0  1  0  0  3  0  0  0  0  0  0
  189.3530  178.0290  136.8270 C   0  0  0  0  0  1  0  0  0  0  0  0
  190.2680  177.2230  139.3090 S   0  0  0  0  0  0  0  0  0  0  0  0
  191.4110  176.5550  138.0640 C   0  0  2  0  0  3  0  0  0  0  0  0
  191.0780  175.0960  137.8200 C   0  0  0  0  0  1  0  0  0  0  0  0
  192.7800  176.6710  138.5430 N   0  0  0  0  0  2  0  0  0  0  0  0
  194.6490  175.2970  138.3980 O   0  0  0  0  0  1  0  0  0  0  0  0
  193.6260  175.8860  137.6580 C   0  0  0  0  0  3  0  0  0  0  0  0
  194.1800  176.7130  136.6800 O   0  0  0  0  0  1  0  0  0  0  0  0
  181.0980  179.9580  136.6490 C   0  0  0  0  0  2  0  0  0  0  0  0
  180.8650  180.1240  134.4600 C   0  0  0  0  0  1  0  0  0  0  0  0
  181.2270  179.2270  135.4650 O   0  0  0  0  0  0  0  0  0  0  0  0
  3  2  1  6  0  0  0
  3 17  1  0  0  0  0
  3  5  1  0  0  0  0
  4  9  1  0  0  0  0
  4  8  1  0  0  0  0
  5  7  1  0  0  0  0
  5 12  1  0  0  0  0
  6 12  1  0  0  0  0
  6 10  1  0  0  0  0
  7 14  1  0  0  0  0
  8  6  1  0  0  0  0
  9 13  1  0  0  0  0
 11  3  1  0  0  0  0
 12 16  1  0  0  0  0
 13 27  1  0  0  0  0
 13 18  1  0  0  0  0
 14 16  1  0  0  0  0
 14  1  1  0  0  0  0
 15  6  1  0  0  0  0
 15 12  1  0  0  0  0
 16 19  1  0  0  0  0
 17  8  1  0  0  0  0
 18 10  1  0  0  0  0
 19 22  2  0  0  0  0
 19 24  1  0  0  0  0
 20 26  1  0  0  0  0
 21 20  2  0  0  0  0
 22 21  1  0  0  0  0
 23 20  1  0  0  0  0
 24 23  2  0  0  0  0
 26 25  3  0  0  0  0
 27 28  1  0  0  0  0
 29  7  1  0  0  0  0
 29 31  1  0  0  0  0
 30 29  1  0  0  0  0
 32 34  1  0  0  0  0
 32 31  1  0  0  0  0
 33 32  1  0  0  0  0
 36 35  1  0  0  0  0
 36 34  1  0  0  0  0
 37 36  1  0  0  0  0
 38  9  1  0  0  0  0
 39 40  1  0  0  0  0
 40 38  1  0  0  0  0
M  END
>  <MODEL>
1

>  <REMARK>
 VINA RESULT:      -6.6      0.000      0.000
  Name = 
  10 active torsions:
  status: ('A' for Active; 'I' for Inactive)
    1  A    between atoms: C_7  and  C_21
    2  A    between atoms: C_9  and  C_20
    3  A    between atoms: C_10  and  C_30
    4  A    between atoms: C_14  and  N_29
    5  A    between atoms: C_14  and  S_32
    6  A    between atoms: C_16  and  C_36
    7  A    between atoms: O_19  and  C_30
    8  A    between atoms: C_21  and  S_32
    9  A    between atoms: C_22  and  C_40
   10  A    between atoms: C_24  and  N_29
                            x       y       z     vdW  Elec       q    Type
                         _______ _______ _______ _____ _____    ______ ____

>  <TORSDO>
F 10

$$$$
=
 OpenBabel10222421583D

 40 44  0  0  1  0  0  0  0  0999 V2000
  192.0790  176.7690  138.3510 C   0  0  0  0  0  1  0  0  0  0  0  0
  187.1890  177.8340  137.1010 C   0  0  0  0  0  1  0  0  0  0  0  0
  187.6130  176.3820  137.0210 C   0  0  1  0  0  0  0  0  0  0  0  0
  186.5330  173.4780  135.4250 C   0  0  0  0  0  2  0  0  0  0  0  0
  189.1340  176.2590  137.2500 C   0  0  1  0  0  3  0  0  0  0  0  0
  189.0140  173.9700  136.0110 C   0  0  1  0  0  0  0  0  0  0  0  0
  189.6820  176.4990  138.6530 C   0  0  1  0  0  3  0  0  0  0  0  0
  187.7240  174.4410  135.3010 C   0  0  2  0  0  3  0  0  0  0  0  0
  186.8910  172.0370  135.8220 C   0  0  2  0  0  3  0  0  0  0  0  0
  189.7710  172.7480  135.4920 C   0  0  0  0  0  2  0  0  0  0  0  0
  186.8910  175.6540  137.9700 O   0  0  0  0  0  1  0  0  0  0  0  0
  189.6910  174.8840  136.9740 C   0  0  2  0  0  0  0  0  0  0  0  0
  187.7820  171.2850  134.8090 C   0  0  1  0  0  3  0  0  0  0  0  0
  191.0140  175.8450  138.7490 N   0  0  0  0  0  0  0  0  0  0  0  0
  188.7920  173.8740  137.3900 O   0  0  0  0  0  0  0  0  0  0  0  0
  190.9260  174.6820  137.8270 C   0  0  2  0  0  3  0  0  0  0  0  0
  187.2880  175.8870  135.6040 C   0  0  0  0  0  2  0  0  0  0  0  0
  189.0200  172.0690  134.3460 C   0  0  0  0  0  2  0  0  0  0  0  0
  192.1740  174.3260  137.0540 C   0  0  0  0  0  0  0  0  0  0  0  0
  194.5100  173.6330  135.6700 C   0  0  0  0  0  0  0  0  0  0  0  0
  194.1020  172.8810  136.7750 C   0  0  0  0  0  3  0  0  0  0  0  0
  192.9370  173.2280  137.4670 C   0  0  0  0  0  3  0  0  0  0  0  0
  193.7550  174.7340  135.2570 C   0  0  0  0  0  3  0  0  0  0  0  0
  192.5910  175.0830  135.9470 C   0  0  0  0  0  3  0  0  0  0  0  0
  196.6700  172.9880  134.3880 N   0  0  0  0  0  0  0  0  0  0  0  0
  195.7050  173.2760  134.9600 C   0  0  0  0  0  0  0  0  0  0  0  0
  188.2160  169.9410  135.3820 C   0  0  0  0  0  2  0  0  0  0  0  0
  189.1000  169.3100  134.5070 O   0  0  0  0  0  1  0  0  0  0  0  0
  189.5480  177.9310  139.2160 C   0  0  1  0  0  3  0  0  0  0  0  0
  189.3230  178.9470  138.1100 C   0  0  0  0  0  1  0  0  0  0  0  0
  188.2940  178.1070  140.5350 S   0  0  0  0  0  0  0  0  0  0  0  0
  189.3710  177.3730  141.8020 C   0  0  2  0  0  3  0  0  0  0  0  0
  188.5420  176.4670  142.6910 C   0  0  0  0  0  1  0  0  0  0  0  0
  189.9740  178.4270  142.6030 N   0  0  0  0  0  2  0  0  0  0  0  0
  191.8130  177.3150  141.7160 O   0  0  0  0  0  1  0  0  0  0  0  0
  191.3780  178.0950  142.7860 C   0  0  0  0  0  3  0  0  0  0  0  0
  191.5420  177.3810  143.9740 O   0  0  0  0  0  1  0  0  0  0  0  0
  185.6110  171.2620  136.1230 C   0  0  0  0  0  2  0  0  0  0  0  0
  183.5450  171.0480  135.3780 C   0  0  0  0  0  1  0  0  0  0  0  0
  184.8730  171.0510  134.9560 O   0  0  0  0  0  0  0  0  0  0  0  0
  1 14  1  0  0  0  0
  3  2  1  1  0  0  0
  3  5  1  0  0  0  0
  3 11  1  0  0  0  0
  4  9  1  0  0  0  0
  5  7  1  0  0  0  0
  6 12  1  0  0  0  0
  6 15  1  0  0  0  0
  7 14  1  0  0  0  0
  7 29  1  0  0  0  0
  8  4  1  0  0  0  0
  8 17  1  0  0  0  0
  8  6  1  0  0  0  0
  9 38  1  0  0  0  0
 10  6  1  0  0  0  0
 12  5  1  0  0  0  0
 12 15  1  0  0  0  0
 12 16  1  0  0  0  0
 13 27  1  0  0  0  0
 13  9  1  0  0  0  0
 16 14  1  0  0  0  0
 17  3  1  0  0  0  0
 18 13  1  0  0  0  0
 18 10  1  0  0  0  0
 19 22  1  0  0  0  0
 19 16  1  0  0  0  0
 20 21  1  0  0  0  0
 21 22  2  0  0  0  0
 23 20  2  0  0  0  0
 23 24  1  0  0  0  0
 24 19  2  0  0  0  0
 25 26  3  0  0  0  0
 26 20  1  0  0  0  0
 28 27  1  0  0  0  0
 29 31  1  0  0  0  0
 30 29  1  0  0  0  0
 31 32  1  0  0  0  0
 32 34  1  0  0  0  0
 32 33  1  0  0  0  0
 34 36  1  0  0  0  0
 35 36  1  0  0  0  0
 36 37  1  0  0  0  0
 40 39  1  0  0  0  0
 40 38  1  0  0  0  0
M  END
>  <MODEL>
2

>  <REMARK>
 VINA RESULT:      -5.6      4.474      8.803
  Name = 
  10 active torsions:
  status: ('A' for Active; 'I' for Inactive)
    1  A    between atoms: C_7  and  C_21
    2  A    between atoms: C_9  and  C_20
    3  A    between atoms: C_10  and  C_30
    4  A    between atoms: C_14  and  N_29
    5  A    between atoms: C_14  and  S_32
    6  A    between atoms: C_16  and  C_36
    7  A    between atoms: O_19  and  C_30
    8  A    between atoms: C_21  and  S_32
    9  A    between atoms: C_22  and  C_40
   10  A    between atoms: C_24  and  N_29
                            x       y       z     vdW  Elec       q    Type
                         _______ _______ _______ _____ _____    ______ ____

>  <TORSDO>
F 10

$$$$
=
 OpenBabel10222421583D

 40 44  0  0  1  0  0  0  0  0999 V2000
  184.8200  178.0190  137.7120 C   0  0  0  0  0  1  0  0  0  0  0  0
  184.2930  178.2940  142.8370 C   0  0  0  0  0  1  0  0  0  0  0  0
  185.7030  178.3850  142.2900 C   0  0  1  0  0  0  0  0  0  0  0  0
  188.9480  177.9010  143.4650 C   0  0  0  0  0  2  0  0  0  0  0  0
  185.7040  178.1100  140.7710 C   0  0  1  0  0  3  0  0  0  0  0  0
  188.2250  177.4990  141.0040 C   0  0  1  0  0  0  0  0  0  0  0  0
  185.1110  179.1610  139.8380 C   0  0  1  0  0  3  0  0  0  0  0  0
  187.9930  177.1820  142.5000 C   0  0  2  0  0  3  0  0  0  0  0  0
  190.2360  178.4500  142.8300 C   0  0  2  0  0  3  0  0  0  0  0  0
  189.5030  177.0260  140.3110 C   0  0  0  0  0  2  0  0  0  0  0  0
  186.2130  179.6540  142.5800 O   0  0  0  0  0  1  0  0  0  0  0  0
  187.0790  177.9600  140.1710 C   0  0  2  0  0  0  0  0  0  0  0  0
  191.1700  177.3800  142.2240 C   0  0  1  0  0  3  0  0  0  0  0  0
  185.6660  178.9390  138.4770 N   0  0  0  0  0  0  0  0  0  0  0  0
  187.9980  178.8590  140.7640 O   0  0  0  0  0  0  0  0  0  0  0  0
  187.0190  178.3700  138.7140 C   0  0  2  0  0  3  0  0  0  0  0  0
  186.5370  177.3000  142.9870 C   0  0  0  0  0  2  0  0  0  0  0  0
  190.4680  176.3720  141.3000 C   0  0  0  0  0  2  0  0  0  0  0  0
  187.4970  177.3160  137.7430 C   0  0  0  0  0  0  0  0  0  0  0  0
  188.3610  175.3160  135.9800 C   0  0  0  0  0  0  0  0  0  0  0  0
  187.3590  175.0400  136.9150 C   0  0  0  0  0  3  0  0  0  0  0  0
  186.9300  176.0370  137.7960 C   0  0  0  0  0  3  0  0  0  0  0  0
  188.9360  176.5890  135.9270 C   0  0  0  0  0  3  0  0  0  0  0  0
  188.5080  177.5870  136.8070 C   0  0  0  0  0  3  0  0  0  0  0  0
  189.1560  173.4660  134.3460 N   0  0  0  0  0  0  0  0  0  0  0  0
  188.8010  174.2920  135.0760 C   0  0  0  0  0  0  0  0  0  0  0  0
  192.3180  178.0440  141.4730 C   0  0  0  0  0  2  0  0  0  0  0  0
  192.8070  177.1860  140.4890 O   0  0  0  0  0  1  0  0  0  0  0  0
  183.5930  179.4190  139.9570 C   0  0  1  0  0  3  0  0  0  0  0  0
  183.0910  180.3210  138.8450 C   0  0  0  0  0  1  0  0  0  0  0  0
  182.5790  177.9020  140.0830 S   0  0  0  0  0  0  0  0  0  0  0  0
  181.0340  178.8280  140.3210 C   0  0  2  0  0  3  0  0  0  0  0  0
  180.6350  178.7580  141.7820 C   0  0  0  0  0  1  0  0  0  0  0  0
  179.9830  178.2480  139.4980 N   0  0  0  0  0  2  0  0  0  0  0  0
  180.5140  178.2550  137.2340 O   0  0  0  0  0  1  0  0  0  0  0  0
  180.6230  177.5200  138.4130 C   0  0  0  0  0  3  0  0  0  0  0  0
  180.0000  176.2820  138.2450 O   0  0  0  0  0  1  0  0  0  0  0  0
  190.9690  179.3220  143.8450 C   0  0  0  0  0  2  0  0  0  0  0  0
  191.2350  177.9240  145.5320 C   0  0  0  0  0  1  0  0  0  0  0  0
  191.9400  178.5810  144.5250 O   0  0  0  0  0  0  0  0  0  0  0  0
  1 14  1  0  0  0  0
  3 11  1  0  0  0  0
  3  2  1  1  0  0  0
  3 17  1  0  0  0  0
  5  3  1  0  0  0  0
  6  8  1  0  0  0  0
  7 29  1  0  0  0  0
  7  5  1  0  0  0  0
  8 17  1  0  0  0  0
  8  4  1  0  0  0  0
  9  4  1  0  0  0  0
  9 38  1  0  0  0  0
 10  6  1  0  0  0  0
 10 18  1  0  0  0  0
 12 15  1  0  0  0  0
 12  5  1  0  0  0  0
 12  6  1  0  0  0  0
 13  9  1  0  0  0  0
 14 16  1  0  0  0  0
 14  7  1  0  0  0  0
 15  6  1  0  0  0  0
 16 12  1  0  0  0  0
 18 13  1  0  0  0  0
 19 22  1  0  0  0  0
 19 16  1  0  0  0  0
 20 21  1  0  0  0  0
 21 22  2  0  0  0  0
 23 20  2  0  0  0  0
 23 24  1  0  0  0  0
 24 19  2  0  0  0  0
 25 26  3  0  0  0  0
 26 20  1  0  0  0  0
 27 13  1  0  0  0  0
 28 27  1  0  0  0  0
 29 31  1  0  0  0  0
 30 29  1  0  0  0  0
 31 32  1  0  0  0  0
 32 33  1  0  0  0  0
 34 32  1  0  0  0  0
 35 36  1  0  0  0  0
 36 34  1  0  0  0  0
 37 36  1  0  0  0  0
 38 40  1  0  0  0  0
 40 39  1  0  0  0  0
M  END
>  <MODEL>
3

>  <REMARK>
 VINA RESULT:      -5.3      3.265      9.297
  Name = 
  10 active torsions:
  status: ('A' for Active; 'I' for Inactive)
    1  A    between atoms: C_7  and  C_21
    2  A    between atoms: C_9  and  C_20
    3  A    between atoms: C_10  and  C_30
    4  A    between atoms: C_14  and  N_29
    5  A    between atoms: C_14  and  S_32
    6  A    between atoms: C_16  and  C_36
    7  A    between atoms: O_19  and  C_30
    8  A    between atoms: C_21  and  S_32
    9  A    between atoms: C_22  and  C_40
   10  A    between atoms: C_24  and  N_29
                            x       y       z     vdW  Elec       q    Type
                         _______ _______ _______ _____ _____    ______ ____

>  <TORSDO>
F 10

$$$$
=
 OpenBabel10222421583D

 40 44  0  0  1  0  0  0  0  0999 V2000
  189.5300  177.9880  137.9380 C   0  0  0  0  0  1  0  0  0  0  0  0
  184.9280  177.6090  135.6370 C   0  0  0  0  0  1  0  0  0  0  0  0
  185.6670  176.3140  135.9030 C   0  0  1  0  0  0  0  0  0  0  0  0
  185.6320  173.0450  134.6940 C   0  0  0  0  0  2  0  0  0  0  0  0
  187.0880  176.6090  136.4270 C   0  0  1  0  0  3  0  0  0  0  0  0
  187.7510  174.2200  135.6260 C   0  0  1  0  0  0  0  0  0  0  0  0
  187.2450  177.1650  137.8380 C   0  0  1  0  0  3  0  0  0  0  0  0
  186.5790  174.2510  134.6170 C   0  0  2  0  0  3  0  0  0  0  0  0
  186.2000  171.8070  135.4070 C   0  0  2  0  0  3  0  0  0  0  0  0
  188.8530  173.1710  135.4880 C   0  0  0  0  0  2  0  0  0  0  0  0
  184.9290  175.5600  136.8200 O   0  0  0  0  0  1  0  0  0  0  0  0
  187.9800  175.3950  136.5140 C   0  0  2  0  0  0  0  0  0  0  0  0
  187.4350  171.1750  134.7290 C   0  0  1  0  0  3  0  0  0  0  0  0
  188.6320  176.8870  138.2950 N   0  0  0  0  0  0  0  0  0  0  0  0
  187.2540  174.2560  136.9340 O   0  0  0  0  0  0  0  0  0  0  0  0
  189.0070  175.6270  137.6020 C   0  0  2  0  0  3  0  0  0  0  0  0
  185.7820  175.5680  134.5650 C   0  0  0  0  0  2  0  0  0  0  0  0
  188.5430  172.1770  134.3670 C   0  0  0  0  0  2  0  0  0  0  0  0
  190.4430  175.4970  137.1500 C   0  0  0  0  0  0  0  0  0  0  0  0
  193.0870  175.2630  136.2520 C   0  0  0  0  0  0  0  0  0  0  0  0
  192.1260  175.8780  135.4450 C   0  0  0  0  0  3  0  0  0  0  0  0
  190.8060  175.9920  135.8920 C   0  0  0  0  0  3  0  0  0  0  0  0
  192.7300  174.7610  137.5070 C   0  0  0  0  0  3  0  0  0  0  0  0
  191.4110  174.8740  137.9550 C   0  0  0  0  0  3  0  0  0  0  0  0
  195.5350  175.0520  135.4220 N   0  0  0  0  0  0  0  0  0  0  0  0
  194.4420  175.1460  135.7930 C   0  0  0  0  0  0  0  0  0  0  0  0
  188.0150  170.0730  135.6080 C   0  0  0  0  0  2  0  0  0  0  0  0
  188.1910  168.9080  134.8620 O   0  0  0  0  0  1  0  0  0  0  0  0
  186.6780  178.5780  138.0950 C   0  0  1  0  0  3  0  0  0  0  0  0
  186.9540  179.5110  136.9300 C   0  0  0  0  0  1  0  0  0  0  0  0
  184.9090  178.6090  138.5570 S   0  0  0  0  0  0  0  0  0  0  0  0
  185.2530  178.2900  140.3120 C   0  0  2  0  0  3  0  0  0  0  0  0
  183.9950  178.5510  141.1180 C   0  0  0  0  0  1  0  0  0  0  0  0
  186.3180  179.1700  140.7700 N   0  0  0  0  0  2  0  0  0  0  0  0
  186.8640  178.2870  142.8510 O   0  0  0  0  0  1  0  0  0  0  0  0
  187.2680  178.3610  141.5190 C   0  0  0  0  0  3  0  0  0  0  0  0
  188.5350  178.9410  141.4520 O   0  0  0  0  0  1  0  0  0  0  0  0
  185.0860  170.7820  135.6040 C   0  0  0  0  0  2  0  0  0  0  0  0
  182.9540  170.8340  136.1730 C   0  0  0  0  0  1  0  0  0  0  0  0
  184.2250  171.1780  136.6310 O   0  0  0  0  0  0  0  0  0  0  0  0
  1 14  1  0  0  0  0
  3  2  1  6  0  0  0
  3  5  1  0  0  0  0
  3 11  1  0  0  0  0
  4  9  1  0  0  0  0
  5 12  1  0  0  0  0
  5  7  1  0  0  0  0
  6 12  1  0  0  0  0
  6 15  1  0  0  0  0
  7 29  1  0  0  0  0
  7 14  1  0  0  0  0
  8  4  1  0  0  0  0
  8  6  1  0  0  0  0
  9 38  1  0  0  0  0
 10  6  1  0  0  0  0
 12 15  1  0  0  0  0
 12 16  1  0  0  0  0
 13  9  1  0  0  0  0
 13 27  1  0  0  0  0
 16 14  1  0  0  0  0
 17  8  1  0  0  0  0
 17  3  1  0  0  0  0
 18 13  1  0  0  0  0
 18 10  1  0  0  0  0
 19 16  1  0  0  0  0
 19 24  1  0  0  0  0
 20 23  1  0  0  0  0
 21 22  1  0  0  0  0
 21 20  2  0  0  0  0
 22 19  2  0  0  0  0
 23 24  2  0  0  0  0
 25 26  3  0  0  0  0
 26 20  1  0  0  0  0
 28 27  1  0  0  0  0
 29 31  1  0  0  0  0
 30 29  1  0  0  0  0
 31 32  1  0  0  0  0
 32 34  1  0  0  0  0
 32 33  1  0  0  0  0
 34 36  1  0  0  0  0
 36 35  1  0  0  0  0
 37 36  1  0  0  0  0
 38 40  1  0  0  0  0
 39 40  1  0  0  0  0
M  END
>  <MODEL>
4

>  <REMARK>
 VINA RESULT:      -4.9      3.625      8.386
  Name = 
  10 active torsions:
  status: ('A' for Active; 'I' for Inactive)
    1  A    between atoms: C_7  and  C_21
    2  A    between atoms: C_9  and  C_20
    3  A    between atoms: C_10  and  C_30
    4  A    between atoms: C_14  and  N_29
    5  A    between atoms: C_14  and  S_32
    6  A    between atoms: C_16  and  C_36
    7  A    between atoms: O_19  and  C_30
    8  A    between atoms: C_21  and  S_32
    9  A    between atoms: C_22  and  C_40
   10  A    between atoms: C_24  and  N_29
                            x       y       z     vdW  Elec       q    Type
                         _______ _______ _______ _____ _____    ______ ____

>  <TORSDO>
F 10

$$$$
=
 OpenBabel10222421583D

 40 44  0  0  1  0  0  0  0  0999 V2000
  190.0620  176.7820  137.9150 C   0  0  0  0  0  1  0  0  0  0  0  0
  186.9890  174.3390  134.5680 C   0  0  0  0  0  1  0  0  0  0  0  0
  186.3700  175.4700  135.3620 C   0  0  1  0  0  0  0  0  0  0  0  0
  183.1740  176.5040  136.2930 C   0  0  0  0  0  2  0  0  0  0  0  0
  187.3610  175.9730  136.4340 C   0  0  1  0  0  3  0  0  0  0  0  0
  185.3040  176.9260  137.7170 C   0  0  1  0  0  0  0  0  0  0  0  0
  188.5870  176.7590  135.9820 C   0  0  1  0  0  3  0  0  0  0  0  0
  184.3990  175.9000  136.9960 C   0  0  2  0  0  3  0  0  0  0  0  0
  182.7750  177.9130  136.7610 C   0  0  2  0  0  3  0  0  0  0  0  0
  184.7880  177.6670  138.9510 C   0  0  0  0  0  2  0  0  0  0  0  0
  186.0100  176.4910  134.4780 O   0  0  0  0  0  1  0  0  0  0  0  0
  186.7640  176.9460  137.4200 C   0  0  2  0  0  0  0  0  0  0  0  0
  182.3500  178.0110  138.2420 C   0  0  1  0  0  3  0  0  0  0  0  0
  189.0830  177.5490  137.1390 N   0  0  0  0  0  0  0  0  0  0  0  0
  185.8470  177.8190  136.7860 O   0  0  0  0  0  0  0  0  0  0  0  0
  187.8650  177.8470  137.9370 C   0  0  2  0  0  3  0  0  0  0  0  0
  185.1260  174.9090  136.0670 C   0  0  0  0  0  2  0  0  0  0  0  0
  183.3200  177.3410  139.2280 C   0  0  0  0  0  2  0  0  0  0  0  0
  188.0170  177.8550  139.4410 C   0  0  0  0  0  0  0  0  0  0  0  0
  188.3260  177.8130  142.2250 C   0  0  0  0  0  0  0  0  0  0  0  0
  189.1010  176.9710  141.4230 C   0  0  0  0  0  3  0  0  0  0  0  0
  188.9450  176.9910  140.0330 C   0  0  0  0  0  3  0  0  0  0  0  0
  187.3930  178.6740  141.6400 C   0  0  0  0  0  3  0  0  0  0  0  0
  187.2360  178.6950  140.2520 C   0  0  0  0  0  3  0  0  0  0  0  0
  188.6150  177.7750  144.8020 N   0  0  0  0  0  0  0  0  0  0  0  0
  188.4860  177.7920  143.6520 C   0  0  0  0  0  0  0  0  0  0  0  0
  182.1490  179.4680  138.6390 C   0  0  0  0  0  2  0  0  0  0  0  0
  180.9010  179.6340  139.2390 O   0  0  0  0  0  1  0  0  0  0  0  0
  189.6310  175.9930  135.1400 C   0  0  1  0  0  3  0  0  0  0  0  0
  190.7050  176.9220  134.6040 C   0  0  0  0  0  1  0  0  0  0  0  0
  190.3710  174.5510  135.9870 S   0  0  0  0  0  0  0  0  0  0  0  0
  192.0610  174.9890  135.4830 C   0  0  2  0  0  3  0  0  0  0  0  0
  192.5280  174.0140  134.4200 C   0  0  0  0  0  1  0  0  0  0  0  0
  192.9490  174.9200  136.6340 N   0  0  0  0  0  2  0  0  0  0  0  0
  194.7720  176.3050  136.2290 O   0  0  0  0  0  1  0  0  0  0  0  0
  193.5170  176.2440  136.8330 C   0  0  0  0  0  3  0  0  0  0  0  0
  193.6480  176.5010  138.1980 O   0  0  0  0  0  1  0  0  0  0  0  0
  181.6990  178.4690  135.8320 C   0  0  0  0  0  2  0  0  0  0  0  0
  180.0370  177.6170  134.6560 C   0  0  0  0  0  1  0  0  0  0  0  0
  181.4230  177.5690  134.8000 O   0  0  0  0  0  0  0  0  0  0  0  0
  3  2  1  6  0  0  0
  3 17  1  0  0  0  0
  3  5  1  0  0  0  0
  4  9  1  0  0  0  0
  4  8  1  0  0  0  0
  5 12  1  0  0  0  0
  6 10  1  0  0  0  0
  7  5  1  0  0  0  0
  7 14  1  0  0  0  0
  8  6  1  0  0  0  0
  9 13  1  0  0  0  0
 10 18  1  0  0  0  0
 11  3  1  0  0  0  0
 12  6  1  0  0  0  0
 12 16  1  0  0  0  0
 13 27  1  0  0  0  0
 13 18  1  0  0  0  0
 14  1  1  0  0  0  0
 14 16  1  0  0  0  0
 15 12  1  0  0  0  0
 15  6  1  0  0  0  0
 16 19  1  0  0  0  0
 17  8  1  0  0  0  0
 19 22  2  0  0  0  0
 19 24  1  0  0  0  0
 20 26  1  0  0  0  0
 21 20  2  0  0  0  0
 22 21  1  0  0  0  0
 23 20  1  0  0  0  0
 24 23  2  0  0  0  0
 26 25  3  0  0  0  0
 27 28  1  0  0  0  0
 29  7  1  0  0  0  0
 29 31  1  0  0  0  0
 30 29  1  0  0  0  0
 32 31  1  0  0  0  0
 32 34  1  0  0  0  0
 33 32  1  0  0  0  0
 34 36  1  0  0  0  0
 35 36  1  0  0  0  0
 36 37  1  0  0  0  0
 38  9  1  0  0  0  0
 39 40  1  0  0  0  0
 40 38  1  0  0  0  0
M  END
>  <MODEL>
5

>  <REMARK>
 VINA RESULT:      -4.9      2.083      2.996
  Name = 
  10 active torsions:
  status: ('A' for Active; 'I' for Inactive)
    1  A    between atoms: C_7  and  C_21
    2  A    between atoms: C_9  and  C_20
    3  A    between atoms: C_10  and  C_30
    4  A    between atoms: C_14  and  N_29
    5  A    between atoms: C_14  and  S_32
    6  A    between atoms: C_16  and  C_36
    7  A    between atoms: O_19  and  C_30
    8  A    between atoms: C_21  and  S_32
    9  A    between atoms: C_22  and  C_40
   10  A    between atoms: C_24  and  N_29
                            x       y       z     vdW  Elec       q    Type
                         _______ _______ _______ _____ _____    ______ ____

>  <TORSDO>
F 10

$$$$
=
 OpenBabel10222421583D

 40 44  0  0  1  0  0  0  0  0999 V2000
  185.8790  174.8460  136.0110 C   0  0  0  0  0  1  0  0  0  0  0  0
  188.2720  178.2930  139.0120 C   0  0  0  0  0  1  0  0  0  0  0  0
  189.1470  177.4590  138.0980 C   0  0  1  0  0  0  0  0  0  0  0  0
  192.4930  176.5030  137.9200 C   0  0  0  0  0  2  0  0  0  0  0  0
  188.3050  176.3660  137.4070 C   0  0  1  0  0  3  0  0  0  0  0  0
  190.5260  175.0560  137.0390 C   0  0  1  0  0  0  0  0  0  0  0  0
  187.3130  176.7840  136.3260 C   0  0  1  0  0  3  0  0  0  0  0  0
  191.1540  175.8180  138.2290 C   0  0  2  0  0  3  0  0  0  0  0  0
  193.2250  175.9840  136.6720 C   0  0  2  0  0  3  0  0  0  0  0  0
  191.2020  173.7980  136.4940 C   0  0  0  0  0  2  0  0  0  0  0  0
  189.7520  178.3060  137.1660 O   0  0  0  0  0  1  0  0  0  0  0  0
  189.1180  175.3470  136.6480 C   0  0  2  0  0  0  0  0  0  0  0  0
  193.6540  174.5020  136.7370 C   0  0  1  0  0  3  0  0  0  0  0  0
  187.0200  175.5960  135.4810 N   0  0  0  0  0  0  0  0  0  0  0  0
  190.2250  175.9510  136.0050 O   0  0  0  0  0  0  0  0  0  0  0  0
  188.2700  174.7920  135.5230 C   0  0  2  0  0  3  0  0  0  0  0  0
  190.2100  176.7800  138.9740 C   0  0  0  0  0  2  0  0  0  0  0  0
  192.5420  173.5380  137.1830 C   0  0  0  0  0  2  0  0  0  0  0  0
  188.1160  173.2890  135.5330 C   0  0  0  0  0  0  0  0  0  0  0  0
  187.8290  170.5020  135.4890 C   0  0  0  0  0  0  0  0  0  0  0  0
  188.2880  171.1760  134.3540 C   0  0  0  0  0  3  0  0  0  0  0  0
  188.4290  172.5680  134.3750 C   0  0  0  0  0  3  0  0  0  0  0  0
  187.5090  171.2180  136.6460 C   0  0  0  0  0  3  0  0  0  0  0  0
  187.6500  172.6080  136.6690 C   0  0  0  0  0  3  0  0  0  0  0  0
  187.5680  167.9220  135.4470 N   0  0  0  0  0  0  0  0  0  0  0  0
  187.6840  169.0740  135.4660 C   0  0  0  0  0  0  0  0  0  0  0  0
  194.2060  174.0520  135.3900 C   0  0  0  0  0  2  0  0  0  0  0  0
  194.4510  172.6790  135.4070 O   0  0  0  0  0  1  0  0  0  0  0  0
  186.1170  177.6500  136.7790 C   0  0  1  0  0  3  0  0  0  0  0  0
  185.2730  178.0970  135.5990 C   0  0  0  0  0  1  0  0  0  0  0  0
  185.0810  176.8840  138.0770 S   0  0  0  0  0  0  0  0  0  0  0  0
  183.9960  178.3360  138.2150 C   0  0  2  0  0  3  0  0  0  0  0  0
  184.3580  179.1060  139.4700 C   0  0  0  0  0  1  0  0  0  0  0  0
  182.6080  177.9050  138.2880 N   0  0  0  0  0  2  0  0  0  0  0  0
  182.0540  176.2470  136.7550 O   0  0  0  0  0  1  0  0  0  0  0  0
  182.5750  176.4740  138.0280 C   0  0  0  0  0  3  0  0  0  0  0  0
  181.7700  175.8410  138.9760 O   0  0  0  0  0  1  0  0  0  0  0  0
  194.4110  176.8960  136.3650 C   0  0  0  0  0  2  0  0  0  0  0  0
  195.7130  177.5820  134.7200 C   0  0  0  0  0  1  0  0  0  0  0  0
  194.3800  177.3170  135.0330 O   0  0  0  0  0  0  0  0  0  0  0  0
  3 17  1  0  0  0  0
  3  2  1  1  0  0  0
  4  8  1  0  0  0  0
  5  3  1  0  0  0  0
  6  8  1  0  0  0  0
  7 29  1  0  0  0  0
  7  5  1  0  0  0  0
  8 17  1  0  0  0  0
  9 13  1  0  0  0  0
  9  4  1  0  0  0  0
 10  6  1  0  0  0  0
 10 18  1  0  0  0  0
 11  3  1  0  0  0  0
 12  6  1  0  0  0  0
 12  5  1  0  0  0  0
 13 18  1  0  0  0  0
 14 16  1  0  0  0  0
 14  1  1  0  0  0  0
 14  7  1  0  0  0  0
 15 12  1  0  0  0  0
 15  6  1  0  0  0  0
 16 19  1  0  0  0  0
 16 12  1  0  0  0  0
 19 24  1  0  0  0  0
 20 23  1  0  0  0  0
 21 22  1  0  0  0  0
 21 20  2  0  0  0  0
 22 19  2  0  0  0  0
 23 24  2  0  0  0  0
 25 26  3  0  0  0  0
 26 20  1  0  0  0  0
 27 28  1  0  0  0  0
 27 13  1  0  0  0  0
 29 31  1  0  0  0  0
 30 29  1  0  0  0  0
 31 32  1  0  0  0  0
 32 34  1  0  0  0  0
 32 33  1  0  0  0  0
 35 36  1  0  0  0  0
 36 34  1  0  0  0  0
 36 37  1  0  0  0  0
 38  9  1  0  0  0  0
 39 40  1  0  0  0  0
 40 38  1  0  0  0  0
M  END
>  <MODEL>
6

>  <REMARK>
 VINA RESULT:      -4.8      3.699     10.138
  Name = 
  10 active torsions:
  status: ('A' for Active; 'I' for Inactive)
    1  A    between atoms: C_7  and  C_21
    2  A    between atoms: C_9  and  C_20
    3  A    between atoms: C_10  and  C_30
    4  A    between atoms: C_14  and  N_29
    5  A    between atoms: C_14  and  S_32
    6  A    between atoms: C_16  and  C_36
    7  A    between atoms: O_19  and  C_30
    8  A    between atoms: C_21  and  S_32
    9  A    between atoms: C_22  and  C_40
   10  A    between atoms: C_24  and  N_29
                            x       y       z     vdW  Elec       q    Type
                         _______ _______ _______ _____ _____    ______ ____

>  <TORSDO>
F 10

$$$$
=
 OpenBabel10222421583D

 40 44  0  0  1  0  0  0  0  0999 V2000
  186.0020  178.2300  138.0100 C   0  0  0  0  0  1  0  0  0  0  0  0
  183.8080  178.0400  142.6750 C   0  0  0  0  0  1  0  0  0  0  0  0
  185.3190  178.1360  142.6350 C   0  0  1  0  0  0  0  0  0  0  0  0
  187.9920  177.4390  144.7600 C   0  0  0  0  0  2  0  0  0  0  0  0
  185.8230  178.0050  141.1820 C   0  0  1  0  0  3  0  0  0  0  0  0
  188.1250  177.2930  142.1710 C   0  0  1  0  0  0  0  0  0  0  0  0
  185.5720  179.1570  140.2150 C   0  0  1  0  0  3  0  0  0  0  0  0
  187.4110  176.8450  143.4680 C   0  0  2  0  0  3  0  0  0  0  0  0
  189.4170  178.0030  144.6420 C   0  0  2  0  0  3  0  0  0  0  0  0
  189.5610  176.8470  141.8940 C   0  0  0  0  0  2  0  0  0  0  0  0
  185.7030  179.3550  143.2020 O   0  0  0  0  0  1  0  0  0  0  0  0
  187.3200  177.8670  141.0570 C   0  0  2  0  0  0  0  0  0  0  0  0
  190.5000  176.9650  144.2760 C   0  0  1  0  0  3  0  0  0  0  0  0
  186.5460  179.0460  139.0980 N   0  0  0  0  0  0  0  0  0  0  0  0
  187.9900  178.6760  142.0060 O   0  0  0  0  0  0  0  0  0  0  0  0
  187.7450  178.4140  139.7100 C   0  0  2  0  0  3  0  0  0  0  0  0
  185.8760  176.9640  143.4560 C   0  0  0  0  0  2  0  0  0  0  0  0
  190.1440  176.0720  143.0760 C   0  0  0  0  0  2  0  0  0  0  0  0
  188.5180  177.4410  138.8510 C   0  0  0  0  0  0  0  0  0  0  0  0
  189.9990  175.6780  137.2540 C   0  0  0  0  0  0  0  0  0  0  0  0
  190.6410  176.7240  137.9220 C   0  0  0  0  0  3  0  0  0  0  0  0
  189.9020  177.6050  138.7180 C   0  0  0  0  0  3  0  0  0  0  0  0
  188.6170  175.5130  137.3780 C   0  0  0  0  0  3  0  0  0  0  0  0
  187.8770  176.3920  138.1720 C   0  0  0  0  0  3  0  0  0  0  0  0
  191.3710  174.0450  135.7790 N   0  0  0  0  0  0  0  0  0  0  0  0
  190.7590  174.7740  136.4370 C   0  0  0  0  0  0  0  0  0  0  0  0
  191.8310  177.6600  144.0150 C   0  0  0  0  0  2  0  0  0  0  0  0
  191.6120  178.9450  143.5200 O   0  0  0  0  0  1  0  0  0  0  0  0
  184.1000  179.4520  139.8520 C   0  0  1  0  0  3  0  0  0  0  0  0
  183.9890  180.5820  138.8460 C   0  0  0  0  0  1  0  0  0  0  0  0
  183.1520  177.9870  139.3050 S   0  0  0  0  0  0  0  0  0  0  0  0
  181.5470  178.7640  139.6550 C   0  0  2  0  0  3  0  0  0  0  0  0
  180.7500  177.8590  140.5740 C   0  0  0  0  0  1  0  0  0  0  0  0
  180.8170  178.9640  138.4120 N   0  0  0  0  0  2  0  0  0  0  0  0
  180.7490  181.0140  137.3160 O   0  0  0  0  0  1  0  0  0  0  0  0
  180.2800  180.3160  138.4280 C   0  0  0  0  0  3  0  0  0  0  0  0
  180.6870  180.9710  139.5910 O   0  0  0  0  0  1  0  0  0  0  0  0
  189.7720  178.7520  145.9240 C   0  0  0  0  0  2  0  0  0  0  0  0
  189.8240  177.6640  147.8440 C   0  0  0  0  0  1  0  0  0  0  0  0
  188.9590  178.3360  146.9820 O   0  0  0  0  0  0  0  0  0  0  0  0
  1 14  1  0  0  0  0
  3  2  1  6  0  0  0
  3 11  1  0  0  0  0
  3 17  1  0  0  0  0
  5  3  1  0  0  0  0
  6  8  1  0  0  0  0
  7  5  1  0  0  0  0
  8  4  1  0  0  0  0
  9  4  1  0  0  0  0
  9 38  1  0  0  0  0
 10  6  1  0  0  0  0
 10 18  1  0  0  0  0
 12  5  1  0  0  0  0
 12 15  1  0  0  0  0
 12  6  1  0  0  0  0
 13  9  1  0  0  0  0
 14 16  1  0  0  0  0
 14  7  1  0  0  0  0
 15  6  1  0  0  0  0
 16 12  1  0  0  0  0
 17  8  1  0  0  0  0
 18 13  1  0  0  0  0
 19 16  1  0  0  0  0
 20 23  2  0  0  0  0
 20 21  1  0  0  0  0
 21 22  2  0  0  0  0
 22 19  1  0  0  0  0
 23 24  1  0  0  0  0
 24 19  2  0  0  0  0
 25 26  3  0  0  0  0
 26 20  1  0  0  0  0
 27 13  1  0  0  0  0
 28 27  1  0  0  0  0
 29  7  1  0  0  0  0
 30 29  1  0  0  0  0
 31 32  1  0  0  0  0
 31 29  1  0  0  0  0
 32 33  1  0  0  0  0
 34 36  1  0  0  0  0
 34 32  1  0  0  0  0
 35 36  1  0  0  0  0
 36 37  1  0  0  0  0
 38 40  1  0  0  0  0
 40 39  1  0  0  0  0
M  END
>  <MODEL>
7

>  <REMARK>
 VINA RESULT:      -4.8      3.372      9.246
  Name = 
  10 active torsions:
  status: ('A' for Active; 'I' for Inactive)
    1  A    between atoms: C_7  and  C_21
    2  A    between atoms: C_9  and  C_20
    3  A    between atoms: C_10  and  C_30
    4  A    between atoms: C_14  and  N_29
    5  A    between atoms: C_14  and  S_32
    6  A    between atoms: C_16  and  C_36
    7  A    between atoms: O_19  and  C_30
    8  A    between atoms: C_21  and  S_32
    9  A    between atoms: C_22  and  C_40
   10  A    between atoms: C_24  and  N_29
                            x       y       z     vdW  Elec       q    Type
                         _______ _______ _______ _____ _____    ______ ____

>  <TORSDO>
F 10

$$$$
=
 OpenBabel10222421583D

 40 44  0  0  1  0  0  0  0  0999 V2000
  188.1990  178.0930  140.7640 C   0  0  0  0  0  1  0  0  0  0  0  0
  186.4510  175.5530  136.6280 C   0  0  0  0  0  1  0  0  0  0  0  0
  185.4940  176.5250  137.2860 C   0  0  1  0  0  0  0  0  0  0  0  0
  182.0510  177.0540  137.4060 C   0  0  0  0  0  2  0  0  0  0  0  0
  186.1010  177.0630  138.5990 C   0  0  1  0  0  3  0  0  0  0  0  0
  183.6720  177.6310  139.3500 C   0  0  1  0  0  0  0  0  0  0  0  0
  187.2720  178.0360  138.5170 C   0  0  1  0  0  3  0  0  0  0  0  0
  183.1370  176.5590  138.3730 C   0  0  2  0  0  3  0  0  0  0  0  0
  181.3460  178.3560  137.8190 C   0  0  2  0  0  3  0  0  0  0  0  0
  182.7620  178.1950  140.4410 C   0  0  0  0  0  2  0  0  0  0  0  0
  185.2200  177.5590  136.3870 O   0  0  0  0  0  1  0  0  0  0  0  0
  185.1410  177.8660  139.4410 C   0  0  2  0  0  0  0  0  0  0  0  0
  180.5550  178.2760  139.1430 C   0  0  1  0  0  3  0  0  0  0  0  0
  187.3430  178.7870  139.7980 N   0  0  0  0  0  0  0  0  0  0  0  0
  184.2930  178.6610  138.6330 O   0  0  0  0  0  0  0  0  0  0  0  0
  185.9340  178.8570  140.2670 C   0  0  2  0  0  3  0  0  0  0  0  0
  184.2100  175.7510  137.6200 C   0  0  0  0  0  2  0  0  0  0  0  0
  181.3360  177.6590  140.3140 C   0  0  0  0  0  2  0  0  0  0  0  0
  185.7030  178.7620  141.7570 C   0  0  0  0  0  0  0  0  0  0  0  0
  185.3020  178.5280  144.5200 C   0  0  0  0  0  0  0  0  0  0  0  0
  186.2530  177.7280  143.8810 C   0  0  0  0  0  3  0  0  0  0  0  0
  186.4520  177.8430  142.5020 C   0  0  0  0  0  3  0  0  0  0  0  0
  184.5470  179.4430  143.7810 C   0  0  0  0  0  3  0  0  0  0  0  0
  184.7440  179.5590  142.4030 C   0  0  0  0  0  3  0  0  0  0  0  0
  184.9350  178.3130  147.0780 N   0  0  0  0  0  0  0  0  0  0  0  0
  185.0990  178.4090  145.9370 C   0  0  0  0  0  0  0  0  0  0  0  0
  180.0490  179.6570  139.5410 C   0  0  0  0  0  2  0  0  0  0  0  0
  181.1250  180.5070  139.7950 O   0  0  0  0  0  1  0  0  0  0  0  0
  188.5940  177.4850  137.9390 C   0  0  1  0  0  3  0  0  0  0  0  0
  189.3710  178.5580  137.1980 C   0  0  0  0  0  1  0  0  0  0  0  0
  189.6530  176.6320  139.1620 S   0  0  0  0  0  0  0  0  0  0  0  0
  190.5510  175.6960  137.8880 C   0  0  2  0  0  3  0  0  0  0  0  0
  191.7550  176.5000  137.4410 C   0  0  0  0  0  1  0  0  0  0  0  0
  189.6750  175.4510  136.7520 N   0  0  0  0  0  2  0  0  0  0  0  0
  189.2640  173.2400  137.3400 O   0  0  0  0  0  1  0  0  0  0  0  0
  189.8320  174.0570  136.3650 C   0  0  0  0  0  3  0  0  0  0  0  0
  191.1880  173.7530  136.2390 O   0  0  0  0  0  1  0  0  0  0  0  0
  180.4650  178.8410  136.6700 C   0  0  0  0  0  2  0  0  0  0  0  0
  180.0400  180.6930  135.5480 C   0  0  0  0  0  1  0  0  0  0  0  0
  181.0890  179.8780  135.9720 O   0  0  0  0  0  0  0  0  0  0  0  0
  3  2  1  6  0  0  0
  3 17  1  0  0  0  0
  3  5  1  0  0  0  0
  4  9  1  0  0  0  0
  4  8  1  0  0  0  0
  5 12  1  0  0  0  0
  6 12  1  0  0  0  0
  6 10  1  0  0  0  0
  7  5  1  0  0  0  0
  7 14  1  0  0  0  0
  8  6  1  0  0  0  0
  9 13  1  0  0  0  0
 11  3  1  0  0  0  0
 12 16  1  0  0  0  0
 13 27  1  0  0  0  0
 13 18  1  0  0  0  0
 14 16  1  0  0  0  0
 14  1  1  0  0  0  0
 15  6  1  0  0  0  0
 15 12  1  0  0  0  0
 16 19  1  0  0  0  0
 17  8  1  0  0  0  0
 18 10  1  0  0  0  0
 19 24  2  0  0  0  0
 19 22  1  0  0  0  0
 20 26  1  0  0  0  0
 21 20  1  0  0  0  0
 22 21  2  0  0  0  0
 23 20  2  0  0  0  0
 24 23  1  0  0  0  0
 26 25  3  0  0  0  0
 27 28  1  0  0  0  0
 29  7  1  0  0  0  0
 29 31  1  0  0  0  0
 30 29  1  0  0  0  0
 32 31  1  0  0  0  0
 33 32  1  0  0  0  0
 34 32  1  0  0  0  0
 36 34  1  0  0  0  0
 36 35  1  0  0  0  0
 37 36  1  0  0  0  0
 38  9  1  0  0  0  0
 39 40  1  0  0  0  0
 40 38  1  0  0  0  0
M  END
>  <MODEL>
8

>  <REMARK>
 VINA RESULT:      -4.8      1.499      1.807
  Name = 
  10 active torsions:
  status: ('A' for Active; 'I' for Inactive)
    1  A    between atoms: C_7  and  C_21
    2  A    between atoms: C_9  and  C_20
    3  A    between atoms: C_10  and  C_30
    4  A    between atoms: C_14  and  N_29
    5  A    between atoms: C_14  and  S_32
    6  A    between atoms: C_16  and  C_36
    7  A    between atoms: O_19  and  C_30
    8  A    between atoms: C_21  and  S_32
    9  A    between atoms: C_22  and  C_40
   10  A    between atoms: C_24  and  N_29
                            x       y       z     vdW  Elec       q    Type
                         _______ _______ _______ _____ _____    ______ ____

>  <TORSDO>
F 10

$$$$
=
 OpenBabel10222421583D

 40 44  0  0  1  0  0  0  0  0999 V2000
  191.5010  176.4840  138.7080 C   0  0  0  0  0  1  0  0  0  0  0  0
  189.4540  173.5050  135.0280 C   0  0  0  0  0  1  0  0  0  0  0  0
  188.6090  174.6630  135.5160 C   0  0  1  0  0  0  0  0  0  0  0  0
  185.2410  175.5560  135.5310 C   0  0  0  0  0  2  0  0  0  0  0  0
  189.2840  175.3410  136.7280 C   0  0  1  0  0  3  0  0  0  0  0  0
  186.9350  176.2700  137.3640 C   0  0  1  0  0  0  0  0  0  0  0  0
  190.5470  176.1620  136.4950 C   0  0  1  0  0  3  0  0  0  0  0  0
  186.2810  175.1140  136.5710 C   0  0  2  0  0  3  0  0  0  0  0  0
  184.6770  176.9730  135.7250 C   0  0  2  0  0  3  0  0  0  0  0  0
  186.1000  177.0930  138.3460 C   0  0  0  0  0  2  0  0  0  0  0  0
  188.4330  175.5620  134.4600 O   0  0  0  0  0  1  0  0  0  0  0  0
  188.4210  176.3640  137.4240 C   0  0  2  0  0  0  0  0  0  0  0  0
  183.8970  177.1900  137.0400 C   0  0  1  0  0  3  0  0  0  0  0  0
  190.7090  177.0980  137.6390 N   0  0  0  0  0  0  0  0  0  0  0  0
  187.6490  177.1010  136.4940 O   0  0  0  0  0  0  0  0  0  0  0  0
  189.3210  177.3880  138.0830 C   0  0  2  0  0  3  0  0  0  0  0  0
  187.2570  174.0900  135.9630 C   0  0  0  0  0  2  0  0  0  0  0  0
  184.6250  176.6930  138.3000 C   0  0  0  0  0  2  0  0  0  0  0  0
  189.0990  177.5580  139.5680 C   0  0  0  0  0  0  0  0  0  0  0  0
  188.7000  177.8130  142.3290 C   0  0  0  0  0  0  0  0  0  0  0  0
  189.4210  176.7280  141.8240 C   0  0  0  0  0  3  0  0  0  0  0  0
  189.6180  176.6000  140.4450 C   0  0  0  0  0  3  0  0  0  0  0  0
  188.1730  178.7700  141.4580 C   0  0  0  0  0  3  0  0  0  0  0  0
  188.3690  178.6430  140.0800 C   0  0  0  0  0  3  0  0  0  0  0  0
  188.3350  178.0500  144.8860 N   0  0  0  0  0  0  0  0  0  0  0  0
  188.4980  177.9440  143.7450 C   0  0  0  0  0  0  0  0  0  0  0  0
  183.5400  178.6620  137.2070 C   0  0  0  0  0  2  0  0  0  0  0  0
  182.1890  178.7940  137.5270 O   0  0  0  0  0  1  0  0  0  0  0  0
  191.7990  175.3910  136.0210 C   0  0  1  0  0  3  0  0  0  0  0  0
  192.8730  176.3330  135.5060 C   0  0  0  0  0  1  0  0  0  0  0  0
  192.4810  174.2290  137.2560 S   0  0  0  0  0  0  0  0  0  0  0  0
  193.7750  173.6260  136.1300 C   0  0  2  0  0  3  0  0  0  0  0  0
  193.6440  172.1220  135.9870 C   0  0  0  0  0  1  0  0  0  0  0  0
  195.0860  173.9550  136.6700 N   0  0  0  0  0  2  0  0  0  0  0  0
  195.3730  175.0520  138.7000 O   0  0  0  0  0  1  0  0  0  0  0  0
  195.0090  173.8390  138.1180 C   0  0  0  0  0  3  0  0  0  0  0  0
  195.8760  172.8370  138.5570 O   0  0  0  0  0  1  0  0  0  0  0  0
  183.8370  177.3550  134.5090 C   0  0  0  0  0  2  0  0  0  0  0  0
  181.6420  177.5180  134.3490 C   0  0  0  0  0  1  0  0  0  0  0  0
  182.6720  176.5850  134.4500 O   0  0  0  0  0  0  0  0  0  0  0  0
  3  2  1  6  0  0  0
  3 17  1  0  0  0  0
  3  5  1  0  0  0  0
  4  9  1  0  0  0  0
  4  8  1  0  0  0  0
  5 12  1  0  0  0  0
  6 12  1  0  0  0  0
  6 10  1  0  0  0  0
  7  5  1  0  0  0  0
  7 14  1  0  0  0  0
  8  6  1  0  0  0  0
  9 13  1  0  0  0  0
 11  3  1  0  0  0  0
 12 16  1  0  0  0  0
 13 27  1  0  0  0  0
 13 18  1  0  0  0  0
 14 16  1  0  0  0  0
 14  1  1  0  0  0  0
 15  6  1  0  0  0  0
 15 12  1  0  0  0  0
 16 19  1  0  0  0  0
 17  8  1  0  0  0  0
 18 10  1  0  0  0  0
 19 24  2  0  0  0  0
 19 22  1  0  0  0  0
 20 26  1  0  0  0  0
 21 20  1  0  0  0  0
 22 21  2  0  0  0  0
 23 20  2  0  0  0  0
 24 23  1  0  0  0  0
 26 25  3  0  0  0  0
 27 28  1  0  0  0  0
 29  7  1  0  0  0  0
 29 31  1  0  0  0  0
 30 29  1  0  0  0  0
 32 34  1  0  0  0  0
 32 31  1  0  0  0  0
 33 32  1  0  0  0  0
 34 36  1  0  0  0  0
 36 37  1  0  0  0  0
 36 35  1  0  0  0  0
 38  9  1  0  0  0  0
 39 40  1  0  0  0  0
 40 38  1  0  0  0  0
M  END
>  <MODEL>
9

>  <REMARK>
 VINA RESULT:      -4.7      2.623      4.063
  Name = 
  10 active torsions:
  status: ('A' for Active; 'I' for Inactive)
    1  A    between atoms: C_7  and  C_21
    2  A    between atoms: C_9  and  C_20
    3  A    between atoms: C_10  and  C_30
    4  A    between atoms: C_14  and  N_29
    5  A    between atoms: C_14  and  S_32
    6  A    between atoms: C_16  and  C_36
    7  A    between atoms: O_19  and  C_30
    8  A    between atoms: C_21  and  S_32
    9  A    between atoms: C_22  and  C_40
   10  A    between atoms: C_24  and  N_29
                            x       y       z     vdW  Elec       q    Type
                         _______ _______ _______ _____ _____    ______ ____

>  <TORSDO>
F 10

$$$$
