=
 OpenBabel10232409083D

 60 67  0  0  1  0  0  0  0  0999 V2000
  189.6930  176.5880  138.0250 C   0  0  0  0  0  0  0  0  0  0  0  0
  186.1420  177.4100  136.7210 C   0  0  0  0  0  2  0  0  0  0  0  0
  190.8020  175.5930  138.1100 C   0  0  2  0  0  3  0  0  0  0  0  0
  189.7780  177.4080  139.0710 C   0  0  0  0  0  0  0  0  0  0  0  0
  188.4840  176.4390  137.1290 C   0  0  0  0  0  2  0  0  0  0  0  0
  191.4660  175.9380  139.3640 N   0  0  0  0  0  0  0  0  0  0  0  0
  190.9010  176.9750  139.8740 C   0  0  0  0  0  0  0  0  0  0  0  0
  187.2160  177.7300  138.8310 C   0  0  1  0  0  3  0  0  0  0  0  0
  185.8960  178.7590  141.1910 O   0  0  0  0  0  0  0  0  0  0  0  0
  187.5030  177.5780  137.3600 C   0  0  2  0  0  3  0  0  0  0  0  0
  185.2290  178.2550  137.6060 C   0  0  0  0  0  2  0  0  0  0  0  0
  188.5870  178.6960  139.5210 S   0  0  0  0  0  0  0  0  0  0  0  0
  185.2600  178.7380  140.1060 C   0  0  0  0  0  0  0  0  0  0  0  0
  185.9290  178.3930  138.8820 N   0  0  0  0  0  0  0  0  0  0  0  0
  192.8340  176.2890  137.1150 O   0  0  0  0  0  0  0  0  0  0  0  0
  191.7510  175.7400  136.9620 C   0  0  0  0  0  0  0  0  0  0  0  0
  191.3350  175.0300  135.3780 S   0  0  0  0  0  0  0  0  0  0  0  0
  191.6000  173.3290  135.9560 C   0  0  0  0  0  2  0  0  0  0  0  0
  192.8470  172.7500  135.3260 C   0  0  1  0  0  3  0  0  0  0  0  0
  193.2830  171.5590  136.1550 C   0  0  1  0  0  3  0  0  0  0  0  0
  192.5560  171.3470  134.8430 C   0  0  0  0  0  2  0  0  0  0  0  0
  194.7680  171.3310  135.9530 C   0  0  0  0  0  2  0  0  0  0  0  0
  197.7620  169.0810  135.5270 O   0  0  0  0  0  0  0  0  0  0  0  0
  196.1880  171.4960  137.9780 N   0  0  2  0  0  0  0  0  0  0  0  0
  196.7980  170.5380  137.0470 N   0  0  0  0  0  0  0  0  0  0  0  0
  195.3620  170.7140  137.2250 C   0  0  2  0  0  3  0  0  0  0  0  0
  197.9320  169.9350  136.4330 C   0  0  0  0  0  0  0  0  0  0  0  0
  195.8670  174.4970  139.2510 C   0  0  0  0  0  3  0  0  0  0  0  0
  197.9230  173.2340  137.7790 C   0  0  0  0  0  2  0  0  0  0  0  0
  198.0420  174.6670  138.3070 C   0  0  0  0  0  2  0  0  0  0  0  0
  196.4650  172.8380  137.4540 C   0  0  2  0  0  3  0  0  0  0  0  0
  197.0910  174.8770  139.3780 N   0  0  0  0  0  0  0  0  0  0  0  0
  195.4140  173.8400  137.9780 C   0  0  0  0  0  2  0  0  0  0  0  0
  200.1010  171.0110  136.0040 C   0  0  0  0  0  1  0  0  0  0  0  0
  199.2120  170.2980  136.8510 O   0  0  0  0  0  0  0  0  0  0  0  0
  183.7900  179.0000  140.1300 C   0  0  0  0  0  2  0  0  0  0  0  0
  183.0560  177.6800  140.0740 C   0  0  0  0  0  2  0  0  0  0  0  0
  182.0750  177.6620  138.9470 C   0  0  0  0  0  0  0  0  0  0  0  0
  181.8040  178.7140  138.3910 O   0  0  0  0  0  0  0  0  0  0  0  0
  181.2660  175.4380  139.6510 C   0  0  0  0  0  1  0  0  0  0  0  0
  181.4810  176.3600  138.4590 C   0  0  1  0  0  0  0  0  0  0  0  0
  180.2330  176.5960  137.8780 O   0  0  0  0  0  1  0  0  0  0  0  0
  181.6470  174.7550  136.6530 O   0  0  0  0  0  1  0  0  0  0  0  0
  182.3830  175.6560  137.4290 C   0  0  2  0  0  3  0  0  0  0  0  0
  183.5730  174.9270  138.0610 C   0  0  0  0  0  2  0  0  0  0  0  0
  184.3580  174.1320  137.0310 C   0  0  0  0  0  2  0  0  0  0  0  0
  185.6920  174.0120  137.4240 O   0  0  0  0  0  1  0  0  0  0  0  0
  191.2560  177.5410  141.2130 C   0  0  0  0  0  2  0  0  0  0  0  0
  188.6780  176.1240  143.3720 C   0  0  0  0  0  3  0  0  0  0  0  0
  189.3880  176.0830  142.1860 C   0  0  0  0  0  3  0  0  0  0  0  0
  190.0920  177.7880  143.4640 C   0  0  0  0  0  3  0  0  0  0  0  0
  190.2750  177.1370  142.2660 C   0  0  0  0  0  0  0  0  0  0  0  0
  189.1130  177.1520  144.1320 N   0  0  0  0  0  0  0  0  0  0  0  0
  188.9430  177.9160  147.7980 C   0  0  0  0  0  3  0  0  0  0  0  0
  189.4500  177.5760  146.5360 C   0  0  0  0  0  3  0  0  0  0  0  0
  186.7290  178.1360  146.8620 C   0  0  0  0  0  0  0  0  0  0  0  0
  188.6040  177.5130  145.4250 C   0  0  0  0  0  0  0  0  0  0  0  0
  185.4210  178.4180  147.0150 F   0  0  0  0  0  0  0  0  0  0  0  0
  187.2330  177.7960  145.6010 C   0  0  0  0  0  3  0  0  0  0  0  0
  187.5850  178.1960  147.9600 C   0  0  0  0  0  3  0  0  0  0  0  0
  1  3  1  0  0  0  0
  1  4  2  0  0  0  0
  2 11  1  0  0  0  0
  3 16  1  6  0  0  0
  3  6  1  0  0  0  0
  4 12  1  0  0  0  0
  4  7  1  0  0  0  0
  5 10  1  0  0  0  0
  5  1  1  0  0  0  0
  6  7  2  0  0  0  0
  7 48  1  0  0  0  0
  8 14  1  0  0  0  0
  8 12  1  6  0  0  0
 10  2  1  6  0  0  0
 10  8  1  0  0  0  0
 11 14  1  0  0  0  0
 13 36  1  0  0  0  0
 13  9  2  0  0  0  0
 14 13  1  0  0  0  0
 16 15  2  0  0  0  0
 17 18  1  0  0  0  0
 17 16  1  0  0  0  0
 19 18  1  1  0  0  0
 19 20  1  0  0  0  0
 20 22  1  6  0  0  0
 21 19  1  0  0  0  0
 21 20  1  0  0  0  0
 23 27  2  0  0  0  0
 24 25  1  6  0  0  0
 25 26  1  0  0  0  0
 26 22  1  6  0  0  0
 26 24  1  0  0  0  0
 27 35  1  0  0  0  0
 27 25  1  0  0  0  0
 28 32  2  0  0  0  0
 29 30  1  0  0  0  0
 30 32  1  0  0  0  0
 31 29  1  1  0  0  0
 31 24  1  0  0  0  0
 31 33  1  0  0  0  0
 33 28  1  0  0  0  0
 34 35  1  0  0  0  0
 37 36  1  0  0  0  0
 38 37  1  0  0  0  0
 39 38  2  0  0  0  0
 41 38  1  0  0  0  0
 41 40  1  1  0  0  0
 42 41  1  0  0  0  0
 44 43  1  1  0  0  0
 44 45  1  0  0  0  0
 44 41  1  0  0  0  0
 46 47  1  0  0  0  0
 46 45  1  0  0  0  0
 48 52  1  0  0  0  0
 49 53  1  0  0  0  0
 50 52  1  0  0  0  0
 50 49  2  0  0  0  0
 51 53  1  0  0  0  0
 52 51  2  0  0  0  0
 53 57  1  0  0  0  0
 54 60  1  0  0  0  0
 55 54  2  0  0  0  0
 56 58  1  0  0  0  0
 56 60  2  0  0  0  0
 57 59  2  0  0  0  0
 57 55  1  0  0  0  0
 59 56  1  0  0  0  0
M  END
>  <MODEL>
1

>  <REMARK>
 VINA RESULT:      -7.4      0.000      0.000
  Name = 
  18 active torsions:
  status: ('A' for Active; 'I' for Inactive)
    1  A    between atoms: C_9  and  C_25
    2  A    between atoms: C_10  and  C_60
    3  A    between atoms: O_12  and  C_48
    4  A    between atoms: C_13  and  C_18
    5  A    between atoms: C_13  and  C_27
    6  A    between atoms: C_15  and  C_24
    7  A    between atoms: C_15  and  C_47
    8  A    between atoms: C_18  and  C_57
    9  A    between atoms: C_20  and  C_42
   10  A    between atoms: C_25  and  S_56
   11  A    between atoms: C_27  and  C_44
   12  A    between atoms: C_28  and  C_29
   13  A    between atoms: C_29  and  C_37
   14  A    between atoms: C_32  and  N_52
   15  A    between atoms: N_40  and  C_50
   16  A    between atoms: C_42  and  S_56
   17  A    between atoms: C_44  and  C_59
   18  A    between atoms: C_59  and  C_60
                            x       y       z     vdW  Elec       q    Type
                         _______ _______ _______ _____ _____    ______ ____

>  <TORSDO>
F 18

$$$$
=
 OpenBabel10232409083D

 60 67  0  0  1  0  0  0  0  0999 V2000
  189.4790  176.1080  137.3660 C   0  0  0  0  0  0  0  0  0  0  0  0
  185.9460  176.7560  135.9210 C   0  0  0  0  0  2  0  0  0  0  0  0
  190.5680  175.1220  137.6290 C   0  0  2  0  0  3  0  0  0  0  0  0
  189.5790  177.0960  138.2530 C   0  0  0  0  0  0  0  0  0  0  0  0
  188.2680  175.8270  136.5050 C   0  0  0  0  0  2  0  0  0  0  0  0
  191.2370  175.6680  138.8070 N   0  0  0  0  0  0  0  0  0  0  0  0
  190.6920  176.7890  139.1250 C   0  0  0  0  0  0  0  0  0  0  0  0
  187.0240  177.4200  137.9480 C   0  0  1  0  0  3  0  0  0  0  0  0
  185.7210  178.8730  140.0850 O   0  0  0  0  0  0  0  0  0  0  0  0
  187.3090  177.0080  136.5280 C   0  0  2  0  0  3  0  0  0  0  0  0
  185.0480  177.7600  136.6410 C   0  0  0  0  0  2  0  0  0  0  0  0
  188.4120  178.4660  138.4650 S   0  0  0  0  0  0  0  0  0  0  0  0
  185.0860  178.6740  139.0170 C   0  0  0  0  0  0  0  0  0  0  0  0
  185.7490  178.1070  137.8760 N   0  0  0  0  0  0  0  0  0  0  0  0
  192.5700  175.6750  136.4970 O   0  0  0  0  0  0  0  0  0  0  0  0
  191.5200  175.0470  136.4780 C   0  0  0  0  0  0  0  0  0  0  0  0
  191.1620  173.9630  135.1060 S   0  0  0  0  0  0  0  0  0  0  0  0
  191.8960  172.5170  135.9240 C   0  0  0  0  0  2  0  0  0  0  0  0
  193.2860  172.2610  135.3870 C   0  0  1  0  0  3  0  0  0  0  0  0
  193.7970  170.9730  136.0010 C   0  0  1  0  0  3  0  0  0  0  0  0
  193.2810  170.9850  134.5770 C   0  0  0  0  0  2  0  0  0  0  0  0
  195.3130  170.9860  135.9890 C   0  0  0  0  0  2  0  0  0  0  0  0
  197.6220  168.5280  137.6730 O   0  0  0  0  0  0  0  0  0  0  0  0
  196.8720  172.2300  137.4610 N   0  0  2  0  0  0  0  0  0  0  0  0
  197.1580  170.7940  137.5710 N   0  0  0  0  0  0  0  0  0  0  0  0
  195.8270  171.3570  137.3850 C   0  0  2  0  0  3  0  0  0  0  0  0
  198.0610  169.7040  137.7190 C   0  0  0  0  0  0  0  0  0  0  0  0
  197.0450  175.1640  136.0120 C   0  0  0  0  0  3  0  0  0  0  0  0
  198.9160  173.0750  136.3730 C   0  0  0  0  0  2  0  0  0  0  0  0
  199.2710  174.3940  135.6800 C   0  0  0  0  0  2  0  0  0  0  0  0
  197.4330  172.6820  136.1820 C   0  0  2  0  0  3  0  0  0  0  0  0
  198.3090  175.4140  136.0430 N   0  0  0  0  0  0  0  0  0  0  0  0
  196.5600  173.8070  135.5860 C   0  0  0  0  0  2  0  0  0  0  0  0
  200.2270  169.1180  138.7260 C   0  0  0  0  0  1  0  0  0  0  0  0
  199.4180  169.9600  137.9170 O   0  0  0  0  0  0  0  0  0  0  0  0
  183.6220  178.9650  138.9880 C   0  0  0  0  0  2  0  0  0  0  0  0
  183.0200  178.5880  140.3220 C   0  0  0  0  0  2  0  0  0  0  0  0
  181.5350  178.4690  140.2250 C   0  0  0  0  0  0  0  0  0  0  0  0
  180.8540  179.4610  140.4270 O   0  0  0  0  0  0  0  0  0  0  0  0
  181.9640  176.0940  139.7040 C   0  0  0  0  0  1  0  0  0  0  0  0
  180.8870  177.1650  139.8160 C   0  0  1  0  0  0  0  0  0  0  0  0
  179.9860  176.7530  140.8000 O   0  0  0  0  0  1  0  0  0  0  0  0
  180.2560  176.0960  137.7370 O   0  0  0  0  0  1  0  0  0  0  0  0
  180.1410  177.2780  138.4750 C   0  0  2  0  0  3  0  0  0  0  0  0
  180.6080  178.4580  137.6170 C   0  0  0  0  0  2  0  0  0  0  0  0
  180.4470  178.1750  136.1330 C   0  0  0  0  0  2  0  0  0  0  0  0
  181.5350  178.6820  135.4210 O   0  0  0  0  0  1  0  0  0  0  0  0
  191.0560  177.5750  140.3460 C   0  0  0  0  0  2  0  0  0  0  0  0
  189.3850  176.0760  143.2230 C   0  0  0  0  0  3  0  0  0  0  0  0
  190.3730  176.0120  142.2560 C   0  0  0  0  0  3  0  0  0  0  0  0
  189.1910  177.9080  142.0460 C   0  0  0  0  0  3  0  0  0  0  0  0
  190.2350  177.1770  141.5290 C   0  0  0  0  0  0  0  0  0  0  0  0
  188.6850  177.2230  143.0860 N   0  0  0  0  0  0  0  0  0  0  0  0
  186.6110  178.0900  146.0870 C   0  0  0  0  0  3  0  0  0  0  0  0
  187.7010  177.7050  145.2940 C   0  0  0  0  0  3  0  0  0  0  0  0
  185.2450  178.3300  144.1120 C   0  0  0  0  0  0  0  0  0  0  0  0
  187.5760  177.6290  143.9040 C   0  0  0  0  0  0  0  0  0  0  0  0
  184.0670  178.6440  143.5400 F   0  0  0  0  0  0  0  0  0  0  0  0
  186.3330  177.9450  143.3190 C   0  0  0  0  0  3  0  0  0  0  0  0
  185.3860  178.4020  145.4960 C   0  0  0  0  0  3  0  0  0  0  0  0
  1  3  1  0  0  0  0
  1  4  2  0  0  0  0
  2 11  1  0  0  0  0
  3 16  1  6  0  0  0
  3  6  1  0  0  0  0
  4 12  1  0  0  0  0
  4  7  1  0  0  0  0
  5 10  1  0  0  0  0
  5  1  1  0  0  0  0
  6  7  2  0  0  0  0
  7 48  1  0  0  0  0
  8 12  1  6  0  0  0
 10  2  1  1  0  0  0
 10  8  1  0  0  0  0
 11 14  1  0  0  0  0
 13  9  2  0  0  0  0
 14  8  1  0  0  0  0
 14 13  1  0  0  0  0
 16 15  2  0  0  0  0
 17 18  1  0  0  0  0
 17 16  1  0  0  0  0
 19 18  1  1  0  0  0
 19 20  1  0  0  0  0
 20 22  1  6  0  0  0
 21 19  1  0  0  0  0
 21 20  1  0  0  0  0
 23 27  2  0  0  0  0
 24 25  1  1  0  0  0
 25 27  1  0  0  0  0
 26 22  1  6  0  0  0
 26 24  1  0  0  0  0
 26 25  1  0  0  0  0
 27 35  1  0  0  0  0
 28 32  2  0  0  0  0
 30 32  1  0  0  0  0
 30 29  1  0  0  0  0
 31 33  1  1  0  0  0
 31 29  1  0  0  0  0
 31 24  1  0  0  0  0
 33 28  1  0  0  0  0
 35 34  1  0  0  0  0
 36 13  1  0  0  0  0
 36 37  1  0  0  0  0
 38 37  1  0  0  0  0
 38 39  2  0  0  0  0
 41 40  1  6  0  0  0
 41 38  1  0  0  0  0
 41 42  1  0  0  0  0
 44 43  1  6  0  0  0
 44 41  1  0  0  0  0
 45 44  1  0  0  0  0
 46 45  1  0  0  0  0
 47 46  1  0  0  0  0
 48 52  1  0  0  0  0
 50 49  2  0  0  0  0
 51 53  1  0  0  0  0
 52 51  2  0  0  0  0
 52 50  1  0  0  0  0
 53 49  1  0  0  0  0
 53 57  1  0  0  0  0
 55 54  2  0  0  0  0
 56 60  2  0  0  0  0
 57 55  1  0  0  0  0
 58 56  1  0  0  0  0
 59 57  2  0  0  0  0
 59 56  1  0  0  0  0
 60 54  1  0  0  0  0
M  END
>  <MODEL>
2

>  <REMARK>
 VINA RESULT:      -7.1      1.764      2.176
  Name = 
  18 active torsions:
  status: ('A' for Active; 'I' for Inactive)
    1  A    between atoms: C_9  and  C_25
    2  A    between atoms: C_10  and  C_60
    3  A    between atoms: O_12  and  C_48
    4  A    between atoms: C_13  and  C_18
    5  A    between atoms: C_13  and  C_27
    6  A    between atoms: C_15  and  C_24
    7  A    between atoms: C_15  and  C_47
    8  A    between atoms: C_18  and  C_57
    9  A    between atoms: C_20  and  C_42
   10  A    between atoms: C_25  and  S_56
   11  A    between atoms: C_27  and  C_44
   12  A    between atoms: C_28  and  C_29
   13  A    between atoms: C_29  and  C_37
   14  A    between atoms: C_32  and  N_52
   15  A    between atoms: N_40  and  C_50
   16  A    between atoms: C_42  and  S_56
   17  A    between atoms: C_44  and  C_59
   18  A    between atoms: C_59  and  C_60
                            x       y       z     vdW  Elec       q    Type
                         _______ _______ _______ _____ _____    ______ ____

>  <TORSDO>
F 18

$$$$
=
 OpenBabel10232409083D

 60 67  0  0  1  0  0  0  0  0999 V2000
  185.4530  177.9180  139.0820 C   0  0  0  0  0  0  0  0  0  0  0  0
  189.1960  178.1960  138.1310 C   0  0  0  0  0  2  0  0  0  0  0  0
  184.4440  177.6110  140.1380 C   0  0  2  0  0  3  0  0  0  0  0  0
  184.9010  177.6970  137.8910 C   0  0  0  0  0  0  0  0  0  0  0  0
  186.9350  178.0750  139.3430 C   0  0  0  0  0  2  0  0  0  0  0  0
  183.2930  177.1380  139.3730 N   0  0  0  0  0  0  0  0  0  0  0  0
  183.5530  177.2220  138.1160 C   0  0  0  0  0  0  0  0  0  0  0  0
  187.3050  177.2270  137.0370 C   0  0  1  0  0  3  0  0  0  0  0  0
  187.4430  175.7300  134.5650 O   0  0  0  0  0  0  0  0  0  0  0  0
  187.6880  178.2860  138.0380 C   0  0  2  0  0  3  0  0  0  0  0  0
  189.6120  177.7780  136.7220 C   0  0  0  0  0  2  0  0  0  0  0  0
  185.7450  177.7730  136.2900 S   0  0  0  0  0  0  0  0  0  0  0  0
  188.4880  176.2890  134.9900 C   0  0  0  0  0  0  0  0  0  0  0  0
  188.4250  177.1760  136.1190 N   0  0  0  0  0  0  0  0  0  0  0  0
  184.7780  179.8420  140.8520 O   0  0  0  0  0  0  0  0  0  0  0  0
  184.0840  178.8370  140.9160 C   0  0  0  0  0  0  0  0  0  0  0  0
  182.5780  178.8610  141.8750 S   0  0  0  0  0  0  0  0  0  0  0  0
  183.4140  179.4810  143.3620 C   0  0  0  0  0  2  0  0  0  0  0  0
  184.1260  178.3510  144.0730 C   0  0  1  0  0  3  0  0  0  0  0  0
  185.2250  178.9500  144.9270 C   0  0  1  0  0  3  0  0  0  0  0  0
  183.9280  178.4980  145.5650 C   0  0  0  0  0  2  0  0  0  0  0  0
  186.2960  177.9040  145.1620 C   0  0  0  0  0  2  0  0  0  0  0  0
  187.8550  176.8050  148.4130 O   0  0  0  0  0  0  0  0  0  0  0  0
  188.7550  178.1680  145.0000 N   0  0  2  0  0  0  0  0  0  0  0  0
  188.4190  177.6610  146.3370 N   0  0  0  0  0  0  0  0  0  0  0  0
  187.5980  178.5980  145.5800 C   0  0  2  0  0  3  0  0  0  0  0  0
  188.6890  176.8500  147.4750 C   0  0  0  0  0  0  0  0  0  0  0  0
  189.2560  177.8660  141.7760 C   0  0  0  0  0  3  0  0  0  0  0  0
  189.9770  176.2750  143.9990 C   0  0  0  0  0  2  0  0  0  0  0  0
  190.3800  175.9240  142.5640 C   0  0  0  0  0  2  0  0  0  0  0  0
  188.6350  177.0380  144.0720 C   0  0  2  0  0  3  0  0  0  0  0  0
  190.2930  177.1030  141.7270 N   0  0  0  0  0  0  0  0  0  0  0  0
  188.1200  177.5290  142.7010 C   0  0  0  0  0  2  0  0  0  0  0  0
  191.1470  176.7620  147.4810 C   0  0  0  0  0  1  0  0  0  0  0  0
  189.8790  176.1240  147.5320 O   0  0  0  0  0  0  0  0  0  0  0  0
  189.7940  175.9510  134.3510 C   0  0  0  0  0  2  0  0  0  0  0  0
  190.5300  174.9660  135.2310 C   0  0  0  0  0  2  0  0  0  0  0  0
  191.9300  175.4190  135.4860 C   0  0  0  0  0  0  0  0  0  0  0  0
  192.5080  176.0480  134.6150 O   0  0  0  0  0  0  0  0  0  0  0  0
  193.1270  176.4850  137.3630 C   0  0  0  0  0  1  0  0  0  0  0  0
  192.5950  175.1660  136.8200 C   0  0  1  0  0  0  0  0  0  0  0  0
  191.6560  174.6830  137.7350 O   0  0  0  0  0  1  0  0  0  0  0  0
  193.9990  173.5510  137.9500 O   0  0  0  0  0  1  0  0  0  0  0  0
  193.7510  174.1560  136.7150 C   0  0  2  0  0  3  0  0  0  0  0  0
  195.0490  174.7710  136.1820 C   0  0  0  0  0  2  0  0  0  0  0  0
  196.2160  174.5280  137.1240 C   0  0  0  0  0  2  0  0  0  0  0  0
  197.2900  175.3540  136.7900 O   0  0  0  0  0  1  0  0  0  0  0  0
  182.6380  176.7230  137.0430 C   0  0  0  0  0  2  0  0  0  0  0  0
  182.2230  173.0990  136.9920 C   0  0  0  0  0  3  0  0  0  0  0  0
  181.7070  174.3490  137.2790 C   0  0  0  0  0  3  0  0  0  0  0  0
  183.7720  174.5310  136.4190 C   0  0  0  0  0  3  0  0  0  0  0  0
  182.6970  175.2360  136.9070 C   0  0  0  0  0  0  0  0  0  0  0  0
  183.4640  173.2230  136.4730 N   0  0  0  0  0  0  0  0  0  0  0  0
  186.4820  171.3000  135.3540 C   0  0  0  0  0  3  0  0  0  0  0  0
  185.6610  172.3600  135.7640 C   0  0  0  0  0  3  0  0  0  0  0  0
  184.6210  169.7740  135.5370 C   0  0  0  0  0  0  0  0  0  0  0  0
  184.3140  172.1390  136.0650 C   0  0  0  0  0  0  0  0  0  0  0  0
  184.1220  168.5270  135.4400 F   0  0  0  0  0  0  0  0  0  0  0  0
  183.8000  170.8320  135.9460 C   0  0  0  0  0  3  0  0  0  0  0  0
  185.9620  170.0100  135.2410 C   0  0  0  0  0  3  0  0  0  0  0  0
  1  5  1  0  0  0  0
  1  3  1  0  0  0  0
  3 16  1  6  0  0  0
  4  7  1  0  0  0  0
  4  1  2  0  0  0  0
  6  3  1  0  0  0  0
  7  6  2  0  0  0  0
  8 12  1  6  0  0  0
  8 10  1  0  0  0  0
  9 13  2  0  0  0  0
 10  2  1  1  0  0  0
 10  5  1  0  0  0  0
 11  2  1  0  0  0  0
 12  4  1  0  0  0  0
 13 14  1  0  0  0  0
 14 11  1  0  0  0  0
 14  8  1  0  0  0  0
 15 16  2  0  0  0  0
 16 17  1  0  0  0  0
 17 18  1  0  0  0  0
 19 18  1  6  0  0  0
 19 20  1  0  0  0  0
 19 21  1  0  0  0  0
 20 22  1  1  0  0  0
 20 21  1  0  0  0  0
 24 26  1  0  0  0  0
 24 25  1  1  0  0  0
 25 27  1  0  0  0  0
 26 22  1  6  0  0  0
 26 25  1  0  0  0  0
 27 35  1  0  0  0  0
 27 23  2  0  0  0  0
 28 33  1  0  0  0  0
 29 31  1  0  0  0  0
 30 29  1  0  0  0  0
 31 33  1  6  0  0  0
 31 24  1  0  0  0  0
 32 28  2  0  0  0  0
 32 30  1  0  0  0  0
 34 35  1  0  0  0  0
 36 13  1  0  0  0  0
 36 37  1  0  0  0  0
 37 38  1  0  0  0  0
 38 41  1  0  0  0  0
 39 38  2  0  0  0  0
 41 40  1  1  0  0  0
 41 42  1  0  0  0  0
 44 41  1  0  0  0  0
 44 43  1  1  0  0  0
 45 44  1  0  0  0  0
 45 46  1  0  0  0  0
 47 46  1  0  0  0  0
 48  7  1  0  0  0  0
 49 50  2  0  0  0  0
 51 53  1  0  0  0  0
 51 52  2  0  0  0  0
 52 48  1  0  0  0  0
 52 50  1  0  0  0  0
 53 49  1  0  0  0  0
 54 55  1  0  0  0  0
 55 57  2  0  0  0  0
 56 59  2  0  0  0  0
 57 53  1  0  0  0  0
 58 56  1  0  0  0  0
 59 57  1  0  0  0  0
 60 54  2  0  0  0  0
 60 56  1  0  0  0  0
M  END
>  <MODEL>
3

>  <REMARK>
 VINA RESULT:      -6.8      3.946     10.974
  Name = 
  18 active torsions:
  status: ('A' for Active; 'I' for Inactive)
    1  A    between atoms: C_9  and  C_25
    2  A    between atoms: C_10  and  C_60
    3  A    between atoms: O_12  and  C_48
    4  A    between atoms: C_13  and  C_18
    5  A    between atoms: C_13  and  C_27
    6  A    between atoms: C_15  and  C_24
    7  A    between atoms: C_15  and  C_47
    8  A    between atoms: C_18  and  C_57
    9  A    between atoms: C_20  and  C_42
   10  A    between atoms: C_25  and  S_56
   11  A    between atoms: C_27  and  C_44
   12  A    between atoms: C_28  and  C_29
   13  A    between atoms: C_29  and  C_37
   14  A    between atoms: C_32  and  N_52
   15  A    between atoms: N_40  and  C_50
   16  A    between atoms: C_42  and  S_56
   17  A    between atoms: C_44  and  C_59
   18  A    between atoms: C_59  and  C_60
                            x       y       z     vdW  Elec       q    Type
                         _______ _______ _______ _____ _____    ______ ____

>  <TORSDO>
F 18

$$$$
=
 OpenBabel10232409083D

 60 67  0  0  1  0  0  0  0  0999 V2000
  189.4170  176.5460  137.8150 C   0  0  0  0  0  0  0  0  0  0  0  0
  187.3970  175.7170  134.6170 C   0  0  0  0  0  2  0  0  0  0  0  0
  190.3800  176.0720  138.8520 C   0  0  2  0  0  3  0  0  0  0  0  0
  188.6810  177.5260  138.3360 C   0  0  0  0  0  0  0  0  0  0  0  0
  189.0880  175.7870  136.5490 C   0  0  0  0  0  2  0  0  0  0  0  0
  190.0360  176.8770  140.0210 N   0  0  0  0  0  0  0  0  0  0  0  0
  189.1050  177.7080  139.7070 C   0  0  0  0  0  0  0  0  0  0  0  0
  186.8320  176.8200  136.6610 C   0  0  1  0  0  3  0  0  0  0  0  0
  184.1690  177.7260  137.3400 O   0  0  0  0  0  0  0  0  0  0  0  0
  187.9990  176.5010  135.7630 C   0  0  2  0  0  3  0  0  0  0  0  0
  186.0000  176.3180  134.4740 C   0  0  0  0  0  2  0  0  0  0  0  0
  187.2690  178.3410  137.5460 S   0  0  0  0  0  0  0  0  0  0  0  0
  184.3710  177.2570  136.1900 C   0  0  0  0  0  0  0  0  0  0  0  0
  185.7070  176.9530  135.7570 N   0  0  0  0  0  0  0  0  0  0  0  0
  192.5380  176.9950  139.1480 O   0  0  0  0  0  0  0  0  0  0  0  0
  191.7930  176.3330  138.4380 C   0  0  0  0  0  0  0  0  0  0  0  0
  192.4240  175.5980  136.9380 S   0  0  0  0  0  0  0  0  0  0  0  0
  194.0310  175.2040  137.6850 C   0  0  0  0  0  2  0  0  0  0  0  0
  194.3800  173.7520  137.4450 C   0  0  1  0  0  3  0  0  0  0  0  0
  195.8550  173.6710  137.1110 C   0  0  1  0  0  3  0  0  0  0  0  0
  195.3670  173.2960  138.4950 C   0  0  0  0  0  2  0  0  0  0  0  0
  196.1130  172.4120  136.3070 C   0  0  0  0  0  2  0  0  0  0  0  0
  198.1320  175.5330  136.9350 O   0  0  0  0  0  0  0  0  0  0  0  0
  198.5030  171.9220  135.8670 N   0  0  2  0  0  0  0  0  0  0  0  0
  198.3710  173.3320  136.2570 N   0  0  0  0  0  0  0  0  0  0  0  0
  197.3860  172.5980  135.4720 C   0  0  2  0  0  3  0  0  0  0  0  0
  198.8450  174.4980  136.9210 C   0  0  0  0  0  0  0  0  0  0  0  0
  198.4670  168.6960  136.4370 C   0  0  0  0  0  3  0  0  0  0  0  0
  199.7800  170.8630  137.6900 C   0  0  0  0  0  2  0  0  0  0  0  0
  199.9700  169.4100  138.1350 C   0  0  0  0  0  2  0  0  0  0  0  0
  198.3790  171.1250  137.0930 C   0  0  2  0  0  3  0  0  0  0  0  0
  199.5740  168.5140  137.0690 N   0  0  0  0  0  0  0  0  0  0  0  0
  197.5690  169.8410  136.8120 C   0  0  0  0  0  2  0  0  0  0  0  0
  200.2310  174.5690  138.9510 C   0  0  0  0  0  1  0  0  0  0  0  0
  200.0940  174.4740  137.5410 O   0  0  0  0  0  0  0  0  0  0  0  0
  183.1950  176.9540  135.3220 C   0  0  0  0  0  2  0  0  0  0  0  0
  182.0840  176.3920  136.1790 C   0  0  0  0  0  2  0  0  0  0  0  0
  181.9040  174.9300  135.9300 C   0  0  0  0  0  0  0  0  0  0  0  0
  181.5210  174.5680  134.8300 O   0  0  0  0  0  0  0  0  0  0  0  0
  182.7170  174.6500  138.2440 C   0  0  0  0  0  1  0  0  0  0  0  0
  182.2550  173.9140  136.9940 C   0  0  1  0  0  0  0  0  0  0  0  0
  181.1210  173.1740  137.3350 O   0  0  0  0  0  1  0  0  0  0  0  0
  183.2980  171.7440  137.2450 O   0  0  0  0  0  1  0  0  0  0  0  0
  183.3610  172.9470  136.5360 C   0  0  2  0  0  3  0  0  0  0  0  0
  184.7710  173.5340  136.6590 C   0  0  0  0  0  2  0  0  0  0  0  0
  185.8410  172.4660  136.5050 C   0  0  0  0  0  2  0  0  0  0  0  0
  187.0950  172.9860  136.8280 O   0  0  0  0  0  1  0  0  0  0  0  0
  188.4350  178.6150  140.6910 C   0  0  0  0  0  2  0  0  0  0  0  0
  187.6690  176.9400  143.8400 C   0  0  0  0  0  3  0  0  0  0  0  0
  187.3010  177.2650  142.5470 C   0  0  0  0  0  3  0  0  0  0  0  0
  189.3220  178.1160  143.0240 C   0  0  0  0  0  3  0  0  0  0  0  0
  188.3570  178.0020  142.0510 C   0  0  0  0  0  0  0  0  0  0  0  0
  188.8880  177.4560  144.1130 N   0  0  0  0  0  0  0  0  0  0  0  0
  191.5400  176.6340  146.6320 C   0  0  0  0  0  3  0  0  0  0  0  0
  190.8660  176.7630  145.4090 C   0  0  0  0  0  3  0  0  0  0  0  0
  189.6730  177.6430  147.7810 C   0  0  0  0  0  0  0  0  0  0  0  0
  189.5900  177.3330  145.3590 C   0  0  0  0  0  0  0  0  0  0  0  0
  189.1030  178.0790  148.9200 F   0  0  0  0  0  0  0  0  0  0  0  0
  188.9980  177.7720  146.5610 C   0  0  0  0  0  3  0  0  0  0  0  0
  190.9440  177.0740  147.8140 C   0  0  0  0  0  3  0  0  0  0  0  0
  1  4  2  0  0  0  0
  1  3  1  0  0  0  0
  3 16  1  6  0  0  0
  3  6  1  0  0  0  0
  4  7  1  0  0  0  0
  5  1  1  0  0  0  0
  7  6  2  0  0  0  0
  7 48  1  0  0  0  0
  8 12  1  6  0  0  0
 10  2  1  6  0  0  0
 10  5  1  0  0  0  0
 10  8  1  0  0  0  0
 11  2  1  0  0  0  0
 11 14  1  0  0  0  0
 12  4  1  0  0  0  0
 13  9  2  0  0  0  0
 14 13  1  0  0  0  0
 14  8  1  0  0  0  0
 16 15  2  0  0  0  0
 17 18  1  0  0  0  0
 17 16  1  0  0  0  0
 19 18  1  1  0  0  0
 19 21  1  0  0  0  0
 20 22  1  6  0  0  0
 20 19  1  0  0  0  0
 20 21  1  0  0  0  0
 24 25  1  1  0  0  0
 24 31  1  0  0  0  0
 25 27  1  0  0  0  0
 26 24  1  0  0  0  0
 26 25  1  0  0  0  0
 26 22  1  1  0  0  0
 27 23  2  0  0  0  0
 27 35  1  0  0  0  0
 28 33  1  0  0  0  0
 28 32  2  0  0  0  0
 29 30  1  0  0  0  0
 31 33  1  6  0  0  0
 31 29  1  0  0  0  0
 32 30  1  0  0  0  0
 35 34  1  0  0  0  0
 36 37  1  0  0  0  0
 36 13  1  0  0  0  0
 38 37  1  0  0  0  0
 38 41  1  0  0  0  0
 39 38  2  0  0  0  0
 41 42  1  0  0  0  0
 41 40  1  1  0  0  0
 44 45  1  0  0  0  0
 44 41  1  0  0  0  0
 44 43  1  1  0  0  0
 46 45  1  0  0  0  0
 46 47  1  0  0  0  0
 48 52  1  0  0  0  0
 49 53  1  0  0  0  0
 50 49  2  0  0  0  0
 51 53  1  0  0  0  0
 52 50  1  0  0  0  0
 52 51  2  0  0  0  0
 53 57  1  0  0  0  0
 54 60  1  0  0  0  0
 55 54  2  0  0  0  0
 56 60  2  0  0  0  0
 56 58  1  0  0  0  0
 57 55  1  0  0  0  0
 57 59  2  0  0  0  0
 59 56  1  0  0  0  0
M  END
>  <MODEL>
4

>  <REMARK>
 VINA RESULT:      -6.7      2.431      3.443
  Name = 
  18 active torsions:
  status: ('A' for Active; 'I' for Inactive)
    1  A    between atoms: C_9  and  C_25
    2  A    between atoms: C_10  and  C_60
    3  A    between atoms: O_12  and  C_48
    4  A    between atoms: C_13  and  C_18
    5  A    between atoms: C_13  and  C_27
    6  A    between atoms: C_15  and  C_24
    7  A    between atoms: C_15  and  C_47
    8  A    between atoms: C_18  and  C_57
    9  A    between atoms: C_20  and  C_42
   10  A    between atoms: C_25  and  S_56
   11  A    between atoms: C_27  and  C_44
   12  A    between atoms: C_28  and  C_29
   13  A    between atoms: C_29  and  C_37
   14  A    between atoms: C_32  and  N_52
   15  A    between atoms: N_40  and  C_50
   16  A    between atoms: C_42  and  S_56
   17  A    between atoms: C_44  and  C_59
   18  A    between atoms: C_59  and  C_60
                            x       y       z     vdW  Elec       q    Type
                         _______ _______ _______ _____ _____    ______ ____

>  <TORSDO>
F 18

$$$$
=
 OpenBabel10232409083D

 60 67  0  0  1  0  0  0  0  0999 V2000
  189.2290  176.3960  137.3470 C   0  0  0  0  0  0  0  0  0  0  0  0
  185.6480  177.1610  136.0880 C   0  0  0  0  0  2  0  0  0  0  0  0
  190.3180  175.3880  137.5040 C   0  0  2  0  0  3  0  0  0  0  0  0
  189.3740  177.3260  138.2890 C   0  0  0  0  0  0  0  0  0  0  0  0
  187.9830  176.1800  136.5180 C   0  0  0  0  0  2  0  0  0  0  0  0
  191.0380  175.8540  138.6860 N   0  0  0  0  0  0  0  0  0  0  0  0
  190.5170  176.9570  139.0940 C   0  0  0  0  0  0  0  0  0  0  0  0
  186.8120  177.6890  138.1070 C   0  0  1  0  0  3  0  0  0  0  0  0
  185.6100  179.0140  140.3810 O   0  0  0  0  0  0  0  0  0  0  0  0
  187.0370  177.3640  136.6540 C   0  0  2  0  0  3  0  0  0  0  0  0
  184.7910  178.1250  136.9040 C   0  0  0  0  0  2  0  0  0  0  0  0
  188.2300  178.6890  138.6320 S   0  0  0  0  0  0  0  0  0  0  0  0
  184.9310  178.8880  139.3290 C   0  0  0  0  0  0  0  0  0  0  0  0
  185.5430  178.3880  138.1290 N   0  0  0  0  0  0  0  0  0  0  0  0
  192.1290  176.1950  136.2130 O   0  0  0  0  0  0  0  0  0  0  0  0
  191.2230  175.3780  136.3130 C   0  0  0  0  0  0  0  0  0  0  0  0
  191.0350  174.1090  135.0720 S   0  0  0  0  0  0  0  0  0  0  0  0
  191.7560  172.8230  136.1320 C   0  0  0  0  0  2  0  0  0  0  0  0
  193.0210  172.2760  135.5070 C   0  0  1  0  0  3  0  0  0  0  0  0
  194.1720  173.1720  135.9140 C   0  0  1  0  0  3  0  0  0  0  0  0
  193.9680  171.8380  136.6000 C   0  0  0  0  0  2  0  0  0  0  0  0
  195.2830  173.0490  134.8890 C   0  0  0  0  0  2  0  0  0  0  0  0
  194.9030  175.0700  138.0490 O   0  0  0  0  0  0  0  0  0  0  0  0
  197.5320  173.7210  135.6850 N   0  0  2  0  0  0  0  0  0  0  0  0
  196.5210  174.2710  136.5980 N   0  0  0  0  0  0  0  0  0  0  0  0
  196.3410  174.1260  135.1580 C   0  0  2  0  0  3  0  0  0  0  0  0
  196.0720  174.6330  137.8980 C   0  0  0  0  0  0  0  0  0  0  0  0
  199.3940  171.3240  134.4510 C   0  0  0  0  0  3  0  0  0  0  0  0
  198.7190  172.0800  137.0900 C   0  0  0  0  0  2  0  0  0  0  0  0
  199.6660  170.9180  136.7780 C   0  0  0  0  0  2  0  0  0  0  0  0
  197.6520  172.2910  135.9910 C   0  0  2  0  0  3  0  0  0  0  0  0
  200.1830  171.0530  135.4320 N   0  0  0  0  0  0  0  0  0  0  0  0
  197.9210  171.4910  134.6980 C   0  0  0  0  0  2  0  0  0  0  0  0
  198.2460  175.0560  138.9670 C   0  0  0  0  0  1  0  0  0  0  0  0
  196.9380  174.5020  138.9840 O   0  0  0  0  0  0  0  0  0  0  0  0
  183.4700  179.1910  139.3770 C   0  0  0  0  0  2  0  0  0  0  0  0
  182.8170  178.2970  140.4060 C   0  0  0  0  0  2  0  0  0  0  0  0
  181.3940  178.0200  140.0480 C   0  0  0  0  0  0  0  0  0  0  0  0
  180.5460  178.8490  140.3370 O   0  0  0  0  0  0  0  0  0  0  0  0
  182.2520  175.8950  139.1300 C   0  0  0  0  0  1  0  0  0  0  0  0
  181.0170  176.7710  139.2820 C   0  0  1  0  0  0  0  0  0  0  0  0
  180.0680  176.0410  140.0010 O   0  0  0  0  0  1  0  0  0  0  0  0
  179.9950  175.9290  137.2550 O   0  0  0  0  0  1  0  0  0  0  0  0
  180.4460  177.0910  137.8890 C   0  0  2  0  0  3  0  0  0  0  0  0
  181.4420  177.8120  136.9740 C   0  0  0  0  0  2  0  0  0  0  0  0
  180.9620  177.8460  135.5330 C   0  0  0  0  0  2  0  0  0  0  0  0
  180.7860  179.1650  135.1120 O   0  0  0  0  0  1  0  0  0  0  0  0
  190.9380  177.6610  140.3460 C   0  0  0  0  0  2  0  0  0  0  0  0
  189.3760  176.0140  143.2030 C   0  0  0  0  0  3  0  0  0  0  0  0
  190.3380  176.0100  142.2090 C   0  0  0  0  0  3  0  0  0  0  0  0
  189.1130  177.8870  142.1070 C   0  0  0  0  0  3  0  0  0  0  0  0
  190.1570  177.1990  141.5340 C   0  0  0  0  0  0  0  0  0  0  0  0
  188.6480  177.1500  143.1310 N   0  0  0  0  0  0  0  0  0  0  0  0
  185.2820  178.3020  144.3120 C   0  0  0  0  0  3  0  0  0  0  0  0
  186.3410  177.9490  143.4640 C   0  0  0  0  0  3  0  0  0  0  0  0
  186.6300  177.7620  146.2390 C   0  0  0  0  0  0  0  0  0  0  0  0
  187.5540  177.5000  143.9930 C   0  0  0  0  0  0  0  0  0  0  0  0
  186.7670  177.6590  147.5750 F   0  0  0  0  0  0  0  0  0  0  0  0
  187.6890  177.4110  145.3940 C   0  0  0  0  0  3  0  0  0  0  0  0
  185.4270  178.2070  145.6970 C   0  0  0  0  0  3  0  0  0  0  0  0
  1  3  1  0  0  0  0
  1  4  2  0  0  0  0
  2 11  1  0  0  0  0
  3 16  1  6  0  0  0
  3  6  1  0  0  0  0
  4 12  1  0  0  0  0
  4  7  1  0  0  0  0
  5 10  1  0  0  0  0
  5  1  1  0  0  0  0
  6  7  2  0  0  0  0
  7 48  1  0  0  0  0
  8 14  1  0  0  0  0
  8 12  1  6  0  0  0
 10  2  1  1  0  0  0
 10  8  1  0  0  0  0
 11 14  1  0  0  0  0
 13 36  1  0  0  0  0
 13  9  2  0  0  0  0
 14 13  1  0  0  0  0
 15 16  2  0  0  0  0
 17 18  1  0  0  0  0
 17 16  1  0  0  0  0
 19 20  1  0  0  0  0
 19 18  1  1  0  0  0
 19 21  1  0  0  0  0
 20 22  1  6  0  0  0
 20 21  1  0  0  0  0
 24 31  1  0  0  0  0
 24 25  1  1  0  0  0
 25 27  1  0  0  0  0
 26 22  1  1  0  0  0
 26 24  1  0  0  0  0
 26 25  1  0  0  0  0
 27 23  2  0  0  0  0
 27 35  1  0  0  0  0
 28 33  1  0  0  0  0
 28 32  2  0  0  0  0
 30 29  1  0  0  0  0
 31 33  1  6  0  0  0
 31 29  1  0  0  0  0
 32 30  1  0  0  0  0
 34 35  1  0  0  0  0
 36 37  1  0  0  0  0
 38 39  2  0  0  0  0
 38 37  1  0  0  0  0
 41 40  1  6  0  0  0
 41 42  1  0  0  0  0
 41 38  1  0  0  0  0
 44 43  1  6  0  0  0
 44 41  1  0  0  0  0
 45 44  1  0  0  0  0
 46 45  1  0  0  0  0
 47 46  1  0  0  0  0
 48 52  1  0  0  0  0
 50 49  2  0  0  0  0
 51 53  1  0  0  0  0
 52 51  2  0  0  0  0
 52 50  1  0  0  0  0
 53 49  1  0  0  0  0
 53 57  1  0  0  0  0
 54 60  1  0  0  0  0
 55 57  1  0  0  0  0
 55 54  2  0  0  0  0
 56 58  1  0  0  0  0
 57 59  2  0  0  0  0
 59 56  1  0  0  0  0
 60 56  2  0  0  0  0
M  END
>  <MODEL>
5

>  <REMARK>
 VINA RESULT:      -6.5      1.965      2.971
  Name = 
  18 active torsions:
  status: ('A' for Active; 'I' for Inactive)
    1  A    between atoms: C_9  and  C_25
    2  A    between atoms: C_10  and  C_60
    3  A    between atoms: O_12  and  C_48
    4  A    between atoms: C_13  and  C_18
    5  A    between atoms: C_13  and  C_27
    6  A    between atoms: C_15  and  C_24
    7  A    between atoms: C_15  and  C_47
    8  A    between atoms: C_18  and  C_57
    9  A    between atoms: C_20  and  C_42
   10  A    between atoms: C_25  and  S_56
   11  A    between atoms: C_27  and  C_44
   12  A    between atoms: C_28  and  C_29
   13  A    between atoms: C_29  and  C_37
   14  A    between atoms: C_32  and  N_52
   15  A    between atoms: N_40  and  C_50
   16  A    between atoms: C_42  and  S_56
   17  A    between atoms: C_44  and  C_59
   18  A    between atoms: C_59  and  C_60
                            x       y       z     vdW  Elec       q    Type
                         _______ _______ _______ _____ _____    ______ ____

>  <TORSDO>
F 18

$$$$
=
 OpenBabel10232409083D

 60 67  0  0  1  0  0  0  0  0999 V2000
  189.5040  175.9120  137.3400 C   0  0  0  0  0  0  0  0  0  0  0  0
  186.0490  176.5230  135.7030 C   0  0  0  0  0  2  0  0  0  0  0  0
  190.5580  174.9270  137.7200 C   0  0  2  0  0  3  0  0  0  0  0  0
  189.5900  176.9610  138.1560 C   0  0  0  0  0  0  0  0  0  0  0  0
  188.3230  175.5930  136.4500 C   0  0  0  0  0  2  0  0  0  0  0  0
  191.1910  175.5450  138.8820 N   0  0  0  0  0  0  0  0  0  0  0  0
  190.6590  176.6970  139.0930 C   0  0  0  0  0  0  0  0  0  0  0  0
  187.0580  177.3130  137.7190 C   0  0  1  0  0  3  0  0  0  0  0  0
  185.7030  178.9460  139.6870 O   0  0  0  0  0  0  0  0  0  0  0  0
  187.3920  176.7920  136.3460 C   0  0  2  0  0  3  0  0  0  0  0  0
  185.1460  177.5960  136.3080 C   0  0  0  0  0  2  0  0  0  0  0  0
  188.4480  178.3660  138.2170 S   0  0  0  0  0  0  0  0  0  0  0  0
  185.1080  178.6820  138.6110 C   0  0  0  0  0  0  0  0  0  0  0  0
  185.8040  178.0180  137.5430 N   0  0  0  0  0  0  0  0  0  0  0  0
  191.4630  173.8080  135.8410 O   0  0  0  0  0  0  0  0  0  0  0  0
  191.5550  174.7490  136.6190 C   0  0  0  0  0  0  0  0  0  0  0  0
  192.8370  175.9680  136.3840 S   0  0  0  0  0  0  0  0  0  0  0  0
  193.8480  175.3170  137.7440 C   0  0  0  0  0  2  0  0  0  0  0  0
  194.1830  173.8630  137.4980 C   0  0  1  0  0  3  0  0  0  0  0  0
  195.6270  173.7820  137.0470 C   0  0  1  0  0  3  0  0  0  0  0  0
  195.2550  173.4270  138.4720 C   0  0  0  0  0  2  0  0  0  0  0  0
  195.8260  172.5110  136.2440 C   0  0  0  0  0  2  0  0  0  0  0  0
  197.8380  175.6760  136.6220 O   0  0  0  0  0  0  0  0  0  0  0  0
  198.1850  172.0350  135.6550 N   0  0  2  0  0  0  0  0  0  0  0  0
  198.0610  173.4560  136.0040 N   0  0  0  0  0  0  0  0  0  0  0  0
  197.0340  172.6830  135.3160 C   0  0  2  0  0  3  0  0  0  0  0  0
  198.5620  174.6500  136.5940 C   0  0  0  0  0  0  0  0  0  0  0  0
  198.0020  168.8350  136.3330 C   0  0  0  0  0  3  0  0  0  0  0  0
  199.6020  170.9340  137.3450 C   0  0  0  0  0  2  0  0  0  0  0  0
  199.7460  169.4840  137.8130 C   0  0  0  0  0  2  0  0  0  0  0  0
  198.1590  171.2800  136.9130 C   0  0  2  0  0  3  0  0  0  0  0  0
  199.1640  168.5900  136.8330 N   0  0  0  0  0  0  0  0  0  0  0  0
  197.2360  170.0500  136.7750 C   0  0  0  0  0  2  0  0  0  0  0  0
  200.1100  174.2970  138.4720 C   0  0  0  0  0  1  0  0  0  0  0  0
  199.8520  174.6630  137.1250 O   0  0  0  0  0  0  0  0  0  0  0  0
  183.6530  178.9990  138.4980 C   0  0  0  0  0  2  0  0  0  0  0  0
  183.0060  178.0070  137.5580 C   0  0  0  0  0  2  0  0  0  0  0  0
  181.7400  177.4690  138.1390 C   0  0  0  0  0  0  0  0  0  0  0  0
  180.9110  178.2570  138.5650 O   0  0  0  0  0  0  0  0  0  0  0  0
  181.8070  175.4140  139.5050 C   0  0  0  0  0  1  0  0  0  0  0  0
  181.4560  175.9830  138.1380 C   0  0  1  0  0  0  0  0  0  0  0  0
  180.0940  175.7600  137.9250 O   0  0  0  0  0  1  0  0  0  0  0  0
  181.4930  175.0680  135.8970 O   0  0  0  0  0  1  0  0  0  0  0  0
  182.2560  175.2370  137.0560 C   0  0  2  0  0  3  0  0  0  0  0  0
  182.7810  173.8740  137.5190 C   0  0  0  0  0  2  0  0  0  0  0  0
  184.2440  173.6800  137.1560 C   0  0  0  0  0  2  0  0  0  0  0  0
  184.8720  172.8620  138.0960 O   0  0  0  0  0  1  0  0  0  0  0  0
  190.9920  177.5630  140.2680 C   0  0  0  0  0  2  0  0  0  0  0  0
  189.3630  176.2310  143.2490 C   0  0  0  0  0  3  0  0  0  0  0  0
  190.3900  176.1610  142.3250 C   0  0  0  0  0  3  0  0  0  0  0  0
  189.0370  177.8910  141.8650 C   0  0  0  0  0  3  0  0  0  0  0  0
  190.1670  177.2180  141.4660 C   0  0  0  0  0  0  0  0  0  0  0  0
  188.5580  177.2770  142.9620 N   0  0  0  0  0  0  0  0  0  0  0  0
  185.0760  178.4200  143.7520 C   0  0  0  0  0  3  0  0  0  0  0  0
  186.2160  178.0390  143.0300 C   0  0  0  0  0  3  0  0  0  0  0  0
  186.2530  178.0450  145.8260 C   0  0  0  0  0  0  0  0  0  0  0  0
  187.3840  177.6570  143.6960 C   0  0  0  0  0  0  0  0  0  0  0  0
  186.2680  178.0360  147.1720 F   0  0  0  0  0  0  0  0  0  0  0  0
  187.3910  177.6650  145.1060 C   0  0  0  0  0  3  0  0  0  0  0  0
  185.0960  178.4220  145.1480 C   0  0  0  0  0  3  0  0  0  0  0  0
  1  3  1  0  0  0  0
  1  4  2  0  0  0  0
  2 11  1  0  0  0  0
  3 16  1  6  0  0  0
  3  6  1  0  0  0  0
  4 12  1  0  0  0  0
  4  7  1  0  0  0  0
  5  1  1  0  0  0  0
  6  7  2  0  0  0  0
  7 48  1  0  0  0  0
  8 12  1  6  0  0  0
 10  2  1  1  0  0  0
 10  5  1  0  0  0  0
 10  8  1  0  0  0  0
 11 14  1  0  0  0  0
 13  9  2  0  0  0  0
 14  8  1  0  0  0  0
 14 13  1  0  0  0  0
 15 16  2  0  0  0  0
 17 16  1  0  0  0  0
 17 18  1  0  0  0  0
 19 18  1  1  0  0  0
 19 21  1  0  0  0  0
 20 22  1  6  0  0  0
 20 19  1  0  0  0  0
 20 21  1  0  0  0  0
 24 25  1  1  0  0  0
 24 31  1  0  0  0  0
 25 27  1  0  0  0  0
 26 24  1  0  0  0  0
 26 25  1  0  0  0  0
 26 22  1  1  0  0  0
 27 23  2  0  0  0  0
 27 35  1  0  0  0  0
 28 33  1  0  0  0  0
 28 32  2  0  0  0  0
 29 30  1  0  0  0  0
 31 33  1  6  0  0  0
 31 29  1  0  0  0  0
 32 30  1  0  0  0  0
 35 34  1  0  0  0  0
 36 13  1  0  0  0  0
 37 38  1  0  0  0  0
 37 36  1  0  0  0  0
 38 39  2  0  0  0  0
 41 38  1  0  0  0  0
 41 40  1  1  0  0  0
 42 41  1  0  0  0  0
 44 43  1  6  0  0  0
 44 45  1  0  0  0  0
 44 41  1  0  0  0  0
 46 45  1  0  0  0  0
 46 47  1  0  0  0  0
 48 52  1  0  0  0  0
 50 49  2  0  0  0  0
 51 53  1  0  0  0  0
 52 51  2  0  0  0  0
 52 50  1  0  0  0  0
 53 49  1  0  0  0  0
 53 57  1  0  0  0  0
 54 60  1  0  0  0  0
 55 57  1  0  0  0  0
 55 54  2  0  0  0  0
 56 58  1  0  0  0  0
 57 59  2  0  0  0  0
 59 56  1  0  0  0  0
 60 56  2  0  0  0  0
M  END
>  <MODEL>
6

>  <REMARK>
 VINA RESULT:      -6.4      1.922      2.857
  Name = 
  18 active torsions:
  status: ('A' for Active; 'I' for Inactive)
    1  A    between atoms: C_9  and  C_25
    2  A    between atoms: C_10  and  C_60
    3  A    between atoms: O_12  and  C_48
    4  A    between atoms: C_13  and  C_18
    5  A    between atoms: C_13  and  C_27
    6  A    between atoms: C_15  and  C_24
    7  A    between atoms: C_15  and  C_47
    8  A    between atoms: C_18  and  C_57
    9  A    between atoms: C_20  and  C_42
   10  A    between atoms: C_25  and  S_56
   11  A    between atoms: C_27  and  C_44
   12  A    between atoms: C_28  and  C_29
   13  A    between atoms: C_29  and  C_37
   14  A    between atoms: C_32  and  N_52
   15  A    between atoms: N_40  and  C_50
   16  A    between atoms: C_42  and  S_56
   17  A    between atoms: C_44  and  C_59
   18  A    between atoms: C_59  and  C_60
                            x       y       z     vdW  Elec       q    Type
                         _______ _______ _______ _____ _____    ______ ____

>  <TORSDO>
F 18

$$$$
=
 OpenBabel10232409083D

 60 67  0  0  1  0  0  0  0  0999 V2000
  190.9040  176.3700  137.5380 C   0  0  0  0  0  0  0  0  0  0  0  0
  187.5810  178.2890  138.0540 C   0  0  0  0  0  2  0  0  0  0  0  0
  192.3690  176.4440  137.2610 C   0  0  2  0  0  3  0  0  0  0  0  0
  190.4550  175.1850  137.1280 C   0  0  0  0  0  0  0  0  0  0  0  0
  190.0390  177.5670  137.8620 C   0  0  0  0  0  2  0  0  0  0  0  0
  192.6490  175.1740  136.5960 N   0  0  0  0  0  0  0  0  0  0  0  0
  191.5750  174.4680  136.5580 C   0  0  0  0  0  0  0  0  0  0  0  0
  188.1600  176.3440  136.7910 C   0  0  1  0  0  3  0  0  0  0  0  0
  186.3370  174.9400  135.0370 O   0  0  0  0  0  0  0  0  0  0  0  0
  188.5800  177.1540  137.9900 C   0  0  2  0  0  3  0  0  0  0  0  0
  186.2980  177.6600  137.5160 C   0  0  0  0  0  2  0  0  0  0  0  0
  188.7250  174.6490  137.0970 S   0  0  0  0  0  0  0  0  0  0  0  0
  185.8910  175.8860  135.7370 C   0  0  0  0  0  0  0  0  0  0  0  0
  186.7190  176.4970  136.7390 N   0  0  0  0  0  0  0  0  0  0  0  0
  194.0370  175.7440  138.7850 O   0  0  0  0  0  0  0  0  0  0  0  0
  193.1540  176.5510  138.5290 C   0  0  0  0  0  0  0  0  0  0  0  0
  192.8600  177.9210  139.6350 S   0  0  0  0  0  0  0  0  0  0  0  0
  191.9310  176.9020  140.8160 C   0  0  0  0  0  2  0  0  0  0  0  0
  190.8330  177.7170  141.4630 C   0  0  1  0  0  3  0  0  0  0  0  0
  190.1290  176.8380  142.4760 C   0  0  1  0  0  3  0  0  0  0  0  0
  191.1320  177.8750  142.9370 C   0  0  0  0  0  2  0  0  0  0  0  0
  188.7230  177.3620  142.6950 C   0  0  0  0  0  2  0  0  0  0  0  0
  190.0130  177.3520  146.2370 O   0  0  0  0  0  0  0  0  0  0  0  0
  186.8320  176.9210  144.2340 N   0  0  2  0  0  0  0  0  0  0  0  0
  188.0630  177.0620  145.0230 N   0  0  0  0  0  0  0  0  0  0  0  0
  187.9970  176.4580  143.6980 C   0  0  2  0  0  3  0  0  0  0  0  0
  188.7650  177.4920  146.1830 C   0  0  0  0  0  0  0  0  0  0  0  0
  184.4860  178.0410  142.2400 C   0  0  0  0  0  3  0  0  0  0  0  0
  185.3620  178.8120  144.8150 C   0  0  0  0  0  2  0  0  0  0  0  0
  184.1870  179.4890  144.1020 C   0  0  0  0  0  2  0  0  0  0  0  0
  186.4240  178.2720  143.8310 C   0  0  2  0  0  3  0  0  0  0  0  0
  183.6800  178.6220  143.0590 N   0  0  0  0  0  0  0  0  0  0  0  0
  185.9670  178.2710  142.3560 C   0  0  0  0  0  2  0  0  0  0  0  0
  188.2190  177.5990  148.5780 C   0  0  0  0  0  1  0  0  0  0  0  0
  188.0570  178.0570  147.2440 O   0  0  0  0  0  0  0  0  0  0  0  0
  184.5210  176.4060  135.4510 C   0  0  0  0  0  2  0  0  0  0  0  0
  183.5100  175.5490  136.1780 C   0  0  0  0  0  2  0  0  0  0  0  0
  182.3950  176.3820  136.7200 C   0  0  0  0  0  0  0  0  0  0  0  0
  181.7900  177.1180  135.9580 O   0  0  0  0  0  0  0  0  0  0  0  0
  180.6120  175.5950  138.2360 C   0  0  0  0  0  1  0  0  0  0  0  0
  181.9760  176.2670  138.1690 C   0  0  1  0  0  0  0  0  0  0  0  0
  182.8800  175.4560  138.8610 O   0  0  0  0  0  1  0  0  0  0  0  0
  180.5800  178.0730  138.9740 O   0  0  0  0  0  1  0  0  0  0  0  0
  181.9030  177.6360  138.8670 C   0  0  2  0  0  3  0  0  0  0  0  0
  182.7390  178.7180  138.1730 C   0  0  0  0  0  2  0  0  0  0  0  0
  183.1110  179.8410  139.1260 C   0  0  0  0  0  2  0  0  0  0  0  0
  184.4980  179.9240  139.2590 O   0  0  0  0  0  1  0  0  0  0  0  0
  191.4700  173.1510  135.8540 C   0  0  0  0  0  2  0  0  0  0  0  0
  194.4370  171.2500  134.9090 C   0  0  0  0  0  3  0  0  0  0  0  0
  193.0770  171.4710  134.7820 C   0  0  0  0  0  3  0  0  0  0  0  0
  193.9800  172.9370  136.2210 C   0  0  0  0  0  3  0  0  0  0  0  0
  192.8120  172.5390  135.6140 C   0  0  0  0  0  0  0  0  0  0  0  0
  194.9670  172.1410  135.7750 N   0  0  0  0  0  0  0  0  0  0  0  0
  198.5940  171.2810  136.1790 C   0  0  0  0  0  3  0  0  0  0  0  0
  197.2500  171.2130  135.7850 C   0  0  0  0  0  3  0  0  0  0  0  0
  198.1590  173.3510  137.3420 C   0  0  0  0  0  0  0  0  0  0  0  0
  196.3480  172.2110  136.1630 C   0  0  0  0  0  0  0  0  0  0  0  0
  198.5980  174.3880  138.0800 F   0  0  0  0  0  0  0  0  0  0  0  0
  196.8170  173.2840  136.9490 C   0  0  0  0  0  3  0  0  0  0  0  0
  199.0470  172.3490  136.9550 C   0  0  0  0  0  3  0  0  0  0  0  0
  1  5  1  0  0  0  0
  3  1  1  0  0  0  0
  3 16  1  1  0  0  0
  4  1  2  0  0  0  0
  6  3  1  0  0  0  0
  7  6  2  0  0  0  0
  7  4  1  0  0  0  0
  8 12  1  1  0  0  0
  8 10  1  0  0  0  0
  9 13  2  0  0  0  0
 10  5  1  6  0  0  0
 10  2  1  0  0  0  0
 11  2  1  0  0  0  0
 12  4  1  0  0  0  0
 13 14  1  0  0  0  0
 14  8  1  0  0  0  0
 14 11  1  0  0  0  0
 16 15  2  0  0  0  0
 16 17  1  0  0  0  0
 17 18  1  0  0  0  0
 19 18  1  6  0  0  0
 19 20  1  0  0  0  0
 19 21  1  0  0  0  0
 20 22  1  1  0  0  0
 20 21  1  0  0  0  0
 24 25  1  1  0  0  0
 25 27  1  0  0  0  0
 26 22  1  6  0  0  0
 26 24  1  0  0  0  0
 26 25  1  0  0  0  0
 27 23  2  0  0  0  0
 27 35  1  0  0  0  0
 28 33  1  0  0  0  0
 28 32  2  0  0  0  0
 30 29  1  0  0  0  0
 31 33  1  6  0  0  0
 31 24  1  0  0  0  0
 31 29  1  0  0  0  0
 32 30  1  0  0  0  0
 35 34  1  0  0  0  0
 36 13  1  0  0  0  0
 36 37  1  0  0  0  0
 37 38  1  0  0  0  0
 38 41  1  0  0  0  0
 39 38  2  0  0  0  0
 41 40  1  1  0  0  0
 41 42  1  0  0  0  0
 41 44  1  0  0  0  0
 44 43  1  6  0  0  0
 45 44  1  0  0  0  0
 45 46  1  0  0  0  0
 46 47  1  0  0  0  0
 48  7  1  0  0  0  0
 49 53  1  0  0  0  0
 50 49  2  0  0  0  0
 50 52  1  0  0  0  0
 52 48  1  0  0  0  0
 52 51  2  0  0  0  0
 53 57  1  0  0  0  0
 53 51  1  0  0  0  0
 54 60  1  0  0  0  0
 55 57  1  0  0  0  0
 55 54  2  0  0  0  0
 56 58  1  0  0  0  0
 57 59  2  0  0  0  0
 59 56  1  0  0  0  0
 60 56  2  0  0  0  0
M  END
>  <MODEL>
7

>  <REMARK>
 VINA RESULT:      -6.3      3.142      9.789
  Name = 
  18 active torsions:
  status: ('A' for Active; 'I' for Inactive)
    1  A    between atoms: C_9  and  C_25
    2  A    between atoms: C_10  and  C_60
    3  A    between atoms: O_12  and  C_48
    4  A    between atoms: C_13  and  C_18
    5  A    between atoms: C_13  and  C_27
    6  A    between atoms: C_15  and  C_24
    7  A    between atoms: C_15  and  C_47
    8  A    between atoms: C_18  and  C_57
    9  A    between atoms: C_20  and  C_42
   10  A    between atoms: C_25  and  S_56
   11  A    between atoms: C_27  and  C_44
   12  A    between atoms: C_28  and  C_29
   13  A    between atoms: C_29  and  C_37
   14  A    between atoms: C_32  and  N_52
   15  A    between atoms: N_40  and  C_50
   16  A    between atoms: C_42  and  S_56
   17  A    between atoms: C_44  and  C_59
   18  A    between atoms: C_59  and  C_60
                            x       y       z     vdW  Elec       q    Type
                         _______ _______ _______ _____ _____    ______ ____

>  <TORSDO>
F 18

$$$$
=
 OpenBabel10232409083D

 60 67  0  0  1  0  0  0  0  0999 V2000
  187.0160  177.8460  142.9070 C   0  0  0  0  0  0  0  0  0  0  0  0
  190.7450  176.8300  143.1280 C   0  0  0  0  0  2  0  0  0  0  0  0
  185.6120  177.5780  143.3390 C   0  0  2  0  0  3  0  0  0  0  0  0
  186.9860  178.4580  141.7250 C   0  0  0  0  0  0  0  0  0  0  0  0
  188.2330  177.1920  143.5210 C   0  0  0  0  0  2  0  0  0  0  0  0
  184.8170  178.0690  142.2160 N   0  0  0  0  0  0  0  0  0  0  0  0
  185.5990  178.5870  141.3360 C   0  0  0  0  0  0  0  0  0  0  0  0
  189.3220  177.4140  141.3000 C   0  0  1  0  0  3  0  0  0  0  0  0
  190.1170  177.3120  138.5200 O   0  0  0  0  0  0  0  0  0  0  0  0
  189.4950  177.6100  142.7830 C   0  0  2  0  0  3  0  0  0  0  0  0
  191.6010  176.9590  141.8700 C   0  0  0  0  0  2  0  0  0  0  0  0
  188.4200  178.8660  140.6950 S   0  0  0  0  0  0  0  0  0  0  0  0
  190.9850  177.0880  139.4030 C   0  0  0  0  0  0  0  0  0  0  0  0
  190.6730  177.2920  140.7910 N   0  0  0  0  0  0  0  0  0  0  0  0
  185.7300  177.9890  145.6660 O   0  0  0  0  0  0  0  0  0  0  0  0
  185.2750  178.3350  144.5840 C   0  0  0  0  0  0  0  0  0  0  0  0
  184.2740  179.8090  144.4770 S   0  0  0  0  0  0  0  0  0  0  0  0
  182.7180  178.8880  144.6490 C   0  0  0  0  0  2  0  0  0  0  0  0
  181.7490  179.2880  143.5590 C   0  0  1  0  0  3  0  0  0  0  0  0
  181.1650  178.0250  142.9610 C   0  0  1  0  0  3  0  0  0  0  0  0
  180.3550  178.8450  143.9430 C   0  0  0  0  0  2  0  0  0  0  0  0
  180.6930  178.3160  141.5500 C   0  0  0  0  0  2  0  0  0  0  0  0
  180.0880  174.8520  140.1900 O   0  0  0  0  0  0  0  0  0  0  0  0
  181.6200  178.1830  139.2550 N   0  0  2  0  0  0  0  0  0  0  0  0
  181.0510  176.8780  139.6130 N   0  0  0  0  0  0  0  0  0  0  0  0
  181.7210  177.7700  140.5510 C   0  0  2  0  0  3  0  0  0  0  0  0
  180.3540  175.6820  139.2840 C   0  0  0  0  0  0  0  0  0  0  0  0
  181.3900  181.4190  138.7940 C   0  0  0  0  0  3  0  0  0  0  0  0
  180.3330  179.1920  137.4100 C   0  0  0  0  0  2  0  0  0  0  0  0
  180.1050  180.6350  136.9530 C   0  0  0  0  0  2  0  0  0  0  0  0
  180.4940  179.0700  138.9430 C   0  0  2  0  0  3  0  0  0  0  0  0
  181.1070  181.5010  137.5400 N   0  0  0  0  0  0  0  0  0  0  0  0
  180.6700  180.4260  139.6620 C   0  0  0  0  0  2  0  0  0  0  0  0
  180.9460  175.3120  136.9260 C   0  0  0  0  0  1  0  0  0  0  0  0
  179.9820  175.4470  137.9600 O   0  0  0  0  0  0  0  0  0  0  0  0
  192.3080  176.5360  138.9870 C   0  0  0  0  0  2  0  0  0  0  0  0
  192.3910  176.5490  137.4770 C   0  0  0  0  0  2  0  0  0  0  0  0
  193.3910  175.5520  136.9890 C   0  0  0  0  0  0  0  0  0  0  0  0
  193.5160  174.5030  137.5990 O   0  0  0  0  0  0  0  0  0  0  0  0
  193.4720  175.1350  134.5570 C   0  0  0  0  0  1  0  0  0  0  0  0
  194.1820  175.8040  135.7250 C   0  0  1  0  0  0  0  0  0  0  0  0
  194.2290  177.1750  135.4600 O   0  0  0  0  0  1  0  0  0  0  0  0
  196.5510  176.3030  135.6920 O   0  0  0  0  0  1  0  0  0  0  0  0
  195.6210  175.2670  135.8200 C   0  0  2  0  0  3  0  0  0  0  0  0
  195.9320  174.1760  134.7900 C   0  0  0  0  0  2  0  0  0  0  0  0
  196.0710  172.8100  135.4400 C   0  0  0  0  0  2  0  0  0  0  0  0
  196.0870  172.9330  136.8300 O   0  0  0  0  0  1  0  0  0  0  0  0
  185.1330  179.0920  140.0060 C   0  0  0  0  0  2  0  0  0  0  0  0
  186.5300  177.1440  137.2550 C   0  0  0  0  0  3  0  0  0  0  0  0
  186.6710  178.1610  138.1820 C   0  0  0  0  0  3  0  0  0  0  0  0
  184.6720  177.1670  138.4050 C   0  0  0  0  0  3  0  0  0  0  0  0
  185.4910  178.1550  138.8980 C   0  0  0  0  0  0  0  0  0  0  0  0
  185.3250  176.5530  137.4030 N   0  0  0  0  0  0  0  0  0  0  0  0
  183.8250  174.6220  134.5610 C   0  0  0  0  0  3  0  0  0  0  0  0
  184.3260  175.6870  135.3230 C   0  0  0  0  0  3  0  0  0  0  0  0
  184.3070  173.0900  136.3620 C   0  0  0  0  0  0  0  0  0  0  0  0
  184.8230  175.4650  136.6110 C   0  0  0  0  0  0  0  0  0  0  0  0
  184.3110  171.8390  136.8590 F   0  0  0  0  0  0  0  0  0  0  0  0
  184.8070  174.1520  137.1250 C   0  0  0  0  0  3  0  0  0  0  0  0
  183.8170  173.3270  135.0800 C   0  0  0  0  0  3  0  0  0  0  0  0
  1  3  1  0  0  0  0
  1  5  1  0  0  0  0
  3 16  1  1  0  0  0
  4  1  2  0  0  0  0
  6  3  1  0  0  0  0
  7  4  1  0  0  0  0
  7  6  2  0  0  0  0
  8 12  1  6  0  0  0
  8 10  1  0  0  0  0
  9 13  2  0  0  0  0
 10  2  1  1  0  0  0
 10  5  1  0  0  0  0
 11  2  1  0  0  0  0
 12  4  1  0  0  0  0
 13 14  1  0  0  0  0
 14  8  1  0  0  0  0
 14 11  1  0  0  0  0
 16 15  2  0  0  0  0
 17 16  1  0  0  0  0
 17 18  1  0  0  0  0
 19 21  1  0  0  0  0
 19 18  1  1  0  0  0
 20 22  1  6  0  0  0
 20 19  1  0  0  0  0
 20 21  1  0  0  0  0
 24 25  1  6  0  0  0
 24 26  1  0  0  0  0
 25 26  1  0  0  0  0
 26 22  1  1  0  0  0
 27 25  1  0  0  0  0
 27 23  2  0  0  0  0
 28 33  1  0  0  0  0
 30 29  1  0  0  0  0
 30 32  1  0  0  0  0
 31 29  1  6  0  0  0
 31 24  1  0  0  0  0
 31 33  1  0  0  0  0
 32 28  2  0  0  0  0
 34 35  1  0  0  0  0
 35 27  1  0  0  0  0
 36 13  1  0  0  0  0
 37 36  1  0  0  0  0
 38 37  1  0  0  0  0
 38 39  2  0  0  0  0
 41 40  1  6  0  0  0
 41 44  1  0  0  0  0
 41 38  1  0  0  0  0
 42 41  1  0  0  0  0
 44 43  1  6  0  0  0
 45 46  1  0  0  0  0
 45 44  1  0  0  0  0
 46 47  1  0  0  0  0
 48  7  1  0  0  0  0
 49 53  1  0  0  0  0
 49 50  2  0  0  0  0
 50 52  1  0  0  0  0
 51 52  2  0  0  0  0
 52 48  1  0  0  0  0
 53 51  1  0  0  0  0
 54 60  2  0  0  0  0
 54 55  1  0  0  0  0
 55 57  2  0  0  0  0
 56 58  1  0  0  0  0
 56 59  2  0  0  0  0
 57 59  1  0  0  0  0
 57 53  1  0  0  0  0
 60 56  1  0  0  0  0
M  END
>  <MODEL>
8

>  <REMARK>
 VINA RESULT:      -6.3      3.629     12.499
  Name = 
  18 active torsions:
  status: ('A' for Active; 'I' for Inactive)
    1  A    between atoms: C_9  and  C_25
    2  A    between atoms: C_10  and  C_60
    3  A    between atoms: O_12  and  C_48
    4  A    between atoms: C_13  and  C_18
    5  A    between atoms: C_13  and  C_27
    6  A    between atoms: C_15  and  C_24
    7  A    between atoms: C_15  and  C_47
    8  A    between atoms: C_18  and  C_57
    9  A    between atoms: C_20  and  C_42
   10  A    between atoms: C_25  and  S_56
   11  A    between atoms: C_27  and  C_44
   12  A    between atoms: C_28  and  C_29
   13  A    between atoms: C_29  and  C_37
   14  A    between atoms: C_32  and  N_52
   15  A    between atoms: N_40  and  C_50
   16  A    between atoms: C_42  and  S_56
   17  A    between atoms: C_44  and  C_59
   18  A    between atoms: C_59  and  C_60
                            x       y       z     vdW  Elec       q    Type
                         _______ _______ _______ _____ _____    ______ ____

>  <TORSDO>
F 18

$$$$
=
 OpenBabel10232409083D

 60 67  0  0  1  0  0  0  0  0999 V2000
  190.5720  176.0270  137.9240 C   0  0  0  0  0  0  0  0  0  0  0  0
  188.0420  178.0180  140.0760 C   0  0  0  0  0  2  0  0  0  0  0  0
  190.8040  174.8860  136.9910 C   0  0  2  0  0  3  0  0  0  0  0  0
  191.7140  176.3000  138.5520 C   0  0  0  0  0  0  0  0  0  0  0  0
  189.2040  176.5140  138.3480 C   0  0  0  0  0  2  0  0  0  0  0  0
  192.2000  174.5340  137.2330 N   0  0  0  0  0  0  0  0  0  0  0  0
  192.7040  175.3540  138.0860 C   0  0  0  0  0  0  0  0  0  0  0  0
  190.2500  177.2040  140.4930 C   0  0  1  0  0  3  0  0  0  0  0  0
  191.6020  177.3990  143.0440 O   0  0  0  0  0  0  0  0  0  0  0  0
  189.3270  177.6250  139.3790 C   0  0  2  0  0  3  0  0  0  0  0  0
  188.5220  178.5820  141.4110 C   0  0  0  0  0  2  0  0  0  0  0  0
  191.9370  177.4950  139.8960 S   0  0  0  0  0  0  0  0  0  0  0  0
  190.4850  177.9610  142.9100 C   0  0  0  0  0  0  0  0  0  0  0  0
  189.8600  178.0310  141.6180 N   0  0  0  0  0  0  0  0  0  0  0  0
  190.8330  176.4560  135.2210 O   0  0  0  0  0  0  0  0  0  0  0  0
  190.6130  175.3030  135.5670 C   0  0  0  0  0  0  0  0  0  0  0  0
  190.1470  174.0870  134.3460 S   0  0  0  0  0  0  0  0  0  0  0  0
  189.0380  173.2150  135.4900 C   0  0  0  0  0  2  0  0  0  0  0  0
  187.5940  173.5190  135.1550 C   0  0  1  0  0  3  0  0  0  0  0  0
  186.8770  173.8720  136.4420 C   0  0  1  0  0  3  0  0  0  0  0  0
  187.3010  174.9650  135.4830 C   0  0  0  0  0  2  0  0  0  0  0  0
  185.3950  173.5980  136.2750 C   0  0  0  0  0  2  0  0  0  0  0  0
  184.8340  177.2970  136.7410 O   0  0  0  0  0  0  0  0  0  0  0  0
  183.2940  173.9350  137.5460 N   0  0  2  0  0  0  0  0  0  0  0  0
  183.8930  175.2460  137.2620 N   0  0  0  0  0  0  0  0  0  0  0  0
  184.6540  174.0360  137.5440 C   0  0  2  0  0  3  0  0  0  0  0  0
  183.7880  176.6260  136.9340 C   0  0  0  0  0  0  0  0  0  0  0  0
  181.4330  171.3390  136.8150 C   0  0  0  0  0  3  0  0  0  0  0  0
  181.2670  174.0820  136.1510 C   0  0  0  0  0  2  0  0  0  0  0  0
  180.2200  173.0580  135.7070 C   0  0  0  0  0  2  0  0  0  0  0  0
  182.6770  173.4670  136.2990 C   0  0  2  0  0  3  0  0  0  0  0  0
  180.2950  171.8810  136.5470 N   0  0  0  0  0  0  0  0  0  0  0  0
  182.6940  171.9230  136.2450 C   0  0  0  0  0  2  0  0  0  0  0  0
  182.1070  177.8940  135.6620 C   0  0  0  0  0  1  0  0  0  0  0  0
  182.5270  177.2140  136.8370 O   0  0  0  0  0  0  0  0  0  0  0  0
  189.7920  178.4810  144.1260 C   0  0  0  0  0  2  0  0  0  0  0  0
  189.1480  177.3240  144.8560 C   0  0  0  0  0  2  0  0  0  0  0  0
  187.6720  177.5210  144.9720 C   0  0  0  0  0  0  0  0  0  0  0  0
  186.9730  177.2880  144.0000 O   0  0  0  0  0  0  0  0  0  0  0  0
  186.4360  176.7060  146.9480 C   0  0  0  0  0  1  0  0  0  0  0  0
  187.0470  177.9330  146.2860 C   0  0  1  0  0  0  0  0  0  0  0  0
  188.0320  178.4280  147.1450 O   0  0  0  0  0  1  0  0  0  0  0  0
  185.8910  179.8420  147.2240 O   0  0  0  0  0  1  0  0  0  0  0  0
  185.9610  179.0070  146.1050 C   0  0  2  0  0  3  0  0  0  0  0  0
  184.5720  178.4260  145.8200 C   0  0  0  0  0  2  0  0  0  0  0  0
  183.8340  179.2240  144.7590 C   0  0  0  0  0  2  0  0  0  0  0  0
  184.7410  179.8950  143.9370 O   0  0  0  0  0  1  0  0  0  0  0  0
  194.0850  175.2250  138.6480 C   0  0  0  0  0  2  0  0  0  0  0  0
  196.0300  173.0030  136.5050 C   0  0  0  0  0  3  0  0  0  0  0  0
  195.4530  174.2420  136.7200 C   0  0  0  0  0  3  0  0  0  0  0  0
  195.0840  172.8900  138.4720 C   0  0  0  0  0  3  0  0  0  0  0  0
  194.8660  174.1490  137.9650 C   0  0  0  0  0  0  0  0  0  0  0  0
  195.8020  172.2010  137.5680 N   0  0  0  0  0  0  0  0  0  0  0  0
  195.8230  168.5340  138.3480 C   0  0  0  0  0  3  0  0  0  0  0  0
  195.3850  169.8590  138.2100 C   0  0  0  0  0  3  0  0  0  0  0  0
  197.9840  169.1460  137.4640 C   0  0  0  0  0  0  0  0  0  0  0  0
  196.2400  170.8390  137.6990 C   0  0  0  0  0  0  0  0  0  0  0  0
  199.2320  168.8010  137.0920 F   0  0  0  0  0  0  0  0  0  0  0  0
  197.5490  170.4690  137.3270 C   0  0  0  0  0  3  0  0  0  0  0  0
  197.1200  168.1790  137.9740 C   0  0  0  0  0  3  0  0  0  0  0  0
  1  5  1  0  0  0  0
  1  4  2  0  0  0  0
  2 11  1  0  0  0  0
  3 16  1  6  0  0  0
  3  6  1  0  0  0  0
  3  1  1  0  0  0  0
  4 12  1  0  0  0  0
  6  7  2  0  0  0  0
  7  4  1  0  0  0  0
  7 48  1  0  0  0  0
  8 12  1  6  0  0  0
  8 14  1  0  0  0  0
 10  5  1  6  0  0  0
 10  2  1  0  0  0  0
 10  8  1  0  0  0  0
 11 14  1  0  0  0  0
 13  9  2  0  0  0  0
 13 36  1  0  0  0  0
 14 13  1  0  0  0  0
 15 16  2  0  0  0  0
 17 18  1  0  0  0  0
 17 16  1  0  0  0  0
 19 21  1  0  0  0  0
 19 18  1  1  0  0  0
 19 20  1  0  0  0  0
 20 22  1  6  0  0  0
 21 20  1  0  0  0  0
 23 27  2  0  0  0  0
 24 25  1  6  0  0  0
 25 26  1  0  0  0  0
 26 22  1  6  0  0  0
 26 24  1  0  0  0  0
 27 25  1  0  0  0  0
 30 29  1  0  0  0  0
 30 32  1  0  0  0  0
 31 29  1  1  0  0  0
 31 24  1  0  0  0  0
 32 28  2  0  0  0  0
 33 31  1  0  0  0  0
 33 28  1  0  0  0  0
 34 35  1  0  0  0  0
 35 27  1  0  0  0  0
 36 37  1  0  0  0  0
 37 38  1  0  0  0  0
 38 41  1  0  0  0  0
 39 38  2  0  0  0  0
 41 40  1  1  0  0  0
 41 42  1  0  0  0  0
 44 41  1  0  0  0  0
 44 43  1  1  0  0  0
 45 44  1  0  0  0  0
 46 45  1  0  0  0  0
 47 46  1  0  0  0  0
 49 50  2  0  0  0  0
 49 53  1  0  0  0  0
 50 52  1  0  0  0  0
 52 51  2  0  0  0  0
 52 48  1  0  0  0  0
 53 57  1  0  0  0  0
 53 51  1  0  0  0  0
 55 54  1  0  0  0  0
 56 60  1  0  0  0  0
 57 55  2  0  0  0  0
 58 56  1  0  0  0  0
 59 56  2  0  0  0  0
 59 57  1  0  0  0  0
 60 54  2  0  0  0  0
M  END
>  <MODEL>
9

>  <REMARK>
 VINA RESULT:      -6.3      3.883     10.666
  Name = 
  18 active torsions:
  status: ('A' for Active; 'I' for Inactive)
    1  A    between atoms: C_9  and  C_25
    2  A    between atoms: C_10  and  C_60
    3  A    between atoms: O_12  and  C_48
    4  A    between atoms: C_13  and  C_18
    5  A    between atoms: C_13  and  C_27
    6  A    between atoms: C_15  and  C_24
    7  A    between atoms: C_15  and  C_47
    8  A    between atoms: C_18  and  C_57
    9  A    between atoms: C_20  and  C_42
   10  A    between atoms: C_25  and  S_56
   11  A    between atoms: C_27  and  C_44
   12  A    between atoms: C_28  and  C_29
   13  A    between atoms: C_29  and  C_37
   14  A    between atoms: C_32  and  N_52
   15  A    between atoms: N_40  and  C_50
   16  A    between atoms: C_42  and  S_56
   17  A    between atoms: C_44  and  C_59
   18  A    between atoms: C_59  and  C_60
                            x       y       z     vdW  Elec       q    Type
                         _______ _______ _______ _____ _____    ______ ____

>  <TORSDO>
F 18

$$$$
