=
 OpenBabel10232408513D

 25 29  0  0  1  0  0  0  0  0999 V2000
  186.7080  177.6830  144.6930 C   0  0  0  0  0  0  0  0  0  0  0  0
  189.1820  176.8480  144.4050 C   0  0  1  0  0  3  0  0  0  0  0  0
  186.5980  177.4180  146.0780 C   0  0  0  0  0  0  0  0  0  0  0  0
  185.6820  178.5220  142.6310 C   0  0  0  0  0  3  0  0  0  0  0  0
  186.7810  178.0830  141.8910 C   0  0  0  0  0  3  0  0  0  0  0  0
  190.3050  177.3460  146.4380 C   0  0  0  0  0  2  0  0  0  0  0  0
  190.3290  175.2440  143.0100 O   0  0  0  0  0  1  0  0  0  0  0  0
  189.0890  177.0080  141.9230 C   0  0  0  0  0  2  0  0  0  0  0  0
  189.9610  176.5860  143.1070 C   0  0  1  0  0  0  0  0  0  0  0  0
  192.0460  177.5000  142.4190 O   0  0  0  0  0  0  0  0  0  0  0  0
  187.8480  177.4930  142.5600 C   0  0  0  0  0  0  0  0  0  0  0  0
  189.8730  177.9120  145.1660 N   0  0  1  0  0  0  0  0  0  0  0  0
  191.1380  177.4550  143.2340 C   0  0  0  0  0  0  0  0  0  0  0  0
  188.2360  176.9620  147.9340 C   0  0  0  0  0  2  0  0  0  0  0  0
  185.5000  177.9010  146.7950 C   0  0  0  0  0  3  0  0  0  0  0  0
  191.0980  178.2780  144.4530 C   0  0  0  0  0  2  0  0  0  0  0  0
  189.3980  177.8070  147.5340 C   0  0  0  0  0  0  0  0  0  0  0  0
  189.6010  178.8720  148.0920 O   0  0  0  0  0  0  0  0  0  0  0  0
  185.6320  178.3430  144.0290 C   0  0  0  0  0  0  0  0  0  0  0  0
  184.4840  178.6040  146.1510 C   0  0  0  0  0  3  0  0  0  0  0  0
  187.5220  176.5530  146.7370 N   0  0  0  0  0  2  0  0  0  0  0  0
  187.8470  177.3330  143.9270 C   0  0  0  0  0  0  0  0  0  0  0  0
  184.5300  178.8120  144.7730 C   0  0  0  0  0  0  0  0  0  0  0  0
  183.4350  179.5170  144.1530 C   0  0  0  0  0  0  0  0  0  0  0  0
  182.5560  180.0820  143.6540 N   0  0  0  0  0  0  0  0  0  0  0  0
  1  3  2  0  0  0  0
  2 22  1  6  0  0  0
  2 12  1  0  0  0  0
  3 21  1  0  0  0  0
  3 15  1  0  0  0  0
  4 19  1  0  0  0  0
  5 11  1  0  0  0  0
  5  4  2  0  0  0  0
  6 17  1  0  0  0  0
  8 11  1  0  0  0  0
  8  9  1  0  0  0  0
  9  7  1  6  0  0  0
  9 13  1  0  0  0  0
  9  2  1  0  0  0  0
 10 13  2  0  0  0  0
 11 22  2  0  0  0  0
 12 16  1  6  0  0  0
 12  6  1  0  0  0  0
 13 16  1  0  0  0  0
 17 14  1  0  0  0  0
 17 18  2  0  0  0  0
 19  1  1  0  0  0  0
 19 23  2  0  0  0  0
 20 15  2  0  0  0  0
 21 14  1  0  0  0  0
 22  1  1  0  0  0  0
 23 20  1  0  0  0  0
 24 23  1  0  0  0  0
 25 24  3  0  0  0  0
M  END
>  <MODEL>
1

>  <REMARK>
 VINA RESULT:      -8.9      0.000      0.000
  Name = 
  1 active torsions:
  status: ('A' for Active; 'I' for Inactive)
    1  A    between atoms: C_4  and  C_25
                            x       y       z     vdW  Elec       q    Type
                         _______ _______ _______ _____ _____    ______ ____

>  <TORSDO>
F 1

$$$$
=
 OpenBabel10232408513D

 25 29  0  0  1  0  0  0  0  0999 V2000
  187.1040  178.4010  142.8780 C   0  0  0  0  0  0  0  0  0  0  0  0
  189.6610  177.8130  143.0030 C   0  0  1  0  0  3  0  0  0  0  0  0
  187.0830  178.7830  141.5170 C   0  0  0  0  0  0  0  0  0  0  0  0
  185.8900  178.0650  144.9810 C   0  0  0  0  0  3  0  0  0  0  0  0
  187.0910  177.8180  145.6490 C   0  0  0  0  0  3  0  0  0  0  0  0
  190.2640  176.9550  140.8720 C   0  0  0  0  0  2  0  0  0  0  0  0
  191.5410  178.4870  144.3630 O   0  0  0  0  0  1  0  0  0  0  0  0
  189.6160  177.5440  145.4770 C   0  0  0  0  0  2  0  0  0  0  0  0
  190.5230  177.5400  144.2450 C   0  0  1  0  0  0  0  0  0  0  0  0
  191.8580  175.6320  144.7340 O   0  0  0  0  0  0  0  0  0  0  0  0
  188.2760  177.8180  144.9210 C   0  0  0  0  0  0  0  0  0  0  0  0
  189.6610  176.6030  142.1510 N   0  0  1  0  0  0  0  0  0  0  0  0
  191.0680  176.1990  143.9940 C   0  0  0  0  0  0  0  0  0  0  0  0
  188.6290  178.4600  139.5570 C   0  0  0  0  0  2  0  0  0  0  0  0
  185.8620  178.9910  140.8700 C   0  0  0  0  0  3  0  0  0  0  0  0
  190.5480  175.6070  142.7520 C   0  0  0  0  0  2  0  0  0  0  0  0
  189.1990  177.1100  139.8330 C   0  0  0  0  0  0  0  0  0  0  0  0
  188.7910  176.1370  139.2220 O   0  0  0  0  0  0  0  0  0  0  0  0
  185.8750  178.3450  143.5990 C   0  0  0  0  0  0  0  0  0  0  0  0
  184.6600  178.8700  141.5640 C   0  0  0  0  0  3  0  0  0  0  0  0
  188.2900  179.0910  140.8200 N   0  0  0  0  0  2  0  0  0  0  0  0
  188.2930  178.0550  143.5650 C   0  0  0  0  0  0  0  0  0  0  0  0
  184.6550  178.5690  142.9260 C   0  0  0  0  0  0  0  0  0  0  0  0
  183.3850  178.4880  143.6030 C   0  0  0  0  0  0  0  0  0  0  0  0
  182.3640  178.4250  144.1470 N   0  0  0  0  0  0  0  0  0  0  0  0
  1 22  2  0  0  0  0
  1 19  1  0  0  0  0
  2 22  1  1  0  0  0
  2  9  1  0  0  0  0
  3  1  1  0  0  0  0
  4  5  1  0  0  0  0
  9  7  1  1  0  0  0
  9  8  1  0  0  0  0
 11  8  1  0  0  0  0
 11  5  2  0  0  0  0
 12  6  1  6  0  0  0
 12 16  1  0  0  0  0
 12  2  1  0  0  0  0
 13  9  1  0  0  0  0
 13 10  2  0  0  0  0
 14 17  1  0  0  0  0
 14 21  1  0  0  0  0
 15  3  2  0  0  0  0
 15 20  1  0  0  0  0
 16 13  1  0  0  0  0
 17  6  1  0  0  0  0
 18 17  2  0  0  0  0
 19  4  2  0  0  0  0
 20 23  2  0  0  0  0
 21  3  1  0  0  0  0
 22 11  1  0  0  0  0
 23 19  1  0  0  0  0
 23 24  1  0  0  0  0
 24 25  3  0  0  0  0
M  END
>  <MODEL>
2

>  <REMARK>
 VINA RESULT:      -8.8      2.052      4.366
  Name = 
  1 active torsions:
  status: ('A' for Active; 'I' for Inactive)
    1  A    between atoms: C_4  and  C_25
                            x       y       z     vdW  Elec       q    Type
                         _______ _______ _______ _____ _____    ______ ____

>  <TORSDO>
F 1

$$$$
=
 OpenBabel10232408513D

 25 29  0  0  1  0  0  0  0  0999 V2000
  186.6050  178.4530  141.3090 C   0  0  0  0  0  0  0  0  0  0  0  0
  187.3300  178.4520  138.7840 C   0  0  1  0  0  3  0  0  0  0  0  0
  185.2830  178.9120  141.1070 C   0  0  0  0  0  0  0  0  0  0  0  0
  188.3530  177.7110  142.8590 C   0  0  0  0  0  3  0  0  0  0  0  0
  189.2860  177.6970  141.8190 C   0  0  0  0  0  3  0  0  0  0  0  0
  185.3940  177.8970  137.5240 C   0  0  0  0  0  2  0  0  0  0  0  0
  189.1070  179.4390  137.4800 O   0  0  0  0  0  1  0  0  0  0  0  0
  189.7180  178.0130  139.3310 C   0  0  0  0  0  2  0  0  0  0  0  0
  188.7390  178.2970  138.1900 C   0  0  1  0  0  0  0  0  0  0  0  0
  189.5090  176.7110  136.5930 O   0  0  0  0  0  0  0  0  0  0  0  0
  188.8620  178.0140  140.5340 C   0  0  0  0  0  0  0  0  0  0  0  0
  186.4880  177.3330  138.3040 N   0  0  1  0  0  0  0  0  0  0  0  0
  188.6090  177.1340  137.3030 C   0  0  0  0  0  0  0  0  0  0  0  0
  183.7450  179.0800  139.1210 C   0  0  0  0  0  2  0  0  0  0  0  0
  184.3660  178.8820  142.1600 C   0  0  0  0  0  3  0  0  0  0  0  0
  187.2710  176.5250  137.3690 C   0  0  0  0  0  2  0  0  0  0  0  0
  184.1330  177.8780  138.3280 C   0  0  0  0  0  0  0  0  0  0  0  0
  183.4300  176.8820  138.3440 O   0  0  0  0  0  0  0  0  0  0  0  0
  187.0110  178.0730  142.6220 C   0  0  0  0  0  0  0  0  0  0  0  0
  184.7520  178.4460  143.4260 C   0  0  0  0  0  3  0  0  0  0  0  0
  184.8990  179.5310  139.8790 N   0  0  0  0  0  2  0  0  0  0  0  0
  187.5520  178.3390  140.2620 C   0  0  0  0  0  0  0  0  0  0  0  0
  186.0690  178.0600  143.6720 C   0  0  0  0  0  0  0  0  0  0  0  0
  186.4230  177.6490  145.0080 C   0  0  0  0  0  0  0  0  0  0  0  0
  186.7060  177.3200  146.0820 N   0  0  0  0  0  0  0  0  0  0  0  0
  1 19  1  0  0  0  0
  2 22  1  1  0  0  0
  3  1  2  0  0  0  0
  3 15  1  0  0  0  0
  5  4  2  0  0  0  0
  6 12  1  0  0  0  0
  6 17  1  0  0  0  0
  8 11  1  0  0  0  0
  9  7  1  6  0  0  0
  9  2  1  0  0  0  0
  9  8  1  0  0  0  0
 10 13  2  0  0  0  0
 11  5  1  0  0  0  0
 12 16  1  6  0  0  0
 12  2  1  0  0  0  0
 13 16  1  0  0  0  0
 13  9  1  0  0  0  0
 14 21  1  0  0  0  0
 15 20  2  0  0  0  0
 17 18  2  0  0  0  0
 17 14  1  0  0  0  0
 19  4  1  0  0  0  0
 19 23  2  0  0  0  0
 20 23  1  0  0  0  0
 21  3  1  0  0  0  0
 22 11  2  0  0  0  0
 22  1  1  0  0  0  0
 23 24  1  0  0  0  0
 24 25  3  0  0  0  0
M  END
>  <MODEL>
3

>  <REMARK>
 VINA RESULT:      -8.4      3.867      6.357
  Name = 
  1 active torsions:
  status: ('A' for Active; 'I' for Inactive)
    1  A    between atoms: C_4  and  C_25
                            x       y       z     vdW  Elec       q    Type
                         _______ _______ _______ _____ _____    ______ ____

>  <TORSDO>
F 1

$$$$
=
 OpenBabel10232408513D

 25 29  0  0  1  0  0  0  0  0999 V2000
  188.3760  177.4030  144.1610 C   0  0  0  0  0  0  0  0  0  0  0  0
  189.1950  176.9480  146.6150 C   0  0  1  0  0  3  0  0  0  0  0  0
  186.9910  177.4370  144.4470 C   0  0  0  0  0  0  0  0  0  0  0  0
  190.1810  177.5820  142.5130 C   0  0  0  0  0  3  0  0  0  0  0  0
  191.1130  177.1790  143.4720 C   0  0  0  0  0  3  0  0  0  0  0  0
  187.6720  178.0640  148.0550 C   0  0  0  0  0  2  0  0  0  0  0  0
  190.5620  175.2890  147.7170 O   0  0  0  0  0  1  0  0  0  0  0  0
  191.5430  176.5370  145.8970 C   0  0  0  0  0  2  0  0  0  0  0  0
  190.5950  176.5380  147.0980 C   0  0  1  0  0  0  0  0  0  0  0  0
  191.9820  177.6110  148.7050 O   0  0  0  0  0  0  0  0  0  0  0  0
  190.6780  176.9380  144.7700 C   0  0  0  0  0  0  0  0  0  0  0  0
  188.8490  178.2540  147.2190 N   0  0  1  0  0  0  0  0  0  0  0  0
  190.9510  177.5980  148.0510 C   0  0  0  0  0  0  0  0  0  0  0  0
  185.6150  177.6820  146.5410 C   0  0  0  0  0  2  0  0  0  0  0  0
  186.0890  177.8770  143.4750 C   0  0  0  0  0  3  0  0  0  0  0  0
  189.9260  178.6510  148.1260 C   0  0  0  0  0  2  0  0  0  0  0  0
  186.4600  178.5980  147.3600 C   0  0  0  0  0  0  0  0  0  0  0  0
  186.1710  179.7790  147.4520 O   0  0  0  0  0  0  0  0  0  0  0  0
  188.8160  177.7110  142.8400 C   0  0  0  0  0  0  0  0  0  0  0  0
  186.5330  178.2410  142.2060 C   0  0  0  0  0  3  0  0  0  0  0  0
  186.4790  176.9050  145.6690 N   0  0  0  0  0  2  0  0  0  0  0  0
  189.3580  177.0870  145.1310 C   0  0  0  0  0  0  0  0  0  0  0  0
  187.8840  178.1440  141.8730 C   0  0  0  0  0  0  0  0  0  0  0  0
  188.2850  178.5020  140.5340 C   0  0  0  0  0  0  0  0  0  0  0  0
  188.6070  178.7880  139.4600 N   0  0  0  0  0  0  0  0  0  0  0  0
  1  3  1  0  0  0  0
  1 22  1  0  0  0  0
  2 22  1  6  0  0  0
  2  9  1  0  0  0  0
  2 12  1  0  0  0  0
  3 21  1  0  0  0  0
  4 19  1  0  0  0  0
  4  5  2  0  0  0  0
  5 11  1  0  0  0  0
  8  9  1  0  0  0  0
  9  7  1  1  0  0  0
  9 13  1  0  0  0  0
 11 22  2  0  0  0  0
 11  8  1  0  0  0  0
 12  6  1  1  0  0  0
 12 16  1  0  0  0  0
 13 16  1  0  0  0  0
 13 10  2  0  0  0  0
 14 17  1  0  0  0  0
 15  3  2  0  0  0  0
 17 18  2  0  0  0  0
 17  6  1  0  0  0  0
 19  1  2  0  0  0  0
 20 15  1  0  0  0  0
 21 14  1  0  0  0  0
 23 20  2  0  0  0  0
 23 19  1  0  0  0  0
 24 23  1  0  0  0  0
 25 24  3  0  0  0  0
M  END
>  <MODEL>
4

>  <REMARK>
 VINA RESULT:      -7.8      2.316      4.078
  Name = 
  1 active torsions:
  status: ('A' for Active; 'I' for Inactive)
    1  A    between atoms: C_4  and  C_25
                            x       y       z     vdW  Elec       q    Type
                         _______ _______ _______ _____ _____    ______ ____

>  <TORSDO>
F 1

$$$$
=
 OpenBabel10232408513D

 25 29  0  0  1  0  0  0  0  0999 V2000
  184.5600  178.8220  143.2480 C   0  0  0  0  0  0  0  0  0  0  0  0
  183.5370  179.1130  140.8470 C   0  0  1  0  0  3  0  0  0  0  0  0
  183.4080  179.2070  143.9720 C   0  0  0  0  0  0  0  0  0  0  0  0
  186.8880  178.0550  143.2650 C   0  0  0  0  0  3  0  0  0  0  0  0
  186.9610  178.2060  141.8780 C   0  0  0  0  0  3  0  0  0  0  0  0
  181.2360  178.5520  141.0190 C   0  0  0  0  0  2  0  0  0  0  0  0
  184.1070  180.3410  138.8460 O   0  0  0  0  0  1  0  0  0  0  0  0
  185.7350  178.7880  139.7240 C   0  0  0  0  0  2  0  0  0  0  0  0
  184.2580  179.1130  139.4900 C   0  0  1  0  0  0  0  0  0  0  0  0
  183.8420  177.7460  137.5890 O   0  0  0  0  0  0  0  0  0  0  0  0
  185.8250  178.6150  141.1880 C   0  0  0  0  0  0  0  0  0  0  0  0
  182.5720  177.9920  140.8700 N   0  0  1  0  0  0  0  0  0  0  0  0
  183.5910  178.0350  138.7490 C   0  0  0  0  0  0  0  0  0  0  0  0
  180.9650  179.4600  143.4210 C   0  0  0  0  0  2  0  0  0  0  0  0
  183.3570  179.0120  145.3550 C   0  0  0  0  0  3  0  0  0  0  0  0
  182.5880  177.3320  139.5640 C   0  0  0  0  0  2  0  0  0  0  0  0
  180.7600  178.3690  142.4250 C   0  0  0  0  0  0  0  0  0  0  0  0
  180.2160  177.3300  142.7580 O   0  0  0  0  0  0  0  0  0  0  0  0
  185.6990  178.3460  143.9630 C   0  0  0  0  0  0  0  0  0  0  0  0
  184.4500  178.4840  146.0400 C   0  0  0  0  0  3  0  0  0  0  0  0
  182.3420  179.9140  143.3390 N   0  0  0  0  0  2  0  0  0  0  0  0
  184.6380  178.8740  141.8350 C   0  0  0  0  0  0  0  0  0  0  0  0
  185.6260  178.1670  145.3610 C   0  0  0  0  0  0  0  0  0  0  0  0
  186.7380  177.6550  146.1230 C   0  0  0  0  0  0  0  0  0  0  0  0
  187.6300  177.2440  146.7350 N   0  0  0  0  0  0  0  0  0  0  0  0
  1 19  1  0  0  0  0
  1  3  2  0  0  0  0
  2 12  1  0  0  0  0
  2 22  1  1  0  0  0
  3 15  1  0  0  0  0
  4 19  1  0  0  0  0
  5  4  2  0  0  0  0
  6 17  1  0  0  0  0
  8 11  1  0  0  0  0
  9  7  1  6  0  0  0
  9  8  1  0  0  0  0
  9  2  1  0  0  0  0
 10 13  2  0  0  0  0
 11 22  2  0  0  0  0
 11  5  1  0  0  0  0
 12 16  1  6  0  0  0
 12  6  1  0  0  0  0
 13  9  1  0  0  0  0
 13 16  1  0  0  0  0
 15 20  2  0  0  0  0
 17 18  2  0  0  0  0
 17 14  1  0  0  0  0
 19 23  2  0  0  0  0
 21 14  1  0  0  0  0
 21  3  1  0  0  0  0
 22  1  1  0  0  0  0
 23 20  1  0  0  0  0
 23 24  1  0  0  0  0
 24 25  3  0  0  0  0
M  END
>  <MODEL>
5

>  <REMARK>
 VINA RESULT:      -7.7      3.952      6.711
  Name = 
  1 active torsions:
  status: ('A' for Active; 'I' for Inactive)
    1  A    between atoms: C_4  and  C_25
                            x       y       z     vdW  Elec       q    Type
                         _______ _______ _______ _____ _____    ______ ____

>  <TORSDO>
F 1

$$$$
=
 OpenBabel10232408513D

 25 29  0  0  1  0  0  0  0  0999 V2000
  187.3850  177.4730  144.8310 C   0  0  0  0  0  0  0  0  0  0  0  0
  186.2990  177.6630  142.4470 C   0  0  1  0  0  3  0  0  0  0  0  0
  188.5040  176.6980  144.4480 C   0  0  0  0  0  0  0  0  0  0  0  0
  186.1400  178.6260  146.6000 C   0  0  0  0  0  3  0  0  0  0  0  0
  185.0900  178.8770  145.7140 C   0  0  0  0  0  3  0  0  0  0  0  0
  188.0910  177.7170  140.8890 C   0  0  0  0  0  2  0  0  0  0  0  0
  184.1510  177.1570  141.4640 O   0  0  0  0  0  1  0  0  0  0  0  0
  184.2100  178.6860  143.3330 C   0  0  0  0  0  2  0  0  0  0  0  0
  184.8980  178.1680  142.0690 C   0  0  1  0  0  0  0  0  0  0  0  0
  184.3070  179.9000  140.5490 O   0  0  0  0  0  0  0  0  0  0  0  0
  185.2160  178.4670  144.3910 C   0  0  0  0  0  0  0  0  0  0  0  0
  187.3070  178.5360  141.8040 N   0  0  1  0  0  0  0  0  0  0  0  0
  185.1730  179.2640  141.1290 C   0  0  0  0  0  0  0  0  0  0  0  0
  189.6240  176.1540  142.2600 C   0  0  0  0  0  2  0  0  0  0  0  0
  189.5530  176.4940  145.3490 C   0  0  0  0  0  3  0  0  0  0  0  0
  186.6130  179.5180  140.9700 C   0  0  0  0  0  2  0  0  0  0  0  0
  189.4270  177.4170  141.4910 C   0  0  0  0  0  0  0  0  0  0  0  0
  190.3490  178.2050  141.3640 O   0  0  0  0  0  0  0  0  0  0  0  0
  187.2960  177.9400  146.1760 C   0  0  0  0  0  0  0  0  0  0  0  0
  189.4890  177.0090  146.6420 C   0  0  0  0  0  3  0  0  0  0  0  0
  188.5260  176.0050  143.2000 N   0  0  0  0  0  2  0  0  0  0  0  0
  186.3450  177.8240  143.9360 C   0  0  0  0  0  0  0  0  0  0  0  0
  188.3640  177.7130  147.0700 C   0  0  0  0  0  0  0  0  0  0  0  0
  188.3360  178.1960  148.4280 C   0  0  0  0  0  0  0  0  0  0  0  0
  188.3140  178.5830  149.5200 N   0  0  0  0  0  0  0  0  0  0  0  0
  1 19  1  0  0  0  0
  2 22  1  1  0  0  0
  3  1  2  0  0  0  0
  3 15  1  0  0  0  0
  5  4  2  0  0  0  0
  6 17  1  0  0  0  0
  8 11  1  0  0  0  0
  9  7  1  6  0  0  0
  9  2  1  0  0  0  0
  9  8  1  0  0  0  0
 10 13  2  0  0  0  0
 11  5  1  0  0  0  0
 12  6  1  6  0  0  0
 12  2  1  0  0  0  0
 13  9  1  0  0  0  0
 14 21  1  0  0  0  0
 15 20  2  0  0  0  0
 16 13  1  0  0  0  0
 16 12  1  0  0  0  0
 17 14  1  0  0  0  0
 18 17  2  0  0  0  0
 19  4  1  0  0  0  0
 19 23  2  0  0  0  0
 20 23  1  0  0  0  0
 21  3  1  0  0  0  0
 22 11  2  0  0  0  0
 22  1  1  0  0  0  0
 23 24  1  0  0  0  0
 24 25  3  0  0  0  0
M  END
>  <MODEL>
6

>  <REMARK>
 VINA RESULT:      -6.9      2.654      5.264
  Name = 
  1 active torsions:
  status: ('A' for Active; 'I' for Inactive)
    1  A    between atoms: C_4  and  C_25
                            x       y       z     vdW  Elec       q    Type
                         _______ _______ _______ _____ _____    ______ ____

>  <TORSDO>
F 1

$$$$
=
 OpenBabel10232408513D

 25 29  0  0  1  0  0  0  0  0999 V2000
  187.5460  178.0490  140.1640 C   0  0  0  0  0  0  0  0  0  0  0  0
  187.7390  177.7170  137.5650 C   0  0  1  0  0  3  0  0  0  0  0  0
  186.2330  178.5740  140.1720 C   0  0  0  0  0  0  0  0  0  0  0  0
  189.5380  177.3650  141.4170 C   0  0  0  0  0  3  0  0  0  0  0  0
  190.2380  177.1710  140.2240 C   0  0  0  0  0  3  0  0  0  0  0  0
  185.5630  177.1610  136.7910 C   0  0  0  0  0  2  0  0  0  0  0  0
  189.2550  178.4270  135.8240 O   0  0  0  0  0  1  0  0  0  0  0  0
  190.1660  177.1770  137.6790 C   0  0  0  0  0  2  0  0  0  0  0  0
  188.9880  177.4000  136.7290 C   0  0  1  0  0  0  0  0  0  0  0  0
  189.3430  175.5970  135.2180 O   0  0  0  0  0  0  0  0  0  0  0  0
  189.5740  177.3710  139.0180 C   0  0  0  0  0  0  0  0  0  0  0  0
  186.7670  176.6130  137.4020 N   0  0  1  0  0  0  0  0  0  0  0  0
  188.6270  176.1570  136.0340 C   0  0  0  0  0  0  0  0  0  0  0  0
  184.3310  178.6260  138.5240 C   0  0  0  0  0  2  0  0  0  0  0  0
  185.5500  178.7240  141.3820 C   0  0  0  0  0  3  0  0  0  0  0  0
  187.3050  175.6530  136.4380 C   0  0  0  0  0  2  0  0  0  0  0  0
  184.4940  177.3190  137.8240 C   0  0  0  0  0  0  0  0  0  0  0  0
  183.7650  176.3820  138.1010 O   0  0  0  0  0  0  0  0  0  0  0  0
  188.1940  177.7910  141.4070 C   0  0  0  0  0  0  0  0  0  0  0  0
  186.1660  178.4060  142.5900 C   0  0  0  0  0  3  0  0  0  0  0  0
  185.6340  179.0780  138.9780 N   0  0  0  0  0  2  0  0  0  0  0  0
  188.2530  177.7540  138.9730 C   0  0  0  0  0  0  0  0  0  0  0  0
  187.4870  177.9600  142.6160 C   0  0  0  0  0  0  0  0  0  0  0  0
  188.0870  177.6760  143.8970 C   0  0  0  0  0  0  0  0  0  0  0  0
  188.5690  177.4490  144.9250 N   0  0  0  0  0  0  0  0  0  0  0  0
  1  3  2  0  0  0  0
  1 19  1  0  0  0  0
  2 22  1  1  0  0  0
  3 15  1  0  0  0  0
  5  4  2  0  0  0  0
  6 12  1  0  0  0  0
  6 17  1  0  0  0  0
  8 11  1  0  0  0  0
  9  7  1  6  0  0  0
  9  2  1  0  0  0  0
  9  8  1  0  0  0  0
 10 13  2  0  0  0  0
 11  5  1  0  0  0  0
 12 16  1  6  0  0  0
 12  2  1  0  0  0  0
 13 16  1  0  0  0  0
 13  9  1  0  0  0  0
 14 21  1  0  0  0  0
 15 20  2  0  0  0  0
 17 18  2  0  0  0  0
 17 14  1  0  0  0  0
 19  4  1  0  0  0  0
 19 23  2  0  0  0  0
 20 23  1  0  0  0  0
 21  3  1  0  0  0  0
 22 11  2  0  0  0  0
 22  1  1  0  0  0  0
 23 24  1  0  0  0  0
 24 25  3  0  0  0  0
M  END
>  <MODEL>
7

>  <REMARK>
 VINA RESULT:      -6.8      4.584      7.154
  Name = 
  1 active torsions:
  status: ('A' for Active; 'I' for Inactive)
    1  A    between atoms: C_4  and  C_25
                            x       y       z     vdW  Elec       q    Type
                         _______ _______ _______ _____ _____    ______ ____

>  <TORSDO>
F 1

$$$$
=
 OpenBabel10232408513D

 25 29  0  0  1  0  0  0  0  0999 V2000
  186.6970  177.8900  142.4740 C   0  0  0  0  0  0  0  0  0  0  0  0
  188.8500  177.0760  143.7400 C   0  0  1  0  0  3  0  0  0  0  0  0
  185.7920  177.7150  143.5470 C   0  0  0  0  0  0  0  0  0  0  0  0
  187.0910  178.5770  140.1550 C   0  0  0  0  0  3  0  0  0  0  0  0
  188.4040  178.1070  140.2260 C   0  0  0  0  0  3  0  0  0  0  0  0
  188.5870  177.7230  146.0100 C   0  0  0  0  0  2  0  0  0  0  0  0
  190.5540  175.4020  143.3820 O   0  0  0  0  0  1  0  0  0  0  0  0
  190.2290  177.0720  141.6680 C   0  0  0  0  0  2  0  0  0  0  0  0
  190.2330  176.7410  143.1610 C   0  0  1  0  0  0  0  0  0  0  0  0
  192.3510  177.6400  143.7670 O   0  0  0  0  0  0  0  0  0  0  0  0
  188.8630  177.5790  141.4280 C   0  0  0  0  0  0  0  0  0  0  0  0
  188.9940  178.1980  144.6940 N   0  0  1  0  0  0  0  0  0  0  0  0
  191.1370  177.6350  143.8990 C   0  0  0  0  0  0  0  0  0  0  0  0
  186.0240  177.4070  146.0350 C   0  0  0  0  0  2  0  0  0  0  0  0
  184.4950  178.2280  143.4560 C   0  0  0  0  0  3  0  0  0  0  0  0
  190.4130  178.5350  144.8100 C   0  0  0  0  0  2  0  0  0  0  0  0
  187.2220  178.2410  146.3380 C   0  0  0  0  0  0  0  0  0  0  0  0
  187.0890  179.3430  146.8420 O   0  0  0  0  0  0  0  0  0  0  0  0
  186.2300  178.4890  141.2670 C   0  0  0  0  0  0  0  0  0  0  0  0
  184.0650  178.8710  142.2970 C   0  0  0  0  0  3  0  0  0  0  0  0
  186.1340  176.9090  144.6750 N   0  0  0  0  0  2  0  0  0  0  0  0
  188.0590  177.5090  142.5430 C   0  0  0  0  0  0  0  0  0  0  0  0
  184.9130  178.9900  141.1960 C   0  0  0  0  0  0  0  0  0  0  0  0
  184.4060  179.6360  140.0100 C   0  0  0  0  0  0  0  0  0  0  0  0
  184.0000  180.1550  139.0580 N   0  0  0  0  0  0  0  0  0  0  0  0
  1 22  1  0  0  0  0
  1  3  2  0  0  0  0
  2 22  1  6  0  0  0
  2 12  1  0  0  0  0
  3 21  1  0  0  0  0
  4  5  2  0  0  0  0
  4 19  1  0  0  0  0
  5 11  1  0  0  0  0
  6 17  1  0  0  0  0
  8  9  1  0  0  0  0
  9  7  1  1  0  0  0
  9  2  1  0  0  0  0
  9 13  1  0  0  0  0
 10 13  2  0  0  0  0
 11  8  1  0  0  0  0
 11 22  2  0  0  0  0
 12 16  1  1  0  0  0
 12  6  1  0  0  0  0
 13 16  1  0  0  0  0
 14 17  1  0  0  0  0
 15  3  1  0  0  0  0
 17 18  2  0  0  0  0
 19  1  1  0  0  0  0
 20 15  2  0  0  0  0
 21 14  1  0  0  0  0
 23 19  2  0  0  0  0
 23 20  1  0  0  0  0
 24 23  1  0  0  0  0
 25 24  3  0  0  0  0
M  END
>  <MODEL>
8

>  <REMARK>
 VINA RESULT:      -6.7      1.744      2.520
  Name = 
  1 active torsions:
  status: ('A' for Active; 'I' for Inactive)
    1  A    between atoms: C_4  and  C_25
                            x       y       z     vdW  Elec       q    Type
                         _______ _______ _______ _____ _____    ______ ____

>  <TORSDO>
F 1

$$$$
=
 OpenBabel10232408513D

 25 29  0  0  1  0  0  0  0  0999 V2000
  189.0940  177.1320  143.8560 C   0  0  0  0  0  0  0  0  0  0  0  0
  187.9690  177.1750  146.2290 C   0  0  1  0  0  3  0  0  0  0  0  0
  187.8990  177.1310  143.1010 C   0  0  0  0  0  0  0  0  0  0  0  0
  191.5450  177.1230  143.9030 C   0  0  0  0  0  3  0  0  0  0  0  0
  191.5300  176.9560  145.2890 C   0  0  0  0  0  3  0  0  0  0  0  0
  185.9690  178.4360  146.0070 C   0  0  0  0  0  2  0  0  0  0  0  0
  188.0700  175.8280  148.2310 O   0  0  0  0  0  1  0  0  0  0  0  0
  190.1280  176.7870  147.4070 C   0  0  0  0  0  2  0  0  0  0  0  0
  188.6190  176.9460  147.6030 C   0  0  1  0  0  0  0  0  0  0  0  0
  188.6060  178.3720  149.5060 O   0  0  0  0  0  0  0  0  0  0  0  0
  190.3060  176.9260  145.9480 C   0  0  0  0  0  0  0  0  0  0  0  0
  187.4090  178.5450  146.1930 N   0  0  1  0  0  0  0  0  0  0  0  0
  188.3070  178.1780  148.3380 C   0  0  0  0  0  0  0  0  0  0  0  0
  185.4880  177.6630  143.5900 C   0  0  0  0  0  2  0  0  0  0  0  0
  187.9470  177.3340  141.7180 C   0  0  0  0  0  3  0  0  0  0  0  0
  187.5990  179.1630  147.5050 C   0  0  0  0  0  2  0  0  0  0  0  0
  185.6120  178.7610  144.5920 C   0  0  0  0  0  0  0  0  0  0  0  0
  185.4330  179.9200  144.2550 O   0  0  0  0  0  0  0  0  0  0  0  0
  190.3430  177.2240  143.1730 C   0  0  0  0  0  0  0  0  0  0  0  0
  189.1680  177.4910  141.0660 C   0  0  0  0  0  3  0  0  0  0  0  0
  186.6480  176.7970  143.7010 N   0  0  0  0  0  2  0  0  0  0  0  0
  189.1150  177.0550  145.2700 C   0  0  0  0  0  0  0  0  0  0  0  0
  190.3660  177.4190  141.7760 C   0  0  0  0  0  0  0  0  0  0  0  0
  191.6030  177.5550  141.0460 C   0  0  0  0  0  0  0  0  0  0  0  0
  192.5950  177.6630  140.4590 N   0  0  0  0  0  0  0  0  0  0  0  0
  1 22  1  0  0  0  0
  2 22  1  6  0  0  0
  2  9  1  0  0  0  0
  3 21  1  0  0  0  0
  3  1  1  0  0  0  0
  4  5  2  0  0  0  0
  5 11  1  0  0  0  0
  8  9  1  0  0  0  0
  9  7  1  1  0  0  0
  9 13  1  0  0  0  0
 11  8  1  0  0  0  0
 12  6  1  1  0  0  0
 12  2  1  0  0  0  0
 12 16  1  0  0  0  0
 13 10  2  0  0  0  0
 14 21  1  0  0  0  0
 14 17  1  0  0  0  0
 15  3  2  0  0  0  0
 16 13  1  0  0  0  0
 17  6  1  0  0  0  0
 18 17  2  0  0  0  0
 19  1  2  0  0  0  0
 19  4  1  0  0  0  0
 20 15  1  0  0  0  0
 20 23  2  0  0  0  0
 22 11  2  0  0  0  0
 23 19  1  0  0  0  0
 24 23  1  0  0  0  0
 25 24  3  0  0  0  0
M  END
>  <MODEL>
9

>  <REMARK>
 VINA RESULT:      -6.7      2.477      5.628
  Name = 
  1 active torsions:
  status: ('A' for Active; 'I' for Inactive)
    1  A    between atoms: C_4  and  C_25
                            x       y       z     vdW  Elec       q    Type
                         _______ _______ _______ _____ _____    ______ ____

>  <TORSDO>
F 1

$$$$
