=
 OpenBabel10232412033D

 42 46  0  0  1  0  0  0  0  0999 V2000
  184.0660  178.5120  143.0320 C   0  0  1  0  0  3  0  0  0  0  0  0
  188.0630  178.3160  140.6330 O   0  0  0  0  0  0  0  0  0  0  0  0
  187.9430  177.1060  137.0680 C   0  0  0  0  0  0  0  0  0  0  0  0
  187.4540  178.0050  139.4030 C   0  0  0  0  0  0  0  0  0  0  0  0
  186.1640  178.2250  139.3060 C   0  0  0  0  0  3  0  0  0  0  0  0
  182.6860  178.6350  141.0370 C   0  0  0  0  0  0  0  0  0  0  0  0
  186.6430  177.3080  136.4850 N   0  0  0  0  0  0  0  0  0  0  0  0
  182.8510  178.8980  142.2980 N   0  0  0  0  0  0  0  0  0  0  0  0
  185.3580  177.5910  137.0560 C   0  0  0  0  0  3  0  0  0  0  0  0
  186.1710  178.3320  142.2390 C   0  0  0  0  0  2  0  0  0  0  0  0
  183.7070  177.9850  140.3060 N   0  0  0  0  0  2  0  0  0  0  0  0
  181.5320  179.1210  140.2680 C   0  0  0  0  0  3  0  0  0  0  0  0
  188.2660  177.4130  138.3350 C   0  0  0  0  0  2  0  0  0  0  0  0
  185.1410  177.9600  138.3130 C   0  0  0  0  0  0  0  0  0  0  0  0
  187.4090  179.0580  141.6810 C   0  0  0  0  0  2  0  0  0  0  0  0
  182.7650  178.6820  138.2320 C   0  0  0  0  0  3  0  0  0  0  0  0
  185.1740  179.2620  142.5850 O   0  0  0  0  0  0  0  0  0  0  0  0
  181.5880  179.1070  138.9610 N   0  0  0  0  0  0  0  0  0  0  0  0
  183.8010  178.1410  138.8890 C   0  0  0  0  0  0  0  0  0  0  0  0
  188.8760  176.7540  134.8840 F   0  0  0  0  0  0  0  0  0  0  0  0
  188.9630  176.5550  136.2180 N   0  0  0  0  0  0  0  0  0  0  0  0
  190.1230  174.4520  135.7790 C   0  0  0  0  0  2  0  0  0  0  0  0
  191.3200  176.3510  136.8600 C   0  0  0  0  0  2  0  0  0  0  0  0
  192.3520  174.0480  136.8290 C   0  0  0  0  0  0  0  0  0  0  0  0
  193.3860  173.3330  136.8760 O   0  0  0  0  0  0  0  0  0  0  0  0
  192.3820  175.4280  137.2590 N   0  0  0  0  0  0  0  0  0  0  0  0
  193.5100  176.0050  137.9290 C   0  0  0  0  0  3  0  0  0  0  0  0
  189.9780  175.6360  136.7240 C   0  0  1  0  0  3  0  0  0  0  0  0
  191.0670  173.4190  136.3810 C   0  0  0  0  0  2  0  0  0  0  0  0
  194.5040  175.3120  138.2740 O   0  0  0  0  0  0  0  0  0  0  0  0
  183.8360  178.7570  144.5180 C   0  0  0  0  0  2  0  0  0  0  0  0
  185.1280  179.0960  145.2440 C   0  0  0  0  0  2  0  0  0  0  0  0
  185.1970  178.3600  146.5680 C   0  0  0  0  0  2  0  0  0  0  0  0
  186.5810  178.5200  147.1680 C   0  0  0  0  0  2  0  0  0  0  0  0
  187.2820  177.3150  147.0690 O   0  0  0  0  0  0  0  0  0  0  0  0
  189.5710  177.2610  144.2790 C   0  0  0  0  0  3  0  0  0  0  0  0
  188.4970  177.6460  146.4630 C   0  0  2  0  0  3  0  0  0  0  0  0
  190.9240  177.0030  146.3380 C   0  0  0  0  0  0  0  0  0  0  0  0
  191.9890  176.6800  146.8400 O   0  0  0  0  0  0  0  0  0  0  0  0
  188.4400  177.3120  144.9950 C   0  0  0  0  0  3  0  0  0  0  0  0
  189.6530  176.9060  147.1490 C   0  0  0  0  0  2  0  0  0  0  0  0
  190.9020  177.5330  144.9270 C   0  0  0  0  0  2  0  0  0  0  0  0
  1 31  1  1  0  0  0
  2 15  1  0  0  0  0
  3 13  1  0  0  0  0
  4  2  1  0  0  0  0
  5  4  2  0  0  0  0
  6  8  2  0  0  0  0
  7  9  1  0  0  0  0
  7  3  2  0  0  0  0
  8  1  1  0  0  0  0
  9 14  2  0  0  0  0
 10 17  1  0  0  0  0
 11  6  1  0  0  0  0
 12  6  1  0  0  0  0
 13  4  1  0  0  0  0
 14 19  1  0  0  0  0
 14  5  1  0  0  0  0
 15 10  1  0  0  0  0
 16 19  2  0  0  0  0
 16 18  1  0  0  0  0
 17  1  1  0  0  0  0
 18 12  2  0  0  0  0
 19 11  1  0  0  0  0
 20 21  1  0  0  0  0
 21  3  1  0  0  0  0
 22 29  1  0  0  0  0
 22 28  1  0  0  0  0
 23 26  1  0  0  0  0
 24 25  2  0  0  0  0
 24 26  1  0  0  0  0
 26 27  1  0  0  0  0
 27 30  2  0  0  0  0
 28 21  1  6  0  0  0
 28 23  1  0  0  0  0
 29 24  1  0  0  0  0
 31 32  1  0  0  0  0
 32 33  1  0  0  0  0
 33 34  1  0  0  0  0
 35 34  1  0  0  0  0
 36 42  1  0  0  0  0
 36 40  2  0  0  0  0
 37 35  1  1  0  0  0
 37 41  1  0  0  0  0
 38 39  2  0  0  0  0
 38 41  1  0  0  0  0
 40 37  1  0  0  0  0
 42 38  1  0  0  0  0
M  END
>  <MODEL>
1

>  <REMARK>
 VINA RESULT:      -9.4      0.000      0.000
  Name = 
  8 active torsions:
  status: ('A' for Active; 'I' for Inactive)
    1  A    between atoms: C_2  and  C_20
    2  A    between atoms: C_4  and  O_33
    3  A    between atoms: C_5  and  N_27
    4  A    between atoms: C_12  and  O_33
    5  A    between atoms: C_12  and  C_37
    6  A    between atoms: C_20  and  C_24
    7  A    between atoms: C_24  and  C_37
    8  A    between atoms: N_27  and  C_34
                            x       y       z     vdW  Elec       q    Type
                         _______ _______ _______ _____ _____    ______ ____

>  <TORSDO>
F 8

$$$$
=
 OpenBabel10232412033D

 42 46  0  0  1  0  0  0  0  0999 V2000
  189.4450  176.9170  143.9440 C   0  0  1  0  0  3  0  0  0  0  0  0
  186.1590  178.6220  141.1040 O   0  0  0  0  0  0  0  0  0  0  0  0
  182.6380  178.8890  142.4120 C   0  0  0  0  0  0  0  0  0  0  0  0
  185.1570  178.6740  142.0910 C   0  0  0  0  0  0  0  0  0  0  0  0
  185.5500  178.5990  143.3410 C   0  0  0  0  0  3  0  0  0  0  0  0
  188.2130  177.4650  145.9630 C   0  0  0  0  0  0  0  0  0  0  0  0
  182.6130  178.9830  143.8480 N   0  0  0  0  0  2  0  0  0  0  0  0
  189.3500  177.2530  145.3720 N   0  0  0  0  0  0  0  0  0  0  0  0
  183.5980  178.7080  144.8540 C   0  0  0  0  0  3  0  0  0  0  0  0
  188.0790  177.5660  142.2690 C   0  0  0  0  0  2  0  0  0  0  0  0
  187.0070  177.4120  145.2270 N   0  0  0  0  0  2  0  0  0  0  0  0
  188.1150  177.9190  147.3570 C   0  0  0  0  0  3  0  0  0  0  0  0
  183.7530  178.7520  141.6770 C   0  0  0  0  0  3  0  0  0  0  0  0
  184.8890  178.5000  144.6280 C   0  0  0  0  0  0  0  0  0  0  0  0
  187.5680  178.7240  141.3920 C   0  0  0  0  0  2  0  0  0  0  0  0
  185.8360  178.6070  146.9230 C   0  0  0  0  0  3  0  0  0  0  0  0
  189.0760  178.0220  143.1490 O   0  0  0  0  0  0  0  0  0  0  0  0
  186.9850  178.4240  147.7830 N   0  0  0  0  0  0  0  0  0  0  0  0
  185.8490  178.1190  145.6740 C   0  0  0  0  0  0  0  0  0  0  0  0
  180.2670  179.2690  142.4430 F   0  0  0  0  0  0  0  0  0  0  0  0
  181.3750  178.9700  141.7290 N   0  0  0  0  0  0  0  0  0  0  0  0
  181.7090  179.6620  139.4110 C   0  0  0  0  0  2  0  0  0  0  0  0
  182.0120  177.2800  140.0730 C   0  0  0  0  0  2  0  0  0  0  0  0
  181.8930  177.9190  137.6340 C   0  0  0  0  0  0  0  0  0  0  0  0
  182.1770  177.6520  136.4380 O   0  0  0  0  0  0  0  0  0  0  0  0
  181.9670  176.9030  138.6600 N   0  0  0  0  0  0  0  0  0  0  0  0
  182.1780  175.5170  138.3630 C   0  0  0  0  0  3  0  0  0  0  0  0
  181.2210  178.5570  140.3380 C   0  0  1  0  0  3  0  0  0  0  0  0
  181.4060  179.2980  137.9640 C   0  0  0  0  0  2  0  0  0  0  0  0
  182.2080  175.0890  137.1780 O   0  0  0  0  0  0  0  0  0  0  0  0
  190.8790  176.5070  143.6330 C   0  0  0  0  0  2  0  0  0  0  0  0
  191.6370  177.6020  142.8990 C   0  0  0  0  0  2  0  0  0  0  0  0
  192.1590  177.0820  141.5740 C   0  0  0  0  0  2  0  0  0  0  0  0
  191.1600  177.3920  140.4760 C   0  0  0  0  0  2  0  0  0  0  0  0
  190.6270  176.2020  139.9730 O   0  0  0  0  0  0  0  0  0  0  0  0
  190.2470  176.5980  136.4050 C   0  0  0  0  0  3  0  0  0  0  0  0
  189.8940  176.5770  138.8430 C   0  0  2  0  0  3  0  0  0  0  0  0
  189.1820  178.5610  137.4750 C   0  0  0  0  0  0  0  0  0  0  0  0
  188.7500  179.6970  137.3510 O   0  0  0  0  0  0  0  0  0  0  0  0
  190.5970  176.1020  137.5990 C   0  0  0  0  0  3  0  0  0  0  0  0
  189.6990  178.0990  138.8170 C   0  0  0  0  0  2  0  0  0  0  0  0
  189.1550  177.6270  136.2920 C   0  0  0  0  0  2  0  0  0  0  0  0
  1 31  1  6  0  0  0
  1  8  1  0  0  0  0
  2 15  1  0  0  0  0
  2  4  1  0  0  0  0
  3  7  1  0  0  0  0
  4  5  2  0  0  0  0
  5 14  1  0  0  0  0
  6 12  1  0  0  0  0
  7  9  1  0  0  0  0
  8  6  2  0  0  0  0
 10 17  1  0  0  0  0
 11 19  1  0  0  0  0
 11  6  1  0  0  0  0
 12 18  2  0  0  0  0
 13  4  1  0  0  0  0
 13  3  2  0  0  0  0
 14  9  2  0  0  0  0
 14 19  1  0  0  0  0
 15 10  1  0  0  0  0
 16 18  1  0  0  0  0
 17  1  1  0  0  0  0
 19 16  2  0  0  0  0
 21  3  1  0  0  0  0
 21 20  1  0  0  0  0
 22 28  1  0  0  0  0
 23 28  1  0  0  0  0
 24 29  1  0  0  0  0
 24 26  1  0  0  0  0
 25 24  2  0  0  0  0
 26 23  1  0  0  0  0
 27 26  1  0  0  0  0
 28 21  1  1  0  0  0
 29 22  1  0  0  0  0
 30 27  2  0  0  0  0
 32 31  1  0  0  0  0
 33 32  1  0  0  0  0
 34 33  1  0  0  0  0
 35 34  1  0  0  0  0
 36 40  2  0  0  0  0
 37 35  1  1  0  0  0
 38 41  1  0  0  0  0
 39 38  2  0  0  0  0
 40 37  1  0  0  0  0
 41 37  1  0  0  0  0
 42 36  1  0  0  0  0
 42 38  1  0  0  0  0
M  END
>  <MODEL>
2

>  <REMARK>
 VINA RESULT:      -9.2      3.481      8.469
  Name = 
  8 active torsions:
  status: ('A' for Active; 'I' for Inactive)
    1  A    between atoms: C_2  and  C_20
    2  A    between atoms: C_4  and  O_33
    3  A    between atoms: C_5  and  N_27
    4  A    between atoms: C_12  and  O_33
    5  A    between atoms: C_12  and  C_37
    6  A    between atoms: C_20  and  C_24
    7  A    between atoms: C_24  and  C_37
    8  A    between atoms: N_27  and  C_34
                            x       y       z     vdW  Elec       q    Type
                         _______ _______ _______ _____ _____    ______ ____

>  <TORSDO>
F 8

$$$$
=
 OpenBabel10232412033D

 42 46  0  0  1  0  0  0  0  0999 V2000
  188.6210  177.4720  144.0060 C   0  0  1  0  0  3  0  0  0  0  0  0
  186.0260  178.5070  140.2690 O   0  0  0  0  0  0  0  0  0  0  0  0
  182.2780  178.4720  140.6380 C   0  0  0  0  0  0  0  0  0  0  0  0
  184.8040  178.5290  140.9690 C   0  0  0  0  0  0  0  0  0  0  0  0
  184.8700  178.6160  142.2760 C   0  0  0  0  0  3  0  0  0  0  0  0
  186.8690  178.0530  145.5850 C   0  0  0  0  0  0  0  0  0  0  0  0
  181.8790  178.6940  142.0030 N   0  0  0  0  0  2  0  0  0  0  0  0
  188.1340  177.9240  145.3180 N   0  0  0  0  0  0  0  0  0  0  0  0
  182.5950  178.6300  143.2440 C   0  0  0  0  0  3  0  0  0  0  0  0
  187.6730  177.7980  141.9830 C   0  0  0  0  0  2  0  0  0  0  0  0
  185.9010  177.7890  144.5880 N   0  0  0  0  0  2  0  0  0  0  0  0
  186.3770  178.6180  146.8490 C   0  0  0  0  0  3  0  0  0  0  0  0
  183.5510  178.4010  140.2190 C   0  0  0  0  0  3  0  0  0  0  0  0
  183.9150  178.5580  143.3660 C   0  0  0  0  0  0  0  0  0  0  0  0
  187.2980  178.8020  140.8780 C   0  0  0  0  0  2  0  0  0  0  0  0
  184.2310  178.9870  145.7930 C   0  0  0  0  0  3  0  0  0  0  0  0
  188.3670  178.4490  143.0200 O   0  0  0  0  0  0  0  0  0  0  0  0
  185.1340  179.0210  146.9230 N   0  0  0  0  0  0  0  0  0  0  0  0
  184.6070  178.3920  144.6520 C   0  0  0  0  0  0  0  0  0  0  0  0
  180.7750  177.1020  139.3610 F   0  0  0  0  0  0  0  0  0  0  0  0
  181.2290  178.3390  139.6630 N   0  0  0  0  0  0  0  0  0  0  0  0
  181.3010  180.7700  139.4450 C   0  0  0  0  0  2  0  0  0  0  0  0
  181.2580  179.3210  137.4190 C   0  0  0  0  0  2  0  0  0  0  0  0
  180.8620  181.8050  137.2170 C   0  0  0  0  0  0  0  0  0  0  0  0
  180.8910  182.8440  136.5070 O   0  0  0  0  0  0  0  0  0  0  0  0
  180.9130  180.4920  136.6130 N   0  0  0  0  0  0  0  0  0  0  0  0
  180.8100  180.2860  135.1990 C   0  0  0  0  0  3  0  0  0  0  0  0
  180.7740  179.4680  138.8580 C   0  0  1  0  0  3  0  0  0  0  0  0
  180.7020  181.9550  138.6990 C   0  0  0  0  0  2  0  0  0  0  0  0
  180.5650  181.2340  134.4060 O   0  0  0  0  0  0  0  0  0  0  0  0
  190.1180  177.2100  144.1060 C   0  0  0  0  0  2  0  0  0  0  0  0
  190.9150  178.1000  143.1660 C   0  0  0  0  0  2  0  0  0  0  0  0
  191.7160  177.2560  142.1940 C   0  0  0  0  0  2  0  0  0  0  0  0
  191.1600  177.4270  140.7930 C   0  0  0  0  0  2  0  0  0  0  0  0
  190.6470  176.2100  140.3360 O   0  0  0  0  0  0  0  0  0  0  0  0
  190.6350  176.4660  136.7350 C   0  0  0  0  0  3  0  0  0  0  0  0
  190.0220  176.5080  139.1210 C   0  0  2  0  0  3  0  0  0  0  0  0
  189.3670  178.4060  137.6090 C   0  0  0  0  0  0  0  0  0  0  0  0
  188.8960  179.5120  137.3970 O   0  0  0  0  0  0  0  0  0  0  0  0
  190.8780  176.0300  137.9780 C   0  0  0  0  0  3  0  0  0  0  0  0
  189.7580  178.0160  139.0150 C   0  0  0  0  0  2  0  0  0  0  0  0
  189.5130  177.4320  136.4680 C   0  0  0  0  0  2  0  0  0  0  0  0
  1 31  1  1  0  0  0
  1  8  1  0  0  0  0
  2 15  1  0  0  0  0
  2  4  1  0  0  0  0
  3  7  1  0  0  0  0
  4  5  2  0  0  0  0
  5 14  1  0  0  0  0
  6 12  1  0  0  0  0
  7  9  1  0  0  0  0
  8  6  2  0  0  0  0
  9 14  2  0  0  0  0
 10 17  1  0  0  0  0
 11 19  1  0  0  0  0
 11  6  1  0  0  0  0
 12 18  2  0  0  0  0
 13  3  2  0  0  0  0
 13  4  1  0  0  0  0
 14 19  1  0  0  0  0
 15 10  1  0  0  0  0
 16 18  1  0  0  0  0
 17  1  1  0  0  0  0
 19 16  2  0  0  0  0
 20 21  1  0  0  0  0
 21  3  1  0  0  0  0
 23 28  1  0  0  0  0
 24 29  1  0  0  0  0
 25 24  2  0  0  0  0
 26 24  1  0  0  0  0
 26 23  1  0  0  0  0
 27 26  1  0  0  0  0
 28 22  1  0  0  0  0
 28 21  1  1  0  0  0
 29 22  1  0  0  0  0
 30 27  2  0  0  0  0
 32 31  1  0  0  0  0
 33 32  1  0  0  0  0
 34 33  1  0  0  0  0
 35 34  1  0  0  0  0
 36 40  2  0  0  0  0
 37 35  1  1  0  0  0
 38 41  1  0  0  0  0
 39 38  2  0  0  0  0
 40 37  1  0  0  0  0
 41 37  1  0  0  0  0
 42 36  1  0  0  0  0
 42 38  1  0  0  0  0
M  END
>  <MODEL>
3

>  <REMARK>
 VINA RESULT:      -8.9      3.470      8.572
  Name = 
  8 active torsions:
  status: ('A' for Active; 'I' for Inactive)
    1  A    between atoms: C_2  and  C_20
    2  A    between atoms: C_4  and  O_33
    3  A    between atoms: C_5  and  N_27
    4  A    between atoms: C_12  and  O_33
    5  A    between atoms: C_12  and  C_37
    6  A    between atoms: C_20  and  C_24
    7  A    between atoms: C_24  and  C_37
    8  A    between atoms: N_27  and  C_34
                            x       y       z     vdW  Elec       q    Type
                         _______ _______ _______ _____ _____    ______ ____

>  <TORSDO>
F 8

$$$$
=
 OpenBabel10232412033D

 42 46  0  0  1  0  0  0  0  0999 V2000
  183.7300  178.6640  143.9710 C   0  0  1  0  0  3  0  0  0  0  0  0
  186.5290  178.4950  140.2420 O   0  0  0  0  0  0  0  0  0  0  0  0
  185.0040  177.6360  136.9070 C   0  0  0  0  0  0  0  0  0  0  0  0
  185.4860  178.3330  139.3110 C   0  0  0  0  0  0  0  0  0  0  0  0
  184.2740  178.6260  139.7210 C   0  0  0  0  0  3  0  0  0  0  0  0
  181.7260  179.0440  142.6520 C   0  0  0  0  0  0  0  0  0  0  0  0
  183.6010  177.9570  136.8690 N   0  0  0  0  0  0  0  0  0  0  0  0
  182.3660  179.1780  143.7750 N   0  0  0  0  0  0  0  0  0  0  0  0
  182.6460  178.2490  137.8980 C   0  0  0  0  0  3  0  0  0  0  0  0
  185.3710  178.4540  142.4360 C   0  0  0  0  0  2  0  0  0  0  0  0
  182.3490  178.4150  141.5490 N   0  0  0  0  0  2  0  0  0  0  0  0
  180.4140  179.6580  142.4070 C   0  0  0  0  0  3  0  0  0  0  0  0
  185.7950  177.8050  137.9790 C   0  0  0  0  0  2  0  0  0  0  0  0
  182.9390  178.5070  139.1670 C   0  0  0  0  0  0  0  0  0  0  0  0
  186.3710  179.1670  141.5070 C   0  0  0  0  0  2  0  0  0  0  0  0
  180.7680  179.3520  140.0320 C   0  0  0  0  0  3  0  0  0  0  0  0
  184.6520  179.3960  143.1950 O   0  0  0  0  0  0  0  0  0  0  0  0
  179.9830  179.7650  141.1760 N   0  0  0  0  0  0  0  0  0  0  0  0
  181.9250  178.7000  140.2150 C   0  0  0  0  0  0  0  0  0  0  0  0
  185.8210  177.9650  134.6740 F   0  0  0  0  0  0  0  0  0  0  0  0
  185.5900  177.1170  135.7010 N   0  0  0  0  0  0  0  0  0  0  0  0
  187.2170  175.2970  135.7350 C   0  0  0  0  0  2  0  0  0  0  0  0
  184.8530  174.8890  136.4080 C   0  0  0  0  0  2  0  0  0  0  0  0
  186.4110  172.9480  135.9910 C   0  0  0  0  0  0  0  0  0  0  0  0
  186.7070  171.7440  136.2020 O   0  0  0  0  0  0  0  0  0  0  0  0
  185.0880  173.4510  136.2890 N   0  0  0  0  0  0  0  0  0  0  0  0
  183.9990  172.5940  136.6550 C   0  0  0  0  0  3  0  0  0  0  0  0
  185.7670  175.6850  135.4810 C   0  0  1  0  0  3  0  0  0  0  0  0
  187.4370  173.8380  135.3570 C   0  0  0  0  0  2  0  0  0  0  0  0
  184.1070  171.3390  136.6370 O   0  0  0  0  0  0  0  0  0  0  0  0
  184.0860  178.7780  145.4480 C   0  0  0  0  0  2  0  0  0  0  0  0
  185.5400  179.1710  145.6530 C   0  0  0  0  0  2  0  0  0  0  0  0
  186.0010  178.7750  147.0420 C   0  0  0  0  0  2  0  0  0  0  0  0
  187.3220  178.0360  146.9470 C   0  0  0  0  0  2  0  0  0  0  0  0
  187.4300  177.4180  145.6980 O   0  0  0  0  0  0  0  0  0  0  0  0
  190.7000  176.8450  147.1170 C   0  0  0  0  0  3  0  0  0  0  0  0
  188.7670  177.0230  145.5990 C   0  0  2  0  0  3  0  0  0  0  0  0
  191.0420  177.7900  144.8530 C   0  0  0  0  0  0  0  0  0  0  0  0
  191.8020  178.3280  144.0630 O   0  0  0  0  0  0  0  0  0  0  0  0
  189.3700  176.9130  146.9740 C   0  0  0  0  0  3  0  0  0  0  0  0
  189.5530  178.0170  144.7340 C   0  0  0  0  0  2  0  0  0  0  0  0
  191.6020  176.8760  145.9130 C   0  0  0  0  0  2  0  0  0  0  0  0
  1 31  1  1  0  0  0
  2 15  1  0  0  0  0
  3 13  1  0  0  0  0
  4  5  2  0  0  0  0
  4  2  1  0  0  0  0
  6  8  2  0  0  0  0
  7  3  2  0  0  0  0
  7  9  1  0  0  0  0
  8  1  1  0  0  0  0
  9 14  2  0  0  0  0
 10 17  1  0  0  0  0
 11  6  1  0  0  0  0
 12  6  1  0  0  0  0
 13  4  1  0  0  0  0
 14  5  1  0  0  0  0
 14 19  1  0  0  0  0
 15 10  1  0  0  0  0
 16 19  2  0  0  0  0
 16 18  1  0  0  0  0
 17  1  1  0  0  0  0
 18 12  2  0  0  0  0
 19 11  1  0  0  0  0
 20 21  1  0  0  0  0
 21  3  1  0  0  0  0
 24 25  2  0  0  0  0
 24 26  1  0  0  0  0
 26 23  1  0  0  0  0
 26 27  1  0  0  0  0
 28 21  1  1  0  0  0
 28 22  1  0  0  0  0
 28 23  1  0  0  0  0
 29 22  1  0  0  0  0
 29 24  1  0  0  0  0
 30 27  2  0  0  0  0
 31 32  1  0  0  0  0
 32 33  1  0  0  0  0
 34 33  1  0  0  0  0
 35 34  1  0  0  0  0
 37 35  1  1  0  0  0
 37 40  1  0  0  0  0
 38 42  1  0  0  0  0
 39 38  2  0  0  0  0
 40 36  2  0  0  0  0
 41 38  1  0  0  0  0
 41 37  1  0  0  0  0
 42 36  1  0  0  0  0
M  END
>  <MODEL>
4

>  <REMARK>
 VINA RESULT:      -8.9      2.892      3.831
  Name = 
  8 active torsions:
  status: ('A' for Active; 'I' for Inactive)
    1  A    between atoms: C_2  and  C_20
    2  A    between atoms: C_4  and  O_33
    3  A    between atoms: C_5  and  N_27
    4  A    between atoms: C_12  and  O_33
    5  A    between atoms: C_12  and  C_37
    6  A    between atoms: C_20  and  C_24
    7  A    between atoms: C_24  and  C_37
    8  A    between atoms: N_27  and  C_34
                            x       y       z     vdW  Elec       q    Type
                         _______ _______ _______ _____ _____    ______ ____

>  <TORSDO>
F 8

$$$$
=
 OpenBabel10232412033D

 42 46  0  0  1  0  0  0  0  0999 V2000
  183.5200  178.7750  143.7640 C   0  0  1  0  0  3  0  0  0  0  0  0
  186.6690  178.6500  140.3230 O   0  0  0  0  0  0  0  0  0  0  0  0
  185.5430  177.4990  136.9190 C   0  0  0  0  0  0  0  0  0  0  0  0
  185.7360  178.3550  139.3120 C   0  0  0  0  0  0  0  0  0  0  0  0
  184.4710  178.5670  139.5910 C   0  0  0  0  0  3  0  0  0  0  0  0
  181.6290  178.9190  142.2470 C   0  0  0  0  0  0  0  0  0  0  0  0
  184.1300  177.7000  136.7330 N   0  0  0  0  0  0  0  0  0  0  0  0
  182.1460  179.1630  143.4140 N   0  0  0  0  0  0  0  0  0  0  0  0
  183.0610  177.9630  137.6520 C   0  0  0  0  0  3  0  0  0  0  0  0
  185.3130  178.6250  142.4010 C   0  0  0  0  0  2  0  0  0  0  0  0
  182.4020  178.2900  141.2440 N   0  0  0  0  0  2  0  0  0  0  0  0
  180.3030  179.4090  141.8470 C   0  0  0  0  0  3  0  0  0  0  0  0
  186.2120  177.7880  138.0470 C   0  0  0  0  0  2  0  0  0  0  0  0
  183.2090  178.3090  138.9250 C   0  0  0  0  0  0  0  0  0  0  0  0
  186.3380  179.3710  141.5270 C   0  0  0  0  0  2  0  0  0  0  0  0
  180.9060  179.0130  139.5370 C   0  0  0  0  0  3  0  0  0  0  0  0
  184.4530  179.5410  143.0340 O   0  0  0  0  0  0  0  0  0  0  0  0
  179.9850  179.4170  140.5780 N   0  0  0  0  0  0  0  0  0  0  0  0
  182.0880  178.4700  139.8620 C   0  0  0  0  0  0  0  0  0  0  0  0
  186.0900  177.5140  134.5810 F   0  0  0  0  0  0  0  0  0  0  0  0
  186.2810  176.9700  135.8040 N   0  0  0  0  0  0  0  0  0  0  0  0
  187.2540  175.1230  134.5370 C   0  0  0  0  0  2  0  0  0  0  0  0
  188.4480  176.0690  136.5090 C   0  0  0  0  0  2  0  0  0  0  0  0
  189.2020  173.8870  135.4900 C   0  0  0  0  0  0  0  0  0  0  0  0
  190.1240  173.0530  135.2980 O   0  0  0  0  0  0  0  0  0  0  0  0
  189.3120  174.8900  136.5260 N   0  0  0  0  0  0  0  0  0  0  0  0
  190.3620  174.8820  137.5020 C   0  0  0  0  0  3  0  0  0  0  0  0
  187.0800  175.7540  135.9120 C   0  0  1  0  0  3  0  0  0  0  0  0
  187.9540  173.7770  134.6690 C   0  0  0  0  0  2  0  0  0  0  0  0
  191.1950  173.9390  137.5750 O   0  0  0  0  0  0  0  0  0  0  0  0
  183.7230  178.9930  145.2580 C   0  0  0  0  0  2  0  0  0  0  0  0
  184.7840  178.0660  145.8290 C   0  0  0  0  0  2  0  0  0  0  0  0
  186.0540  178.8390  146.1260 C   0  0  0  0  0  2  0  0  0  0  0  0
  187.2480  177.9080  146.0380 C   0  0  0  0  0  2  0  0  0  0  0  0
  187.1860  177.1700  144.8530 O   0  0  0  0  0  0  0  0  0  0  0  0
  190.6710  178.0430  144.4990 C   0  0  0  0  0  3  0  0  0  0  0  0
  188.5130  176.8540  144.5470 C   0  0  2  0  0  3  0  0  0  0  0  0
  190.1100  176.5090  142.6370 C   0  0  0  0  0  0  0  0  0  0  0  0
  190.4150  176.0550  141.5450 O   0  0  0  0  0  0  0  0  0  0  0  0
  189.4140  177.9880  144.9590 C   0  0  0  0  0  3  0  0  0  0  0  0
  188.6570  176.5560  143.0490 C   0  0  0  0  0  2  0  0  0  0  0  0
  191.1940  176.9790  143.5730 C   0  0  0  0  0  2  0  0  0  0  0  0
  1 31  1  1  0  0  0
  2 15  1  0  0  0  0
  3 13  1  0  0  0  0
  4  5  2  0  0  0  0
  4  2  1  0  0  0  0
  6  8  2  0  0  0  0
  7  3  2  0  0  0  0
  7  9  1  0  0  0  0
  8  1  1  0  0  0  0
  9 14  2  0  0  0  0
 10 17  1  0  0  0  0
 11  6  1  0  0  0  0
 12  6  1  0  0  0  0
 13  4  1  0  0  0  0
 14  5  1  0  0  0  0
 14 19  1  0  0  0  0
 15 10  1  0  0  0  0
 16 19  2  0  0  0  0
 16 18  1  0  0  0  0
 17  1  1  0  0  0  0
 18 12  2  0  0  0  0
 19 11  1  0  0  0  0
 20 21  1  0  0  0  0
 21  3  1  0  0  0  0
 22 29  1  0  0  0  0
 22 28  1  0  0  0  0
 23 26  1  0  0  0  0
 24 26  1  0  0  0  0
 25 24  2  0  0  0  0
 26 27  1  0  0  0  0
 27 30  2  0  0  0  0
 28 21  1  6  0  0  0
 28 23  1  0  0  0  0
 29 24  1  0  0  0  0
 31 32  1  0  0  0  0
 32 33  1  0  0  0  0
 34 33  1  0  0  0  0
 35 34  1  0  0  0  0
 36 40  2  0  0  0  0
 37 35  1  6  0  0  0
 37 40  1  0  0  0  0
 38 41  1  0  0  0  0
 38 42  1  0  0  0  0
 39 38  2  0  0  0  0
 41 37  1  0  0  0  0
 42 36  1  0  0  0  0
M  END
>  <MODEL>
5

>  <REMARK>
 VINA RESULT:      -8.7      1.882      2.510
  Name = 
  8 active torsions:
  status: ('A' for Active; 'I' for Inactive)
    1  A    between atoms: C_2  and  C_20
    2  A    between atoms: C_4  and  O_33
    3  A    between atoms: C_5  and  N_27
    4  A    between atoms: C_12  and  O_33
    5  A    between atoms: C_12  and  C_37
    6  A    between atoms: C_20  and  C_24
    7  A    between atoms: C_24  and  C_37
    8  A    between atoms: N_27  and  C_34
                            x       y       z     vdW  Elec       q    Type
                         _______ _______ _______ _____ _____    ______ ____

>  <TORSDO>
F 8

$$$$
=
 OpenBabel10232412033D

 42 46  0  0  1  0  0  0  0  0999 V2000
  184.7810  179.1430  139.2420 C   0  0  1  0  0  3  0  0  0  0  0  0
  187.5240  176.8100  136.2760 O   0  0  0  0  0  0  0  0  0  0  0  0
  191.1540  176.3670  137.1790 C   0  0  0  0  0  0  0  0  0  0  0  0
  188.6390  176.7810  137.1350 C   0  0  0  0  0  0  0  0  0  0  0  0
  188.4200  177.0400  138.4020 C   0  0  0  0  0  3  0  0  0  0  0  0
  186.2180  178.7240  141.1550 C   0  0  0  0  0  0  0  0  0  0  0  0
  191.3580  176.4420  138.6020 N   0  0  0  0  0  2  0  0  0  0  0  0
  185.0340  178.9710  140.6810 N   0  0  0  0  0  0  0  0  0  0  0  0
  190.5370  176.9270  139.6730 C   0  0  0  0  0  3  0  0  0  0  0  0
  185.8630  178.1730  137.5140 C   0  0  0  0  0  2  0  0  0  0  0  0
  187.3190  178.5750  140.2790 N   0  0  0  0  0  2  0  0  0  0  0  0
  186.4610  178.4310  142.5740 C   0  0  0  0  0  3  0  0  0  0  0  0
  189.9670  176.5210  136.5700 C   0  0  0  0  0  3  0  0  0  0  0  0
  189.2480  177.2270  139.5780 C   0  0  0  0  0  0  0  0  0  0  0  0
  186.1620  176.8760  136.7410 C   0  0  0  0  0  2  0  0  0  0  0  0
  188.6020  177.4840  141.9630 C   0  0  0  0  0  3  0  0  0  0  0  0
  184.9550  177.9210  138.5590 O   0  0  0  0  0  0  0  0  0  0  0  0
  187.5930  177.8760  142.9240 N   0  0  0  0  0  0  0  0  0  0  0  0
  188.4650  177.8190  140.6730 C   0  0  0  0  0  0  0  0  0  0  0  0
  192.1760  176.1110  135.0210 F   0  0  0  0  0  0  0  0  0  0  0  0
  192.3070  176.0870  136.3670 N   0  0  0  0  0  0  0  0  0  0  0  0
  193.4070  174.1330  137.3330 C   0  0  0  0  0  2  0  0  0  0  0  0
  194.6950  175.7430  135.9360 C   0  0  0  0  0  2  0  0  0  0  0  0
  195.9000  174.0030  137.3090 C   0  0  0  0  0  0  0  0  0  0  0  0
  196.9250  173.2960  137.4890 O   0  0  0  0  0  0  0  0  0  0  0  0
  195.9360  175.1580  136.4400 N   0  0  0  0  0  0  0  0  0  0  0  0
  197.1550  175.6740  135.8910 C   0  0  0  0  0  3  0  0  0  0  0  0
  193.5560  175.5960  136.9400 C   0  0  1  0  0  3  0  0  0  0  0  0
  194.6540  173.6630  138.0710 C   0  0  0  0  0  2  0  0  0  0  0  0
  198.2800  175.2100  136.2170 O   0  0  0  0  0  0  0  0  0  0  0  0
  183.3560  179.6470  139.0550 C   0  0  0  0  0  2  0  0  0  0  0  0
  182.3370  178.7270  139.7080 C   0  0  0  0  0  2  0  0  0  0  0  0
  180.9300  179.2230  139.4390 C   0  0  0  0  0  2  0  0  0  0  0  0
  180.9880  180.6110  138.8290 C   0  0  0  0  0  2  0  0  0  0  0  0
  180.3240  180.6150  137.5990 O   0  0  0  0  0  0  0  0  0  0  0  0
  180.7280  183.1950  135.1060 C   0  0  0  0  0  3  0  0  0  0  0  0
  180.3120  181.9520  137.1930 C   0  0  2  0  0  3  0  0  0  0  0  0
  181.6550  184.0770  137.2270 C   0  0  0  0  0  0  0  0  0  0  0  0
  182.3550  184.9110  137.7800 O   0  0  0  0  0  0  0  0  0  0  0  0
  180.4200  182.0310  135.6930 C   0  0  0  0  0  3  0  0  0  0  0  0
  181.4560  182.7230  137.8660 C   0  0  0  0  0  2  0  0  0  0  0  0
  180.9680  184.4290  135.9320 C   0  0  0  0  0  2  0  0  0  0  0  0
  1 31  1  1  0  0  0
  1  8  1  0  0  0  0
  2 15  1  0  0  0  0
  2  4  1  0  0  0  0
  3  7  1  0  0  0  0
  4  5  2  0  0  0  0
  5 14  1  0  0  0  0
  6 12  1  0  0  0  0
  7  9  1  0  0  0  0
  8  6  2  0  0  0  0
 10 17  1  0  0  0  0
 11 19  1  0  0  0  0
 11  6  1  0  0  0  0
 12 18  2  0  0  0  0
 13  4  1  0  0  0  0
 13  3  2  0  0  0  0
 14  9  2  0  0  0  0
 14 19  1  0  0  0  0
 15 10  1  0  0  0  0
 16 18  1  0  0  0  0
 17  1  1  0  0  0  0
 19 16  2  0  0  0  0
 20 21  1  0  0  0  0
 21  3  1  0  0  0  0
 22 29  1  0  0  0  0
 23 26  1  0  0  0  0
 23 28  1  0  0  0  0
 24 25  2  0  0  0  0
 24 29  1  0  0  0  0
 26 24  1  0  0  0  0
 27 30  2  0  0  0  0
 27 26  1  0  0  0  0
 28 21  1  6  0  0  0
 28 22  1  0  0  0  0
 31 32  1  0  0  0  0
 33 32  1  0  0  0  0
 34 33  1  0  0  0  0
 35 34  1  0  0  0  0
 36 40  2  0  0  0  0
 36 42  1  0  0  0  0
 37 35  1  6  0  0  0
 37 41  1  0  0  0  0
 38 39  2  0  0  0  0
 38 41  1  0  0  0  0
 40 37  1  0  0  0  0
 42 38  1  0  0  0  0
M  END
>  <MODEL>
6

>  <REMARK>
 VINA RESULT:      -8.3      3.515      7.522
  Name = 
  8 active torsions:
  status: ('A' for Active; 'I' for Inactive)
    1  A    between atoms: C_2  and  C_20
    2  A    between atoms: C_4  and  O_33
    3  A    between atoms: C_5  and  N_27
    4  A    between atoms: C_12  and  O_33
    5  A    between atoms: C_12  and  C_37
    6  A    between atoms: C_20  and  C_24
    7  A    between atoms: C_24  and  C_37
    8  A    between atoms: N_27  and  C_34
                            x       y       z     vdW  Elec       q    Type
                         _______ _______ _______ _____ _____    ______ ____

>  <TORSDO>
F 8

$$$$
=
 OpenBabel10232412033D

 42 46  0  0  1  0  0  0  0  0999 V2000
  185.3540  179.0150  145.0910 C   0  0  1  0  0  3  0  0  0  0  0  0
  181.5180  178.9500  142.4360 O   0  0  0  0  0  0  0  0  0  0  0  0
  181.8950  179.5920  138.7440 C   0  0  0  0  0  0  0  0  0  0  0  0
  182.2110  179.0500  141.2150 C   0  0  0  0  0  0  0  0  0  0  0  0
  183.4950  178.7820  141.2370 C   0  0  0  0  0  3  0  0  0  0  0  0
  186.8450  178.5490  143.2320 C   0  0  0  0  0  0  0  0  0  0  0  0
  183.2200  179.2670  138.2840 N   0  0  0  0  0  0  0  0  0  0  0  0
  186.5950  178.4880  144.5050 N   0  0  0  0  0  0  0  0  0  0  0  0
  184.4570  179.0410  138.9740 C   0  0  0  0  0  3  0  0  0  0  0  0
  183.3080  179.1280  144.1450 C   0  0  0  0  0  2  0  0  0  0  0  0
  185.8950  179.1070  142.3460 N   0  0  0  0  0  2  0  0  0  0  0  0
  188.0240  177.9190  142.6220 C   0  0  0  0  0  3  0  0  0  0  0  0
  181.4870  179.4930  140.0200 C   0  0  0  0  0  2  0  0  0  0  0  0
  184.5850  178.8640  140.2830 C   0  0  0  0  0  0  0  0  0  0  0  0
  182.0800  178.3590  143.6250 C   0  0  0  0  0  2  0  0  0  0  0  0
  186.9330  178.0730  140.4680 C   0  0  0  0  0  3  0  0  0  0  0  0
  184.2480  178.2360  144.6920 O   0  0  0  0  0  0  0  0  0  0  0  0
  188.0470  177.7330  141.3270 N   0  0  0  0  0  0  0  0  0  0  0  0
  185.8800  178.7370  140.9660 C   0  0  0  0  0  0  0  0  0  0  0  0
  179.9920  179.1740  137.3430 F   0  0  0  0  0  0  0  0  0  0  0  0
  180.9490  180.0340  137.7560 N   0  0  0  0  0  0  0  0  0  0  0  0
  180.6710  181.1460  135.6000 C   0  0  0  0  0  2  0  0  0  0  0  0
  180.2610  182.3860  137.7220 C   0  0  0  0  0  2  0  0  0  0  0  0
  180.4340  183.6300  135.5340 C   0  0  0  0  0  0  0  0  0  0  0  0
  180.1520  184.6490  134.8520 O   0  0  0  0  0  0  0  0  0  0  0  0
  180.3060  183.6410  136.9740 N   0  0  0  0  0  0  0  0  0  0  0  0
  180.0410  184.8370  137.7180 C   0  0  0  0  0  3  0  0  0  0  0  0
  181.1020  181.3030  137.0520 C   0  0  1  0  0  3  0  0  0  0  0  0
  180.9740  182.4230  134.8280 C   0  0  0  0  0  2  0  0  0  0  0  0
  180.0060  185.9690  137.1660 O   0  0  0  0  0  0  0  0  0  0  0  0
  185.4850  178.9960  146.6090 C   0  0  0  0  0  2  0  0  0  0  0  0
  186.4130  177.8900  147.0860 C   0  0  0  0  0  2  0  0  0  0  0  0
  187.2540  178.3740  148.2500 C   0  0  0  0  0  2  0  0  0  0  0  0
  188.3940  177.4040  148.4930 C   0  0  0  0  0  2  0  0  0  0  0  0
  189.5880  177.9470  148.0110 O   0  0  0  0  0  0  0  0  0  0  0  0
  192.3320  175.7880  147.0950 C   0  0  0  0  0  3  0  0  0  0  0  0
  190.1590  176.9410  147.2260 C   0  0  2  0  0  3  0  0  0  0  0  0
  191.2250  176.4920  144.9940 C   0  0  0  0  0  0  0  0  0  0  0  0
  191.2870  176.5980  143.7800 O   0  0  0  0  0  0  0  0  0  0  0  0
  191.4730  176.5140  147.8230 C   0  0  0  0  0  3  0  0  0  0  0  0
  190.3460  177.4320  145.7840 C   0  0  0  0  0  2  0  0  0  0  0  0
  191.9970  175.3950  145.6820 C   0  0  0  0  0  2  0  0  0  0  0  0
  1 31  1  1  0  0  0
  2 15  1  0  0  0  0
  3 13  1  0  0  0  0
  4  5  2  0  0  0  0
  4  2  1  0  0  0  0
  6  8  2  0  0  0  0
  7  3  2  0  0  0  0
  7  9  1  0  0  0  0
  8  1  1  0  0  0  0
  9 14  2  0  0  0  0
 10 17  1  0  0  0  0
 11  6  1  0  0  0  0
 12  6  1  0  0  0  0
 13  4  1  0  0  0  0
 14 19  1  0  0  0  0
 14  5  1  0  0  0  0
 15 10  1  0  0  0  0
 16 19  2  0  0  0  0
 16 18  1  0  0  0  0
 17  1  1  0  0  0  0
 18 12  2  0  0  0  0
 19 11  1  0  0  0  0
 20 21  1  0  0  0  0
 21  3  1  0  0  0  0
 22 28  1  0  0  0  0
 24 26  1  0  0  0  0
 25 24  2  0  0  0  0
 26 27  1  0  0  0  0
 26 23  1  0  0  0  0
 28 23  1  0  0  0  0
 28 21  1  1  0  0  0
 29 24  1  0  0  0  0
 29 22  1  0  0  0  0
 30 27  2  0  0  0  0
 31 32  1  0  0  0  0
 32 33  1  0  0  0  0
 33 34  1  0  0  0  0
 35 34  1  0  0  0  0
 36 40  2  0  0  0  0
 37 40  1  0  0  0  0
 37 35  1  1  0  0  0
 38 42  1  0  0  0  0
 38 41  1  0  0  0  0
 39 38  2  0  0  0  0
 41 37  1  0  0  0  0
 42 36  1  0  0  0  0
M  END
>  <MODEL>
7

>  <REMARK>
 VINA RESULT:      -8.3      4.028      7.946
  Name = 
  8 active torsions:
  status: ('A' for Active; 'I' for Inactive)
    1  A    between atoms: C_2  and  C_20
    2  A    between atoms: C_4  and  O_33
    3  A    between atoms: C_5  and  N_27
    4  A    between atoms: C_12  and  O_33
    5  A    between atoms: C_12  and  C_37
    6  A    between atoms: C_20  and  C_24
    7  A    between atoms: C_24  and  C_37
    8  A    between atoms: N_27  and  C_34
                            x       y       z     vdW  Elec       q    Type
                         _______ _______ _______ _____ _____    ______ ____

>  <TORSDO>
F 8

$$$$
=
 OpenBabel10232412033D

 42 46  0  0  1  0  0  0  0  0999 V2000
  187.9810  175.6600  136.0200 C   0  0  1  0  0  3  0  0  0  0  0  0
  188.0130  178.0160  140.0480 O   0  0  0  0  0  0  0  0  0  0  0  0
  191.0660  177.7590  142.2380 C   0  0  0  0  0  0  0  0  0  0  0  0
  189.3600  177.7370  140.3440 C   0  0  0  0  0  0  0  0  0  0  0  0
  190.1090  177.3070  139.3550 C   0  0  0  0  0  3  0  0  0  0  0  0
  190.4030  175.5390  135.8850 C   0  0  0  0  0  0  0  0  0  0  0  0
  192.2380  177.4210  141.4740 N   0  0  0  0  0  0  0  0  0  0  0  0
  189.2500  175.5520  135.2860 N   0  0  0  0  0  0  0  0  0  0  0  0
  192.4130  176.8930  140.1520 C   0  0  0  0  0  3  0  0  0  0  0  0
  187.5880  176.7290  137.9690 C   0  0  0  0  0  2  0  0  0  0  0  0
  190.4750  175.6650  137.2920 N   0  0  0  0  0  2  0  0  0  0  0  0
  191.6780  175.5540  135.1550 C   0  0  0  0  0  3  0  0  0  0  0  0
  189.8320  177.8850  141.7240 C   0  0  0  0  0  2  0  0  0  0  0  0
  191.4640  176.8080  139.2270 C   0  0  0  0  0  0  0  0  0  0  0  0
  187.4880  178.0770  138.7070 C   0  0  0  0  0  2  0  0  0  0  0  0
  192.7800  176.2600  137.1910 C   0  0  0  0  0  3  0  0  0  0  0  0
  187.8520  176.9380  136.6040 O   0  0  0  0  0  0  0  0  0  0  0  0
  192.7740  175.8700  135.7970 N   0  0  0  0  0  0  0  0  0  0  0  0
  191.6570  176.1670  137.9180 C   0  0  0  0  0  0  0  0  0  0  0  0
  192.3550  178.6500  144.0560 F   0  0  0  0  0  0  0  0  0  0  0  0
  191.2470  177.9940  143.6440 N   0  0  0  0  0  0  0  0  0  0  0  0
  191.1130  177.2860  145.9770 C   0  0  0  0  0  2  0  0  0  0  0  0
  189.1130  178.2230  144.8260 C   0  0  0  0  0  2  0  0  0  0  0  0
  188.8730  177.0660  147.0560 C   0  0  0  0  0  0  0  0  0  0  0  0
  188.2210  176.9100  148.1210 O   0  0  0  0  0  0  0  0  0  0  0  0
  188.2730  177.7030  145.9050 N   0  0  0  0  0  0  0  0  0  0  0  0
  186.8760  178.0160  145.8340 C   0  0  0  0  0  3  0  0  0  0  0  0
  190.3780  177.3890  144.6490 C   0  0  1  0  0  3  0  0  0  0  0  0
  190.2650  176.5170  146.9820 C   0  0  0  0  0  2  0  0  0  0  0  0
  186.0700  177.6610  146.7340 O   0  0  0  0  0  0  0  0  0  0  0  0
  186.8330  175.4110  135.0500 C   0  0  0  0  0  2  0  0  0  0  0  0
  185.7780  174.4910  135.6420 C   0  0  0  0  0  2  0  0  0  0  0  0
  184.4000  175.1040  135.4910 C   0  0  0  0  0  2  0  0  0  0  0  0
  184.2730  176.3020  136.4130 C   0  0  0  0  0  2  0  0  0  0  0  0
  183.3080  176.0450  137.3920 O   0  0  0  0  0  0  0  0  0  0  0  0
  182.6850  177.5420  140.6170 C   0  0  0  0  0  3  0  0  0  0  0  0
  183.7060  176.7930  138.5040 C   0  0  2  0  0  3  0  0  0  0  0  0
  184.0660  179.1410  139.3250 C   0  0  0  0  0  0  0  0  0  0  0  0
  184.4810  180.2830  139.2020 O   0  0  0  0  0  0  0  0  0  0  0  0
  182.6690  176.6830  139.5890 C   0  0  0  0  0  3  0  0  0  0  0  0
  183.9320  178.2580  138.1070 C   0  0  0  0  0  2  0  0  0  0  0  0
  183.7320  178.6190  140.6990 C   0  0  0  0  0  2  0  0  0  0  0  0
  1 31  1  6  0  0  0
  1 17  1  0  0  0  0
  2  4  1  0  0  0  0
  3 21  1  0  0  0  0
  4 13  1  0  0  0  0
  5  4  2  0  0  0  0
  6 11  1  0  0  0  0
  7  3  2  0  0  0  0
  8  6  2  0  0  0  0
  8  1  1  0  0  0  0
  9  7  1  0  0  0  0
 10 15  1  0  0  0  0
 11 19  1  0  0  0  0
 12 18  2  0  0  0  0
 12  6  1  0  0  0  0
 13  3  1  0  0  0  0
 14  5  1  0  0  0  0
 14  9  2  0  0  0  0
 15  2  1  0  0  0  0
 16 19  2  0  0  0  0
 17 10  1  0  0  0  0
 18 16  1  0  0  0  0
 19 14  1  0  0  0  0
 21 20  1  0  0  0  0
 22 29  1  0  0  0  0
 23 26  1  0  0  0  0
 24 25  2  0  0  0  0
 26 24  1  0  0  0  0
 27 26  1  0  0  0  0
 27 30  2  0  0  0  0
 28 21  1  6  0  0  0
 28 23  1  0  0  0  0
 28 22  1  0  0  0  0
 29 24  1  0  0  0  0
 31 32  1  0  0  0  0
 33 32  1  0  0  0  0
 33 34  1  0  0  0  0
 34 35  1  0  0  0  0
 36 42  1  0  0  0  0
 37 35  1  6  0  0  0
 37 40  1  0  0  0  0
 38 42  1  0  0  0  0
 39 38  2  0  0  0  0
 40 36  2  0  0  0  0
 41 37  1  0  0  0  0
 41 38  1  0  0  0  0
M  END
>  <MODEL>
8

>  <REMARK>
 VINA RESULT:      -8.3      3.450      9.137
  Name = 
  8 active torsions:
  status: ('A' for Active; 'I' for Inactive)
    1  A    between atoms: C_2  and  C_20
    2  A    between atoms: C_4  and  O_33
    3  A    between atoms: C_5  and  N_27
    4  A    between atoms: C_12  and  O_33
    5  A    between atoms: C_12  and  C_37
    6  A    between atoms: C_20  and  C_24
    7  A    between atoms: C_24  and  C_37
    8  A    between atoms: N_27  and  C_34
                            x       y       z     vdW  Elec       q    Type
                         _______ _______ _______ _____ _____    ______ ____

>  <TORSDO>
F 8

$$$$
=
 OpenBabel10232412033D

 42 46  0  0  1  0  0  0  0  0999 V2000
  190.4500  177.9090  141.8580 C   0  0  1  0  0  3  0  0  0  0  0  0
  185.8280  178.3200  142.3440 O   0  0  0  0  0  0  0  0  0  0  0  0
  183.7780  179.1100  139.2840 C   0  0  0  0  0  0  0  0  0  0  0  0
  185.5660  178.4190  140.9640 C   0  0  0  0  0  0  0  0  0  0  0  0
  186.5220  178.0360  140.1500 C   0  0  0  0  0  3  0  0  0  0  0  0
  190.3190  177.4050  139.4860 C   0  0  0  0  0  0  0  0  0  0  0  0
  184.4450  178.6910  138.0790 N   0  0  0  0  0  0  0  0  0  0  0  0
  190.9510  177.3030  140.6160 N   0  0  0  0  0  0  0  0  0  0  0  0
  185.8020  178.3200  137.8010 C   0  0  0  0  0  3  0  0  0  0  0  0
  188.3040  178.2520  142.4700 C   0  0  0  0  0  2  0  0  0  0  0  0
  189.0830  178.0890  139.4220 N   0  0  0  0  0  2  0  0  0  0  0  0
  190.7480  176.7030  138.2690 C   0  0  0  0  0  3  0  0  0  0  0  0
  184.2890  178.9840  140.5200 C   0  0  0  0  0  2  0  0  0  0  0  0
  186.7310  178.0680  138.7150 C   0  0  0  0  0  0  0  0  0  0  0  0
  186.9640  177.6230  142.8910 C   0  0  0  0  0  2  0  0  0  0  0  0
  188.5410  177.0610  137.3420 C   0  0  0  0  0  3  0  0  0  0  0  0
  189.2790  177.2530  142.2920 O   0  0  0  0  0  0  0  0  0  0  0  0
  189.9050  176.5800  137.2750 N   0  0  0  0  0  0  0  0  0  0  0  0
  188.1390  177.7910  138.3920 C   0  0  0  0  0  0  0  0  0  0  0  0
  181.4800  179.2600  139.9630 F   0  0  0  0  0  0  0  0  0  0  0  0
  182.4670  179.6830  139.1420 N   0  0  0  0  0  0  0  0  0  0  0  0
  180.8210  180.0990  137.3870 C   0  0  0  0  0  2  0  0  0  0  0  0
  181.9770  181.9990  138.5090 C   0  0  0  0  0  2  0  0  0  0  0  0
  180.6430  182.3860  136.4020 C   0  0  0  0  0  0  0  0  0  0  0  0
  179.9910  183.1770  135.6730 O   0  0  0  0  0  0  0  0  0  0  0  0
  181.5240  182.8830  137.4350 N   0  0  0  0  0  0  0  0  0  0  0  0
  181.8520  184.2710  137.5700 C   0  0  0  0  0  3  0  0  0  0  0  0
  182.1240  180.5590  138.0260 C   0  0  1  0  0  3  0  0  0  0  0  0
  180.5420  180.9150  136.1320 C   0  0  0  0  0  2  0  0  0  0  0  0
  181.4710  185.1280  136.7290 O   0  0  0  0  0  0  0  0  0  0  0  0
  191.5320  177.8020  142.9250 C   0  0  0  0  0  2  0  0  0  0  0  0
  191.5620  176.4260  143.5690 C   0  0  0  0  0  2  0  0  0  0  0  0
  191.6570  176.5520  145.0770 C   0  0  0  0  0  2  0  0  0  0  0  0
  190.2680  176.7230  145.6620 C   0  0  0  0  0  2  0  0  0  0  0  0
  190.3610  177.2460  146.9550 O   0  0  0  0  0  0  0  0  0  0  0  0
  187.5700  178.3870  148.9390 C   0  0  0  0  0  3  0  0  0  0  0  0
  189.1970  178.0000  147.1300 C   0  0  2  0  0  3  0  0  0  0  0  0
  186.7320  178.0390  146.6350 C   0  0  0  0  0  0  0  0  0  0  0  0
  185.7710  177.8950  145.8960 O   0  0  0  0  0  0  0  0  0  0  0  0
  188.7990  177.9910  148.5820 C   0  0  0  0  0  3  0  0  0  0  0  0
  188.0680  177.4470  146.2490 C   0  0  0  0  0  2  0  0  0  0  0  0
  186.5790  178.8400  147.9020 C   0  0  0  0  0  2  0  0  0  0  0  0
  1 17  1  0  0  0  0
  1 31  1  1  0  0  0
  2 15  1  0  0  0  0
  3 13  1  0  0  0  0
  4  2  1  0  0  0  0
  5  4  2  0  0  0  0
  6  8  2  0  0  0  0
  7  3  2  0  0  0  0
  8  1  1  0  0  0  0
  9  7  1  0  0  0  0
  9 14  2  0  0  0  0
 10 15  1  0  0  0  0
 11  6  1  0  0  0  0
 12  6  1  0  0  0  0
 13  4  1  0  0  0  0
 14  5  1  0  0  0  0
 16 19  2  0  0  0  0
 17 10  1  0  0  0  0
 18 16  1  0  0  0  0
 18 12  2  0  0  0  0
 19 14  1  0  0  0  0
 19 11  1  0  0  0  0
 21  3  1  0  0  0  0
 21 20  1  0  0  0  0
 22 28  1  0  0  0  0
 24 26  1  0  0  0  0
 25 24  2  0  0  0  0
 26 27  1  0  0  0  0
 26 23  1  0  0  0  0
 28 23  1  0  0  0  0
 28 21  1  1  0  0  0
 29 24  1  0  0  0  0
 29 22  1  0  0  0  0
 30 27  2  0  0  0  0
 31 32  1  0  0  0  0
 32 33  1  0  0  0  0
 33 34  1  0  0  0  0
 34 35  1  0  0  0  0
 37 35  1  1  0  0  0
 37 40  1  0  0  0  0
 38 42  1  0  0  0  0
 39 38  2  0  0  0  0
 40 36  2  0  0  0  0
 41 38  1  0  0  0  0
 41 37  1  0  0  0  0
 42 36  1  0  0  0  0
M  END
>  <MODEL>
9

>  <REMARK>
 VINA RESULT:      -8.3      3.336      7.930
  Name = 
  8 active torsions:
  status: ('A' for Active; 'I' for Inactive)
    1  A    between atoms: C_2  and  C_20
    2  A    between atoms: C_4  and  O_33
    3  A    between atoms: C_5  and  N_27
    4  A    between atoms: C_12  and  O_33
    5  A    between atoms: C_12  and  C_37
    6  A    between atoms: C_20  and  C_24
    7  A    between atoms: C_24  and  C_37
    8  A    between atoms: N_27  and  C_34
                            x       y       z     vdW  Elec       q    Type
                         _______ _______ _______ _____ _____    ______ ____

>  <TORSDO>
F 8

$$$$
