=
 OpenBabel10232409223D

 60 63  0  0  1  0  0  0  0  0999 V2000
  183.2190  177.2020  139.1130 N   0  0  0  0  0  2  0  0  0  0  0  0
  182.5570  177.6670  137.9160 C   0  0  0  0  0  0  0  0  0  0  0  0
  181.5990  178.5500  137.9290 N   0  0  0  0  0  0  0  0  0  0  0  0
  182.9310  177.1120  136.6560 N   0  0  0  0  0  2  0  0  0  0  0  0
  181.1110  181.2900  138.0720 O   0  0  0  0  0  0  0  0  0  0  0  0
  180.4100  181.2020  140.2450 O   0  0  0  0  0  1  0  0  0  0  0  0
  180.8970  180.5960  139.0980 C   0  0  0  0  0  0  0  0  0  0  0  0
  181.1420  179.1920  139.0860 N   0  0  0  0  0  2  0  0  0  0  0  0
  182.9430  177.6630  140.4600 C   0  0  0  0  0  2  0  0  0  0  0  0
  184.1560  178.3270  141.0560 C   0  0  0  0  0  2  0  0  0  0  0  0
  184.0420  178.3700  142.5720 C   0  0  0  0  0  2  0  0  0  0  0  0
  186.0840  179.5540  142.2100 F   0  0  0  0  0  0  0  0  0  0  0  0
  185.2380  179.0860  143.1990 C   0  0  0  0  0  0  0  0  0  0  0  0
  184.7840  180.1540  143.9470 F   0  0  0  0  0  0  0  0  0  0  0  0
  186.3610  176.8310  143.3820 C   0  0  0  0  0  1  0  0  0  0  0  0
  186.0100  178.1280  144.1120 C   0  0  1  0  0  3  0  0  0  0  0  0
  187.1760  178.7370  144.6040 O   0  0  0  0  0  0  0  0  0  0  0  0
  187.8110  177.7580  145.3780 C   0  0  0  0  0  2  0  0  0  0  0  0
  189.2990  177.7800  145.0620 C   0  0  0  0  0  2  0  0  0  0  0  0
  189.6290  176.7620  144.1250 O   0  0  0  0  0  0  0  0  0  0  0  0
  190.9330  176.5850  143.6730 C   0  0  0  0  0  0  0  0  0  0  0  0
  191.7500  175.8500  144.3060 O   0  0  0  0  0  0  0  0  0  0  0  0
  191.3680  177.3090  142.4440 C   0  0  0  0  0  2  0  0  0  0  0  0
  189.3270  176.1810  138.7510 O   0  0  0  0  0  1  0  0  0  0  0  0
  188.2720  178.1390  140.7390 C   0  0  0  0  0  2  0  0  0  0  0  0
  190.2900  177.2930  141.3650 C   0  0  1  0  0  3  0  0  0  0  0  0
  189.3540  178.3130  141.6210 O   0  0  0  0  0  0  0  0  0  0  0  0
  187.6300  178.2790  138.4440 O   0  0  0  0  0  1  0  0  0  0  0  0
  189.8370  177.4780  138.9140 C   0  0  2  0  0  3  0  0  0  0  0  0
  190.9330  177.4860  139.9810 C   0  0  2  0  0  3  0  0  0  0  0  0
  188.7130  178.4410  139.3060 C   0  0  2  0  0  3  0  0  0  0  0  0
  191.8680  176.4730  139.7270 O   0  0  0  0  0  0  0  0  0  0  0  0
  192.5130  176.8670  138.5520 C   0  0  0  0  0  2  0  0  0  0  0  0
  193.4170  175.7570  138.0410 C   0  0  0  0  0  2  0  0  0  0  0  0
  192.4560  175.6500  135.5710 C   0  0  0  0  0  1  0  0  0  0  0  0
  192.7970  174.9680  136.8890 C   0  0  1  0  0  0  0  0  0  0  0  0
  193.0670  173.5140  136.8460 C   0  0  0  0  0  2  0  0  0  0  0  0
  191.8280  174.0300  137.2850 O   0  0  0  0  0  0  0  0  0  0  0  0
  184.0050  176.1410  136.4930 C   0  0  1  0  0  3  0  0  0  0  0  0
  182.1800  174.6250  136.6610 O   0  0  0  0  0  0  0  0  0  0  0  0
  183.4160  174.7700  136.4500 C   0  0  0  0  0  0  0  0  0  0  0  0
  184.2400  173.6400  136.1320 N   0  0  0  0  0  2  0  0  0  0  0  0
  182.6430  172.4270  134.9400 O   0  0  0  0  0  1  0  0  0  0  0  0
  183.7160  172.3080  135.8320 C   0  0  1  0  0  0  0  0  0  0  0  0
  188.4270  171.8250  135.2440 C   0  0  0  0  0  1  0  0  0  0  0  0
  184.6160  169.9590  135.4460 C   0  0  0  0  0  2  0  0  0  0  0  0
  187.0660  171.2550  134.8780 C   0  0  2  0  0  3  0  0  0  0  0  0
  186.0900  171.8500  135.6960 O   0  0  0  0  0  0  0  0  0  0  0  0
  187.0860  169.7440  135.1020 C   0  0  0  0  0  2  0  0  0  0  0  0
  185.7200  169.1750  134.7400 C   0  0  0  0  0  2  0  0  0  0  0  0
  184.8290  171.4610  135.1950 C   0  0  2  0  0  3  0  0  0  0  0  0
  182.1060  171.5930  137.3130 O   0  0  0  0  0  0  0  0  0  0  0  0
  183.2690  171.6890  137.0600 N   0  0  0  0  0  0  0  0  0  0  0  0
  184.7500  176.4270  135.2700 N   0  0  0  0  0  2  0  0  0  0  0  0
  186.7530  177.6400  134.5850 C   0  0  0  0  0  3  0  0  0  0  0  0
  188.1430  177.7730  134.5630 C   0  0  0  0  0  3  0  0  0  0  0  0
  186.1780  176.5310  135.2190 C   0  0  0  0  0  0  0  0  0  0  0  0
  187.0020  175.5910  135.8410 C   0  0  0  0  0  3  0  0  0  0  0  0
  188.3860  175.7610  135.8000 C   0  0  0  0  0  3  0  0  0  0  0  0
  188.9200  176.8380  135.1670 N   0  0  0  0  0  0  0  0  0  0  0  0
  1  9  1  0  0  0  0
  2  3  2  0  0  0  0
  2  1  1  0  0  0  0
  3  8  1  0  0  0  0
  4  2  1  0  0  0  0
  5  7  2  0  0  0  0
  7  6  1  0  0  0  0
  8  7  1  0  0  0  0
  9 10  1  0  0  0  0
 10 11  1  0  0  0  0
 11 13  1  0  0  0  0
 12 13  1  0  0  0  0
 13 14  1  0  0  0  0
 13 16  1  0  0  0  0
 16 15  1  6  0  0  0
 16 17  1  0  0  0  0
 17 18  1  0  0  0  0
 19 18  1  0  0  0  0
 20 19  1  0  0  0  0
 21 20  1  0  0  0  0
 21 22  2  0  0  0  0
 23 21  1  0  0  0  0
 25 27  1  0  0  0  0
 26 27  1  0  0  0  0
 26 23  1  1  0  0  0
 29 24  1  1  0  0  0
 29 31  1  0  0  0  0
 29 30  1  0  0  0  0
 30 32  1  6  0  0  0
 30 26  1  0  0  0  0
 31 28  1  6  0  0  0
 31 25  1  0  0  0  0
 33 32  1  0  0  0  0
 34 33  1  0  0  0  0
 36 35  1  6  0  0  0
 36 38  1  0  0  0  0
 36 34  1  0  0  0  0
 37 36  1  0  0  0  0
 37 38  1  0  0  0  0
 39 54  1  6  0  0  0
 39  4  1  0  0  0  0
 41 39  1  0  0  0  0
 41 40  2  0  0  0  0
 42 41  1  0  0  0  0
 44 43  1  6  0  0  0
 44 42  1  0  0  0  0
 44 53  1  0  0  0  0
 47 49  1  0  0  0  0
 47 45  1  1  0  0  0
 47 48  1  0  0  0  0
 50 49  1  0  0  0  0
 50 46  1  0  0  0  0
 51 46  1  0  0  0  0
 51 48  1  0  0  0  0
 51 44  1  1  0  0  0
 53 52  2  0  0  0  0
 55 57  1  0  0  0  0
 56 55  2  0  0  0  0
 56 60  1  0  0  0  0
 57 54  1  0  0  0  0
 57 58  2  0  0  0  0
 59 58  1  0  0  0  0
 60 59  2  0  0  0  0
M  END
>  <MODEL>
1

>  <REMARK>
 VINA RESULT:      -5.5      0.000      0.000
  Name = 
  24 active torsions:
  status: ('A' for Active; 'I' for Inactive)
    1  A    between atoms: O_3  and  C_5
    2  A    between atoms: O_3  and  C_51
    3  A    between atoms: C_5  and  C_55
    4  A    between atoms: N_7  and  C_12
    5  A    between atoms: C_10  and  C_34
    6  A    between atoms: C_10  and  C_50
    7  A    between atoms: C_11  and  C_55
    8  A    between atoms: C_12  and  C_50
    9  A    between atoms: C_15  and  O_45
   10  A    between atoms: C_15  and  C_51
   11  A    between atoms: C_16  and  C_31
   12  A    between atoms: N_17  and  C_27
   13  A    between atoms: C_19  and  C_36
   14  A    between atoms: N_22  and  C_27
   15  A    between atoms: C_26  and  C_34
   16  A    between atoms: C_26  and  O_45
   17  A    between atoms: C_27  and  C_52
   18  A    between atoms: C_31  and  C_38
   19  A    between atoms: C_33  and  N_56
   20  A    between atoms: N_35  and  N_59
   21  A    between atoms: C_36  and  N_56
   22  A    between atoms: C_36  and  N_58
   23  A    between atoms: C_38  and  O_48
   24  A    between atoms: O_48  and  C_49
                            x       y       z     vdW  Elec       q    Type
                         _______ _______ _______ _____ _____    ______ ____

>  <TORSDO>
F 24

$$$$
=
 OpenBabel10232409223D

 60 63  0  0  1  0  0  0  0  0999 V2000
  185.9640  177.5350  143.0940 N   0  0  0  0  0  2  0  0  0  0  0  0
  185.0120  178.5890  143.3570 C   0  0  0  0  0  0  0  0  0  0  0  0
  185.0130  179.2920  144.4550 N   0  0  0  0  0  0  0  0  0  0  0  0
  183.9910  178.8580  142.3980 N   0  0  0  0  0  2  0  0  0  0  0  0
  184.3800  178.4680  147.0410 O   0  0  0  0  0  0  0  0  0  0  0  0
  186.5490  178.5470  147.7550 O   0  0  0  0  0  1  0  0  0  0  0  0
  185.5840  178.7140  146.7750 C   0  0  0  0  0  0  0  0  0  0  0  0
  185.9640  179.1510  145.4730 N   0  0  0  0  0  2  0  0  0  0  0  0
  187.0480  177.1400  143.9730 C   0  0  0  0  0  2  0  0  0  0  0  0
  188.3770  177.5630  143.4050 C   0  0  0  0  0  2  0  0  0  0  0  0
  188.3490  177.4880  141.8860 C   0  0  0  0  0  2  0  0  0  0  0  0
  189.9340  175.7330  142.2150 F   0  0  0  0  0  0  0  0  0  0  0  0
  189.5680  176.7420  141.3440 C   0  0  0  0  0  0  0  0  0  0  0  0
  189.2500  176.1890  140.1190 F   0  0  0  0  0  0  0  0  0  0  0  0
  191.9490  177.2700  141.9980 C   0  0  0  0  0  1  0  0  0  0  0  0
  190.7440  177.7080  141.1660 C   0  0  1  0  0  3  0  0  0  0  0  0
  191.1030  177.8120  139.8120 O   0  0  0  0  0  0  0  0  0  0  0  0
  192.3380  177.1610  139.7020 C   0  0  0  0  0  2  0  0  0  0  0  0
  192.3710  176.4030  138.3830 C   0  0  0  0  0  2  0  0  0  0  0  0
  193.6470  176.5220  137.7670 O   0  0  0  0  0  0  0  0  0  0  0  0
  194.3760  175.4010  137.3840 C   0  0  0  0  0  0  0  0  0  0  0  0
  195.5130  175.5160  136.8350 O   0  0  0  0  0  0  0  0  0  0  0  0
  193.7780  174.0520  137.5990 C   0  0  0  0  0  2  0  0  0  0  0  0
  195.8500  171.6950  134.5600 O   0  0  0  0  0  1  0  0  0  0  0  0
  195.9320  171.1310  137.4880 C   0  0  0  0  0  2  0  0  0  0  0  0
  194.6460  172.9460  137.0060 C   0  0  1  0  0  3  0  0  0  0  0  0
  194.9690  172.0130  138.0110 O   0  0  0  0  0  0  0  0  0  0  0  0
  196.2600  169.3740  135.9060 O   0  0  0  0  0  1  0  0  0  0  0  0
  194.7780  171.1450  135.2770 C   0  0  2  0  0  3  0  0  0  0  0  0
  193.8980  172.2570  135.8520 C   0  0  2  0  0  3  0  0  0  0  0  0
  195.3020  170.2520  136.4060 C   0  0  2  0  0  3  0  0  0  0  0  0
  193.5720  173.1850  134.8530 O   0  0  0  0  0  0  0  0  0  0  0  0
  192.2180  172.9630  134.5860 C   0  0  0  0  0  2  0  0  0  0  0  0
  191.4930  174.2820  134.3690 C   0  0  0  0  0  2  0  0  0  0  0  0
  190.2650  173.6260  136.6250 C   0  0  0  0  0  1  0  0  0  0  0  0
  190.4630  174.5800  135.4560 C   0  0  1  0  0  0  0  0  0  0  0  0
  190.1060  175.9990  135.6760 C   0  0  0  0  0  2  0  0  0  0  0  0
  189.2540  175.1150  134.9770 O   0  0  0  0  0  0  0  0  0  0  0  0
  183.8910  178.1710  141.1170 C   0  0  1  0  0  3  0  0  0  0  0  0
  181.5750  178.6600  141.3450 O   0  0  0  0  0  0  0  0  0  0  0  0
  182.4510  177.9260  140.8100 C   0  0  0  0  0  0  0  0  0  0  0  0
  182.0750  176.8940  139.8880 N   0  0  0  0  0  2  0  0  0  0  0  0
  180.0790  177.9800  139.3570 O   0  0  0  0  0  1  0  0  0  0  0  0
  180.7260  176.7380  139.3460 C   0  0  1  0  0  0  0  0  0  0  0  0
  180.6320  177.9300  134.7270 C   0  0  0  0  0  1  0  0  0  0  0  0
  182.0050  175.2510  137.7230 C   0  0  0  0  0  2  0  0  0  0  0  0
  180.7310  176.7730  135.7070 C   0  0  2  0  0  3  0  0  0  0  0  0
  180.9420  177.2890  136.9980 O   0  0  0  0  0  0  0  0  0  0  0  0
  181.9040  175.8810  135.3030 C   0  0  0  0  0  2  0  0  0  0  0  0
  182.0050  174.7240  136.2900 C   0  0  0  0  0  2  0  0  0  0  0  0
  180.8200  176.2140  137.9040 C   0  0  2  0  0  3  0  0  0  0  0  0
  180.3500  174.6600  140.2620 O   0  0  0  0  0  0  0  0  0  0  0  0
  179.9940  175.7950  140.1640 N   0  0  0  0  0  0  0  0  0  0  0  0
  184.5170  178.9770  140.0710 N   0  0  0  0  0  2  0  0  0  0  0  0
  186.5450  178.1720  138.9800 C   0  0  0  0  0  3  0  0  0  0  0  0
  187.1820  177.5910  137.8820 C   0  0  0  0  0  3  0  0  0  0  0  0
  185.1660  178.4170  138.9230 C   0  0  0  0  0  0  0  0  0  0  0  0
  184.4490  178.0550  137.7820 C   0  0  0  0  0  3  0  0  0  0  0  0
  185.1220  177.4730  136.7080 C   0  0  0  0  0  3  0  0  0  0  0  0
  186.4620  177.2570  136.7810 N   0  0  0  0  0  0  0  0  0  0  0  0
  1  2  1  0  0  0  0
  1  9  1  0  0  0  0
  2  3  2  0  0  0  0
  3  8  1  0  0  0  0
  4  2  1  0  0  0  0
  7  5  2  0  0  0  0
  7  6  1  0  0  0  0
  8  7  1  0  0  0  0
 10  9  1  0  0  0  0
 11 10  1  0  0  0  0
 13 11  1  0  0  0  0
 13 12  1  0  0  0  0
 14 13  1  0  0  0  0
 16 13  1  0  0  0  0
 16 15  1  1  0  0  0
 17 16  1  0  0  0  0
 18 17  1  0  0  0  0
 19 18  1  0  0  0  0
 20 19  1  0  0  0  0
 21 23  1  0  0  0  0
 21 20  1  0  0  0  0
 22 21  2  0  0  0  0
 25 27  1  0  0  0  0
 26 23  1  1  0  0  0
 26 27  1  0  0  0  0
 29 24  1  1  0  0  0
 29 30  1  0  0  0  0
 29 31  1  0  0  0  0
 30 32  1  6  0  0  0
 30 26  1  0  0  0  0
 31 28  1  6  0  0  0
 31 25  1  0  0  0  0
 33 32  1  0  0  0  0
 34 33  1  0  0  0  0
 34 36  1  0  0  0  0
 36 37  1  0  0  0  0
 36 35  1  1  0  0  0
 38 36  1  0  0  0  0
 38 37  1  0  0  0  0
 39 54  1  6  0  0  0
 39  4  1  0  0  0  0
 41 39  1  0  0  0  0
 41 40  2  0  0  0  0
 42 41  1  0  0  0  0
 44 43  1  1  0  0  0
 44 42  1  0  0  0  0
 44 53  1  0  0  0  0
 46 51  1  0  0  0  0
 47 45  1  6  0  0  0
 47 48  1  0  0  0  0
 48 51  1  0  0  0  0
 49 47  1  0  0  0  0
 49 50  1  0  0  0  0
 50 46  1  0  0  0  0
 51 44  1  1  0  0  0
 53 52  2  0  0  0  0
 56 55  2  0  0  0  0
 57 55  1  0  0  0  0
 57 54  1  0  0  0  0
 58 57  2  0  0  0  0
 59 60  2  0  0  0  0
 59 58  1  0  0  0  0
 60 56  1  0  0  0  0
M  END
>  <MODEL>
2

>  <REMARK>
 VINA RESULT:      -5.4      3.222      6.858
  Name = 
  24 active torsions:
  status: ('A' for Active; 'I' for Inactive)
    1  A    between atoms: O_3  and  C_5
    2  A    between atoms: O_3  and  C_51
    3  A    between atoms: C_5  and  C_55
    4  A    between atoms: N_7  and  C_12
    5  A    between atoms: C_10  and  C_34
    6  A    between atoms: C_10  and  C_50
    7  A    between atoms: C_11  and  C_55
    8  A    between atoms: C_12  and  C_50
    9  A    between atoms: C_15  and  O_45
   10  A    between atoms: C_15  and  C_51
   11  A    between atoms: C_16  and  C_31
   12  A    between atoms: N_17  and  C_27
   13  A    between atoms: C_19  and  C_36
   14  A    between atoms: N_22  and  C_27
   15  A    between atoms: C_26  and  C_34
   16  A    between atoms: C_26  and  O_45
   17  A    between atoms: C_27  and  C_52
   18  A    between atoms: C_31  and  C_38
   19  A    between atoms: C_33  and  N_56
   20  A    between atoms: N_35  and  N_59
   21  A    between atoms: C_36  and  N_56
   22  A    between atoms: C_36  and  N_58
   23  A    between atoms: C_38  and  O_48
   24  A    between atoms: O_48  and  C_49
                            x       y       z     vdW  Elec       q    Type
                         _______ _______ _______ _____ _____    ______ ____

>  <TORSDO>
F 24

$$$$
=
 OpenBabel10232409223D

 60 63  0  0  1  0  0  0  0  0999 V2000
  185.5410  178.0880  142.3190 N   0  0  0  0  0  2  0  0  0  0  0  0
  184.3460  178.6290  142.9260 C   0  0  0  0  0  0  0  0  0  0  0  0
  184.2870  179.0030  144.1730 N   0  0  0  0  0  0  0  0  0  0  0  0
  183.1550  178.7260  142.1460 N   0  0  0  0  0  2  0  0  0  0  0  0
  184.0790  178.3300  146.8690 O   0  0  0  0  0  0  0  0  0  0  0  0
  186.3180  178.5690  147.2540 O   0  0  0  0  0  1  0  0  0  0  0  0
  185.2160  178.6180  146.4170 C   0  0  0  0  0  0  0  0  0  0  0  0
  185.3790  178.9820  145.0480 N   0  0  0  0  0  2  0  0  0  0  0  0
  186.8190  177.9190  142.9830 C   0  0  0  0  0  2  0  0  0  0  0  0
  187.9530  178.0630  142.0020 C   0  0  0  0  0  2  0  0  0  0  0  0
  189.0360  177.0370  142.2940 C   0  0  0  0  0  2  0  0  0  0  0  0
  189.6310  178.7700  143.8250 F   0  0  0  0  0  0  0  0  0  0  0  0
  189.8830  177.4510  143.4970 C   0  0  0  0  0  0  0  0  0  0  0  0
  189.5600  176.6480  144.5740 F   0  0  0  0  0  0  0  0  0  0  0  0
  191.7480  175.8080  143.0500 C   0  0  0  0  0  1  0  0  0  0  0  0
  191.3730  177.2850  143.1800 C   0  0  1  0  0  3  0  0  0  0  0  0
  191.7120  177.9740  142.0040 O   0  0  0  0  0  0  0  0  0  0  0  0
  192.5300  177.0980  141.2800 C   0  0  0  0  0  2  0  0  0  0  0  0
  192.3290  177.3630  139.7950 C   0  0  0  0  0  2  0  0  0  0  0  0
  191.0720  176.8610  139.3600 O   0  0  0  0  0  0  0  0  0  0  0  0
  190.2380  177.6060  138.5330 C   0  0  0  0  0  0  0  0  0  0  0  0
  189.6440  178.6400  138.9620 O   0  0  0  0  0  0  0  0  0  0  0  0
  190.0250  177.1450  137.1300 C   0  0  0  0  0  2  0  0  0  0  0  0
  185.8790  175.7710  137.0920 O   0  0  0  0  0  1  0  0  0  0  0  0
  186.8960  178.1300  135.5750 C   0  0  0  0  0  2  0  0  0  0  0  0
  188.5450  177.1070  136.7650 C   0  0  1  0  0  3  0  0  0  0  0  0
  188.2900  178.0400  135.7410 O   0  0  0  0  0  0  0  0  0  0  0  0
  184.9770  176.9340  134.8100 O   0  0  0  0  0  1  0  0  0  0  0  0
  186.6710  175.6730  135.9390 C   0  0  2  0  0  3  0  0  0  0  0  0
  188.1550  175.6900  136.3120 C   0  0  2  0  0  3  0  0  0  0  0  0
  186.3550  176.8280  134.9830 C   0  0  2  0  0  3  0  0  0  0  0  0
  188.4120  174.7600  137.3280 O   0  0  0  0  0  0  0  0  0  0  0  0
  188.8080  173.5990  136.6600 C   0  0  0  0  0  2  0  0  0  0  0  0
  190.2880  173.3320  136.8820 C   0  0  0  0  0  2  0  0  0  0  0  0
  190.4900  174.0790  134.3460 C   0  0  0  0  0  1  0  0  0  0  0  0
  191.1320  173.5880  135.6360 C   0  0  1  0  0  0  0  0  0  0  0  0
  192.5610  173.9150  135.8440 C   0  0  0  0  0  2  0  0  0  0  0  0
  192.1420  172.6360  135.4140 O   0  0  0  0  0  0  0  0  0  0  0  0
  183.0880  178.3730  140.7350 C   0  0  1  0  0  3  0  0  0  0  0  0
  180.7990  177.7670  140.9580 O   0  0  0  0  0  0  0  0  0  0  0  0
  181.9380  177.4450  140.5220 C   0  0  0  0  0  0  0  0  0  0  0  0
  182.1230  176.2210  139.7980 N   0  0  0  0  0  2  0  0  0  0  0  0
  180.1840  176.1250  138.5040 O   0  0  0  0  0  1  0  0  0  0  0  0
  181.0250  175.3740  139.3340 C   0  0  1  0  0  0  0  0  0  0  0  0
  179.9860  171.6210  136.5780 C   0  0  0  0  0  1  0  0  0  0  0  0
  182.8030  174.6000  137.6850 C   0  0  0  0  0  2  0  0  0  0  0  0
  181.1060  172.3740  137.2760 C   0  0  2  0  0  3  0  0  0  0  0  0
  180.6070  173.6070  137.7330 O   0  0  0  0  0  0  0  0  0  0  0  0
  182.2420  172.6050  136.2820 C   0  0  0  0  0  2  0  0  0  0  0  0
  183.3610  173.3660  136.9820 C   0  0  0  0  0  2  0  0  0  0  0  0
  181.6020  174.1850  138.5500 C   0  0  2  0  0  3  0  0  0  0  0  0
  180.0650  173.7290  140.6280 O   0  0  0  0  0  0  0  0  0  0  0  0
  180.2840  174.8930  140.4810 N   0  0  0  0  0  0  0  0  0  0  0  0
  182.9380  179.5810  139.9280 N   0  0  0  0  0  2  0  0  0  0  0  0
  182.7190  178.5470  137.7290 C   0  0  0  0  0  3  0  0  0  0  0  0
  182.1550  178.5190  136.4520 C   0  0  0  0  0  3  0  0  0  0  0  0
  182.3840  179.5870  138.6060 C   0  0  0  0  0  0  0  0  0  0  0  0
  181.4740  180.5640  138.1990 C   0  0  0  0  0  3  0  0  0  0  0  0
  180.9300  180.5000  136.9170 C   0  0  0  0  0  3  0  0  0  0  0  0
  181.2800  179.4880  136.0790 N   0  0  0  0  0  0  0  0  0  0  0  0
  1  2  1  0  0  0  0
  1  9  1  0  0  0  0
  2  3  2  0  0  0  0
  3  8  1  0  0  0  0
  4  2  1  0  0  0  0
  7  5  2  0  0  0  0
  7  6  1  0  0  0  0
  8  7  1  0  0  0  0
 10 11  1  0  0  0  0
 10  9  1  0  0  0  0
 11 13  1  0  0  0  0
 13 12  1  0  0  0  0
 13 14  1  0  0  0  0
 16 15  1  6  0  0  0
 16 13  1  0  0  0  0
 17 16  1  0  0  0  0
 18 17  1  0  0  0  0
 19 18  1  0  0  0  0
 20 19  1  0  0  0  0
 21 22  2  0  0  0  0
 21 20  1  0  0  0  0
 23 21  1  0  0  0  0
 25 27  1  0  0  0  0
 26 23  1  6  0  0  0
 27 26  1  0  0  0  0
 29 30  1  0  0  0  0
 29 24  1  1  0  0  0
 30 26  1  0  0  0  0
 30 32  1  1  0  0  0
 31 28  1  1  0  0  0
 31 25  1  0  0  0  0
 31 29  1  0  0  0  0
 33 34  1  0  0  0  0
 33 32  1  0  0  0  0
 36 35  1  6  0  0  0
 36 37  1  0  0  0  0
 36 34  1  0  0  0  0
 38 36  1  0  0  0  0
 38 37  1  0  0  0  0
 39 54  1  6  0  0  0
 39  4  1  0  0  0  0
 41 39  1  0  0  0  0
 41 40  2  0  0  0  0
 42 41  1  0  0  0  0
 44 43  1  6  0  0  0
 44 42  1  0  0  0  0
 44 53  1  0  0  0  0
 46 51  1  0  0  0  0
 47 45  1  6  0  0  0
 47 48  1  0  0  0  0
 48 51  1  0  0  0  0
 49 50  1  0  0  0  0
 49 47  1  0  0  0  0
 50 46  1  0  0  0  0
 51 44  1  6  0  0  0
 53 52  2  0  0  0  0
 55 57  1  0  0  0  0
 56 55  2  0  0  0  0
 57 54  1  0  0  0  0
 58 57  2  0  0  0  0
 59 58  1  0  0  0  0
 60 56  1  0  0  0  0
 60 59  2  0  0  0  0
M  END
>  <MODEL>
3

>  <REMARK>
 VINA RESULT:      -5.2      2.796      5.755
  Name = 
  24 active torsions:
  status: ('A' for Active; 'I' for Inactive)
    1  A    between atoms: O_3  and  C_5
    2  A    between atoms: O_3  and  C_51
    3  A    between atoms: C_5  and  C_55
    4  A    between atoms: N_7  and  C_12
    5  A    between atoms: C_10  and  C_34
    6  A    between atoms: C_10  and  C_50
    7  A    between atoms: C_11  and  C_55
    8  A    between atoms: C_12  and  C_50
    9  A    between atoms: C_15  and  O_45
   10  A    between atoms: C_15  and  C_51
   11  A    between atoms: C_16  and  C_31
   12  A    between atoms: N_17  and  C_27
   13  A    between atoms: C_19  and  C_36
   14  A    between atoms: N_22  and  C_27
   15  A    between atoms: C_26  and  C_34
   16  A    between atoms: C_26  and  O_45
   17  A    between atoms: C_27  and  C_52
   18  A    between atoms: C_31  and  C_38
   19  A    between atoms: C_33  and  N_56
   20  A    between atoms: N_35  and  N_59
   21  A    between atoms: C_36  and  N_56
   22  A    between atoms: C_36  and  N_58
   23  A    between atoms: C_38  and  O_48
   24  A    between atoms: O_48  and  C_49
                            x       y       z     vdW  Elec       q    Type
                         _______ _______ _______ _____ _____    ______ ____

>  <TORSDO>
F 24

$$$$
=
 OpenBabel10232409223D

 60 63  0  0  1  0  0  0  0  0999 V2000
  184.3720  177.5890  137.8250 N   0  0  0  0  0  2  0  0  0  0  0  0
  184.5530  176.6340  136.7550 C   0  0  0  0  0  0  0  0  0  0  0  0
  185.7020  176.4170  136.1810 N   0  0  0  0  0  0  0  0  0  0  0  0
  183.4200  175.9180  136.2660 N   0  0  0  0  0  2  0  0  0  0  0  0
  188.0890  176.1570  134.7660 O   0  0  0  0  0  0  0  0  0  0  0  0
  189.2500  177.5230  136.1820 O   0  0  0  0  0  1  0  0  0  0  0  0
  188.0880  176.8740  135.7980 C   0  0  0  0  0  0  0  0  0  0  0  0
  186.8990  177.0320  136.5680 N   0  0  0  0  0  2  0  0  0  0  0  0
  185.4210  178.3960  138.4190 C   0  0  0  0  0  2  0  0  0  0  0  0
  184.8640  179.2760  139.5070 C   0  0  0  0  0  2  0  0  0  0  0  0
  184.5400  178.4480  140.7410 C   0  0  0  0  0  2  0  0  0  0  0  0
  186.1960  177.4900  142.1690 F   0  0  0  0  0  0  0  0  0  0  0  0
  185.5670  178.6780  141.8490 C   0  0  0  0  0  0  0  0  0  0  0  0
  186.5110  179.5850  141.4080 F   0  0  0  0  0  0  0  0  0  0  0  0
  183.3600  179.1150  142.9970 C   0  0  0  0  0  1  0  0  0  0  0  0
  184.8810  179.2400  143.0990 C   0  0  1  0  0  3  0  0  0  0  0  0
  185.3430  178.5910  144.2560 O   0  0  0  0  0  0  0  0  0  0  0  0
  185.1270  179.4960  145.3030 C   0  0  0  0  0  2  0  0  0  0  0  0
  184.3650  178.7830  146.4100 C   0  0  0  0  0  2  0  0  0  0  0  0
  185.2590  178.3080  147.4100 O   0  0  0  0  0  0  0  0  0  0  0  0
  186.6380  178.3950  147.2510 C   0  0  0  0  0  0  0  0  0  0  0  0
  187.3130  179.2790  147.8590 O   0  0  0  0  0  0  0  0  0  0  0  0
  187.3110  177.4460  146.3170 C   0  0  0  0  0  2  0  0  0  0  0  0
  191.5400  178.2100  145.5320 O   0  0  0  0  0  1  0  0  0  0  0  0
  190.4970  176.7360  147.9070 C   0  0  0  0  0  2  0  0  0  0  0  0
  188.8220  177.4210  146.5270 C   0  0  1  0  0  3  0  0  0  0  0  0
  189.1320  176.5750  147.6090 O   0  0  0  0  0  0  0  0  0  0  0  0
  192.6990  176.3110  147.0890 O   0  0  0  0  0  1  0  0  0  0  0  0
  191.0310  176.9040  145.4770 C   0  0  2  0  0  3  0  0  0  0  0  0
  189.5190  176.9340  145.2450 C   0  0  2  0  0  3  0  0  0  0  0  0
  191.3500  176.1590  146.7760 C   0  0  2  0  0  3  0  0  0  0  0  0
  189.2080  177.7720  144.1660 O   0  0  0  0  0  0  0  0  0  0  0  0
  190.0710  177.3740  143.1420 C   0  0  0  0  0  2  0  0  0  0  0  0
  189.2820  176.8480  141.9530 C   0  0  0  0  0  2  0  0  0  0  0  0
  191.3620  177.6840  140.5370 C   0  0  0  0  0  1  0  0  0  0  0  0
  189.9190  177.2050  140.6120 C   0  0  1  0  0  0  0  0  0  0  0  0
  189.3620  176.5530  139.4060 C   0  0  0  0  0  2  0  0  0  0  0  0
  189.0680  177.8950  139.7320 O   0  0  0  0  0  0  0  0  0  0  0  0
  182.0850  176.0400  136.8340 C   0  0  1  0  0  3  0  0  0  0  0  0
  180.0600  174.8330  136.5180 O   0  0  0  0  0  0  0  0  0  0  0  0
  181.3210  174.7900  136.5480 C   0  0  0  0  0  0  0  0  0  0  0  0
  182.0160  173.5670  136.2700 N   0  0  0  0  0  2  0  0  0  0  0  0
  180.5390  172.7160  134.6770 O   0  0  0  0  0  1  0  0  0  0  0  0
  181.3720  172.3630  135.7470 C   0  0  1  0  0  0  0  0  0  0  0  0
  186.0590  171.5170  135.4700 C   0  0  0  0  0  1  0  0  0  0  0  0
  182.1220  169.9330  135.6580 C   0  0  0  0  0  2  0  0  0  0  0  0
  184.6810  170.9990  135.0920 C   0  0  2  0  0  3  0  0  0  0  0  0
  183.7110  171.7410  135.7890 O   0  0  0  0  0  0  0  0  0  0  0  0
  184.5840  169.5230  135.4730 C   0  0  0  0  0  2  0  0  0  0  0  0
  183.2000  169.0080  135.0980 C   0  0  0  0  0  2  0  0  0  0  0  0
  182.4510  171.3820  135.2640 C   0  0  2  0  0  3  0  0  0  0  0  0
  180.8160  171.9810  137.9480 O   0  0  0  0  0  0  0  0  0  0  0  0
  180.5880  171.7520  136.7990 N   0  0  0  0  0  0  0  0  0  0  0  0
  182.1770  176.2770  138.2730 N   0  0  0  0  0  2  0  0  0  0  0  0
  181.0510  177.0290  140.3020 C   0  0  0  0  0  3  0  0  0  0  0  0
  180.3270  177.9980  140.9990 C   0  0  0  0  0  3  0  0  0  0  0  0
  181.4000  177.2610  138.9650 C   0  0  0  0  0  0  0  0  0  0  0  0
  181.0410  178.4670  138.3590 C   0  0  0  0  0  3  0  0  0  0  0  0
  180.3210  179.4110  139.0900 C   0  0  0  0  0  3  0  0  0  0  0  0
  179.9830  179.1580  140.3820 N   0  0  0  0  0  0  0  0  0  0  0  0
  1  9  1  0  0  0  0
  2  1  1  0  0  0  0
  3  8  1  0  0  0  0
  3  2  2  0  0  0  0
  4  2  1  0  0  0  0
  5  7  2  0  0  0  0
  7  6  1  0  0  0  0
  7  8  1  0  0  0  0
  9 10  1  0  0  0  0
 10 11  1  0  0  0  0
 11 13  1  0  0  0  0
 13 12  1  0  0  0  0
 13 16  1  0  0  0  0
 14 13  1  0  0  0  0
 16 15  1  6  0  0  0
 16 17  1  0  0  0  0
 17 18  1  0  0  0  0
 18 19  1  0  0  0  0
 19 20  1  0  0  0  0
 21 20  1  0  0  0  0
 21 22  2  0  0  0  0
 23 21  1  0  0  0  0
 26 23  1  6  0  0  0
 26 27  1  0  0  0  0
 27 25  1  0  0  0  0
 29 24  1  1  0  0  0
 29 31  1  0  0  0  0
 30 32  1  6  0  0  0
 30 29  1  0  0  0  0
 30 26  1  0  0  0  0
 31 28  1  1  0  0  0
 31 25  1  0  0  0  0
 33 32  1  0  0  0  0
 34 33  1  0  0  0  0
 36 35  1  6  0  0  0
 36 34  1  0  0  0  0
 37 38  1  0  0  0  0
 37 36  1  0  0  0  0
 38 36  1  0  0  0  0
 39  4  1  1  0  0  0
 39 54  1  0  0  0  0
 40 41  2  0  0  0  0
 41 39  1  0  0  0  0
 42 41  1  0  0  0  0
 44 43  1  6  0  0  0
 44 42  1  0  0  0  0
 44 53  1  0  0  0  0
 47 45  1  1  0  0  0
 47 49  1  0  0  0  0
 47 48  1  0  0  0  0
 50 49  1  0  0  0  0
 50 46  1  0  0  0  0
 51 46  1  0  0  0  0
 51 44  1  1  0  0  0
 51 48  1  0  0  0  0
 53 52  2  0  0  0  0
 54 57  1  0  0  0  0
 55 56  1  0  0  0  0
 57 55  2  0  0  0  0
 58 57  1  0  0  0  0
 58 59  2  0  0  0  0
 59 60  1  0  0  0  0
 60 56  2  0  0  0  0
M  END
>  <MODEL>
4

>  <REMARK>
 VINA RESULT:      -5.0      2.464      5.433
  Name = 
  24 active torsions:
  status: ('A' for Active; 'I' for Inactive)
    1  A    between atoms: O_3  and  C_5
    2  A    between atoms: O_3  and  C_51
    3  A    between atoms: C_5  and  C_55
    4  A    between atoms: N_7  and  C_12
    5  A    between atoms: C_10  and  C_34
    6  A    between atoms: C_10  and  C_50
    7  A    between atoms: C_11  and  C_55
    8  A    between atoms: C_12  and  C_50
    9  A    between atoms: C_15  and  O_45
   10  A    between atoms: C_15  and  C_51
   11  A    between atoms: C_16  and  C_31
   12  A    between atoms: N_17  and  C_27
   13  A    between atoms: C_19  and  C_36
   14  A    between atoms: N_22  and  C_27
   15  A    between atoms: C_26  and  C_34
   16  A    between atoms: C_26  and  O_45
   17  A    between atoms: C_27  and  C_52
   18  A    between atoms: C_31  and  C_38
   19  A    between atoms: C_33  and  N_56
   20  A    between atoms: N_35  and  N_59
   21  A    between atoms: C_36  and  N_56
   22  A    between atoms: C_36  and  N_58
   23  A    between atoms: C_38  and  O_48
   24  A    between atoms: O_48  and  C_49
                            x       y       z     vdW  Elec       q    Type
                         _______ _______ _______ _____ _____    ______ ____

>  <TORSDO>
F 24

$$$$
=
 OpenBabel10232409223D

 60 63  0  0  1  0  0  0  0  0999 V2000
  190.9470  177.9680  142.0610 N   0  0  0  0  0  2  0  0  0  0  0  0
  191.1070  176.5380  141.9300 C   0  0  0  0  0  0  0  0  0  0  0  0
  191.4360  175.7640  142.9250 N   0  0  0  0  0  0  0  0  0  0  0  0
  190.9400  175.9360  140.6470 N   0  0  0  0  0  2  0  0  0  0  0  0
  192.4280  174.1560  144.9740 O   0  0  0  0  0  0  0  0  0  0  0  0
  192.3370  175.8260  146.5290 O   0  0  0  0  0  1  0  0  0  0  0  0
  192.1360  175.3480  145.2450 C   0  0  0  0  0  0  0  0  0  0  0  0
  191.6130  176.2120  144.2390 N   0  0  0  0  0  2  0  0  0  0  0  0
  191.0930  178.7220  143.2910 C   0  0  0  0  0  2  0  0  0  0  0  0
  189.7450  179.0650  143.8700 C   0  0  0  0  0  2  0  0  0  0  0  0
  189.6310  178.5330  145.2900 C   0  0  0  0  0  2  0  0  0  0  0  0
  188.7950  176.3920  145.9380 F   0  0  0  0  0  0  0  0  0  0  0  0
  188.4110  177.6260  145.4460 C   0  0  0  0  0  0  0  0  0  0  0  0
  187.5240  178.2090  146.3300 F   0  0  0  0  0  0  0  0  0  0  0  0
  188.0060  176.0510  143.5130 C   0  0  0  0  0  1  0  0  0  0  0  0
  187.7160  177.4360  144.0940 C   0  0  1  0  0  3  0  0  0  0  0  0
  186.3300  177.6290  144.2140 O   0  0  0  0  0  0  0  0  0  0  0  0
  185.9470  178.3160  143.0550 C   0  0  0  0  0  2  0  0  0  0  0  0
  184.9040  179.3580  143.4330 C   0  0  0  0  0  2  0  0  0  0  0  0
  183.9840  179.5570  142.3670 O   0  0  0  0  0  0  0  0  0  0  0  0
  183.8690  178.6410  141.3260 C   0  0  0  0  0  0  0  0  0  0  0  0
  183.5700  177.4290  141.5500 O   0  0  0  0  0  0  0  0  0  0  0  0
  184.1420  179.1020  139.9340 C   0  0  0  0  0  2  0  0  0  0  0  0
  180.9240  177.2120  137.6630 O   0  0  0  0  0  1  0  0  0  0  0  0
  181.3150  180.1590  137.9150 C   0  0  0  0  0  2  0  0  0  0  0  0
  182.9060  178.9890  139.0460 C   0  0  1  0  0  3  0  0  0  0  0  0
  182.5660  180.2620  138.5510 O   0  0  0  0  0  0  0  0  0  0  0  0
  180.2040  179.2430  136.0110 O   0  0  0  0  0  1  0  0  0  0  0  0
  181.9380  177.9230  137.0030 C   0  0  2  0  0  3  0  0  0  0  0  0
  183.1830  178.0150  137.8880 C   0  0  2  0  0  3  0  0  0  0  0  0
  181.4450  179.3270  136.6390 C   0  0  2  0  0  3  0  0  0  0  0  0
  183.5260  176.7490  138.3800 O   0  0  0  0  0  0  0  0  0  0  0  0
  184.1000  176.0850  137.2930 C   0  0  0  0  0  2  0  0  0  0  0  0
  183.8930  174.5840  137.4130 C   0  0  0  0  0  2  0  0  0  0  0  0
  186.0280  173.0140  137.4890 C   0  0  0  0  0  1  0  0  0  0  0  0
  184.9730  173.7760  136.6990 C   0  0  1  0  0  0  0  0  0  0  0  0
  184.6560  173.2750  135.3430 C   0  0  0  0  0  2  0  0  0  0  0  0
  185.4940  174.3930  135.5480 O   0  0  0  0  0  0  0  0  0  0  0  0
  190.5430  176.6770  139.4570 C   0  0  1  0  0  3  0  0  0  0  0  0
  191.5370  177.1950  137.3600 O   0  0  0  0  0  0  0  0  0  0  0  0
  191.5750  176.4780  138.3970 C   0  0  0  0  0  0  0  0  0  0  0  0
  192.6180  175.5090  138.5770 N   0  0  0  0  0  2  0  0  0  0  0  0
  194.9280  175.1840  138.5130 O   0  0  0  0  0  1  0  0  0  0  0  0
  193.7970  175.4120  137.7180 C   0  0  1  0  0  0  0  0  0  0  0  0
  195.2010  171.0040  136.5500 C   0  0  0  0  0  1  0  0  0  0  0  0
  192.1230  173.9300  136.5010 C   0  0  0  0  0  2  0  0  0  0  0  0
  194.3080  172.1670  136.1520 C   0  0  2  0  0  3  0  0  0  0  0  0
  194.2690  173.0920  137.2100 O   0  0  0  0  0  0  0  0  0  0  0  0
  192.9040  171.6380  135.8670 C   0  0  0  0  0  2  0  0  0  0  0  0
  192.0080  172.8060  135.4740 C   0  0  0  0  0  2  0  0  0  0  0  0
  193.6090  174.2460  136.7350 C   0  0  2  0  0  3  0  0  0  0  0  0
  194.7230  176.7380  136.0810 O   0  0  0  0  0  0  0  0  0  0  0  0
  193.9510  176.6510  136.9860 N   0  0  0  0  0  0  0  0  0  0  0  0
  189.2330  176.2190  139.0020 N   0  0  0  0  0  2  0  0  0  0  0  0
  188.4200  176.3580  136.7060 C   0  0  0  0  0  3  0  0  0  0  0  0
  187.6420  176.9840  135.7310 C   0  0  0  0  0  3  0  0  0  0  0  0
  188.4630  176.8940  138.0000 C   0  0  0  0  0  0  0  0  0  0  0  0
  187.7090  178.0310  138.2990 C   0  0  0  0  0  3  0  0  0  0  0  0
  186.9420  178.6250  137.2970 C   0  0  0  0  0  3  0  0  0  0  0  0
  186.9270  178.0940  136.0460 N   0  0  0  0  0  0  0  0  0  0  0  0
  1  9  1  0  0  0  0
  2  1  1  0  0  0  0
  2  3  2  0  0  0  0
  3  8  1  0  0  0  0
  4  2  1  0  0  0  0
  5  7  2  0  0  0  0
  7  6  1  0  0  0  0
  8  7  1  0  0  0  0
  9 10  1  0  0  0  0
 10 11  1  0  0  0  0
 11 13  1  0  0  0  0
 13 12  1  0  0  0  0
 13 14  1  0  0  0  0
 16 15  1  1  0  0  0
 16 17  1  0  0  0  0
 16 13  1  0  0  0  0
 18 19  1  0  0  0  0
 18 17  1  0  0  0  0
 20 19  1  0  0  0  0
 21 22  2  0  0  0  0
 21 20  1  0  0  0  0
 23 21  1  0  0  0  0
 25 27  1  0  0  0  0
 26 23  1  1  0  0  0
 27 26  1  0  0  0  0
 29 24  1  1  0  0  0
 29 30  1  0  0  0  0
 30 32  1  1  0  0  0
 30 26  1  0  0  0  0
 31 28  1  1  0  0  0
 31 29  1  0  0  0  0
 31 25  1  0  0  0  0
 33 34  1  0  0  0  0
 33 32  1  0  0  0  0
 36 34  1  0  0  0  0
 36 35  1  1  0  0  0
 37 38  1  0  0  0  0
 37 36  1  0  0  0  0
 38 36  1  0  0  0  0
 39 41  1  6  0  0  0
 39  4  1  0  0  0  0
 40 41  2  0  0  0  0
 41 42  1  0  0  0  0
 44 43  1  1  0  0  0
 44 42  1  0  0  0  0
 46 51  1  0  0  0  0
 47 45  1  1  0  0  0
 47 48  1  0  0  0  0
 49 47  1  0  0  0  0
 50 49  1  0  0  0  0
 50 46  1  0  0  0  0
 51 48  1  0  0  0  0
 51 44  1  1  0  0  0
 52 53  2  0  0  0  0
 53 44  1  0  0  0  0
 54 39  1  0  0  0  0
 55 57  1  0  0  0  0
 56 60  1  0  0  0  0
 56 55  2  0  0  0  0
 57 58  2  0  0  0  0
 57 54  1  0  0  0  0
 59 58  1  0  0  0  0
 60 59  2  0  0  0  0
M  END
>  <MODEL>
5

>  <REMARK>
 VINA RESULT:      -5.0      3.152      8.217
  Name = 
  24 active torsions:
  status: ('A' for Active; 'I' for Inactive)
    1  A    between atoms: O_3  and  C_5
    2  A    between atoms: O_3  and  C_51
    3  A    between atoms: C_5  and  C_55
    4  A    between atoms: N_7  and  C_12
    5  A    between atoms: C_10  and  C_34
    6  A    between atoms: C_10  and  C_50
    7  A    between atoms: C_11  and  C_55
    8  A    between atoms: C_12  and  C_50
    9  A    between atoms: C_15  and  O_45
   10  A    between atoms: C_15  and  C_51
   11  A    between atoms: C_16  and  C_31
   12  A    between atoms: N_17  and  C_27
   13  A    between atoms: C_19  and  C_36
   14  A    between atoms: N_22  and  C_27
   15  A    between atoms: C_26  and  C_34
   16  A    between atoms: C_26  and  O_45
   17  A    between atoms: C_27  and  C_52
   18  A    between atoms: C_31  and  C_38
   19  A    between atoms: C_33  and  N_56
   20  A    between atoms: N_35  and  N_59
   21  A    between atoms: C_36  and  N_56
   22  A    between atoms: C_36  and  N_58
   23  A    between atoms: C_38  and  O_48
   24  A    between atoms: O_48  and  C_49
                            x       y       z     vdW  Elec       q    Type
                         _______ _______ _______ _____ _____    ______ ____

>  <TORSDO>
F 24

$$$$
=
 OpenBabel10232409223D

 60 63  0  0  1  0  0  0  0  0999 V2000
  187.9610  178.2240  139.7110 N   0  0  0  0  0  2  0  0  0  0  0  0
  188.5900  177.7310  140.9150 C   0  0  0  0  0  0  0  0  0  0  0  0
  189.8700  177.5010  141.0080 N   0  0  0  0  0  0  0  0  0  0  0  0
  187.7790  177.4390  142.0510 N   0  0  0  0  0  2  0  0  0  0  0  0
  190.7240  175.5660  139.1930 O   0  0  0  0  0  1  0  0  0  0  0  0
  192.0600  177.0210  138.0450 O   0  0  0  0  0  0  0  0  0  0  0  0
  191.1790  176.7320  139.0740 C   0  0  0  0  0  0  0  0  0  0  0  0
  190.7870  177.7580  139.9820 N   0  0  0  0  0  2  0  0  0  0  0  0
  188.6490  178.5560  138.4780 C   0  0  0  0  0  2  0  0  0  0  0  0
  187.7720  178.2730  137.2860 C   0  0  0  0  0  2  0  0  0  0  0  0
  187.1480  176.8920  137.4070 C   0  0  0  0  0  2  0  0  0  0  0  0
  186.0730  175.7670  135.5960 F   0  0  0  0  0  0  0  0  0  0  0  0
  187.3120  176.0930  136.1150 C   0  0  0  0  0  0  0  0  0  0  0  0
  188.0000  176.8600  135.1940 F   0  0  0  0  0  0  0  0  0  0  0  0
  187.6710  173.6870  135.4360 C   0  0  0  0  0  1  0  0  0  0  0  0
  188.1020  174.8080  136.3830 C   0  0  1  0  0  3  0  0  0  0  0  0
  189.4820  175.0360  136.2650 O   0  0  0  0  0  0  0  0  0  0  0  0
  189.8760  174.3550  135.1070 C   0  0  0  0  0  2  0  0  0  0  0  0
  191.0820  175.0670  134.5120 C   0  0  0  0  0  2  0  0  0  0  0  0
  192.2610  174.2910  134.6850 O   0  0  0  0  0  0  0  0  0  0  0  0
  193.2560  174.6720  135.5800 C   0  0  0  0  0  0  0  0  0  0  0  0
  194.1790  175.4680  135.2310 O   0  0  0  0  0  0  0  0  0  0  0  0
  193.2400  174.0950  136.9550 C   0  0  0  0  0  2  0  0  0  0  0  0
  195.6210  170.6570  138.2170 O   0  0  0  0  0  1  0  0  0  0  0  0
  193.5930  170.6020  136.0300 C   0  0  0  0  0  2  0  0  0  0  0  0
  193.7700  172.6640  136.9760 C   0  0  1  0  0  3  0  0  0  0  0  0
  193.2600  171.9590  135.8690 O   0  0  0  0  0  0  0  0  0  0  0  0
  195.4190  169.0650  136.0270 O   0  0  0  0  0  1  0  0  0  0  0  0
  195.8210  171.2360  136.9550 C   0  0  2  0  0  3  0  0  0  0  0  0
  195.3080  172.6770  136.9450 C   0  0  2  0  0  3  0  0  0  0  0  0
  195.1030  170.4140  135.8800 C   0  0  2  0  0  3  0  0  0  0  0  0
  195.8160  173.3820  138.0440 O   0  0  0  0  0  0  0  0  0  0  0  0
  196.7460  174.2720  137.4990 C   0  0  0  0  0  2  0  0  0  0  0  0
  198.1450  173.6800  137.5500 C   0  0  0  0  0  2  0  0  0  0  0  0
  198.0960  173.6150  134.9000 C   0  0  0  0  0  1  0  0  0  0  0  0
  198.8670  173.7420  136.2060 C   0  0  1  0  0  0  0  0  0  0  0  0
  200.1490  174.4800  136.1620 C   0  0  0  0  0  2  0  0  0  0  0  0
  200.1010  173.0690  136.1790 O   0  0  0  0  0  0  0  0  0  0  0  0
  186.3430  177.6770  142.0970 C   0  0  1  0  0  3  0  0  0  0  0  0
  184.7770  178.4090  143.7300 O   0  0  0  0  0  0  0  0  0  0  0  0
  185.9520  178.0140  143.4970 C   0  0  0  0  0  0  0  0  0  0  0  0
  186.8930  177.8510  144.5680 N   0  0  0  0  0  2  0  0  0  0  0  0
  185.5110  177.0030  146.2470 O   0  0  0  0  0  1  0  0  0  0  0  0
  186.5360  177.9210  145.9840 C   0  0  1  0  0  0  0  0  0  0  0  0
  191.2080  176.9600  145.9000 C   0  0  0  0  0  1  0  0  0  0  0  0
  187.8900  178.4940  148.0620 C   0  0  0  0  0  2  0  0  0  0  0  0
  189.9820  177.0770  146.7900 C   0  0  2  0  0  3  0  0  0  0  0  0
  188.9430  177.6740  146.0550 O   0  0  0  0  0  0  0  0  0  0  0  0
  190.3300  177.9410  148.0000 C   0  0  0  0  0  2  0  0  0  0  0  0
  189.0980  178.0620  148.8890 C   0  0  0  0  0  2  0  0  0  0  0  0
  187.7700  177.5780  146.8330 C   0  0  2  0  0  3  0  0  0  0  0  0
  184.9220  179.5150  146.3810 O   0  0  0  0  0  0  0  0  0  0  0  0
  186.0850  179.2620  146.2920 N   0  0  0  0  0  0  0  0  0  0  0  0
  185.9900  178.7600  141.1820 N   0  0  0  0  0  2  0  0  0  0  0  0
  183.8390  177.7650  140.6030 C   0  0  0  0  0  3  0  0  0  0  0  0
  182.6410  177.7970  139.8860 C   0  0  0  0  0  3  0  0  0  0  0  0
  184.7830  178.7830  140.4110 C   0  0  0  0  0  0  0  0  0  0  0  0
  184.5000  179.8260  139.5260 C   0  0  0  0  0  3  0  0  0  0  0  0
  183.2910  179.8230  138.8320 C   0  0  0  0  0  3  0  0  0  0  0  0
  182.3970  178.8180  139.0250 N   0  0  0  0  0  0  0  0  0  0  0  0
  1  2  1  0  0  0  0
  2  3  2  0  0  0  0
  2  4  1  0  0  0  0
  4 39  1  0  0  0  0
  6  7  2  0  0  0  0
  7  5  1  0  0  0  0
  7  8  1  0  0  0  0
  8  3  1  0  0  0  0
  9  1  1  0  0  0  0
 10 11  1  0  0  0  0
 10  9  1  0  0  0  0
 12 13  1  0  0  0  0
 13 16  1  0  0  0  0
 13 11  1  0  0  0  0
 14 13  1  0  0  0  0
 16 15  1  6  0  0  0
 17 16  1  0  0  0  0
 18 17  1  0  0  0  0
 19 20  1  0  0  0  0
 19 18  1  0  0  0  0
 20 21  1  0  0  0  0
 21 23  1  0  0  0  0
 22 21  2  0  0  0  0
 26 23  1  6  0  0  0
 27 25  1  0  0  0  0
 27 26  1  0  0  0  0
 29 24  1  1  0  0  0
 30 29  1  0  0  0  0
 30 26  1  0  0  0  0
 30 32  1  1  0  0  0
 31 28  1  1  0  0  0
 31 25  1  0  0  0  0
 31 29  1  0  0  0  0
 33 34  1  0  0  0  0
 33 32  1  0  0  0  0
 36 35  1  6  0  0  0
 36 34  1  0  0  0  0
 37 38  1  0  0  0  0
 37 36  1  0  0  0  0
 38 36  1  0  0  0  0
 39 54  1  6  0  0  0
 39 41  1  0  0  0  0
 41 40  2  0  0  0  0
 41 42  1  0  0  0  0
 42 44  1  0  0  0  0
 44 43  1  1  0  0  0
 44 53  1  0  0  0  0
 46 50  1  0  0  0  0
 47 45  1  6  0  0  0
 47 49  1  0  0  0  0
 48 47  1  0  0  0  0
 48 51  1  0  0  0  0
 49 50  1  0  0  0  0
 51 44  1  6  0  0  0
 51 46  1  0  0  0  0
 53 52  2  0  0  0  0
 56 55  2  0  0  0  0
 57 55  1  0  0  0  0
 57 54  1  0  0  0  0
 58 57  2  0  0  0  0
 59 60  2  0  0  0  0
 59 58  1  0  0  0  0
 60 56  1  0  0  0  0
M  END
>  <MODEL>
6

>  <REMARK>
 VINA RESULT:      -4.9      3.819      9.537
  Name = 
  24 active torsions:
  status: ('A' for Active; 'I' for Inactive)
    1  A    between atoms: O_3  and  C_5
    2  A    between atoms: O_3  and  C_51
    3  A    between atoms: C_5  and  C_55
    4  A    between atoms: N_7  and  C_12
    5  A    between atoms: C_10  and  C_34
    6  A    between atoms: C_10  and  C_50
    7  A    between atoms: C_11  and  C_55
    8  A    between atoms: C_12  and  C_50
    9  A    between atoms: C_15  and  O_45
   10  A    between atoms: C_15  and  C_51
   11  A    between atoms: C_16  and  C_31
   12  A    between atoms: N_17  and  C_27
   13  A    between atoms: C_19  and  C_36
   14  A    between atoms: N_22  and  C_27
   15  A    between atoms: C_26  and  C_34
   16  A    between atoms: C_26  and  O_45
   17  A    between atoms: C_27  and  C_52
   18  A    between atoms: C_31  and  C_38
   19  A    between atoms: C_33  and  N_56
   20  A    between atoms: N_35  and  N_59
   21  A    between atoms: C_36  and  N_56
   22  A    between atoms: C_36  and  N_58
   23  A    between atoms: C_38  and  O_48
   24  A    between atoms: O_48  and  C_49
                            x       y       z     vdW  Elec       q    Type
                         _______ _______ _______ _____ _____    ______ ____

>  <TORSDO>
F 24

$$$$
=
 OpenBabel10232409223D

 60 63  0  0  1  0  0  0  0  0999 V2000
  185.3830  178.0840  141.3900 N   0  0  0  0  0  2  0  0  0  0  0  0
  183.9820  178.3630  141.6070 C   0  0  0  0  0  0  0  0  0  0  0  0
  183.5360  178.9970  142.6550 N   0  0  0  0  0  0  0  0  0  0  0  0
  183.0250  177.8920  140.6600 N   0  0  0  0  0  2  0  0  0  0  0  0
  183.8490  177.8340  145.1680 O   0  0  0  0  0  0  0  0  0  0  0  0
  185.3380  179.4150  145.8770 O   0  0  0  0  0  1  0  0  0  0  0  0
  184.4900  178.8860  144.9180 C   0  0  0  0  0  0  0  0  0  0  0  0
  184.3580  179.5320  143.6540 N   0  0  0  0  0  2  0  0  0  0  0  0
  186.4670  178.4870  142.2650 C   0  0  0  0  0  2  0  0  0  0  0  0
  187.7450  178.6580  141.4870 C   0  0  0  0  0  2  0  0  0  0  0  0
  188.6880  177.4970  141.7610 C   0  0  0  0  0  2  0  0  0  0  0  0
  189.5120  179.0950  143.3340 F   0  0  0  0  0  0  0  0  0  0  0  0
  189.5310  177.7500  143.0110 C   0  0  0  0  0  0  0  0  0  0  0  0
  189.0070  177.0250  144.0630 F   0  0  0  0  0  0  0  0  0  0  0  0
  191.2530  175.9460  143.4080 C   0  0  0  0  0  1  0  0  0  0  0  0
  190.9790  177.3090  142.7710 C   0  0  1  0  0  3  0  0  0  0  0  0
  191.2670  177.2670  141.3980 O   0  0  0  0  0  0  0  0  0  0  0  0
  192.6650  177.2340  141.3100 C   0  0  0  0  0  2  0  0  0  0  0  0
  193.0590  177.2640  139.8410 C   0  0  0  0  0  2  0  0  0  0  0  0
  192.2330  176.3910  139.0810 O   0  0  0  0  0  0  0  0  0  0  0  0
  191.9190  176.6620  137.7530 C   0  0  0  0  0  0  0  0  0  0  0  0
  190.7770  177.1060  137.4280 O   0  0  0  0  0  0  0  0  0  0  0  0
  192.9440  176.3840  136.7050 C   0  0  0  0  0  2  0  0  0  0  0  0
  194.1680  172.1950  136.8920 O   0  0  0  0  0  1  0  0  0  0  0  0
  192.1510  173.2870  134.9840 C   0  0  0  0  0  2  0  0  0  0  0  0
  192.9990  174.9020  136.3450 C   0  0  1  0  0  3  0  0  0  0  0  0
  192.2550  174.6770  135.1700 O   0  0  0  0  0  0  0  0  0  0  0  0
  193.4020  171.3300  134.4350 O   0  0  0  0  0  1  0  0  0  0  0  0
  194.4960  172.9830  135.7780 C   0  0  2  0  0  3  0  0  0  0  0  0
  194.4610  174.4670  136.1490 C   0  0  2  0  0  3  0  0  0  0  0  0
  193.5200  172.7040  134.6310 C   0  0  2  0  0  3  0  0  0  0  0  0
  195.2030  174.6940  137.3160 O   0  0  0  0  0  0  0  0  0  0  0  0
  196.4310  175.1870  136.8690 C   0  0  0  0  0  2  0  0  0  0  0  0
  197.5790  174.4730  137.5650 C   0  0  0  0  0  2  0  0  0  0  0  0
  199.3360  174.3700  135.5820 C   0  0  0  0  0  1  0  0  0  0  0  0
  198.4500  173.6690  136.6030 C   0  0  1  0  0  0  0  0  0  0  0  0
  198.8630  172.3160  137.0370 C   0  0  0  0  0  2  0  0  0  0  0  0
  197.8340  172.5150  136.0900 O   0  0  0  0  0  0  0  0  0  0  0  0
  183.3860  177.1970  139.4310 C   0  0  1  0  0  3  0  0  0  0  0  0
  181.0680  177.1190  138.9050 O   0  0  0  0  0  0  0  0  0  0  0  0
  182.1750  176.5140  138.8880 C   0  0  0  0  0  0  0  0  0  0  0  0
  182.2800  175.2010  138.3190 N   0  0  0  0  0  2  0  0  0  0  0  0
  180.4020  175.5420  136.9780 O   0  0  0  0  0  1  0  0  0  0  0  0
  181.2150  174.5570  137.5530 C   0  0  1  0  0  0  0  0  0  0  0  0
  185.2830  173.2290  135.4440 C   0  0  0  0  0  1  0  0  0  0  0  0
  181.2740  172.2610  136.4570 C   0  0  0  0  0  2  0  0  0  0  0  0
  183.7700  173.0920  135.4170 C   0  0  2  0  0  3  0  0  0  0  0  0
  183.2430  173.6430  136.5980 O   0  0  0  0  0  0  0  0  0  0  0  0
  183.4090  171.6100  135.3250 C   0  0  0  0  0  2  0  0  0  0  0  0
  181.8920  171.4740  135.3030 C   0  0  0  0  0  2  0  0  0  0  0  0
  181.8410  173.6900  136.4500 C   0  0  2  0  0  3  0  0  0  0  0  0
  179.9920  174.1650  139.4640 O   0  0  0  0  0  0  0  0  0  0  0  0
  180.4290  173.7290  138.4420 N   0  0  0  0  0  0  0  0  0  0  0  0
  183.9270  178.1480  138.4630 N   0  0  0  0  0  2  0  0  0  0  0  0
  186.2040  178.5280  137.6730 C   0  0  0  0  0  3  0  0  0  0  0  0
  187.2610  178.2050  136.8210 C   0  0  0  0  0  3  0  0  0  0  0  0
  184.9910  177.8350  137.5560 C   0  0  0  0  0  0  0  0  0  0  0  0
  184.8690  176.8170  136.6090 C   0  0  0  0  0  3  0  0  0  0  0  0
  185.9500  176.5230  135.7780 C   0  0  0  0  0  3  0  0  0  0  0  0
  187.1120  177.2180  135.9020 N   0  0  0  0  0  0  0  0  0  0  0  0
  1  2  1  0  0  0  0
  1  9  1  0  0  0  0
  2  3  2  0  0  0  0
  3  8  1  0  0  0  0
  4  2  1  0  0  0  0
  7  5  2  0  0  0  0
  7  6  1  0  0  0  0
  8  7  1  0  0  0  0
 10 11  1  0  0  0  0
 10  9  1  0  0  0  0
 11 13  1  0  0  0  0
 13 12  1  0  0  0  0
 13 14  1  0  0  0  0
 16 13  1  0  0  0  0
 16 15  1  6  0  0  0
 17 16  1  0  0  0  0
 18 17  1  0  0  0  0
 19 18  1  0  0  0  0
 20 19  1  0  0  0  0
 21 20  1  0  0  0  0
 22 21  2  0  0  0  0
 23 21  1  0  0  0  0
 25 27  1  0  0  0  0
 26 23  1  6  0  0  0
 27 26  1  0  0  0  0
 29 30  1  0  0  0  0
 29 24  1  1  0  0  0
 30 26  1  0  0  0  0
 30 32  1  1  0  0  0
 31 28  1  1  0  0  0
 31 25  1  0  0  0  0
 31 29  1  0  0  0  0
 33 32  1  0  0  0  0
 33 34  1  0  0  0  0
 36 35  1  6  0  0  0
 36 37  1  0  0  0  0
 36 34  1  0  0  0  0
 38 36  1  0  0  0  0
 38 37  1  0  0  0  0
 39 54  1  6  0  0  0
 39  4  1  0  0  0  0
 41 40  2  0  0  0  0
 41 39  1  0  0  0  0
 42 41  1  0  0  0  0
 44 43  1  6  0  0  0
 44 42  1  0  0  0  0
 44 53  1  0  0  0  0
 47 45  1  1  0  0  0
 47 48  1  0  0  0  0
 49 47  1  0  0  0  0
 50 49  1  0  0  0  0
 50 46  1  0  0  0  0
 51 46  1  0  0  0  0
 51 48  1  0  0  0  0
 51 44  1  1  0  0  0
 53 52  2  0  0  0  0
 56 55  2  0  0  0  0
 57 55  1  0  0  0  0
 57 54  1  0  0  0  0
 58 57  2  0  0  0  0
 59 60  2  0  0  0  0
 59 58  1  0  0  0  0
 60 56  1  0  0  0  0
M  END
>  <MODEL>
7

>  <REMARK>
 VINA RESULT:      -4.4      2.831      5.293
  Name = 
  24 active torsions:
  status: ('A' for Active; 'I' for Inactive)
    1  A    between atoms: O_3  and  C_5
    2  A    between atoms: O_3  and  C_51
    3  A    between atoms: C_5  and  C_55
    4  A    between atoms: N_7  and  C_12
    5  A    between atoms: C_10  and  C_34
    6  A    between atoms: C_10  and  C_50
    7  A    between atoms: C_11  and  C_55
    8  A    between atoms: C_12  and  C_50
    9  A    between atoms: C_15  and  O_45
   10  A    between atoms: C_15  and  C_51
   11  A    between atoms: C_16  and  C_31
   12  A    between atoms: N_17  and  C_27
   13  A    between atoms: C_19  and  C_36
   14  A    between atoms: N_22  and  C_27
   15  A    between atoms: C_26  and  C_34
   16  A    between atoms: C_26  and  O_45
   17  A    between atoms: C_27  and  C_52
   18  A    between atoms: C_31  and  C_38
   19  A    between atoms: C_33  and  N_56
   20  A    between atoms: N_35  and  N_59
   21  A    between atoms: C_36  and  N_56
   22  A    between atoms: C_36  and  N_58
   23  A    between atoms: C_38  and  O_48
   24  A    between atoms: O_48  and  C_49
                            x       y       z     vdW  Elec       q    Type
                         _______ _______ _______ _____ _____    ______ ____

>  <TORSDO>
F 24

$$$$
=
 OpenBabel10232409223D

 60 63  0  0  1  0  0  0  0  0999 V2000
  185.5790  178.0870  142.3320 N   0  0  0  0  0  2  0  0  0  0  0  0
  184.3720  178.6300  142.9100 C   0  0  0  0  0  0  0  0  0  0  0  0
  184.2860  179.0070  144.1550 N   0  0  0  0  0  0  0  0  0  0  0  0
  183.1990  178.7250  142.1050 N   0  0  0  0  0  2  0  0  0  0  0  0
  184.0570  178.1500  146.7970 O   0  0  0  0  0  0  0  0  0  0  0  0
  186.2710  178.4820  147.2520 O   0  0  0  0  0  1  0  0  0  0  0  0
  185.1860  178.5260  146.3920 C   0  0  0  0  0  0  0  0  0  0  0  0
  185.3580  178.9870  145.0540 N   0  0  0  0  0  2  0  0  0  0  0  0
  186.8430  177.9180  143.0240 C   0  0  0  0  0  2  0  0  0  0  0  0
  187.9970  178.0180  142.0600 C   0  0  0  0  0  2  0  0  0  0  0  0
  189.0360  176.9530  142.3710 C   0  0  0  0  0  2  0  0  0  0  0  0
  189.6610  178.6820  143.8950 F   0  0  0  0  0  0  0  0  0  0  0  0
  189.9320  177.3750  143.5350 C   0  0  0  0  0  0  0  0  0  0  0  0
  189.6890  176.5490  144.6150 F   0  0  0  0  0  0  0  0  0  0  0  0
  191.8190  175.7920  142.9740 C   0  0  0  0  0  1  0  0  0  0  0  0
  191.4080  177.2560  143.1380 C   0  0  1  0  0  3  0  0  0  0  0  0
  191.6650  177.9660  141.9540 O   0  0  0  0  0  0  0  0  0  0  0  0
  192.6530  177.2330  141.2850 C   0  0  0  0  0  2  0  0  0  0  0  0
  192.4440  177.3910  139.7870 C   0  0  0  0  0  2  0  0  0  0  0  0
  191.2530  176.7330  139.3730 O   0  0  0  0  0  0  0  0  0  0  0  0
  190.3100  177.3720  138.5740 C   0  0  0  0  0  0  0  0  0  0  0  0
  189.4040  178.0970  139.0840 O   0  0  0  0  0  0  0  0  0  0  0  0
  190.3610  177.1590  137.0990 C   0  0  0  0  0  2  0  0  0  0  0  0
  188.9290  173.0380  136.8730 O   0  0  0  0  0  1  0  0  0  0  0  0
  187.7160  175.3350  135.4060 C   0  0  0  0  0  2  0  0  0  0  0  0
  189.5000  175.9750  136.6670 C   0  0  1  0  0  3  0  0  0  0  0  0
  188.6320  176.3780  135.6340 O   0  0  0  0  0  0  0  0  0  0  0  0
  187.5190  173.1140  134.5540 O   0  0  0  0  0  1  0  0  0  0  0  0
  189.5200  173.6480  135.7570 C   0  0  2  0  0  3  0  0  0  0  0  0
  190.3990  174.8200  136.1960 C   0  0  2  0  0  3  0  0  0  0  0  0
  188.4360  174.1350  134.7890 C   0  0  2  0  0  3  0  0  0  0  0  0
  191.2660  174.4210  137.2210 O   0  0  0  0  0  0  0  0  0  0  0  0
  192.3410  173.8140  136.5660 C   0  0  0  0  0  2  0  0  0  0  0  0
  193.5740  173.8060  137.4550 C   0  0  0  0  0  2  0  0  0  0  0  0
  195.3450  172.6000  135.8940 C   0  0  0  0  0  1  0  0  0  0  0  0
  194.8790  173.8280  136.6630 C   0  0  1  0  0  0  0  0  0  0  0  0
  195.3540  175.1440  136.1820 C   0  0  0  0  0  2  0  0  0  0  0  0
  195.9330  174.5050  137.3000 O   0  0  0  0  0  0  0  0  0  0  0  0
  183.1620  178.3700  140.6930 C   0  0  1  0  0  3  0  0  0  0  0  0
  180.9410  177.6200  141.0950 O   0  0  0  0  0  0  0  0  0  0  0  0
  182.0150  177.4440  140.4570 C   0  0  0  0  0  0  0  0  0  0  0  0
  182.1230  176.3930  139.4860 N   0  0  0  0  0  2  0  0  0  0  0  0
  179.9910  176.4580  138.5410 O   0  0  0  0  0  1  0  0  0  0  0  0
  180.9900  175.5990  139.0160 C   0  0  1  0  0  0  0  0  0  0  0  0
  184.6430  173.0690  137.2790 C   0  0  0  0  0  1  0  0  0  0  0  0
  180.4360  173.5620  137.5940 C   0  0  0  0  0  2  0  0  0  0  0  0
  183.2080  173.5050  137.0320 C   0  0  2  0  0  3  0  0  0  0  0  0
  182.7060  174.0960  138.2050 O   0  0  0  0  0  0  0  0  0  0  0  0
  182.3750  172.2790  136.6650 C   0  0  0  0  0  2  0  0  0  0  0  0
  180.9350  172.7170  136.4240 C   0  0  0  0  0  2  0  0  0  0  0  0
  181.4590  174.6730  137.8830 C   0  0  2  0  0  3  0  0  0  0  0  0
  180.0000  175.3310  141.0770 O   0  0  0  0  0  0  0  0  0  0  0  0
  180.4780  174.8100  140.1150 N   0  0  0  0  0  0  0  0  0  0  0  0
  183.0350  179.5760  139.8800 N   0  0  0  0  0  2  0  0  0  0  0  0
  181.2430  180.6990  138.6620 C   0  0  0  0  0  3  0  0  0  0  0  0
  180.4410  180.8220  137.5260 C   0  0  0  0  0  3  0  0  0  0  0  0
  182.1900  179.6680  138.7260 C   0  0  0  0  0  0  0  0  0  0  0  0
  182.3340  178.7970  137.6440 C   0  0  0  0  0  3  0  0  0  0  0  0
  181.5160  178.9560  136.5260 C   0  0  0  0  0  3  0  0  0  0  0  0
  180.5950  179.9560  136.4920 N   0  0  0  0  0  0  0  0  0  0  0  0
  1  2  1  0  0  0  0
  1  9  1  0  0  0  0
  2  3  2  0  0  0  0
  3  8  1  0  0  0  0
  4  2  1  0  0  0  0
  7  5  2  0  0  0  0
  7  6  1  0  0  0  0
  8  7  1  0  0  0  0
 10 11  1  0  0  0  0
 10  9  1  0  0  0  0
 11 13  1  0  0  0  0
 13 12  1  0  0  0  0
 13 14  1  0  0  0  0
 16 15  1  6  0  0  0
 16 13  1  0  0  0  0
 17 16  1  0  0  0  0
 18 17  1  0  0  0  0
 19 18  1  0  0  0  0
 20 19  1  0  0  0  0
 21 22  2  0  0  0  0
 21 20  1  0  0  0  0
 23 21  1  0  0  0  0
 25 27  1  0  0  0  0
 26 23  1  6  0  0  0
 27 26  1  0  0  0  0
 29 30  1  0  0  0  0
 29 24  1  1  0  0  0
 30 26  1  0  0  0  0
 30 32  1  1  0  0  0
 31 28  1  1  0  0  0
 31 25  1  0  0  0  0
 31 29  1  0  0  0  0
 33 32  1  0  0  0  0
 33 34  1  0  0  0  0
 36 35  1  6  0  0  0
 36 38  1  0  0  0  0
 36 34  1  0  0  0  0
 37 36  1  0  0  0  0
 37 38  1  0  0  0  0
 39 54  1  6  0  0  0
 39  4  1  0  0  0  0
 41 39  1  0  0  0  0
 41 40  2  0  0  0  0
 42 41  1  0  0  0  0
 44 43  1  6  0  0  0
 44 42  1  0  0  0  0
 44 53  1  0  0  0  0
 46 51  1  0  0  0  0
 47 45  1  1  0  0  0
 47 48  1  0  0  0  0
 49 47  1  0  0  0  0
 50 49  1  0  0  0  0
 50 46  1  0  0  0  0
 51 48  1  0  0  0  0
 51 44  1  1  0  0  0
 53 52  2  0  0  0  0
 55 57  1  0  0  0  0
 56 55  2  0  0  0  0
 57 54  1  0  0  0  0
 58 57  2  0  0  0  0
 59 58  1  0  0  0  0
 60 59  2  0  0  0  0
 60 56  1  0  0  0  0
M  END
>  <MODEL>
8

>  <REMARK>
 VINA RESULT:      -4.4      2.774      5.768
  Name = 
  24 active torsions:
  status: ('A' for Active; 'I' for Inactive)
    1  A    between atoms: O_3  and  C_5
    2  A    between atoms: O_3  and  C_51
    3  A    between atoms: C_5  and  C_55
    4  A    between atoms: N_7  and  C_12
    5  A    between atoms: C_10  and  C_34
    6  A    between atoms: C_10  and  C_50
    7  A    between atoms: C_11  and  C_55
    8  A    between atoms: C_12  and  C_50
    9  A    between atoms: C_15  and  O_45
   10  A    between atoms: C_15  and  C_51
   11  A    between atoms: C_16  and  C_31
   12  A    between atoms: N_17  and  C_27
   13  A    between atoms: C_19  and  C_36
   14  A    between atoms: N_22  and  C_27
   15  A    between atoms: C_26  and  C_34
   16  A    between atoms: C_26  and  O_45
   17  A    between atoms: C_27  and  C_52
   18  A    between atoms: C_31  and  C_38
   19  A    between atoms: C_33  and  N_56
   20  A    between atoms: N_35  and  N_59
   21  A    between atoms: C_36  and  N_56
   22  A    between atoms: C_36  and  N_58
   23  A    between atoms: C_38  and  O_48
   24  A    between atoms: O_48  and  C_49
                            x       y       z     vdW  Elec       q    Type
                         _______ _______ _______ _____ _____    ______ ____

>  <TORSDO>
F 24

$$$$
=
 OpenBabel10232409223D

 60 63  0  0  1  0  0  0  0  0999 V2000
  186.0400  178.5740  138.9370 N   0  0  0  0  0  2  0  0  0  0  0  0
  186.4130  178.4200  140.3240 C   0  0  0  0  0  0  0  0  0  0  0  0
  187.5980  178.0340  140.7060 N   0  0  0  0  0  0  0  0  0  0  0  0
  185.4360  178.6590  141.3360 N   0  0  0  0  0  2  0  0  0  0  0  0
  190.1780  177.4120  141.5550 O   0  0  0  0  0  1  0  0  0  0  0  0
  190.9800  177.1760  139.4290 O   0  0  0  0  0  0  0  0  0  0  0  0
  189.9560  177.4570  140.3180 C   0  0  0  0  0  0  0  0  0  0  0  0
  188.6580  177.7820  139.8270 N   0  0  0  0  0  2  0  0  0  0  0  0
  186.9170  178.3580  137.8010 C   0  0  0  0  0  2  0  0  0  0  0  0
  186.2680  177.4480  136.7920 C   0  0  0  0  0  2  0  0  0  0  0  0
  186.8080  176.0330  136.9350 C   0  0  0  0  0  2  0  0  0  0  0  0
  186.2740  175.4190  134.6900 F   0  0  0  0  0  0  0  0  0  0  0  0
  187.3140  175.4950  135.5970 C   0  0  0  0  0  0  0  0  0  0  0  0
  188.2830  176.3480  135.1050 F   0  0  0  0  0  0  0  0  0  0  0  0
  187.0480  173.0240  135.1440 C   0  0  0  0  0  1  0  0  0  0  0  0
  187.9250  174.1020  135.7840 C   0  0  1  0  0  3  0  0  0  0  0  0
  189.2220  174.0500  135.2490 O   0  0  0  0  0  0  0  0  0  0  0  0
  190.0020  173.4130  136.2220 C   0  0  0  0  0  2  0  0  0  0  0  0
  190.2540  174.3920  137.3590 C   0  0  0  0  0  2  0  0  0  0  0  0
  191.6270  174.3910  137.7290 O   0  0  0  0  0  0  0  0  0  0  0  0
  192.6350  174.5250  136.7790 C   0  0  0  0  0  0  0  0  0  0  0  0
  192.5160  175.3300  135.8070 O   0  0  0  0  0  0  0  0  0  0  0  0
  193.8530  173.6730  136.9050 C   0  0  0  0  0  2  0  0  0  0  0  0
  197.7740  175.4380  137.6700 O   0  0  0  0  0  1  0  0  0  0  0  0
  195.5270  175.3890  139.6320 C   0  0  0  0  0  2  0  0  0  0  0  0
  194.9660  174.3840  137.6680 C   0  0  1  0  0  3  0  0  0  0  0  0
  194.5800  174.5530  139.0110 O   0  0  0  0  0  0  0  0  0  0  0  0
  197.7890  175.4900  140.3850 O   0  0  0  0  0  1  0  0  0  0  0  0
  197.3670  174.2860  138.3580 C   0  0  2  0  0  3  0  0  0  0  0  0
  196.2650  173.5640  137.5790 C   0  0  2  0  0  3  0  0  0  0  0  0
  196.8650  174.6590  139.7570 C   0  0  2  0  0  3  0  0  0  0  0  0
  196.6480  173.3920  136.2420 O   0  0  0  0  0  0  0  0  0  0  0  0
  197.4260  172.2310  136.2400 C   0  0  0  0  0  2  0  0  0  0  0  0
  196.7950  171.1630  137.1200 C   0  0  0  0  0  2  0  0  0  0  0  0
  194.9450  170.1740  135.4980 C   0  0  0  0  0  1  0  0  0  0  0  0
  196.2150  170.0000  136.3190 C   0  0  1  0  0  0  0  0  0  0  0  0
  197.1560  168.9420  135.8870 C   0  0  0  0  0  2  0  0  0  0  0  0
  196.2740  168.7580  136.9750 O   0  0  0  0  0  0  0  0  0  0  0  0
  184.0840  179.1240  141.0540 C   0  0  1  0  0  3  0  0  0  0  0  0
  183.3760  176.9070  140.5640 O   0  0  0  0  0  0  0  0  0  0  0  0
  183.3930  178.1150  140.1980 C   0  0  0  0  0  0  0  0  0  0  0  0
  182.7250  178.5230  138.9970 N   0  0  0  0  0  2  0  0  0  0  0  0
  180.8920  178.4550  137.5540 O   0  0  0  0  0  1  0  0  0  0  0  0
  181.8270  177.6600  138.2300 C   0  0  1  0  0  0  0  0  0  0  0  0
  183.4150  173.3200  137.0480 C   0  0  0  0  0  1  0  0  0  0  0  0
  182.2830  177.2080  135.7680 C   0  0  0  0  0  2  0  0  0  0  0  0
  183.4430  174.7940  136.6780 C   0  0  2  0  0  3  0  0  0  0  0  0
  182.4600  175.4670  137.4250 O   0  0  0  0  0  0  0  0  0  0  0  0
  183.1530  174.9350  135.1850 C   0  0  0  0  0  2  0  0  0  0  0  0
  183.1750  176.4130  134.8170 C   0  0  0  0  0  2  0  0  0  0  0  0
  182.6500  176.8500  137.2170 C   0  0  2  0  0  3  0  0  0  0  0  0
  180.0160  176.4290  138.9410 O   0  0  0  0  0  0  0  0  0  0  0  0
  181.1440  176.7640  139.1390 N   0  0  0  0  0  0  0  0  0  0  0  0
  183.3590  179.3320  142.3050 N   0  0  0  0  0  2  0  0  0  0  0  0
  183.1300  178.9610  144.7050 C   0  0  0  0  0  3  0  0  0  0  0  0
  183.7040  178.7860  145.9650 C   0  0  0  0  0  3  0  0  0  0  0  0
  183.9580  179.1940  143.5990 C   0  0  0  0  0  0  0  0  0  0  0  0
  185.3440  179.2200  143.7700 C   0  0  0  0  0  3  0  0  0  0  0  0
  185.8780  179.0370  145.0450 C   0  0  0  0  0  3  0  0  0  0  0  0
  185.0540  178.8260  146.1050 N   0  0  0  0  0  0  0  0  0  0  0  0
  1  2  1  0  0  0  0
  2  3  2  0  0  0  0
  2  4  1  0  0  0  0
  6  7  2  0  0  0  0
  7  5  1  0  0  0  0
  8  7  1  0  0  0  0
  8  3  1  0  0  0  0
  9  1  1  0  0  0  0
 10 11  1  0  0  0  0
 10  9  1  0  0  0  0
 12 13  1  0  0  0  0
 13 16  1  0  0  0  0
 13 11  1  0  0  0  0
 14 13  1  0  0  0  0
 16 15  1  6  0  0  0
 17 16  1  0  0  0  0
 17 18  1  0  0  0  0
 18 19  1  0  0  0  0
 19 20  1  0  0  0  0
 21 23  1  0  0  0  0
 21 20  1  0  0  0  0
 22 21  2  0  0  0  0
 25 31  1  0  0  0  0
 26 23  1  6  0  0  0
 26 27  1  0  0  0  0
 27 25  1  0  0  0  0
 29 24  1  6  0  0  0
 29 31  1  0  0  0  0
 30 32  1  6  0  0  0
 30 26  1  0  0  0  0
 30 29  1  0  0  0  0
 31 28  1  6  0  0  0
 33 32  1  0  0  0  0
 33 34  1  0  0  0  0
 36 35  1  6  0  0  0
 36 38  1  0  0  0  0
 36 34  1  0  0  0  0
 37 36  1  0  0  0  0
 37 38  1  0  0  0  0
 39 41  1  6  0  0  0
 39  4  1  0  0  0  0
 39 54  1  0  0  0  0
 41 40  2  0  0  0  0
 42 41  1  0  0  0  0
 44 43  1  6  0  0  0
 44 42  1  0  0  0  0
 44 53  1  0  0  0  0
 46 51  1  0  0  0  0
 47 45  1  1  0  0  0
 47 48  1  0  0  0  0
 49 47  1  0  0  0  0
 50 49  1  0  0  0  0
 50 46  1  0  0  0  0
 51 48  1  0  0  0  0
 51 44  1  1  0  0  0
 52 53  2  0  0  0  0
 54 57  1  0  0  0  0
 55 56  1  0  0  0  0
 56 60  2  0  0  0  0
 57 58  1  0  0  0  0
 57 55  2  0  0  0  0
 58 59  2  0  0  0  0
 59 60  1  0  0  0  0
M  END
>  <MODEL>
9

>  <REMARK>
 VINA RESULT:      -4.3      3.527      7.787
  Name = 
  24 active torsions:
  status: ('A' for Active; 'I' for Inactive)
    1  A    between atoms: O_3  and  C_5
    2  A    between atoms: O_3  and  C_51
    3  A    between atoms: C_5  and  C_55
    4  A    between atoms: N_7  and  C_12
    5  A    between atoms: C_10  and  C_34
    6  A    between atoms: C_10  and  C_50
    7  A    between atoms: C_11  and  C_55
    8  A    between atoms: C_12  and  C_50
    9  A    between atoms: C_15  and  O_45
   10  A    between atoms: C_15  and  C_51
   11  A    between atoms: C_16  and  C_31
   12  A    between atoms: N_17  and  C_27
   13  A    between atoms: C_19  and  C_36
   14  A    between atoms: N_22  and  C_27
   15  A    between atoms: C_26  and  C_34
   16  A    between atoms: C_26  and  O_45
   17  A    between atoms: C_27  and  C_52
   18  A    between atoms: C_31  and  C_38
   19  A    between atoms: C_33  and  N_56
   20  A    between atoms: N_35  and  N_59
   21  A    between atoms: C_36  and  N_56
   22  A    between atoms: C_36  and  N_58
   23  A    between atoms: C_38  and  O_48
   24  A    between atoms: O_48  and  C_49
                            x       y       z     vdW  Elec       q    Type
                         _______ _______ _______ _____ _____    ______ ____

>  <TORSDO>
F 24

$$$$
