=
 OpenBabel10232412473D

 40 42  0  0  1  0  0  0  0  0999 V2000
  189.2390  178.5310  139.1770 C   0  0  0  0  0  2  0  0  0  0  0  0
  188.0280  177.9280  139.8780 C   0  0  0  0  0  2  0  0  0  0  0  0
  188.0520  178.2150  141.3430 C   0  0  0  0  0  0  0  0  0  0  0  0
  188.7310  179.1360  141.7670 O   0  0  0  0  0  0  0  0  0  0  0  0
  187.2700  177.3350  142.2750 C   0  0  1  0  0  3  0  0  0  0  0  0
  188.1700  176.4260  143.0960 C   0  0  0  0  0  1  0  0  0  0  0  0
  185.3810  178.2160  146.7890 C   0  0  0  0  0  1  0  0  0  0  0  0
  184.4720  179.4190  144.8010 C   0  0  0  0  0  3  0  0  0  0  0  0
  186.2810  178.0980  143.1140 C   0  0  0  0  0  0  0  0  0  0  0  0
  184.4600  179.6750  143.4280 C   0  0  0  0  0  3  0  0  0  0  0  0
  185.3790  178.5020  145.3320 C   0  0  0  0  0  0  0  0  0  0  0  0
  185.3500  179.0140  142.5700 C   0  0  0  0  0  0  0  0  0  0  0  0
  186.2760  177.8440  144.4910 C   0  0  0  0  0  3  0  0  0  0  0  0
  185.3790  179.3140  141.1650 N   0  0  0  0  0  2  0  0  0  0  0  0
  184.2920  179.3410  140.2330 C   0  0  0  0  0  0  0  0  0  0  0  0
  184.4750  179.9270  139.0960 N   0  0  0  0  0  2  0  0  0  0  0  0
  181.9430  178.8670  141.7650 O   0  0  0  0  0  1  0  0  0  0  0  0
  182.8370  178.3090  140.4380 P   0  0  1  0  0  0  0  0  0  0  0  0
  181.7920  178.3920  138.9540 C   0  0  0  0  0  1  0  0  0  0  0  0
  183.2450  176.8780  140.6920 O   0  0  0  0  0  0  0  0  0  0  0  0
  190.1440  177.4540  138.5890 C   0  0  2  0  0  3  0  0  0  0  0  0
  190.3080  175.7230  136.7090 C   0  0  1  0  0  3  0  0  0  0  0  0
  188.9470  177.4590  136.3370 C   0  0  2  0  0  3  0  0  0  0  0  0
  189.9200  176.5220  135.1100 S   0  0  0  0  0  0  0  0  0  0  0  0
  189.3970  176.6270  137.5250 C   0  0  2  0  0  3  0  0  0  0  0  0
  186.6210  177.8780  134.8140 S   0  0  0  0  0  0  0  0  0  0  0  0
  184.1390  175.8870  137.2190 S   0  0  0  0  0  0  0  0  0  0  0  0
  186.6340  176.6090  136.9060 N   0  0  0  0  0  0  0  0  0  0  0  0
  187.4820  177.2810  136.0980 C   0  0  0  0  0  0  0  0  0  0  0  0
  185.3540  176.6280  136.4210 C   0  0  0  0  0  0  0  0  0  0  0  0
  185.1290  177.2890  135.2520 N   0  0  0  0  0  2  0  0  0  0  0  0
  189.8160  174.3070  136.7880 C   0  0  0  0  0  0  0  0  0  0  0  0
  188.6680  173.8820  136.0500 N   0  0  0  0  0  2  0  0  0  0  0  0
  190.4010  173.5030  137.5610 O   0  0  0  0  0  0  0  0  0  0  0  0
  188.5850  171.7050  135.2090 O   0  0  0  0  0  1  0  0  0  0  0  0
  188.0810  172.5590  136.1940 C   0  0  2  0  0  3  0  0  0  0  0  0
  186.5760  172.6650  136.0360 C   0  0  0  0  0  1  0  0  0  0  0  0
  190.7310  176.6140  139.7210 C   0  0  0  0  0  2  0  0  0  0  0  0
  193.0810  177.4080  139.9000 C   0  0  0  0  0  1  0  0  0  0  0  0
  191.7130  177.4320  140.5490 C   0  0  0  0  0  2  0  0  0  0  0  0
  1  2  1  0  0  0  0
  2  3  1  0  0  0  0
  3  4  2  0  0  0  0
  3  5  1  0  0  0  0
  5  6  1  1  0  0  0
  5  9  1  0  0  0  0
  8 11  1  0  0  0  0
  9 13  1  0  0  0  0
 10  8  2  0  0  0  0
 11  7  1  0  0  0  0
 12  9  2  0  0  0  0
 12 10  1  0  0  0  0
 13 11  2  0  0  0  0
 14 12  1  0  0  0  0
 15 18  1  0  0  0  0
 15 14  1  0  0  0  0
 16 15  2  0  0  0  0
 18 19  1  6  0  0  0
 18 20  2  0  0  0  0
 18 17  1  0  0  0  0
 21  1  1  1  0  0  0
 21 38  1  0  0  0  0
 22 32  1  6  0  0  0
 22 25  1  0  0  0  0
 23 29  1  6  0  0  0
 23 25  1  0  0  0  0
 24 23  1  0  0  0  0
 24 22  1  0  0  0  0
 25 21  1  1  0  0  0
 26 31  1  0  0  0  0
 26 29  1  0  0  0  0
 29 28  2  0  0  0  0
 30 28  1  0  0  0  0
 30 27  2  0  0  0  0
 31 30  1  0  0  0  0
 32 34  2  0  0  0  0
 33 36  1  0  0  0  0
 33 32  1  0  0  0  0
 35 36  1  0  0  0  0
 36 37  1  6  0  0  0
 38 40  1  0  0  0  0
 39 40  1  0  0  0  0
M  END
>  <MODEL>
1

>  <REMARK>
 VINA RESULT:      -7.2      0.000      0.000
  Name = 
  13 active torsions:
  status: ('A' for Active; 'I' for Inactive)
    1  A    between atoms: C_2  and  C_12
    2  A    between atoms: C_2  and  C_23
    3  A    between atoms: C_3  and  C_8
    4  A    between atoms: C_6  and  C_30
    5  A    between atoms: C_7  and  C_11
    6  A    between atoms: C_11  and  C_12
    7  A    between atoms: N_18  and  C_25
    8  A    between atoms: C_19  and  P_20
    9  A    between atoms: C_22  and  N_27
   10  A    between atoms: C_23  and  C_29
   11  A    between atoms: C_28  and  C_29
   12  A    between atoms: C_29  and  C_36
   13  A    between atoms: C_33  and  C_36
                            x       y       z     vdW  Elec       q    Type
                         _______ _______ _______ _____ _____    ______ ____

>  <TORSDO>
F 13

$$$$
=
 OpenBabel10232412473D

 40 42  0  0  1  0  0  0  0  0999 V2000
  188.4440  177.5690  139.7180 C   0  0  0  0  0  2  0  0  0  0  0  0
  188.4900  178.7910  140.6300 C   0  0  0  0  0  2  0  0  0  0  0  0
  188.4190  178.3940  142.0680 C   0  0  0  0  0  0  0  0  0  0  0  0
  189.2590  178.8070  142.8510 O   0  0  0  0  0  0  0  0  0  0  0  0
  187.3340  177.4570  142.5170 C   0  0  1  0  0  3  0  0  0  0  0  0
  187.8900  176.2480  143.2520 C   0  0  0  0  0  1  0  0  0  0  0  0
  185.0570  178.2290  146.8690 C   0  0  0  0  0  1  0  0  0  0  0  0
  184.2100  179.3440  144.8030 C   0  0  0  0  0  3  0  0  0  0  0  0
  186.2330  178.1510  143.2710 C   0  0  0  0  0  0  0  0  0  0  0  0
  184.2810  179.5880  143.4290 C   0  0  0  0  0  3  0  0  0  0  0  0
  185.1420  178.5030  145.4120 C   0  0  0  0  0  0  0  0  0  0  0  0
  185.2780  178.9890  142.6480 C   0  0  0  0  0  0  0  0  0  0  0  0
  186.1440  177.9070  144.6470 C   0  0  0  0  0  3  0  0  0  0  0  0
  185.3890  179.2800  141.2450 N   0  0  0  0  0  2  0  0  0  0  0  0
  184.3550  179.3150  140.2540 C   0  0  0  0  0  0  0  0  0  0  0  0
  184.6090  179.8900  139.1250 N   0  0  0  0  0  2  0  0  0  0  0  0
  181.9270  178.8740  141.6660 O   0  0  0  0  0  1  0  0  0  0  0  0
  182.8770  178.3040  140.3850 P   0  0  1  0  0  0  0  0  0  0  0  0
  181.9090  178.4030  138.8510 C   0  0  0  0  0  1  0  0  0  0  0  0
  183.2510  176.8670  140.6570 O   0  0  0  0  0  0  0  0  0  0  0  0
  189.8330  177.1900  139.2150 C   0  0  2  0  0  3  0  0  0  0  0  0
  190.5030  176.8410  136.7690 C   0  0  1  0  0  3  0  0  0  0  0  0
  188.3820  176.3600  137.2900 C   0  0  2  0  0  3  0  0  0  0  0  0
  189.0250  176.9940  135.7040 S   0  0  0  0  0  0  0  0  0  0  0  0
  189.7410  176.2940  137.9650 C   0  0  2  0  0  3  0  0  0  0  0  0
  188.6630  173.6250  136.6960 S   0  0  0  0  0  0  0  0  0  0  0  0
  184.8210  172.6630  137.1650 S   0  0  0  0  0  0  0  0  0  0  0  0
  186.5180  174.6510  137.2750 N   0  0  0  0  0  0  0  0  0  0  0  0
  187.8160  174.9870  137.1190 C   0  0  0  0  0  0  0  0  0  0  0  0
  186.3100  173.3180  137.0440 C   0  0  0  0  0  0  0  0  0  0  0  0
  187.3880  172.5580  136.7040 N   0  0  0  0  0  2  0  0  0  0  0  0
  191.4740  175.8080  136.2740 C   0  0  0  0  0  0  0  0  0  0  0  0
  192.5470  175.3490  137.1000 N   0  0  0  0  0  2  0  0  0  0  0  0
  191.3630  175.3860  135.0930 O   0  0  0  0  0  0  0  0  0  0  0  0
  193.9960  173.6040  137.6550 O   0  0  0  0  0  1  0  0  0  0  0  0
  193.5840  174.4480  136.6200 C   0  0  2  0  0  3  0  0  0  0  0  0
  194.7690  175.2660  136.1460 C   0  0  0  0  0  1  0  0  0  0  0  0
  190.6330  176.5710  140.3590 C   0  0  0  0  0  2  0  0  0  0  0  0
  192.0690  177.3930  142.2160 C   0  0  0  0  0  1  0  0  0  0  0  0
  191.8260  177.4450  140.7210 C   0  0  0  0  0  2  0  0  0  0  0  0
  1  2  1  0  0  0  0
  2  3  1  0  0  0  0
  3  5  1  0  0  0  0
  3  4  2  0  0  0  0
  5  6  1  1  0  0  0
  5  9  1  0  0  0  0
  8 11  1  0  0  0  0
  9 13  1  0  0  0  0
 10  8  2  0  0  0  0
 11  7  1  0  0  0  0
 12  9  2  0  0  0  0
 12 10  1  0  0  0  0
 13 11  2  0  0  0  0
 14 12  1  0  0  0  0
 15 18  1  0  0  0  0
 15 14  1  0  0  0  0
 16 15  2  0  0  0  0
 18 19  1  6  0  0  0
 18 20  2  0  0  0  0
 18 17  1  0  0  0  0
 21  1  1  1  0  0  0
 21 38  1  0  0  0  0
 22 32  1  6  0  0  0
 22 25  1  0  0  0  0
 23 29  1  6  0  0  0
 23 25  1  0  0  0  0
 24 22  1  0  0  0  0
 24 23  1  0  0  0  0
 25 21  1  1  0  0  0
 26 31  1  0  0  0  0
 26 29  1  0  0  0  0
 29 28  2  0  0  0  0
 30 27  2  0  0  0  0
 30 28  1  0  0  0  0
 31 30  1  0  0  0  0
 32 33  1  0  0  0  0
 34 32  2  0  0  0  0
 36 37  1  1  0  0  0
 36 33  1  0  0  0  0
 36 35  1  0  0  0  0
 38 40  1  0  0  0  0
 40 39  1  0  0  0  0
M  END
>  <MODEL>
2

>  <REMARK>
 VINA RESULT:      -7.2      1.774      2.688
  Name = 
  13 active torsions:
  status: ('A' for Active; 'I' for Inactive)
    1  A    between atoms: C_2  and  C_12
    2  A    between atoms: C_2  and  C_23
    3  A    between atoms: C_3  and  C_8
    4  A    between atoms: C_6  and  C_30
    5  A    between atoms: C_7  and  C_11
    6  A    between atoms: C_11  and  C_12
    7  A    between atoms: N_18  and  C_25
    8  A    between atoms: C_19  and  P_20
    9  A    between atoms: C_22  and  N_27
   10  A    between atoms: C_23  and  C_29
   11  A    between atoms: C_28  and  C_29
   12  A    between atoms: C_29  and  C_36
   13  A    between atoms: C_33  and  C_36
                            x       y       z     vdW  Elec       q    Type
                         _______ _______ _______ _____ _____    ______ ____

>  <TORSDO>
F 13

$$$$
=
 OpenBabel10232412473D

 40 42  0  0  1  0  0  0  0  0999 V2000
  189.0580  177.1920  139.5640 C   0  0  0  0  0  2  0  0  0  0  0  0
  188.4420  178.4080  140.2460 C   0  0  0  0  0  2  0  0  0  0  0  0
  188.4400  178.2500  141.7320 C   0  0  0  0  0  0  0  0  0  0  0  0
  189.2820  178.8240  142.4020 O   0  0  0  0  0  0  0  0  0  0  0  0
  187.4200  177.3510  142.3700 C   0  0  1  0  0  3  0  0  0  0  0  0
  188.0650  176.1980  143.1230 C   0  0  0  0  0  1  0  0  0  0  0  0
  185.4680  178.2250  146.8580 C   0  0  0  0  0  1  0  0  0  0  0  0
  184.5540  179.3940  144.8520 C   0  0  0  0  0  3  0  0  0  0  0  0
  186.4080  178.0990  143.1940 C   0  0  0  0  0  0  0  0  0  0  0  0
  184.5520  179.6400  143.4770 C   0  0  0  0  0  3  0  0  0  0  0  0
  185.4750  178.5010  145.3990 C   0  0  0  0  0  0  0  0  0  0  0  0
  185.4630  178.9910  142.6330 C   0  0  0  0  0  0  0  0  0  0  0  0
  186.3930  177.8550  144.5720 C   0  0  0  0  0  3  0  0  0  0  0  0
  185.5010  179.2820  141.2260 N   0  0  0  0  0  2  0  0  0  0  0  0
  184.4150  179.3300  140.2930 C   0  0  0  0  0  0  0  0  0  0  0  0
  184.6140  179.9040  139.1520 N   0  0  0  0  0  2  0  0  0  0  0  0
  182.0880  178.8840  141.8650 O   0  0  0  0  0  1  0  0  0  0  0  0
  182.9340  178.3360  140.5040 P   0  0  1  0  0  0  0  0  0  0  0  0
  181.8600  178.4910  139.0470 C   0  0  0  0  0  1  0  0  0  0  0  0
  183.3050  176.8870  140.7100 O   0  0  0  0  0  0  0  0  0  0  0  0
  188.6010  177.0690  138.1140 C   0  0  2  0  0  3  0  0  0  0  0  0
  190.8160  176.4040  137.0140 C   0  0  1  0  0  3  0  0  0  0  0  0
  188.9550  175.7910  135.9360 C   0  0  2  0  0  3  0  0  0  0  0  0
  190.5720  176.2270  135.2110 S   0  0  0  0  0  0  0  0  0  0  0  0
  189.4020  175.9790  137.3750 C   0  0  2  0  0  3  0  0  0  0  0  0
  189.7020  173.1720  135.2350 S   0  0  0  0  0  0  0  0  0  0  0  0
  186.0490  171.5860  135.4490 S   0  0  0  0  0  0  0  0  0  0  0  0
  187.3950  173.8100  135.7420 N   0  0  0  0  0  0  0  0  0  0  0  0
  188.6280  174.3570  135.6720 C   0  0  0  0  0  0  0  0  0  0  0  0
  187.4170  172.4750  135.4390 C   0  0  0  0  0  0  0  0  0  0  0  0
  188.6180  171.9160  135.1250 N   0  0  0  0  0  2  0  0  0  0  0  0
  191.7980  175.4130  137.5700 C   0  0  0  0  0  0  0  0  0  0  0  0
  193.2060  175.5900  137.3930 N   0  0  0  0  0  2  0  0  0  0  0  0
  191.3610  174.3870  138.1550 O   0  0  0  0  0  0  0  0  0  0  0  0
  195.3320  175.2280  138.2860 O   0  0  0  0  0  1  0  0  0  0  0  0
  194.1850  174.5950  137.8000 C   0  0  2  0  0  3  0  0  0  0  0  0
  194.5570  173.7470  136.5990 C   0  0  0  0  0  1  0  0  0  0  0  0
  188.6660  178.4400  137.4460 C   0  0  0  0  0  2  0  0  0  0  0  0
  186.3000  177.7360  137.1470 C   0  0  0  0  0  1  0  0  0  0  0  0
  187.3250  178.8040  136.8230 C   0  0  0  0  0  2  0  0  0  0  0  0
  1  2  1  0  0  0  0
  2  3  1  0  0  0  0
  3  5  1  0  0  0  0
  3  4  2  0  0  0  0
  5  6  1  1  0  0  0
  5  9  1  0  0  0  0
  8 11  1  0  0  0  0
  9 13  1  0  0  0  0
 10  8  2  0  0  0  0
 11  7  1  0  0  0  0
 12  9  2  0  0  0  0
 12 10  1  0  0  0  0
 13 11  2  0  0  0  0
 14 12  1  0  0  0  0
 15 18  1  0  0  0  0
 15 14  1  0  0  0  0
 16 15  2  0  0  0  0
 18 19  1  6  0  0  0
 18 20  2  0  0  0  0
 18 17  1  0  0  0  0
 21 38  1  6  0  0  0
 21  1  1  0  0  0  0
 22 25  1  0  0  0  0
 22 32  1  1  0  0  0
 23 29  1  1  0  0  0
 23 25  1  0  0  0  0
 24 23  1  0  0  0  0
 24 22  1  0  0  0  0
 25 21  1  6  0  0  0
 26 29  1  0  0  0  0
 29 28  2  0  0  0  0
 30 27  2  0  0  0  0
 30 28  1  0  0  0  0
 31 26  1  0  0  0  0
 31 30  1  0  0  0  0
 32 34  2  0  0  0  0
 33 32  1  0  0  0  0
 33 36  1  0  0  0  0
 36 37  1  6  0  0  0
 36 35  1  0  0  0  0
 40 39  1  0  0  0  0
 40 38  1  0  0  0  0
M  END
>  <MODEL>
3

>  <REMARK>
 VINA RESULT:      -7.0      1.983      3.402
  Name = 
  13 active torsions:
  status: ('A' for Active; 'I' for Inactive)
    1  A    between atoms: C_2  and  C_12
    2  A    between atoms: C_2  and  C_23
    3  A    between atoms: C_3  and  C_8
    4  A    between atoms: C_6  and  C_30
    5  A    between atoms: C_7  and  C_11
    6  A    between atoms: C_11  and  C_12
    7  A    between atoms: N_18  and  C_25
    8  A    between atoms: C_19  and  P_20
    9  A    between atoms: C_22  and  N_27
   10  A    between atoms: C_23  and  C_29
   11  A    between atoms: C_28  and  C_29
   12  A    between atoms: C_29  and  C_36
   13  A    between atoms: C_33  and  C_36
                            x       y       z     vdW  Elec       q    Type
                         _______ _______ _______ _____ _____    ______ ____

>  <TORSDO>
F 13

$$$$
=
 OpenBabel10232412473D

 40 42  0  0  1  0  0  0  0  0999 V2000
  188.6630  177.2750  140.8370 C   0  0  0  0  0  2  0  0  0  0  0  0
  188.8530  178.5630  141.6300 C   0  0  0  0  0  2  0  0  0  0  0  0
  189.5800  178.3070  142.9090 C   0  0  0  0  0  0  0  0  0  0  0  0
  190.4710  179.0630  143.2590 O   0  0  0  0  0  0  0  0  0  0  0  0
  189.2250  177.0960  143.7230 C   0  0  1  0  0  3  0  0  0  0  0  0
  190.4400  176.2320  144.0230 C   0  0  0  0  0  1  0  0  0  0  0  0
  189.2090  178.2020  148.5700 C   0  0  0  0  0  1  0  0  0  0  0  0
  187.0530  178.0170  147.3260 C   0  0  0  0  0  3  0  0  0  0  0  0
  188.4200  177.4250  144.9500 C   0  0  0  0  0  0  0  0  0  0  0  0
  186.3380  177.7740  146.1510 C   0  0  0  0  0  3  0  0  0  0  0  0
  188.4470  177.9610  147.3180 C   0  0  0  0  0  0  0  0  0  0  0  0
  187.0060  177.4650  144.9590 C   0  0  0  0  0  0  0  0  0  0  0  0
  189.1240  177.6620  146.1360 C   0  0  0  0  0  3  0  0  0  0  0  0
  186.2770  177.2680  143.7360 N   0  0  0  0  0  2  0  0  0  0  0  0
  185.2520  178.0880  143.1630 C   0  0  0  0  0  0  0  0  0  0  0  0
  184.9430  177.9040  141.9220 N   0  0  0  0  0  2  0  0  0  0  0  0
  184.8870  180.6000  144.4450 O   0  0  0  0  0  0  0  0  0  0  0  0
  184.1610  179.0940  144.1760 P   0  0  1  0  0  0  0  0  0  0  0  0
  182.5760  179.3530  143.3260 C   0  0  0  0  0  1  0  0  0  0  0  0
  183.9200  178.4230  145.5060 O   0  0  0  0  0  1  0  0  0  0  0  0
  189.3880  177.3270  139.4960 C   0  0  2  0  0  3  0  0  0  0  0  0
  189.0810  177.0210  136.9730 C   0  0  1  0  0  3  0  0  0  0  0  0
  187.6380  178.3990  137.9830 C   0  0  2  0  0  3  0  0  0  0  0  0
  188.2680  178.5020  136.2740 S   0  0  0  0  0  0  0  0  0  0  0  0
  188.4010  177.1330  138.3280 C   0  0  2  0  0  3  0  0  0  0  0  0
  185.3890  176.8920  137.2210 S   0  0  0  0  0  0  0  0  0  0  0  0
  182.6790  179.1450  139.0860 S   0  0  0  0  0  0  0  0  0  0  0  0
  185.2400  178.8960  138.6160 N   0  0  0  0  0  0  0  0  0  0  0  0
  186.1660  178.1390  137.9880 C   0  0  0  0  0  0  0  0  0  0  0  0
  183.9760  178.4050  138.4300 C   0  0  0  0  0  0  0  0  0  0  0  0
  183.8380  177.2810  137.6740 N   0  0  0  0  0  2  0  0  0  0  0  0
  188.6550  175.7490  136.2980 C   0  0  0  0  0  0  0  0  0  0  0  0
  188.7050  174.4960  136.9860 N   0  0  0  0  0  2  0  0  0  0  0  0
  188.3000  175.7900  135.0910 O   0  0  0  0  0  0  0  0  0  0  0  0
  188.0230  172.2840  137.2870 O   0  0  0  0  0  1  0  0  0  0  0  0
  188.4260  173.2250  136.3360 C   0  0  2  0  0  3  0  0  0  0  0  0
  189.6870  172.7320  135.6530 C   0  0  0  0  0  1  0  0  0  0  0  0
  190.5380  176.3220  139.5040 C   0  0  0  0  0  2  0  0  0  0  0  0
  192.3930  177.5410  140.6250 C   0  0  0  0  0  1  0  0  0  0  0  0
  191.8730  177.0250  139.2990 C   0  0  0  0  0  2  0  0  0  0  0  0
  1  2  1  0  0  0  0
  2  3  1  0  0  0  0
  3  4  2  0  0  0  0
  3  5  1  0  0  0  0
  5  6  1  1  0  0  0
  5  9  1  0  0  0  0
  9 12  2  0  0  0  0
  9 13  1  0  0  0  0
 10  8  2  0  0  0  0
 11  8  1  0  0  0  0
 11  7  1  0  0  0  0
 12 10  1  0  0  0  0
 13 11  2  0  0  0  0
 14 12  1  0  0  0  0
 15 14  1  0  0  0  0
 15 18  1  0  0  0  0
 16 15  2  0  0  0  0
 18 19  1  6  0  0  0
 18 17  2  0  0  0  0
 18 20  1  0  0  0  0
 21 38  1  1  0  0  0
 21  1  1  0  0  0  0
 22 32  1  6  0  0  0
 22 25  1  0  0  0  0
 23 29  1  6  0  0  0
 23 25  1  0  0  0  0
 24 22  1  0  0  0  0
 24 23  1  0  0  0  0
 25 21  1  1  0  0  0
 26 31  1  0  0  0  0
 26 29  1  0  0  0  0
 29 28  2  0  0  0  0
 30 28  1  0  0  0  0
 30 27  2  0  0  0  0
 31 30  1  0  0  0  0
 32 33  1  0  0  0  0
 34 32  2  0  0  0  0
 36 37  1  1  0  0  0
 36 33  1  0  0  0  0
 36 35  1  0  0  0  0
 40 38  1  0  0  0  0
 40 39  1  0  0  0  0
M  END
>  <MODEL>
4

>  <REMARK>
 VINA RESULT:      -6.9      2.360      2.979
  Name = 
  13 active torsions:
  status: ('A' for Active; 'I' for Inactive)
    1  A    between atoms: C_2  and  C_12
    2  A    between atoms: C_2  and  C_23
    3  A    between atoms: C_3  and  C_8
    4  A    between atoms: C_6  and  C_30
    5  A    between atoms: C_7  and  C_11
    6  A    between atoms: C_11  and  C_12
    7  A    between atoms: N_18  and  C_25
    8  A    between atoms: C_19  and  P_20
    9  A    between atoms: C_22  and  N_27
   10  A    between atoms: C_23  and  C_29
   11  A    between atoms: C_28  and  C_29
   12  A    between atoms: C_29  and  C_36
   13  A    between atoms: C_33  and  C_36
                            x       y       z     vdW  Elec       q    Type
                         _______ _______ _______ _____ _____    ______ ____

>  <TORSDO>
F 13

$$$$
=
 OpenBabel10232412473D

 40 42  0  0  1  0  0  0  0  0999 V2000
  188.1970  177.5910  140.3430 C   0  0  0  0  0  2  0  0  0  0  0  0
  188.4260  178.6650  141.4000 C   0  0  0  0  0  2  0  0  0  0  0  0
  189.3020  178.1610  142.5010 C   0  0  0  0  0  0  0  0  0  0  0  0
  190.3620  178.7180  142.7320 O   0  0  0  0  0  0  0  0  0  0  0  0
  188.8760  176.9480  143.2780 C   0  0  1  0  0  3  0  0  0  0  0  0
  190.0130  175.9550  143.4580 C   0  0  0  0  0  1  0  0  0  0  0  0
  189.2790  177.9810  148.1240 C   0  0  0  0  0  1  0  0  0  0  0  0
  187.0280  177.8950  147.0510 C   0  0  0  0  0  3  0  0  0  0  0  0
  188.1820  177.2890  144.5680 C   0  0  0  0  0  0  0  0  0  0  0  0
  186.2140  177.6960  145.9330 C   0  0  0  0  0  3  0  0  0  0  0  0
  188.4140  177.7870  146.9330 C   0  0  0  0  0  0  0  0  0  0  0  0
  186.7750  177.3800  144.6880 C   0  0  0  0  0  0  0  0  0  0  0  0
  188.9850  177.4810  145.6980 C   0  0  0  0  0  3  0  0  0  0  0  0
  185.9470  177.2290  143.5240 N   0  0  0  0  0  2  0  0  0  0  0  0
  184.9210  178.1020  143.0360 C   0  0  0  0  0  0  0  0  0  0  0  0
  184.5090  177.9430  141.8220 N   0  0  0  0  0  2  0  0  0  0  0  0
  184.7730  180.6170  144.3540 O   0  0  0  0  0  0  0  0  0  0  0  0
  183.9600  179.1480  144.1350 P   0  0  1  0  0  0  0  0  0  0  0  0
  182.3270  179.4860  143.4130 C   0  0  0  0  0  1  0  0  0  0  0  0
  183.7920  178.4780  145.4780 O   0  0  0  0  0  1  0  0  0  0  0  0
  188.6150  178.0680  138.9560 C   0  0  2  0  0  3  0  0  0  0  0  0
  188.5080  177.3770  136.4930 C   0  0  1  0  0  3  0  0  0  0  0  0
  186.5830  178.0460  137.4160 C   0  0  2  0  0  3  0  0  0  0  0  0
  187.1130  178.2350  135.6800 S   0  0  0  0  0  0  0  0  0  0  0  0
  187.8400  177.3160  137.8570 C   0  0  2  0  0  3  0  0  0  0  0  0
  183.9110  177.5430  138.1350 S   0  0  0  0  0  0  0  0  0  0  0  0
  183.8260  173.7420  136.9310 S   0  0  0  0  0  0  0  0  0  0  0  0
  185.3550  175.8570  137.1060 N   0  0  0  0  0  0  0  0  0  0  0  0
  185.3950  177.1440  137.5100 C   0  0  0  0  0  0  0  0  0  0  0  0
  184.1280  175.2940  137.3300 C   0  0  0  0  0  0  0  0  0  0  0  0
  183.1680  176.0740  137.9020 N   0  0  0  0  0  2  0  0  0  0  0  0
  188.7200  175.9850  135.9720 C   0  0  0  0  0  0  0  0  0  0  0  0
  188.6440  174.8520  136.8420 N   0  0  0  0  0  2  0  0  0  0  0  0
  189.0210  175.8290  134.7600 O   0  0  0  0  0  0  0  0  0  0  0  0
  188.3000  172.5730  137.2140 O   0  0  0  0  0  1  0  0  0  0  0  0
  188.9680  173.5010  136.4100 C   0  0  2  0  0  3  0  0  0  0  0  0
  190.4630  173.2850  136.5420 C   0  0  0  0  0  1  0  0  0  0  0  0
  190.1330  177.9610  138.8220 C   0  0  0  0  0  2  0  0  0  0  0  0
  191.7070  176.0760  138.4320 C   0  0  0  0  0  1  0  0  0  0  0  0
  190.6300  176.6220  139.3470 C   0  0  0  0  0  2  0  0  0  0  0  0
  1  2  1  0  0  0  0
  2  3  1  0  0  0  0
  3  4  2  0  0  0  0
  3  5  1  0  0  0  0
  5  6  1  1  0  0  0
  5  9  1  0  0  0  0
  9 12  2  0  0  0  0
  9 13  1  0  0  0  0
 10  8  2  0  0  0  0
 11  8  1  0  0  0  0
 11  7  1  0  0  0  0
 12 10  1  0  0  0  0
 13 11  2  0  0  0  0
 14 12  1  0  0  0  0
 15 14  1  0  0  0  0
 15 18  1  0  0  0  0
 16 15  2  0  0  0  0
 18 19  1  6  0  0  0
 18 17  2  0  0  0  0
 18 20  1  0  0  0  0
 21 38  1  6  0  0  0
 21  1  1  0  0  0  0
 22 32  1  6  0  0  0
 22 25  1  0  0  0  0
 23 29  1  6  0  0  0
 23 25  1  0  0  0  0
 24 22  1  0  0  0  0
 24 23  1  0  0  0  0
 25 21  1  1  0  0  0
 27 30  2  0  0  0  0
 28 30  1  0  0  0  0
 28 29  2  0  0  0  0
 29 26  1  0  0  0  0
 30 31  1  0  0  0  0
 31 26  1  0  0  0  0
 32 33  1  0  0  0  0
 34 32  2  0  0  0  0
 36 37  1  1  0  0  0
 36 33  1  0  0  0  0
 36 35  1  0  0  0  0
 38 40  1  0  0  0  0
 39 40  1  0  0  0  0
M  END
>  <MODEL>
5

>  <REMARK>
 VINA RESULT:      -6.8      2.190      2.948
  Name = 
  13 active torsions:
  status: ('A' for Active; 'I' for Inactive)
    1  A    between atoms: C_2  and  C_12
    2  A    between atoms: C_2  and  C_23
    3  A    between atoms: C_3  and  C_8
    4  A    between atoms: C_6  and  C_30
    5  A    between atoms: C_7  and  C_11
    6  A    between atoms: C_11  and  C_12
    7  A    between atoms: N_18  and  C_25
    8  A    between atoms: C_19  and  P_20
    9  A    between atoms: C_22  and  N_27
   10  A    between atoms: C_23  and  C_29
   11  A    between atoms: C_28  and  C_29
   12  A    between atoms: C_29  and  C_36
   13  A    between atoms: C_33  and  C_36
                            x       y       z     vdW  Elec       q    Type
                         _______ _______ _______ _____ _____    ______ ____

>  <TORSDO>
F 13

$$$$
=
 OpenBabel10232412473D

 40 42  0  0  1  0  0  0  0  0999 V2000
  183.1670  178.0190  139.9790 C   0  0  0  0  0  2  0  0  0  0  0  0
  184.0410  177.7770  141.2050 C   0  0  0  0  0  2  0  0  0  0  0  0
  185.2960  178.5840  141.1420 C   0  0  0  0  0  0  0  0  0  0  0  0
  185.2840  179.6790  140.6030 O   0  0  0  0  0  0  0  0  0  0  0  0
  186.5640  178.0130  141.7100 C   0  0  1  0  0  3  0  0  0  0  0  0
  187.7940  178.7780  141.2490 C   0  0  0  0  0  1  0  0  0  0  0  0
  184.3550  179.1610  146.0130 C   0  0  0  0  0  1  0  0  0  0  0  0
  186.3070  177.6060  145.9890 C   0  0  0  0  0  3  0  0  0  0  0  0
  186.5100  177.8270  143.2010 C   0  0  0  0  0  0  0  0  0  0  0  0
  187.3090  176.9140  145.3060 C   0  0  0  0  0  3  0  0  0  0  0  0
  185.4100  178.4110  145.2860 C   0  0  0  0  0  0  0  0  0  0  0  0
  187.4320  177.0240  143.9140 C   0  0  0  0  0  0  0  0  0  0  0  0
  185.5160  178.5220  143.9000 C   0  0  0  0  0  3  0  0  0  0  0  0
  188.4260  176.2710  143.2000 N   0  0  0  0  0  2  0  0  0  0  0  0
  189.8250  176.1450  143.4810 C   0  0  0  0  0  0  0  0  0  0  0  0
  190.4800  175.1890  142.9090 N   0  0  0  0  0  2  0  0  0  0  0  0
  189.7840  178.8310  144.4110 O   0  0  0  0  0  1  0  0  0  0  0  0
  190.7530  177.4470  144.2990 P   0  0  1  0  0  0  0  0  0  0  0  0
  191.2230  176.9260  145.9750 C   0  0  0  0  0  1  0  0  0  0  0  0
  191.9920  177.7810  143.5050 O   0  0  0  0  0  0  0  0  0  0  0  0
  182.7010  176.7090  139.3530 C   0  0  2  0  0  3  0  0  0  0  0  0
  184.2880  177.5340  137.5210 C   0  0  1  0  0  3  0  0  0  0  0  0
  182.7420  176.0450  136.8920 C   0  0  2  0  0  3  0  0  0  0  0  0
  183.4660  177.3890  135.8940 S   0  0  0  0  0  0  0  0  0  0  0  0
  183.5660  176.3430  138.1320 C   0  0  2  0  0  3  0  0  0  0  0  0
  183.8300  174.4340  134.8600 S   0  0  0  0  0  0  0  0  0  0  0  0
  183.1970  170.9350  136.6660 S   0  0  0  0  0  0  0  0  0  0  0  0
  182.9010  173.5210  136.9300 N   0  0  0  0  0  0  0  0  0  0  0  0
  183.1100  174.7100  136.3270 C   0  0  0  0  0  0  0  0  0  0  0  0
  183.3410  172.4790  136.1600 C   0  0  0  0  0  0  0  0  0  0  0  0
  183.8990  172.7750  134.9530 N   0  0  0  0  0  2  0  0  0  0  0  0
  185.7610  177.2530  137.4580 C   0  0  0  0  0  0  0  0  0  0  0  0
  186.7200  178.2960  137.6510 N   0  0  0  0  0  2  0  0  0  0  0  0
  186.1460  176.0870  137.1780 O   0  0  0  0  0  0  0  0  0  0  0  0
  188.8520  179.1660  138.0390 O   0  0  0  0  0  1  0  0  0  0  0  0
  188.1500  178.0980  137.4720 C   0  0  2  0  0  3  0  0  0  0  0  0
  188.4590  178.0330  135.9890 C   0  0  0  0  0  1  0  0  0  0  0  0
  181.2080  176.7990  139.0460 C   0  0  0  0  0  2  0  0  0  0  0  0
  180.2840  178.7480  137.8100 C   0  0  0  0  0  1  0  0  0  0  0  0
  180.7160  178.2340  139.1680 C   0  0  0  0  0  2  0  0  0  0  0  0
  1  2  1  0  0  0  0
  3  2  1  0  0  0  0
  3  5  1  0  0  0  0
  4  3  2  0  0  0  0
  5  6  1  1  0  0  0
  5  9  1  0  0  0  0
  9 13  2  0  0  0  0
  9 12  1  0  0  0  0
 10  8  1  0  0  0  0
 11  8  2  0  0  0  0
 11  7  1  0  0  0  0
 12 10  2  0  0  0  0
 13 11  1  0  0  0  0
 14 15  1  0  0  0  0
 14 12  1  0  0  0  0
 15 18  1  0  0  0  0
 16 15  2  0  0  0  0
 18 17  1  0  0  0  0
 18 19  1  1  0  0  0
 20 18  2  0  0  0  0
 21 38  1  6  0  0  0
 21  1  1  0  0  0  0
 22 32  1  6  0  0  0
 22 25  1  0  0  0  0
 23 29  1  6  0  0  0
 23 25  1  0  0  0  0
 24 23  1  0  0  0  0
 24 22  1  0  0  0  0
 25 21  1  1  0  0  0
 26 31  1  0  0  0  0
 26 29  1  0  0  0  0
 29 28  2  0  0  0  0
 30 27  2  0  0  0  0
 30 28  1  0  0  0  0
 31 30  1  0  0  0  0
 32 33  1  0  0  0  0
 34 32  2  0  0  0  0
 36 37  1  6  0  0  0
 36 33  1  0  0  0  0
 36 35  1  0  0  0  0
 38 40  1  0  0  0  0
 39 40  1  0  0  0  0
M  END
>  <MODEL>
6

>  <REMARK>
 VINA RESULT:      -6.7      3.294      6.306
  Name = 
  13 active torsions:
  status: ('A' for Active; 'I' for Inactive)
    1  A    between atoms: C_2  and  C_12
    2  A    between atoms: C_2  and  C_23
    3  A    between atoms: C_3  and  C_8
    4  A    between atoms: C_6  and  C_30
    5  A    between atoms: C_7  and  C_11
    6  A    between atoms: C_11  and  C_12
    7  A    between atoms: N_18  and  C_25
    8  A    between atoms: C_19  and  P_20
    9  A    between atoms: C_22  and  N_27
   10  A    between atoms: C_23  and  C_29
   11  A    between atoms: C_28  and  C_29
   12  A    between atoms: C_29  and  C_36
   13  A    between atoms: C_33  and  C_36
                            x       y       z     vdW  Elec       q    Type
                         _______ _______ _______ _____ _____    ______ ____

>  <TORSDO>
F 13

$$$$
=
 OpenBabel10232412473D

 40 42  0  0  1  0  0  0  0  0999 V2000
  191.5570  177.2740  140.3600 C   0  0  0  0  0  2  0  0  0  0  0  0
  191.5290  176.5000  139.0470 C   0  0  0  0  0  2  0  0  0  0  0  0
  192.9020  176.3540  138.4780 C   0  0  0  0  0  0  0  0  0  0  0  0
  193.8440  176.9080  139.0210 O   0  0  0  0  0  0  0  0  0  0  0  0
  193.0920  175.5590  137.2180 C   0  0  1  0  0  3  0  0  0  0  0  0
  191.9970  175.8310  136.1980 C   0  0  0  0  0  1  0  0  0  0  0  0
  196.2340  178.1270  134.3460 C   0  0  0  0  0  1  0  0  0  0  0  0
  197.0000  176.0350  135.4720 C   0  0  0  0  0  3  0  0  0  0  0  0
  194.4760  175.6850  136.6430 C   0  0  0  0  0  0  0  0  0  0  0  0
  196.7580  174.9310  136.2920 C   0  0  0  0  0  3  0  0  0  0  0  0
  195.9840  176.9610  135.2320 C   0  0  0  0  0  0  0  0  0  0  0  0
  195.4980  174.7350  136.8750 C   0  0  0  0  0  0  0  0  0  0  0  0
  194.7290  176.7830  135.8120 C   0  0  0  0  0  3  0  0  0  0  0  0
  195.2610  173.6300  137.7630 N   0  0  0  0  0  2  0  0  0  0  0  0
  195.2640  172.2290  137.4680 C   0  0  0  0  0  0  0  0  0  0  0  0
  195.3310  171.3960  138.4540 N   0  0  0  0  0  2  0  0  0  0  0  0
  194.5930  169.9230  135.9450 O   0  0  0  0  0  1  0  0  0  0  0  0
  194.8290  171.5970  135.8440 P   0  0  1  0  0  0  0  0  0  0  0  0
  193.2910  172.3690  135.2590 C   0  0  0  0  0  1  0  0  0  0  0  0
  195.9410  171.8750  134.8620 O   0  0  0  0  0  0  0  0  0  0  0  0
  190.2170  177.9450  140.6460 C   0  0  2  0  0  3  0  0  0  0  0  0
  190.6270  176.6450  142.8130 C   0  0  1  0  0  3  0  0  0  0  0  0
  188.5030  176.7710  142.1250 C   0  0  2  0  0  3  0  0  0  0  0  0
  189.2980  175.4110  143.0440 S   0  0  0  0  0  0  0  0  0  0  0  0
  189.7450  177.6440  142.0820 C   0  0  2  0  0  3  0  0  0  0  0  0
  186.2270  178.4010  142.3940 S   0  0  0  0  0  0  0  0  0  0  0  0
  185.8780  178.0420  146.3510 S   0  0  0  0  0  0  0  0  0  0  0  0
  187.3120  177.3020  144.2920 N   0  0  0  0  0  0  0  0  0  0  0  0
  187.4390  177.4170  142.9530 C   0  0  0  0  0  0  0  0  0  0  0  0
  186.2430  178.0160  144.7610 C   0  0  0  0  0  0  0  0  0  0  0  0
  185.4960  178.7080  143.8560 N   0  0  0  0  0  2  0  0  0  0  0  0
  191.1000  177.2420  144.1070 C   0  0  0  0  0  0  0  0  0  0  0  0
  191.2610  176.4360  145.2770 N   0  0  0  0  0  2  0  0  0  0  0  0
  191.3050  178.4830  144.1650 O   0  0  0  0  0  0  0  0  0  0  0  0
  192.4140  176.1030  147.2800 O   0  0  0  0  0  1  0  0  0  0  0  0
  191.5920  176.9910  146.5800 C   0  0  2  0  0  3  0  0  0  0  0  0
  190.3120  177.2070  147.3650 C   0  0  0  0  0  1  0  0  0  0  0  0
  189.2110  177.5430  139.5700 C   0  0  0  0  0  2  0  0  0  0  0  0
  188.4180  178.4860  137.4100 C   0  0  0  0  0  1  0  0  0  0  0  0
  188.6330  178.7720  138.8820 C   0  0  0  0  0  2  0  0  0  0  0  0
  1 21  1  0  0  0  0
  2  1  1  0  0  0  0
  3  4  2  0  0  0  0
  3  2  1  0  0  0  0
  5  6  1  6  0  0  0
  5  3  1  0  0  0  0
  7 11  1  0  0  0  0
  8 10  1  0  0  0  0
  9 12  1  0  0  0  0
  9  5  1  0  0  0  0
 10 12  2  0  0  0  0
 11  8  2  0  0  0  0
 11 13  1  0  0  0  0
 12 14  1  0  0  0  0
 13  9  2  0  0  0  0
 15 14  1  0  0  0  0
 15 16  2  0  0  0  0
 18 19  1  6  0  0  0
 18 17  1  0  0  0  0
 18 15  1  0  0  0  0
 20 18  2  0  0  0  0
 21 38  1  6  0  0  0
 22 24  1  0  0  0  0
 22 32  1  1  0  0  0
 23 29  1  1  0  0  0
 23 24  1  0  0  0  0
 25 21  1  6  0  0  0
 25 23  1  0  0  0  0
 25 22  1  0  0  0  0
 26 29  1  0  0  0  0
 26 31  1  0  0  0  0
 28 30  1  0  0  0  0
 29 28  2  0  0  0  0
 30 27  2  0  0  0  0
 31 30  1  0  0  0  0
 32 34  2  0  0  0  0
 32 33  1  0  0  0  0
 33 36  1  0  0  0  0
 36 35  1  0  0  0  0
 36 37  1  1  0  0  0
 39 40  1  0  0  0  0
 40 38  1  0  0  0  0
M  END
>  <MODEL>
7

>  <REMARK>
 VINA RESULT:      -6.4      5.233     10.404
  Name = 
  13 active torsions:
  status: ('A' for Active; 'I' for Inactive)
    1  A    between atoms: C_2  and  C_12
    2  A    between atoms: C_2  and  C_23
    3  A    between atoms: C_3  and  C_8
    4  A    between atoms: C_6  and  C_30
    5  A    between atoms: C_7  and  C_11
    6  A    between atoms: C_11  and  C_12
    7  A    between atoms: N_18  and  C_25
    8  A    between atoms: C_19  and  P_20
    9  A    between atoms: C_22  and  N_27
   10  A    between atoms: C_23  and  C_29
   11  A    between atoms: C_28  and  C_29
   12  A    between atoms: C_29  and  C_36
   13  A    between atoms: C_33  and  C_36
                            x       y       z     vdW  Elec       q    Type
                         _______ _______ _______ _____ _____    ______ ____

>  <TORSDO>
F 13

$$$$
=
 OpenBabel10232412473D

 40 42  0  0  1  0  0  0  0  0999 V2000
  185.6370  179.3590  142.4250 C   0  0  0  0  0  2  0  0  0  0  0  0
  184.4220  178.5040  142.0840 C   0  0  0  0  0  2  0  0  0  0  0  0
  183.8850  178.8430  140.7320 C   0  0  0  0  0  0  0  0  0  0  0  0
  184.5450  179.5370  139.9760 O   0  0  0  0  0  0  0  0  0  0  0  0
  182.5190  178.3530  140.3430 C   0  0  1  0  0  3  0  0  0  0  0  0
  181.5060  178.5340  141.4610 C   0  0  0  0  0  1  0  0  0  0  0  0
  181.0830  182.3270  137.7240 C   0  0  0  0  0  1  0  0  0  0  0  0
  181.1320  180.0760  136.6480 C   0  0  0  0  0  3  0  0  0  0  0  0
  182.0480  178.9060  139.0260 C   0  0  0  0  0  0  0  0  0  0  0  0
  181.3660  178.7000  136.7040 C   0  0  0  0  0  3  0  0  0  0  0  0
  181.3480  180.8670  137.7760 C   0  0  0  0  0  0  0  0  0  0  0  0
  181.8120  178.0990  137.8880 C   0  0  0  0  0  0  0  0  0  0  0  0
  181.8000  180.2820  138.9590 C   0  0  0  0  0  3  0  0  0  0  0  0
  182.1080  176.6930  137.9350 N   0  0  0  0  0  2  0  0  0  0  0  0
  183.3710  176.0380  137.7690 C   0  0  0  0  0  0  0  0  0  0  0  0
  183.4760  174.8070  138.1470 N   0  0  0  0  0  2  0  0  0  0  0  0
  185.9750  175.6480  136.6960 O   0  0  0  0  0  0  0  0  0  0  0  0
  184.6780  176.7350  136.7530 P   0  0  1  0  0  0  0  0  0  0  0  0
  184.0770  177.0180  135.0620 C   0  0  0  0  0  1  0  0  0  0  0  0
  185.1590  178.0380  137.3450 O   0  0  0  0  0  1  0  0  0  0  0  0
  186.3070  178.8970  143.7140 C   0  0  2  0  0  3  0  0  0  0  0  0
  187.6020  177.2860  142.2030 C   0  0  1  0  0  3  0  0  0  0  0  0
  187.9640  177.0850  144.4010 C   0  0  2  0  0  3  0  0  0  0  0  0
  188.0090  175.7690  143.1380 S   0  0  0  0  0  0  0  0  0  0  0  0
  187.6490  178.1980  143.4180 C   0  0  2  0  0  3  0  0  0  0  0  0
  190.4120  178.4570  144.5800 S   0  0  0  0  0  0  0  0  0  0  0  0
  191.9820  176.2080  147.4750 S   0  0  0  0  0  0  0  0  0  0  0  0
  189.8580  176.5310  145.9830 N   0  0  0  0  0  0  0  0  0  0  0  0
  189.3170  177.2860  145.0030 C   0  0  0  0  0  0  0  0  0  0  0  0
  191.1140  176.9600  146.3170 C   0  0  0  0  0  0  0  0  0  0  0  0
  191.6160  178.0340  145.6460 N   0  0  0  0  0  2  0  0  0  0  0  0
  188.6790  177.6820  141.2340 C   0  0  0  0  0  0  0  0  0  0  0  0
  188.3550  178.1610  139.9260 N   0  0  0  0  0  2  0  0  0  0  0  0
  189.8830  177.5350  141.5710 O   0  0  0  0  0  0  0  0  0  0  0  0
  188.9800  179.5390  138.1490 O   0  0  0  0  0  1  0  0  0  0  0  0
  189.3620  178.4330  138.9130 C   0  0  2  0  0  3  0  0  0  0  0  0
  189.4900  177.2240  138.0060 C   0  0  0  0  0  1  0  0  0  0  0  0
  185.3290  178.0390  144.5130 C   0  0  0  0  0  2  0  0  0  0  0  0
  185.6350  178.4180  146.9510 C   0  0  0  0  0  1  0  0  0  0  0  0
  184.8170  178.7930  145.7330 C   0  0  0  0  0  2  0  0  0  0  0  0
  2  1  1  0  0  0  0
  3  2  1  0  0  0  0
  4  3  2  0  0  0  0
  5  3  1  0  0  0  0
  5  6  1  1  0  0  0
  7 11  1  0  0  0  0
  8 10  2  0  0  0  0
  8 11  1  0  0  0  0
  9  5  1  0  0  0  0
 10 12  1  0  0  0  0
 11 13  2  0  0  0  0
 12 14  1  0  0  0  0
 12  9  2  0  0  0  0
 13  9  1  0  0  0  0
 15 14  1  0  0  0  0
 15 16  2  0  0  0  0
 17 18  2  0  0  0  0
 18 19  1  6  0  0  0
 18 20  1  0  0  0  0
 18 15  1  0  0  0  0
 21  1  1  6  0  0  0
 21 38  1  0  0  0  0
 22 32  1  6  0  0  0
 22 24  1  0  0  0  0
 22 25  1  0  0  0  0
 23 29  1  6  0  0  0
 24 23  1  0  0  0  0
 25 21  1  1  0  0  0
 25 23  1  0  0  0  0
 26 29  1  0  0  0  0
 26 31  1  0  0  0  0
 28 30  1  0  0  0  0
 29 28  2  0  0  0  0
 30 27  2  0  0  0  0
 31 30  1  0  0  0  0
 32 34  2  0  0  0  0
 33 32  1  0  0  0  0
 35 36  1  0  0  0  0
 36 37  1  6  0  0  0
 36 33  1  0  0  0  0
 38 40  1  0  0  0  0
 40 39  1  0  0  0  0
M  END
>  <MODEL>
8

>  <REMARK>
 VINA RESULT:      -6.4      4.003      7.544
  Name = 
  13 active torsions:
  status: ('A' for Active; 'I' for Inactive)
    1  A    between atoms: C_2  and  C_12
    2  A    between atoms: C_2  and  C_23
    3  A    between atoms: C_3  and  C_8
    4  A    between atoms: C_6  and  C_30
    5  A    between atoms: C_7  and  C_11
    6  A    between atoms: C_11  and  C_12
    7  A    between atoms: N_18  and  C_25
    8  A    between atoms: C_19  and  P_20
    9  A    between atoms: C_22  and  N_27
   10  A    between atoms: C_23  and  C_29
   11  A    between atoms: C_28  and  C_29
   12  A    between atoms: C_29  and  C_36
   13  A    between atoms: C_33  and  C_36
                            x       y       z     vdW  Elec       q    Type
                         _______ _______ _______ _____ _____    ______ ____

>  <TORSDO>
F 13

$$$$
=
 OpenBabel10232412473D

 40 42  0  0  1  0  0  0  0  0999 V2000
  185.2640  179.1650  141.4990 C   0  0  0  0  0  2  0  0  0  0  0  0
  184.0820  178.3790  140.9430 C   0  0  0  0  0  2  0  0  0  0  0  0
  183.3560  179.1620  139.8990 C   0  0  0  0  0  0  0  0  0  0  0  0
  183.9300  180.0660  139.3120 O   0  0  0  0  0  0  0  0  0  0  0  0
  181.9140  178.8480  139.6180 C   0  0  1  0  0  3  0  0  0  0  0  0
  180.9770  179.5330  140.6000 C   0  0  0  0  0  1  0  0  0  0  0  0
  180.4250  182.0510  136.1200 C   0  0  0  0  0  1  0  0  0  0  0  0
  180.7580  179.6450  135.5470 C   0  0  0  0  0  3  0  0  0  0  0  0
  181.5300  179.0750  138.1820 C   0  0  0  0  0  0  0  0  0  0  0  0
  181.0960  178.3390  135.9080 C   0  0  0  0  0  3  0  0  0  0  0  0
  180.8000  180.6650  136.4980 C   0  0  0  0  0  0  0  0  0  0  0  0
  181.4710  178.0350  137.2240 C   0  0  0  0  0  0  0  0  0  0  0  0
  181.1810  180.3780  137.8090 C   0  0  0  0  0  3  0  0  0  0  0  0
  181.8720  176.7040  137.5880 N   0  0  0  0  0  2  0  0  0  0  0  0
  183.1920  176.1510  137.6440 C   0  0  0  0  0  0  0  0  0  0  0  0
  183.3640  175.0400  138.2820 N   0  0  0  0  0  2  0  0  0  0  0  0
  185.3020  178.0340  137.3520 O   0  0  0  0  0  1  0  0  0  0  0  0
  184.5180  176.7430  136.5860 P   0  0  1  0  0  0  0  0  0  0  0  0
  185.7260  175.4180  136.2900 C   0  0  0  0  0  1  0  0  0  0  0  0
  183.9580  177.2240  135.2690 O   0  0  0  0  0  0  0  0  0  0  0  0
  185.2990  179.1250  143.0230 C   0  0  2  0  0  3  0  0  0  0  0  0
  187.3440  177.6780  142.4950 C   0  0  1  0  0  3  0  0  0  0  0  0
  186.4350  177.4000  144.5190 C   0  0  2  0  0  3  0  0  0  0  0  0
  187.2850  176.1500  143.4980 S   0  0  0  0  0  0  0  0  0  0  0  0
  186.6300  178.5340  143.5280 C   0  0  2  0  0  3  0  0  0  0  0  0
  186.6500  178.4960  147.1000 S   0  0  0  0  0  0  0  0  0  0  0  0
  190.4010  177.3250  147.7790 S   0  0  0  0  0  0  0  0  0  0  0  0
  188.4700  177.2740  146.0150 N   0  0  0  0  0  0  0  0  0  0  0  0
  187.2010  177.6660  145.7750 C   0  0  0  0  0  0  0  0  0  0  0  0
  188.8970  177.6730  147.2530 C   0  0  0  0  0  0  0  0  0  0  0  0
  188.0240  178.3760  148.0280 N   0  0  0  0  0  2  0  0  0  0  0  0
  188.7410  178.1900  142.2940 C   0  0  0  0  0  0  0  0  0  0  0  0
  189.8370  177.6570  143.0420 N   0  0  0  0  0  2  0  0  0  0  0  0
  188.9300  179.1400  141.4890 O   0  0  0  0  0  0  0  0  0  0  0  0
  192.0400  177.2930  142.3580 O   0  0  0  0  0  1  0  0  0  0  0  0
  191.1820  178.2090  142.9740 C   0  0  2  0  0  3  0  0  0  0  0  0
  191.6760  178.4810  144.3820 C   0  0  0  0  0  1  0  0  0  0  0  0
  184.0640  178.3890  143.5380 C   0  0  0  0  0  2  0  0  0  0  0  0
  181.6730  178.7860  144.0960 C   0  0  0  0  0  1  0  0  0  0  0  0
  183.0720  179.3640  144.1580 C   0  0  0  0  0  2  0  0  0  0  0  0
  2  1  1  0  0  0  0
  3  2  1  0  0  0  0
  4  3  2  0  0  0  0
  5  3  1  0  0  0  0
  5  6  1  1  0  0  0
  7 11  1  0  0  0  0
  8 10  2  0  0  0  0
  8 11  1  0  0  0  0
  9  5  1  0  0  0  0
 10 12  1  0  0  0  0
 11 13  2  0  0  0  0
 12 14  1  0  0  0  0
 12  9  2  0  0  0  0
 13  9  1  0  0  0  0
 14 15  1  0  0  0  0
 15 16  2  0  0  0  0
 18 19  1  6  0  0  0
 18 17  1  0  0  0  0
 18 15  1  0  0  0  0
 20 18  2  0  0  0  0
 21  1  1  6  0  0  0
 21 38  1  0  0  0  0
 22 32  1  1  0  0  0
 22 24  1  0  0  0  0
 22 25  1  0  0  0  0
 23 29  1  1  0  0  0
 24 23  1  0  0  0  0
 25 21  1  6  0  0  0
 25 23  1  0  0  0  0
 26 31  1  0  0  0  0
 28 30  1  0  0  0  0
 29 28  2  0  0  0  0
 29 26  1  0  0  0  0
 30 27  2  0  0  0  0
 30 31  1  0  0  0  0
 32 33  1  0  0  0  0
 34 32  2  0  0  0  0
 35 36  1  0  0  0  0
 36 33  1  0  0  0  0
 36 37  1  1  0  0  0
 38 40  1  0  0  0  0
 39 40  1  0  0  0  0
M  END
>  <MODEL>
9

>  <REMARK>
 VINA RESULT:      -6.3      4.170      8.421
  Name = 
  13 active torsions:
  status: ('A' for Active; 'I' for Inactive)
    1  A    between atoms: C_2  and  C_12
    2  A    between atoms: C_2  and  C_23
    3  A    between atoms: C_3  and  C_8
    4  A    between atoms: C_6  and  C_30
    5  A    between atoms: C_7  and  C_11
    6  A    between atoms: C_11  and  C_12
    7  A    between atoms: N_18  and  C_25
    8  A    between atoms: C_19  and  P_20
    9  A    between atoms: C_22  and  N_27
   10  A    between atoms: C_23  and  C_29
   11  A    between atoms: C_28  and  C_29
   12  A    between atoms: C_29  and  C_36
   13  A    between atoms: C_33  and  C_36
                            x       y       z     vdW  Elec       q    Type
                         _______ _______ _______ _____ _____    ______ ____

>  <TORSDO>
F 13

$$$$
