=
 OpenBabel10232412353D

 37 40  0  0  1  0  0  0  0  0999 V2000
  186.0010  179.2180  141.5610 C   0  0  2  0  0  3  0  0  0  0  0  0
  184.0740  178.8430  140.2990 C   0  0  2  0  0  3  0  0  0  0  0  0
  184.9910  178.7060  142.4810 N   0  0  0  0  0  0  0  0  0  0  0  0
  185.4390  179.3350  140.2180 N   0  0  0  0  0  2  0  0  0  0  0  0
  183.7330  178.8040  141.7680 C   0  0  0  0  0  2  0  0  0  0  0  0
  183.9770  177.4350  139.6970 C   0  0  2  0  0  3  0  0  0  0  0  0
  184.2790  177.4300  138.2310 C   0  0  0  0  0  0  0  0  0  0  0  0
  183.6120  177.2200  136.0870 N   0  0  0  0  0  0  0  0  0  0  0  0
  182.6250  176.8640  139.9070 N   0  0  0  0  0  2  0  0  0  0  0  0
  181.8820  177.2890  137.7650 N   0  0  0  0  0  2  0  0  0  0  0  0
  185.4270  177.3380  137.5890 C   0  0  0  0  0  3  0  0  0  0  0  0
  185.0780  177.2470  136.1210 C   0  0  0  0  0  2  0  0  0  0  0  0
  181.6590  177.5640  139.1330 N   0  0  0  0  0  2  0  0  0  0  0  0
  183.2210  177.3670  137.3010 C   0  0  0  0  0  0  0  0  0  0  0  0
  187.2480  177.3440  142.2810 O   0  0  0  0  0  0  0  0  0  0  0  0
  187.1920  178.3100  141.5360 C   0  0  0  0  0  0  0  0  0  0  0  0
  188.3000  178.5550  140.5620 C   0  0  0  0  0  2  0  0  0  0  0  0
  188.6360  177.2840  139.7960 C   0  0  0  0  0  2  0  0  0  0  0  0
  189.9110  176.7510  140.2450 N   0  0  0  0  0  2  0  0  0  0  0  0
  190.5840  177.8240  140.9540 C   0  0  0  0  0  2  0  0  0  0  0  0
  191.0010  177.3480  142.3310 C   0  0  2  0  0  3  0  0  0  0  0  0
  190.3100  176.1780  142.6510 O   0  0  0  0  0  1  0  0  0  0  0  0
  190.6830  178.4300  143.3500 C   0  0  0  0  0  2  0  0  0  0  0  0
  189.7270  176.7460  147.1740 C   0  0  0  0  0  3  0  0  0  0  0  0
  189.0270  177.8410  145.1330 C   0  0  0  0  0  3  0  0  0  0  0  0
  190.3490  177.8340  144.6750 C   0  0  0  0  0  0  0  0  0  0  0  0
  191.3590  177.2850  145.4710 C   0  0  0  0  0  3  0  0  0  0  0  0
  191.0560  176.7380  146.7240 C   0  0  0  0  0  0  0  0  0  0  0  0
  188.7170  177.2960  146.3810 C   0  0  0  0  0  3  0  0  0  0  0  0
  192.1240  176.1630  147.5560 C   0  0  0  0  0  0  0  0  0  0  0  0
  192.6530  176.8880  148.6180 O   0  0  0  0  0  1  0  0  0  0  0  0
  192.5690  175.0080  147.3160 O   0  0  0  0  0  0  0  0  0  0  0  0
  184.9210  179.6350  143.5980 C   0  0  0  0  0  2  0  0  0  0  0  0
  183.6830  178.7740  145.5580 C   0  0  0  0  0  1  0  0  0  0  0  0
  185.5550  177.6220  144.6970 F   0  0  0  0  0  0  0  0  0  0  0  0
  185.8920  179.5810  145.7690 F   0  0  0  0  0  0  0  0  0  0  0  0
  185.0500  178.8900  144.9180 C   0  0  0  0  0  0  0  0  0  0  0  0
  1 16  1  6  0  0  0
  1  3  1  0  0  0  0
  2  5  1  1  0  0  0
  3 33  1  0  0  0  0
  4  2  1  0  0  0  0
  4  1  1  0  0  0  0
  5  3  1  0  0  0  0
  6  7  1  6  0  0  0
  6  9  1  0  0  0  0
  6  2  1  0  0  0  0
  8 12  1  0  0  0  0
  8 14  2  0  0  0  0
 10 13  1  0  0  0  0
 11  7  2  0  0  0  0
 12 11  1  0  0  0  0
 13  9  1  0  0  0  0
 14 10  1  0  0  0  0
 14  7  1  0  0  0  0
 16 15  2  0  0  0  0
 17 16  1  0  0  0  0
 18 19  1  0  0  0  0
 18 17  1  0  0  0  0
 19 20  1  0  0  0  0
 20 21  1  0  0  0  0
 21 22  1  1  0  0  0
 21 23  1  0  0  0  0
 23 26  1  0  0  0  0
 25 29  1  0  0  0  0
 26 25  2  0  0  0  0
 26 27  1  0  0  0  0
 27 28  2  0  0  0  0
 28 24  1  0  0  0  0
 28 30  1  0  0  0  0
 29 24  2  0  0  0  0
 30 31  1  0  0  0  0
 32 30  2  0  0  0  0
 33 37  1  0  0  0  0
 35 37  1  0  0  0  0
 37 34  1  0  0  0  0
 37 36  1  0  0  0  0
M  END
>  <MODEL>
1

>  <REMARK>
 VINA RESULT:      -8.0      0.000      0.000
  Name = 
  12 active torsions:
  status: ('A' for Active; 'I' for Inactive)
    1  A    between atoms: C_1  and  C_27
    2  A    between atoms: C_2  and  N_8
    3  A    between atoms: C_2  and  C_35
    4  A    between atoms: C_3  and  C_4
    5  A    between atoms: C_5  and  C_32
    6  A    between atoms: C_7  and  N_15
    7  A    between atoms: C_7  and  C_26
    8  A    between atoms: C_11  and  C_18
    9  A    between atoms: C_11  and  C_29
   10  A    between atoms: N_15  and  C_18
   11  A    between atoms: C_24  and  C_29
   12  A    between atoms: C_26  and  C_27
                            x       y       z     vdW  Elec       q    Type
                         _______ _______ _______ _____ _____    ______ ____

>  <TORSDO>
F 12

$$$$
=
 OpenBabel10232412353D

 37 40  0  0  1  0  0  0  0  0999 V2000
  189.9920  177.4520  144.7230 C   0  0  2  0  0  3  0  0  0  0  0  0
  188.1100  178.2870  145.8220 C   0  0  2  0  0  3  0  0  0  0  0  0
  189.9410  176.7950  146.0250 N   0  0  0  0  0  0  0  0  0  0  0  0
  188.8850  178.3970  144.5970 N   0  0  0  0  0  2  0  0  0  0  0  0
  188.9900  177.5590  146.8070 C   0  0  0  0  0  2  0  0  0  0  0  0
  186.8250  177.4860  145.5710 C   0  0  2  0  0  3  0  0  0  0  0  0
  186.0300  178.0450  144.4330 C   0  0  0  0  0  0  0  0  0  0  0  0
  184.2180  179.1360  143.6490 N   0  0  0  0  0  0  0  0  0  0  0  0
  185.9720  177.4650  146.7830 N   0  0  0  0  0  2  0  0  0  0  0  0
  184.5110  179.0880  146.0420 N   0  0  0  0  0  2  0  0  0  0  0  0
  186.1080  177.8200  143.1360 C   0  0  0  0  0  3  0  0  0  0  0  0
  184.9510  178.5670  142.5120 C   0  0  0  0  0  2  0  0  0  0  0  0
  185.4450  178.7590  147.0490 N   0  0  0  0  0  2  0  0  0  0  0  0
  184.8970  178.8420  144.6980 C   0  0  0  0  0  0  0  0  0  0  0  0
  188.8930  175.8110  143.4260 O   0  0  0  0  0  0  0  0  0  0  0  0
  189.9220  176.4370  143.6240 C   0  0  0  0  0  0  0  0  0  0  0  0
  191.1010  176.2200  142.7300 C   0  0  0  0  0  2  0  0  0  0  0  0
  191.5500  177.5300  142.1010 C   0  0  0  0  0  2  0  0  0  0  0  0
  191.6100  177.3970  140.6550 N   0  0  0  0  0  2  0  0  0  0  0  0
  190.3450  176.8180  140.2380 C   0  0  0  0  0  2  0  0  0  0  0  0
  190.2910  176.7340  138.7260 C   0  0  2  0  0  3  0  0  0  0  0  0
  191.5890  176.7110  138.2120 O   0  0  0  0  0  1  0  0  0  0  0  0
  189.5440  177.9420  138.1860 C   0  0  0  0  0  2  0  0  0  0  0  0
  185.5220  176.9340  137.0960 C   0  0  0  0  0  3  0  0  0  0  0  0
  187.9070  176.6150  136.8360 C   0  0  0  0  0  3  0  0  0  0  0  0
  188.1450  177.5830  137.8160 C   0  0  0  0  0  0  0  0  0  0  0  0
  187.0690  178.2290  138.4320 C   0  0  0  0  0  3  0  0  0  0  0  0
  185.7520  177.9090  138.0780 C   0  0  0  0  0  0  0  0  0  0  0  0
  186.5960  176.2890  136.4770 C   0  0  0  0  0  3  0  0  0  0  0  0
  184.6250  178.5930  138.7310 C   0  0  0  0  0  0  0  0  0  0  0  0
  184.8000  179.8540  139.2900 O   0  0  0  0  0  1  0  0  0  0  0  0
  183.4920  178.0440  138.7900 O   0  0  0  0  0  0  0  0  0  0  0  0
  191.2450  176.9740  146.6460 C   0  0  0  0  0  2  0  0  0  0  0  0
  192.8230  175.8850  148.2060 C   0  0  0  0  0  1  0  0  0  0  0  0
  190.7690  174.8670  147.6440 F   0  0  0  0  0  0  0  0  0  0  0  0
  192.3900  174.9690  146.0740 F   0  0  0  0  0  0  0  0  0  0  0  0
  191.7930  175.6390  147.1260 C   0  0  0  0  0  0  0  0  0  0  0  0
  1 16  1  6  0  0  0
  1  3  1  0  0  0  0
  2  5  1  1  0  0  0
  3 33  1  0  0  0  0
  3  5  1  0  0  0  0
  4  1  1  0  0  0  0
  4  2  1  0  0  0  0
  6  7  1  6  0  0  0
  6  2  1  0  0  0  0
  6  9  1  0  0  0  0
  7 14  1  0  0  0  0
  8 14  2  0  0  0  0
  9 13  1  0  0  0  0
 10 13  1  0  0  0  0
 11  7  2  0  0  0  0
 12 11  1  0  0  0  0
 12  8  1  0  0  0  0
 14 10  1  0  0  0  0
 15 16  2  0  0  0  0
 17 16  1  0  0  0  0
 18 17  1  0  0  0  0
 19 18  1  0  0  0  0
 20 19  1  0  0  0  0
 21 22  1  6  0  0  0
 21 20  1  0  0  0  0
 23 21  1  0  0  0  0
 24 28  1  0  0  0  0
 25 26  2  0  0  0  0
 26 23  1  0  0  0  0
 26 27  1  0  0  0  0
 28 27  2  0  0  0  0
 28 30  1  0  0  0  0
 29 25  1  0  0  0  0
 29 24  2  0  0  0  0
 30 32  2  0  0  0  0
 30 31  1  0  0  0  0
 33 37  1  0  0  0  0
 36 37  1  0  0  0  0
 37 35  1  0  0  0  0
 37 34  1  0  0  0  0
M  END
>  <MODEL>
2

>  <REMARK>
 VINA RESULT:      -8.0      3.269      7.580
  Name = 
  12 active torsions:
  status: ('A' for Active; 'I' for Inactive)
    1  A    between atoms: C_1  and  C_27
    2  A    between atoms: C_2  and  N_8
    3  A    between atoms: C_2  and  C_35
    4  A    between atoms: C_3  and  C_4
    5  A    between atoms: C_5  and  C_32
    6  A    between atoms: C_7  and  N_15
    7  A    between atoms: C_7  and  C_26
    8  A    between atoms: C_11  and  C_18
    9  A    between atoms: C_11  and  C_29
   10  A    between atoms: N_15  and  C_18
   11  A    between atoms: C_24  and  C_29
   12  A    between atoms: C_26  and  C_27
                            x       y       z     vdW  Elec       q    Type
                         _______ _______ _______ _____ _____    ______ ____

>  <TORSDO>
F 12

$$$$
=
 OpenBabel10232412353D

 37 40  0  0  1  0  0  0  0  0999 V2000
  188.1580  177.7100  136.5490 C   0  0  2  0  0  3  0  0  0  0  0  0
  189.2420  175.6820  136.1540 C   0  0  2  0  0  3  0  0  0  0  0  0
  187.1520  176.6630  136.6950 N   0  0  0  0  0  0  0  0  0  0  0  0
  189.4440  177.1210  136.1860 N   0  0  0  0  0  2  0  0  0  0  0  0
  187.7480  175.4720  136.1220 C   0  0  0  0  0  2  0  0  0  0  0  0
  189.8390  175.0300  137.4080 C   0  0  2  0  0  3  0  0  0  0  0  0
  191.2080  175.5540  137.7130 C   0  0  0  0  0  0  0  0  0  0  0  0
  193.4430  175.2720  137.8180 N   0  0  0  0  0  0  0  0  0  0  0  0
  189.9170  173.5580  137.2500 N   0  0  0  0  0  2  0  0  0  0  0  0
  192.1710  173.5160  136.7620 N   0  0  0  0  0  2  0  0  0  0  0  0
  191.5910  176.6100  138.4030 C   0  0  0  0  0  3  0  0  0  0  0  0
  193.0980  176.5360  138.4790 C   0  0  0  0  0  2  0  0  0  0  0  0
  190.8840  173.2080  136.2680 N   0  0  0  0  0  2  0  0  0  0  0  0
  192.3410  174.7860  137.3730 C   0  0  0  0  0  0  0  0  0  0  0  0
  188.8940  179.5460  137.8420 O   0  0  0  0  0  0  0  0  0  0  0  0
  188.2950  178.4830  137.8250 C   0  0  0  0  0  0  0  0  0  0  0  0
  187.6540  177.9770  139.0780 C   0  0  0  0  0  2  0  0  0  0  0  0
  188.6740  177.8710  140.2010 C   0  0  0  0  0  2  0  0  0  0  0  0
  188.2990  178.7420  141.3030 N   0  0  0  0  0  2  0  0  0  0  0  0
  187.3020  178.0240  142.0780 C   0  0  0  0  0  2  0  0  0  0  0  0
  187.9720  177.2810  143.2160 C   0  0  2  0  0  3  0  0  0  0  0  0
  188.2300  175.9650  142.8280 O   0  0  0  0  0  1  0  0  0  0  0  0
  187.0540  177.2920  144.4270 C   0  0  0  0  0  2  0  0  0  0  0  0
  189.3040  177.7840  148.0420 C   0  0  0  0  0  3  0  0  0  0  0  0
  187.2340  178.0260  146.8130 C   0  0  0  0  0  3  0  0  0  0  0  0
  187.8330  177.4520  145.6870 C   0  0  0  0  0  0  0  0  0  0  0  0
  189.1710  177.0480  145.7400 C   0  0  0  0  0  3  0  0  0  0  0  0
  189.9150  177.2110  146.9160 C   0  0  0  0  0  0  0  0  0  0  0  0
  187.9690  178.1900  147.9900 C   0  0  0  0  0  3  0  0  0  0  0  0
  191.3220  176.7830  146.9640 C   0  0  0  0  0  0  0  0  0  0  0  0
  191.9500  176.3110  145.8180 O   0  0  0  0  0  0  0  0  0  0  0  0
  191.9710  176.8420  148.0440 O   0  0  0  0  0  1  0  0  0  0  0  0
  186.0280  177.0280  135.8470 C   0  0  0  0  0  2  0  0  0  0  0  0
  184.4860  175.8930  137.4110 C   0  0  0  0  0  1  0  0  0  0  0  0
  184.9310  178.2030  137.6000 F   0  0  0  0  0  0  0  0  0  0  0  0
  183.6940  177.4810  135.8550 F   0  0  0  0  0  0  0  0  0  0  0  0
  184.7650  177.1870  136.6780 C   0  0  0  0  0  0  0  0  0  0  0  0
  1  3  1  0  0  0  0
  1 16  1  1  0  0  0
  2  5  1  1  0  0  0
  2  4  1  0  0  0  0
  2  6  1  0  0  0  0
  4  1  1  0  0  0  0
  5  3  1  0  0  0  0
  6  9  1  6  0  0  0
  6  7  1  0  0  0  0
  7 11  2  0  0  0  0
  8 12  1  0  0  0  0
 10 14  1  0  0  0  0
 11 12  1  0  0  0  0
 13 10  1  0  0  0  0
 13  9  1  0  0  0  0
 14  7  1  0  0  0  0
 14  8  2  0  0  0  0
 16 15  2  0  0  0  0
 16 17  1  0  0  0  0
 17 18  1  0  0  0  0
 18 19  1  0  0  0  0
 19 20  1  0  0  0  0
 20 21  1  0  0  0  0
 21 22  1  6  0  0  0
 21 23  1  0  0  0  0
 23 26  1  0  0  0  0
 25 29  2  0  0  0  0
 26 27  2  0  0  0  0
 26 25  1  0  0  0  0
 27 28  1  0  0  0  0
 28 30  1  0  0  0  0
 28 24  2  0  0  0  0
 29 24  1  0  0  0  0
 30 32  1  0  0  0  0
 31 30  2  0  0  0  0
 33 37  1  0  0  0  0
 33  3  1  0  0  0  0
 36 37  1  0  0  0  0
 37 34  1  0  0  0  0
 37 35  1  0  0  0  0
M  END
>  <MODEL>
3

>  <REMARK>
 VINA RESULT:      -7.9      3.470      6.234
  Name = 
  12 active torsions:
  status: ('A' for Active; 'I' for Inactive)
    1  A    between atoms: C_1  and  C_27
    2  A    between atoms: C_2  and  N_8
    3  A    between atoms: C_2  and  C_35
    4  A    between atoms: C_3  and  C_4
    5  A    between atoms: C_5  and  C_32
    6  A    between atoms: C_7  and  N_15
    7  A    between atoms: C_7  and  C_26
    8  A    between atoms: C_11  and  C_18
    9  A    between atoms: C_11  and  C_29
   10  A    between atoms: N_15  and  C_18
   11  A    between atoms: C_24  and  C_29
   12  A    between atoms: C_26  and  C_27
                            x       y       z     vdW  Elec       q    Type
                         _______ _______ _______ _____ _____    ______ ____

>  <TORSDO>
F 12

$$$$
=
 OpenBabel10232412353D

 37 40  0  0  1  0  0  0  0  0999 V2000
  189.7300  178.2330  141.9790 C   0  0  2  0  0  3  0  0  0  0  0  0
  190.8640  177.8080  143.9740 C   0  0  2  0  0  3  0  0  0  0  0  0
  190.7270  177.2100  141.6840 N   0  0  0  0  0  0  0  0  0  0  0  0
  189.8240  178.6320  143.3810 N   0  0  0  0  0  2  0  0  0  0  0  0
  191.6280  177.2080  142.8200 C   0  0  0  0  0  2  0  0  0  0  0  0
  190.2420  176.6960  144.8300 C   0  0  2  0  0  3  0  0  0  0  0  0
  189.3320  177.2440  145.8850 C   0  0  0  0  0  0  0  0  0  0  0  0
  188.8690  177.6840  148.0480 N   0  0  0  0  0  0  0  0  0  0  0  0
  191.2940  175.8840  145.4840 N   0  0  0  0  0  2  0  0  0  0  0  0
  191.0930  176.8980  147.5460 N   0  0  0  0  0  2  0  0  0  0  0  0
  188.0530  177.5610  145.8380 C   0  0  0  0  0  3  0  0  0  0  0  0
  187.6610  177.9280  147.2510 C   0  0  0  0  0  2  0  0  0  0  0  0
  191.9760  176.6460  146.4730 N   0  0  0  0  0  2  0  0  0  0  0  0
  189.7850  177.3400  147.2170 C   0  0  0  0  0  0  0  0  0  0  0  0
  187.8060  176.9470  142.4590 O   0  0  0  0  0  0  0  0  0  0  0  0
  188.3540  177.7190  141.6870 C   0  0  0  0  0  0  0  0  0  0  0  0
  187.6220  178.1880  140.4710 C   0  0  0  0  0  2  0  0  0  0  0  0
  186.1830  178.5460  140.8110 C   0  0  0  0  0  2  0  0  0  0  0  0
  185.5800  179.2880  139.7160 N   0  0  0  0  0  2  0  0  0  0  0  0
  184.7520  178.3480  138.9830 C   0  0  0  0  0  2  0  0  0  0  0  0
  183.7350  177.7210  139.9150 C   0  0  2  0  0  3  0  0  0  0  0  0
  183.1840  176.5880  139.3130 O   0  0  0  0  0  1  0  0  0  0  0  0
  182.6400  178.7320  140.2110 C   0  0  0  0  0  2  0  0  0  0  0  0
  181.6360  178.7710  144.3780 C   0  0  0  0  0  3  0  0  0  0  0  0
  180.9550  178.6420  142.0590 C   0  0  0  0  0  3  0  0  0  0  0  0
  182.2920  178.7340  141.6600 C   0  0  0  0  0  0  0  0  0  0  0  0
  183.3000  178.8490  142.6230 C   0  0  0  0  0  3  0  0  0  0  0  0
  182.9790  178.8680  143.9860 C   0  0  0  0  0  0  0  0  0  0  0  0
  180.6270  178.6590  143.4170 C   0  0  0  0  0  3  0  0  0  0  0  0
  184.0460  178.9890  144.9930 C   0  0  0  0  0  0  0  0  0  0  0  0
  183.7590  178.8120  146.3420 O   0  0  0  0  0  1  0  0  0  0  0  0
  185.2280  179.2540  144.6430 O   0  0  0  0  0  0  0  0  0  0  0  0
  191.4910  177.6740  140.5360 C   0  0  0  0  0  2  0  0  0  0  0  0
  192.2200  176.5320  138.4680 C   0  0  0  0  0  1  0  0  0  0  0  0
  190.2480  175.8800  139.5900 F   0  0  0  0  0  0  0  0  0  0  0  0
  190.2680  177.8600  138.5050 F   0  0  0  0  0  0  0  0  0  0  0  0
  191.0170  176.9830  139.2670 C   0  0  0  0  0  0  0  0  0  0  0  0
  1 16  1  1  0  0  0
  1  4  1  0  0  0  0
  2  5  1  6  0  0  0
  2  6  1  0  0  0  0
  3  1  1  0  0  0  0
  3  5  1  0  0  0  0
  4  2  1  0  0  0  0
  6  9  1  1  0  0  0
  6  7  1  0  0  0  0
  7 14  1  0  0  0  0
  9 13  1  0  0  0  0
 11  7  2  0  0  0  0
 11 12  1  0  0  0  0
 12  8  1  0  0  0  0
 13 10  1  0  0  0  0
 14 10  1  0  0  0  0
 14  8  2  0  0  0  0
 16 15  2  0  0  0  0
 17 18  1  0  0  0  0
 17 16  1  0  0  0  0
 19 18  1  0  0  0  0
 20 19  1  0  0  0  0
 20 21  1  0  0  0  0
 21 22  1  6  0  0  0
 21 23  1  0  0  0  0
 23 26  1  0  0  0  0
 25 29  1  0  0  0  0
 26 25  2  0  0  0  0
 26 27  1  0  0  0  0
 27 28  2  0  0  0  0
 28 24  1  0  0  0  0
 28 30  1  0  0  0  0
 29 24  2  0  0  0  0
 30 31  1  0  0  0  0
 32 30  2  0  0  0  0
 33  3  1  0  0  0  0
 34 37  1  0  0  0  0
 36 37  1  0  0  0  0
 37 35  1  0  0  0  0
 37 33  1  0  0  0  0
M  END
>  <MODEL>
4

>  <REMARK>
 VINA RESULT:      -7.8      3.439      8.511
  Name = 
  12 active torsions:
  status: ('A' for Active; 'I' for Inactive)
    1  A    between atoms: C_1  and  C_27
    2  A    between atoms: C_2  and  N_8
    3  A    between atoms: C_2  and  C_35
    4  A    between atoms: C_3  and  C_4
    5  A    between atoms: C_5  and  C_32
    6  A    between atoms: C_7  and  N_15
    7  A    between atoms: C_7  and  C_26
    8  A    between atoms: C_11  and  C_18
    9  A    between atoms: C_11  and  C_29
   10  A    between atoms: N_15  and  C_18
   11  A    between atoms: C_24  and  C_29
   12  A    between atoms: C_26  and  C_27
                            x       y       z     vdW  Elec       q    Type
                         _______ _______ _______ _____ _____    ______ ____

>  <TORSDO>
F 12

$$$$
=
 OpenBabel10232412353D

 37 40  0  0  1  0  0  0  0  0999 V2000
  188.3110  177.7070  136.7500 C   0  0  2  0  0  3  0  0  0  0  0  0
  189.3410  175.6870  136.1960 C   0  0  2  0  0  3  0  0  0  0  0  0
  187.3050  176.6640  136.9170 N   0  0  0  0  0  0  0  0  0  0  0  0
  189.5630  177.1220  136.2760 N   0  0  0  0  0  2  0  0  0  0  0  0
  187.8460  175.4940  136.2550 C   0  0  0  0  0  2  0  0  0  0  0  0
  190.0110  174.9750  137.3780 C   0  0  2  0  0  3  0  0  0  0  0  0
  191.4580  175.3400  137.5040 C   0  0  0  0  0  0  0  0  0  0  0  0
  193.6430  174.8050  137.3380 N   0  0  0  0  0  0  0  0  0  0  0  0
  189.9020  173.5040  137.2370 N   0  0  0  0  0  2  0  0  0  0  0  0
  192.0590  173.2030  136.4770 N   0  0  0  0  0  2  0  0  0  0  0  0
  192.0400  176.3480  138.1230 C   0  0  0  0  0  3  0  0  0  0  0  0
  193.5270  176.1020  138.0140 C   0  0  0  0  0  2  0  0  0  0  0  0
  190.6940  173.0420  136.1490 N   0  0  0  0  0  2  0  0  0  0  0  0
  192.4460  174.4470  137.0400 C   0  0  0  0  0  0  0  0  0  0  0  0
  188.9980  179.5540  138.0550 O   0  0  0  0  0  0  0  0  0  0  0  0
  188.5420  178.4210  138.0460 C   0  0  0  0  0  0  0  0  0  0  0  0
  188.1690  177.7670  139.3370 C   0  0  0  0  0  2  0  0  0  0  0  0
  189.3790  177.6460  140.2510 C   0  0  0  0  0  2  0  0  0  0  0  0
  188.9830  177.8440  141.6350 N   0  0  0  0  0  2  0  0  0  0  0  0
  190.1130  177.4410  142.4530 C   0  0  0  0  0  2  0  0  0  0  0  0
  190.1160  178.2250  143.7500 C   0  0  2  0  0  3  0  0  0  0  0  0
  191.2800  178.9920  143.8320 O   0  0  0  0  0  1  0  0  0  0  0  0
  190.0550  177.2540  144.9180 C   0  0  0  0  0  2  0  0  0  0  0  0
  186.8480  178.2280  147.5900 C   0  0  0  0  0  3  0  0  0  0  0  0
  189.1600  177.6100  147.2280 C   0  0  0  0  0  3  0  0  0  0  0  0
  188.9430  177.6040  145.8460 C   0  0  0  0  0  0  0  0  0  0  0  0
  187.6760  177.9070  145.3390 C   0  0  0  0  0  3  0  0  0  0  0  0
  186.6210  178.2220  146.2060 C   0  0  0  0  0  0  0  0  0  0  0  0
  188.1130  177.9230  148.0990 C   0  0  0  0  0  3  0  0  0  0  0  0
  185.2910  178.5400  145.6640 C   0  0  0  0  0  0  0  0  0  0  0  0
  185.0610  178.4860  144.2940 O   0  0  0  0  0  0  0  0  0  0  0  0
  184.3470  178.8620  146.4360 O   0  0  0  0  0  1  0  0  0  0  0  0
  186.1320  177.0770  136.1620 C   0  0  0  0  0  2  0  0  0  0  0  0
  183.6660  177.2600  136.1640 C   0  0  0  0  0  1  0  0  0  0  0  0
  184.7710  175.6680  137.5120 F   0  0  0  0  0  0  0  0  0  0  0  0
  184.9350  177.8510  138.0660 F   0  0  0  0  0  0  0  0  0  0  0  0
  184.8790  176.9540  137.0160 C   0  0  0  0  0  0  0  0  0  0  0  0
  1  3  1  0  0  0  0
  1 16  1  1  0  0  0
  2  5  1  1  0  0  0
  2  4  1  0  0  0  0
  2  6  1  0  0  0  0
  4  1  1  0  0  0  0
  5  3  1  0  0  0  0
  6  9  1  6  0  0  0
  6  7  1  0  0  0  0
  7 11  2  0  0  0  0
  8 12  1  0  0  0  0
 10 14  1  0  0  0  0
 12 11  1  0  0  0  0
 13 10  1  0  0  0  0
 13  9  1  0  0  0  0
 14  8  2  0  0  0  0
 14  7  1  0  0  0  0
 16 15  2  0  0  0  0
 16 17  1  0  0  0  0
 17 18  1  0  0  0  0
 18 19  1  0  0  0  0
 19 20  1  0  0  0  0
 20 21  1  0  0  0  0
 21 22  1  1  0  0  0
 21 23  1  0  0  0  0
 23 26  1  0  0  0  0
 24 29  1  0  0  0  0
 25 29  2  0  0  0  0
 26 25  1  0  0  0  0
 27 26  2  0  0  0  0
 27 28  1  0  0  0  0
 28 24  2  0  0  0  0
 30 28  1  0  0  0  0
 30 32  1  0  0  0  0
 31 30  2  0  0  0  0
 33  3  1  0  0  0  0
 33 37  1  0  0  0  0
 34 37  1  0  0  0  0
 37 35  1  0  0  0  0
 37 36  1  0  0  0  0
M  END
>  <MODEL>
5

>  <REMARK>
 VINA RESULT:      -7.8      3.585      6.650
  Name = 
  12 active torsions:
  status: ('A' for Active; 'I' for Inactive)
    1  A    between atoms: C_1  and  C_27
    2  A    between atoms: C_2  and  N_8
    3  A    between atoms: C_2  and  C_35
    4  A    between atoms: C_3  and  C_4
    5  A    between atoms: C_5  and  C_32
    6  A    between atoms: C_7  and  N_15
    7  A    between atoms: C_7  and  C_26
    8  A    between atoms: C_11  and  C_18
    9  A    between atoms: C_11  and  C_29
   10  A    between atoms: N_15  and  C_18
   11  A    between atoms: C_24  and  C_29
   12  A    between atoms: C_26  and  C_27
                            x       y       z     vdW  Elec       q    Type
                         _______ _______ _______ _____ _____    ______ ____

>  <TORSDO>
F 12

$$$$
=
 OpenBabel10232412353D

 37 40  0  0  1  0  0  0  0  0999 V2000
  187.1390  177.0170  144.9150 C   0  0  2  0  0  3  0  0  0  0  0  0
  189.1990  176.7850  143.8430 C   0  0  2  0  0  3  0  0  0  0  0  0
  188.1440  177.5750  145.8140 N   0  0  0  0  0  0  0  0  0  0  0  0
  187.7790  176.5000  143.7090 N   0  0  0  0  0  2  0  0  0  0  0  0
  189.4200  177.1210  145.2960 C   0  0  0  0  0  2  0  0  0  0  0  0
  189.5890  177.9780  142.9600 C   0  0  2  0  0  3  0  0  0  0  0  0
  189.5010  177.6490  141.5020 C   0  0  0  0  0  0  0  0  0  0  0  0
  190.4880  177.2390  139.5160 N   0  0  0  0  0  0  0  0  0  0  0  0
  190.9680  178.4290  143.2640 N   0  0  0  0  0  2  0  0  0  0  0  0
  191.9340  177.4020  141.4390 N   0  0  0  0  0  2  0  0  0  0  0  0
  188.4820  177.7040  140.6670 C   0  0  0  0  0  3  0  0  0  0  0  0
  189.0440  177.3840  139.3010 C   0  0  0  0  0  2  0  0  0  0  0  0
  191.9180  177.4560  142.8500 N   0  0  0  0  0  2  0  0  0  0  0  0
  190.6770  177.3590  140.7800 C   0  0  0  0  0  0  0  0  0  0  0  0
  185.6720  178.8050  145.4010 O   0  0  0  0  0  0  0  0  0  0  0  0
  186.1310  178.0630  144.5470 C   0  0  0  0  0  0  0  0  0  0  0  0
  185.7180  178.2340  143.1210 C   0  0  0  0  0  2  0  0  0  0  0  0
  184.2210  178.4830  143.0180 C   0  0  0  0  0  2  0  0  0  0  0  0
  183.8610  178.8120  141.6490 N   0  0  0  0  0  2  0  0  0  0  0  0
  185.1030  179.0630  140.9410 C   0  0  0  0  0  2  0  0  0  0  0  0
  184.8360  179.1610  139.4520 C   0  0  2  0  0  3  0  0  0  0  0  0
  184.1190  180.3280  139.1810 O   0  0  0  0  0  1  0  0  0  0  0  0
  184.0340  177.9490  139.0100 C   0  0  0  0  0  2  0  0  0  0  0  0
  185.2210  176.6320  135.1070 C   0  0  0  0  0  3  0  0  0  0  0  0
  183.4850  177.2970  136.6560 C   0  0  0  0  0  3  0  0  0  0  0  0
  184.4480  177.5020  137.6500 C   0  0  0  0  0  0  0  0  0  0  0  0
  185.7980  177.2670  137.3700 C   0  0  0  0  0  3  0  0  0  0  0  0
  186.1930  176.8320  136.0980 C   0  0  0  0  0  0  0  0  0  0  0  0
  183.8720  176.8640  135.3850 C   0  0  0  0  0  3  0  0  0  0  0  0
  187.6150  176.5860  135.8120 C   0  0  0  0  0  0  0  0  0  0  0  0
  188.5050  177.6510  135.7180 O   0  0  0  0  0  1  0  0  0  0  0  0
  188.0410  175.4110  135.6500 O   0  0  0  0  0  0  0  0  0  0  0  0
  187.9600  176.9400  147.1090 C   0  0  0  0  0  2  0  0  0  0  0  0
  189.4410  178.4020  148.4440 C   0  0  0  0  0  1  0  0  0  0  0  0
  187.2560  179.0830  147.8660 F   0  0  0  0  0  0  0  0  0  0  0  0
  187.5050  177.4360  149.3910 F   0  0  0  0  0  0  0  0  0  0  0  0
  188.0060  177.9770  148.2210 C   0  0  0  0  0  0  0  0  0  0  0  0
  1 16  1  6  0  0  0
  1  3  1  0  0  0  0
  2  5  1  1  0  0  0
  3 33  1  0  0  0  0
  4  2  1  0  0  0  0
  4  1  1  0  0  0  0
  5  3  1  0  0  0  0
  6  7  1  6  0  0  0
  6  9  1  0  0  0  0
  6  2  1  0  0  0  0
  8 14  2  0  0  0  0
 10 13  1  0  0  0  0
 11  7  2  0  0  0  0
 12  8  1  0  0  0  0
 12 11  1  0  0  0  0
 13  9  1  0  0  0  0
 14 10  1  0  0  0  0
 14  7  1  0  0  0  0
 16 15  2  0  0  0  0
 17 16  1  0  0  0  0
 18 17  1  0  0  0  0
 19 18  1  0  0  0  0
 20 19  1  0  0  0  0
 21 22  1  1  0  0  0
 21 20  1  0  0  0  0
 23 21  1  0  0  0  0
 24 29  2  0  0  0  0
 24 28  1  0  0  0  0
 25 26  2  0  0  0  0
 26 23  1  0  0  0  0
 27 26  1  0  0  0  0
 28 27  2  0  0  0  0
 29 25  1  0  0  0  0
 30 28  1  0  0  0  0
 31 30  1  0  0  0  0
 32 30  2  0  0  0  0
 33 37  1  0  0  0  0
 35 37  1  0  0  0  0
 37 34  1  0  0  0  0
 37 36  1  0  0  0  0
M  END
>  <MODEL>
6

>  <REMARK>
 VINA RESULT:      -7.6      3.030      8.063
  Name = 
  12 active torsions:
  status: ('A' for Active; 'I' for Inactive)
    1  A    between atoms: C_1  and  C_27
    2  A    between atoms: C_2  and  N_8
    3  A    between atoms: C_2  and  C_35
    4  A    between atoms: C_3  and  C_4
    5  A    between atoms: C_5  and  C_32
    6  A    between atoms: C_7  and  N_15
    7  A    between atoms: C_7  and  C_26
    8  A    between atoms: C_11  and  C_18
    9  A    between atoms: C_11  and  C_29
   10  A    between atoms: N_15  and  C_18
   11  A    between atoms: C_24  and  C_29
   12  A    between atoms: C_26  and  C_27
                            x       y       z     vdW  Elec       q    Type
                         _______ _______ _______ _____ _____    ______ ____

>  <TORSDO>
F 12

$$$$
=
 OpenBabel10232412353D

 37 40  0  0  1  0  0  0  0  0999 V2000
  190.3560  177.4720  144.4690 C   0  0  2  0  0  3  0  0  0  0  0  0
  188.4650  178.1700  145.6450 C   0  0  2  0  0  3  0  0  0  0  0  0
  190.3060  176.6770  145.6920 N   0  0  0  0  0  0  0  0  0  0  0  0
  189.2430  178.4170  144.4420 N   0  0  0  0  0  2  0  0  0  0  0  0
  189.3480  177.3460  146.5490 C   0  0  0  0  0  2  0  0  0  0  0  0
  187.1870  177.3930  145.3040 C   0  0  2  0  0  3  0  0  0  0  0  0
  186.3910  178.0670  144.2300 C   0  0  0  0  0  0  0  0  0  0  0  0
  184.5740  179.2250  143.5610 N   0  0  0  0  0  0  0  0  0  0  0  0
  186.3300  177.2360  146.5030 N   0  0  0  0  0  2  0  0  0  0  0  0
  184.8610  178.9210  145.9360 N   0  0  0  0  0  2  0  0  0  0  0  0
  186.4750  177.9840  142.9170 C   0  0  0  0  0  3  0  0  0  0  0  0
  185.3150  178.7860  142.3720 C   0  0  0  0  0  2  0  0  0  0  0  0
  185.7930  178.4900  146.9060 N   0  0  0  0  0  2  0  0  0  0  0  0
  185.2520  178.8230  144.5750 C   0  0  0  0  0  0  0  0  0  0  0  0
  189.8080  175.4660  143.3470 O   0  0  0  0  0  0  0  0  0  0  0  0
  190.2960  176.5810  143.2660 C   0  0  0  0  0  0  0  0  0  0  0  0
  190.7920  177.0750  141.9440 C   0  0  0  0  0  2  0  0  0  0  0  0
  189.7130  176.9460  140.8800 C   0  0  0  0  0  2  0  0  0  0  0  0
  189.0780  178.2340  140.6520 N   0  0  0  0  0  2  0  0  0  0  0  0
  188.2290  178.0780  139.4850 C   0  0  0  0  0  2  0  0  0  0  0  0
  189.0350  178.3210  138.2250 C   0  0  2  0  0  3  0  0  0  0  0  0
  188.6250  179.5170  137.6310 O   0  0  0  0  0  1  0  0  0  0  0  0
  188.8170  177.1660  137.2630 C   0  0  0  0  0  2  0  0  0  0  0  0
  192.5260  175.7890  135.6130 C   0  0  0  0  0  3  0  0  0  0  0  0
  190.2180  176.4520  135.3150 C   0  0  0  0  0  3  0  0  0  0  0  0
  190.1100  176.6980  136.6880 C   0  0  0  0  0  0  0  0  0  0  0  0
  191.2110  176.4840  137.5220 C   0  0  0  0  0  3  0  0  0  0  0  0
  192.4250  176.0290  136.9920 C   0  0  0  0  0  0  0  0  0  0  0  0
  191.4250  175.9990  134.7780 C   0  0  0  0  0  3  0  0  0  0  0  0
  193.5800  175.8060  137.8760 C   0  0  0  0  0  0  0  0  0  0  0  0
  194.4750  174.7750  137.6140 O   0  0  0  0  0  0  0  0  0  0  0  0
  193.7690  176.5470  138.8780 O   0  0  0  0  0  1  0  0  0  0  0  0
  191.6070  176.7960  146.3330 C   0  0  0  0  0  2  0  0  0  0  0  0
  192.8890  175.7930  148.1930 C   0  0  0  0  0  1  0  0  0  0  0  0
  190.8430  174.8560  147.4790 F   0  0  0  0  0  0  0  0  0  0  0  0
  192.6460  174.6660  146.1330 F   0  0  0  0  0  0  0  0  0  0  0  0
  191.9820  175.4930  147.0200 C   0  0  0  0  0  0  0  0  0  0  0  0
  1 16  1  6  0  0  0
  1  3  1  0  0  0  0
  2  5  1  1  0  0  0
  3 33  1  0  0  0  0
  3  5  1  0  0  0  0
  4  1  1  0  0  0  0
  4  2  1  0  0  0  0
  6  7  1  6  0  0  0
  6  2  1  0  0  0  0
  6  9  1  0  0  0  0
  7 14  1  0  0  0  0
  8 14  2  0  0  0  0
  9 13  1  0  0  0  0
 10 13  1  0  0  0  0
 11  7  2  0  0  0  0
 12 11  1  0  0  0  0
 12  8  1  0  0  0  0
 14 10  1  0  0  0  0
 16 15  2  0  0  0  0
 17 16  1  0  0  0  0
 18 17  1  0  0  0  0
 19 18  1  0  0  0  0
 20 19  1  0  0  0  0
 21 22  1  6  0  0  0
 21 20  1  0  0  0  0
 23 21  1  0  0  0  0
 24 28  1  0  0  0  0
 25 26  2  0  0  0  0
 26 23  1  0  0  0  0
 26 27  1  0  0  0  0
 28 27  2  0  0  0  0
 28 30  1  0  0  0  0
 29 25  1  0  0  0  0
 29 24  2  0  0  0  0
 30 32  1  0  0  0  0
 31 30  2  0  0  0  0
 33 37  1  0  0  0  0
 36 37  1  0  0  0  0
 37 35  1  0  0  0  0
 37 34  1  0  0  0  0
M  END
>  <MODEL>
7

>  <REMARK>
 VINA RESULT:      -7.6      3.690      7.538
  Name = 
  12 active torsions:
  status: ('A' for Active; 'I' for Inactive)
    1  A    between atoms: C_1  and  C_27
    2  A    between atoms: C_2  and  N_8
    3  A    between atoms: C_2  and  C_35
    4  A    between atoms: C_3  and  C_4
    5  A    between atoms: C_5  and  C_32
    6  A    between atoms: C_7  and  N_15
    7  A    between atoms: C_7  and  C_26
    8  A    between atoms: C_11  and  C_18
    9  A    between atoms: C_11  and  C_29
   10  A    between atoms: N_15  and  C_18
   11  A    between atoms: C_24  and  C_29
   12  A    between atoms: C_26  and  C_27
                            x       y       z     vdW  Elec       q    Type
                         _______ _______ _______ _____ _____    ______ ____

>  <TORSDO>
F 12

$$$$
=
 OpenBabel10232412353D

 37 40  0  0  1  0  0  0  0  0999 V2000
  187.0290  177.0370  144.7470 C   0  0  2  0  0  3  0  0  0  0  0  0
  189.1080  176.7730  143.7230 C   0  0  2  0  0  3  0  0  0  0  0  0
  188.0210  177.5800  145.6680 N   0  0  0  0  0  0  0  0  0  0  0  0
  187.6890  176.5090  143.5560 N   0  0  0  0  0  2  0  0  0  0  0  0
  189.3010  177.1060  145.1810 C   0  0  0  0  0  2  0  0  0  0  0  0
  189.5380  177.9590  142.8490 C   0  0  2  0  0  3  0  0  0  0  0  0
  189.5810  177.5990  141.3970 C   0  0  0  0  0  0  0  0  0  0  0  0
  190.7400  177.1790  139.5080 N   0  0  0  0  0  0  0  0  0  0  0  0
  190.8740  178.4560  143.2560 N   0  0  0  0  0  2  0  0  0  0  0  0
  192.0160  177.4210  141.5390 N   0  0  0  0  0  2  0  0  0  0  0  0
  188.6330  177.6080  140.4800 C   0  0  0  0  0  3  0  0  0  0  0  0
  189.3150  177.2780  139.1720 C   0  0  0  0  0  2  0  0  0  0  0  0
  191.8820  177.5020  142.9430 N   0  0  0  0  0  2  0  0  0  0  0  0
  190.8200  177.3290  140.7800 C   0  0  0  0  0  0  0  0  0  0  0  0
  185.3860  178.6730  145.2070 O   0  0  0  0  0  0  0  0  0  0  0  0
  186.0460  178.0990  144.3560 C   0  0  0  0  0  0  0  0  0  0  0  0
  185.9050  178.4940  142.9210 C   0  0  0  0  0  2  0  0  0  0  0  0
  184.4670  178.8770  142.6060 C   0  0  0  0  0  2  0  0  0  0  0  0
  183.9140  177.9720  141.6120 N   0  0  0  0  0  2  0  0  0  0  0  0
  183.2870  178.8010  140.5980 C   0  0  0  0  0  2  0  0  0  0  0  0
  184.2250  178.9720  139.4200 C   0  0  2  0  0  3  0  0  0  0  0  0
  184.3810  180.3310  139.1410 O   0  0  0  0  0  1  0  0  0  0  0  0
  183.6410  178.2610  138.2110 C   0  0  0  0  0  2  0  0  0  0  0  0
  186.3860  175.3810  136.6160 C   0  0  0  0  0  3  0  0  0  0  0  0
  185.8500  177.6690  137.1950 C   0  0  0  0  0  3  0  0  0  0  0  0
  184.6000  177.2580  137.6670 C   0  0  0  0  0  0  0  0  0  0  0  0
  184.2420  175.9070  137.6090 C   0  0  0  0  0  3  0  0  0  0  0  0
  185.1320  174.9600  137.0840 C   0  0  0  0  0  0  0  0  0  0  0  0
  186.7430  176.7300  136.6710 C   0  0  0  0  0  3  0  0  0  0  0  0
  184.7490  173.5410  137.0260 C   0  0  0  0  0  0  0  0  0  0  0  0
  184.0930  173.0370  135.9090 O   0  0  0  0  0  0  0  0  0  0  0  0
  185.0120  172.7680  137.9870 O   0  0  0  0  0  1  0  0  0  0  0  0
  187.7970  176.9480  146.9600 C   0  0  0  0  0  2  0  0  0  0  0  0
  189.3080  178.3820  148.2910 C   0  0  0  0  0  1  0  0  0  0  0  0
  187.1300  179.0980  147.7300 F   0  0  0  0  0  0  0  0  0  0  0  0
  187.3650  177.4410  149.2460 F   0  0  0  0  0  0  0  0  0  0  0  0
  187.8650  177.9790  148.0750 C   0  0  0  0  0  0  0  0  0  0  0  0
  1 16  1  6  0  0  0
  1  3  1  0  0  0  0
  2  5  1  1  0  0  0
  3 33  1  0  0  0  0
  4  2  1  0  0  0  0
  4  1  1  0  0  0  0
  5  3  1  0  0  0  0
  6  7  1  6  0  0  0
  6  9  1  0  0  0  0
  6  2  1  0  0  0  0
  8 14  2  0  0  0  0
 10 13  1  0  0  0  0
 11  7  2  0  0  0  0
 12  8  1  0  0  0  0
 12 11  1  0  0  0  0
 13  9  1  0  0  0  0
 14  7  1  0  0  0  0
 14 10  1  0  0  0  0
 16 15  2  0  0  0  0
 17 16  1  0  0  0  0
 18 17  1  0  0  0  0
 19 18  1  0  0  0  0
 20 19  1  0  0  0  0
 21 22  1  6  0  0  0
 21 20  1  0  0  0  0
 23 21  1  0  0  0  0
 24 29  2  0  0  0  0
 24 28  1  0  0  0  0
 25 26  2  0  0  0  0
 26 23  1  0  0  0  0
 27 26  1  0  0  0  0
 28 27  2  0  0  0  0
 29 25  1  0  0  0  0
 30 28  1  0  0  0  0
 30 32  1  0  0  0  0
 31 30  2  0  0  0  0
 33 37  1  0  0  0  0
 35 37  1  0  0  0  0
 37 34  1  0  0  0  0
 37 36  1  0  0  0  0
M  END
>  <MODEL>
8

>  <REMARK>
 VINA RESULT:      -7.6      3.069      8.036
  Name = 
  12 active torsions:
  status: ('A' for Active; 'I' for Inactive)
    1  A    between atoms: C_1  and  C_27
    2  A    between atoms: C_2  and  N_8
    3  A    between atoms: C_2  and  C_35
    4  A    between atoms: C_3  and  C_4
    5  A    between atoms: C_5  and  C_32
    6  A    between atoms: C_7  and  N_15
    7  A    between atoms: C_7  and  C_26
    8  A    between atoms: C_11  and  C_18
    9  A    between atoms: C_11  and  C_29
   10  A    between atoms: N_15  and  C_18
   11  A    between atoms: C_24  and  C_29
   12  A    between atoms: C_26  and  C_27
                            x       y       z     vdW  Elec       q    Type
                         _______ _______ _______ _____ _____    ______ ____

>  <TORSDO>
F 12

$$$$
=
 OpenBabel10232412353D

 37 40  0  0  1  0  0  0  0  0999 V2000
  186.4000  177.6610  142.7470 C   0  0  2  0  0  3  0  0  0  0  0  0
  187.3140  177.0970  144.8180 C   0  0  2  0  0  3  0  0  0  0  0  0
  185.6140  178.3620  143.7560 N   0  0  0  0  0  0  0  0  0  0  0  0
  187.4330  176.8530  143.3900 N   0  0  0  0  0  2  0  0  0  0  0  0
  185.9670  177.7450  145.0190 C   0  0  0  0  0  2  0  0  0  0  0  0
  188.4290  178.0380  145.2940 C   0  0  2  0  0  3  0  0  0  0  0  0
  189.7840  177.4180  145.1550 C   0  0  0  0  0  0  0  0  0  0  0  0
  191.6370  176.5140  146.0700 N   0  0  0  0  0  0  0  0  0  0  0  0
  188.2240  178.4220  146.7110 N   0  0  0  0  0  2  0  0  0  0  0  0
  189.7890  176.9530  147.5560 N   0  0  0  0  0  2  0  0  0  0  0  0
  190.6130  177.3830  144.1300 C   0  0  0  0  0  3  0  0  0  0  0  0
  191.8800  176.7360  144.6400 C   0  0  0  0  0  2  0  0  0  0  0  0
  188.4210  177.3050  147.5680 N   0  0  0  0  0  2  0  0  0  0  0  0
  190.4260  176.8810  146.2900 C   0  0  0  0  0  0  0  0  0  0  0  0
  186.3760  179.5550  141.3340 O   0  0  0  0  0  0  0  0  0  0  0  0
  187.0320  178.6400  141.8060 C   0  0  0  0  0  0  0  0  0  0  0  0
  188.4860  178.5290  141.4770 C   0  0  0  0  0  2  0  0  0  0  0  0
  188.6870  177.8190  140.1460 C   0  0  0  0  0  2  0  0  0  0  0  0
  188.9430  178.7890  139.0950 N   0  0  0  0  0  2  0  0  0  0  0  0
  189.6180  178.0740  138.0260 C   0  0  0  0  0  2  0  0  0  0  0  0
  188.5960  177.4160  137.1210 C   0  0  2  0  0  3  0  0  0  0  0  0
  189.2350  176.9020  135.9910 O   0  0  0  0  0  1  0  0  0  0  0  0
  187.5630  178.4500  136.7030 C   0  0  0  0  0  2  0  0  0  0  0  0
  183.5720  176.9860  137.2530 C   0  0  0  0  0  3  0  0  0  0  0  0
  185.5330  177.2530  135.8590 C   0  0  0  0  0  3  0  0  0  0  0  0
  186.1800  177.9310  136.8980 C   0  0  0  0  0  0  0  0  0  0  0  0
  185.5190  178.1380  138.1130 C   0  0  0  0  0  3  0  0  0  0  0  0
  184.2120  177.6670  138.2990 C   0  0  0  0  0  0  0  0  0  0  0  0
  184.2300  176.7800  136.0380 C   0  0  0  0  0  3  0  0  0  0  0  0
  183.5240  177.8890  139.5800 C   0  0  0  0  0  0  0  0  0  0  0  0
  183.4600  179.1640  140.1300 O   0  0  0  0  0  0  0  0  0  0  0  0
  182.9840  176.9270  140.1900 O   0  0  0  0  0  1  0  0  0  0  0  0
  184.2160  178.0480  143.5050 C   0  0  0  0  0  2  0  0  0  0  0  0
  182.0140  179.1630  143.3560 C   0  0  0  0  0  1  0  0  0  0  0  0
  183.0410  178.7680  145.4440 F   0  0  0  0  0  0  0  0  0  0  0  0
  183.9300  180.3370  144.0840 F   0  0  0  0  0  0  0  0  0  0  0  0
  183.3130  179.1000  144.1300 C   0  0  0  0  0  0  0  0  0  0  0  0
  1 16  1  6  0  0  0
  1  4  1  0  0  0  0
  1  3  1  0  0  0  0
  2  5  1  6  0  0  0
  2  6  1  0  0  0  0
  3  5  1  0  0  0  0
  4  2  1  0  0  0  0
  6  7  1  1  0  0  0
  6  9  1  0  0  0  0
  7 14  1  0  0  0  0
  8 14  2  0  0  0  0
  9 13  1  0  0  0  0
 10 13  1  0  0  0  0
 11 12  1  0  0  0  0
 11  7  2  0  0  0  0
 12  8  1  0  0  0  0
 14 10  1  0  0  0  0
 15 16  2  0  0  0  0
 17 16  1  0  0  0  0
 18 17  1  0  0  0  0
 19 18  1  0  0  0  0
 20 19  1  0  0  0  0
 21 22  1  6  0  0  0
 21 20  1  0  0  0  0
 23 26  1  0  0  0  0
 23 21  1  0  0  0  0
 24 28  1  0  0  0  0
 25 29  1  0  0  0  0
 25 26  2  0  0  0  0
 26 27  1  0  0  0  0
 27 28  2  0  0  0  0
 28 30  1  0  0  0  0
 29 24  2  0  0  0  0
 30 31  2  0  0  0  0
 30 32  1  0  0  0  0
 33  3  1  0  0  0  0
 33 37  1  0  0  0  0
 34 37  1  0  0  0  0
 36 37  1  0  0  0  0
 37 35  1  0  0  0  0
M  END
>  <MODEL>
9

>  <REMARK>
 VINA RESULT:      -7.4      3.525      7.939
  Name = 
  12 active torsions:
  status: ('A' for Active; 'I' for Inactive)
    1  A    between atoms: C_1  and  C_27
    2  A    between atoms: C_2  and  N_8
    3  A    between atoms: C_2  and  C_35
    4  A    between atoms: C_3  and  C_4
    5  A    between atoms: C_5  and  C_32
    6  A    between atoms: C_7  and  N_15
    7  A    between atoms: C_7  and  C_26
    8  A    between atoms: C_11  and  C_18
    9  A    between atoms: C_11  and  C_29
   10  A    between atoms: N_15  and  C_18
   11  A    between atoms: C_24  and  C_29
   12  A    between atoms: C_26  and  C_27
                            x       y       z     vdW  Elec       q    Type
                         _______ _______ _______ _____ _____    ______ ____

>  <TORSDO>
F 12

$$$$
