=
 OpenBabel10232410263D

 33 35  0  0  1  0  0  0  0  0999 V2000
  187.1670  178.1590  140.9330 C   0  0  1  0  0  3  0  0  0  0  0  0
  188.0140  177.7320  142.0910 C   0  0  0  0  0  0  0  0  0  0  0  0
  189.9360  178.2400  144.3780 C   0  0  0  0  0  3  0  0  0  0  0  0
  190.2840  178.1450  142.9470 C   0  0  0  0  0  3  0  0  0  0  0  0
  188.9420  177.5700  144.9690 C   0  0  0  0  0  0  0  0  0  0  0  0
  188.1850  176.5260  144.2080 C   0  0  0  0  0  2  0  0  0  0  0  0
  187.4600  177.1150  143.0960 N   0  0  0  0  0  0  0  0  0  0  0  0
  189.4370  177.9200  141.9850 N   0  0  0  0  0  0  0  0  0  0  0  0
  188.9380  177.9620  148.5530 C   0  0  0  0  0  3  0  0  0  0  0  0
  188.6800  177.7690  146.3690 N   0  0  0  0  0  0  0  0  0  0  0  0
  189.5920  177.7190  147.3580 C   0  0  0  0  0  3  0  0  0  0  0  0
  187.4840  178.0320  146.8680 N   0  0  0  0  0  0  0  0  0  0  0  0
  187.6090  178.1550  148.2030 C   0  0  0  0  0  3  0  0  0  0  0  0
  186.1290  179.1640  141.4050 C   0  0  0  0  0  2  0  0  0  0  0  0
  184.8120  178.7710  140.9320 N   0  0  0  0  0  2  0  0  0  0  0  0
  184.0320  178.4060  142.1000 C   0  0  0  0  0  2  0  0  0  0  0  0
  184.5570  179.1200  143.3410 C   0  0  0  0  0  2  0  0  0  0  0  0
  182.1290  178.8490  143.8520 C   0  0  0  0  0  1  0  0  0  0  0  0
  183.7410  179.0840  145.5760 O   0  0  0  0  0  1  0  0  0  0  0  0
  183.4280  179.5010  144.2850 C   0  0  1  0  0  3  0  0  0  0  0  0
  187.9840  178.7480  139.8770 N   0  0  0  0  0  2  0  0  0  0  0  0
  187.7150  178.0280  138.6420 C   0  0  0  0  0  2  0  0  0  0  0  0
  190.1400  177.9360  138.5640 O   0  0  0  0  0  0  0  0  0  0  0  0
  190.2380  176.5350  136.2120 C   0  0  0  0  0  2  0  0  0  0  0  0
  191.0380  176.0120  137.4140 C   0  0  2  0  0  3  0  0  0  0  0  0
  188.9610  178.0430  137.7740 C   0  0  1  0  0  3  0  0  0  0  0  0
  188.8500  177.0180  136.6250 C   0  0  0  0  0  2  0  0  0  0  0  0
  191.3700  176.4260  139.7680 F   0  0  0  0  0  0  0  0  0  0  0  0
  190.4720  176.5770  138.7270 C   0  0  1  0  0  3  0  0  0  0  0  0
  194.6930  175.8460  137.2120 O   0  0  0  0  0  0  0  0  0  0  0  0
  192.4360  176.3950  137.2650 N   0  0  0  0  0  2  0  0  0  0  0  0
  193.5100  175.4640  137.4060 C   0  0  0  0  0  0  0  0  0  0  0  0
  193.2610  174.1440  137.7570 O   0  0  0  0  0  1  0  0  0  0  0  0
  1 14  1  1  0  0  0
  1  2  1  0  0  0  0
  2  7  2  0  0  0  0
  3  5  2  0  0  0  0
  4  3  1  0  0  0  0
  5 10  1  0  0  0  0
  6  5  1  0  0  0  0
  7  6  1  0  0  0  0
  8  2  1  0  0  0  0
  8  4  2  0  0  0  0
 10 12  1  0  0  0  0
 10 11  1  0  0  0  0
 11  9  2  0  0  0  0
 12 13  2  0  0  0  0
 13  9  1  0  0  0  0
 15 14  1  0  0  0  0
 15 16  1  0  0  0  0
 16 17  1  0  0  0  0
 17 20  1  0  0  0  0
 20 18  1  6  0  0  0
 20 19  1  0  0  0  0
 21  1  1  0  0  0  0
 22 21  1  0  0  0  0
 23 29  1  0  0  0  0
 24 27  1  0  0  0  0
 24 25  1  0  0  0  0
 25 31  1  6  0  0  0
 25 29  1  0  0  0  0
 26 23  1  0  0  0  0
 26 22  1  1  0  0  0
 27 26  1  0  0  0  0
 29 28  1  1  0  0  0
 30 32  2  0  0  0  0
 31 32  1  0  0  0  0
 32 33  1  0  0  0  0
M  END
>  <MODEL>
1

>  <REMARK>
 VINA RESULT:      -7.5      0.000      0.000
  Name = 
  11 active torsions:
  status: ('A' for Active; 'I' for Inactive)
    1  A    between atoms: C_2  and  C_3
    2  A    between atoms: C_2  and  C_8
    3  A    between atoms: C_2  and  N_23
    4  A    between atoms: C_8  and  N_25
    5  A    between atoms: C_10  and  N_12
    6  A    between atoms: C_11  and  C_26
    7  A    between atoms: C_13  and  N_16
    8  A    between atoms: C_21  and  C_33
    9  A    between atoms: C_22  and  N_25
   10  A    between atoms: C_22  and  C_33
   11  A    between atoms: N_23  and  C_26
                            x       y       z     vdW  Elec       q    Type
                         _______ _______ _______ _____ _____    ______ ____

>  <TORSDO>
F 11

$$$$
=
 OpenBabel10232410263D

 33 35  0  0  1  0  0  0  0  0999 V2000
  187.9160  178.8730  140.9640 C   0  0  1  0  0  3  0  0  0  0  0  0
  188.5110  178.3340  139.7000 C   0  0  0  0  0  0  0  0  0  0  0  0
  189.8420  176.1850  138.0310 C   0  0  0  0  0  3  0  0  0  0  0  0
  190.5040  177.0650  139.0140 C   0  0  0  0  0  3  0  0  0  0  0  0
  188.7860  176.5270  137.2860 C   0  0  0  0  0  0  0  0  0  0  0  0
  188.2840  177.9370  137.3010 C   0  0  0  0  0  2  0  0  0  0  0  0
  187.7880  178.3000  138.6170 N   0  0  0  0  0  0  0  0  0  0  0  0
  189.9070  177.9860  139.7130 N   0  0  0  0  0  0  0  0  0  0  0  0
  187.3510  174.6230  134.5820 C   0  0  0  0  0  3  0  0  0  0  0  0
  188.2090  175.5680  136.3830 N   0  0  0  0  0  0  0  0  0  0  0  0
  187.8740  175.7960  135.0990 C   0  0  0  0  0  3  0  0  0  0  0  0
  187.9290  174.3180  136.7100 N   0  0  0  0  0  0  0  0  0  0  0  0
  187.4020  173.7140  135.6290 C   0  0  0  0  0  3  0  0  0  0  0  0
  186.4360  178.5310  141.0150 C   0  0  0  0  0  2  0  0  0  0  0  0
  185.7220  179.5480  141.7700 N   0  0  0  0  0  2  0  0  0  0  0  0
  184.6720  178.8710  142.5100 C   0  0  0  0  0  2  0  0  0  0  0  0
  185.0410  178.7630  143.9850 C   0  0  0  0  0  2  0  0  0  0  0  0
  182.5690  178.8110  144.3310 C   0  0  0  0  0  1  0  0  0  0  0  0
  184.0760  178.7330  146.1610 O   0  0  0  0  0  1  0  0  0  0  0  0
  183.9120  179.2530  144.8790 C   0  0  1  0  0  3  0  0  0  0  0  0
  188.5920  178.3250  142.1350 N   0  0  0  0  0  2  0  0  0  0  0  0
  188.1700  176.9430  142.2970 C   0  0  0  0  0  2  0  0  0  0  0  0
  189.8970  175.7860  143.5520 O   0  0  0  0  0  0  0  0  0  0  0  0
  189.5920  177.3050  145.8110 C   0  0  0  0  0  2  0  0  0  0  0  0
  191.0010  177.1340  145.2230 C   0  0  2  0  0  3  0  0  0  0  0  0
  188.6340  176.4340  143.6500 C   0  0  1  0  0  3  0  0  0  0  0  0
  188.5510  177.5430  144.7200 C   0  0  0  0  0  2  0  0  0  0  0  0
  192.1300  176.2250  143.2950 F   0  0  0  0  0  0  0  0  0  0  0  0
  190.9240  176.7320  143.7420 C   0  0  1  0  0  3  0  0  0  0  0  0
  192.6010  175.3280  147.9820 O   0  0  0  0  0  0  0  0  0  0  0  0
  191.7180  176.1170  145.9830 N   0  0  0  0  0  2  0  0  0  0  0  0
  192.0260  176.2650  147.3690 C   0  0  0  0  0  0  0  0  0  0  0  0
  191.7000  177.4330  148.0460 O   0  0  0  0  0  1  0  0  0  0  0  0
  1 14  1  1  0  0  0
  1 21  1  0  0  0  0
  2  8  1  0  0  0  0
  2  1  1  0  0  0  0
  3  4  1  0  0  0  0
  4  8  2  0  0  0  0
  5  6  1  0  0  0  0
  5  3  2  0  0  0  0
  6  7  1  0  0  0  0
  7  2  2  0  0  0  0
  9 11  2  0  0  0  0
  9 13  1  0  0  0  0
 10 12  1  0  0  0  0
 10  5  1  0  0  0  0
 11 10  1  0  0  0  0
 13 12  2  0  0  0  0
 14 15  1  0  0  0  0
 15 16  1  0  0  0  0
 16 17  1  0  0  0  0
 17 20  1  0  0  0  0
 20 18  1  6  0  0  0
 20 19  1  0  0  0  0
 21 22  1  0  0  0  0
 23 26  1  0  0  0  0
 23 29  1  0  0  0  0
 25 24  1  0  0  0  0
 25 31  1  1  0  0  0
 26 22  1  6  0  0  0
 26 27  1  0  0  0  0
 27 24  1  0  0  0  0
 29 28  1  1  0  0  0
 29 25  1  0  0  0  0
 31 32  1  0  0  0  0
 32 30  2  0  0  0  0
 32 33  1  0  0  0  0
M  END
>  <MODEL>
2

>  <REMARK>
 VINA RESULT:      -7.2      3.191      7.266
  Name = 
  11 active torsions:
  status: ('A' for Active; 'I' for Inactive)
    1  A    between atoms: C_2  and  C_3
    2  A    between atoms: C_2  and  C_8
    3  A    between atoms: C_2  and  N_23
    4  A    between atoms: C_8  and  N_25
    5  A    between atoms: C_10  and  N_12
    6  A    between atoms: C_11  and  C_26
    7  A    between atoms: C_13  and  N_16
    8  A    between atoms: C_21  and  C_33
    9  A    between atoms: C_22  and  N_25
   10  A    between atoms: C_22  and  C_33
   11  A    between atoms: N_23  and  C_26
                            x       y       z     vdW  Elec       q    Type
                         _______ _______ _______ _____ _____    ______ ____

>  <TORSDO>
F 11

$$$$
=
 OpenBabel10232410263D

 33 35  0  0  1  0  0  0  0  0999 V2000
  188.0860  177.9120  140.5400 C   0  0  1  0  0  3  0  0  0  0  0  0
  189.1600  177.2970  141.3830 C   0  0  0  0  0  0  0  0  0  0  0  0
  191.6100  177.4110  143.1610 C   0  0  0  0  0  3  0  0  0  0  0  0
  191.5920  177.5110  141.6890 C   0  0  0  0  0  3  0  0  0  0  0  0
  190.7470  176.6960  143.8900 C   0  0  0  0  0  0  0  0  0  0  0  0
  189.7600  175.7960  143.2140 C   0  0  0  0  0  2  0  0  0  0  0  0
  188.8270  176.5610  142.4060 N   0  0  0  0  0  0  0  0  0  0  0  0
  190.5230  177.4520  140.9490 N   0  0  0  0  0  0  0  0  0  0  0  0
  191.5790  176.3970  147.3860 C   0  0  0  0  0  3  0  0  0  0  0  0
  190.8480  176.7020  145.3250 N   0  0  0  0  0  0  0  0  0  0  0  0
  191.8640  176.1920  146.0470 C   0  0  0  0  0  3  0  0  0  0  0  0
  189.9360  177.2200  146.1290 N   0  0  0  0  0  0  0  0  0  0  0  0
  190.3540  177.0480  147.3970 C   0  0  0  0  0  3  0  0  0  0  0  0
  187.2080  178.8030  141.4040 C   0  0  0  0  0  2  0  0  0  0  0  0
  185.9250  179.0100  140.7540 N   0  0  0  0  0  2  0  0  0  0  0  0
  184.8980  178.6470  141.7130 C   0  0  0  0  0  2  0  0  0  0  0  0
  185.5260  178.2010  143.0290 C   0  0  0  0  0  2  0  0  0  0  0  0
  185.5220  178.6720  145.4810 C   0  0  0  0  0  1  0  0  0  0  0  0
  184.1320  179.8770  143.9830 O   0  0  0  0  0  1  0  0  0  0  0  0
  184.6800  178.6190  144.2210 C   0  0  1  0  0  3  0  0  0  0  0  0
  188.6610  178.6910  139.4490 N   0  0  0  0  0  2  0  0  0  0  0  0
  188.1700  178.1440  138.1930 C   0  0  0  0  0  2  0  0  0  0  0  0
  190.4350  177.3580  137.8170 O   0  0  0  0  0  0  0  0  0  0  0  0
  190.0050  176.6670  135.2020 C   0  0  0  0  0  2  0  0  0  0  0  0
  190.6370  175.6310  136.1420 C   0  0  2  0  0  3  0  0  0  0  0  0
  189.3260  178.0160  137.2170 C   0  0  1  0  0  3  0  0  0  0  0  0
  188.8570  177.4140  135.8760 C   0  0  0  0  0  2  0  0  0  0  0  0
  191.1620  175.2870  138.4720 F   0  0  0  0  0  0  0  0  0  0  0  0
  190.3250  175.9690  137.6080 C   0  0  1  0  0  3  0  0  0  0  0  0
  194.0670  174.4330  135.6550 O   0  0  0  0  0  0  0  0  0  0  0  0
  192.0790  175.6060  135.9300 N   0  0  0  0  0  2  0  0  0  0  0  0
  192.8320  174.3920  135.8950 C   0  0  0  0  0  0  0  0  0  0  0  0
  192.2150  173.1700  136.1270 O   0  0  0  0  0  1  0  0  0  0  0  0
  1  2  1  0  0  0  0
  1 14  1  1  0  0  0
  2  7  2  0  0  0  0
  3  5  2  0  0  0  0
  4  3  1  0  0  0  0
  5 10  1  0  0  0  0
  6  5  1  0  0  0  0
  7  6  1  0  0  0  0
  8  2  1  0  0  0  0
  8  4  2  0  0  0  0
  9 13  1  0  0  0  0
 10 11  1  0  0  0  0
 10 12  1  0  0  0  0
 11  9  2  0  0  0  0
 12 13  2  0  0  0  0
 15 14  1  0  0  0  0
 15 16  1  0  0  0  0
 16 17  1  0  0  0  0
 17 20  1  0  0  0  0
 19 20  1  0  0  0  0
 20 18  1  1  0  0  0
 21  1  1  0  0  0  0
 22 21  1  0  0  0  0
 24 27  1  0  0  0  0
 24 25  1  0  0  0  0
 25 31  1  1  0  0  0
 25 29  1  0  0  0  0
 26 23  1  0  0  0  0
 26 22  1  1  0  0  0
 27 26  1  0  0  0  0
 29 23  1  0  0  0  0
 29 28  1  1  0  0  0
 30 32  2  0  0  0  0
 32 31  1  0  0  0  0
 32 33  1  0  0  0  0
M  END
>  <MODEL>
3

>  <REMARK>
 VINA RESULT:      -7.2      1.638      1.921
  Name = 
  11 active torsions:
  status: ('A' for Active; 'I' for Inactive)
    1  A    between atoms: C_2  and  C_3
    2  A    between atoms: C_2  and  C_8
    3  A    between atoms: C_2  and  N_23
    4  A    between atoms: C_8  and  N_25
    5  A    between atoms: C_10  and  N_12
    6  A    between atoms: C_11  and  C_26
    7  A    between atoms: C_13  and  N_16
    8  A    between atoms: C_21  and  C_33
    9  A    between atoms: C_22  and  N_25
   10  A    between atoms: C_22  and  C_33
   11  A    between atoms: N_23  and  C_26
                            x       y       z     vdW  Elec       q    Type
                         _______ _______ _______ _____ _____    ______ ____

>  <TORSDO>
F 11

$$$$
=
 OpenBabel10232410263D

 33 35  0  0  1  0  0  0  0  0999 V2000
  185.9340  179.0400  141.3620 C   0  0  1  0  0  3  0  0  0  0  0  0
  184.7040  178.9140  140.5170 C   0  0  0  0  0  0  0  0  0  0  0  0
  181.7450  179.2530  139.9680 C   0  0  0  0  0  3  0  0  0  0  0  0
  182.3670  178.1930  140.7850 C   0  0  0  0  0  3  0  0  0  0  0  0
  182.3110  179.8330  138.9050 C   0  0  0  0  0  0  0  0  0  0  0  0
  183.6090  179.3110  138.3700 C   0  0  0  0  0  2  0  0  0  0  0  0
  184.6760  179.4760  139.3420 N   0  0  0  0  0  0  0  0  0  0  0  0
  183.6450  178.0680  140.9990 N   0  0  0  0  0  0  0  0  0  0  0  0
  180.2940  181.9590  136.8050 C   0  0  0  0  0  3  0  0  0  0  0  0
  181.6150  180.8790  138.2070 N   0  0  0  0  0  0  0  0  0  0  0  0
  180.7350  180.7080  137.2030 C   0  0  0  0  0  3  0  0  0  0  0  0
  181.7570  182.1670  138.4700 N   0  0  0  0  0  0  0  0  0  0  0  0
  180.9630  182.8530  137.6280 C   0  0  0  0  0  3  0  0  0  0  0  0
  185.6020  178.6750  142.8000 C   0  0  0  0  0  2  0  0  0  0  0  0
  184.8570  179.7560  143.4230 N   0  0  0  0  0  2  0  0  0  0  0  0
  184.4990  179.3110  144.7580 C   0  0  0  0  0  2  0  0  0  0  0  0
  185.5050  178.2850  145.2700 C   0  0  0  0  0  2  0  0  0  0  0  0
  187.0990  177.9110  147.1530 C   0  0  0  0  0  1  0  0  0  0  0  0
  185.6070  179.7550  147.1380 O   0  0  0  0  0  1  0  0  0  0  0  0
  185.7220  178.4170  146.7690 C   0  0  1  0  0  3  0  0  0  0  0  0
  187.0010  178.1780  140.8650 N   0  0  0  0  0  2  0  0  0  0  0  0
  188.2740  178.7460  141.2820 C   0  0  0  0  0  2  0  0  0  0  0  0
  190.2900  178.2300  142.5310 O   0  0  0  0  0  0  0  0  0  0  0  0
  189.0420  176.5380  144.2870 C   0  0  0  0  0  2  0  0  0  0  0  0
  189.9210  177.6650  144.8490 C   0  0  2  0  0  3  0  0  0  0  0  0
  189.0590  177.7000  142.0530 C   0  0  1  0  0  3  0  0  0  0  0  0
  188.1800  177.0220  143.1250 C   0  0  0  0  0  2  0  0  0  0  0  0
  191.1500  179.6150  144.1380 F   0  0  0  0  0  0  0  0  0  0  0  0
  190.0940  178.7840  143.8110 C   0  0  1  0  0  3  0  0  0  0  0  0
  192.6040  176.0370  146.7420 O   0  0  0  0  0  0  0  0  0  0  0  0
  191.2210  177.1200  145.2210 N   0  0  0  0  0  2  0  0  0  0  0  0
  191.4760  176.5380  146.5000 C   0  0  0  0  0  0  0  0  0  0  0  0
  190.4910  176.5220  147.4790 O   0  0  0  0  0  1  0  0  0  0  0  0
  1 14  1  1  0  0  0
  2  8  1  0  0  0  0
  2  1  1  0  0  0  0
  3  4  1  0  0  0  0
  4  8  2  0  0  0  0
  5  3  2  0  0  0  0
  6  5  1  0  0  0  0
  6  7  1  0  0  0  0
  7  2  2  0  0  0  0
  9 11  2  0  0  0  0
  9 13  1  0  0  0  0
 10 12  1  0  0  0  0
 10  5  1  0  0  0  0
 11 10  1  0  0  0  0
 13 12  2  0  0  0  0
 14 15  1  0  0  0  0
 15 16  1  0  0  0  0
 16 17  1  0  0  0  0
 17 20  1  0  0  0  0
 20 19  1  0  0  0  0
 20 18  1  6  0  0  0
 21 22  1  0  0  0  0
 21  1  1  0  0  0  0
 23 29  1  0  0  0  0
 24 25  1  0  0  0  0
 25 31  1  6  0  0  0
 26 22  1  1  0  0  0
 26 23  1  0  0  0  0
 26 27  1  0  0  0  0
 27 24  1  0  0  0  0
 29 28  1  1  0  0  0
 29 25  1  0  0  0  0
 31 32  1  0  0  0  0
 32 30  2  0  0  0  0
 32 33  1  0  0  0  0
M  END
>  <MODEL>
4

>  <REMARK>
 VINA RESULT:      -7.1      3.793      7.657
  Name = 
  11 active torsions:
  status: ('A' for Active; 'I' for Inactive)
    1  A    between atoms: C_2  and  C_3
    2  A    between atoms: C_2  and  C_8
    3  A    between atoms: C_2  and  N_23
    4  A    between atoms: C_8  and  N_25
    5  A    between atoms: C_10  and  N_12
    6  A    between atoms: C_11  and  C_26
    7  A    between atoms: C_13  and  N_16
    8  A    between atoms: C_21  and  C_33
    9  A    between atoms: C_22  and  N_25
   10  A    between atoms: C_22  and  C_33
   11  A    between atoms: N_23  and  C_26
                            x       y       z     vdW  Elec       q    Type
                         _______ _______ _______ _____ _____    ______ ____

>  <TORSDO>
F 11

$$$$
=
 OpenBabel10232410263D

 33 35  0  0  1  0  0  0  0  0999 V2000
  186.5590  178.7240  141.8940 C   0  0  1  0  0  3  0  0  0  0  0  0
  187.7870  178.4560  141.0790 C   0  0  0  0  0  0  0  0  0  0  0  0
  190.1760  176.7920  140.2410 C   0  0  0  0  0  3  0  0  0  0  0  0
  190.0810  177.6450  141.4430 C   0  0  0  0  0  3  0  0  0  0  0  0
  189.5630  177.0380  139.0790 C   0  0  0  0  0  0  0  0  0  0  0  0
  188.8310  178.3280  138.8750 C   0  0  0  0  0  2  0  0  0  0  0  0
  187.7000  178.4330  139.7790 N   0  0  0  0  0  0  0  0  0  0  0  0
  189.0420  178.3550  141.7750 N   0  0  0  0  0  0  0  0  0  0  0  0
  189.4870  175.1140  136.0300 C   0  0  0  0  0  3  0  0  0  0  0  0
  189.7080  176.1140  137.9860 N   0  0  0  0  0  0  0  0  0  0  0  0
  189.0770  176.1890  136.7990 C   0  0  0  0  0  3  0  0  0  0  0  0
  190.4960  175.0520  138.0140 N   0  0  0  0  0  0  0  0  0  0  0  0
  190.3820  174.4200  136.8320 C   0  0  0  0  0  3  0  0  0  0  0  0
  185.3520  178.8230  140.9760 C   0  0  0  0  0  2  0  0  0  0  0  0
  184.2170  178.1450  141.5800 N   0  0  0  0  0  2  0  0  0  0  0  0
  183.1680  178.0950  140.5770 C   0  0  0  0  0  2  0  0  0  0  0  0
  183.5310  178.9630  139.3770 C   0  0  0  0  0  2  0  0  0  0  0  0
  181.1490  179.5830  139.7910 C   0  0  0  0  0  1  0  0  0  0  0  0
  182.6250  181.0320  138.6290 O   0  0  0  0  0  1  0  0  0  0  0  0
  182.3140  179.6890  138.8260 C   0  0  1  0  0  3  0  0  0  0  0  0
  186.3470  177.6700  142.8810 N   0  0  0  0  0  2  0  0  0  0  0  0
  186.5040  178.2520  144.2050 C   0  0  0  0  0  2  0  0  0  0  0  0
  188.5080  176.9660  144.6760 O   0  0  0  0  0  0  0  0  0  0  0  0
  188.2410  177.1190  147.3980 C   0  0  0  0  0  2  0  0  0  0  0  0
  189.5860  177.5110  146.7670 C   0  0  2  0  0  3  0  0  0  0  0  0
  187.1840  177.2450  145.1160 C   0  0  1  0  0  3  0  0  0  0  0  0
  187.0620  177.6630  146.5960 C   0  0  0  0  0  2  0  0  0  0  0  0
  190.6120  177.8680  144.6130 F   0  0  0  0  0  0  0  0  0  0  0  0
  189.4020  177.8680  145.2840 C   0  0  1  0  0  3  0  0  0  0  0  0
  192.4180  175.4570  147.8580 O   0  0  0  0  0  0  0  0  0  0  0  0
  190.5220  176.4020  146.9030 N   0  0  0  0  0  2  0  0  0  0  0  0
  191.6770  176.4670  147.7410 C   0  0  0  0  0  0  0  0  0  0  0  0
  191.9900  177.6340  148.4240 O   0  0  0  0  0  1  0  0  0  0  0  0
  1 14  1  6  0  0  0
  1 21  1  0  0  0  0
  2  8  1  0  0  0  0
  2  1  1  0  0  0  0
  3  4  1  0  0  0  0
  4  8  2  0  0  0  0
  5  3  2  0  0  0  0
  6  5  1  0  0  0  0
  6  7  1  0  0  0  0
  7  2  2  0  0  0  0
  9 11  2  0  0  0  0
  9 13  1  0  0  0  0
 10 12  1  0  0  0  0
 10  5  1  0  0  0  0
 11 10  1  0  0  0  0
 13 12  2  0  0  0  0
 14 15  1  0  0  0  0
 16 15  1  0  0  0  0
 17 16  1  0  0  0  0
 19 20  1  0  0  0  0
 20 17  1  0  0  0  0
 20 18  1  1  0  0  0
 21 22  1  0  0  0  0
 23 26  1  0  0  0  0
 23 29  1  0  0  0  0
 25 31  1  6  0  0  0
 25 24  1  0  0  0  0
 26 22  1  6  0  0  0
 26 27  1  0  0  0  0
 27 24  1  0  0  0  0
 29 28  1  6  0  0  0
 29 25  1  0  0  0  0
 31 32  1  0  0  0  0
 32 30  2  0  0  0  0
 32 33  1  0  0  0  0
M  END
>  <MODEL>
5

>  <REMARK>
 VINA RESULT:      -7.1      3.393      7.437
  Name = 
  11 active torsions:
  status: ('A' for Active; 'I' for Inactive)
    1  A    between atoms: C_2  and  C_3
    2  A    between atoms: C_2  and  C_8
    3  A    between atoms: C_2  and  N_23
    4  A    between atoms: C_8  and  N_25
    5  A    between atoms: C_10  and  N_12
    6  A    between atoms: C_11  and  C_26
    7  A    between atoms: C_13  and  N_16
    8  A    between atoms: C_21  and  C_33
    9  A    between atoms: C_22  and  N_25
   10  A    between atoms: C_22  and  C_33
   11  A    between atoms: N_23  and  C_26
                            x       y       z     vdW  Elec       q    Type
                         _______ _______ _______ _____ _____    ______ ____

>  <TORSDO>
F 11

$$$$
=
 OpenBabel10232410263D

 33 35  0  0  1  0  0  0  0  0999 V2000
  189.5250  176.9730  139.8880 C   0  0  1  0  0  3  0  0  0  0  0  0
  189.3540  177.4540  141.2960 C   0  0  0  0  0  0  0  0  0  0  0  0
  188.3790  177.1890  144.1510 C   0  0  0  0  0  3  0  0  0  0  0  0
  187.5660  177.5760  142.9820 C   0  0  0  0  0  3  0  0  0  0  0  0
  189.6780  177.4640  144.3060 C   0  0  0  0  0  0  0  0  0  0  0  0
  190.3780  178.3510  143.3230 C   0  0  0  0  0  2  0  0  0  0  0  0
  190.4080  177.7440  142.0050 N   0  0  0  0  0  0  0  0  0  0  0  0
  188.0140  177.6880  141.7650 N   0  0  0  0  0  0  0  0  0  0  0  0
  191.9040  176.1620  146.8260 C   0  0  0  0  0  3  0  0  0  0  0  0
  190.3700  177.0060  145.4800 N   0  0  0  0  0  0  0  0  0  0  0  0
  191.6070  176.4740  145.5100 C   0  0  0  0  0  3  0  0  0  0  0  0
  189.8670  177.0520  146.7020 N   0  0  0  0  0  0  0  0  0  0  0  0
  190.7810  176.5420  147.5470 C   0  0  0  0  0  3  0  0  0  0  0  0
  188.4910  177.6400  138.9940 C   0  0  0  0  0  2  0  0  0  0  0  0
  188.9750  178.9440  138.5700 N   0  0  0  0  0  2  0  0  0  0  0  0
  188.9820  178.9430  137.1180 C   0  0  0  0  0  2  0  0  0  0  0  0
  187.5880  178.6460  136.5760 C   0  0  0  0  0  2  0  0  0  0  0  0
  189.0680  177.3050  135.0780 C   0  0  0  0  0  1  0  0  0  0  0  0
  187.0030  176.4500  135.8720 O   0  0  0  0  0  1  0  0  0  0  0  0
  187.6330  177.6190  135.4550 C   0  0  1  0  0  3  0  0  0  0  0  0
  190.8670  177.2630  139.3950 N   0  0  0  0  0  2  0  0  0  0  0  0
  191.3300  176.1120  138.6360 C   0  0  0  0  0  2  0  0  0  0  0  0
  193.7280  176.3730  138.3630 O   0  0  0  0  0  0  0  0  0  0  0  0
  193.7250  175.7200  135.7030 C   0  0  0  0  0  2  0  0  0  0  0  0
  194.7010  174.9910  136.6390 C   0  0  2  0  0  3  0  0  0  0  0  0
  192.4670  176.5390  137.7250 C   0  0  1  0  0  3  0  0  0  0  0  0
  192.3460  175.8750  136.3370 C   0  0  0  0  0  2  0  0  0  0  0  0
  195.2360  174.7650  138.9800 F   0  0  0  0  0  0  0  0  0  0  0  0
  194.2210  175.0810  138.0950 C   0  0  1  0  0  3  0  0  0  0  0  0
  198.3270  175.3740  136.2630 O   0  0  0  0  0  0  0  0  0  0  0  0
  196.0260  175.5860  136.5090 N   0  0  0  0  0  2  0  0  0  0  0  0
  197.2180  174.8030  136.4270 C   0  0  0  0  0  0  0  0  0  0  0  0
  197.1640  173.4200  136.5300 O   0  0  0  0  0  1  0  0  0  0  0  0
  1 14  1  6  0  0  0
  1  2  1  0  0  0  0
  2  8  1  0  0  0  0
  2  7  2  0  0  0  0
  3  5  2  0  0  0  0
  4  3  1  0  0  0  0
  5 10  1  0  0  0  0
  6  5  1  0  0  0  0
  7  6  1  0  0  0  0
  8  4  2  0  0  0  0
  9 13  1  0  0  0  0
 10 11  1  0  0  0  0
 10 12  1  0  0  0  0
 11  9  2  0  0  0  0
 12 13  2  0  0  0  0
 15 14  1  0  0  0  0
 16 15  1  0  0  0  0
 17 16  1  0  0  0  0
 20 18  1  1  0  0  0
 20 19  1  0  0  0  0
 20 17  1  0  0  0  0
 21  1  1  0  0  0  0
 22 21  1  0  0  0  0
 24 27  1  0  0  0  0
 24 25  1  0  0  0  0
 25 31  1  1  0  0  0
 25 29  1  0  0  0  0
 26 23  1  0  0  0  0
 26 22  1  1  0  0  0
 27 26  1  0  0  0  0
 29 23  1  0  0  0  0
 29 28  1  1  0  0  0
 30 32  2  0  0  0  0
 32 31  1  0  0  0  0
 32 33  1  0  0  0  0
M  END
>  <MODEL>
6

>  <REMARK>
 VINA RESULT:      -7.0      3.101      4.821
  Name = 
  11 active torsions:
  status: ('A' for Active; 'I' for Inactive)
    1  A    between atoms: C_2  and  C_3
    2  A    between atoms: C_2  and  C_8
    3  A    between atoms: C_2  and  N_23
    4  A    between atoms: C_8  and  N_25
    5  A    between atoms: C_10  and  N_12
    6  A    between atoms: C_11  and  C_26
    7  A    between atoms: C_13  and  N_16
    8  A    between atoms: C_21  and  C_33
    9  A    between atoms: C_22  and  N_25
   10  A    between atoms: C_22  and  C_33
   11  A    between atoms: N_23  and  C_26
                            x       y       z     vdW  Elec       q    Type
                         _______ _______ _______ _____ _____    ______ ____

>  <TORSDO>
F 11

$$$$
=
 OpenBabel10232410263D

 33 35  0  0  1  0  0  0  0  0999 V2000
  188.2630  178.4460  140.2060 C   0  0  1  0  0  3  0  0  0  0  0  0
  187.4160  178.1190  139.0150 C   0  0  0  0  0  0  0  0  0  0  0  0
  186.2260  176.2260  136.9720 C   0  0  0  0  0  3  0  0  0  0  0  0
  187.5930  176.7830  136.9570 C   0  0  0  0  0  3  0  0  0  0  0  0
  185.1500  176.8520  137.4580 C   0  0  0  0  0  0  0  0  0  0  0  0
  185.2480  178.2780  137.9010 C   0  0  0  0  0  2  0  0  0  0  0  0
  186.1460  178.4100  139.0340 N   0  0  0  0  0  0  0  0  0  0  0  0
  188.0760  177.6010  137.8470 N   0  0  0  0  0  0  0  0  0  0  0  0
  182.2400  174.7700  137.0030 C   0  0  0  0  0  3  0  0  0  0  0  0
  183.8720  176.1910  137.4440 N   0  0  0  0  0  0  0  0  0  0  0  0
  183.5650  175.0810  136.7470 C   0  0  0  0  0  3  0  0  0  0  0  0
  182.8190  176.6010  138.1300 N   0  0  0  0  0  0  0  0  0  0  0  0
  181.8040  175.7530  137.8800 C   0  0  0  0  0  3  0  0  0  0  0  0
  187.3800  178.9530  141.3340 C   0  0  0  0  0  2  0  0  0  0  0  0
  187.3080  177.9560  142.3900 N   0  0  0  0  0  2  0  0  0  0  0  0
  185.9610  178.0050  142.9300 C   0  0  0  0  0  2  0  0  0  0  0  0
  185.9940  177.9870  144.4550 C   0  0  0  0  0  2  0  0  0  0  0  0
  184.0680  179.5410  144.1240 C   0  0  0  0  0  1  0  0  0  0  0  0
  184.6950  178.7810  146.2830 O   0  0  0  0  0  1  0  0  0  0  0  0
  185.2100  179.1500  145.0430 C   0  0  1  0  0  3  0  0  0  0  0  0
  189.0130  177.2760  140.6500 N   0  0  0  0  0  2  0  0  0  0  0  0
  190.4230  177.6330  140.7000 C   0  0  0  0  0  2  0  0  0  0  0  0
  191.6140  177.9710  142.7870 O   0  0  0  0  0  0  0  0  0  0  0  0
  190.3940  175.8900  144.0840 C   0  0  0  0  0  2  0  0  0  0  0  0
  190.4100  177.2700  144.7590 C   0  0  2  0  0  3  0  0  0  0  0  0
  191.0590  176.9900  141.9190 C   0  0  1  0  0  3  0  0  0  0  0  0
  190.0910  175.9950  142.5920 C   0  0  0  0  0  2  0  0  0  0  0  0
  191.0160  179.5630  144.3210 F   0  0  0  0  0  0  0  0  0  0  0  0
  190.6380  178.3770  143.7180 C   0  0  1  0  0  3  0  0  0  0  0  0
  192.2150  176.9030  147.9270 O   0  0  0  0  0  1  0  0  0  0  0  0
  191.4650  177.3010  145.7640 N   0  0  0  0  0  2  0  0  0  0  0  0
  191.2500  176.9040  147.1200 C   0  0  0  0  0  0  0  0  0  0  0  0
  189.9870  176.5230  147.5530 O   0  0  0  0  0  0  0  0  0  0  0  0
  1 21  1  0  0  0  0
  1 14  1  1  0  0  0
  2  7  2  0  0  0  0
  2  1  1  0  0  0  0
  3  5  2  0  0  0  0
  4  3  1  0  0  0  0
  4  8  2  0  0  0  0
  5  6  1  0  0  0  0
  6  7  1  0  0  0  0
  8  2  1  0  0  0  0
  9 13  1  0  0  0  0
 10  5  1  0  0  0  0
 10 12  1  0  0  0  0
 11  9  2  0  0  0  0
 11 10  1  0  0  0  0
 13 12  2  0  0  0  0
 14 15  1  0  0  0  0
 15 16  1  0  0  0  0
 16 17  1  0  0  0  0
 17 20  1  0  0  0  0
 20 18  1  6  0  0  0
 20 19  1  0  0  0  0
 21 22  1  0  0  0  0
 23 29  1  0  0  0  0
 24 25  1  0  0  0  0
 25 31  1  1  0  0  0
 26 22  1  6  0  0  0
 26 27  1  0  0  0  0
 26 23  1  0  0  0  0
 27 24  1  0  0  0  0
 29 28  1  1  0  0  0
 29 25  1  0  0  0  0
 31 32  1  0  0  0  0
 32 33  2  0  0  0  0
 32 30  1  0  0  0  0
M  END
>  <MODEL>
7

>  <REMARK>
 VINA RESULT:      -7.0      3.512      7.178
  Name = 
  11 active torsions:
  status: ('A' for Active; 'I' for Inactive)
    1  A    between atoms: C_2  and  C_3
    2  A    between atoms: C_2  and  C_8
    3  A    between atoms: C_2  and  N_23
    4  A    between atoms: C_8  and  N_25
    5  A    between atoms: C_10  and  N_12
    6  A    between atoms: C_11  and  C_26
    7  A    between atoms: C_13  and  N_16
    8  A    between atoms: C_21  and  C_33
    9  A    between atoms: C_22  and  N_25
   10  A    between atoms: C_22  and  C_33
   11  A    between atoms: N_23  and  C_26
                            x       y       z     vdW  Elec       q    Type
                         _______ _______ _______ _____ _____    ______ ____

>  <TORSDO>
F 11

$$$$
=
 OpenBabel10232410263D

 33 35  0  0  1  0  0  0  0  0999 V2000
  190.1480  176.6010  140.5490 C   0  0  1  0  0  3  0  0  0  0  0  0
  190.4510  176.8620  141.9920 C   0  0  0  0  0  0  0  0  0  0  0  0
  190.5530  178.6020  144.4690 C   0  0  0  0  0  3  0  0  0  0  0  0
  191.5130  178.6180  143.3490 C   0  0  0  0  0  3  0  0  0  0  0  0
  189.8890  177.5210  144.8930 C   0  0  0  0  0  0  0  0  0  0  0  0
  190.2090  176.1750  144.3230 C   0  0  0  0  0  2  0  0  0  0  0  0
  189.8930  176.1200  142.9070 N   0  0  0  0  0  0  0  0  0  0  0  0
  191.4480  177.8530  142.2980 N   0  0  0  0  0  0  0  0  0  0  0  0
  188.0710  177.6840  148.0020 C   0  0  0  0  0  3  0  0  0  0  0  0
  188.9540  177.6380  145.9790 N   0  0  0  0  0  0  0  0  0  0  0  0
  189.2420  177.4990  147.2870 C   0  0  0  0  0  3  0  0  0  0  0  0
  187.6680  177.9020  145.8240 N   0  0  0  0  0  0  0  0  0  0  0  0
  187.1000  177.9360  147.0440 C   0  0  0  0  0  3  0  0  0  0  0  0
  188.8420  177.2810  140.1720 C   0  0  0  0  0  2  0  0  0  0  0  0
  188.6170  178.4280  141.0370 N   0  0  0  0  0  2  0  0  0  0  0  0
  187.1800  178.6210  141.1220 C   0  0  0  0  0  2  0  0  0  0  0  0
  186.6690  178.2420  142.5070 C   0  0  0  0  0  2  0  0  0  0  0  0
  184.3930  178.5680  141.5340 C   0  0  0  0  0  1  0  0  0  0  0  0
  184.7040  178.1310  143.8450 O   0  0  0  0  0  1  0  0  0  0  0  0
  185.2700  178.7840  142.7530 C   0  0  1  0  0  3  0  0  0  0  0  0
  191.2250  177.0860  139.6930 N   0  0  0  0  0  2  0  0  0  0  0  0
  191.4020  176.1370  138.6050 C   0  0  0  0  0  2  0  0  0  0  0  0
  193.8160  176.3060  138.4230 O   0  0  0  0  0  0  0  0  0  0  0  0
  193.8770  175.8070  135.7300 C   0  0  0  0  0  2  0  0  0  0  0  0
  194.7880  174.9840  136.6520 C   0  0  2  0  0  3  0  0  0  0  0  0
  192.5860  176.5640  137.7560 C   0  0  1  0  0  3  0  0  0  0  0  0
  192.4840  175.9870  136.3280 C   0  0  0  0  0  2  0  0  0  0  0  0
  195.2330  174.5990  138.9910 F   0  0  0  0  0  0  0  0  0  0  0  0
  194.2630  175.0110  138.0960 C   0  0  1  0  0  3  0  0  0  0  0  0
  198.4290  175.2380  136.3150 O   0  0  0  0  0  1  0  0  0  0  0  0
  196.1400  175.5250  136.6000 N   0  0  0  0  0  2  0  0  0  0  0  0
  197.2930  174.7040  136.4040 C   0  0  0  0  0  0  0  0  0  0  0  0
  197.1710  173.3240  136.3140 O   0  0  0  0  0  0  0  0  0  0  0  0
  1 14  1  6  0  0  0
  1  2  1  0  0  0  0
  2  8  1  0  0  0  0
  2  7  2  0  0  0  0
  3  5  2  0  0  0  0
  4  3  1  0  0  0  0
  5 10  1  0  0  0  0
  6  5  1  0  0  0  0
  7  6  1  0  0  0  0
  8  4  2  0  0  0  0
 10 11  1  0  0  0  0
 11  9  2  0  0  0  0
 12 10  1  0  0  0  0
 12 13  2  0  0  0  0
 13  9  1  0  0  0  0
 14 15  1  0  0  0  0
 15 16  1  0  0  0  0
 16 17  1  0  0  0  0
 17 20  1  0  0  0  0
 20 18  1  6  0  0  0
 20 19  1  0  0  0  0
 21  1  1  0  0  0  0
 22 21  1  0  0  0  0
 24 27  1  0  0  0  0
 24 25  1  0  0  0  0
 25 31  1  1  0  0  0
 25 29  1  0  0  0  0
 26 23  1  0  0  0  0
 26 22  1  1  0  0  0
 27 26  1  0  0  0  0
 29 23  1  0  0  0  0
 29 28  1  1  0  0  0
 30 32  1  0  0  0  0
 32 31  1  0  0  0  0
 33 32  2  0  0  0  0
M  END
>  <MODEL>
8

>  <REMARK>
 VINA RESULT:      -7.0      2.094      3.079
  Name = 
  11 active torsions:
  status: ('A' for Active; 'I' for Inactive)
    1  A    between atoms: C_2  and  C_3
    2  A    between atoms: C_2  and  C_8
    3  A    between atoms: C_2  and  N_23
    4  A    between atoms: C_8  and  N_25
    5  A    between atoms: C_10  and  N_12
    6  A    between atoms: C_11  and  C_26
    7  A    between atoms: C_13  and  N_16
    8  A    between atoms: C_21  and  C_33
    9  A    between atoms: C_22  and  N_25
   10  A    between atoms: C_22  and  C_33
   11  A    between atoms: N_23  and  C_26
                            x       y       z     vdW  Elec       q    Type
                         _______ _______ _______ _____ _____    ______ ____

>  <TORSDO>
F 11

$$$$
=
 OpenBabel10232410263D

 33 35  0  0  1  0  0  0  0  0999 V2000
  189.5080  177.1950  141.9780 C   0  0  1  0  0  3  0  0  0  0  0  0
  189.7780  177.4630  140.5290 C   0  0  0  0  0  0  0  0  0  0  0  0
  190.2160  176.6210  137.6520 C   0  0  0  0  0  3  0  0  0  0  0  0
  191.2110  176.5660  138.7410 C   0  0  0  0  0  3  0  0  0  0  0  0
  189.2430  177.5310  137.5500 C   0  0  0  0  0  0  0  0  0  0  0  0
  189.1960  178.6880  138.4980 C   0  0  0  0  0  2  0  0  0  0  0  0
  188.9710  178.2370  139.8600 N   0  0  0  0  0  0  0  0  0  0  0  0
  190.9970  176.9420  139.9690 N   0  0  0  0  0  0  0  0  0  0  0  0
  187.2140  176.7820  134.6650 C   0  0  0  0  0  3  0  0  0  0  0  0
  188.3120  177.4620  136.4560 N   0  0  0  0  0  0  0  0  0  0  0  0
  188.2350  176.4710  135.5470 C   0  0  0  0  0  3  0  0  0  0  0  0
  187.3970  178.3820  136.2020 N   0  0  0  0  0  0  0  0  0  0  0  0
  186.7100  177.9950  135.1120 C   0  0  0  0  0  3  0  0  0  0  0  0
  190.8250  177.0410  142.7200 C   0  0  0  0  0  2  0  0  0  0  0  0
  191.3220  178.3470  143.1190 N   0  0  0  0  0  2  0  0  0  0  0  0
  191.8450  178.2100  144.4670 C   0  0  0  0  0  2  0  0  0  0  0  0
  191.5040  176.8380  145.0370 C   0  0  0  0  0  2  0  0  0  0  0  0
  190.0120  176.9120  147.0380 C   0  0  0  0  0  1  0  0  0  0  0  0
  192.0640  175.7200  147.0620 O   0  0  0  0  0  1  0  0  0  0  0  0
  191.4500  176.8640  146.5570 C   0  0  1  0  0  3  0  0  0  0  0  0
  188.7270  178.2760  142.5710 N   0  0  0  0  0  2  0  0  0  0  0  0
  188.1210  177.7770  143.7960 C   0  0  0  0  0  2  0  0  0  0  0  0
  185.8930  177.5120  144.7230 O   0  0  0  0  0  0  0  0  0  0  0  0
  184.6080  178.4440  142.4910 C   0  0  0  0  0  2  0  0  0  0  0  0
  184.2520  179.0540  143.8550 C   0  0  2  0  0  3  0  0  0  0  0  0
  186.6670  177.4330  143.5310 C   0  0  1  0  0  3  0  0  0  0  0  0
  186.1130  178.2420  142.3390 C   0  0  0  0  0  2  0  0  0  0  0  0
  184.9530  179.0240  146.1620 F   0  0  0  0  0  0  0  0  0  0  0  0
  185.3850  178.8170  144.8650 C   0  0  1  0  0  3  0  0  0  0  0  0
  180.6980  178.2750  144.2930 O   0  0  0  0  0  1  0  0  0  0  0  0
  183.0140  178.4580  144.3400 N   0  0  0  0  0  2  0  0  0  0  0  0
  181.7270  178.8660  143.8740 C   0  0  0  0  0  0  0  0  0  0  0  0
  181.6010  179.9090  142.9660 O   0  0  0  0  0  0  0  0  0  0  0  0
  1 21  1  0  0  0  0
  1 14  1  1  0  0  0
  2  1  1  0  0  0  0
  3  4  1  0  0  0  0
  4  8  2  0  0  0  0
  5  3  2  0  0  0  0
  5  6  1  0  0  0  0
  6  7  1  0  0  0  0
  7  2  2  0  0  0  0
  8  2  1  0  0  0  0
  9 13  1  0  0  0  0
  9 11  2  0  0  0  0
 10  5  1  0  0  0  0
 11 10  1  0  0  0  0
 12 10  1  0  0  0  0
 13 12  2  0  0  0  0
 14 15  1  0  0  0  0
 15 16  1  0  0  0  0
 16 17  1  0  0  0  0
 17 20  1  0  0  0  0
 20 18  1  6  0  0  0
 20 19  1  0  0  0  0
 21 22  1  0  0  0  0
 23 29  1  0  0  0  0
 24 25  1  0  0  0  0
 25 31  1  1  0  0  0
 25 29  1  0  0  0  0
 26 22  1  1  0  0  0
 26 23  1  0  0  0  0
 27 24  1  0  0  0  0
 27 26  1  0  0  0  0
 29 28  1  1  0  0  0
 32 30  1  0  0  0  0
 32 31  1  0  0  0  0
 33 32  2  0  0  0  0
M  END
>  <MODEL>
9

>  <REMARK>
 VINA RESULT:      -6.9      3.738      8.944
  Name = 
  11 active torsions:
  status: ('A' for Active; 'I' for Inactive)
    1  A    between atoms: C_2  and  C_3
    2  A    between atoms: C_2  and  C_8
    3  A    between atoms: C_2  and  N_23
    4  A    between atoms: C_8  and  N_25
    5  A    between atoms: C_10  and  N_12
    6  A    between atoms: C_11  and  C_26
    7  A    between atoms: C_13  and  N_16
    8  A    between atoms: C_21  and  C_33
    9  A    between atoms: C_22  and  N_25
   10  A    between atoms: C_22  and  C_33
   11  A    between atoms: N_23  and  C_26
                            x       y       z     vdW  Elec       q    Type
                         _______ _______ _______ _____ _____    ______ ____

>  <TORSDO>
F 11

$$$$
