=
 OpenBabel10232411553D

 37 40  0  0  1  0  0  0  0  0999 V2000
  189.2710  176.6350  138.8160 C   0  0  0  0  0  0  0  0  0  0  0  0
  188.2370  177.3920  139.4240 C   0  0  0  0  0  0  0  0  0  0  0  0
  190.4770  176.6010  140.9230 C   0  0  0  0  0  3  0  0  0  0  0  0
  190.3780  176.2470  139.5760 C   0  0  0  0  0  3  0  0  0  0  0  0
  188.3530  177.7420  140.7740 C   0  0  0  0  0  3  0  0  0  0  0  0
  189.4720  177.3630  141.5270 C   0  0  0  0  0  0  0  0  0  0  0  0
  186.9650  176.8990  143.2270 Cl  0  0  0  0  0  0  0  0  0  0  0  0
  188.5130  177.5180  143.7940 C   0  0  0  0  0  0  0  0  0  0  0  0
  191.4250  178.1430  144.6120 C   0  0  0  0  0  3  0  0  0  0  0  0
  189.5740  177.2920  146.0130 C   0  0  0  0  0  3  0  0  0  0  0  0
  188.5370  177.9990  145.2080 C   0  0  0  0  0  2  0  0  0  0  0  0
  190.8770  177.3810  145.7490 C   0  0  0  0  0  0  0  0  0  0  0  0
  190.8510  178.2860  143.4100 C   0  0  0  0  0  3  0  0  0  0  0  0
  189.5640  177.6980  142.9610 C   0  0  0  0  0  0  0  0  0  0  0  0
  192.0020  176.6240  146.8560 Cl  0  0  0  0  0  0  0  0  0  0  0  0
  190.8160  175.8410  136.4070 O   0  0  0  0  0  0  0  0  0  0  0  0
  190.3210  177.0120  135.9560 C   0  0  0  0  0  1  0  0  0  0  0  0
  189.2430  176.1260  137.0930 P   0  0  1  0  0  0  0  0  0  0  0  0
  185.9850  173.8370  136.5370 C   0  0  0  0  0  1  0  0  0  0  0  0
  187.9470  175.1280  136.3730 C   0  0  0  0  0  3  0  0  0  0  0  0
  187.0300  174.6340  137.1180 N   0  0  0  0  0  0  0  0  0  0  0  0
  186.9860  177.8360  138.7220 C   0  0  2  0  0  3  0  0  0  0  0  0
  187.1570  178.6630  136.0850 C   0  0  0  0  0  0  0  0  0  0  0  0
  186.5860  178.0970  134.6650 S   0  0  0  0  0  0  0  0  0  0  0  0
  187.8700  179.6390  136.8210 N   0  0  0  0  0  2  0  0  0  0  0  0
  187.2960  178.5390  137.4870 N   0  0  0  0  0  0  0  0  0  0  0  0
  186.0770  178.6680  139.6230 C   0  0  2  0  0  3  0  0  0  0  0  0
  184.6300  178.3620  139.4740 C   0  0  1  0  0  0  0  0  0  0  0  0
  185.2190  179.4660  138.8340 O   0  0  0  0  0  0  0  0  0  0  0  0
  183.1490  176.6840  138.7150 O   0  0  0  0  0  0  0  0  0  0  0  0
  184.1520  177.3380  138.4850 C   0  0  0  0  0  3  0  0  0  0  0  0
  183.7330  178.7810  140.6330 C   0  0  0  0  0  2  0  0  0  0  0  0
  184.1930  178.1800  141.9560 C   0  0  0  0  0  2  0  0  0  0  0  0
  183.6600  178.9740  143.1420 C   0  0  1  0  0  3  0  0  0  0  0  0
  182.2110  178.8680  143.2110 N   0  0  0  0  0  1  0  0  0  0  0  0
  183.7690  179.1860  145.5340 O   0  0  0  0  0  1  0  0  0  0  0  0
  184.2840  178.4860  144.4410 C   0  0  0  0  0  2  0  0  0  0  0  0
  1  2  2  0  0  0  0
  1  4  1  0  0  0  0
  2  5  1  0  0  0  0
  3  6  1  0  0  0  0
  4  3  2  0  0  0  0
  5  6  2  0  0  0  0
  6 14  1  0  0  0  0
  7  8  1  0  0  0  0
  8 11  1  0  0  0  0
  9 12  1  0  0  0  0
 11 10  1  0  0  0  0
 12 10  2  0  0  0  0
 12 15  1  0  0  0  0
 13  9  2  0  0  0  0
 14 13  1  0  0  0  0
 14  8  2  0  0  0  0
 16 18  1  0  0  0  0
 17 16  1  0  0  0  0
 18 20  1  1  0  0  0
 18  1  1  0  0  0  0
 19 21  1  0  0  0  0
 20 21  2  0  0  0  0
 22  2  1  1  0  0  0
 23 25  1  0  0  0  0
 23 26  1  0  0  0  0
 24 23  2  0  0  0  0
 25 26  1  0  0  0  0
 26 22  1  0  0  0  0
 27 22  1  6  0  0  0
 28 31  1  6  0  0  0
 28 27  1  0  0  0  0
 28 32  1  0  0  0  0
 29 28  1  0  0  0  0
 29 27  1  0  0  0  0
 31 30  2  0  0  0  0
 32 33  1  0  0  0  0
 33 34  1  0  0  0  0
 34 35  1  1  0  0  0
 34 37  1  0  0  0  0
 37 36  1  0  0  0  0
M  END
>  <MODEL>
1

>  <REMARK>
 VINA RESULT:      -6.9      0.000      0.000
  Name = 
  11 active torsions:
  status: ('A' for Active; 'I' for Inactive)
    1  A    between atoms: C_2  and  P_36
    2  A    between atoms: C_3  and  C_20
    3  A    between atoms: C_6  and  C_20
    4  A    between atoms: C_14  and  P_36
    5  A    between atoms: C_16  and  CA_24
    6  A    between atoms: C_16  and  C_25
    7  A    between atoms: C_20  and  N_28
    8  A    between atoms: CA_24  and  C_31
    9  A    between atoms: C_25  and  C_34
   10  A    between atoms: C_26  and  C_33
   11  A    between atoms: C_30  and  C_34
                            x       y       z     vdW  Elec       q    Type
                         _______ _______ _______ _____ _____    ______ ____

>  <TORSDO>
F 11

$$$$
=
 OpenBabel10232411553D

 37 40  0  0  1  0  0  0  0  0999 V2000
  187.9340  177.5950  138.4940 C   0  0  0  0  0  0  0  0  0  0  0  0
  189.1270  176.9060  138.8340 C   0  0  0  0  0  0  0  0  0  0  0  0
  187.7230  178.3530  140.7900 C   0  0  0  0  0  3  0  0  0  0  0  0
  187.2490  178.3120  139.4780 C   0  0  0  0  0  3  0  0  0  0  0  0
  189.5880  176.9550  140.1550 C   0  0  0  0  0  3  0  0  0  0  0  0
  188.8880  177.6630  141.1400 C   0  0  0  0  0  0  0  0  0  0  0  0
  186.8230  177.6690  143.4050 Cl  0  0  0  0  0  0  0  0  0  0  0  0
  188.5730  177.7440  143.5860 C   0  0  0  0  0  0  0  0  0  0  0  0
  191.6420  177.4100  143.6470 C   0  0  0  0  0  3  0  0  0  0  0  0
  189.9970  176.9100  145.4240 C   0  0  0  0  0  3  0  0  0  0  0  0
  189.0690  177.9880  144.9740 C   0  0  0  0  0  2  0  0  0  0  0  0
  191.1670  176.6720  144.8310 C   0  0  0  0  0  0  0  0  0  0  0  0
  190.8790  177.8800  142.6520 C   0  0  0  0  0  3  0  0  0  0  0  0
  189.4060  177.7450  142.5200 C   0  0  0  0  0  0  0  0  0  0  0  0
  192.2300  175.4800  145.5460 Cl  0  0  0  0  0  0  0  0  0  0  0  0
  188.3550  178.0940  135.5960 O   0  0  0  0  0  0  0  0  0  0  0  0
  187.4860  179.0930  135.8520 C   0  0  0  0  0  1  0  0  0  0  0  0
  187.2380  177.6080  136.8380 P   0  0  1  0  0  0  0  0  0  0  0  0
  184.2160  174.9600  136.6730 C   0  0  0  0  0  1  0  0  0  0  0  0
  185.9870  176.4600  136.2770 C   0  0  0  0  0  3  0  0  0  0  0  0
  185.2250  175.8780  137.1260 N   0  0  0  0  0  0  0  0  0  0  0  0
  189.9680  176.1330  137.8590 C   0  0  2  0  0  3  0  0  0  0  0  0
  188.8500  174.2390  136.1780 C   0  0  0  0  0  0  0  0  0  0  0  0
  188.8710  173.9790  134.5670 S   0  0  0  0  0  0  0  0  0  0  0  0
  188.4470  173.8550  137.4790 N   0  0  0  0  0  2  0  0  0  0  0  0
  189.2290  175.0130  137.2990 N   0  0  0  0  0  0  0  0  0  0  0  0
  191.2920  175.6780  138.4660 C   0  0  2  0  0  3  0  0  0  0  0  0
  192.4260  175.6600  137.5040 C   0  0  1  0  0  0  0  0  0  0  0  0
  191.7250  174.4880  137.8380 O   0  0  0  0  0  0  0  0  0  0  0  0
  192.2530  175.1760  135.1980 O   0  0  0  0  0  0  0  0  0  0  0  0
  192.2270  176.0340  136.0640 C   0  0  0  0  0  3  0  0  0  0  0  0
  193.8230  175.6870  138.1140 C   0  0  0  0  0  2  0  0  0  0  0  0
  194.6760  174.5180  137.6360 C   0  0  0  0  0  2  0  0  0  0  0  0
  195.3000  173.7700  138.8080 C   0  0  1  0  0  3  0  0  0  0  0  0
  195.4400  172.3580  138.4910 N   0  0  0  0  0  1  0  0  0  0  0  0
  196.5440  175.2420  140.2450 O   0  0  0  0  0  1  0  0  0  0  0  0
  196.6550  174.3640  139.1650 C   0  0  0  0  0  2  0  0  0  0  0  0
  1  2  2  0  0  0  0
  1  4  1  0  0  0  0
  2  5  1  0  0  0  0
  3  6  1  0  0  0  0
  4  3  2  0  0  0  0
  5  6  2  0  0  0  0
  6 14  1  0  0  0  0
  7  8  1  0  0  0  0
  8 11  1  0  0  0  0
  9 12  1  0  0  0  0
 11 10  1  0  0  0  0
 12 10  2  0  0  0  0
 12 15  1  0  0  0  0
 13  9  2  0  0  0  0
 14 13  1  0  0  0  0
 14  8  2  0  0  0  0
 16 17  1  0  0  0  0
 16 18  1  0  0  0  0
 18 20  1  6  0  0  0
 18  1  1  0  0  0  0
 19 21  1  0  0  0  0
 20 21  2  0  0  0  0
 22  2  1  1  0  0  0
 23 26  1  0  0  0  0
 23 25  1  0  0  0  0
 24 23  2  0  0  0  0
 26 25  1  0  0  0  0
 26 22  1  0  0  0  0
 27 22  1  6  0  0  0
 28 31  1  6  0  0  0
 28 29  1  0  0  0  0
 28 32  1  0  0  0  0
 28 27  1  0  0  0  0
 29 27  1  0  0  0  0
 30 31  2  0  0  0  0
 33 32  1  0  0  0  0
 33 34  1  0  0  0  0
 34 35  1  6  0  0  0
 34 37  1  0  0  0  0
 37 36  1  0  0  0  0
M  END
>  <MODEL>
2

>  <REMARK>
 VINA RESULT:      -6.7      3.359      6.631
  Name = 
  11 active torsions:
  status: ('A' for Active; 'I' for Inactive)
    1  A    between atoms: C_2  and  P_36
    2  A    between atoms: C_3  and  C_20
    3  A    between atoms: C_6  and  C_20
    4  A    between atoms: C_14  and  P_36
    5  A    between atoms: C_16  and  CA_24
    6  A    between atoms: C_16  and  C_25
    7  A    between atoms: C_20  and  N_28
    8  A    between atoms: CA_24  and  C_31
    9  A    between atoms: C_25  and  C_34
   10  A    between atoms: C_26  and  C_33
   11  A    between atoms: C_30  and  C_34
                            x       y       z     vdW  Elec       q    Type
                         _______ _______ _______ _____ _____    ______ ____

>  <TORSDO>
F 11

$$$$
=
 OpenBabel10232411553D

 37 40  0  0  1  0  0  0  0  0999 V2000
  182.7210  178.6060  142.5970 C   0  0  0  0  0  0  0  0  0  0  0  0
  183.7520  178.5770  141.6230 C   0  0  0  0  0  0  0  0  0  0  0  0
  184.3770  178.3340  144.3510 C   0  0  0  0  0  3  0  0  0  0  0  0
  183.0490  178.4860  143.9500 C   0  0  0  0  0  3  0  0  0  0  0  0
  185.0790  178.4210  142.0410 C   0  0  0  0  0  3  0  0  0  0  0  0
  185.3990  178.2860  143.3980 C   0  0  0  0  0  0  0  0  0  0  0  0
  185.9030  177.9100  146.3980 Cl  0  0  0  0  0  0  0  0  0  0  0  0
  187.1270  177.9890  145.1340 C   0  0  0  0  0  0  0  0  0  0  0  0
  189.0230  177.7080  142.7130 C   0  0  0  0  0  3  0  0  0  0  0  0
  189.3480  176.9130  145.0310 C   0  0  0  0  0  3  0  0  0  0  0  0
  188.5430  178.0290  145.6080 C   0  0  0  0  0  2  0  0  0  0  0  0
  189.5770  176.7890  143.7250 C   0  0  0  0  0  0  0  0  0  0  0  0
  187.8270  178.3090  142.7650 C   0  0  0  0  0  3  0  0  0  0  0  0
  186.8050  178.1680  143.8320 C   0  0  0  0  0  0  0  0  0  0  0  0
  190.6590  175.5230  143.1890 Cl  0  0  0  0  0  0  0  0  0  0  0  0
  180.4510  180.4500  142.0810 O   0  0  0  0  0  0  0  0  0  0  0  0
  180.0090  179.8980  143.2290 C   0  0  0  0  0  1  0  0  0  0  0  0
  180.9820  178.7970  142.1900 P   0  0  1  0  0  0  0  0  0  0  0  0
  179.9820  175.8670  139.6230 C   0  0  0  0  0  1  0  0  0  0  0  0
  180.0800  177.6750  141.1270 C   0  0  0  0  0  3  0  0  0  0  0  0
  180.7080  176.7720  140.4710 N   0  0  0  0  0  0  0  0  0  0  0  0
  183.5290  178.7310  140.1460 C   0  0  2  0  0  3  0  0  0  0  0  0
  185.4130  177.9650  138.2680 C   0  0  0  0  0  0  0  0  0  0  0  0
  185.3660  177.1140  136.8760 S   0  0  0  0  0  0  0  0  0  0  0  0
  186.1360  178.7150  139.2260 N   0  0  0  0  0  2  0  0  0  0  0  0
  184.7550  178.4980  139.4010 N   0  0  0  0  0  0  0  0  0  0  0  0
  182.9090  180.0800  139.7890 C   0  0  2  0  0  3  0  0  0  0  0  0
  181.9600  180.0270  138.6460 C   0  0  1  0  0  0  0  0  0  0  0  0
  183.2890  180.4520  138.4810 O   0  0  0  0  0  0  0  0  0  0  0  0
  182.0710  178.5990  136.7670 O   0  0  0  0  0  0  0  0  0  0  0  0
  181.6940  178.7420  137.9170 C   0  0  0  0  0  3  0  0  0  0  0  0
  180.9700  181.1830  138.5430 C   0  0  0  0  0  2  0  0  0  0  0  0
  180.8600  181.7130  137.1180 C   0  0  0  0  0  2  0  0  0  0  0  0
  180.5810  183.2100  137.1030 C   0  0  1  0  0  3  0  0  0  0  0  0
  181.7810  183.9520  137.4560 N   0  0  0  0  0  1  0  0  0  0  0  0
  180.5980  184.8990  135.3910 O   0  0  0  0  0  1  0  0  0  0  0  0
  180.0760  183.6500  135.7360 C   0  0  0  0  0  2  0  0  0  0  0  0
  1  4  1  0  0  0  0
  2  5  1  0  0  0  0
  2  1  2  0  0  0  0
  4  3  2  0  0  0  0
  5  6  2  0  0  0  0
  6 14  1  0  0  0  0
  6  3  1  0  0  0  0
  8 11  1  0  0  0  0
  8  7  1  0  0  0  0
  9 13  2  0  0  0  0
  9 12  1  0  0  0  0
 10 11  1  0  0  0  0
 12 10  2  0  0  0  0
 13 14  1  0  0  0  0
 14  8  2  0  0  0  0
 15 12  1  0  0  0  0
 16 18  1  0  0  0  0
 16 17  1  0  0  0  0
 18 20  1  6  0  0  0
 18  1  1  0  0  0  0
 19 21  1  0  0  0  0
 21 20  2  0  0  0  0
 22  2  1  1  0  0  0
 23 25  1  0  0  0  0
 23 26  1  0  0  0  0
 24 23  2  0  0  0  0
 25 26  1  0  0  0  0
 26 22  1  0  0  0  0
 27 22  1  6  0  0  0
 28 31  1  6  0  0  0
 28 27  1  0  0  0  0
 29 28  1  0  0  0  0
 29 27  1  0  0  0  0
 30 31  2  0  0  0  0
 32 28  1  0  0  0  0
 33 32  1  0  0  0  0
 34 33  1  0  0  0  0
 34 35  1  6  0  0  0
 36 37  1  0  0  0  0
 37 34  1  0  0  0  0
M  END
>  <MODEL>
3

>  <REMARK>
 VINA RESULT:      -6.7      3.894      6.353
  Name = 
  11 active torsions:
  status: ('A' for Active; 'I' for Inactive)
    1  A    between atoms: C_2  and  P_36
    2  A    between atoms: C_3  and  C_20
    3  A    between atoms: C_6  and  C_20
    4  A    between atoms: C_14  and  P_36
    5  A    between atoms: C_16  and  CA_24
    6  A    between atoms: C_16  and  C_25
    7  A    between atoms: C_20  and  N_28
    8  A    between atoms: CA_24  and  C_31
    9  A    between atoms: C_25  and  C_34
   10  A    between atoms: C_26  and  C_33
   11  A    between atoms: C_30  and  C_34
                            x       y       z     vdW  Elec       q    Type
                         _______ _______ _______ _____ _____    ______ ____

>  <TORSDO>
F 11

$$$$
=
 OpenBabel10232411553D

 37 40  0  0  1  0  0  0  0  0999 V2000
  191.7300  176.1180  138.0130 C   0  0  0  0  0  0  0  0  0  0  0  0
  190.3360  176.0710  137.7540 C   0  0  0  0  0  0  0  0  0  0  0  0
  191.2990  177.3060  140.0860 C   0  0  0  0  0  3  0  0  0  0  0  0
  192.1930  176.7340  139.1790 C   0  0  0  0  0  3  0  0  0  0  0  0
  189.4530  176.6510  138.6720 C   0  0  0  0  0  3  0  0  0  0  0  0
  189.9240  177.2810  139.8310 C   0  0  0  0  0  0  0  0  0  0  0  0
  187.1590  178.1020  138.7970 Cl  0  0  0  0  0  0  0  0  0  0  0  0
  187.7360  178.2330  140.4560 C   0  0  0  0  0  0  0  0  0  0  0  0
  188.8130  177.9340  143.3350 C   0  0  0  0  0  3  0  0  0  0  0  0
  186.4670  178.1070  142.5720 C   0  0  0  0  0  3  0  0  0  0  0  0
  186.8310  178.9550  141.3990 C   0  0  0  0  0  2  0  0  0  0  0  0
  187.3670  177.6690  143.4520 C   0  0  0  0  0  0  0  0  0  0  0  0
  189.5080  178.0190  142.1930 C   0  0  0  0  0  3  0  0  0  0  0  0
  188.9820  177.8500  140.8150 C   0  0  0  0  0  0  0  0  0  0  0  0
  186.7950  176.8080  144.8640 Cl  0  0  0  0  0  0  0  0  0  0  0  0
  192.7040  173.7380  136.5270 O   0  0  0  0  0  0  0  0  0  0  0  0
  193.7160  173.8560  137.4110 C   0  0  0  0  0  1  0  0  0  0  0  0
  192.9650  175.4140  136.9140 P   0  0  1  0  0  0  0  0  0  0  0  0
  195.5570  177.6680  134.8240 C   0  0  0  0  0  1  0  0  0  0  0  0
  193.7870  176.3370  135.6210 C   0  0  0  0  0  3  0  0  0  0  0  0
  194.8940  176.9320  135.8650 N   0  0  0  0  0  0  0  0  0  0  0  0
  189.7180  175.4070  136.5570 C   0  0  2  0  0  3  0  0  0  0  0  0
  188.6650  177.2590  134.7900 C   0  0  0  0  0  0  0  0  0  0  0  0
  187.2000  177.9500  134.5890 S   0  0  0  0  0  0  0  0  0  0  0  0
  190.0220  177.1250  134.4120 N   0  0  0  0  0  2  0  0  0  0  0  0
  189.5110  176.3580  135.4770 N   0  0  0  0  0  0  0  0  0  0  0  0
  188.4280  174.6680  136.9030 C   0  0  2  0  0  3  0  0  0  0  0  0
  188.3830  173.2650  136.4130 C   0  0  1  0  0  0  0  0  0  0  0  0
  187.7470  174.3080  135.7180 O   0  0  0  0  0  0  0  0  0  0  0  0
  189.3380  171.7040  134.9180 O   0  0  0  0  0  0  0  0  0  0  0  0
  189.5180  172.6830  135.6220 C   0  0  0  0  0  3  0  0  0  0  0  0
  187.3840  172.3450  137.1060 C   0  0  0  0  0  2  0  0  0  0  0  0
  186.0860  172.2140  136.3160 C   0  0  0  0  0  2  0  0  0  0  0  0
  184.8720  172.4760  137.1970 C   0  0  1  0  0  3  0  0  0  0  0  0
  184.8320  173.8720  137.6020 N   0  0  0  0  0  1  0  0  0  0  0  0
  182.7450  171.3580  137.2950 O   0  0  0  0  0  1  0  0  0  0  0  0
  183.5890  172.1040  136.4690 C   0  0  0  0  0  2  0  0  0  0  0  0
  1  4  1  0  0  0  0
  2  1  2  0  0  0  0
  2  5  1  0  0  0  0
  4  3  2  0  0  0  0
  5  6  2  0  0  0  0
  6  3  1  0  0  0  0
  6 14  1  0  0  0  0
  7  8  1  0  0  0  0
  8 14  2  0  0  0  0
  8 11  1  0  0  0  0
  9 12  1  0  0  0  0
 10 12  2  0  0  0  0
 11 10  1  0  0  0  0
 12 15  1  0  0  0  0
 13  9  2  0  0  0  0
 14 13  1  0  0  0  0
 16 18  1  0  0  0  0
 16 17  1  0  0  0  0
 18 20  1  6  0  0  0
 18  1  1  0  0  0  0
 19 21  1  0  0  0  0
 20 21  2  0  0  0  0
 22  2  1  1  0  0  0
 23 26  1  0  0  0  0
 24 23  2  0  0  0  0
 25 23  1  0  0  0  0
 25 26  1  0  0  0  0
 26 22  1  0  0  0  0
 27 22  1  6  0  0  0
 28 31  1  6  0  0  0
 28 27  1  0  0  0  0
 28 32  1  0  0  0  0
 29 28  1  0  0  0  0
 29 27  1  0  0  0  0
 30 31  2  0  0  0  0
 33 32  1  0  0  0  0
 33 34  1  0  0  0  0
 34 35  1  6  0  0  0
 37 34  1  0  0  0  0
 37 36  1  0  0  0  0
M  END
>  <MODEL>
4

>  <REMARK>
 VINA RESULT:      -6.5      3.599      5.832
  Name = 
  11 active torsions:
  status: ('A' for Active; 'I' for Inactive)
    1  A    between atoms: C_2  and  P_36
    2  A    between atoms: C_3  and  C_20
    3  A    between atoms: C_6  and  C_20
    4  A    between atoms: C_14  and  P_36
    5  A    between atoms: C_16  and  CA_24
    6  A    between atoms: C_16  and  C_25
    7  A    between atoms: C_20  and  N_28
    8  A    between atoms: CA_24  and  C_31
    9  A    between atoms: C_25  and  C_34
   10  A    between atoms: C_26  and  C_33
   11  A    between atoms: C_30  and  C_34
                            x       y       z     vdW  Elec       q    Type
                         _______ _______ _______ _____ _____    ______ ____

>  <TORSDO>
F 11

$$$$
=
 OpenBabel10232411553D

 37 40  0  0  1  0  0  0  0  0999 V2000
  189.4030  176.5400  138.4690 C   0  0  0  0  0  0  0  0  0  0  0  0
  188.3530  177.2640  139.0910 C   0  0  0  0  0  0  0  0  0  0  0  0
  190.6610  176.5950  140.5450 C   0  0  0  0  0  3  0  0  0  0  0  0
  190.5430  176.2120  139.2080 C   0  0  0  0  0  3  0  0  0  0  0  0
  188.4870  177.6420  140.4320 C   0  0  0  0  0  3  0  0  0  0  0  0
  189.6400  177.3250  141.1610 C   0  0  0  0  0  0  0  0  0  0  0  0
  187.0680  177.2500  142.8250 Cl  0  0  0  0  0  0  0  0  0  0  0  0
  188.6760  177.6760  143.4040 C   0  0  0  0  0  0  0  0  0  0  0  0
  191.6310  177.9350  144.2600 C   0  0  0  0  0  3  0  0  0  0  0  0
  189.6630  177.3800  145.6490 C   0  0  0  0  0  3  0  0  0  0  0  0
  188.7410  178.1930  144.8040 C   0  0  0  0  0  2  0  0  0  0  0  0
  190.9700  177.2870  145.4070 C   0  0  0  0  0  0  0  0  0  0  0  0
  191.1010  178.1140  143.0430 C   0  0  0  0  0  3  0  0  0  0  0  0
  189.7530  177.6890  142.5870 C   0  0  0  0  0  0  0  0  0  0  0  0
  191.9670  176.4230  146.5570 Cl  0  0  0  0  0  0  0  0  0  0  0  0
  190.9040  175.9790  135.9690 O   0  0  0  0  0  0  0  0  0  0  0  0
  190.1830  177.0360  135.5420 C   0  0  0  0  0  1  0  0  0  0  0  0
  189.3530  175.9990  136.7570 P   0  0  1  0  0  0  0  0  0  0  0  0
  186.0350  174.0510  135.5890 C   0  0  0  0  0  1  0  0  0  0  0  0
  188.2080  174.7760  136.1330 C   0  0  0  0  0  3  0  0  0  0  0  0
  186.9540  175.0320  136.0960 N   0  0  0  0  0  0  0  0  0  0  0  0
  187.0670  177.6420  138.4130 C   0  0  2  0  0  3  0  0  0  0  0  0
  187.1680  178.6850  135.8510 C   0  0  0  0  0  0  0  0  0  0  0  0
  186.6630  178.1780  134.3850 S   0  0  0  0  0  0  0  0  0  0  0  0
  187.7770  179.6660  136.6690 N   0  0  0  0  0  2  0  0  0  0  0  0
  187.3120  178.4660  137.2410 N   0  0  0  0  0  0  0  0  0  0  0  0
  186.0820  178.3120  139.3680 C   0  0  2  0  0  3  0  0  0  0  0  0
  184.6580  177.9680  139.1100 C   0  0  1  0  0  0  0  0  0  0  0  0
  185.2220  179.1700  138.6470 O   0  0  0  0  0  0  0  0  0  0  0  0
  183.8210  177.5300  136.9440 O   0  0  0  0  0  0  0  0  0  0  0  0
  184.2730  177.0630  137.9760 C   0  0  0  0  0  3  0  0  0  0  0  0
  183.6930  178.1950  140.2690 C   0  0  0  0  0  2  0  0  0  0  0  0
  182.5830  179.1740  139.9020 C   0  0  0  0  0  2  0  0  0  0  0  0
  181.3070  178.4430  139.5090 C   0  0  1  0  0  3  0  0  0  0  0  0
  180.2840  178.6250  140.5270 N   0  0  0  0  0  1  0  0  0  0  0  0
  181.6280  179.9360  137.6520 O   0  0  0  0  0  1  0  0  0  0  0  0
  180.7980  178.9340  138.1620 C   0  0  0  0  0  2  0  0  0  0  0  0
  1  2  2  0  0  0  0
  1  4  1  0  0  0  0
  2  5  1  0  0  0  0
  3  6  1  0  0  0  0
  4  3  2  0  0  0  0
  5  6  2  0  0  0  0
  6 14  1  0  0  0  0
  7  8  1  0  0  0  0
  8 11  1  0  0  0  0
  9 12  1  0  0  0  0
 11 10  1  0  0  0  0
 12 10  2  0  0  0  0
 12 15  1  0  0  0  0
 13  9  2  0  0  0  0
 14 13  1  0  0  0  0
 14  8  2  0  0  0  0
 16 18  1  0  0  0  0
 17 16  1  0  0  0  0
 18 20  1  1  0  0  0
 18  1  1  0  0  0  0
 19 21  1  0  0  0  0
 21 20  2  0  0  0  0
 22  2  1  1  0  0  0
 23 25  1  0  0  0  0
 23 26  1  0  0  0  0
 24 23  2  0  0  0  0
 25 26  1  0  0  0  0
 26 22  1  0  0  0  0
 27 22  1  6  0  0  0
 28 31  1  6  0  0  0
 28 27  1  0  0  0  0
 28 32  1  0  0  0  0
 29 28  1  0  0  0  0
 29 27  1  0  0  0  0
 30 31  2  0  0  0  0
 33 32  1  0  0  0  0
 34 33  1  0  0  0  0
 34 35  1  1  0  0  0
 36 37  1  0  0  0  0
 37 34  1  0  0  0  0
M  END
>  <MODEL>
5

>  <REMARK>
 VINA RESULT:      -6.5      1.661      2.135
  Name = 
  11 active torsions:
  status: ('A' for Active; 'I' for Inactive)
    1  A    between atoms: C_2  and  P_36
    2  A    between atoms: C_3  and  C_20
    3  A    between atoms: C_6  and  C_20
    4  A    between atoms: C_14  and  P_36
    5  A    between atoms: C_16  and  CA_24
    6  A    between atoms: C_16  and  C_25
    7  A    between atoms: C_20  and  N_28
    8  A    between atoms: CA_24  and  C_31
    9  A    between atoms: C_25  and  C_34
   10  A    between atoms: C_26  and  C_33
   11  A    between atoms: C_30  and  C_34
                            x       y       z     vdW  Elec       q    Type
                         _______ _______ _______ _____ _____    ______ ____

>  <TORSDO>
F 11

$$$$
=
 OpenBabel10232411553D

 37 40  0  0  1  0  0  0  0  0999 V2000
  189.8080  176.6310  139.9130 C   0  0  0  0  0  0  0  0  0  0  0  0
  188.5760  177.3310  139.9770 C   0  0  0  0  0  0  0  0  0  0  0  0
  190.0090  176.7760  142.3280 C   0  0  0  0  0  3  0  0  0  0  0  0
  190.5070  176.3600  141.0920 C   0  0  0  0  0  3  0  0  0  0  0  0
  188.0910  177.7430  141.2240 C   0  0  0  0  0  3  0  0  0  0  0  0
  188.8050  177.4830  142.4000 C   0  0  0  0  0  0  0  0  0  0  0  0
  185.7560  177.6680  142.6510 Cl  0  0  0  0  0  0  0  0  0  0  0  0
  186.9310  177.9810  143.9250 C   0  0  0  0  0  0  0  0  0  0  0  0
  189.1440  178.0280  146.0780 C   0  0  0  0  0  3  0  0  0  0  0  0
  186.7140  177.6780  146.3670 C   0  0  0  0  0  3  0  0  0  0  0  0
  186.3740  178.5360  145.1950 C   0  0  0  0  0  2  0  0  0  0  0  0
  187.9670  177.4730  146.7700 C   0  0  0  0  0  0  0  0  0  0  0  0
  189.2680  178.2110  144.7570 C   0  0  0  0  0  3  0  0  0  0  0  0
  188.2630  177.8810  143.7140 C   0  0  0  0  0  0  0  0  0  0  0  0
  188.2260  176.5680  148.2460 Cl  0  0  0  0  0  0  0  0  0  0  0  0
  192.2530  175.7700  138.4620 O   0  0  0  0  0  0  0  0  0  0  0  0
  192.0050  176.9110  137.7880 C   0  0  0  0  0  1  0  0  0  0  0  0
  190.5380  176.0520  138.3770 P   0  0  1  0  0  0  0  0  0  0  0  0
  189.0410  172.8810  136.4080 C   0  0  0  0  0  1  0  0  0  0  0  0
  189.6880  174.9990  137.2070 C   0  0  0  0  0  3  0  0  0  0  0  0
  189.7290  173.7260  137.3450 N   0  0  0  0  0  0  0  0  0  0  0  0
  187.7170  177.6480  138.7860 C   0  0  2  0  0  3  0  0  0  0  0  0
  188.9320  178.5010  136.4490 C   0  0  0  0  0  0  0  0  0  0  0  0
  189.0760  177.8910  134.9420 S   0  0  0  0  0  0  0  0  0  0  0  0
  189.1730  179.5350  137.3840 N   0  0  0  0  0  2  0  0  0  0  0  0
  188.4650  178.3830  137.7790 N   0  0  0  0  0  0  0  0  0  0  0  0
  186.4350  178.3810  139.1720 C   0  0  2  0  0  3  0  0  0  0  0  0
  185.2490  177.9950  138.3620 C   0  0  1  0  0  0  0  0  0  0  0  0
  185.9820  179.1620  138.0850 O   0  0  0  0  0  0  0  0  0  0  0  0
  184.7570  177.1630  136.2060 O   0  0  0  0  0  0  0  0  0  0  0  0
  185.3620  176.9920  137.2510 C   0  0  0  0  0  3  0  0  0  0  0  0
  183.8890  178.3050  138.9770 C   0  0  0  0  0  2  0  0  0  0  0  0
  183.0860  177.0390  139.2540 C   0  0  0  0  0  2  0  0  0  0  0  0
  182.0740  177.2570  140.3710 C   0  0  1  0  0  3  0  0  0  0  0  0
  182.0240  178.6620  140.7420 N   0  0  0  0  0  1  0  0  0  0  0  0
  180.7400  176.1750  138.6880 O   0  0  0  0  0  1  0  0  0  0  0  0
  180.6930  176.7770  139.9470 C   0  0  0  0  0  2  0  0  0  0  0  0
  1  2  2  0  0  0  0
  1  4  1  0  0  0  0
  2  5  1  0  0  0  0
  3  6  1  0  0  0  0
  4  3  2  0  0  0  0
  5  6  2  0  0  0  0
  6 14  1  0  0  0  0
  7  8  1  0  0  0  0
  8 11  1  0  0  0  0
  9 12  1  0  0  0  0
 10 12  2  0  0  0  0
 11 10  1  0  0  0  0
 12 15  1  0  0  0  0
 13  9  2  0  0  0  0
 14  8  2  0  0  0  0
 14 13  1  0  0  0  0
 17 16  1  0  0  0  0
 18 20  1  1  0  0  0
 18 16  1  0  0  0  0
 18  1  1  0  0  0  0
 19 21  1  0  0  0  0
 20 21  2  0  0  0  0
 22  2  1  1  0  0  0
 23 25  1  0  0  0  0
 23 26  1  0  0  0  0
 24 23  2  0  0  0  0
 25 26  1  0  0  0  0
 26 22  1  0  0  0  0
 27 22  1  6  0  0  0
 28 31  1  6  0  0  0
 28 32  1  0  0  0  0
 28 27  1  0  0  0  0
 29 28  1  0  0  0  0
 29 27  1  0  0  0  0
 30 31  2  0  0  0  0
 32 33  1  0  0  0  0
 33 34  1  0  0  0  0
 34 35  1  6  0  0  0
 36 37  1  0  0  0  0
 37 34  1  0  0  0  0
M  END
>  <MODEL>
6

>  <REMARK>
 VINA RESULT:      -6.4      2.275      2.685
  Name = 
  11 active torsions:
  status: ('A' for Active; 'I' for Inactive)
    1  A    between atoms: C_2  and  P_36
    2  A    between atoms: C_3  and  C_20
    3  A    between atoms: C_6  and  C_20
    4  A    between atoms: C_14  and  P_36
    5  A    between atoms: C_16  and  CA_24
    6  A    between atoms: C_16  and  C_25
    7  A    between atoms: C_20  and  N_28
    8  A    between atoms: CA_24  and  C_31
    9  A    between atoms: C_25  and  C_34
   10  A    between atoms: C_26  and  C_33
   11  A    between atoms: C_30  and  C_34
                            x       y       z     vdW  Elec       q    Type
                         _______ _______ _______ _____ _____    ______ ____

>  <TORSDO>
F 11

$$$$
=
 OpenBabel10232411553D

 37 40  0  0  1  0  0  0  0  0999 V2000
  182.0270  177.8020  138.2250 C   0  0  0  0  0  0  0  0  0  0  0  0
  183.3990  177.5450  138.4810 C   0  0  0  0  0  0  0  0  0  0  0  0
  181.7690  178.6470  140.4850 C   0  0  0  0  0  3  0  0  0  0  0  0
  181.2310  178.3530  139.2320 C   0  0  0  0  0  3  0  0  0  0  0  0
  183.9230  177.8430  139.7440 C   0  0  0  0  0  3  0  0  0  0  0  0
  183.1150  178.3810  140.7540 C   0  0  0  0  0  0  0  0  0  0  0  0
  181.1540  178.6880  143.0890 Cl  0  0  0  0  0  0  0  0  0  0  0  0
  182.9040  178.8820  143.1610 C   0  0  0  0  0  0  0  0  0  0  0  0
  185.9870  178.7180  143.1160 C   0  0  0  0  0  3  0  0  0  0  0  0
  184.4530  178.4620  145.0380 C   0  0  0  0  0  3  0  0  0  0  0  0
  183.4440  179.3940  144.4550 C   0  0  0  0  0  2  0  0  0  0  0  0
  185.6070  178.1800  144.4350 C   0  0  0  0  0  0  0  0  0  0  0  0
  185.1540  178.9640  142.0960 C   0  0  0  0  0  3  0  0  0  0  0  0
  183.6870  178.7340  142.0680 C   0  0  0  0  0  0  0  0  0  0  0  0
  186.7690  177.1890  145.2900 Cl  0  0  0  0  0  0  0  0  0  0  0  0
  182.0350  178.1730  135.2780 O   0  0  0  0  0  0  0  0  0  0  0  0
  180.9130  178.8640  135.5690 C   0  0  0  0  0  1  0  0  0  0  0  0
  181.2350  177.4610  136.6490 P   0  0  1  0  0  0  0  0  0  0  0  0
  180.3300  173.7280  135.4610 C   0  0  0  0  0  1  0  0  0  0  0  0
  180.3790  175.9350  136.2760 C   0  0  0  0  0  3  0  0  0  0  0  0
  181.0170  174.9550  135.7540 N   0  0  0  0  0  0  0  0  0  0  0  0
  184.3610  176.9890  137.4700 C   0  0  2  0  0  3  0  0  0  0  0  0
  184.3490  174.3570  136.6140 C   0  0  0  0  0  0  0  0  0  0  0  0
  184.6100  173.6140  135.1840 S   0  0  0  0  0  0  0  0  0  0  0  0
  184.0630  174.2920  137.9970 N   0  0  0  0  0  2  0  0  0  0  0  0
  184.2510  175.5430  137.3780 N   0  0  0  0  0  0  0  0  0  0  0  0
  185.8000  177.4220  137.7380 C   0  0  2  0  0  3  0  0  0  0  0  0
  186.6120  177.6210  136.5090 C   0  0  1  0  0  0  0  0  0  0  0  0
  186.6940  176.4370  137.2620 O   0  0  0  0  0  0  0  0  0  0  0  0
  185.9270  178.2880  134.3480 O   0  0  0  0  0  0  0  0  0  0  0  0
  186.0320  177.3730  135.1470 C   0  0  0  0  0  3  0  0  0  0  0  0
  187.8580  178.4860  136.6620 C   0  0  0  0  0  2  0  0  0  0  0  0
  189.1170  177.6460  136.8420 C   0  0  0  0  0  2  0  0  0  0  0  0
  189.7590  177.8920  138.2020 C   0  0  1  0  0  3  0  0  0  0  0  0
  188.9750  178.8490  138.9660 N   0  0  0  0  0  1  0  0  0  0  0  0
  190.1320  175.5180  138.1120 O   0  0  0  0  0  1  0  0  0  0  0  0
  189.8950  176.5890  138.9760 C   0  0  0  0  0  2  0  0  0  0  0  0
  1  2  2  0  0  0  0
  1  4  1  0  0  0  0
  2  5  1  0  0  0  0
  3  6  1  0  0  0  0
  4  3  2  0  0  0  0
  5  6  2  0  0  0  0
  6 14  1  0  0  0  0
  7  8  1  0  0  0  0
  8 11  1  0  0  0  0
  9 12  1  0  0  0  0
 11 10  1  0  0  0  0
 12 10  2  0  0  0  0
 12 15  1  0  0  0  0
 13  9  2  0  0  0  0
 14 13  1  0  0  0  0
 14  8  2  0  0  0  0
 16 17  1  0  0  0  0
 16 18  1  0  0  0  0
 18 20  1  6  0  0  0
 18  1  1  0  0  0  0
 19 21  1  0  0  0  0
 21 20  2  0  0  0  0
 22  2  1  1  0  0  0
 23 26  1  0  0  0  0
 23 25  1  0  0  0  0
 24 23  2  0  0  0  0
 26 22  1  0  0  0  0
 26 25  1  0  0  0  0
 27 22  1  6  0  0  0
 28 31  1  6  0  0  0
 28 32  1  0  0  0  0
 28 29  1  0  0  0  0
 28 27  1  0  0  0  0
 29 27  1  0  0  0  0
 30 31  2  0  0  0  0
 32 33  1  0  0  0  0
 33 34  1  0  0  0  0
 34 35  1  1  0  0  0
 34 37  1  0  0  0  0
 36 37  1  0  0  0  0
M  END
>  <MODEL>
7

>  <REMARK>
 VINA RESULT:      -6.4      3.660      6.484
  Name = 
  11 active torsions:
  status: ('A' for Active; 'I' for Inactive)
    1  A    between atoms: C_2  and  P_36
    2  A    between atoms: C_3  and  C_20
    3  A    between atoms: C_6  and  C_20
    4  A    between atoms: C_14  and  P_36
    5  A    between atoms: C_16  and  CA_24
    6  A    between atoms: C_16  and  C_25
    7  A    between atoms: C_20  and  N_28
    8  A    between atoms: CA_24  and  C_31
    9  A    between atoms: C_25  and  C_34
   10  A    between atoms: C_26  and  C_33
   11  A    between atoms: C_30  and  C_34
                            x       y       z     vdW  Elec       q    Type
                         _______ _______ _______ _____ _____    ______ ____

>  <TORSDO>
F 11

$$$$
=
 OpenBabel10232411553D

 37 40  0  0  1  0  0  0  0  0999 V2000
  182.0700  178.5230  137.6770 C   0  0  0  0  0  0  0  0  0  0  0  0
  182.9000  177.4370  138.0570 C   0  0  0  0  0  0  0  0  0  0  0  0
  182.7770  179.7460  139.6510 C   0  0  0  0  0  3  0  0  0  0  0  0
  182.0220  179.6660  138.4800 C   0  0  0  0  0  3  0  0  0  0  0  0
  183.6490  177.5320  139.2350 C   0  0  0  0  0  3  0  0  0  0  0  0
  183.5840  178.6740  140.0440 C   0  0  0  0  0  0  0  0  0  0  0  0
  182.1080  178.7920  142.7270 Cl  0  0  0  0  0  0  0  0  0  0  0  0
  183.8530  178.8320  142.4920 C   0  0  0  0  0  0  0  0  0  0  0  0
  186.8450  178.4280  141.8450 C   0  0  0  0  0  3  0  0  0  0  0  0
  185.6540  178.0160  143.9720 C   0  0  0  0  0  3  0  0  0  0  0  0
  184.6630  179.1030  143.7160 C   0  0  0  0  0  2  0  0  0  0  0  0
  186.6480  177.7350  143.1310 C   0  0  0  0  0  0  0  0  0  0  0  0
  185.8770  178.8880  141.0420 C   0  0  0  0  0  3  0  0  0  0  0  0
  184.4130  178.7830  141.2610 C   0  0  0  0  0  0  0  0  0  0  0  0
  187.8300  176.5390  143.6160 Cl  0  0  0  0  0  0  0  0  0  0  0  0
  180.0950  177.0900  135.9840 O   0  0  0  0  0  0  0  0  0  0  0  0
  181.1440  177.0680  135.1380 C   0  0  0  0  0  1  0  0  0  0  0  0
  181.0590  178.5230  136.1920 P   0  0  1  0  0  0  0  0  0  0  0  0
  180.4370  182.2480  134.8100 C   0  0  0  0  0  1  0  0  0  0  0  0
  180.3290  179.9960  135.4870 C   0  0  0  0  0  3  0  0  0  0  0  0
  181.0230  181.0670  135.3830 N   0  0  0  0  0  0  0  0  0  0  0  0
  183.0620  176.1750  137.2600 C   0  0  2  0  0  3  0  0  0  0  0  0
  181.0250  174.7670  138.4960 C   0  0  0  0  0  0  0  0  0  0  0  0
  180.0830  175.0220  139.8040 S   0  0  0  0  0  0  0  0  0  0  0  0
  181.3910  173.9760  137.3810 N   0  0  0  0  0  2  0  0  0  0  0  0
  182.0730  175.1810  137.6410 N   0  0  0  0  0  0  0  0  0  0  0  0
  184.4790  175.6110  137.3450 C   0  0  2  0  0  3  0  0  0  0  0  0
  185.3710  176.0450  136.2380 C   0  0  1  0  0  0  0  0  0  0  0  0
  184.7370  174.7900  136.2240 O   0  0  0  0  0  0  0  0  0  0  0  0
  185.6390  177.6510  134.5260 O   0  0  0  0  0  0  0  0  0  0  0  0
  184.8670  176.9320  135.1370 C   0  0  0  0  0  3  0  0  0  0  0  0
  186.8690  175.9280  136.4990 C   0  0  0  0  0  2  0  0  0  0  0  0
  187.3840  177.0600  137.3810 C   0  0  0  0  0  2  0  0  0  0  0  0
  188.7600  177.5320  136.9310 C   0  0  1  0  0  3  0  0  0  0  0  0
  188.9030  177.3760  135.4920 N   0  0  0  0  0  1  0  0  0  0  0  0
  188.7910  179.1630  138.6970 O   0  0  0  0  0  1  0  0  0  0  0  0
  188.9870  178.9840  137.3260 C   0  0  0  0  0  2  0  0  0  0  0  0
  1  2  2  0  0  0  0
  1  4  1  0  0  0  0
  2  5  1  0  0  0  0
  3  6  1  0  0  0  0
  4  3  2  0  0  0  0
  5  6  2  0  0  0  0
  6 14  1  0  0  0  0
  8  7  1  0  0  0  0
  8 11  1  0  0  0  0
  9 12  1  0  0  0  0
 11 10  1  0  0  0  0
 12 15  1  0  0  0  0
 12 10  2  0  0  0  0
 13 14  1  0  0  0  0
 13  9  2  0  0  0  0
 14  8  2  0  0  0  0
 16 18  1  0  0  0  0
 17 16  1  0  0  0  0
 18 20  1  1  0  0  0
 18  1  1  0  0  0  0
 19 21  1  0  0  0  0
 21 20  2  0  0  0  0
 22 26  1  0  0  0  0
 22  2  1  1  0  0  0
 23 24  2  0  0  0  0
 25 26  1  0  0  0  0
 25 23  1  0  0  0  0
 26 23  1  0  0  0  0
 27 22  1  6  0  0  0
 28 31  1  6  0  0  0
 28 32  1  0  0  0  0
 28 27  1  0  0  0  0
 29 28  1  0  0  0  0
 29 27  1  0  0  0  0
 30 31  2  0  0  0  0
 32 33  1  0  0  0  0
 34 35  1  6  0  0  0
 34 37  1  0  0  0  0
 34 33  1  0  0  0  0
 37 36  1  0  0  0  0
M  END
>  <MODEL>
8

>  <REMARK>
 VINA RESULT:      -6.3      3.866      7.042
  Name = 
  11 active torsions:
  status: ('A' for Active; 'I' for Inactive)
    1  A    between atoms: C_2  and  P_36
    2  A    between atoms: C_3  and  C_20
    3  A    between atoms: C_6  and  C_20
    4  A    between atoms: C_14  and  P_36
    5  A    between atoms: C_16  and  CA_24
    6  A    between atoms: C_16  and  C_25
    7  A    between atoms: C_20  and  N_28
    8  A    between atoms: CA_24  and  C_31
    9  A    between atoms: C_25  and  C_34
   10  A    between atoms: C_26  and  C_33
   11  A    between atoms: C_30  and  C_34
                            x       y       z     vdW  Elec       q    Type
                         _______ _______ _______ _____ _____    ______ ____

>  <TORSDO>
F 11

$$$$
=
 OpenBabel10232411553D

 37 40  0  0  1  0  0  0  0  0999 V2000
  183.8730  178.8020  140.7360 C   0  0  0  0  0  0  0  0  0  0  0  0
  185.1390  178.3230  140.3090 C   0  0  0  0  0  0  0  0  0  0  0  0
  184.5590  178.5330  143.0490 C   0  0  0  0  0  3  0  0  0  0  0  0
  183.6020  178.9030  142.1030 C   0  0  0  0  0  3  0  0  0  0  0  0
  186.0870  177.9530  141.2700 C   0  0  0  0  0  3  0  0  0  0  0  0
  185.8020  178.0420  142.6390 C   0  0  0  0  0  0  0  0  0  0  0  0
  188.7350  178.4130  141.8290 Cl  0  0  0  0  0  0  0  0  0  0  0  0
  188.1450  177.8320  143.3840 C   0  0  0  0  0  0  0  0  0  0  0  0
  186.8600  177.2810  146.1370 C   0  0  0  0  0  3  0  0  0  0  0  0
  189.1500  178.0620  145.6280 C   0  0  0  0  0  3  0  0  0  0  0  0
  189.1910  177.3340  144.3260 C   0  0  0  0  0  2  0  0  0  0  0  0
  188.1010  178.0140  146.4480 C   0  0  0  0  0  0  0  0  0  0  0  0
  186.3140  177.1370  144.9230 C   0  0  0  0  0  3  0  0  0  0  0  0
  186.8250  177.6930  143.6440 C   0  0  0  0  0  0  0  0  0  0  0  0
  188.2350  178.7880  148.0120 Cl  0  0  0  0  0  0  0  0  0  0  0  0
  180.9700  178.8520  140.1110 O   0  0  0  0  0  0  0  0  0  0  0  0
  181.3820  178.0490  139.1080 C   0  0  0  0  0  1  0  0  0  0  0  0
  182.5720  179.3050  139.6040 P   0  0  1  0  0  0  0  0  0  0  0  0
  181.6320  182.7460  137.7500 C   0  0  0  0  0  1  0  0  0  0  0  0
  182.6270  180.8020  138.6280 C   0  0  0  0  0  3  0  0  0  0  0  0
  181.5850  181.5400  138.5290 N   0  0  0  0  0  0  0  0  0  0  0  0
  185.5590  178.2040  138.8720 C   0  0  2  0  0  3  0  0  0  0  0  0
  183.9780  176.8970  137.0130 C   0  0  0  0  0  0  0  0  0  0  0  0
  183.3560  177.2900  135.5570 S   0  0  0  0  0  0  0  0  0  0  0  0
  184.1690  175.9590  138.0550 N   0  0  0  0  0  2  0  0  0  0  0  0
  184.7310  177.2460  138.1590 N   0  0  0  0  0  0  0  0  0  0  0  0
  187.0430  177.8750  138.7250 C   0  0  2  0  0  3  0  0  0  0  0  0
  187.6250  178.2700  137.4160 C   0  0  1  0  0  0  0  0  0  0  0  0
  187.2280  176.9470  137.6760 O   0  0  0  0  0  0  0  0  0  0  0  0
  186.7250  178.4120  135.2350 O   0  0  0  0  0  0  0  0  0  0  0  0
  186.7790  178.9030  136.3500 C   0  0  0  0  0  3  0  0  0  0  0  0
  189.1420  178.4150  137.3730 C   0  0  0  0  0  2  0  0  0  0  0  0
  189.8080  177.2410  136.6660 C   0  0  0  0  0  2  0  0  0  0  0  0
  190.7240  176.4720  137.6090 C   0  0  1  0  0  3  0  0  0  0  0  0
  192.0740  176.4150  137.0700 N   0  0  0  0  0  1  0  0  0  0  0  0
  190.4820  176.1650  139.9820 O   0  0  0  0  0  1  0  0  0  0  0  0
  190.7370  177.1140  138.9890 C   0  0  0  0  0  2  0  0  0  0  0  0
  1  4  1  0  0  0  0
  2  1  2  0  0  0  0
  2  5  1  0  0  0  0
  4  3  2  0  0  0  0
  5  6  2  0  0  0  0
  6  3  1  0  0  0  0
  6 14  1  0  0  0  0
  7  8  1  0  0  0  0
  8 14  2  0  0  0  0
  8 11  1  0  0  0  0
  9 12  1  0  0  0  0
 10 12  2  0  0  0  0
 11 10  1  0  0  0  0
 12 15  1  0  0  0  0
 13  9  2  0  0  0  0
 14 13  1  0  0  0  0
 17 16  1  0  0  0  0
 18 20  1  1  0  0  0
 18 16  1  0  0  0  0
 18  1  1  0  0  0  0
 19 21  1  0  0  0  0
 21 20  2  0  0  0  0
 22  2  1  1  0  0  0
 23 25  1  0  0  0  0
 23 26  1  0  0  0  0
 24 23  2  0  0  0  0
 25 26  1  0  0  0  0
 26 22  1  0  0  0  0
 27 22  1  6  0  0  0
 28 31  1  6  0  0  0
 28 29  1  0  0  0  0
 28 27  1  0  0  0  0
 29 27  1  0  0  0  0
 30 31  2  0  0  0  0
 32 28  1  0  0  0  0
 33 32  1  0  0  0  0
 33 34  1  0  0  0  0
 34 35  1  6  0  0  0
 34 37  1  0  0  0  0
 37 36  1  0  0  0  0
M  END
>  <MODEL>
9

>  <REMARK>
 VINA RESULT:      -6.1      2.929      6.162
  Name = 
  11 active torsions:
  status: ('A' for Active; 'I' for Inactive)
    1  A    between atoms: C_2  and  P_36
    2  A    between atoms: C_3  and  C_20
    3  A    between atoms: C_6  and  C_20
    4  A    between atoms: C_14  and  P_36
    5  A    between atoms: C_16  and  CA_24
    6  A    between atoms: C_16  and  C_25
    7  A    between atoms: C_20  and  N_28
    8  A    between atoms: CA_24  and  C_31
    9  A    between atoms: C_25  and  C_34
   10  A    between atoms: C_26  and  C_33
   11  A    between atoms: C_30  and  C_34
                            x       y       z     vdW  Elec       q    Type
                         _______ _______ _______ _____ _____    ______ ____

>  <TORSDO>
F 11

$$$$
