=
 OpenBabel10232408503D

 25 29  0  0  1  0  0  0  0  0999 V2000
  188.7820  178.5070  139.7280 C   0  0  0  0  0  0  0  0  0  0  0  0
  187.0150  177.3890  142.8680 N   0  0  0  0  0  0  0  0  0  0  0  0
  187.5460  176.4340  143.7610 N   0  0  0  0  0  2  0  0  0  0  0  0
  189.9290  177.7050  139.9020 C   0  0  0  0  0  3  0  0  0  0  0  0
  189.0140  176.8560  141.9520 C   0  0  0  0  0  0  0  0  0  0  0  0
  187.7490  178.4620  140.6880 C   0  0  0  0  0  3  0  0  0  0  0  0
  190.0540  176.8660  141.0210 C   0  0  0  0  0  3  0  0  0  0  0  0
  188.8710  176.0710  143.2110 C   0  0  1  0  0  3  0  0  0  0  0  0
  187.9050  177.6180  141.7900 C   0  0  0  0  0  0  0  0  0  0  0  0
  191.1450  177.2830  145.9150 C   0  0  2  0  0  3  0  0  0  0  0  0
  191.0430  176.9630  147.1600 N   0  0  0  0  0  2  0  0  0  0  0  0
  188.9230  177.0620  146.3640 N   0  0  0  0  0  0  0  0  0  0  0  0
  189.8190  177.4410  145.2840 C   0  0  2  0  0  3  0  0  0  0  0  0
  192.0470  176.5850  145.0720 N   0  0  0  0  0  2  0  0  0  0  0  0
  189.9470  176.4290  144.1890 C   0  0  2  0  0  3  0  0  0  0  0  0
  191.2150  176.0530  144.0430 C   0  0  0  0  0  2  0  0  0  0  0  0
  189.6480  176.8650  147.4170 C   0  0  0  0  0  3  0  0  0  0  0  0
  184.7880  178.1390  142.0800 C   0  0  0  0  0  3  0  0  0  0  0  0
  185.7460  178.0270  143.0990 C   0  0  0  0  0  0  0  0  0  0  0  0
  185.4530  178.5530  144.3670 C   0  0  0  0  0  3  0  0  0  0  0  0
  183.2800  179.2820  143.5880 C   0  0  0  0  0  3  0  0  0  0  0  0
  183.5600  178.7620  142.3230 C   0  0  0  0  0  3  0  0  0  0  0  0
  184.2260  179.1780  144.6100 C   0  0  0  0  0  3  0  0  0  0  0  0
  189.0890  178.8940  137.3060 C   0  0  0  0  0  1  0  0  0  0  0  0
  188.6980  179.3280  138.6010 O   0  0  0  0  0  0  0  0  0  0  0  0
  1  4  2  0  0  0  0
  1  6  1  0  0  0  0
  2 19  1  0  0  0  0
  2  3  1  0  0  0  0
  4  7  1  0  0  0  0
  6  9  2  0  0  0  0
  7  5  2  0  0  0  0
  8  5  1  6  0  0  0
  8  3  1  0  0  0  0
  8 15  1  0  0  0  0
  9  5  1  0  0  0  0
  9  2  1  0  0  0  0
 10 14  1  6  0  0  0
 10 11  1  0  0  0  0
 11 17  1  0  0  0  0
 12 17  2  0  0  0  0
 13 10  1  0  0  0  0
 13 12  1  1  0  0  0
 15 16  1  6  0  0  0
 15 13  1  0  0  0  0
 16 14  1  0  0  0  0
 18 22  2  0  0  0  0
 18 19  1  0  0  0  0
 19 20  2  0  0  0  0
 20 23  1  0  0  0  0
 21 23  2  0  0  0  0
 22 21  1  0  0  0  0
 24 25  1  0  0  0  0
 25  1  1  0  0  0  0
M  END
>  <MODEL>
1

>  <REMARK>
 VINA RESULT:      -9.0      0.000      0.000
  Name = 
  3 active torsions:
  status: ('A' for Active; 'I' for Inactive)
    1  A    between atoms: C_1  and  O_18
    2  A    between atoms: N_5  and  C_13
    3  A    between atoms: C_19  and  C_22
                            x       y       z     vdW  Elec       q    Type
                         _______ _______ _______ _____ _____    ______ ____

>  <TORSDO>
F 3

$$$$
=
 OpenBabel10232408503D

 25 29  0  0  1  0  0  0  0  0999 V2000
  190.5770  177.0170  146.6390 C   0  0  0  0  0  0  0  0  0  0  0  0
  189.0000  177.0340  143.2110 N   0  0  0  0  0  0  0  0  0  0  0  0
  187.6090  176.9300  142.9950 N   0  0  0  0  0  2  0  0  0  0  0  0
  189.3720  176.9100  147.3630 C   0  0  0  0  0  3  0  0  0  0  0  0
  188.1420  176.9160  145.3020 C   0  0  0  0  0  0  0  0  0  0  0  0
  190.5400  177.0680  145.2290 C   0  0  0  0  0  3  0  0  0  0  0  0
  188.1370  176.8560  146.6960 C   0  0  0  0  0  3  0  0  0  0  0  0
  187.0020  176.8740  144.3430 C   0  0  1  0  0  3  0  0  0  0  0  0
  189.2960  177.0140  144.5970 C   0  0  0  0  0  0  0  0  0  0  0  0
  184.6520  179.7750  144.2640 C   0  0  2  0  0  3  0  0  0  0  0  0
  183.3990  179.6990  143.9700 N   0  0  0  0  0  2  0  0  0  0  0  0
  184.4400  178.1450  142.6880 N   0  0  0  0  0  0  0  0  0  0  0  0
  185.4600  178.8470  143.4490 C   0  0  2  0  0  3  0  0  0  0  0  0
  185.0640  179.7760  145.6220 N   0  0  0  0  0  2  0  0  0  0  0  0
  186.0900  178.0440  144.5430 C   0  0  2  0  0  3  0  0  0  0  0  0
  185.9290  178.6460  145.7200 C   0  0  0  0  0  2  0  0  0  0  0  0
  183.3030  178.6990  142.9620 C   0  0  0  0  0  3  0  0  0  0  0  0
  191.3100  177.3130  142.3570 C   0  0  0  0  0  3  0  0  0  0  0  0
  189.9340  177.1680  142.1240 C   0  0  0  0  0  0  0  0  0  0  0  0
  189.4670  177.1550  140.8010 C   0  0  0  0  0  3  0  0  0  0  0  0
  191.7260  177.4300  139.9760 C   0  0  0  0  0  3  0  0  0  0  0  0
  192.2020  177.4430  141.2880 C   0  0  0  0  0  3  0  0  0  0  0  0
  190.3570  177.2870  139.7320 C   0  0  0  0  0  3  0  0  0  0  0  0
  192.4410  175.9040  147.8220 C   0  0  0  0  0  1  0  0  0  0  0  0
  191.7840  177.0680  147.3400 O   0  0  0  0  0  0  0  0  0  0  0  0
  1 25  1  0  0  0  0
  1  4  1  0  0  0  0
  2  9  1  0  0  0  0
  3  2  1  0  0  0  0
  5  7  1  0  0  0  0
  6  1  2  0  0  0  0
  7  4  2  0  0  0  0
  8  3  1  6  0  0  0
  8 15  1  0  0  0  0
  8  5  1  0  0  0  0
  9  6  1  0  0  0  0
  9  5  2  0  0  0  0
 10 11  1  1  0  0  0
 10 14  1  0  0  0  0
 12 17  2  0  0  0  0
 13 12  1  6  0  0  0
 13 10  1  0  0  0  0
 13 15  1  0  0  0  0
 14 16  1  0  0  0  0
 15 16  1  6  0  0  0
 17 11  1  0  0  0  0
 19 18  1  0  0  0  0
 19  2  1  0  0  0  0
 20 19  2  0  0  0  0
 21 22  1  0  0  0  0
 22 18  2  0  0  0  0
 23 21  2  0  0  0  0
 23 20  1  0  0  0  0
 25 24  1  0  0  0  0
M  END
>  <MODEL>
2

>  <REMARK>
 VINA RESULT:      -8.2      2.661      6.688
  Name = 
  3 active torsions:
  status: ('A' for Active; 'I' for Inactive)
    1  A    between atoms: C_1  and  O_18
    2  A    between atoms: N_5  and  C_13
    3  A    between atoms: C_19  and  C_22
                            x       y       z     vdW  Elec       q    Type
                         _______ _______ _______ _____ _____    ______ ____

>  <TORSDO>
F 3

$$$$
=
 OpenBabel10232408503D

 25 29  0  0  1  0  0  0  0  0999 V2000
  188.8910  177.1130  145.2580 C   0  0  0  0  0  0  0  0  0  0  0  0
  186.7910  178.5590  142.4780 N   0  0  0  0  0  0  0  0  0  0  0  0
  187.3270  179.0120  141.2540 N   0  0  0  0  0  2  0  0  0  0  0  0
  190.1280  177.2180  144.5890 C   0  0  0  0  0  3  0  0  0  0  0  0
  189.0060  178.1490  142.6820 C   0  0  0  0  0  0  0  0  0  0  0  0
  187.7110  177.5420  144.6130 C   0  0  0  0  0  3  0  0  0  0  0  0
  190.1970  177.7430  143.2880 C   0  0  0  0  0  3  0  0  0  0  0  0
  188.7790  178.7400  141.3330 C   0  0  1  0  0  3  0  0  0  0  0  0
  187.8140  178.0560  143.3190 C   0  0  0  0  0  0  0  0  0  0  0  0
  189.3450  176.5880  138.3340 C   0  0  2  0  0  3  0  0  0  0  0  0
  189.7700  177.0130  137.1920 N   0  0  0  0  0  2  0  0  0  0  0  0
  188.4830  178.6750  138.0420 N   0  0  0  0  0  0  0  0  0  0  0  0
  188.4380  177.5610  138.9740 C   0  0  2  0  0  3  0  0  0  0  0  0
  190.2560  176.0270  139.2660 N   0  0  0  0  0  2  0  0  0  0  0  0
  189.1810  177.7830  140.2540 C   0  0  2  0  0  3  0  0  0  0  0  0
  190.1170  176.8510  140.4210 C   0  0  0  0  0  2  0  0  0  0  0  0
  189.1890  178.3010  137.0250 C   0  0  0  0  0  3  0  0  0  0  0  0
  184.8980  178.8620  144.0490 C   0  0  0  0  0  3  0  0  0  0  0  0
  185.3790  178.6050  142.7570 C   0  0  0  0  0  0  0  0  0  0  0  0
  184.4590  178.3870  141.7200 C   0  0  0  0  0  3  0  0  0  0  0  0
  182.6170  178.6840  143.2620 C   0  0  0  0  0  3  0  0  0  0  0  0
  183.5230  178.9020  144.3010 C   0  0  0  0  0  3  0  0  0  0  0  0
  183.0840  178.4250  141.9710 C   0  0  0  0  0  3  0  0  0  0  0  0
  188.5290  177.3640  147.6910 C   0  0  0  0  0  1  0  0  0  0  0  0
  188.8670  176.5850  146.5510 O   0  0  0  0  0  0  0  0  0  0  0  0
  1 25  1  0  0  0  0
  2 19  1  0  0  0  0
  2  9  1  0  0  0  0
  3  2  1  0  0  0  0
  4  1  2  0  0  0  0
  5  7  2  0  0  0  0
  5  9  1  0  0  0  0
  6  1  1  0  0  0  0
  7  4  1  0  0  0  0
  8  3  1  6  0  0  0
  8  5  1  0  0  0  0
  9  6  2  0  0  0  0
 10 11  1  6  0  0  0
 10 13  1  0  0  0  0
 10 14  1  0  0  0  0
 13 12  1  6  0  0  0
 13 15  1  0  0  0  0
 14 16  1  0  0  0  0
 15 16  1  1  0  0  0
 15  8  1  0  0  0  0
 17 11  1  0  0  0  0
 17 12  2  0  0  0  0
 18 22  1  0  0  0  0
 19 18  2  0  0  0  0
 20 23  2  0  0  0  0
 20 19  1  0  0  0  0
 21 22  2  0  0  0  0
 23 21  1  0  0  0  0
 25 24  1  0  0  0  0
M  END
>  <MODEL>
3

>  <REMARK>
 VINA RESULT:      -8.1      2.868      5.554
  Name = 
  3 active torsions:
  status: ('A' for Active; 'I' for Inactive)
    1  A    between atoms: C_1  and  O_18
    2  A    between atoms: N_5  and  C_13
    3  A    between atoms: C_19  and  C_22
                            x       y       z     vdW  Elec       q    Type
                         _______ _______ _______ _____ _____    ______ ____

>  <TORSDO>
F 3

$$$$
=
 OpenBabel10232408503D

 25 29  0  0  1  0  0  0  0  0999 V2000
  190.4590  176.8250  145.7730 C   0  0  0  0  0  0  0  0  0  0  0  0
  187.8120  178.3800  143.5810 N   0  0  0  0  0  0  0  0  0  0  0  0
  188.0730  178.8990  142.2950 N   0  0  0  0  0  2  0  0  0  0  0  0
  191.5240  176.9770  144.8610 C   0  0  0  0  0  3  0  0  0  0  0  0
  190.0200  177.9860  143.2860 C   0  0  0  0  0  0  0  0  0  0  0  0
  189.1680  177.2710  145.4170 C   0  0  0  0  0  3  0  0  0  0  0  0
  191.3130  177.5650  143.6030 C   0  0  0  0  0  3  0  0  0  0  0  0
  189.5090  178.6400  142.0480 C   0  0  1  0  0  3  0  0  0  0  0  0
  188.9910  177.8490  144.1580 C   0  0  0  0  0  0  0  0  0  0  0  0
  189.4390  176.6640  138.8800 C   0  0  2  0  0  3  0  0  0  0  0  0
  189.6650  177.1480  137.7060 N   0  0  0  0  0  2  0  0  0  0  0  0
  188.6160  178.7870  138.8700 N   0  0  0  0  0  0  0  0  0  0  0  0
  188.7010  177.6190  139.7300 C   0  0  2  0  0  3  0  0  0  0  0  0
  190.4830  176.0230  139.5960 N   0  0  0  0  0  2  0  0  0  0  0  0
  189.6720  177.7420  140.8620 C   0  0  2  0  0  3  0  0  0  0  0  0
  190.5870  176.7770  140.8020 C   0  0  0  0  0  2  0  0  0  0  0  0
  189.1110  178.4590  137.7210 C   0  0  0  0  0  3  0  0  0  0  0  0
  185.3440  178.4050  143.3500 C   0  0  0  0  0  3  0  0  0  0  0  0
  186.4920  178.3960  144.1560 C   0  0  0  0  0  0  0  0  0  0  0  0
  186.3420  178.4050  145.5510 C   0  0  0  0  0  3  0  0  0  0  0  0
  183.9330  178.4300  145.3160 C   0  0  0  0  0  3  0  0  0  0  0  0
  184.0700  178.4210  143.9270 C   0  0  0  0  0  3  0  0  0  0  0  0
  185.0700  178.4230  146.1290 C   0  0  0  0  0  3  0  0  0  0  0  0
  192.0250  175.9280  147.4630 C   0  0  0  0  0  1  0  0  0  0  0  0
  190.7120  176.2340  147.0130 O   0  0  0  0  0  0  0  0  0  0  0  0
  1 25  1  0  0  0  0
  2 19  1  0  0  0  0
  2  9  1  0  0  0  0
  3  2  1  0  0  0  0
  4  1  2  0  0  0  0
  5  7  2  0  0  0  0
  5  9  1  0  0  0  0
  6  1  1  0  0  0  0
  7  4  1  0  0  0  0
  8  3  1  1  0  0  0
  8  5  1  0  0  0  0
  9  6  2  0  0  0  0
 10 11  1  6  0  0  0
 10 14  1  0  0  0  0
 10 13  1  0  0  0  0
 11 17  1  0  0  0  0
 13 12  1  6  0  0  0
 13 15  1  0  0  0  0
 14 16  1  0  0  0  0
 15 16  1  1  0  0  0
 15  8  1  0  0  0  0
 17 12  2  0  0  0  0
 18 22  2  0  0  0  0
 18 19  1  0  0  0  0
 19 20  2  0  0  0  0
 20 23  1  0  0  0  0
 21 23  2  0  0  0  0
 22 21  1  0  0  0  0
 25 24  1  0  0  0  0
M  END
>  <MODEL>
4

>  <REMARK>
 VINA RESULT:      -7.8      2.842      5.460
  Name = 
  3 active torsions:
  status: ('A' for Active; 'I' for Inactive)
    1  A    between atoms: C_1  and  O_18
    2  A    between atoms: N_5  and  C_13
    3  A    between atoms: C_19  and  C_22
                            x       y       z     vdW  Elec       q    Type
                         _______ _______ _______ _____ _____    ______ ____

>  <TORSDO>
F 3

$$$$
=
 OpenBabel10232408503D

 25 29  0  0  1  0  0  0  0  0999 V2000
  190.5850  176.6910  143.2920 C   0  0  0  0  0  0  0  0  0  0  0  0
  187.4480  178.2750  141.9210 N   0  0  0  0  0  0  0  0  0  0  0  0
  187.3360  178.7620  140.6010 N   0  0  0  0  0  2  0  0  0  0  0  0
  191.3430  176.7980  142.1080 C   0  0  0  0  0  3  0  0  0  0  0  0
  189.4680  177.8170  141.0100 C   0  0  0  0  0  0  0  0  0  0  0  0
  189.2560  177.1640  143.3140 C   0  0  0  0  0  3  0  0  0  0  0  0
  190.7880  177.3680  140.9510 C   0  0  0  0  0  3  0  0  0  0  0  0
  188.6340  178.4620  139.9570 C   0  0  1  0  0  3  0  0  0  0  0  0
  188.7330  177.7240  142.1460 C   0  0  0  0  0  0  0  0  0  0  0  0
  187.6340  176.4630  136.9640 C   0  0  2  0  0  3  0  0  0  0  0  0
  187.6180  176.9090  135.7540 N   0  0  0  0  0  2  0  0  0  0  0  0
  187.0300  178.6560  137.0730 N   0  0  0  0  0  0  0  0  0  0  0  0
  187.2090  177.4960  137.9300 C   0  0  2  0  0  3  0  0  0  0  0  0
  188.7540  175.7320  137.4370 N   0  0  0  0  0  2  0  0  0  0  0  0
  188.4270  177.5370  138.7970 C   0  0  2  0  0  3  0  0  0  0  0  0
  189.2100  176.4880  138.5580 C   0  0  0  0  0  2  0  0  0  0  0  0
  187.2070  178.2670  135.8520 C   0  0  0  0  0  3  0  0  0  0  0  0
  186.5450  178.1040  144.2230 C   0  0  0  0  0  3  0  0  0  0  0  0
  186.3520  178.3370  142.8530 C   0  0  0  0  0  0  0  0  0  0  0  0
  185.0620  178.6330  142.3900 C   0  0  0  0  0  3  0  0  0  0  0  0
  184.1890  178.4630  144.6410 C   0  0  0  0  0  3  0  0  0  0  0  0
  185.4690  178.1670  145.1130 C   0  0  0  0  0  3  0  0  0  0  0  0
  183.9840  178.6950  143.2780 C   0  0  0  0  0  3  0  0  0  0  0  0
  191.4840  176.8650  145.5890 C   0  0  0  0  0  1  0  0  0  0  0  0
  191.1740  176.1170  144.4210 O   0  0  0  0  0  0  0  0  0  0  0  0
  1  6  1  0  0  0  0
  1 25  1  0  0  0  0
  2  9  1  0  0  0  0
  2 19  1  0  0  0  0
  3  2  1  0  0  0  0
  4  1  2  0  0  0  0
  5  9  1  0  0  0  0
  7  5  2  0  0  0  0
  7  4  1  0  0  0  0
  8  3  1  1  0  0  0
  8  5  1  0  0  0  0
  9  6  2  0  0  0  0
 10 11  1  6  0  0  0
 10 14  1  0  0  0  0
 10 13  1  0  0  0  0
 11 17  1  0  0  0  0
 13 12  1  6  0  0  0
 13 15  1  0  0  0  0
 14 16  1  0  0  0  0
 15 16  1  1  0  0  0
 15  8  1  0  0  0  0
 17 12  2  0  0  0  0
 18 22  1  0  0  0  0
 19 18  2  0  0  0  0
 20 19  1  0  0  0  0
 20 23  2  0  0  0  0
 21 22  2  0  0  0  0
 23 21  1  0  0  0  0
 25 24  1  0  0  0  0
M  END
>  <MODEL>
5

>  <REMARK>
 VINA RESULT:      -7.6      2.967      5.998
  Name = 
  3 active torsions:
  status: ('A' for Active; 'I' for Inactive)
    1  A    between atoms: C_1  and  O_18
    2  A    between atoms: N_5  and  C_13
    3  A    between atoms: C_19  and  C_22
                            x       y       z     vdW  Elec       q    Type
                         _______ _______ _______ _____ _____    ______ ____

>  <TORSDO>
F 3

$$$$
=
 OpenBabel10232408503D

 25 29  0  0  1  0  0  0  0  0999 V2000
  191.0360  177.3110  141.8940 C   0  0  0  0  0  0  0  0  0  0  0  0
  187.4910  178.2760  141.0350 N   0  0  0  0  0  0  0  0  0  0  0  0
  187.0420  178.4910  139.7140 N   0  0  0  0  0  2  0  0  0  0  0  0
  191.5110  177.2700  140.5670 C   0  0  0  0  0  3  0  0  0  0  0  0
  189.3250  177.8650  139.7740 C   0  0  0  0  0  0  0  0  0  0  0  0
  189.6860  177.6410  142.1400 C   0  0  0  0  0  3  0  0  0  0  0  0
  190.6550  177.5510  139.4890 C   0  0  0  0  0  3  0  0  0  0  0  0
  188.2090  178.2090  138.8480 C   0  0  1  0  0  3  0  0  0  0  0  0
  188.8600  177.9120  141.0470 C   0  0  0  0  0  0  0  0  0  0  0  0
  186.9190  175.6050  136.5020 C   0  0  2  0  0  3  0  0  0  0  0  0
  186.6480  175.8060  135.2570 N   0  0  0  0  0  2  0  0  0  0  0  0
  186.1200  177.7310  136.3320 N   0  0  0  0  0  0  0  0  0  0  0  0
  186.5630  176.7730  137.3320 C   0  0  2  0  0  3  0  0  0  0  0  0
  188.1740  175.0580  136.8770 N   0  0  0  0  0  2  0  0  0  0  0  0
  187.9020  177.0660  137.9320 C   0  0  2  0  0  3  0  0  0  0  0  0
  188.7360  176.0460  137.7390 C   0  0  0  0  0  2  0  0  0  0  0  0
  186.1220  177.1260  135.1890 C   0  0  0  0  0  3  0  0  0  0  0  0
  186.8610  177.7060  143.3630 C   0  0  0  0  0  3  0  0  0  0  0  0
  186.6140  178.3990  142.1690 C   0  0  0  0  0  0  0  0  0  0  0  0
  185.4840  179.2270  142.0860 C   0  0  0  0  0  3  0  0  0  0  0  0
  184.8760  178.6640  144.3610 C   0  0  0  0  0  3  0  0  0  0  0  0
  185.9980  177.8380  144.4540 C   0  0  0  0  0  3  0  0  0  0  0  0
  184.6180  179.3580  143.1760 C   0  0  0  0  0  3  0  0  0  0  0  0
  191.5960  176.1320  143.9930 C   0  0  0  0  0  1  0  0  0  0  0  0
  191.9200  177.0250  142.9360 O   0  0  0  0  0  0  0  0  0  0  0  0
  1  6  1  0  0  0  0
  1 25  1  0  0  0  0
  2  9  1  0  0  0  0
  2 19  1  0  0  0  0
  3  2  1  0  0  0  0
  4  1  2  0  0  0  0
  5  9  1  0  0  0  0
  7  5  2  0  0  0  0
  7  4  1  0  0  0  0
  8  3  1  1  0  0  0
  8  5  1  0  0  0  0
  9  6  2  0  0  0  0
 10 11  1  6  0  0  0
 10 14  1  0  0  0  0
 10 13  1  0  0  0  0
 13 12  1  6  0  0  0
 13 15  1  0  0  0  0
 14 16  1  0  0  0  0
 15 16  1  1  0  0  0
 15  8  1  0  0  0  0
 17 11  1  0  0  0  0
 17 12  2  0  0  0  0
 18 22  1  0  0  0  0
 19 18  2  0  0  0  0
 20 19  1  0  0  0  0
 20 23  2  0  0  0  0
 21 22  2  0  0  0  0
 23 21  1  0  0  0  0
 25 24  1  0  0  0  0
M  END
>  <MODEL>
6

>  <REMARK>
 VINA RESULT:      -7.5      3.295      6.310
  Name = 
  3 active torsions:
  status: ('A' for Active; 'I' for Inactive)
    1  A    between atoms: C_1  and  O_18
    2  A    between atoms: N_5  and  C_13
    3  A    between atoms: C_19  and  C_22
                            x       y       z     vdW  Elec       q    Type
                         _______ _______ _______ _____ _____    ______ ____

>  <TORSDO>
F 3

$$$$
=
 OpenBabel10232408503D

 25 29  0  0  1  0  0  0  0  0999 V2000
  189.9920  176.9830  143.7670 C   0  0  0  0  0  0  0  0  0  0  0  0
  187.2840  178.3380  141.5180 N   0  0  0  0  0  0  0  0  0  0  0  0
  187.5000  178.6990  140.1710 N   0  0  0  0  0  2  0  0  0  0  0  0
  191.0200  177.0040  142.8020 C   0  0  0  0  0  3  0  0  0  0  0  0
  189.4700  177.8610  141.1820 C   0  0  0  0  0  0  0  0  0  0  0  0
  188.6960  177.4150  143.4140 C   0  0  0  0  0  3  0  0  0  0  0  0
  190.7660  177.4480  141.4940 C   0  0  0  0  0  3  0  0  0  0  0  0
  188.9190  178.3800  139.8980 C   0  0  1  0  0  3  0  0  0  0  0  0
  188.4770  177.8490  142.1050 C   0  0  0  0  0  0  0  0  0  0  0  0
  189.6960  176.0030  137.1240 C   0  0  2  0  0  3  0  0  0  0  0  0
  190.5530  175.0420  137.1980 N   0  0  0  0  0  2  0  0  0  0  0  0
  191.3930  176.7280  138.4590 N   0  0  0  0  0  0  0  0  0  0  0  0
  190.1540  177.1970  137.8620 C   0  0  2  0  0  3  0  0  0  0  0  0
  188.3190  175.7460  137.3460 N   0  0  0  0  0  2  0  0  0  0  0  0
  189.0140  177.3470  138.8190 C   0  0  2  0  0  3  0  0  0  0  0  0
  187.9810  176.5970  138.4400 C   0  0  0  0  0  2  0  0  0  0  0  0
  191.6130  175.5360  138.0080 C   0  0  0  0  0  3  0  0  0  0  0  0
  185.8500  178.4640  143.5360 C   0  0  0  0  0  3  0  0  0  0  0  0
  185.9910  178.4510  142.1400 C   0  0  0  0  0  0  0  0  0  0  0  0
  184.8410  178.5490  141.3420 C   0  0  0  0  0  3  0  0  0  0  0  0
  183.4490  178.6710  143.3190 C   0  0  0  0  0  3  0  0  0  0  0  0
  184.5860  178.5740  144.1230 C   0  0  0  0  0  3  0  0  0  0  0  0
  183.5760  178.6570  141.9270 C   0  0  0  0  0  3  0  0  0  0  0  0
  191.5270  176.8000  145.6970 C   0  0  0  0  0  1  0  0  0  0  0  0
  190.2870  176.5330  145.0560 O   0  0  0  0  0  0  0  0  0  0  0  0
  1 25  1  0  0  0  0
  2  9  1  0  0  0  0
  2 19  1  0  0  0  0
  3  2  1  0  0  0  0
  4  1  2  0  0  0  0
  5  7  2  0  0  0  0
  5  9  1  0  0  0  0
  6  1  1  0  0  0  0
  7  4  1  0  0  0  0
  8  3  1  1  0  0  0
  8  5  1  0  0  0  0
  9  6  2  0  0  0  0
 10 11  1  1  0  0  0
 10 14  1  0  0  0  0
 10 13  1  0  0  0  0
 11 17  1  0  0  0  0
 13 12  1  1  0  0  0
 13 15  1  0  0  0  0
 14 16  1  0  0  0  0
 15 16  1  6  0  0  0
 15  8  1  0  0  0  0
 17 12  2  0  0  0  0
 18 22  1  0  0  0  0
 19 18  2  0  0  0  0
 20 23  2  0  0  0  0
 20 19  1  0  0  0  0
 21 22  2  0  0  0  0
 23 21  1  0  0  0  0
 25 24  1  0  0  0  0
M  END
>  <MODEL>
7

>  <REMARK>
 VINA RESULT:      -7.5      3.049      5.617
  Name = 
  3 active torsions:
  status: ('A' for Active; 'I' for Inactive)
    1  A    between atoms: C_1  and  O_18
    2  A    between atoms: N_5  and  C_13
    3  A    between atoms: C_19  and  C_22
                            x       y       z     vdW  Elec       q    Type
                         _______ _______ _______ _____ _____    ______ ____

>  <TORSDO>
F 3

$$$$
=
 OpenBabel10232408503D

 25 29  0  0  1  0  0  0  0  0999 V2000
  186.0030  178.6440  145.4210 C   0  0  0  0  0  0  0  0  0  0  0  0
  189.1470  176.7420  144.5660 N   0  0  0  0  0  0  0  0  0  0  0  0
  189.3820  176.1560  143.3040 N   0  0  0  0  0  2  0  0  0  0  0  0
  185.3920  178.5090  144.1570 C   0  0  0  0  0  3  0  0  0  0  0  0
  187.3000  177.2810  143.3750 C   0  0  0  0  0  0  0  0  0  0  0  0
  187.2760  178.0770  145.6430 C   0  0  0  0  0  3  0  0  0  0  0  0
  186.0390  177.8200  143.1180 C   0  0  0  0  0  3  0  0  0  0  0  0
  188.2040  176.5050  142.4790 C   0  0  1  0  0  3  0  0  0  0  0  0
  187.8930  177.4000  144.5880 C   0  0  0  0  0  0  0  0  0  0  0  0
  189.7650  178.2680  139.5800 C   0  0  2  0  0  3  0  0  0  0  0  0
  190.0570  177.7140  138.4530 N   0  0  0  0  0  2  0  0  0  0  0  0
  190.4000  176.1290  140.0380 N   0  0  0  0  0  0  0  0  0  0  0  0
  190.0030  177.3530  140.7150 C   0  0  2  0  0  3  0  0  0  0  0  0
  188.5460  178.9790  139.7280 N   0  0  0  0  0  2  0  0  0  0  0  0
  188.6270  177.3270  141.3030 C   0  0  2  0  0  3  0  0  0  0  0  0
  187.8820  178.3080  140.7960 C   0  0  0  0  0  2  0  0  0  0  0  0
  190.4800  176.3940  138.7750 C   0  0  0  0  0  3  0  0  0  0  0  0
  191.3300  175.9940  145.4710 C   0  0  0  0  0  3  0  0  0  0  0  0
  190.1090  176.6670  145.6340 C   0  0  0  0  0  0  0  0  0  0  0  0
  189.8290  177.2750  146.8660 C   0  0  0  0  0  3  0  0  0  0  0  0
  191.9620  176.5380  147.7420 C   0  0  0  0  0  3  0  0  0  0  0  0
  192.2520  175.9300  146.5190 C   0  0  0  0  0  3  0  0  0  0  0  0
  190.7490  177.2100  147.9170 C   0  0  0  0  0  3  0  0  0  0  0  0
  185.9270  179.6580  147.6740 C   0  0  0  0  0  1  0  0  0  0  0  0
  185.3260  179.3380  146.4270 O   0  0  0  0  0  0  0  0  0  0  0  0
  1  6  1  0  0  0  0
  1 25  1  0  0  0  0
  2  9  1  0  0  0  0
  2 19  1  0  0  0  0
  3  2  1  0  0  0  0
  4  1  2  0  0  0  0
  5  9  1  0  0  0  0
  7  5  2  0  0  0  0
  7  4  1  0  0  0  0
  8  3  1  1  0  0  0
  8  5  1  0  0  0  0
  9  6  2  0  0  0  0
 10 11  1  6  0  0  0
 10 14  1  0  0  0  0
 10 13  1  0  0  0  0
 11 17  1  0  0  0  0
 13 12  1  6  0  0  0
 13 15  1  0  0  0  0
 14 16  1  0  0  0  0
 15 16  1  1  0  0  0
 15  8  1  0  0  0  0
 17 12  2  0  0  0  0
 18 19  2  0  0  0  0
 18 22  1  0  0  0  0
 19 20  1  0  0  0  0
 20 23  2  0  0  0  0
 21 23  1  0  0  0  0
 22 21  2  0  0  0  0
 25 24  1  0  0  0  0
M  END
>  <MODEL>
8

>  <REMARK>
 VINA RESULT:      -7.4      2.752      6.506
  Name = 
  3 active torsions:
  status: ('A' for Active; 'I' for Inactive)
    1  A    between atoms: C_1  and  O_18
    2  A    between atoms: N_5  and  C_13
    3  A    between atoms: C_19  and  C_22
                            x       y       z     vdW  Elec       q    Type
                         _______ _______ _______ _____ _____    ______ ____

>  <TORSDO>
F 3

$$$$
=
 OpenBabel10232408503D

 25 29  0  0  1  0  0  0  0  0999 V2000
  189.4250  176.9760  141.6520 C   0  0  0  0  0  0  0  0  0  0  0  0
  186.3790  178.5310  143.2430 N   0  0  0  0  0  0  0  0  0  0  0  0
  185.3940  179.2320  142.5150 N   0  0  0  0  0  2  0  0  0  0  0  0
  189.1150  177.3460  140.3270 C   0  0  0  0  0  3  0  0  0  0  0  0
  187.1010  178.3960  141.1020 C   0  0  0  0  0  0  0  0  0  0  0  0
  188.5500  177.3350  142.6990 C   0  0  0  0  0  3  0  0  0  0  0  0
  187.9440  178.0670  140.0400 C   0  0  0  0  0  3  0  0  0  0  0  0
  185.8150  179.1490  141.0980 C   0  0  1  0  0  3  0  0  0  0  0  0
  187.3930  178.0490  142.3790 C   0  0  0  0  0  0  0  0  0  0  0  0
  183.4430  177.6380  138.6410 C   0  0  2  0  0  3  0  0  0  0  0  0
  183.7770  176.8100  137.7090 N   0  0  0  0  0  2  0  0  0  0  0  0
  185.5230  178.2390  137.9340 N   0  0  0  0  0  0  0  0  0  0  0  0
  184.4790  178.6690  138.8500 C   0  0  2  0  0  3  0  0  0  0  0  0
  182.9300  177.1530  139.8710 N   0  0  0  0  0  2  0  0  0  0  0  0
  184.7750  178.4300  140.2970 C   0  0  2  0  0  3  0  0  0  0  0  0
  183.8370  177.6620  140.8470 C   0  0  0  0  0  2  0  0  0  0  0  0
  185.0620  177.2310  137.2670 C   0  0  0  0  0  3  0  0  0  0  0  0
  185.0980  178.6100  145.3630 C   0  0  0  0  0  3  0  0  0  0  0  0
  186.2870  178.3440  144.6670 C   0  0  0  0  0  0  0  0  0  0  0  0
  187.4040  177.8880  145.3820 C   0  0  0  0  0  3  0  0  0  0  0  0
  186.1450  177.9690  147.4480 C   0  0  0  0  0  3  0  0  0  0  0  0
  185.0270  178.4240  146.7470 C   0  0  0  0  0  3  0  0  0  0  0  0
  187.3350  177.7020  146.7660 C   0  0  0  0  0  3  0  0  0  0  0  0
  191.4430  176.5230  143.0080 C   0  0  0  0  0  1  0  0  0  0  0  0
  190.6000  176.2590  141.8940 O   0  0  0  0  0  0  0  0  0  0  0  0
  1 25  1  0  0  0  0
  1  6  1  0  0  0  0
  2 19  1  0  0  0  0
  3  2  1  0  0  0  0
  4  1  2  0  0  0  0
  5  9  1  0  0  0  0
  7  4  1  0  0  0  0
  7  5  2  0  0  0  0
  8  5  1  1  0  0  0
  8  3  1  0  0  0  0
  9  6  2  0  0  0  0
  9  2  1  0  0  0  0
 10 11  1  1  0  0  0
 10 13  1  0  0  0  0
 10 14  1  0  0  0  0
 13 12  1  6  0  0  0
 13 15  1  0  0  0  0
 14 16  1  0  0  0  0
 15 16  1  1  0  0  0
 15  8  1  0  0  0  0
 17 11  1  0  0  0  0
 17 12  2  0  0  0  0
 18 22  1  0  0  0  0
 19 18  2  0  0  0  0
 19 20  1  0  0  0  0
 20 23  2  0  0  0  0
 22 21  2  0  0  0  0
 23 21  1  0  0  0  0
 25 24  1  0  0  0  0
M  END
>  <MODEL>
9

>  <REMARK>
 VINA RESULT:      -7.3      2.901      6.244
  Name = 
  3 active torsions:
  status: ('A' for Active; 'I' for Inactive)
    1  A    between atoms: C_1  and  O_18
    2  A    between atoms: N_5  and  C_13
    3  A    between atoms: C_19  and  C_22
                            x       y       z     vdW  Elec       q    Type
                         _______ _______ _______ _____ _____    ______ ____

>  <TORSDO>
F 3

$$$$
