=
 OpenBabel10232407553D

 26 29  0  0  1  0  0  0  0  0999 V2000
  189.9230  177.1530  143.7580 C   0  0  0  0  0  3  0  0  0  0  0  0
  185.4240  178.5030  142.5330 C   0  0  0  0  0  3  0  0  0  0  0  0
  190.8750  176.8670  144.7370 C   0  0  0  0  0  3  0  0  0  0  0  0
  186.6480  177.9030  147.0810 O   0  0  0  0  0  0  0  0  0  0  0  0
  186.9500  177.8760  145.8550 C   0  0  0  0  0  0  0  0  0  0  0  0
  185.9930  178.1880  144.8690 C   0  0  2  0  0  3  0  0  0  0  0  0
  183.7890  178.9000  144.2110 N   0  0  0  0  0  0  0  0  0  0  0  0
  188.5980  177.4960  144.1050 C   0  0  0  0  0  0  0  0  0  0  0  0
  188.2530  177.5400  145.4770 C   0  0  0  0  0  0  0  0  0  0  0  0
  189.2210  177.2480  146.4510 C   0  0  0  0  0  3  0  0  0  0  0  0
  186.3750  178.1360  143.5000 C   0  0  0  0  0  0  0  0  0  0  0  0
  184.6650  178.5710  145.1940 C   0  0  0  0  0  0  0  0  0  0  0  0
  190.5240  176.9140  146.0850 C   0  0  0  0  0  0  0  0  0  0  0  0
  184.1380  178.8790  142.9020 C   0  0  0  0  0  3  0  0  0  0  0  0
  187.6580  177.7650  143.1370 N   0  0  0  0  0  0  0  0  0  0  0  0
  184.2710  178.6180  146.3910 O   0  0  0  0  0  0  0  0  0  0  0  0
  192.2900  176.3800  147.9060 N   0  0  0  0  0  0  0  0  0  0  0  0
  191.5020  176.6190  147.0930 C   0  0  0  0  0  0  0  0  0  0  0  0
  188.4430  178.7130  141.0060 C   0  0  0  0  0  3  0  0  0  0  0  0
  188.0850  177.6710  141.7530 C   0  0  0  0  0  3  0  0  0  0  0  0
  187.8080  177.9120  138.7900 C   0  0  0  0  0  0  0  0  0  0  0  0
  189.5010  176.4030  138.7560 C   0  0  0  0  0  3  0  0  0  0  0  0
  188.8770  178.5280  139.5900 C   0  0  2  0  0  3  0  0  0  0  0  0
  186.6940  178.4400  138.5330 O   0  0  0  0  0  0  0  0  0  0  0  0
  188.1860  176.6850  138.3200 O   0  0  0  0  0  0  0  0  0  0  0  0
  189.9740  177.5560  139.5430 N   0  0  0  0  0  0  0  0  0  0  0  0
  1  8  2  0  0  0  0
  1  3  1  0  0  0  0
  2 14  1  0  0  0  0
  2 11  2  0  0  0  0
  3 13  2  0  0  0  0
  5  4  2  0  0  0  0
  6 11  1  1  0  0  0
  6 12  1  0  0  0  0
  6  5  1  0  0  0  0
  7 12  1  0  0  0  0
  8  9  1  0  0  0  0
  9  5  1  0  0  0  0
  9 10  2  0  0  0  0
 12 16  2  0  0  0  0
 13 10  1  0  0  0  0
 13 18  1  0  0  0  0
 14  7  2  0  0  0  0
 15 11  1  0  0  0  0
 15  8  1  0  0  0  0
 18 17  3  0  0  0  0
 19 20  2  0  0  0  0
 20 15  1  0  0  0  0
 21 23  1  0  0  0  0
 22 26  2  0  0  0  0
 23 19  1  1  0  0  0
 24 21  2  0  0  0  0
 25 22  1  0  0  0  0
 25 21  1  0  0  0  0
 26 23  1  0  0  0  0
M  END
>  <MODEL>
1

>  <REMARK>
 VINA RESULT:     -10.0      0.000      0.000
  Name = 
  3 active torsions:
  status: ('A' for Active; 'I' for Inactive)
    1  A    between atoms: C_4  and  C_5
    2  A    between atoms: C_8  and  C_23
    3  A    between atoms: C_11  and  N_25
                            x       y       z     vdW  Elec       q    Type
                         _______ _______ _______ _____ _____    ______ ____

>  <TORSDO>
F 3

$$$$
=
 OpenBabel10232407553D

 26 29  0  0  1  0  0  0  0  0999 V2000
  186.8280  178.4140  142.1160 C   0  0  0  0  0  3  0  0  0  0  0  0
  190.8980  177.1950  144.4620 C   0  0  0  0  0  3  0  0  0  0  0  0
  185.4520  178.6440  142.1210 C   0  0  0  0  0  3  0  0  0  0  0  0
  186.7670  177.5940  146.7690 O   0  0  0  0  0  0  0  0  0  0  0  0
  187.4320  177.6630  145.6970 C   0  0  0  0  0  0  0  0  0  0  0  0
  188.8180  177.4080  145.6900 C   0  0  2  0  0  3  0  0  0  0  0  0
  190.8550  176.7620  146.7990 N   0  0  0  0  0  0  0  0  0  0  0  0
  187.5180  178.0810  143.3020 C   0  0  0  0  0  0  0  0  0  0  0  0
  186.7800  177.9900  144.5050 C   0  0  0  0  0  0  0  0  0  0  0  0
  185.3950  178.2260  144.4960 C   0  0  0  0  0  3  0  0  0  0  0  0
  189.5280  177.5060  144.4620 C   0  0  0  0  0  0  0  0  0  0  0  0
  189.5270  177.0370  146.8630 C   0  0  0  0  0  0  0  0  0  0  0  0
  184.7350  178.5510  143.3120 C   0  0  0  0  0  0  0  0  0  0  0  0
  191.5470  176.8280  145.6360 C   0  0  0  0  0  3  0  0  0  0  0  0
  188.8780  177.8680  143.2950 N   0  0  0  0  0  0  0  0  0  0  0  0
  188.9480  176.9490  147.9790 O   0  0  0  0  0  0  0  0  0  0  0  0
  182.1780  178.9810  143.3260 N   0  0  0  0  0  0  0  0  0  0  0  0
  183.3190  178.7880  143.3200 C   0  0  0  0  0  0  0  0  0  0  0  0
  189.6150  177.0620  141.0900 C   0  0  0  0  0  3  0  0  0  0  0  0
  189.5660  178.0080  142.0250 C   0  0  0  0  0  3  0  0  0  0  0  0
  189.4570  177.9150  138.8080 C   0  0  0  0  0  0  0  0  0  0  0  0
  189.9940  175.8960  137.9250 C   0  0  0  0  0  3  0  0  0  0  0  0
  190.3400  177.2910  139.8050 C   0  0  2  0  0  3  0  0  0  0  0  0
  188.9550  179.0660  138.9000 O   0  0  0  0  0  0  0  0  0  0  0  0
  189.2670  177.0940  137.7330 O   0  0  0  0  0  0  0  0  0  0  0  0
  190.6990  175.9980  139.2160 N   0  0  0  0  0  0  0  0  0  0  0  0
  1  3  2  0  0  0  0
  1  8  1  0  0  0  0
  2 11  2  0  0  0  0
  2 14  1  0  0  0  0
  3 13  1  0  0  0  0
  5  4  2  0  0  0  0
  6 11  1  6  0  0  0
  6  5  1  0  0  0  0
  6 12  1  0  0  0  0
  7 12  1  0  0  0  0
  8  9  2  0  0  0  0
  9  5  1  0  0  0  0
 10  9  1  0  0  0  0
 12 16  2  0  0  0  0
 13 18  1  0  0  0  0
 13 10  2  0  0  0  0
 14  7  2  0  0  0  0
 15  8  1  0  0  0  0
 15 11  1  0  0  0  0
 18 17  3  0  0  0  0
 19 20  2  0  0  0  0
 20 15  1  0  0  0  0
 21 24  2  0  0  0  0
 21 23  1  0  0  0  0
 22 26  2  0  0  0  0
 23 19  1  1  0  0  0
 25 22  1  0  0  0  0
 25 21  1  0  0  0  0
 26 23  1  0  0  0  0
M  END
>  <MODEL>
2

>  <REMARK>
 VINA RESULT:      -9.5      1.340      4.820
  Name = 
  3 active torsions:
  status: ('A' for Active; 'I' for Inactive)
    1  A    between atoms: C_4  and  C_5
    2  A    between atoms: C_8  and  C_23
    3  A    between atoms: C_11  and  N_25
                            x       y       z     vdW  Elec       q    Type
                         _______ _______ _______ _____ _____    ______ ____

>  <TORSDO>
F 3

$$$$
=
 OpenBabel10232407553D

 26 29  0  0  1  0  0  0  0  0999 V2000
  185.6740  177.7140  142.7850 C   0  0  0  0  0  3  0  0  0  0  0  0
  189.4210  176.8830  145.7560 C   0  0  0  0  0  3  0  0  0  0  0  0
  184.3820  178.1960  142.5730 C   0  0  0  0  0  3  0  0  0  0  0  0
  185.5180  179.1050  147.2980 O   0  0  0  0  0  0  0  0  0  0  0  0
  186.1630  178.5490  146.3650 C   0  0  0  0  0  0  0  0  0  0  0  0
  187.4590  178.0420  146.5860 C   0  0  2  0  0  3  0  0  0  0  0  0
  189.3260  177.5660  148.0310 N   0  0  0  0  0  0  0  0  0  0  0  0
  186.2960  177.8180  144.0480 C   0  0  0  0  0  0  0  0  0  0  0  0
  185.5770  178.4300  145.1020 C   0  0  0  0  0  0  0  0  0  0  0  0
  184.2780  178.9120  144.8750 C   0  0  0  0  0  3  0  0  0  0  0  0
  188.1520  177.4320  145.5050 C   0  0  0  0  0  0  0  0  0  0  0  0
  188.0920  178.1030  147.8560 C   0  0  0  0  0  0  0  0  0  0  0  0
  183.6830  178.7960  143.6190 C   0  0  0  0  0  0  0  0  0  0  0  0
  189.9950  176.9600  147.0200 C   0  0  0  0  0  3  0  0  0  0  0  0
  187.5760  177.3540  144.2490 N   0  0  0  0  0  0  0  0  0  0  0  0
  187.5270  178.6460  148.8440 O   0  0  0  0  0  0  0  0  0  0  0  0
  181.2830  179.6950  143.2310 N   0  0  0  0  0  0  0  0  0  0  0  0
  182.3540  179.2930  143.4040 C   0  0  0  0  0  0  0  0  0  0  0  0
  189.0170  177.4460  142.2570 C   0  0  0  0  0  3  0  0  0  0  0  0
  188.2560  176.7650  143.1100 C   0  0  0  0  0  3  0  0  0  0  0  0
  191.0380  177.3000  140.8960 C   0  0  0  0  0  0  0  0  0  0  0  0
  189.9020  177.8060  139.0000 C   0  0  0  0  0  3  0  0  0  0  0  0
  189.6880  176.7610  141.1120 C   0  0  2  0  0  3  0  0  0  0  0  0
  191.9980  177.2060  141.7060 O   0  0  0  0  0  0  0  0  0  0  0  0
  191.1420  177.9020  139.6740 O   0  0  0  0  0  0  0  0  0  0  0  0
  188.9680  177.0720  139.8740 N   0  0  0  0  0  0  0  0  0  0  0  0
  1  8  1  0  0  0  0
  2 14  1  0  0  0  0
  3  1  2  0  0  0  0
  3 13  1  0  0  0  0
  5  6  1  0  0  0  0
  5  4  2  0  0  0  0
  6 11  1  1  0  0  0
  6 12  1  0  0  0  0
  8 15  1  0  0  0  0
  8  9  2  0  0  0  0
  9  5  1  0  0  0  0
 10  9  1  0  0  0  0
 11  2  2  0  0  0  0
 12  7  1  0  0  0  0
 12 16  2  0  0  0  0
 13 10  2  0  0  0  0
 14  7  2  0  0  0  0
 15 11  1  0  0  0  0
 17 18  3  0  0  0  0
 18 13  1  0  0  0  0
 19 20  2  0  0  0  0
 20 15  1  0  0  0  0
 21 23  1  0  0  0  0
 21 24  2  0  0  0  0
 22 25  1  0  0  0  0
 22 26  2  0  0  0  0
 23 19  1  1  0  0  0
 25 21  1  0  0  0  0
 26 23  1  0  0  0  0
M  END
>  <MODEL>
3

>  <REMARK>
 VINA RESULT:      -9.3      1.933      5.166
  Name = 
  3 active torsions:
  status: ('A' for Active; 'I' for Inactive)
    1  A    between atoms: C_4  and  C_5
    2  A    between atoms: C_8  and  C_23
    3  A    between atoms: C_11  and  N_25
                            x       y       z     vdW  Elec       q    Type
                         _______ _______ _______ _____ _____    ______ ____

>  <TORSDO>
F 3

$$$$
=
 OpenBabel10232407553D

 26 29  0  0  1  0  0  0  0  0999 V2000
  185.3830  177.9530  144.5790 C   0  0  0  0  0  3  0  0  0  0  0  0
  189.6430  177.2330  142.3660 C   0  0  0  0  0  3  0  0  0  0  0  0
  184.0730  178.4340  144.5540 C   0  0  0  0  0  3  0  0  0  0  0  0
  185.9740  179.1630  140.0500 O   0  0  0  0  0  0  0  0  0  0  0  0
  186.4620  178.6660  141.1030 C   0  0  0  0  0  0  0  0  0  0  0  0
  187.7930  178.2020  141.1330 C   0  0  2  0  0  3  0  0  0  0  0  0
  189.9390  177.8650  140.0940 N   0  0  0  0  0  0  0  0  0  0  0  0
  186.2070  178.0190  143.4350 C   0  0  0  0  0  0  0  0  0  0  0  0
  185.6730  178.5850  142.2540 C   0  0  0  0  0  0  0  0  0  0  0  0
  184.3530  179.0640  142.2430 C   0  0  0  0  0  3  0  0  0  0  0  0
  188.2980  177.6410  142.3380 C   0  0  0  0  0  0  0  0  0  0  0  0
  188.6530  178.2900  140.0060 C   0  0  0  0  0  0  0  0  0  0  0  0
  183.5580  178.9900  143.3850 C   0  0  0  0  0  0  0  0  0  0  0  0
  190.4480  177.3480  141.2390 C   0  0  0  0  0  3  0  0  0  0  0  0
  187.4940  177.5310  143.4590 N   0  0  0  0  0  0  0  0  0  0  0  0
  188.2510  178.7650  138.9100 O   0  0  0  0  0  0  0  0  0  0  0  0
  181.1240  179.8830  143.3360 N   0  0  0  0  0  0  0  0  0  0  0  0
  182.2100  179.4850  143.3580 C   0  0  0  0  0  0  0  0  0  0  0  0
  188.5050  177.6290  145.7000 C   0  0  0  0  0  3  0  0  0  0  0  0
  187.9580  176.9410  144.7020 C   0  0  0  0  0  3  0  0  0  0  0  0
  188.9350  177.8730  148.0910 C   0  0  0  0  0  0  0  0  0  0  0  0
  191.1130  177.2880  147.8460 C   0  0  0  0  0  3  0  0  0  0  0  0
  188.9500  176.9440  146.9500 C   0  0  2  0  0  3  0  0  0  0  0  0
  187.9070  178.4120  148.5770 O   0  0  0  0  0  0  0  0  0  0  0  0
  190.1930  178.0610  148.5920 O   0  0  0  0  0  0  0  0  0  0  0  0
  190.3560  176.5560  146.8140 N   0  0  0  0  0  0  0  0  0  0  0  0
  3  1  1  0  0  0  0
  4  5  2  0  0  0  0
  5  6  1  0  0  0  0
  5  9  1  0  0  0  0
  6 12  1  1  0  0  0
  6 11  1  0  0  0  0
  7 14  2  0  0  0  0
  8 15  1  0  0  0  0
  8  1  2  0  0  0  0
  9  8  1  0  0  0  0
 10  9  2  0  0  0  0
 10 13  1  0  0  0  0
 11  2  2  0  0  0  0
 11 15  1  0  0  0  0
 12  7  1  0  0  0  0
 13  3  2  0  0  0  0
 14  2  1  0  0  0  0
 15 20  1  0  0  0  0
 16 12  2  0  0  0  0
 17 18  3  0  0  0  0
 18 13  1  0  0  0  0
 20 19  2  0  0  0  0
 21 24  2  0  0  0  0
 21 25  1  0  0  0  0
 22 25  1  0  0  0  0
 23 19  1  6  0  0  0
 23 21  1  0  0  0  0
 26 23  1  0  0  0  0
 26 22  2  0  0  0  0
M  END
>  <MODEL>
4

>  <REMARK>
 VINA RESULT:      -8.6      1.676      7.151
  Name = 
  3 active torsions:
  status: ('A' for Active; 'I' for Inactive)
    1  A    between atoms: C_4  and  C_5
    2  A    between atoms: C_8  and  C_23
    3  A    between atoms: C_11  and  N_25
                            x       y       z     vdW  Elec       q    Type
                         _______ _______ _______ _____ _____    ______ ____

>  <TORSDO>
F 3

$$$$
=
 OpenBabel10232407553D

 26 29  0  0  1  0  0  0  0  0999 V2000
  188.6190  177.9900  143.8290 C   0  0  0  0  0  3  0  0  0  0  0  0
  185.5330  178.9370  140.2040 C   0  0  0  0  0  3  0  0  0  0  0  0
  188.8580  177.7510  145.1830 C   0  0  0  0  0  3  0  0  0  0  0  0
  183.9680  178.2290  144.6310 O   0  0  0  0  0  0  0  0  0  0  0  0
  184.9230  178.2970  143.8070 C   0  0  0  0  0  0  0  0  0  0  0  0
  184.6820  178.5600  142.4430 C   0  0  2  0  0  3  0  0  0  0  0  0
  183.1970  179.0770  140.6200 N   0  0  0  0  0  0  0  0  0  0  0  0
  187.3080  178.1780  143.3400 C   0  0  0  0  0  0  0  0  0  0  0  0
  186.2330  178.1150  144.2570 C   0  0  0  0  0  0  0  0  0  0  0  0
  186.4880  177.8730  145.6170 C   0  0  0  0  0  3  0  0  0  0  0  0
  185.7860  178.6190  141.5490 C   0  0  0  0  0  0  0  0  0  0  0  0
  183.3760  178.7880  141.9340 C   0  0  0  0  0  0  0  0  0  0  0  0
  187.7910  177.6930  146.0780 C   0  0  0  0  0  0  0  0  0  0  0  0
  184.2370  179.1600  139.7550 C   0  0  0  0  0  3  0  0  0  0  0  0
  187.0750  178.3990  142.0010 N   0  0  0  0  0  0  0  0  0  0  0  0
  182.3620  178.7330  142.6810 O   0  0  0  0  0  0  0  0  0  0  0  0
  188.2310  177.2480  148.5940 N   0  0  0  0  0  0  0  0  0  0  0  0
  188.0350  177.4460  147.4710 C   0  0  0  0  0  0  0  0  0  0  0  0
  188.6180  177.3950  140.3690 C   0  0  0  0  0  3  0  0  0  0  0  0
  188.2290  178.4210  141.1210 C   0  0  0  0  0  3  0  0  0  0  0  0
  189.4420  178.0140  138.1560 C   0  0  0  0  0  0  0  0  0  0  0  0
  190.2340  175.9240  137.7710 C   0  0  0  0  0  3  0  0  0  0  0  0
  189.8150  177.5030  139.4830 C   0  0  2  0  0  3  0  0  0  0  0  0
  188.9820  179.1630  137.9210 O   0  0  0  0  0  0  0  0  0  0  0  0
  189.6880  177.0880  137.1820 O   0  0  0  0  0  0  0  0  0  0  0  0
  190.3460  176.1630  139.2220 N   0  0  0  0  0  0  0  0  0  0  0  0
  1  3  1  0  0  0  0
  2 11  2  0  0  0  0
  3 13  2  0  0  0  0
  5  9  1  0  0  0  0
  5  4  2  0  0  0  0
  6 11  1  1  0  0  0
  6  5  1  0  0  0  0
  7 12  1  0  0  0  0
  8  1  2  0  0  0  0
  8  9  1  0  0  0  0
  9 10  2  0  0  0  0
 10 13  1  0  0  0  0
 11 15  1  0  0  0  0
 12  6  1  0  0  0  0
 12 16  2  0  0  0  0
 13 18  1  0  0  0  0
 14  2  1  0  0  0  0
 14  7  2  0  0  0  0
 15  8  1  0  0  0  0
 18 17  3  0  0  0  0
 19 20  2  0  0  0  0
 20 15  1  0  0  0  0
 21 23  1  0  0  0  0
 22 26  2  0  0  0  0
 23 19  1  1  0  0  0
 24 21  2  0  0  0  0
 25 22  1  0  0  0  0
 25 21  1  0  0  0  0
 26 23  1  0  0  0  0
M  END
>  <MODEL>
5

>  <REMARK>
 VINA RESULT:      -8.6      1.967      2.630
  Name = 
  3 active torsions:
  status: ('A' for Active; 'I' for Inactive)
    1  A    between atoms: C_4  and  C_5
    2  A    between atoms: C_8  and  C_23
    3  A    between atoms: C_11  and  N_25
                            x       y       z     vdW  Elec       q    Type
                         _______ _______ _______ _____ _____    ______ ____

>  <TORSDO>
F 3

$$$$
=
 OpenBabel10232407553D

 26 29  0  0  1  0  0  0  0  0999 V2000
  189.0420  177.7910  141.0910 C   0  0  0  0  0  3  0  0  0  0  0  0
  186.9800  177.7960  145.4850 C   0  0  0  0  0  3  0  0  0  0  0  0
  190.1760  177.6660  140.2870 C   0  0  0  0  0  3  0  0  0  0  0  0
  191.6030  176.8550  144.9490 O   0  0  0  0  0  0  0  0  0  0  0  0
  190.4800  177.1380  144.4460 C   0  0  0  0  0  0  0  0  0  0  0  0
  189.3400  177.2870  145.2620 C   0  0  2  0  0  3  0  0  0  0  0  0
  188.2790  177.3460  147.4230 N   0  0  0  0  0  0  0  0  0  0  0  0
  189.1160  177.6200  142.4900 C   0  0  0  0  0  0  0  0  0  0  0  0
  190.3720  177.3140  143.0640 C   0  0  0  0  0  0  0  0  0  0  0  0
  191.5050  177.1900  142.2430 C   0  0  0  0  0  3  0  0  0  0  0  0
  188.0940  177.5970  144.6520 C   0  0  0  0  0  0  0  0  0  0  0  0
  189.3960  177.1550  146.6750 C   0  0  0  0  0  0  0  0  0  0  0  0
  191.4080  177.3650  140.8640 C   0  0  0  0  0  0  0  0  0  0  0  0
  187.0870  177.6650  146.8640 C   0  0  0  0  0  3  0  0  0  0  0  0
  187.9930  177.7310  143.2780 N   0  0  0  0  0  0  0  0  0  0  0  0
  190.4720  176.8660  147.2650 O   0  0  0  0  0  0  0  0  0  0  0  0
  193.5160  177.1290  139.3730 N   0  0  0  0  0  0  0  0  0  0  0  0
  192.5760  177.2350  140.0380 C   0  0  0  0  0  0  0  0  0  0  0  0
  186.3000  179.2460  142.3330 C   0  0  0  0  0  3  0  0  0  0  0  0
  186.7380  178.0200  142.6090 C   0  0  0  0  0  3  0  0  0  0  0  0
  183.9940  178.4820  142.0900 C   0  0  0  0  0  0  0  0  0  0  0  0
  184.2870  178.0240  139.8880 C   0  0  0  0  0  3  0  0  0  0  0  0
  184.9970  179.4560  141.6340 C   0  0  2  0  0  3  0  0  0  0  0  0
  183.5250  178.4130  143.2560 O   0  0  0  0  0  0  0  0  0  0  0  0
  183.5990  177.6630  141.0700 O   0  0  0  0  0  0  0  0  0  0  0  0
  185.1630  179.1670  140.2070 N   0  0  0  0  0  0  0  0  0  0  0  0
  1  8  1  0  0  0  0
  2 14  1  0  0  0  0
  3 13  1  0  0  0  0
  3  1  2  0  0  0  0
  5  4  2  0  0  0  0
  6  5  1  1  0  0  0
  6 12  1  0  0  0  0
  8  9  2  0  0  0  0
  8 15  1  0  0  0  0
  9  5  1  0  0  0  0
 10  9  1  0  0  0  0
 11  6  1  0  0  0  0
 11  2  2  0  0  0  0
 12 16  2  0  0  0  0
 12  7  1  0  0  0  0
 13 10  2  0  0  0  0
 14  7  2  0  0  0  0
 15 11  1  0  0  0  0
 17 18  3  0  0  0  0
 18 13  1  0  0  0  0
 19 20  2  0  0  0  0
 20 15  1  0  0  0  0
 21 24  2  0  0  0  0
 22 26  2  0  0  0  0
 22 25  1  0  0  0  0
 23 21  1  0  0  0  0
 23 19  1  1  0  0  0
 25 21  1  0  0  0  0
 26 23  1  0  0  0  0
M  END
>  <MODEL>
6

>  <REMARK>
 VINA RESULT:      -8.5      2.549      4.786
  Name = 
  3 active torsions:
  status: ('A' for Active; 'I' for Inactive)
    1  A    between atoms: C_4  and  C_5
    2  A    between atoms: C_8  and  C_23
    3  A    between atoms: C_11  and  N_25
                            x       y       z     vdW  Elec       q    Type
                         _______ _______ _______ _____ _____    ______ ____

>  <TORSDO>
F 3

$$$$
=
 OpenBabel10232407553D

 26 29  0  0  1  0  0  0  0  0999 V2000
  186.4830  177.8940  144.5870 C   0  0  0  0  0  3  0  0  0  0  0  0
  188.7160  177.6360  140.2850 C   0  0  0  0  0  3  0  0  0  0  0  0
  186.5360  177.8620  145.9810 C   0  0  0  0  0  3  0  0  0  0  0  0
  191.1780  177.4200  144.3400 O   0  0  0  0  0  0  0  0  0  0  0  0
  190.0750  177.5350  143.7350 C   0  0  0  0  0  0  0  0  0  0  0  0
  190.0210  177.5440  142.3270 C   0  0  2  0  0  3  0  0  0  0  0  0
  191.0760  177.3760  140.1690 N   0  0  0  0  0  0  0  0  0  0  0  0
  187.6550  177.7850  143.8080 C   0  0  0  0  0  0  0  0  0  0  0  0
  188.8950  177.6450  144.4750 C   0  0  0  0  0  0  0  0  0  0  0  0
  188.9340  177.6150  145.8790 C   0  0  0  0  0  3  0  0  0  0  0  0
  188.7580  177.6840  141.6880 C   0  0  0  0  0  0  0  0  0  0  0  0
  191.1820  177.4000  141.5220 C   0  0  0  0  0  0  0  0  0  0  0  0
  187.7620  177.7230  146.6270 C   0  0  0  0  0  0  0  0  0  0  0  0
  189.8800  177.4850  139.5400 C   0  0  0  0  0  3  0  0  0  0  0  0
  187.6010  177.8310  142.4330 N   0  0  0  0  0  0  0  0  0  0  0  0
  192.3270  177.2870  142.0370 O   0  0  0  0  0  0  0  0  0  0  0  0
  187.8640  177.6640  149.2180 N   0  0  0  0  0  0  0  0  0  0  0  0
  187.8190  177.6900  148.0620 C   0  0  0  0  0  0  0  0  0  0  0  0
  185.8280  179.1630  141.3670 C   0  0  0  0  0  3  0  0  0  0  0  0
  186.2940  178.0040  141.8260 C   0  0  0  0  0  3  0  0  0  0  0  0
  183.5020  178.4330  141.4880 C   0  0  0  0  0  0  0  0  0  0  0  0
  183.5980  177.4980  139.4240 C   0  0  0  0  0  3  0  0  0  0  0  0
  184.4730  179.2540  140.7480 C   0  0  2  0  0  3  0  0  0  0  0  0
  183.1350  178.6340  142.6760 O   0  0  0  0  0  0  0  0  0  0  0  0
  183.0120  177.4240  140.7090 O   0  0  0  0  0  0  0  0  0  0  0  0
  184.5110  178.6560  139.4110 N   0  0  0  0  0  0  0  0  0  0  0  0
  1  3  1  0  0  0  0
  2 11  2  0  0  0  0
  3 13  2  0  0  0  0
  5  4  2  0  0  0  0
  5  9  1  0  0  0  0
  6 12  1  6  0  0  0
  6  5  1  0  0  0  0
  7 12  1  0  0  0  0
  8  9  1  0  0  0  0
  8  1  2  0  0  0  0
  9 10  2  0  0  0  0
 10 13  1  0  0  0  0
 11  6  1  0  0  0  0
 11 15  1  0  0  0  0
 12 16  2  0  0  0  0
 13 18  1  0  0  0  0
 14  7  2  0  0  0  0
 14  2  1  0  0  0  0
 15  8  1  0  0  0  0
 18 17  3  0  0  0  0
 19 20  2  0  0  0  0
 20 15  1  0  0  0  0
 21 24  2  0  0  0  0
 22 25  1  0  0  0  0
 23 19  1  1  0  0  0
 23 21  1  0  0  0  0
 25 21  1  0  0  0  0
 26 22  2  0  0  0  0
 26 23  1  0  0  0  0
M  END
>  <MODEL>
7

>  <REMARK>
 VINA RESULT:      -8.4      2.694      4.907
  Name = 
  3 active torsions:
  status: ('A' for Active; 'I' for Inactive)
    1  A    between atoms: C_4  and  C_5
    2  A    between atoms: C_8  and  C_23
    3  A    between atoms: C_11  and  N_25
                            x       y       z     vdW  Elec       q    Type
                         _______ _______ _______ _____ _____    ______ ____

>  <TORSDO>
F 3

$$$$
=
 OpenBabel10232407553D

 26 29  0  0  1  0  0  0  0  0999 V2000
  186.6680  178.2740  141.0590 C   0  0  0  0  0  3  0  0  0  0  0  0
  188.1270  177.5530  145.6320 C   0  0  0  0  0  3  0  0  0  0  0  0
  185.6640  178.6010  140.1470 C   0  0  0  0  0  3  0  0  0  0  0  0
  183.7050  178.9900  144.6690 O   0  0  0  0  0  0  0  0  0  0  0  0
  184.8580  178.6620  144.2720 C   0  0  0  0  0  0  0  0  0  0  0  0
  185.8650  178.3090  145.1930 C   0  0  2  0  0  3  0  0  0  0  0  0
  186.6240  177.8940  147.4410 N   0  0  0  0  0  0  0  0  0  0  0  0
  186.4250  178.2850  142.4490 C   0  0  0  0  0  0  0  0  0  0  0  0
  185.1330  178.6400  142.9030 C   0  0  0  0  0  0  0  0  0  0  0  0
  184.1320  178.9690  141.9730 C   0  0  0  0  0  3  0  0  0  0  0  0
  187.1510  177.9540  144.7030 C   0  0  0  0  0  0  0  0  0  0  0  0
  185.6340  178.2780  146.5950 C   0  0  0  0  0  0  0  0  0  0  0  0
  184.3940  178.9490  140.6050 C   0  0  0  0  0  0  0  0  0  0  0  0
  187.8500  177.5300  146.9930 C   0  0  0  0  0  3  0  0  0  0  0  0
  187.4220  177.9740  143.3460 N   0  0  0  0  0  0  0  0  0  0  0  0
  184.5160  178.5970  147.0820 O   0  0  0  0  0  0  0  0  0  0  0  0
  182.5260  179.5600  138.9140 N   0  0  0  0  0  0  0  0  0  0  0  0
  183.3600  179.2870  139.6680 C   0  0  0  0  0  0  0  0  0  0  0  0
  189.1900  176.4080  142.6570 C   0  0  0  0  0  3  0  0  0  0  0  0
  188.7270  177.6470  142.8010 C   0  0  0  0  0  3  0  0  0  0  0  0
  191.4830  177.2220  142.4650 C   0  0  0  0  0  0  0  0  0  0  0  0
  191.3330  177.3700  140.2070 C   0  0  0  0  0  3  0  0  0  0  0  0
  190.5440  176.1580  142.0800 C   0  0  2  0  0  3  0  0  0  0  0  0
  191.8670  177.4650  143.6390 O   0  0  0  0  0  0  0  0  0  0  0  0
  191.9240  177.9120  141.3710 O   0  0  0  0  0  0  0  0  0  0  0  0
  190.4710  176.2470  140.6190 N   0  0  0  0  0  0  0  0  0  0  0  0
  1  8  1  0  0  0  0
  2 14  1  0  0  0  0
  3 13  1  0  0  0  0
  3  1  2  0  0  0  0
  5  4  2  0  0  0  0
  6  5  1  6  0  0  0
  6 12  1  0  0  0  0
  8  9  2  0  0  0  0
  8 15  1  0  0  0  0
  9  5  1  0  0  0  0
 10  9  1  0  0  0  0
 11  6  1  0  0  0  0
 11  2  2  0  0  0  0
 12 16  2  0  0  0  0
 12  7  1  0  0  0  0
 13 10  2  0  0  0  0
 14  7  2  0  0  0  0
 15 11  1  0  0  0  0
 17 18  3  0  0  0  0
 18 13  1  0  0  0  0
 19 20  2  0  0  0  0
 20 15  1  0  0  0  0
 21 24  2  0  0  0  0
 22 26  2  0  0  0  0
 22 25  1  0  0  0  0
 23 21  1  0  0  0  0
 23 19  1  1  0  0  0
 25 21  1  0  0  0  0
 26 23  1  0  0  0  0
M  END
>  <MODEL>
8

>  <REMARK>
 VINA RESULT:      -8.4      2.635      5.444
  Name = 
  3 active torsions:
  status: ('A' for Active; 'I' for Inactive)
    1  A    between atoms: C_4  and  C_5
    2  A    between atoms: C_8  and  C_23
    3  A    between atoms: C_11  and  N_25
                            x       y       z     vdW  Elec       q    Type
                         _______ _______ _______ _____ _____    ______ ____

>  <TORSDO>
F 3

$$$$
=
 OpenBabel10232407553D

 26 29  0  0  1  0  0  0  0  0999 V2000
  190.1260  176.6720  142.5340 C   0  0  0  0  0  3  0  0  0  0  0  0
  185.6040  178.0400  143.6440 C   0  0  0  0  0  3  0  0  0  0  0  0
  191.1590  176.5470  141.6030 C   0  0  0  0  0  3  0  0  0  0  0  0
  187.4060  178.8140  139.3200 O   0  0  0  0  0  0  0  0  0  0  0  0
  187.5370  178.3730  140.4960 C   0  0  0  0  0  0  0  0  0  0  0  0
  186.4860  178.4790  141.4280 C   0  0  2  0  0  3  0  0  0  0  0  0
  184.2340  179.0980  142.0150 N   0  0  0  0  0  0  0  0  0  0  0  0
  188.9000  177.2790  142.1890 C   0  0  0  0  0  0  0  0  0  0  0  0
  188.7390  177.7660  140.8710 C   0  0  0  0  0  0  0  0  0  0  0  0
  189.7870  177.6360  139.9440 C   0  0  0  0  0  3  0  0  0  0  0  0
  186.6810  177.9760  142.7440 C   0  0  0  0  0  0  0  0  0  0  0  0
  185.2300  179.0530  141.0950 C   0  0  0  0  0  0  0  0  0  0  0  0
  190.9880  177.0300  140.3070 C   0  0  0  0  0  0  0  0  0  0  0  0
  184.3910  178.6040  143.2670 C   0  0  0  0  0  3  0  0  0  0  0  0
  187.8890  177.4120  143.1140 N   0  0  0  0  0  0  0  0  0  0  0  0
  185.0100  179.5270  139.9470 O   0  0  0  0  0  0  0  0  0  0  0  0
  192.9040  176.8020  138.5750 N   0  0  0  0  0  0  0  0  0  0  0  0
  192.0490  176.9040  139.3480 C   0  0  0  0  0  0  0  0  0  0  0  0
  188.4600  177.6790  145.4930 C   0  0  0  0  0  3  0  0  0  0  0  0
  188.1440  176.9110  144.4520 C   0  0  0  0  0  3  0  0  0  0  0  0
  188.3690  178.0420  147.9040 C   0  0  0  0  0  0  0  0  0  0  0  0
  190.5940  177.6670  148.1320 C   0  0  0  0  0  3  0  0  0  0  0  0
  188.6990  177.0820  146.8400 C   0  0  2  0  0  3  0  0  0  0  0  0
  187.2190  178.4940  148.1460 O   0  0  0  0  0  0  0  0  0  0  0  0
  189.4750  178.3700  148.6370 O   0  0  0  0  0  0  0  0  0  0  0  0
  190.1330  176.8290  147.0090 N   0  0  0  0  0  0  0  0  0  0  0  0
  3  1  2  0  0  0  0
  4  5  2  0  0  0  0
  5  9  1  0  0  0  0
  6  5  1  6  0  0  0
  6 11  1  0  0  0  0
  7 14  2  0  0  0  0
  8  1  1  0  0  0  0
  8 15  1  0  0  0  0
  9  8  2  0  0  0  0
 10 13  2  0  0  0  0
 10  9  1  0  0  0  0
 11 15  1  0  0  0  0
 11  2  2  0  0  0  0
 12  6  1  0  0  0  0
 12  7  1  0  0  0  0
 13  3  1  0  0  0  0
 14  2  1  0  0  0  0
 15 20  1  0  0  0  0
 16 12  2  0  0  0  0
 17 18  3  0  0  0  0
 18 13  1  0  0  0  0
 20 19  2  0  0  0  0
 21 24  2  0  0  0  0
 21 25  1  0  0  0  0
 22 25  1  0  0  0  0
 23 19  1  6  0  0  0
 23 26  1  0  0  0  0
 23 21  1  0  0  0  0
 26 22  2  0  0  0  0
M  END
>  <MODEL>
9

>  <REMARK>
 VINA RESULT:      -8.4      1.755      6.046
  Name = 
  3 active torsions:
  status: ('A' for Active; 'I' for Inactive)
    1  A    between atoms: C_4  and  C_5
    2  A    between atoms: C_8  and  C_23
    3  A    between atoms: C_11  and  N_25
                            x       y       z     vdW  Elec       q    Type
                         _______ _______ _______ _____ _____    ______ ____

>  <TORSDO>
F 3

$$$$
