=
 OpenBabel10232407553D

 26 30  0  0  1  0  0  0  0  0999 V2000
  184.9690  178.7300  141.4050 C   0  0  0  0  0  0  0  0  0  0  0  0
  186.9130  177.5410  144.5910 C   0  0  0  0  0  0  0  0  0  0  0  0
  188.0700  178.4760  141.1620 C   0  0  1  0  0  3  0  0  0  0  0  0
  189.2290  176.8830  145.0890 C   0  0  0  0  0  3  0  0  0  0  0  0
  183.7510  179.2200  142.1140 C   0  0  0  0  0  2  0  0  0  0  0  0
  187.8880  177.8850  146.8120 C   0  0  0  0  0  3  0  0  0  0  0  0
  187.5870  178.1670  139.7700 C   0  0  0  0  0  0  0  0  0  0  0  0
  186.3240  178.4020  139.3270 C   0  0  0  0  0  3  0  0  0  0  0  0
  188.1720  176.9710  144.1800 C   0  0  0  0  0  0  0  0  0  0  0  0
  187.2480  178.8320  142.0810 N   0  0  0  0  0  2  0  0  0  0  0  0
  185.1220  178.8620  140.0850 C   0  0  0  0  0  3  0  0  0  0  0  0
  189.0910  177.3350  146.3940 C   0  0  0  0  0  0  0  0  0  0  0  0
  186.0340  178.0670  142.1670 C   0  0  1  0  0  3  0  0  0  0  0  0
  184.8190  180.2510  144.0240 O   0  0  0  0  0  1  0  0  0  0  0  0
  189.5110  177.6350  141.8200 S   0  0  0  0  0  0  0  0  0  0  0  0
  186.7980  177.9950  145.9390 C   0  0  0  0  0  0  0  0  0  0  0  0
  183.9740  179.2060  143.6330 C   0  0  2  0  0  3  0  0  0  0  0  0
  184.4400  177.9520  144.1090 O   0  0  0  0  0  0  0  0  0  0  0  0
  185.7320  177.6360  143.6020 C   0  0  2  0  0  3  0  0  0  0  0  0
  190.4340  177.2120  147.5100 Cl  0  0  0  0  0  0  0  0  0  0  0  0
  188.4710  176.4510  142.7900 C   0  0  0  0  0  2  0  0  0  0  0  0
  188.6860  178.4980  137.5810 C   0  0  0  0  0  2  0  0  0  0  0  0
  189.6380  178.5220  138.6120 O   0  0  0  0  0  0  0  0  0  0  0  0
  188.5680  177.6180  138.7710 C   0  0  1  0  0  3  0  0  0  0  0  0
  185.5840  179.5410  147.2960 O   0  0  0  0  0  0  0  0  0  0  0  0
  185.5620  178.5840  146.4750 C   0  0  0  0  0  3  0  0  0  0  0  0
  1  5  1  0  0  0  0
  2 16  1  0  0  0  0
  3  7  1  6  0  0  0
  3 15  1  0  0  0  0
  3 10  1  0  0  0  0
  4 12  2  0  0  0  0
  5 17  1  0  0  0  0
  8  7  2  0  0  0  0
  8 11  1  0  0  0  0
  9  2  2  0  0  0  0
  9  4  1  0  0  0  0
 10 13  1  0  0  0  0
 11  1  2  0  0  0  0
 12  6  1  0  0  0  0
 12 20  1  0  0  0  0
 13  1  1  1  0  0  0
 13 19  1  0  0  0  0
 15 21  1  0  0  0  0
 16 26  1  0  0  0  0
 16  6  2  0  0  0  0
 17 14  1  6  0  0  0
 17 18  1  0  0  0  0
 19 18  1  1  0  0  0
 19  2  1  0  0  0  0
 21  9  1  0  0  0  0
 22 23  1  0  0  0  0
 22 24  1  0  0  0  0
 23 24  1  0  0  0  0
 24  7  1  1  0  0  0
 26 25  2  0  0  0  0
M  END
>  <MODEL>
1

>  <REMARK>
 VINA RESULT:      -9.0      0.000      0.000
  Name = 
  2 active torsions:
  status: ('A' for Active; 'I' for Inactive)
    1  A    between atoms: C_9  and  C_17
    2  A    between atoms: C_19  and  C_23
                            x       y       z     vdW  Elec       q    Type
                         _______ _______ _______ _____ _____    ______ ____

>  <TORSDO>
F 2

$$$$
=
 OpenBabel10232407553D

 26 30  0  0  1  0  0  0  0  0999 V2000
  186.9290  178.2800  140.7100 C   0  0  0  0  0  0  0  0  0  0  0  0
  186.9300  177.7430  144.5910 C   0  0  0  0  0  0  0  0  0  0  0  0
  189.7090  178.0280  142.1070 C   0  0  1  0  0  3  0  0  0  0  0  0
  188.6290  177.2240  146.2900 C   0  0  0  0  0  3  0  0  0  0  0  0
  185.5650  178.8790  140.6150 C   0  0  0  0  0  2  0  0  0  0  0  0
  186.6990  178.5150  146.9040 C   0  0  0  0  0  3  0  0  0  0  0  0
  189.9560  177.4540  140.7370 C   0  0  0  0  0  0  0  0  0  0  0  0
  189.1040  177.5830  139.6870 C   0  0  0  0  0  3  0  0  0  0  0  0
  188.1740  177.1230  144.9730 C   0  0  0  0  0  0  0  0  0  0  0  0
  188.5710  178.5400  142.4120 N   0  0  0  0  0  2  0  0  0  0  0  0
  187.7270  178.1620  139.6460 C   0  0  0  0  0  3  0  0  0  0  0  0
  187.9010  177.9130  147.2490 C   0  0  0  0  0  0  0  0  0  0  0  0
  187.4160  177.7880  142.0060 C   0  0  1  0  0  3  0  0  0  0  0  0
  185.6270  180.2670  142.5960 O   0  0  0  0  0  1  0  0  0  0  0  0
  190.5580  177.3480  143.5340 S   0  0  0  0  0  0  0  0  0  0  0  0
  186.2000  178.4430  145.5980 C   0  0  0  0  0  0  0  0  0  0  0  0
  185.0040  179.1550  142.0170 C   0  0  2  0  0  3  0  0  0  0  0  0
  185.0660  178.0210  142.8690 O   0  0  0  0  0  0  0  0  0  0  0  0
  186.4080  177.6330  143.1430 C   0  0  2  0  0  3  0  0  0  0  0  0
  188.4970  178.0220  148.8910 Cl  0  0  0  0  0  0  0  0  0  0  0  0
  189.0780  176.3540  144.0340 C   0  0  0  0  0  2  0  0  0  0  0  0
  191.9010  177.2200  139.2320 C   0  0  0  0  0  2  0  0  0  0  0  0
  192.3160  177.6660  140.4960 O   0  0  0  0  0  0  0  0  0  0  0  0
  191.2540  176.7400  140.4780 C   0  0  1  0  0  3  0  0  0  0  0  0
  183.8810  178.8490  146.0060 O   0  0  0  0  0  0  0  0  0  0  0  0
  184.9150  179.1050  145.3300 C   0  0  0  0  0  3  0  0  0  0  0  0
  2  9  2  0  0  0  0
  2 16  1  0  0  0  0
  3  7  1  6  0  0  0
  3 10  1  0  0  0  0
  3 15  1  0  0  0  0
  4 12  2  0  0  0  0
  5  1  1  0  0  0  0
  5 17  1  0  0  0  0
  6 12  1  0  0  0  0
  8  7  2  0  0  0  0
  9  4  1  0  0  0  0
 11  8  1  0  0  0  0
 11  1  2  0  0  0  0
 12 20  1  0  0  0  0
 13  1  1  6  0  0  0
 13 10  1  0  0  0  0
 13 19  1  0  0  0  0
 15 21  1  0  0  0  0
 16  6  2  0  0  0  0
 17 14  1  1  0  0  0
 17 18  1  0  0  0  0
 19 18  1  6  0  0  0
 19  2  1  0  0  0  0
 21  9  1  0  0  0  0
 22 24  1  0  0  0  0
 22 23  1  0  0  0  0
 24 23  1  0  0  0  0
 24  7  1  6  0  0  0
 26 16  1  0  0  0  0
 26 25  2  0  0  0  0
M  END
>  <MODEL>
2

>  <REMARK>
 VINA RESULT:      -9.0      1.711      2.094
  Name = 
  2 active torsions:
  status: ('A' for Active; 'I' for Inactive)
    1  A    between atoms: C_9  and  C_17
    2  A    between atoms: C_19  and  C_23
                            x       y       z     vdW  Elec       q    Type
                         _______ _______ _______ _____ _____    ______ ____

>  <TORSDO>
F 2

$$$$
=
 OpenBabel10232407553D

 26 30  0  0  1  0  0  0  0  0999 V2000
  185.4300  178.5950  144.0040 C   0  0  0  0  0  0  0  0  0  0  0  0
  187.7650  178.2870  140.8730 C   0  0  0  0  0  0  0  0  0  0  0  0
  187.9440  176.7660  144.2830 C   0  0  1  0  0  3  0  0  0  0  0  0
  189.9640  177.2880  140.4170 C   0  0  0  0  0  3  0  0  0  0  0  0
  184.2050  179.0270  143.2680 C   0  0  0  0  0  2  0  0  0  0  0  0
  188.3410  177.4280  138.6520 C   0  0  0  0  0  3  0  0  0  0  0  0
  187.7400  177.2910  145.6790 C   0  0  0  0  0  0  0  0  0  0  0  0
  186.6160  177.9270  146.1030 C   0  0  0  0  0  3  0  0  0  0  0  0
  189.0800  177.8930  141.3130 C   0  0  0  0  0  0  0  0  0  0  0  0
  187.1120  177.0460  143.3460 N   0  0  0  0  0  2  0  0  0  0  0  0
  185.4250  178.3730  145.3210 C   0  0  0  0  0  3  0  0  0  0  0  0
  189.6010  177.0560  139.0980 C   0  0  0  0  0  0  0  0  0  0  0  0
  186.6900  178.4180  143.2710 C   0  0  1  0  0  3  0  0  0  0  0  0
  184.3980  177.5820  141.3380 O   0  0  0  0  0  1  0  0  0  0  0  0
  189.6020  176.4780  143.6640 S   0  0  0  0  0  0  0  0  0  0  0  0
  187.4180  178.0390  139.5110 C   0  0  0  0  0  0  0  0  0  0  0  0
  184.4240  178.9180  141.7530 C   0  0  2  0  0  3  0  0  0  0  0  0
  185.6060  179.5750  141.3190 O   0  0  0  0  0  0  0  0  0  0  0  0
  186.7790  178.9660  141.8470 C   0  0  2  0  0  3  0  0  0  0  0  0
  190.7300  176.2950  137.9980 Cl  0  0  0  0  0  0  0  0  0  0  0  0
  189.6070  178.0700  142.7200 C   0  0  0  0  0  2  0  0  0  0  0  0
  188.8590  178.1400  147.7120 C   0  0  0  0  0  2  0  0  0  0  0  0
  188.2320  176.9140  147.9790 O   0  0  0  0  0  0  0  0  0  0  0  0
  188.8150  177.0530  146.7030 C   0  0  1  0  0  3  0  0  0  0  0  0
  185.9870  178.7880  137.7510 O   0  0  0  0  0  0  0  0  0  0  0  0
  186.1110  178.4050  138.9460 C   0  0  0  0  0  3  0  0  0  0  0  0
  1 11  2  0  0  0  0
  2  9  1  0  0  0  0
  3 10  1  6  0  0  0
  3  7  1  0  0  0  0
  4  9  2  0  0  0  0
  5  1  1  0  0  0  0
  6 12  2  0  0  0  0
  6 16  1  0  0  0  0
  7  8  2  0  0  0  0
  9 21  1  0  0  0  0
 11  8  1  0  0  0  0
 12  4  1  0  0  0  0
 13 10  1  6  0  0  0
 13  1  1  0  0  0  0
 15  3  1  0  0  0  0
 16  2  2  0  0  0  0
 17 14  1  1  0  0  0
 17  5  1  0  0  0  0
 18 17  1  0  0  0  0
 18 19  1  0  0  0  0
 19  2  1  6  0  0  0
 19 13  1  0  0  0  0
 20 12  1  0  0  0  0
 21 15  1  0  0  0  0
 22 23  1  0  0  0  0
 24  7  1  6  0  0  0
 24 22  1  0  0  0  0
 24 23  1  0  0  0  0
 25 26  2  0  0  0  0
 26 16  1  0  0  0  0
M  END
>  <MODEL>
3

>  <REMARK>
 VINA RESULT:      -8.8      2.541      5.853
  Name = 
  2 active torsions:
  status: ('A' for Active; 'I' for Inactive)
    1  A    between atoms: C_9  and  C_17
    2  A    between atoms: C_19  and  C_23
                            x       y       z     vdW  Elec       q    Type
                         _______ _______ _______ _____ _____    ______ ____

>  <TORSDO>
F 2

$$$$
=
 OpenBabel10232407553D

 26 30  0  0  1  0  0  0  0  0999 V2000
  190.5650  177.0640  142.8870 C   0  0  0  0  0  0  0  0  0  0  0  0
  186.7100  177.6840  143.2010 C   0  0  0  0  0  0  0  0  0  0  0  0
  189.4810  177.8590  145.7040 C   0  0  1  0  0  3  0  0  0  0  0  0
  185.1410  178.0740  145.0520 C   0  0  0  0  0  3  0  0  0  0  0  0
  190.6610  177.2860  141.4150 C   0  0  0  0  0  2  0  0  0  0  0  0
  184.6790  179.0190  142.8930 C   0  0  0  0  0  3  0  0  0  0  0  0
  190.6650  176.9850  146.0220 C   0  0  0  0  0  0  0  0  0  0  0  0
  191.6070  176.6100  145.1170 C   0  0  0  0  0  3  0  0  0  0  0  0
  186.3210  177.4990  144.5770 C   0  0  0  0  0  0  0  0  0  0  0  0
  189.1960  178.1670  144.4900 N   0  0  0  0  0  2  0  0  0  0  0  0
  191.6430  176.8260  143.6400 C   0  0  0  0  0  3  0  0  0  0  0  0
  184.3250  178.8280  144.2210 C   0  0  0  0  0  0  0  0  0  0  0  0
  189.2500  177.0900  143.5410 C   0  0  1  0  0  3  0  0  0  0  0  0
  189.1470  179.1640  141.2210 O   0  0  0  0  0  1  0  0  0  0  0  0
  188.0310  177.8290  146.7600 S   0  0  0  0  0  0  0  0  0  0  0  0
  185.8520  178.4620  142.3670 C   0  0  0  0  0  0  0  0  0  0  0  0
  189.3310  177.8220  140.8670 C   0  0  2  0  0  3  0  0  0  0  0  0
  188.2180  177.0260  141.2480 O   0  0  0  0  0  0  0  0  0  0  0  0
  188.0050  177.0460  142.6560 C   0  0  2  0  0  3  0  0  0  0  0  0
  182.8530  179.5380  144.8460 Cl  0  0  0  0  0  0  0  0  0  0  0  0
  187.1160  176.7150  145.5990 C   0  0  0  0  0  2  0  0  0  0  0  0
  191.9800  175.5600  147.5530 C   0  0  0  0  0  2  0  0  0  0  0  0
  192.1570  176.9130  147.8770 O   0  0  0  0  0  0  0  0  0  0  0  0
  190.8700  176.5380  147.4430 C   0  0  1  0  0  3  0  0  0  0  0  0
  185.4580  179.5240  140.2640 O   0  0  0  0  0  0  0  0  0  0  0  0
  186.1390  178.7110  140.9470 C   0  0  0  0  0  3  0  0  0  0  0  0
  1 11  2  0  0  0  0
  2  9  1  0  0  0  0
  3 10  1  6  0  0  0
  3  7  1  0  0  0  0
  3 15  1  0  0  0  0
  5  1  1  0  0  0  0
  6 12  2  0  0  0  0
  8  7  2  0  0  0  0
  9  4  2  0  0  0  0
  9 21  1  0  0  0  0
 11  8  1  0  0  0  0
 12 20  1  0  0  0  0
 12  4  1  0  0  0  0
 13  1  1  6  0  0  0
 13 10  1  0  0  0  0
 16  6  1  0  0  0  0
 16  2  2  0  0  0  0
 17 14  1  1  0  0  0
 17 18  1  0  0  0  0
 17  5  1  0  0  0  0
 19 18  1  6  0  0  0
 19  2  1  0  0  0  0
 19 13  1  0  0  0  0
 21 15  1  0  0  0  0
 22 23  1  0  0  0  0
 24  7  1  6  0  0  0
 24 22  1  0  0  0  0
 24 23  1  0  0  0  0
 25 26  2  0  0  0  0
 26 16  1  0  0  0  0
M  END
>  <MODEL>
4

>  <REMARK>
 VINA RESULT:      -8.7      3.110      6.142
  Name = 
  2 active torsions:
  status: ('A' for Active; 'I' for Inactive)
    1  A    between atoms: C_9  and  C_17
    2  A    between atoms: C_19  and  C_23
                            x       y       z     vdW  Elec       q    Type
                         _______ _______ _______ _____ _____    ______ ____

>  <TORSDO>
F 2

$$$$
=
 OpenBabel10232407553D

 26 30  0  0  1  0  0  0  0  0999 V2000
  186.1780  178.3460  144.4000 C   0  0  0  0  0  0  0  0  0  0  0  0
  187.1230  178.4910  140.6010 C   0  0  0  0  0  0  0  0  0  0  0  0
  188.5500  176.5480  143.4580 C   0  0  1  0  0  3  0  0  0  0  0  0
  188.9480  177.6040  139.2120 C   0  0  0  0  0  3  0  0  0  0  0  0
  184.7800  178.8440  144.2530 C   0  0  0  0  0  2  0  0  0  0  0  0
  186.7760  177.9370  138.2400 C   0  0  0  0  0  3  0  0  0  0  0  0
  188.9140  176.8850  144.8800 C   0  0  0  0  0  0  0  0  0  0  0  0
  188.0590  177.4380  145.7800 C   0  0  0  0  0  3  0  0  0  0  0  0
  188.4940  178.0710  140.4480 C   0  0  0  0  0  0  0  0  0  0  0  0
  187.4310  176.9290  142.9560 N   0  0  0  0  0  2  0  0  0  0  0  0
  186.6720  177.9560  145.5780 C   0  0  0  0  0  3  0  0  0  0  0  0
  188.0990  177.5370  138.1160 C   0  0  0  0  0  0  0  0  0  0  0  0
  187.0560  178.2900  143.2240 C   0  0  1  0  0  3  0  0  0  0  0  0
  184.1720  177.6630  142.2310 O   0  0  0  0  0  1  0  0  0  0  0  0
  189.8340  176.3750  142.2180 S   0  0  0  0  0  0  0  0  0  0  0  0
  186.2740  178.4130  139.4570 C   0  0  0  0  0  0  0  0  0  0  0  0
  184.3970  178.9350  142.7700 C   0  0  2  0  0  3  0  0  0  0  0  0
  185.3420  179.6670  142.0020 O   0  0  0  0  0  0  0  0  0  0  0  0
  186.6090  179.0180  141.9570 C   0  0  2  0  0  3  0  0  0  0  0  0
  188.6960  176.9460  136.5800 Cl  0  0  0  0  0  0  0  0  0  0  0  0
  189.5260  178.0760  141.5550 C   0  0  0  0  0  2  0  0  0  0  0  0
  191.2000  177.7110  145.3210 C   0  0  0  0  0  2  0  0  0  0  0  0
  190.5910  177.3030  146.5180 O   0  0  0  0  0  0  0  0  0  0  0  0
  190.2910  176.5380  145.3720 C   0  0  1  0  0  3  0  0  0  0  0  0
  184.4820  179.9360  139.0360 O   0  0  0  0  0  0  0  0  0  0  0  0
  184.8610  178.8220  139.4900 C   0  0  0  0  0  3  0  0  0  0  0  0
  1 11  2  0  0  0  0
  3 15  1  6  0  0  0
  3  7  1  0  0  0  0
  4  9  2  0  0  0  0
  5  1  1  0  0  0  0
  6 16  1  0  0  0  0
  7  8  2  0  0  0  0
  9  2  1  0  0  0  0
  9 21  1  0  0  0  0
 10  3  1  0  0  0  0
 11  8  1  0  0  0  0
 12  6  2  0  0  0  0
 12  4  1  0  0  0  0
 13 10  1  6  0  0  0
 13  1  1  0  0  0  0
 16 26  1  0  0  0  0
 16  2  2  0  0  0  0
 17 14  1  6  0  0  0
 17  5  1  0  0  0  0
 18 17  1  0  0  0  0
 19  2  1  6  0  0  0
 19 18  1  0  0  0  0
 19 13  1  0  0  0  0
 20 12  1  0  0  0  0
 21 15  1  0  0  0  0
 22 24  1  0  0  0  0
 22 23  1  0  0  0  0
 24  7  1  6  0  0  0
 24 23  1  0  0  0  0
 25 26  2  0  0  0  0
M  END
>  <MODEL>
5

>  <REMARK>
 VINA RESULT:      -8.7      2.877      5.710
  Name = 
  2 active torsions:
  status: ('A' for Active; 'I' for Inactive)
    1  A    between atoms: C_9  and  C_17
    2  A    between atoms: C_19  and  C_23
                            x       y       z     vdW  Elec       q    Type
                         _______ _______ _______ _____ _____    ______ ____

>  <TORSDO>
F 2

$$$$
=
 OpenBabel10232407553D

 26 30  0  0  1  0  0  0  0  0999 V2000
  184.0330  178.4470  144.3910 C   0  0  0  0  0  0  0  0  0  0  0  0
  187.8380  177.6140  144.8050 C   0  0  0  0  0  0  0  0  0  0  0  0
  185.9060  179.1400  141.9920 C   0  0  1  0  0  3  0  0  0  0  0  0
  189.8070  177.6280  143.3330 C   0  0  0  0  0  3  0  0  0  0  0  0
  183.7030  178.4940  145.8450 C   0  0  0  0  0  2  0  0  0  0  0  0
  190.0850  178.0390  145.6830 C   0  0  0  0  0  3  0  0  0  0  0  0
  184.5930  178.8240  141.3260 C   0  0  0  0  0  0  0  0  0  0  0  0
  183.4080  178.7130  141.9820 C   0  0  0  0  0  3  0  0  0  0  0  0
  188.4280  177.4790  143.4960 C   0  0  0  0  0  0  0  0  0  0  0  0
  186.0090  179.1580  143.2720 N   0  0  0  0  0  2  0  0  0  0  0  0
  183.1290  178.7310  143.4490 C   0  0  0  0  0  3  0  0  0  0  0  0
  190.6310  177.9050  144.4150 C   0  0  0  0  0  0  0  0  0  0  0  0
  185.3850  178.0640  143.9660 C   0  0  1  0  0  3  0  0  0  0  0  0
  185.6870  179.6250  146.6430 O   0  0  0  0  0  1  0  0  0  0  0  0
  187.4500  178.7090  141.1870 S   0  0  0  0  0  0  0  0  0  0  0  0
  188.7080  177.8970  145.9000 C   0  0  0  0  0  0  0  0  0  0  0  0
  184.9840  178.4160  146.6870 C   0  0  2  0  0  3  0  0  0  0  0  0
  185.8120  177.3190  146.3290 O   0  0  0  0  0  0  0  0  0  0  0  0
  186.3180  177.4420  145.0040 C   0  0  2  0  0  3  0  0  0  0  0  0
  192.3550  178.0880  144.1790 Cl  0  0  0  0  0  0  0  0  0  0  0  0
  187.6550  177.1910  142.2270 C   0  0  0  0  0  2  0  0  0  0  0  0
  183.5080  179.5270  139.2200 C   0  0  0  0  0  2  0  0  0  0  0  0
  184.8570  179.9140  139.2250 O   0  0  0  0  0  0  0  0  0  0  0  0
  184.5610  178.6760  139.8300 C   0  0  1  0  0  3  0  0  0  0  0  0
  188.9920  178.3860  148.2200 O   0  0  0  0  0  0  0  0  0  0  0  0
  188.2240  178.0470  147.2800 C   0  0  0  0  0  3  0  0  0  0  0  0
  1  5  1  0  0  0  0
  2 16  1  0  0  0  0
  3 15  1  6  0  0  0
  3 10  1  0  0  0  0
  4  9  1  0  0  0  0
  4 12  2  0  0  0  0
  5 17  1  0  0  0  0
  6 16  2  0  0  0  0
  7  8  2  0  0  0  0
  7  3  1  0  0  0  0
  8 11  1  0  0  0  0
  9  2  2  0  0  0  0
 11  1  2  0  0  0  0
 12  6  1  0  0  0  0
 13 10  1  1  0  0  0
 13  1  1  0  0  0  0
 13 19  1  0  0  0  0
 15 21  1  0  0  0  0
 16 26  1  0  0  0  0
 17 14  1  6  0  0  0
 18 17  1  0  0  0  0
 19  2  1  1  0  0  0
 19 18  1  0  0  0  0
 20 12  1  0  0  0  0
 21  9  1  0  0  0  0
 22 23  1  0  0  0  0
 22 24  1  0  0  0  0
 23 24  1  0  0  0  0
 24  7  1  1  0  0  0
 26 25  2  0  0  0  0
M  END
>  <MODEL>
6

>  <REMARK>
 VINA RESULT:      -8.6      2.192      3.095
  Name = 
  2 active torsions:
  status: ('A' for Active; 'I' for Inactive)
    1  A    between atoms: C_9  and  C_17
    2  A    between atoms: C_19  and  C_23
                            x       y       z     vdW  Elec       q    Type
                         _______ _______ _______ _____ _____    ______ ____

>  <TORSDO>
F 2

$$$$
=
 OpenBabel10232407553D

 26 30  0  0  1  0  0  0  0  0999 V2000
  187.4240  178.0410  146.4700 C   0  0  0  0  0  0  0  0  0  0  0  0
  185.2800  178.8430  143.2910 C   0  0  0  0  0  0  0  0  0  0  0  0
  188.3600  176.7810  143.7710 C   0  0  1  0  0  3  0  0  0  0  0  0
  185.5090  178.4500  140.8750 C   0  0  0  0  0  3  0  0  0  0  0  0
  186.3610  178.3280  147.4770 C   0  0  0  0  0  2  0  0  0  0  0  0
  183.3170  178.5660  141.8510 C   0  0  0  0  0  3  0  0  0  0  0  0
  189.6480  176.9760  144.5280 C   0  0  0  0  0  0  0  0  0  0  0  0
  189.7220  177.2610  145.8550 C   0  0  0  0  0  3  0  0  0  0  0  0
  186.1030  178.6680  142.1200 C   0  0  0  0  0  0  0  0  0  0  0  0
  187.2280  177.0460  144.3170 N   0  0  0  0  0  2  0  0  0  0  0  0
  188.6270  177.5780  146.8200 C   0  0  0  0  0  3  0  0  0  0  0  0
  184.1300  178.3990  140.7380 C   0  0  0  0  0  0  0  0  0  0  0  0
  187.1590  178.2830  145.0460 C   0  0  1  0  0  3  0  0  0  0  0  0
  184.4750  177.3500  146.3190 O   0  0  0  0  0  1  0  0  0  0  0  0
  188.3260  176.9810  141.9890 S   0  0  0  0  0  0  0  0  0  0  0  0
  183.8640  178.7890  143.1210 C   0  0  0  0  0  0  0  0  0  0  0  0
  185.0130  178.5570  146.7800 C   0  0  2  0  0  3  0  0  0  0  0  0
  185.0860  179.5250  145.7430 O   0  0  0  0  0  0  0  0  0  0  0  0
  185.9200  179.0960  144.6720 C   0  0  2  0  0  3  0  0  0  0  0  0
  183.4140  178.1220  139.1650 Cl  0  0  0  0  0  0  0  0  0  0  0  0
  187.6160  178.6860  142.1200 C   0  0  0  0  0  2  0  0  0  0  0  0
  191.5090  178.0820  143.3380 C   0  0  0  0  0  2  0  0  0  0  0  0
  191.9820  177.4440  144.4950 O   0  0  0  0  0  0  0  0  0  0  0  0
  190.9480  176.7870  143.7980 C   0  0  1  0  0  3  0  0  0  0  0  0
  181.6840  178.7880  144.0960 O   0  0  0  0  0  0  0  0  0  0  0  0
  182.9240  178.9620  144.2380 C   0  0  0  0  0  3  0  0  0  0  0  0
  1 11  2  0  0  0  0
  1  5  1  0  0  0  0
  3 15  1  6  0  0  0
  3 10  1  0  0  0  0
  3  7  1  0  0  0  0
  4  9  1  0  0  0  0
  6 16  2  0  0  0  0
  7  8  2  0  0  0  0
  8 11  1  0  0  0  0
  9 21  1  0  0  0  0
  9  2  2  0  0  0  0
 12  4  2  0  0  0  0
 12  6  1  0  0  0  0
 13 10  1  6  0  0  0
 13  1  1  0  0  0  0
 15 21  1  0  0  0  0
 16  2  1  0  0  0  0
 16 26  1  0  0  0  0
 17 14  1  6  0  0  0
 17  5  1  0  0  0  0
 18 17  1  0  0  0  0
 19  2  1  6  0  0  0
 19 13  1  0  0  0  0
 19 18  1  0  0  0  0
 20 12  1  0  0  0  0
 22 24  1  0  0  0  0
 22 23  1  0  0  0  0
 24 23  1  0  0  0  0
 24  7  1  1  0  0  0
 25 26  2  0  0  0  0
M  END
>  <MODEL>
7

>  <REMARK>
 VINA RESULT:      -8.0      3.012      5.283
  Name = 
  2 active torsions:
  status: ('A' for Active; 'I' for Inactive)
    1  A    between atoms: C_9  and  C_17
    2  A    between atoms: C_19  and  C_23
                            x       y       z     vdW  Elec       q    Type
                         _______ _______ _______ _____ _____    ______ ____

>  <TORSDO>
F 2

$$$$
=
 OpenBabel10232407553D

 26 30  0  0  1  0  0  0  0  0999 V2000
  190.9470  176.5660  144.7430 C   0  0  0  0  0  0  0  0  0  0  0  0
  188.0720  177.2620  142.1740 C   0  0  0  0  0  0  0  0  0  0  0  0
  188.4480  178.1120  145.7950 C   0  0  1  0  0  3  0  0  0  0  0  0
  185.7840  178.1540  142.3010 C   0  0  0  0  0  3  0  0  0  0  0  0
  192.0360  176.3730  143.7400 C   0  0  0  0  0  2  0  0  0  0  0  0
  187.0650  178.4670  140.2940 C   0  0  0  0  0  3  0  0  0  0  0  0
  188.9240  177.3560  147.0080 C   0  0  0  0  0  0  0  0  0  0  0  0
  190.1330  176.7420  147.1030 C   0  0  0  0  0  3  0  0  0  0  0  0
  186.8420  177.4650  142.8990 C   0  0  0  0  0  0  0  0  0  0  0  0
  189.1070  178.0740  144.6940 N   0  0  0  0  0  2  0  0  0  0  0  0
  191.1810  176.5420  146.0570 C   0  0  0  0  0  3  0  0  0  0  0  0
  185.8920  178.6520  141.0110 C   0  0  0  0  0  0  0  0  0  0  0  0
  189.5680  176.7760  144.2840 C   0  0  1  0  0  3  0  0  0  0  0  0
  191.4330  178.1290  142.1900 O   0  0  0  0  0  1  0  0  0  0  0  0
  186.6930  178.3790  145.5350 S   0  0  0  0  0  0  0  0  0  0  0  0
  188.1540  177.7820  140.8480 C   0  0  0  0  0  0  0  0  0  0  0  0
  191.5410  176.7410  142.3350 C   0  0  2  0  0  3  0  0  0  0  0  0
  190.3300  176.0860  141.9890 O   0  0  0  0  0  0  0  0  0  0  0  0
  189.2460  176.4950  142.8170 C   0  0  2  0  0  3  0  0  0  0  0  0
  184.5500  179.5120  140.2880 Cl  0  0  0  0  0  0  0  0  0  0  0  0
  186.5870  176.9920  144.3140 C   0  0  0  0  0  2  0  0  0  0  0  0
  188.5240  178.2480  149.2770 C   0  0  0  0  0  2  0  0  0  0  0  0
  187.4590  178.5850  148.4280 O   0  0  0  0  0  0  0  0  0  0  0  0
  188.0430  177.3180  148.2250 C   0  0  1  0  0  3  0  0  0  0  0  0
  189.5930  178.4060  139.0460 O   0  0  0  0  0  0  0  0  0  0  0  0
  189.3520  177.6290  140.0100 C   0  0  0  0  0  3  0  0  0  0  0  0
  1 11  2  0  0  0  0
  2 19  1  0  0  0  0
  2  9  1  0  0  0  0
  3 10  1  6  0  0  0
  3  7  1  0  0  0  0
  4  9  2  0  0  0  0
  5  1  1  0  0  0  0
  6 16  1  0  0  0  0
  6 12  2  0  0  0  0
  7  8  2  0  0  0  0
  9 21  1  0  0  0  0
 11  8  1  0  0  0  0
 12  4  1  0  0  0  0
 13 10  1  6  0  0  0
 13  1  1  0  0  0  0
 15  3  1  0  0  0  0
 16  2  2  0  0  0  0
 17 14  1  1  0  0  0
 17  5  1  0  0  0  0
 18 17  1  0  0  0  0
 19 18  1  6  0  0  0
 19 13  1  0  0  0  0
 20 12  1  0  0  0  0
 21 15  1  0  0  0  0
 23 22  1  0  0  0  0
 24  7  1  6  0  0  0
 24 23  1  0  0  0  0
 24 22  1  0  0  0  0
 25 26  2  0  0  0  0
 26 16  1  0  0  0  0
M  END
>  <MODEL>
8

>  <REMARK>
 VINA RESULT:      -7.9      2.992      7.074
  Name = 
  2 active torsions:
  status: ('A' for Active; 'I' for Inactive)
    1  A    between atoms: C_9  and  C_17
    2  A    between atoms: C_19  and  C_23
                            x       y       z     vdW  Elec       q    Type
                         _______ _______ _______ _____ _____    ______ ____

>  <TORSDO>
F 2

$$$$
=
 OpenBabel10232407553D

 26 30  0  0  1  0  0  0  0  0999 V2000
  186.5540  177.9840  147.0950 C   0  0  0  0  0  0  0  0  0  0  0  0
  189.4240  176.9740  144.6270 C   0  0  0  0  0  0  0  0  0  0  0  0
  186.2220  178.8330  144.1100 C   0  0  1  0  0  3  0  0  0  0  0  0
  189.7530  177.0550  142.1930 C   0  0  0  0  0  3  0  0  0  0  0  0
  187.3610  177.9040  148.3470 C   0  0  0  0  0  2  0  0  0  0  0  0
  191.6550  177.2290  143.6490 C   0  0  0  0  0  3  0  0  0  0  0  0
  184.8040  178.6310  144.5720 C   0  0  0  0  0  0  0  0  0  0  0  0
  184.4320  178.5020  145.8730 C   0  0  0  0  0  3  0  0  0  0  0  0
  188.8930  176.9430  143.2870 C   0  0  0  0  0  0  0  0  0  0  0  0
  187.2050  178.7240  144.9300 N   0  0  0  0  0  2  0  0  0  0  0  0
  185.2810  178.3910  147.0970 C   0  0  0  0  0  3  0  0  0  0  0  0
  191.1220  177.1970  142.3690 C   0  0  0  0  0  0  0  0  0  0  0  0
  187.1590  177.5940  145.8150 C   0  0  1  0  0  3  0  0  0  0  0  0
  189.4190  178.8790  147.5300 O   0  0  0  0  0  1  0  0  0  0  0  0
  186.6860  178.4230  142.4270 S   0  0  0  0  0  0  0  0  0  0  0  0
  190.8350  177.1190  144.7790 C   0  0  0  0  0  0  0  0  0  0  0  0
  188.8450  177.6980  148.0150 C   0  0  2  0  0  3  0  0  0  0  0  0
  189.0650  176.6100  147.1290 O   0  0  0  0  0  0  0  0  0  0  0  0
  188.4890  176.8410  145.8480 C   0  0  2  0  0  3  0  0  0  0  0  0
  192.1750  177.3370  140.9780 Cl  0  0  0  0  0  0  0  0  0  0  0  0
  187.4250  176.8070  142.9440 C   0  0  0  0  0  2  0  0  0  0  0  0
  182.3700  178.7880  144.1760 C   0  0  0  0  0  2  0  0  0  0  0  0
  183.0310  179.8670  143.5700 O   0  0  0  0  0  0  0  0  0  0  0  0
  183.7050  178.6290  143.5460 C   0  0  1  0  0  3  0  0  0  0  0  0
  192.2550  176.2280  146.4810 O   0  0  0  0  0  0  0  0  0  0  0  0
  191.4920  177.1540  146.0950 C   0  0  0  0  0  3  0  0  0  0  0  0
  1 11  2  0  0  0  0
  1  5  1  0  0  0  0
  2 16  1  0  0  0  0
  3 15  1  6  0  0  0
  3  7  1  0  0  0  0
  3 10  1  0  0  0  0
  4 12  2  0  0  0  0
  4  9  1  0  0  0  0
  6 16  2  0  0  0  0
  7  8  2  0  0  0  0
  8 11  1  0  0  0  0
  9  2  2  0  0  0  0
 12  6  1  0  0  0  0
 13 10  1  6  0  0  0
 13 19  1  0  0  0  0
 13  1  1  0  0  0  0
 15 21  1  0  0  0  0
 16 26  1  0  0  0  0
 17 14  1  6  0  0  0
 17  5  1  0  0  0  0
 18 17  1  0  0  0  0
 19  2  1  6  0  0  0
 19 18  1  0  0  0  0
 20 12  1  0  0  0  0
 21  9  1  0  0  0  0
 23 22  1  0  0  0  0
 24 23  1  0  0  0  0
 24 22  1  0  0  0  0
 24  7  1  1  0  0  0
 26 25  2  0  0  0  0
M  END
>  <MODEL>
9

>  <REMARK>
 VINA RESULT:      -7.7      3.200      5.573
  Name = 
  2 active torsions:
  status: ('A' for Active; 'I' for Inactive)
    1  A    between atoms: C_9  and  C_17
    2  A    between atoms: C_19  and  C_23
                            x       y       z     vdW  Elec       q    Type
                         _______ _______ _______ _____ _____    ______ ____

>  <TORSDO>
F 2

$$$$
