=
 OpenBabel10232409203D

 30 31  0  0  1  0  0  0  0  0999 V2000
  184.9340  179.2770  144.9960 C   0  0  2  0  0  3  0  0  0  0  0  0
  188.1350  177.4420  144.9770 C   0  0  2  0  0  3  0  0  0  0  0  0
  187.2620  178.3160  147.5010 N   0  0  0  0  0  0  0  0  0  0  0  0
  186.4130  178.2990  146.5160 C   0  0  0  0  0  0  0  0  0  0  0  0
  185.7090  177.9400  143.0180 C   0  0  0  0  0  2  0  0  0  0  0  0
  188.9070  177.1020  146.2300 C   0  0  0  0  0  3  0  0  0  0  0  0
  185.8020  178.2480  144.3120 C   0  0  0  0  0  0  0  0  0  0  0  0
  188.4800  177.5580  147.4170 C   0  0  0  0  0  3  0  0  0  0  0  0
  185.3880  179.2710  146.3790 N   0  0  0  0  0  2  0  0  0  0  0  0
  186.6320  177.4800  145.2910 C   0  0  1  0  0  3  0  0  0  0  0  0
  183.4620  178.8850  144.9500 C   0  0  0  0  0  2  0  0  0  0  0  0
  182.8260  179.5360  143.8930 O   0  0  0  0  0  0  0  0  0  0  0  0
  181.7020  178.7590  143.6260 C   0  0  0  0  0  2  0  0  0  0  0  0
  180.6340  179.6270  142.9990 C   0  0  0  0  0  2  0  0  0  0  0  0
  180.7690  179.6000  141.4910 C   0  0  0  0  0  2  0  0  0  0  0  0
  181.3620  178.3960  141.1080 O   0  0  0  0  0  0  0  0  0  0  0  0
  181.9900  178.6810  139.8920 C   0  0  0  0  0  2  0  0  0  0  0  0
  185.7980  178.8150  139.6520 N   0  0  0  0  0  1  0  0  0  0  0  0
  183.4020  178.3320  139.9770 N   0  0  0  0  0  2  0  0  0  0  0  0
  184.4370  179.2100  139.5310 C   0  0  0  0  0  0  0  0  0  0  0  0
  184.1550  180.3330  139.0340 O   0  0  0  0  0  0  0  0  0  0  0  0
  188.4070  176.4450  143.9570 N   0  0  0  0  0  2  0  0  0  0  0  0
  189.7170  177.0950  141.8010 C   0  0  0  0  0  0  0  0  0  0  0  0
  189.1100  176.7950  142.7970 C   0  0  0  0  0  0  0  0  0  0  0  0
  190.4570  177.4580  140.5890 C   0  0  0  0  0  2  0  0  0  0  0  0
  189.8010  176.8340  139.3690 C   0  0  2  0  0  3  0  0  0  0  0  0
  190.6070  175.8110  138.8600 O   0  0  0  0  0  1  0  0  0  0  0  0
  189.5710  177.8730  138.3220 C   0  0  0  0  0  0  0  0  0  0  0  0
  189.0830  178.9940  138.6280 O   0  0  0  0  0  1  0  0  0  0  0  0
  189.8770  177.5920  136.9980 O   0  0  0  0  0  0  0  0  0  0  0  0
  1 11  1  1  0  0  0
  1  9  1  0  0  0  0
  2 22  1  6  0  0  0
  2 10  1  0  0  0  0
  2  6  1  0  0  0  0
  4  3  2  0  0  0  0
  5  7  2  0  0  0  0
  6  8  2  0  0  0  0
  7  1  1  0  0  0  0
  8  3  1  0  0  0  0
  9  4  1  0  0  0  0
 10  7  1  6  0  0  0
 10  4  1  0  0  0  0
 12 11  1  0  0  0  0
 13 12  1  0  0  0  0
 14 13  1  0  0  0  0
 15 14  1  0  0  0  0
 16 15  1  0  0  0  0
 17 19  1  0  0  0  0
 17 16  1  0  0  0  0
 20 18  1  0  0  0  0
 20 19  1  0  0  0  0
 21 20  2  0  0  0  0
 23 24  3  0  0  0  0
 24 22  1  0  0  0  0
 25 23  1  0  0  0  0
 26 27  1  6  0  0  0
 26 25  1  0  0  0  0
 28 29  1  0  0  0  0
 28 26  1  0  0  0  0
 30 28  2  0  0  0  0
M  END
>  <MODEL>
1

>  <REMARK>
 VINA RESULT:      -7.3      0.000      0.000
  Name = 
  13 active torsions:
  status: ('A' for Active; 'I' for Inactive)
    1  A    between atoms: C_1  and  C_8
    2  A    between atoms: C_2  and  C_24
    3  A    between atoms: C_3  and  N_30
    4  A    between atoms: O_5  and  C_20
    5  A    between atoms: O_5  and  C_26
    6  A    between atoms: C_7  and  C_8
    7  A    between atoms: C_7  and  C_11
    8  A    between atoms: N_9  and  C_26
    9  A    between atoms: C_20  and  C_21
   10  A    between atoms: C_21  and  C_25
   11  A    between atoms: C_24  and  O_27
   12  A    between atoms: C_25  and  O_27
   13  A    between atoms: C_29  and  N_30
                            x       y       z     vdW  Elec       q    Type
                         _______ _______ _______ _____ _____    ______ ____

>  <TORSDO>
F 13

$$$$
=
 OpenBabel10232409203D

 30 31  0  0  1  0  0  0  0  0999 V2000
  187.1280  178.4290  146.0180 C   0  0  2  0  0  3  0  0  0  0  0  0
  190.2180  176.8540  144.7620 C   0  0  2  0  0  3  0  0  0  0  0  0
  190.1710  177.3810  147.5220 N   0  0  0  0  0  0  0  0  0  0  0  0
  189.0520  177.4070  146.8600 C   0  0  0  0  0  0  0  0  0  0  0  0
  187.2760  177.3770  143.7440 C   0  0  0  0  0  2  0  0  0  0  0  0
  191.3640  176.4400  145.6550 C   0  0  0  0  0  3  0  0  0  0  0  0
  187.7670  177.5490  144.9720 C   0  0  0  0  0  0  0  0  0  0  0  0
  191.3240  176.7300  146.9640 C   0  0  0  0  0  3  0  0  0  0  0  0
  188.0020  178.3070  147.1760 N   0  0  0  0  0  2  0  0  0  0  0  0
  188.8960  176.7440  145.5350 C   0  0  1  0  0  3  0  0  0  0  0  0
  185.7340  177.9350  146.3880 C   0  0  0  0  0  2  0  0  0  0  0  0
  184.8120  178.9750  146.2750 O   0  0  0  0  0  0  0  0  0  0  0  0
  184.0420  178.6440  145.1630 C   0  0  0  0  0  2  0  0  0  0  0  0
  184.3080  179.6420  144.0590 C   0  0  0  0  0  2  0  0  0  0  0  0
  184.2560  178.9470  142.7150 C   0  0  0  0  0  2  0  0  0  0  0  0
  185.1600  179.5620  141.8470 O   0  0  0  0  0  0  0  0  0  0  0  0
  184.9690  178.9200  140.6210 C   0  0  0  0  0  2  0  0  0  0  0  0
  182.3200  180.5540  138.4100 N   0  0  0  0  0  1  0  0  0  0  0  0
  184.2890  179.8190  139.6970 N   0  0  0  0  0  2  0  0  0  0  0  0
  182.9280  179.6330  139.3070 C   0  0  0  0  0  0  0  0  0  0  0  0
  182.2610  178.6620  139.7520 O   0  0  0  0  0  0  0  0  0  0  0  0
  190.1860  175.9960  143.5900 N   0  0  0  0  0  2  0  0  0  0  0  0
  190.7850  176.9560  141.2450 C   0  0  0  0  0  0  0  0  0  0  0  0
  190.5080  176.5110  142.3290 C   0  0  0  0  0  0  0  0  0  0  0  0
  191.1240  177.5000  139.9260 C   0  0  0  0  0  2  0  0  0  0  0  0
  189.9690  177.2900  138.9610 C   0  0  2  0  0  3  0  0  0  0  0  0
  190.4560  177.0490  137.6730 O   0  0  0  0  0  1  0  0  0  0  0  0
  189.0800  178.4890  138.9570 C   0  0  0  0  0  0  0  0  0  0  0  0
  189.1060  179.3030  137.9950 O   0  0  0  0  0  0  0  0  0  0  0  0
  188.2330  178.7190  140.0320 O   0  0  0  0  0  1  0  0  0  0  0  0
  1 11  1  1  0  0  0
  1  9  1  0  0  0  0
  2 22  1  6  0  0  0
  2 10  1  0  0  0  0
  2  6  1  0  0  0  0
  4  9  1  0  0  0  0
  4  3  2  0  0  0  0
  5  7  2  0  0  0  0
  6  8  2  0  0  0  0
  7  1  1  0  0  0  0
  8  3  1  0  0  0  0
 10  7  1  6  0  0  0
 10  4  1  0  0  0  0
 12 11  1  0  0  0  0
 13 12  1  0  0  0  0
 14 13  1  0  0  0  0
 15 14  1  0  0  0  0
 16 15  1  0  0  0  0
 17 16  1  0  0  0  0
 18 20  1  0  0  0  0
 19 17  1  0  0  0  0
 20 19  1  0  0  0  0
 20 21  2  0  0  0  0
 23 24  3  0  0  0  0
 24 22  1  0  0  0  0
 25 23  1  0  0  0  0
 26 27  1  6  0  0  0
 26 25  1  0  0  0  0
 28 26  1  0  0  0  0
 28 30  1  0  0  0  0
 29 28  2  0  0  0  0
M  END
>  <MODEL>
2

>  <REMARK>
 VINA RESULT:      -7.2      1.770      2.596
  Name = 
  13 active torsions:
  status: ('A' for Active; 'I' for Inactive)
    1  A    between atoms: C_1  and  C_8
    2  A    between atoms: C_2  and  C_24
    3  A    between atoms: C_3  and  N_30
    4  A    between atoms: O_5  and  C_20
    5  A    between atoms: O_5  and  C_26
    6  A    between atoms: C_7  and  C_8
    7  A    between atoms: C_7  and  C_11
    8  A    between atoms: N_9  and  C_26
    9  A    between atoms: C_20  and  C_21
   10  A    between atoms: C_21  and  C_25
   11  A    between atoms: C_24  and  O_27
   12  A    between atoms: C_25  and  O_27
   13  A    between atoms: C_29  and  N_30
                            x       y       z     vdW  Elec       q    Type
                         _______ _______ _______ _____ _____    ______ ____

>  <TORSDO>
F 13

$$$$
=
 OpenBabel10232409203D

 30 31  0  0  1  0  0  0  0  0999 V2000
  187.2620  178.2180  145.5340 C   0  0  2  0  0  3  0  0  0  0  0  0
  190.2050  176.8770  143.7610 C   0  0  2  0  0  3  0  0  0  0  0  0
  190.5110  177.1910  146.5370 N   0  0  0  0  0  0  0  0  0  0  0  0
  189.3130  177.2180  146.0310 C   0  0  0  0  0  0  0  0  0  0  0  0
  187.1380  177.3480  143.1830 C   0  0  0  0  0  2  0  0  0  0  0  0
  191.4730  176.4460  144.4600 C   0  0  0  0  0  3  0  0  0  0  0  0
  187.7830  177.4480  144.3460 C   0  0  0  0  0  0  0  0  0  0  0  0
  191.6000  176.6340  145.7820 C   0  0  0  0  0  3  0  0  0  0  0  0
  188.2860  178.0460  146.5540 N   0  0  0  0  0  2  0  0  0  0  0  0
  189.0030  176.6520  144.6890 C   0  0  1  0  0  3  0  0  0  0  0  0
  185.9470  177.6370  146.0430 C   0  0  0  0  0  2  0  0  0  0  0  0
  185.0760  178.6660  146.4020 O   0  0  0  0  0  0  0  0  0  0  0  0
  184.6520  179.2080  145.1920 C   0  0  0  0  0  2  0  0  0  0  0  0
  183.1870  178.8920  144.9910 C   0  0  0  0  0  2  0  0  0  0  0  0
  182.8210  179.0600  143.5320 C   0  0  0  0  0  2  0  0  0  0  0  0
  183.8770  178.6070  142.7400 O   0  0  0  0  0  0  0  0  0  0  0  0
  183.3540  178.5540  141.4460 C   0  0  0  0  0  2  0  0  0  0  0  0
  185.8800  178.5710  138.5830 N   0  0  0  0  0  1  0  0  0  0  0  0
  184.3990  178.1590  140.5100 N   0  0  0  0  0  2  0  0  0  0  0  0
  184.8480  179.0120  139.4560 C   0  0  0  0  0  0  0  0  0  0  0  0
  184.3380  180.1520  139.2940 O   0  0  0  0  0  0  0  0  0  0  0  0
  190.0440  176.1100  142.5380 N   0  0  0  0  0  2  0  0  0  0  0  0
  189.8730  177.3250  140.2410 C   0  0  0  0  0  0  0  0  0  0  0  0
  189.9510  176.7630  141.3020 C   0  0  0  0  0  0  0  0  0  0  0  0
  189.7810  178.0100  138.9480 C   0  0  0  0  0  2  0  0  0  0  0  0
  189.7390  176.9930  137.8190 C   0  0  2  0  0  3  0  0  0  0  0  0
  188.6030  176.1860  137.9400 O   0  0  0  0  0  1  0  0  0  0  0  0
  190.9710  176.1510  137.8410 C   0  0  0  0  0  0  0  0  0  0  0  0
  192.1060  176.6710  137.6730 O   0  0  0  0  0  0  0  0  0  0  0  0
  190.8610  174.7800  138.0270 O   0  0  0  0  0  1  0  0  0  0  0  0
  1 11  1  1  0  0  0
  1  9  1  0  0  0  0
  2 22  1  6  0  0  0
  2  6  1  0  0  0  0
  2 10  1  0  0  0  0
  4  3  2  0  0  0  0
  4  9  1  0  0  0  0
  5  7  2  0  0  0  0
  6  8  2  0  0  0  0
  7  1  1  0  0  0  0
  8  3  1  0  0  0  0
 10  7  1  6  0  0  0
 10  4  1  0  0  0  0
 11 12  1  0  0  0  0
 13 12  1  0  0  0  0
 14 13  1  0  0  0  0
 15 14  1  0  0  0  0
 16 15  1  0  0  0  0
 17 16  1  0  0  0  0
 18 20  1  0  0  0  0
 19 17  1  0  0  0  0
 20 19  1  0  0  0  0
 21 20  2  0  0  0  0
 23 24  3  0  0  0  0
 24 22  1  0  0  0  0
 25 23  1  0  0  0  0
 26 28  1  0  0  0  0
 26 27  1  1  0  0  0
 26 25  1  0  0  0  0
 28 30  1  0  0  0  0
 29 28  2  0  0  0  0
M  END
>  <MODEL>
3

>  <REMARK>
 VINA RESULT:      -7.2      1.680      2.598
  Name = 
  13 active torsions:
  status: ('A' for Active; 'I' for Inactive)
    1  A    between atoms: C_1  and  C_8
    2  A    between atoms: C_2  and  C_24
    3  A    between atoms: C_3  and  N_30
    4  A    between atoms: O_5  and  C_20
    5  A    between atoms: O_5  and  C_26
    6  A    between atoms: C_7  and  C_8
    7  A    between atoms: C_7  and  C_11
    8  A    between atoms: N_9  and  C_26
    9  A    between atoms: C_20  and  C_21
   10  A    between atoms: C_21  and  C_25
   11  A    between atoms: C_24  and  O_27
   12  A    between atoms: C_25  and  O_27
   13  A    between atoms: C_29  and  N_30
                            x       y       z     vdW  Elec       q    Type
                         _______ _______ _______ _____ _____    ______ ____

>  <TORSDO>
F 13

$$$$
=
 OpenBabel10232409203D

 30 31  0  0  1  0  0  0  0  0999 V2000
  186.7720  178.9620  141.4360 C   0  0  2  0  0  3  0  0  0  0  0  0
  185.9870  178.2680  144.9730 C   0  0  2  0  0  3  0  0  0  0  0  0
  183.9610  179.5670  143.5210 N   0  0  0  0  0  0  0  0  0  0  0  0
  184.9290  178.9930  142.8690 C   0  0  0  0  0  0  0  0  0  0  0  0
  188.1340  177.3840  142.8350 C   0  0  0  0  0  2  0  0  0  0  0  0
  184.6510  178.5790  145.6050 C   0  0  0  0  0  3  0  0  0  0  0  0
  187.0170  178.0870  142.6410 C   0  0  0  0  0  0  0  0  0  0  0  0
  183.7140  179.2250  144.8950 C   0  0  0  0  0  3  0  0  0  0  0  0
  185.4450  179.5170  141.6560 N   0  0  0  0  0  2  0  0  0  0  0  0
  185.7900  177.9440  143.4850 C   0  0  1  0  0  3  0  0  0  0  0  0
  186.7670  178.1490  140.1460 C   0  0  0  0  0  2  0  0  0  0  0  0
  187.7010  178.6670  139.2490 O   0  0  0  0  0  0  0  0  0  0  0  0
  188.3120  177.5480  138.6900 C   0  0  0  0  0  2  0  0  0  0  0  0
  189.8130  177.7250  138.7360 C   0  0  0  0  0  2  0  0  0  0  0  0
  190.4190  176.7250  139.6980 C   0  0  0  0  0  2  0  0  0  0  0  0
  191.1210  175.7610  138.9720 O   0  0  0  0  0  0  0  0  0  0  0  0
  191.8970  176.4920  138.0690 C   0  0  0  0  0  2  0  0  0  0  0  0
  195.4140  175.0170  138.2500 N   0  0  0  0  0  1  0  0  0  0  0  0
  193.3100  176.2970  138.3670 N   0  0  0  0  0  2  0  0  0  0  0  0
  194.0320  175.1420  137.9360 C   0  0  0  0  0  0  0  0  0  0  0  0
  193.4570  174.2350  137.2780 O   0  0  0  0  0  0  0  0  0  0  0  0
  186.5920  177.1390  145.6550 N   0  0  0  0  0  2  0  0  0  0  0  0
  188.9430  177.3710  146.7520 C   0  0  0  0  0  0  0  0  0  0  0  0
  187.8560  177.2650  146.2460 C   0  0  0  0  0  0  0  0  0  0  0  0
  190.2680  177.5010  147.3660 C   0  0  0  0  0  2  0  0  0  0  0  0
  191.2000  176.4260  146.8320 C   0  0  2  0  0  3  0  0  0  0  0  0
  192.3620  176.3690  147.6070 O   0  0  0  0  0  1  0  0  0  0  0  0
  191.5470  176.7090  145.4080 C   0  0  0  0  0  0  0  0  0  0  0  0
  191.7950  175.7660  144.6100 O   0  0  0  0  0  0  0  0  0  0  0  0
  191.6180  178.0230  144.9680 O   0  0  0  0  0  1  0  0  0  0  0  0
  1 11  1  6  0  0  0
  1  9  1  0  0  0  0
  1  7  1  0  0  0  0
  2  6  1  0  0  0  0
  2 22  1  1  0  0  0
  3  8  1  0  0  0  0
  4 10  1  0  0  0  0
  4  3  2  0  0  0  0
  7  5  2  0  0  0  0
  8  6  2  0  0  0  0
  9  4  1  0  0  0  0
 10  7  1  6  0  0  0
 10  2  1  0  0  0  0
 12 11  1  0  0  0  0
 13 14  1  0  0  0  0
 13 12  1  0  0  0  0
 14 15  1  0  0  0  0
 16 15  1  0  0  0  0
 17 19  1  0  0  0  0
 17 16  1  0  0  0  0
 20 18  1  0  0  0  0
 20 19  1  0  0  0  0
 21 20  2  0  0  0  0
 22 24  1  0  0  0  0
 23 25  1  0  0  0  0
 24 23  3  0  0  0  0
 26 25  1  0  0  0  0
 26 27  1  1  0  0  0
 28 26  1  0  0  0  0
 29 28  2  0  0  0  0
 30 28  1  0  0  0  0
M  END
>  <MODEL>
4

>  <REMARK>
 VINA RESULT:      -6.9      3.656      7.271
  Name = 
  13 active torsions:
  status: ('A' for Active; 'I' for Inactive)
    1  A    between atoms: C_1  and  C_8
    2  A    between atoms: C_2  and  C_24
    3  A    between atoms: C_3  and  N_30
    4  A    between atoms: O_5  and  C_20
    5  A    between atoms: O_5  and  C_26
    6  A    between atoms: C_7  and  C_8
    7  A    between atoms: C_7  and  C_11
    8  A    between atoms: N_9  and  C_26
    9  A    between atoms: C_20  and  C_21
   10  A    between atoms: C_21  and  C_25
   11  A    between atoms: C_24  and  O_27
   12  A    between atoms: C_25  and  O_27
   13  A    between atoms: C_29  and  N_30
                            x       y       z     vdW  Elec       q    Type
                         _______ _______ _______ _____ _____    ______ ____

>  <TORSDO>
F 13

$$$$
=
 OpenBabel10232409203D

 30 31  0  0  1  0  0  0  0  0999 V2000
  186.6310  178.9740  141.4200 C   0  0  2  0  0  3  0  0  0  0  0  0
  186.0380  178.2070  144.9790 C   0  0  2  0  0  3  0  0  0  0  0  0
  183.9620  179.5870  143.6820 N   0  0  0  0  0  0  0  0  0  0  0  0
  184.8760  179.0090  142.9600 C   0  0  0  0  0  0  0  0  0  0  0  0
  188.0350  177.3310  142.6970 C   0  0  0  0  0  2  0  0  0  0  0  0
  184.7490  178.5310  145.6960 C   0  0  0  0  0  3  0  0  0  0  0  0
  186.9260  178.0630  142.5860 C   0  0  0  0  0  0  0  0  0  0  0  0
  183.7870  179.2160  145.0590 C   0  0  0  0  0  3  0  0  0  0  0  0
  185.3320  179.5530  141.7320 N   0  0  0  0  0  2  0  0  0  0  0  0
  185.7470  177.9260  143.4980 C   0  0  1  0  0  3  0  0  0  0  0  0
  186.5310  178.1960  140.1130 C   0  0  0  0  0  2  0  0  0  0  0  0
  187.6190  178.4950  139.2930 O   0  0  0  0  0  0  0  0  0  0  0  0
  187.2320  178.0680  138.0250 C   0  0  0  0  0  2  0  0  0  0  0  0
  188.3960  178.2230  137.0720 C   0  0  0  0  0  2  0  0  0  0  0  0
  189.6950  177.9480  137.8000 C   0  0  0  0  0  2  0  0  0  0  0  0
  190.4220  176.9900  137.0910 O   0  0  0  0  0  0  0  0  0  0  0  0
  191.3740  176.5230  138.0010 C   0  0  0  0  0  2  0  0  0  0  0  0
  191.4620  177.6560  141.6460 N   0  0  0  0  0  1  0  0  0  0  0  0
  190.9760  176.8850  139.3560 N   0  0  0  0  0  2  0  0  0  0  0  0
  191.9170  177.3050  140.3450 C   0  0  0  0  0  0  0  0  0  0  0  0
  193.1460  177.3700  140.0740 O   0  0  0  0  0  0  0  0  0  0  0  0
  186.6550  177.0470  145.5970 N   0  0  0  0  0  2  0  0  0  0  0  0
  188.9350  177.2780  146.8350 C   0  0  0  0  0  0  0  0  0  0  0  0
  187.8810  177.1700  146.2630 C   0  0  0  0  0  0  0  0  0  0  0  0
  190.2160  177.4100  147.5340 C   0  0  0  0  0  2  0  0  0  0  0  0
  191.2190  176.4110  146.9830 C   0  0  2  0  0  3  0  0  0  0  0  0
  192.3620  176.3820  147.7880 O   0  0  0  0  0  1  0  0  0  0  0  0
  191.5880  176.7730  145.5830 C   0  0  0  0  0  0  0  0  0  0  0  0
  191.7070  175.8810  144.7000 O   0  0  0  0  0  0  0  0  0  0  0  0
  191.8220  178.1010  145.2570 O   0  0  0  0  0  1  0  0  0  0  0  0
  1 11  1  6  0  0  0
  1  9  1  0  0  0  0
  1  7  1  0  0  0  0
  2 22  1  1  0  0  0
  2  6  1  0  0  0  0
  3  8  1  0  0  0  0
  4 10  1  0  0  0  0
  4  3  2  0  0  0  0
  7  5  2  0  0  0  0
  8  6  2  0  0  0  0
  9  4  1  0  0  0  0
 10  7  1  6  0  0  0
 10  2  1  0  0  0  0
 12 11  1  0  0  0  0
 13 12  1  0  0  0  0
 14 15  1  0  0  0  0
 14 13  1  0  0  0  0
 16 15  1  0  0  0  0
 16 17  1  0  0  0  0
 17 19  1  0  0  0  0
 19 20  1  0  0  0  0
 20 18  1  0  0  0  0
 21 20  2  0  0  0  0
 22 24  1  0  0  0  0
 23 25  1  0  0  0  0
 24 23  3  0  0  0  0
 26 25  1  0  0  0  0
 26 27  1  1  0  0  0
 28 26  1  0  0  0  0
 29 28  2  0  0  0  0
 30 28  1  0  0  0  0
M  END
>  <MODEL>
5

>  <REMARK>
 VINA RESULT:      -6.9      3.139      6.707
  Name = 
  13 active torsions:
  status: ('A' for Active; 'I' for Inactive)
    1  A    between atoms: C_1  and  C_8
    2  A    between atoms: C_2  and  C_24
    3  A    between atoms: C_3  and  N_30
    4  A    between atoms: O_5  and  C_20
    5  A    between atoms: O_5  and  C_26
    6  A    between atoms: C_7  and  C_8
    7  A    between atoms: C_7  and  C_11
    8  A    between atoms: N_9  and  C_26
    9  A    between atoms: C_20  and  C_21
   10  A    between atoms: C_21  and  C_25
   11  A    between atoms: C_24  and  O_27
   12  A    between atoms: C_25  and  O_27
   13  A    between atoms: C_29  and  N_30
                            x       y       z     vdW  Elec       q    Type
                         _______ _______ _______ _____ _____    ______ ____

>  <TORSDO>
F 13

$$$$
=
 OpenBabel10232409203D

 30 31  0  0  1  0  0  0  0  0999 V2000
  190.4540  176.4010  142.6370 C   0  0  2  0  0  3  0  0  0  0  0  0
  189.2090  177.3130  145.9880 C   0  0  2  0  0  3  0  0  0  0  0  0
  191.7310  176.0740  145.9360 N   0  0  0  0  0  0  0  0  0  0  0  0
  191.2460  176.5550  144.8290 C   0  0  0  0  0  0  0  0  0  0  0  0
  188.5140  177.9570  142.9770 C   0  0  0  0  0  2  0  0  0  0  0  0
  190.0080  177.1170  147.2550 C   0  0  0  0  0  3  0  0  0  0  0  0
  189.5800  177.3170  143.4590 C   0  0  0  0  0  0  0  0  0  0  0  0
  191.1970  176.4970  147.2020 C   0  0  0  0  0  3  0  0  0  0  0  0
  191.4730  175.9410  143.5700 N   0  0  0  0  0  2  0  0  0  0  0  0
  190.1620  177.5760  144.8130 C   0  0  1  0  0  3  0  0  0  0  0  0
  191.1260  177.1490  141.4920 C   0  0  0  0  0  2  0  0  0  0  0  0
  190.7470  176.5940  140.2700 O   0  0  0  0  0  0  0  0  0  0  0  0
  190.1670  177.6470  139.5680 C   0  0  0  0  0  2  0  0  0  0  0  0
  190.1120  177.2960  138.0990 C   0  0  0  0  0  2  0  0  0  0  0  0
  188.8940  176.4390  137.8210 C   0  0  0  0  0  2  0  0  0  0  0  0
  187.7970  176.9690  138.5030 O   0  0  0  0  0  0  0  0  0  0  0  0
  187.0440  177.6130  137.5180 C   0  0  0  0  0  2  0  0  0  0  0  0
  184.4410  179.8750  139.1570 N   0  0  0  0  0  1  0  0  0  0  0  0
  186.3720  178.7710  138.0950 N   0  0  0  0  0  2  0  0  0  0  0  0
  185.0360  178.7110  138.5960 C   0  0  0  0  0  0  0  0  0  0  0  0
  184.3810  177.6360  138.5470 O   0  0  0  0  0  0  0  0  0  0  0  0
  188.3030  178.4350  146.1580 N   0  0  0  0  0  2  0  0  0  0  0  0
  185.8060  178.2270  145.4480 C   0  0  0  0  0  0  0  0  0  0  0  0
  186.9600  178.3220  145.7770 C   0  0  0  0  0  0  0  0  0  0  0  0
  184.4010  178.1110  145.0450 C   0  0  0  0  0  2  0  0  0  0  0  0
  184.0310  179.2460  144.1050 C   0  0  2  0  0  3  0  0  0  0  0  0
  182.6410  179.3720  144.0270 O   0  0  0  0  0  1  0  0  0  0  0  0
  184.5990  178.9930  142.7480 C   0  0  0  0  0  0  0  0  0  0  0  0
  185.4870  179.7510  142.2730 O   0  0  0  0  0  1  0  0  0  0  0  0
  184.1270  177.9280  141.9940 O   0  0  0  0  0  0  0  0  0  0  0  0
  1 11  1  6  0  0  0
  1  7  1  0  0  0  0
  1  9  1  0  0  0  0
  2 22  1  1  0  0  0
  2  6  1  0  0  0  0
  3  8  1  0  0  0  0
  4  3  2  0  0  0  0
  5  7  2  0  0  0  0
  8  6  2  0  0  0  0
  9  4  1  0  0  0  0
 10  7  1  6  0  0  0
 10  4  1  0  0  0  0
 10  2  1  0  0  0  0
 12 11  1  0  0  0  0
 13 12  1  0  0  0  0
 14 13  1  0  0  0  0
 15 14  1  0  0  0  0
 15 16  1  0  0  0  0
 17 19  1  0  0  0  0
 17 16  1  0  0  0  0
 19 20  1  0  0  0  0
 20 18  1  0  0  0  0
 21 20  2  0  0  0  0
 23 24  3  0  0  0  0
 24 22  1  0  0  0  0
 25 23  1  0  0  0  0
 26 27  1  6  0  0  0
 26 25  1  0  0  0  0
 28 26  1  0  0  0  0
 29 28  1  0  0  0  0
 30 28  2  0  0  0  0
M  END
>  <MODEL>
6

>  <REMARK>
 VINA RESULT:      -6.8      2.049      6.262
  Name = 
  13 active torsions:
  status: ('A' for Active; 'I' for Inactive)
    1  A    between atoms: C_1  and  C_8
    2  A    between atoms: C_2  and  C_24
    3  A    between atoms: C_3  and  N_30
    4  A    between atoms: O_5  and  C_20
    5  A    between atoms: O_5  and  C_26
    6  A    between atoms: C_7  and  C_8
    7  A    between atoms: C_7  and  C_11
    8  A    between atoms: N_9  and  C_26
    9  A    between atoms: C_20  and  C_21
   10  A    between atoms: C_21  and  C_25
   11  A    between atoms: C_24  and  O_27
   12  A    between atoms: C_25  and  O_27
   13  A    between atoms: C_29  and  N_30
                            x       y       z     vdW  Elec       q    Type
                         _______ _______ _______ _____ _____    ______ ____

>  <TORSDO>
F 13

$$$$
=
 OpenBabel10232409203D

 30 31  0  0  1  0  0  0  0  0999 V2000
  189.3140  176.9430  144.4640 C   0  0  2  0  0  3  0  0  0  0  0  0
  189.7930  177.2030  140.8150 C   0  0  2  0  0  3  0  0  0  0  0  0
  187.4070  178.3150  141.7990 N   0  0  0  0  0  0  0  0  0  0  0  0
  188.3640  178.0450  142.6370 C   0  0  0  0  0  0  0  0  0  0  0  0
  191.5300  176.5230  143.3630 C   0  0  0  0  0  2  0  0  0  0  0  0
  188.8290  177.9180  139.8980 C   0  0  0  0  0  3  0  0  0  0  0  0
  190.2900  177.0130  143.3160 C   0  0  0  0  0  0  0  0  0  0  0  0
  187.6850  178.4140  140.3930 C   0  0  0  0  0  3  0  0  0  0  0  0
  188.1140  177.5950  143.9590 N   0  0  0  0  0  2  0  0  0  0  0  0
  189.7780  177.8680  142.1990 C   0  0  1  0  0  3  0  0  0  0  0  0
  189.8250  177.7070  145.6800 C   0  0  0  0  0  2  0  0  0  0  0  0
  190.1510  176.8170  146.7030 O   0  0  0  0  0  0  0  0  0  0  0  0
  189.0350  176.8100  147.5340 C   0  0  0  0  0  2  0  0  0  0  0  0
  188.6290  178.2350  147.8340 C   0  0  0  0  0  2  0  0  0  0  0  0
  187.1430  178.2960  148.1220 C   0  0  0  0  0  2  0  0  0  0  0  0
  186.4380  177.9970  146.9560 O   0  0  0  0  0  0  0  0  0  0  0  0
  185.7150  179.1580  146.6700 C   0  0  0  0  0  2  0  0  0  0  0  0
  182.8250  178.7840  144.2030 N   0  0  0  0  0  1  0  0  0  0  0  0
  184.4360  178.8030  146.0690 N   0  0  0  0  0  2  0  0  0  0  0  0
  184.0870  179.1710  144.7340 C   0  0  0  0  0  0  0  0  0  0  0  0
  184.8870  179.8350  144.0220 O   0  0  0  0  0  0  0  0  0  0  0  0
  191.1280  177.2570  140.2490 N   0  0  0  0  0  2  0  0  0  0  0  0
  191.5500  176.4640  137.8040 C   0  0  0  0  0  0  0  0  0  0  0  0
  191.3570  176.8300  138.9350 C   0  0  0  0  0  0  0  0  0  0  0  0
  191.7860  176.0210  136.4270 C   0  0  0  0  0  2  0  0  0  0  0  0
  192.9290  175.0200  136.3870 C   0  0  2  0  0  3  0  0  0  0  0  0
  192.6960  173.9870  137.3000 O   0  0  0  0  0  1  0  0  0  0  0  0
  194.2190  175.7010  136.7030 C   0  0  0  0  0  0  0  0  0  0  0  0
  194.5960  176.7010  136.0350 O   0  0  0  0  0  0  0  0  0  0  0  0
  195.0180  175.2140  137.7280 O   0  0  0  0  0  1  0  0  0  0  0  0
  1 11  1  1  0  0  0
  2 22  1  6  0  0  0
  2 10  1  0  0  0  0
  3  4  2  0  0  0  0
  4  9  1  0  0  0  0
  6  8  2  0  0  0  0
  6  2  1  0  0  0  0
  7  5  2  0  0  0  0
  7  1  1  0  0  0  0
  8  3  1  0  0  0  0
  9  1  1  0  0  0  0
 10  4  1  1  0  0  0
 10  7  1  0  0  0  0
 11 12  1  0  0  0  0
 12 13  1  0  0  0  0
 13 14  1  0  0  0  0
 14 15  1  0  0  0  0
 16 15  1  0  0  0  0
 17 16  1  0  0  0  0
 18 20  1  0  0  0  0
 19 17  1  0  0  0  0
 20 19  1  0  0  0  0
 21 20  2  0  0  0  0
 23 24  3  0  0  0  0
 24 22  1  0  0  0  0
 25 23  1  0  0  0  0
 26 25  1  0  0  0  0
 26 28  1  0  0  0  0
 26 27  1  1  0  0  0
 28 30  1  0  0  0  0
 29 28  2  0  0  0  0
M  END
>  <MODEL>
7

>  <REMARK>
 VINA RESULT:      -6.7      3.118      6.060
  Name = 
  13 active torsions:
  status: ('A' for Active; 'I' for Inactive)
    1  A    between atoms: C_1  and  C_8
    2  A    between atoms: C_2  and  C_24
    3  A    between atoms: C_3  and  N_30
    4  A    between atoms: O_5  and  C_20
    5  A    between atoms: O_5  and  C_26
    6  A    between atoms: C_7  and  C_8
    7  A    between atoms: C_7  and  C_11
    8  A    between atoms: N_9  and  C_26
    9  A    between atoms: C_20  and  C_21
   10  A    between atoms: C_21  and  C_25
   11  A    between atoms: C_24  and  O_27
   12  A    between atoms: C_25  and  O_27
   13  A    between atoms: C_29  and  N_30
                            x       y       z     vdW  Elec       q    Type
                         _______ _______ _______ _____ _____    ______ ____

>  <TORSDO>
F 13

$$$$
=
 OpenBabel10232409203D

 30 31  0  0  1  0  0  0  0  0999 V2000
  186.8370  177.2170  145.4830 C   0  0  2  0  0  3  0  0  0  0  0  0
  184.4930  178.3570  142.8720 C   0  0  2  0  0  3  0  0  0  0  0  0
  183.7260  178.9310  145.5140 N   0  0  0  0  0  0  0  0  0  0  0  0
  184.9590  178.5900  145.2800 C   0  0  0  0  0  0  0  0  0  0  0  0
  187.4690  177.3200  143.0560 C   0  0  0  0  0  2  0  0  0  0  0  0
  183.2390  179.1460  143.1660 C   0  0  0  0  0  3  0  0  0  0  0  0
  186.6510  177.6610  144.0520 C   0  0  0  0  0  0  0  0  0  0  0  0
  182.8850  179.3800  144.4390 C   0  0  0  0  0  3  0  0  0  0  0  0
  185.7230  177.8240  146.1980 N   0  0  0  0  0  2  0  0  0  0  0  0
  185.5650  178.6820  143.9220 C   0  0  1  0  0  3  0  0  0  0  0  0
  188.1470  177.7380  146.0640 C   0  0  0  0  0  2  0  0  0  0  0  0
  187.9840  178.0430  147.4150 O   0  0  0  0  0  0  0  0  0  0  0  0
  189.2380  177.8220  147.9800 C   0  0  0  0  0  2  0  0  0  0  0  0
  189.8210  176.5470  147.4140 C   0  0  0  0  0  2  0  0  0  0  0  0
  191.3330  176.6040  147.4710 C   0  0  0  0  0  2  0  0  0  0  0  0
  191.8090  177.2620  146.3360 O   0  0  0  0  0  0  0  0  0  0  0  0
  191.6140  176.3560  145.2920 C   0  0  0  0  0  2  0  0  0  0  0  0
  191.0160  177.2910  141.6380 N   0  0  0  0  0  1  0  0  0  0  0  0
  191.6140  177.0670  144.0190 N   0  0  0  0  0  2  0  0  0  0  0  0
  190.9890  176.5420  142.8470 C   0  0  0  0  0  0  0  0  0  0  0  0
  190.4130  175.4210  142.8750 O   0  0  0  0  0  0  0  0  0  0  0  0
  184.9750  178.6940  141.5440 N   0  0  0  0  0  2  0  0  0  0  0  0
  183.2930  179.2580  139.6380 C   0  0  0  0  0  0  0  0  0  0  0  0
  184.0690  178.9970  140.5200 C   0  0  0  0  0  0  0  0  0  0  0  0
  182.3480  179.5730  138.5620 C   0  0  0  0  0  2  0  0  0  0  0  0
  181.1910  178.5880  138.5760 C   0  0  2  0  0  3  0  0  0  0  0  0
  180.6790  178.4650  139.8720 O   0  0  0  0  0  1  0  0  0  0  0  0
  181.6440  177.2570  138.0760 C   0  0  0  0  0  0  0  0  0  0  0  0
  181.2920  176.1980  138.6620 O   0  0  0  0  0  1  0  0  0  0  0  0
  182.4800  177.1880  136.9700 O   0  0  0  0  0  0  0  0  0  0  0  0
  1 11  1  1  0  0  0
  1  9  1  0  0  0  0
  2 22  1  6  0  0  0
  2  6  1  0  0  0  0
  2 10  1  0  0  0  0
  4  3  2  0  0  0  0
  4  9  1  0  0  0  0
  5  7  2  0  0  0  0
  6  8  2  0  0  0  0
  7  1  1  0  0  0  0
  8  3  1  0  0  0  0
 10  7  1  1  0  0  0
 10  4  1  0  0  0  0
 11 12  1  0  0  0  0
 12 13  1  0  0  0  0
 14 15  1  0  0  0  0
 14 13  1  0  0  0  0
 16 15  1  0  0  0  0
 17 16  1  0  0  0  0
 18 20  1  0  0  0  0
 19 17  1  0  0  0  0
 20 21  2  0  0  0  0
 20 19  1  0  0  0  0
 23 24  3  0  0  0  0
 24 22  1  0  0  0  0
 25 26  1  0  0  0  0
 25 23  1  0  0  0  0
 26 27  1  1  0  0  0
 28 26  1  0  0  0  0
 28 29  1  0  0  0  0
 30 28  2  0  0  0  0
M  END
>  <MODEL>
8

>  <REMARK>
 VINA RESULT:      -6.6      2.806      7.387
  Name = 
  13 active torsions:
  status: ('A' for Active; 'I' for Inactive)
    1  A    between atoms: C_1  and  C_8
    2  A    between atoms: C_2  and  C_24
    3  A    between atoms: C_3  and  N_30
    4  A    between atoms: O_5  and  C_20
    5  A    between atoms: O_5  and  C_26
    6  A    between atoms: C_7  and  C_8
    7  A    between atoms: C_7  and  C_11
    8  A    between atoms: N_9  and  C_26
    9  A    between atoms: C_20  and  C_21
   10  A    between atoms: C_21  and  C_25
   11  A    between atoms: C_24  and  O_27
   12  A    between atoms: C_25  and  O_27
   13  A    between atoms: C_29  and  N_30
                            x       y       z     vdW  Elec       q    Type
                         _______ _______ _______ _____ _____    ______ ____

>  <TORSDO>
F 13

$$$$
=
 OpenBabel10232409203D

 30 31  0  0  1  0  0  0  0  0999 V2000
  187.5930  178.7960  141.4120 C   0  0  2  0  0  3  0  0  0  0  0  0
  186.1470  178.3140  144.7710 C   0  0  2  0  0  3  0  0  0  0  0  0
  184.4270  179.4710  142.8740 N   0  0  0  0  0  0  0  0  0  0  0  0
  185.5080  178.8780  142.4600 C   0  0  0  0  0  0  0  0  0  0  0  0
  188.6750  177.3420  143.1490 C   0  0  0  0  0  2  0  0  0  0  0  0
  184.7110  178.6340  145.1130 C   0  0  0  0  0  3  0  0  0  0  0  0
  187.6100  178.0060  142.6980 C   0  0  0  0  0  0  0  0  0  0  0  0
  183.9220  179.2120  144.1940 C   0  0  0  0  0  3  0  0  0  0  0  0
  186.2430  179.3350  141.3360 N   0  0  0  0  0  2  0  0  0  0  0  0
  186.2440  177.8900  143.2980 C   0  0  1  0  0  3  0  0  0  0  0  0
  187.8450  177.9030  140.2030 C   0  0  0  0  0  2  0  0  0  0  0  0
  189.1050  178.1670  139.6660 O   0  0  0  0  0  0  0  0  0  0  0  0
  189.0000  177.8050  138.3260 C   0  0  0  0  0  2  0  0  0  0  0  0
  187.5780  178.0270  137.8600 C   0  0  0  0  0  2  0  0  0  0  0  0
  187.0390  176.7590  137.2320 C   0  0  0  0  0  2  0  0  0  0  0  0
  185.6470  176.7550  137.3340 O   0  0  0  0  0  0  0  0  0  0  0  0
  185.3160  178.0520  137.7330 C   0  0  0  0  0  2  0  0  0  0  0  0
  182.2600  179.1140  139.7600 N   0  0  0  0  0  1  0  0  0  0  0  0
  184.0450  178.0350  138.4470 N   0  0  0  0  0  2  0  0  0  0  0  0
  183.5110  179.1940  139.0890 C   0  0  0  0  0  0  0  0  0  0  0  0
  184.1370  180.2870  139.0630 O   0  0  0  0  0  0  0  0  0  0  0  0
  186.6200  177.2440  145.6310 N   0  0  0  0  0  2  0  0  0  0  0  0
  188.9100  177.4580  146.8530 C   0  0  0  0  0  0  0  0  0  0  0  0
  187.8520  177.3580  146.2880 C   0  0  0  0  0  0  0  0  0  0  0  0
  190.1980  177.5800  147.5430 C   0  0  0  0  0  2  0  0  0  0  0  0
  191.1620  176.5180  147.0430 C   0  0  2  0  0  3  0  0  0  0  0  0
  192.3060  176.4890  147.8470 O   0  0  0  0  0  1  0  0  0  0  0  0
  191.5400  176.7940  145.6260 C   0  0  0  0  0  0  0  0  0  0  0  0
  191.6710  175.8490  144.8020 O   0  0  0  0  0  0  0  0  0  0  0  0
  191.7700  178.1010  145.2190 O   0  0  0  0  0  1  0  0  0  0  0  0
  1 11  1  6  0  0  0
  1  7  1  0  0  0  0
  2  6  1  0  0  0  0
  2 22  1  1  0  0  0
  3  8  1  0  0  0  0
  4  3  2  0  0  0  0
  7  5  2  0  0  0  0
  7 10  1  0  0  0  0
  8  6  2  0  0  0  0
  9  1  1  0  0  0  0
  9  4  1  0  0  0  0
 10  4  1  6  0  0  0
 10  2  1  0  0  0  0
 12 11  1  0  0  0  0
 13 12  1  0  0  0  0
 14 13  1  0  0  0  0
 15 16  1  0  0  0  0
 15 14  1  0  0  0  0
 16 17  1  0  0  0  0
 17 19  1  0  0  0  0
 19 20  1  0  0  0  0
 20 18  1  0  0  0  0
 21 20  2  0  0  0  0
 22 24  1  0  0  0  0
 23 25  1  0  0  0  0
 24 23  3  0  0  0  0
 26 25  1  0  0  0  0
 26 27  1  1  0  0  0
 28 26  1  0  0  0  0
 29 28  2  0  0  0  0
 30 28  1  0  0  0  0
M  END
>  <MODEL>
9

>  <REMARK>
 VINA RESULT:      -6.6      2.996      5.755
  Name = 
  13 active torsions:
  status: ('A' for Active; 'I' for Inactive)
    1  A    between atoms: C_1  and  C_8
    2  A    between atoms: C_2  and  C_24
    3  A    between atoms: C_3  and  N_30
    4  A    between atoms: O_5  and  C_20
    5  A    between atoms: O_5  and  C_26
    6  A    between atoms: C_7  and  C_8
    7  A    between atoms: C_7  and  C_11
    8  A    between atoms: N_9  and  C_26
    9  A    between atoms: C_20  and  C_21
   10  A    between atoms: C_21  and  C_25
   11  A    between atoms: C_24  and  O_27
   12  A    between atoms: C_25  and  O_27
   13  A    between atoms: C_29  and  N_30
                            x       y       z     vdW  Elec       q    Type
                         _______ _______ _______ _____ _____    ______ ____

>  <TORSDO>
F 13

$$$$
