=
 OpenBabel10232407523D

 26 28  0  0  1  0  0  0  0  0999 V2000
  190.3560  177.9990  143.0830 C   0  0  0  0  0  0  0  0  0  0  0  0
  189.7690  177.4140  141.9150 N   0  0  0  0  0  2  0  0  0  0  0  0
  189.9050  177.6170  144.3840 N   0  0  0  0  0  2  0  0  0  0  0  0
  191.3100  178.8650  142.9730 N   0  0  0  0  0  2  0  0  0  0  0  0
  190.5650  176.4760  139.8170 C   0  0  0  0  0  2  0  0  0  0  0  0
  190.1720  177.7550  140.5600 C   0  0  1  0  0  3  0  0  0  0  0  0
  188.7650  176.7570  137.7270 S   0  0  0  0  0  0  0  0  0  0  0  0
  189.0620  178.5510  139.8600 C   0  0  0  0  0  2  0  0  0  0  0  0
  191.1960  175.5080  137.6250 C   0  0  0  0  0  1  0  0  0  0  0  0
  190.5000  176.6640  138.3090 C   0  0  2  0  0  3  0  0  0  0  0  0
  188.0520  177.6310  139.1790 C   0  0  1  0  0  3  0  0  0  0  0  0
  186.8430  178.3610  138.8060 N   0  0  0  0  0  2  0  0  0  0  0  0
  184.8760  178.8670  139.5850 C   0  0  0  0  0  1  0  0  0  0  0  0
  186.2200  178.7750  139.9380 O   0  0  0  0  0  0  0  0  0  0  0  0
  188.8580  176.6290  144.6000 C   0  0  0  0  0  2  0  0  0  0  0  0
  183.6340  179.1650  145.6640 N   0  0  0  0  0  0  0  0  0  0  0  0
  186.7050  177.4980  143.6590 N   0  0  0  0  0  0  0  0  0  0  0  0
  183.4940  179.0170  144.3020 C   0  0  0  0  0  3  0  0  0  0  0  0
  187.5260  177.2970  144.7280 C   0  0  0  0  0  0  0  0  0  0  0  0
  184.7420  178.7800  146.3140 N   0  0  0  0  0  0  0  0  0  0  0  0
  185.6150  178.0780  144.1910 C   0  0  0  0  0  0  0  0  0  0  0  0
  184.4930  178.4640  143.5480 N   0  0  0  0  0  2  0  0  0  0  0  0
  185.7410  178.2380  145.5890 C   0  0  0  0  0  0  0  0  0  0  0  0
  186.9640  177.7360  145.9330 C   0  0  0  0  0  0  0  0  0  0  0  0
  187.9890  177.5960  148.3140 N   0  0  0  0  0  0  0  0  0  0  0  0
  187.5320  177.6590  147.2530 C   0  0  0  0  0  0  0  0  0  0  0  0
  1  3  1  0  0  0  0
  2  1  1  0  0  0  0
  3 15  1  0  0  0  0
  4  1  2  0  0  0  0
  5  6  1  0  0  0  0
  6  2  1  1  0  0  0
  7 10  1  0  0  0  0
  7 11  1  0  0  0  0
  8  6  1  0  0  0  0
 10  9  1  6  0  0  0
 10  5  1  0  0  0  0
 11 12  1  6  0  0  0
 11  8  1  0  0  0  0
 12 14  1  0  0  0  0
 13 14  1  0  0  0  0
 15 19  1  0  0  0  0
 16 20  1  0  0  0  0
 17 21  2  0  0  0  0
 17 19  1  0  0  0  0
 18 16  2  0  0  0  0
 19 24  2  0  0  0  0
 21 23  1  0  0  0  0
 22 21  1  0  0  0  0
 22 18  1  0  0  0  0
 23 24  1  0  0  0  0
 23 20  2  0  0  0  0
 24 26  1  0  0  0  0
 26 25  3  0  0  0  0
M  END
>  <MODEL>
1

>  <REMARK>
 VINA RESULT:      -7.6      0.000      0.000
  Name = 
  6 active torsions:
  status: ('A' for Active; 'I' for Inactive)
    1  A    between atoms: C_5  and  N_8
    2  A    between atoms: C_7  and  C_16
    3  A    between atoms: C_7  and  N_23
    4  A    between atoms: O_13  and  N_24
    5  A    between atoms: C_21  and  C_22
    6  A    between atoms: N_24  and  C_25
                            x       y       z     vdW  Elec       q    Type
                         _______ _______ _______ _____ _____    ______ ____

>  <TORSDO>
F 6

$$$$
=
 OpenBabel10232407523D

 26 28  0  0  1  0  0  0  0  0999 V2000
  190.7840  177.1520  141.8230 C   0  0  0  0  0  0  0  0  0  0  0  0
  189.8730  177.0240  140.7260 N   0  0  0  0  0  2  0  0  0  0  0  0
  190.4700  176.5730  143.0920 N   0  0  0  0  0  2  0  0  0  0  0  0
  191.9060  177.7760  141.6740 N   0  0  0  0  0  2  0  0  0  0  0  0
  190.4400  176.4550  138.4300 C   0  0  0  0  0  2  0  0  0  0  0  0
  190.1220  177.5880  139.4090 C   0  0  1  0  0  3  0  0  0  0  0  0
  188.4180  177.0230  136.6200 S   0  0  0  0  0  0  0  0  0  0  0  0
  188.9360  178.4590  138.9720 C   0  0  0  0  0  2  0  0  0  0  0  0
  190.8320  175.8680  136.0550 C   0  0  0  0  0  1  0  0  0  0  0  0
  190.2080  176.8820  136.9890 C   0  0  2  0  0  3  0  0  0  0  0  0
  187.8630  177.6360  138.2620 C   0  0  1  0  0  3  0  0  0  0  0  0
  186.6160  178.3860  138.1450 N   0  0  0  0  0  2  0  0  0  0  0  0
  184.8260  178.7850  139.3150 C   0  0  0  0  0  1  0  0  0  0  0  0
  186.2170  178.7590  139.3880 O   0  0  0  0  0  0  0  0  0  0  0  0
  189.2430  175.8290  143.3400 C   0  0  0  0  0  2  0  0  0  0  0  0
  185.3850  179.2060  146.2650 N   0  0  0  0  0  0  0  0  0  0  0  0
  187.0800  177.0920  143.2840 N   0  0  0  0  0  0  0  0  0  0  0  0
  184.6980  179.1290  145.0740 C   0  0  0  0  0  3  0  0  0  0  0  0
  188.2070  176.7150  143.9530 C   0  0  0  0  0  0  0  0  0  0  0  0
  186.5740  178.6120  146.4430 N   0  0  0  0  0  0  0  0  0  0  0  0
  186.4060  177.8360  144.1780 C   0  0  0  0  0  0  0  0  0  0  0  0
  185.2080  178.4340  144.0110 N   0  0  0  0  0  2  0  0  0  0  0  0
  187.0970  177.9270  145.4060 C   0  0  0  0  0  0  0  0  0  0  0  0
  188.2490  177.2070  145.2630 C   0  0  0  0  0  0  0  0  0  0  0  0
  190.0860  176.8140  147.0550 N   0  0  0  0  0  0  0  0  0  0  0  0
  189.2680  176.9890  146.2560 C   0  0  0  0  0  0  0  0  0  0  0  0
  1  3  1  0  0  0  0
  2  1  1  0  0  0  0
  3 15  1  0  0  0  0
  4  1  2  0  0  0  0
  5  6  1  0  0  0  0
  6  2  1  1  0  0  0
  7 10  1  0  0  0  0
  7 11  1  0  0  0  0
  8  6  1  0  0  0  0
 10  9  1  6  0  0  0
 10  5  1  0  0  0  0
 11 12  1  6  0  0  0
 11  8  1  0  0  0  0
 12 14  1  0  0  0  0
 13 14  1  0  0  0  0
 15 19  1  0  0  0  0
 16 20  1  0  0  0  0
 17 19  1  0  0  0  0
 17 21  2  0  0  0  0
 18 16  2  0  0  0  0
 19 24  2  0  0  0  0
 21 23  1  0  0  0  0
 22 21  1  0  0  0  0
 22 18  1  0  0  0  0
 23 20  2  0  0  0  0
 24 23  1  0  0  0  0
 24 26  1  0  0  0  0
 26 25  3  0  0  0  0
M  END
>  <MODEL>
2

>  <REMARK>
 VINA RESULT:      -7.4      1.266      1.417
  Name = 
  6 active torsions:
  status: ('A' for Active; 'I' for Inactive)
    1  A    between atoms: C_5  and  N_8
    2  A    between atoms: C_7  and  C_16
    3  A    between atoms: C_7  and  N_23
    4  A    between atoms: O_13  and  N_24
    5  A    between atoms: C_21  and  C_22
    6  A    between atoms: N_24  and  C_25
                            x       y       z     vdW  Elec       q    Type
                         _______ _______ _______ _____ _____    ______ ____

>  <TORSDO>
F 6

$$$$
=
 OpenBabel10232407523D

 26 28  0  0  1  0  0  0  0  0999 V2000
  190.8040  177.1800  141.2060 C   0  0  0  0  0  0  0  0  0  0  0  0
  189.8130  177.1280  140.1740 N   0  0  0  0  0  2  0  0  0  0  0  0
  190.4680  176.8170  142.5470 N   0  0  0  0  0  2  0  0  0  0  0  0
  192.0160  177.5390  140.9330 N   0  0  0  0  0  2  0  0  0  0  0  0
  190.1360  176.2110  137.9450 C   0  0  0  0  0  2  0  0  0  0  0  0
  190.0790  177.4860  138.7900 C   0  0  1  0  0  3  0  0  0  0  0  0
  188.1420  176.9280  136.1570 S   0  0  0  0  0  0  0  0  0  0  0  0
  189.0400  178.5020  138.2950 C   0  0  0  0  0  2  0  0  0  0  0  0
  190.2780  175.2980  135.6450 C   0  0  0  0  0  1  0  0  0  0  0  0
  189.8980  176.5070  136.4720 C   0  0  2  0  0  3  0  0  0  0  0  0
  187.8000  177.8110  137.7320 C   0  0  1  0  0  3  0  0  0  0  0  0
  186.6990  178.7560  137.5720 N   0  0  0  0  0  2  0  0  0  0  0  0
  184.7310  178.3050  138.3830 C   0  0  0  0  0  1  0  0  0  0  0  0
  185.9890  178.7940  138.7280 O   0  0  0  0  0  0  0  0  0  0  0  0
  189.1370  176.3730  142.9360 C   0  0  0  0  0  2  0  0  0  0  0  0
  187.4440  178.4790  148.1840 N   0  0  0  0  0  0  0  0  0  0  0  0
  189.7070  176.7270  145.3500 N   0  0  0  0  0  0  0  0  0  0  0  0
  188.6960  178.0430  148.5560 C   0  0  0  0  0  3  0  0  0  0  0  0
  188.8170  176.8310  144.3220 C   0  0  0  0  0  0  0  0  0  0  0  0
  186.9780  178.3320  146.9360 N   0  0  0  0  0  0  0  0  0  0  0  0
  189.0630  177.2750  146.3940 C   0  0  0  0  0  0  0  0  0  0  0  0
  189.5240  177.4330  147.6530 N   0  0  0  0  0  2  0  0  0  0  0  0
  187.7760  177.7290  146.0320 C   0  0  0  0  0  0  0  0  0  0  0  0
  187.6180  177.4470  144.7050 C   0  0  0  0  0  0  0  0  0  0  0  0
  185.5560  177.9780  143.2210 N   0  0  0  0  0  0  0  0  0  0  0  0
  186.4750  177.7420  143.8830 C   0  0  0  0  0  0  0  0  0  0  0  0
  1  3  1  0  0  0  0
  2  1  1  0  0  0  0
  3 15  1  0  0  0  0
  4  1  2  0  0  0  0
  5  6  1  0  0  0  0
  6  2  1  1  0  0  0
  7 10  1  0  0  0  0
  7 11  1  0  0  0  0
  8  6  1  0  0  0  0
 10  9  1  6  0  0  0
 10  5  1  0  0  0  0
 11 12  1  6  0  0  0
 11  8  1  0  0  0  0
 12 14  1  0  0  0  0
 13 14  1  0  0  0  0
 15 19  1  0  0  0  0
 16 18  2  0  0  0  0
 17 21  2  0  0  0  0
 19 24  2  0  0  0  0
 19 17  1  0  0  0  0
 20 16  1  0  0  0  0
 21 22  1  0  0  0  0
 22 18  1  0  0  0  0
 23 21  1  0  0  0  0
 23 20  2  0  0  0  0
 24 23  1  0  0  0  0
 25 26  3  0  0  0  0
 26 24  1  0  0  0  0
M  END
>  <MODEL>
3

>  <REMARK>
 VINA RESULT:      -7.2      1.630      3.091
  Name = 
  6 active torsions:
  status: ('A' for Active; 'I' for Inactive)
    1  A    between atoms: C_5  and  N_8
    2  A    between atoms: C_7  and  C_16
    3  A    between atoms: C_7  and  N_23
    4  A    between atoms: O_13  and  N_24
    5  A    between atoms: C_21  and  C_22
    6  A    between atoms: N_24  and  C_25
                            x       y       z     vdW  Elec       q    Type
                         _______ _______ _______ _____ _____    ______ ____

>  <TORSDO>
F 6

$$$$
=
 OpenBabel10232407523D

 26 28  0  0  1  0  0  0  0  0999 V2000
  190.0670  176.2800  142.4730 C   0  0  0  0  0  0  0  0  0  0  0  0
  189.0000  177.0530  143.0330 N   0  0  0  0  0  2  0  0  0  0  0  0
  190.7320  176.7230  141.2880 N   0  0  0  0  0  2  0  0  0  0  0  0
  190.4500  175.1830  143.0410 N   0  0  0  0  0  2  0  0  0  0  0  0
  188.7470  177.5270  145.4060 C   0  0  0  0  0  2  0  0  0  0  0  0
  188.2740  176.6640  144.2330 C   0  0  1  0  0  3  0  0  0  0  0  0
  186.2570  178.5530  146.0670 S   0  0  0  0  0  0  0  0  0  0  0  0
  186.7610  176.7430  143.9860 C   0  0  0  0  0  2  0  0  0  0  0  0
  188.3510  178.1320  147.7760 C   0  0  0  0  0  1  0  0  0  0  0  0
  187.7210  177.5510  146.5290 C   0  0  2  0  0  3  0  0  0  0  0  0
  186.2150  178.1390  144.2760 C   0  0  1  0  0  3  0  0  0  0  0  0
  184.8670  178.2990  143.7360 N   0  0  0  0  0  2  0  0  0  0  0  0
  185.3000  179.2190  141.8130 C   0  0  0  0  0  1  0  0  0  0  0  0
  184.8010  179.4880  143.0850 O   0  0  0  0  0  0  0  0  0  0  0  0
  190.3850  177.9590  140.6010 C   0  0  0  0  0  2  0  0  0  0  0  0
  186.3380  176.7390  136.4800 N   0  0  0  0  0  2  0  0  0  0  0  0
  188.1300  178.4790  139.6410 N   0  0  0  0  0  0  0  0  0  0  0  0
  185.6630  177.7650  137.1040 C   0  0  0  0  0  3  0  0  0  0  0  0
  189.2670  177.7260  139.6370 C   0  0  0  0  0  0  0  0  0  0  0  0
  187.5420  176.3200  136.8950 N   0  0  0  0  0  0  0  0  0  0  0  0
  187.4110  177.9860  138.6180 C   0  0  0  0  0  0  0  0  0  0  0  0
  186.2010  178.4030  138.1880 N   0  0  0  0  0  0  0  0  0  0  0  0
  188.0880  176.9330  137.9650 C   0  0  0  0  0  0  0  0  0  0  0  0
  189.2770  176.7670  138.6160 C   0  0  0  0  0  0  0  0  0  0  0  0
  191.1550  175.0680  138.0450 N   0  0  0  0  0  0  0  0  0  0  0  0
  190.3180  175.8250  138.3000 C   0  0  0  0  0  0  0  0  0  0  0  0
  1  2  1  0  0  0  0
  1  4  2  0  0  0  0
  3  1  1  0  0  0  0
  5 10  1  0  0  0  0
  6  2  1  6  0  0  0
  6  5  1  0  0  0  0
  7 10  1  0  0  0  0
  8  6  1  0  0  0  0
  8 11  1  0  0  0  0
 10  9  1  1  0  0  0
 11 12  1  1  0  0  0
 11  7  1  0  0  0  0
 13 14  1  0  0  0  0
 14 12  1  0  0  0  0
 15  3  1  0  0  0  0
 16 20  1  0  0  0  0
 16 18  1  0  0  0  0
 18 22  2  0  0  0  0
 19 17  1  0  0  0  0
 19 15  1  0  0  0  0
 20 23  2  0  0  0  0
 21 17  2  0  0  0  0
 22 21  1  0  0  0  0
 23 24  1  0  0  0  0
 23 21  1  0  0  0  0
 24 19  2  0  0  0  0
 25 26  3  0  0  0  0
 26 24  1  0  0  0  0
M  END
>  <MODEL>
4

>  <REMARK>
 VINA RESULT:      -7.0      2.632      6.765
  Name = 
  6 active torsions:
  status: ('A' for Active; 'I' for Inactive)
    1  A    between atoms: C_5  and  N_8
    2  A    between atoms: C_7  and  C_16
    3  A    between atoms: C_7  and  N_23
    4  A    between atoms: O_13  and  N_24
    5  A    between atoms: C_21  and  C_22
    6  A    between atoms: N_24  and  C_25
                            x       y       z     vdW  Elec       q    Type
                         _______ _______ _______ _____ _____    ______ ____

>  <TORSDO>
F 6

$$$$
=
 OpenBabel10232407523D

 26 28  0  0  1  0  0  0  0  0999 V2000
  190.8150  176.5120  143.0020 C   0  0  0  0  0  0  0  0  0  0  0  0
  189.5310  177.0520  143.3310 N   0  0  0  0  0  2  0  0  0  0  0  0
  191.5270  176.9900  141.8590 N   0  0  0  0  0  2  0  0  0  0  0  0
  191.3520  175.5980  143.7440 N   0  0  0  0  0  2  0  0  0  0  0  0
  189.0800  177.4960  145.6800 C   0  0  0  0  0  2  0  0  0  0  0  0
  188.7470  176.6130  144.4750 C   0  0  1  0  0  3  0  0  0  0  0  0
  186.4920  178.3640  146.1630 S   0  0  0  0  0  0  0  0  0  0  0  0
  187.2530  176.6010  144.1210 C   0  0  0  0  0  2  0  0  0  0  0  0
  188.4800  178.0610  148.0160 C   0  0  0  0  0  1  0  0  0  0  0  0
  187.9780  177.4500  146.7260 C   0  0  2  0  0  3  0  0  0  0  0  0
  186.6030  177.9590  144.3730 C   0  0  1  0  0  3  0  0  0  0  0  0
  185.2910  178.0400  143.7370 N   0  0  0  0  0  2  0  0  0  0  0  0
  183.5670  179.3270  144.0610 C   0  0  0  0  0  1  0  0  0  0  0  0
  184.9100  179.3420  143.6940 O   0  0  0  0  0  0  0  0  0  0  0  0
  191.0120  178.0360  140.9870 C   0  0  0  0  0  2  0  0  0  0  0  0
  187.8920  175.7690  136.5170 N   0  0  0  0  0  2  0  0  0  0  0  0
  191.0260  176.6830  138.8780 N   0  0  0  0  0  0  0  0  0  0  0  0
  189.1230  175.2630  136.1590 C   0  0  0  0  0  3  0  0  0  0  0  0
  190.3470  177.4390  139.7890 C   0  0  0  0  0  0  0  0  0  0  0  0
  187.7250  176.5390  137.6020 N   0  0  0  0  0  0  0  0  0  0  0  0
  190.0820  176.3110  137.9970 C   0  0  0  0  0  0  0  0  0  0  0  0
  190.2370  175.5320  136.9060 N   0  0  0  0  0  0  0  0  0  0  0  0
  188.8120  176.8210  138.3480 C   0  0  0  0  0  0  0  0  0  0  0  0
  188.9810  177.5410  139.4960 C   0  0  0  0  0  0  0  0  0  0  0  0
  187.1520  178.7880  140.8510 N   0  0  0  0  0  0  0  0  0  0  0  0
  187.9670  178.2320  140.2470 C   0  0  0  0  0  0  0  0  0  0  0  0
  1  2  1  0  0  0  0
  1  4  2  0  0  0  0
  3  1  1  0  0  0  0
  5 10  1  0  0  0  0
  6  2  1  6  0  0  0
  6  5  1  0  0  0  0
  7 10  1  0  0  0  0
  8 11  1  0  0  0  0
  8  6  1  0  0  0  0
 10  9  1  1  0  0  0
 11 12  1  1  0  0  0
 11  7  1  0  0  0  0
 14 12  1  0  0  0  0
 14 13  1  0  0  0  0
 15  3  1  0  0  0  0
 16 20  1  0  0  0  0
 17 19  1  0  0  0  0
 18 16  1  0  0  0  0
 18 22  2  0  0  0  0
 19 15  1  0  0  0  0
 20 23  2  0  0  0  0
 21 23  1  0  0  0  0
 21 17  2  0  0  0  0
 22 21  1  0  0  0  0
 23 24  1  0  0  0  0
 24 19  2  0  0  0  0
 24 26  1  0  0  0  0
 26 25  3  0  0  0  0
M  END
>  <MODEL>
5

>  <REMARK>
 VINA RESULT:      -6.7      2.678      6.942
  Name = 
  6 active torsions:
  status: ('A' for Active; 'I' for Inactive)
    1  A    between atoms: C_5  and  N_8
    2  A    between atoms: C_7  and  C_16
    3  A    between atoms: C_7  and  N_23
    4  A    between atoms: O_13  and  N_24
    5  A    between atoms: C_21  and  C_22
    6  A    between atoms: N_24  and  C_25
                            x       y       z     vdW  Elec       q    Type
                         _______ _______ _______ _____ _____    ______ ____

>  <TORSDO>
F 6

$$$$
=
 OpenBabel10232407523D

 26 28  0  0  1  0  0  0  0  0999 V2000
  188.9620  178.2770  139.4710 C   0  0  0  0  0  0  0  0  0  0  0  0
  189.7560  177.1000  139.2860 N   0  0  0  0  0  2  0  0  0  0  0  0
  188.2310  178.4710  140.6830 N   0  0  0  0  0  2  0  0  0  0  0  0
  188.9130  179.1850  138.5510 N   0  0  0  0  0  2  0  0  0  0  0  0
  191.7940  176.0640  138.4550 C   0  0  0  0  0  2  0  0  0  0  0  0
  190.5240  176.8330  138.0800 C   0  0  1  0  0  3  0  0  0  0  0  0
  191.3310  173.8730  136.8210 S   0  0  0  0  0  0  0  0  0  0  0  0
  189.6520  176.1060  137.0470 C   0  0  0  0  0  2  0  0  0  0  0  0
  193.7690  174.8510  137.5810 C   0  0  0  0  0  1  0  0  0  0  0  0
  192.3670  175.3200  137.2590 C   0  0  2  0  0  3  0  0  0  0  0  0
  189.6920  174.5920  137.2400 C   0  0  1  0  0  3  0  0  0  0  0  0
  188.6270  173.9370  136.4860 N   0  0  0  0  0  2  0  0  0  0  0  0
  186.5320  173.7230  137.0320 C   0  0  0  0  0  1  0  0  0  0  0  0
  187.4860  174.6570  136.6330 O   0  0  0  0  0  0  0  0  0  0  0  0
  188.2530  177.5150  141.7820 C   0  0  0  0  0  2  0  0  0  0  0  0
  184.4400  178.5860  146.1590 N   0  0  0  0  0  0  0  0  0  0  0  0
  185.9510  178.2530  142.4400 N   0  0  0  0  0  0  0  0  0  0  0  0
  183.6000  178.8780  145.1070 C   0  0  0  0  0  3  0  0  0  0  0  0
  187.2070  177.8560  142.7930 C   0  0  0  0  0  0  0  0  0  0  0  0
  185.7130  178.2090  145.9730 N   0  0  0  0  0  0  0  0  0  0  0  0
  185.3210  178.4200  143.6150 C   0  0  0  0  0  0  0  0  0  0  0  0
  184.0390  178.7940  143.8140 N   0  0  0  0  0  2  0  0  0  0  0  0
  186.1670  178.1250  144.7060 C   0  0  0  0  0  0  0  0  0  0  0  0
  187.3740  177.7620  144.1810 C   0  0  0  0  0  0  0  0  0  0  0  0
  189.4940  177.0230  145.4830 N   0  0  0  0  0  0  0  0  0  0  0  0
  188.5490  177.3520  144.9020 C   0  0  0  0  0  0  0  0  0  0  0  0
  1  3  1  0  0  0  0
  2  1  1  0  0  0  0
  3 15  1  0  0  0  0
  4  1  2  0  0  0  0
  6  5  1  0  0  0  0
  6  2  1  1  0  0  0
  7 11  1  0  0  0  0
  7 10  1  0  0  0  0
  8 11  1  0  0  0  0
  8  6  1  0  0  0  0
 10  9  1  1  0  0  0
 10  5  1  0  0  0  0
 11 12  1  6  0  0  0
 12 14  1  0  0  0  0
 14 13  1  0  0  0  0
 15 19  1  0  0  0  0
 17 19  1  0  0  0  0
 17 21  2  0  0  0  0
 18 16  2  0  0  0  0
 19 24  2  0  0  0  0
 20 16  1  0  0  0  0
 21 22  1  0  0  0  0
 21 23  1  0  0  0  0
 22 18  1  0  0  0  0
 23 20  2  0  0  0  0
 24 23  1  0  0  0  0
 24 26  1  0  0  0  0
 26 25  3  0  0  0  0
M  END
>  <MODEL>
6

>  <REMARK>
 VINA RESULT:      -6.6      2.381      3.219
  Name = 
  6 active torsions:
  status: ('A' for Active; 'I' for Inactive)
    1  A    between atoms: C_5  and  N_8
    2  A    between atoms: C_7  and  C_16
    3  A    between atoms: C_7  and  N_23
    4  A    between atoms: O_13  and  N_24
    5  A    between atoms: C_21  and  C_22
    6  A    between atoms: N_24  and  C_25
                            x       y       z     vdW  Elec       q    Type
                         _______ _______ _______ _____ _____    ______ ____

>  <TORSDO>
F 6

$$$$
=
 OpenBabel10232407523D

 26 28  0  0  1  0  0  0  0  0999 V2000
  189.0750  177.8780  139.8290 C   0  0  0  0  0  0  0  0  0  0  0  0
  189.9990  176.8620  139.4250 N   0  0  0  0  0  2  0  0  0  0  0  0
  188.5770  177.9070  141.1690 N   0  0  0  0  0  2  0  0  0  0  0  0
  188.6950  178.7880  138.9940 N   0  0  0  0  0  2  0  0  0  0  0  0
  192.0090  176.3240  138.1640 C   0  0  0  0  0  2  0  0  0  0  0  0
  190.5460  176.7660  138.0800 C   0  0  1  0  0  3  0  0  0  0  0  0
  191.7480  174.0630  136.5810 S   0  0  0  0  0  0  0  0  0  0  0  0
  189.6760  175.8410  137.2180 C   0  0  0  0  0  2  0  0  0  0  0  0
  193.9930  175.5980  136.8690 C   0  0  0  0  0  1  0  0  0  0  0  0
  192.4850  175.7190  136.8520 C   0  0  2  0  0  3  0  0  0  0  0  0
  190.1070  174.3820  137.3460 C   0  0  1  0  0  3  0  0  0  0  0  0
  189.0930  173.4840  136.7990 N   0  0  0  0  0  2  0  0  0  0  0  0
  186.9840  172.9810  136.9710 C   0  0  0  0  0  1  0  0  0  0  0  0
  187.8730  174.0530  136.9710 O   0  0  0  0  0  0  0  0  0  0  0  0
  188.9750  176.9390  142.1810 C   0  0  0  0  0  2  0  0  0  0  0  0
  187.2100  178.1730  147.6780 N   0  0  0  0  0  0  0  0  0  0  0  0
  187.1110  177.6870  143.6800 N   0  0  0  0  0  0  0  0  0  0  0  0
  186.0120  178.4110  147.0410 C   0  0  0  0  0  3  0  0  0  0  0  0
  188.4130  177.3160  143.5140 C   0  0  0  0  0  0  0  0  0  0  0  0
  188.3110  177.7980  147.0110 N   0  0  0  0  0  0  0  0  0  0  0  0
  187.0010  177.9010  145.0020 C   0  0  0  0  0  0  0  0  0  0  0  0
  185.8970  178.2730  145.6850 N   0  0  0  0  0  2  0  0  0  0  0  0
  188.2210  177.6610  145.6720 C   0  0  0  0  0  0  0  0  0  0  0  0
  189.1250  177.2850  144.7200 C   0  0  0  0  0  0  0  0  0  0  0  0
  191.6060  176.6200  145.0880 N   0  0  0  0  0  0  0  0  0  0  0  0
  190.5000  176.9160  144.9240 C   0  0  0  0  0  0  0  0  0  0  0  0
  1  3  1  0  0  0  0
  2  1  1  0  0  0  0
  3 15  1  0  0  0  0
  4  1  2  0  0  0  0
  6  5  1  0  0  0  0
  6  2  1  1  0  0  0
  7 10  1  0  0  0  0
  7 11  1  0  0  0  0
  8 11  1  0  0  0  0
  8  6  1  0  0  0  0
 10  9  1  1  0  0  0
 10  5  1  0  0  0  0
 11 12  1  6  0  0  0
 12 14  1  0  0  0  0
 14 13  1  0  0  0  0
 15 19  1  0  0  0  0
 17 21  2  0  0  0  0
 18 16  2  0  0  0  0
 19 17  1  0  0  0  0
 19 24  2  0  0  0  0
 20 16  1  0  0  0  0
 21 23  1  0  0  0  0
 21 22  1  0  0  0  0
 22 18  1  0  0  0  0
 23 20  2  0  0  0  0
 24 26  1  0  0  0  0
 24 23  1  0  0  0  0
 26 25  3  0  0  0  0
M  END
>  <MODEL>
7

>  <REMARK>
 VINA RESULT:      -6.5      2.499      3.721
  Name = 
  6 active torsions:
  status: ('A' for Active; 'I' for Inactive)
    1  A    between atoms: C_5  and  N_8
    2  A    between atoms: C_7  and  C_16
    3  A    between atoms: C_7  and  N_23
    4  A    between atoms: O_13  and  N_24
    5  A    between atoms: C_21  and  C_22
    6  A    between atoms: N_24  and  C_25
                            x       y       z     vdW  Elec       q    Type
                         _______ _______ _______ _____ _____    ______ ____

>  <TORSDO>
F 6

$$$$
=
 OpenBabel10232407523D

 26 28  0  0  1  0  0  0  0  0999 V2000
  185.5430  178.5910  140.7980 C   0  0  0  0  0  0  0  0  0  0  0  0
  184.1410  178.3320  140.9210 N   0  0  0  0  0  2  0  0  0  0  0  0
  186.3770  178.6120  141.9590 N   0  0  0  0  0  2  0  0  0  0  0  0
  186.0730  178.7910  139.6350 N   0  0  0  0  0  2  0  0  0  0  0  0
  182.6490  176.8880  139.6530 C   0  0  0  0  0  2  0  0  0  0  0  0
  183.2300  178.2980  139.7880 C   0  0  1  0  0  3  0  0  0  0  0  0
  179.9820  177.6250  139.8320 S   0  0  0  0  0  0  0  0  0  0  0  0
  182.1590  179.3880  139.9350 C   0  0  0  0  0  2  0  0  0  0  0  0
  180.9900  175.4750  138.4740 C   0  0  0  0  0  1  0  0  0  0  0  0
  181.3520  176.8930  138.8580 C   0  0  2  0  0  3  0  0  0  0  0  0
  180.9580  178.8940  140.7360 C   0  0  1  0  0  3  0  0  0  0  0  0
  180.1080  180.0070  141.1500 N   0  0  0  0  0  2  0  0  0  0  0  0
  180.6900  179.0680  143.0240 C   0  0  0  0  0  1  0  0  0  0  0  0
  180.3770  180.2980  142.4490 O   0  0  0  0  0  0  0  0  0  0  0  0
  185.8700  178.3680  143.3010 C   0  0  0  0  0  2  0  0  0  0  0  0
  189.9640  177.0490  147.3440 N   0  0  0  0  0  0  0  0  0  0  0  0
  188.2230  177.6420  143.7600 N   0  0  0  0  0  0  0  0  0  0  0  0
  190.7450  176.8670  146.2240 C   0  0  0  0  0  3  0  0  0  0  0  0
  186.9830  177.9750  144.2180 C   0  0  0  0  0  0  0  0  0  0  0  0
  188.6740  177.4050  147.2650 N   0  0  0  0  0  0  0  0  0  0  0  0
  188.9280  177.3980  144.8780 C   0  0  0  0  0  0  0  0  0  0  0  0
  190.2270  177.0440  144.9700 N   0  0  0  0  0  2  0  0  0  0  0  0
  188.1430  177.5790  146.0380 C   0  0  0  0  0  0  0  0  0  0  0  0
  186.8980  177.9510  145.6160 C   0  0  0  0  0  0  0  0  0  0  0  0
  184.8450  178.5250  147.0980 N   0  0  0  0  0  0  0  0  0  0  0  0
  185.7600  178.2690  146.4370 C   0  0  0  0  0  0  0  0  0  0  0  0
  1  2  1  0  0  0  0
  1  3  1  0  0  0  0
  3 15  1  0  0  0  0
  4  1  2  0  0  0  0
  5  6  1  0  0  0  0
  6  8  1  0  0  0  0
  6  2  1  1  0  0  0
  7 11  1  0  0  0  0
  8 11  1  0  0  0  0
 10  9  1  1  0  0  0
 10  5  1  0  0  0  0
 10  7  1  0  0  0  0
 11 12  1  6  0  0  0
 12 14  1  0  0  0  0
 14 13  1  0  0  0  0
 15 19  1  0  0  0  0
 17 19  1  0  0  0  0
 17 21  2  0  0  0  0
 18 16  2  0  0  0  0
 19 24  2  0  0  0  0
 20 16  1  0  0  0  0
 21 22  1  0  0  0  0
 21 23  1  0  0  0  0
 22 18  1  0  0  0  0
 23 20  2  0  0  0  0
 24 23  1  0  0  0  0
 24 26  1  0  0  0  0
 26 25  3  0  0  0  0
M  END
>  <MODEL>
8

>  <REMARK>
 VINA RESULT:      -6.5      3.589      6.035
  Name = 
  6 active torsions:
  status: ('A' for Active; 'I' for Inactive)
    1  A    between atoms: C_5  and  N_8
    2  A    between atoms: C_7  and  C_16
    3  A    between atoms: C_7  and  N_23
    4  A    between atoms: O_13  and  N_24
    5  A    between atoms: C_21  and  C_22
    6  A    between atoms: N_24  and  C_25
                            x       y       z     vdW  Elec       q    Type
                         _______ _______ _______ _____ _____    ______ ____

>  <TORSDO>
F 6

$$$$
=
 OpenBabel10232407523D

 26 28  0  0  1  0  0  0  0  0999 V2000
  189.0460  177.9300  140.8240 C   0  0  0  0  0  0  0  0  0  0  0  0
  189.5770  177.6300  142.1190 N   0  0  0  0  0  2  0  0  0  0  0  0
  189.5070  177.2180  139.6740 N   0  0  0  0  0  2  0  0  0  0  0  0
  188.1330  178.8350  140.6840 N   0  0  0  0  0  2  0  0  0  0  0  0
  187.9430  177.5960  143.9210 C   0  0  0  0  0  2  0  0  0  0  0  0
  189.1610  178.3140  143.3340 C   0  0  1  0  0  3  0  0  0  0  0  0
  189.0520  177.0740  146.4080 S   0  0  0  0  0  0  0  0  0  0  0  0
  190.3380  178.4210  144.3130 C   0  0  0  0  0  2  0  0  0  0  0  0
  186.4010  177.4560  145.8550 C   0  0  0  0  0  1  0  0  0  0  0  0
  187.7700  177.9100  145.3990 C   0  0  2  0  0  3  0  0  0  0  0  0
  190.4410  177.1890  145.2090 C   0  0  1  0  0  3  0  0  0  0  0  0
  191.7280  177.1430  145.8960 N   0  0  0  0  0  2  0  0  0  0  0  0
  192.3570  175.7900  147.4790 C   0  0  0  0  0  1  0  0  0  0  0  0
  191.5110  176.8620  147.2060 O   0  0  0  0  0  0  0  0  0  0  0  0
  190.5090  176.1640  139.7450 C   0  0  0  0  0  2  0  0  0  0  0  0
  193.3770  175.7300  134.6040 N   0  0  0  0  0  2  0  0  0  0  0  0
  192.6390  176.5400  138.4800 N   0  0  0  0  0  0  0  0  0  0  0  0
  194.4130  176.2470  135.3500 C   0  0  0  0  0  3  0  0  0  0  0  0
  191.3350  176.1420  138.4990 C   0  0  0  0  0  0  0  0  0  0  0  0
  192.1640  175.5030  135.1270 N   0  0  0  0  0  0  0  0  0  0  0  0
  193.0230  176.3330  137.2090 C   0  0  0  0  0  0  0  0  0  0  0  0
  194.2420  176.5530  136.6730 N   0  0  0  0  0  0  0  0  0  0  0  0
  191.9730  175.8030  136.4270 C   0  0  0  0  0  0  0  0  0  0  0  0
  190.8920  175.6790  137.2540 C   0  0  0  0  0  0  0  0  0  0  0  0
  188.5480  174.7460  136.6430 N   0  0  0  0  0  0  0  0  0  0  0  0
  189.5930  175.1610  136.9150 C   0  0  0  0  0  0  0  0  0  0  0  0
  1  2  1  0  0  0  0
  3 15  1  0  0  0  0
  3  1  1  0  0  0  0
  4  1  2  0  0  0  0
  5 10  1  0  0  0  0
  6  2  1  6  0  0  0
  6  5  1  0  0  0  0
  6  8  1  0  0  0  0
  8 11  1  0  0  0  0
 10  9  1  1  0  0  0
 10  7  1  0  0  0  0
 11 12  1  1  0  0  0
 11  7  1  0  0  0  0
 12 14  1  0  0  0  0
 14 13  1  0  0  0  0
 16 20  1  0  0  0  0
 16 18  1  0  0  0  0
 17 19  1  0  0  0  0
 18 22  2  0  0  0  0
 19 15  1  0  0  0  0
 20 23  2  0  0  0  0
 21 17  2  0  0  0  0
 22 21  1  0  0  0  0
 23 21  1  0  0  0  0
 23 24  1  0  0  0  0
 24 19  2  0  0  0  0
 25 26  3  0  0  0  0
 26 24  1  0  0  0  0
M  END
>  <MODEL>
9

>  <REMARK>
 VINA RESULT:      -6.5      4.122      9.134
  Name = 
  6 active torsions:
  status: ('A' for Active; 'I' for Inactive)
    1  A    between atoms: C_5  and  N_8
    2  A    between atoms: C_7  and  C_16
    3  A    between atoms: C_7  and  N_23
    4  A    between atoms: O_13  and  N_24
    5  A    between atoms: C_21  and  C_22
    6  A    between atoms: N_24  and  C_25
                            x       y       z     vdW  Elec       q    Type
                         _______ _______ _______ _____ _____    ______ ____

>  <TORSDO>
F 6

$$$$
