=
 OpenBabel10232411493D

 47 52  0  0  1  0  0  0  0  0999 V2000
  186.8650  178.6370  141.1920 C   0  0  0  0  0  3  0  0  0  0  0  0
  183.9800  178.8370  142.2030 C   0  0  0  0  0  0  0  0  0  0  0  0
  186.9240  177.2950  144.6750 C   0  0  1  0  0  3  0  0  0  0  0  0
  184.0090  178.8480  140.8560 C   0  0  0  0  0  3  0  0  0  0  0  0
  182.6340  178.8400  144.2090 N   0  0  0  0  0  0  0  0  0  0  0  0
  188.3480  176.6890  142.6460 C   0  0  0  0  0  2  0  0  0  0  0  0
  181.2910  179.9950  138.7010 C   0  0  2  0  0  3  0  0  0  0  0  0
  184.9480  178.1960  144.3330 N   0  0  1  0  0  0  0  0  0  0  0  0
  185.2240  178.9180  143.0730 C   0  0  1  0  0  3  0  0  0  0  0  0
  188.1340  178.1180  140.6400 C   0  0  0  0  0  0  0  0  0  0  0  0
  188.8520  177.2220  141.3310 C   0  0  0  0  0  3  0  0  0  0  0  0
  186.0390  178.2820  145.1450 O   0  0  0  0  0  0  0  0  0  0  0  0
  186.5200  178.3950  142.4640 C   0  0  0  0  0  0  0  0  0  0  0  0
  182.6710  178.8600  142.9120 C   0  0  0  0  0  0  0  0  0  0  0  0
  180.7740  179.8570  140.0500 N   0  0  0  0  0  0  0  0  0  0  0  0
  182.7440  179.5110  138.7730 C   0  0  0  0  0  2  0  0  0  0  0  0
  182.7690  178.6560  140.0280 C   0  0  2  0  0  3  0  0  0  0  0  0
  181.5630  179.1200  140.7470 C   0  0  0  0  0  0  0  0  0  0  0  0
  181.4620  179.0190  142.1680 N   0  0  0  0  0  2  0  0  0  0  0  0
  187.5670  177.7860  143.3770 C   0  0  1  0  0  3  0  0  0  0  0  0
  183.8490  178.8690  145.0260 C   0  0  0  0  0  2  0  0  0  0  0  0
  188.7550  178.0070  147.7500 C   0  0  0  0  0  2  0  0  0  0  0  0
  189.2980  177.6290  145.4950 C   0  0  0  0  0  2  0  0  0  0  0  0
  189.8510  178.0250  146.7850 N   0  0  0  0  0  0  0  0  0  0  0  0
  187.5240  177.4160  147.0970 C   0  0  0  0  0  2  0  0  0  0  0  0
  187.9680  176.9460  145.7380 C   0  0  1  0  0  3  0  0  0  0  0  0
  191.9570  177.4040  148.2990 O   0  0  0  0  0  0  0  0  0  0  0  0
  190.3070  175.6440  147.8620 O   0  0  0  0  0  0  0  0  0  0  0  0
  191.0180  176.8320  147.2740 S   0  0  0  0  0  0  0  0  0  0  0  0
  191.9460  176.3050  145.8500 C   0  0  0  0  0  2  0  0  0  0  0  0
  192.3250  174.9100  145.9950 N   0  0  0  0  0  1  0  0  0  0  0  0
  181.2300  181.4530  138.2690 C   0  0  0  0  0  2  0  0  0  0  0  0
  180.8170  181.5640  136.8090 C   0  0  0  0  0  2  0  0  0  0  0  0
  180.7270  182.9090  136.4460 O   0  0  0  0  0  1  0  0  0  0  0  0
  188.5910  178.5820  139.2970 C   0  0  0  0  0  2  0  0  0  0  0  0
  187.7170  178.0100  138.1880 C   0  0  0  0  0  2  0  0  0  0  0  0
  188.5420  177.6090  136.9710 C   0  0  1  0  0  3  0  0  0  0  0  0
  189.3390  178.6810  136.5630 O   0  0  0  0  0  1  0  0  0  0  0  0
  191.7300  175.5410  137.7470 C   0  0  0  0  0  0  0  0  0  0  0  0
  190.7920  176.5860  137.4670 N   0  0  0  0  0  2  0  0  0  0  0  0
  191.3410  174.3570  137.9230 O   0  0  0  0  0  0  0  0  0  0  0  0
  188.8490  175.2810  137.4360 O   0  0  0  0  0  0  0  0  0  0  0  0
  189.3800  176.4170  137.3040 C   0  0  0  0  0  0  0  0  0  0  0  0
  193.0920  175.8190  137.8060 O   0  0  0  0  0  0  0  0  0  0  0  0
  194.0210  175.1830  136.9380 C   0  0  0  0  0  2  0  0  0  0  0  0
  195.1410  174.5630  137.7470 C   0  0  0  0  0  2  0  0  0  0  0  0
  195.2140  175.1740  138.9980 O   0  0  0  0  0  1  0  0  0  0  0  0
  1 13  2  0  0  0  0
  2 14  1  0  0  0  0
  3 12  1  1  0  0  0
  3 26  1  0  0  0  0
  4  2  2  0  0  0  0
  5 21  1  0  0  0  0
  7 32  1  1  0  0  0
  7 16  1  0  0  0  0
  7 15  1  0  0  0  0
  8 21  1  1  0  0  0
  8 12  1  0  0  0  0
  9  2  1  6  0  0  0
  9  8  1  0  0  0  0
 10  1  1  0  0  0  0
 10 11  2  0  0  0  0
 11  6  1  0  0  0  0
 13  9  1  0  0  0  0
 13 20  1  0  0  0  0
 14  5  2  0  0  0  0
 15 18  2  0  0  0  0
 17 16  1  6  0  0  0
 17 18  1  0  0  0  0
 17  4  1  0  0  0  0
 18 19  1  0  0  0  0
 19 14  1  0  0  0  0
 20  6  1  6  0  0  0
 20  3  1  0  0  0  0
 23 24  1  0  0  0  0
 24 29  1  0  0  0  0
 24 22  1  0  0  0  0
 25 22  1  0  0  0  0
 26 23  1  6  0  0  0
 26 25  1  0  0  0  0
 29 28  2  0  0  0  0
 29 27  2  0  0  0  0
 30 31  1  0  0  0  0
 30 29  1  0  0  0  0
 33 32  1  0  0  0  0
 34 33  1  0  0  0  0
 35 10  1  0  0  0  0
 36 35  1  0  0  0  0
 37 38  1  1  0  0  0
 37 43  1  0  0  0  0
 37 36  1  0  0  0  0
 39 44  1  0  0  0  0
 39 41  2  0  0  0  0
 40 39  1  0  0  0  0
 43 42  2  0  0  0  0
 43 40  1  0  0  0  0
 45 46  1  0  0  0  0
 45 44  1  0  0  0  0
 46 47  1  0  0  0  0
M  END
>  <MODEL>
1

>  <REMARK>
 VINA RESULT:      -8.9      0.000      0.000
  Name = 
  12 active torsions:
  status: ('A' for Active; 'I' for Inactive)
    1  A    between atoms: C_1  and  O_14
    2  A    between atoms: C_4  and  C_28
    3  A    between atoms: C_4  and  C_35
    4  A    between atoms: C_6  and  C_39
    5  A    between atoms: C_8  and  C_30
    6  A    between atoms: C_12  and  C_16
    7  A    between atoms: O_14  and  C_30
    8  A    between atoms: C_16  and  C_19
    9  A    between atoms: C_23  and  C_33
   10  A    between atoms: C_28  and  C_33
   11  A    between atoms: N_31  and  S_32
   12  A    between atoms: S_32  and  C_43
                            x       y       z     vdW  Elec       q    Type
                         _______ _______ _______ _____ _____    ______ ____

>  <TORSDO>
F 12

$$$$
=
 OpenBabel10232411493D

 47 52  0  0  1  0  0  0  0  0999 V2000
  186.8240  178.5670  141.2520 C   0  0  0  0  0  3  0  0  0  0  0  0
  183.9610  178.8210  142.3150 C   0  0  0  0  0  0  0  0  0  0  0  0
  186.9330  177.2740  144.7520 C   0  0  1  0  0  3  0  0  0  0  0  0
  183.9640  178.8120  140.9690 C   0  0  0  0  0  3  0  0  0  0  0  0
  182.6560  178.8700  144.3480 N   0  0  0  0  0  0  0  0  0  0  0  0
  188.3080  176.6210  142.7050 C   0  0  0  0  0  2  0  0  0  0  0  0
  181.2200  179.9640  138.8500 C   0  0  2  0  0  3  0  0  0  0  0  0
  184.9630  178.1970  144.4360 N   0  0  1  0  0  0  0  0  0  0  0  0
  185.2230  178.8970  143.1600 C   0  0  1  0  0  3  0  0  0  0  0  0
  188.0740  178.0230  140.6830 C   0  0  0  0  0  0  0  0  0  0  0  0
  188.7940  177.1280  141.3730 C   0  0  0  0  0  3  0  0  0  0  0  0
  186.0700  178.2800  145.2250 O   0  0  0  0  0  0  0  0  0  0  0  0
  186.5000  178.3480  142.5340 C   0  0  0  0  0  0  0  0  0  0  0  0
  182.6670  178.8710  143.0500 C   0  0  0  0  0  0  0  0  0  0  0  0
  180.7280  179.8530  140.2110 N   0  0  0  0  0  0  0  0  0  0  0  0
  182.6680  179.4620  138.9010 C   0  0  0  0  0  2  0  0  0  0  0  0
  182.7060  178.6250  140.1670 C   0  0  2  0  0  3  0  0  0  0  0  0
  181.5200  179.1150  140.9030 C   0  0  0  0  0  0  0  0  0  0  0  0
  181.4460  179.0360  142.3270 N   0  0  0  0  0  2  0  0  0  0  0  0
  187.5570  177.7380  143.4350 C   0  0  1  0  0  3  0  0  0  0  0  0
  183.8860  178.8940  145.1400 C   0  0  0  0  0  2  0  0  0  0  0  0
  188.8010  177.9830  147.8060 C   0  0  0  0  0  2  0  0  0  0  0  0
  189.3160  177.6190  145.5420 C   0  0  0  0  0  2  0  0  0  0  0  0
  189.8830  178.0120  146.8270 N   0  0  0  0  0  0  0  0  0  0  0  0
  187.5650  177.3880  147.1660 C   0  0  0  0  0  2  0  0  0  0  0  0
  187.9930  176.9270  145.7990 C   0  0  1  0  0  3  0  0  0  0  0  0
  192.0190  177.4000  148.3020 O   0  0  0  0  0  0  0  0  0  0  0  0
  190.3680  175.6330  147.8960 O   0  0  0  0  0  0  0  0  0  0  0  0
  191.0640  176.8240  147.2950 S   0  0  0  0  0  0  0  0  0  0  0  0
  191.9670  176.2990  145.8540 C   0  0  0  0  0  2  0  0  0  0  0  0
  192.3070  174.8910  145.9690 N   0  0  0  0  0  1  0  0  0  0  0  0
  181.1690  181.4160  138.3980 C   0  0  0  0  0  2  0  0  0  0  0  0
  180.8690  181.5060  136.9100 C   0  0  0  0  0  2  0  0  0  0  0  0
  180.6500  182.8380  136.5530 O   0  0  0  0  0  1  0  0  0  0  0  0
  188.5110  178.4610  139.3240 C   0  0  0  0  0  2  0  0  0  0  0  0
  189.9150  177.9630  139.0080 C   0  0  0  0  0  2  0  0  0  0  0  0
  189.9090  176.9410  137.8780 C   0  0  1  0  0  3  0  0  0  0  0  0
  190.0370  175.6530  138.4030 O   0  0  0  0  0  1  0  0  0  0  0  0
  186.2660  176.2310  136.7500 C   0  0  0  0  0  0  0  0  0  0  0  0
  187.5260  176.2500  137.4310 N   0  0  0  0  0  2  0  0  0  0  0  0
  186.0420  177.0140  135.7910 O   0  0  0  0  0  0  0  0  0  0  0  0
  188.5720  177.8970  136.1370 O   0  0  0  0  0  0  0  0  0  0  0  0
  188.6460  177.0740  137.0890 C   0  0  0  0  0  0  0  0  0  0  0  0
  185.2780  175.3280  137.1290 O   0  0  0  0  0  0  0  0  0  0  0  0
  184.9380  174.2120  136.3180 C   0  0  0  0  0  2  0  0  0  0  0  0
  185.6980  172.9870  136.7830 C   0  0  0  0  0  2  0  0  0  0  0  0
  185.6550  172.9050  138.1740 O   0  0  0  0  0  1  0  0  0  0  0  0
  1 13  2  0  0  0  0
  2 14  1  0  0  0  0
  3 12  1  1  0  0  0
  3 26  1  0  0  0  0
  4  2  2  0  0  0  0
  5 21  1  0  0  0  0
  7 32  1  1  0  0  0
  7 16  1  0  0  0  0
  7 15  1  0  0  0  0
  8 21  1  1  0  0  0
  8 12  1  0  0  0  0
  9  2  1  6  0  0  0
  9  8  1  0  0  0  0
 10  1  1  0  0  0  0
 10 11  2  0  0  0  0
 11  6  1  0  0  0  0
 13  9  1  0  0  0  0
 13 20  1  0  0  0  0
 14  5  2  0  0  0  0
 15 18  2  0  0  0  0
 17 16  1  6  0  0  0
 17 18  1  0  0  0  0
 17  4  1  0  0  0  0
 18 19  1  0  0  0  0
 19 14  1  0  0  0  0
 20  6  1  6  0  0  0
 20  3  1  0  0  0  0
 23 24  1  0  0  0  0
 24 29  1  0  0  0  0
 24 22  1  0  0  0  0
 25 22  1  0  0  0  0
 26 23  1  6  0  0  0
 26 25  1  0  0  0  0
 29 28  2  0  0  0  0
 29 27  2  0  0  0  0
 30 31  1  0  0  0  0
 30 29  1  0  0  0  0
 33 32  1  0  0  0  0
 34 33  1  0  0  0  0
 35 10  1  0  0  0  0
 36 35  1  0  0  0  0
 37 38  1  1  0  0  0
 37 36  1  0  0  0  0
 39 44  1  0  0  0  0
 39 40  1  0  0  0  0
 41 39  2  0  0  0  0
 42 43  2  0  0  0  0
 43 40  1  0  0  0  0
 43 37  1  0  0  0  0
 45 46  1  0  0  0  0
 45 44  1  0  0  0  0
 46 47  1  0  0  0  0
M  END
>  <MODEL>
2

>  <REMARK>
 VINA RESULT:      -8.6      1.591      3.091
  Name = 
  12 active torsions:
  status: ('A' for Active; 'I' for Inactive)
    1  A    between atoms: C_1  and  O_14
    2  A    between atoms: C_4  and  C_28
    3  A    between atoms: C_4  and  C_35
    4  A    between atoms: C_6  and  C_39
    5  A    between atoms: C_8  and  C_30
    6  A    between atoms: C_12  and  C_16
    7  A    between atoms: O_14  and  C_30
    8  A    between atoms: C_16  and  C_19
    9  A    between atoms: C_23  and  C_33
   10  A    between atoms: C_28  and  C_33
   11  A    between atoms: N_31  and  S_32
   12  A    between atoms: S_32  and  C_43
                            x       y       z     vdW  Elec       q    Type
                         _______ _______ _______ _____ _____    ______ ____

>  <TORSDO>
F 12

$$$$
=
 OpenBabel10232411493D

 47 52  0  0  1  0  0  0  0  0999 V2000
  189.8150  176.9250  140.2890 C   0  0  0  0  0  3  0  0  0  0  0  0
  188.2230  176.7190  137.6790 C   0  0  0  0  0  0  0  0  0  0  0  0
  192.3040  176.0100  137.6620 C   0  0  1  0  0  3  0  0  0  0  0  0
  187.5590  177.4710  138.5770 C   0  0  0  0  0  3  0  0  0  0  0  0
  188.3020  175.8230  135.4370 N   0  0  0  0  0  0  0  0  0  0  0  0
  192.5790  177.3880  139.7920 C   0  0  0  0  0  2  0  0  0  0  0  0
  183.9980  178.2760  138.4270 C   0  0  2  0  0  3  0  0  0  0  0  0
  190.2990  175.8440  136.7770 N   0  0  1  0  0  0  0  0  0  0  0  0
  189.4810  175.9320  138.0060 C   0  0  1  0  0  3  0  0  0  0  0  0
  190.6830  177.4220  141.3760 C   0  0  0  0  0  0  0  0  0  0  0  0
  191.9910  177.6160  141.1590 C   0  0  0  0  0  3  0  0  0  0  0  0
  191.4190  175.1130  137.0370 O   0  0  0  0  0  0  0  0  0  0  0  0
  190.3420  176.4590  139.1480 C   0  0  0  0  0  0  0  0  0  0  0  0
  187.6630  176.5380  136.3120 C   0  0  0  0  0  0  0  0  0  0  0  0
  184.3920  177.7140  137.1480 N   0  0  0  0  0  0  0  0  0  0  0  0
  185.2910  178.3560  139.2480 C   0  0  0  0  0  2  0  0  0  0  0  0
  186.3820  178.3230  138.1930 C   0  0  2  0  0  3  0  0  0  0  0  0
  185.6700  177.7640  137.0230 C   0  0  0  0  0  0  0  0  0  0  0  0
  186.3680  177.0560  135.9990 N   0  0  0  0  0  2  0  0  0  0  0  0
  191.8420  176.2360  139.1020 C   0  0  1  0  0  3  0  0  0  0  0  0
  189.5400  175.1120  135.7620 C   0  0  0  0  0  2  0  0  0  0  0  0
  195.1390  174.5950  135.8520 C   0  0  0  0  0  2  0  0  0  0  0  0
  193.8270  173.9850  137.7040 C   0  0  0  0  0  2  0  0  0  0  0  0
  194.8760  173.5190  136.8030 N   0  0  0  0  0  0  0  0  0  0  0  0
  194.3690  175.8300  136.2680 C   0  0  0  0  0  2  0  0  0  0  0  0
  193.7430  175.4940  137.5950 C   0  0  1  0  0  3  0  0  0  0  0  0
  196.0900  173.6070  139.1760 O   0  0  0  0  0  0  0  0  0  0  0  0
  196.7300  171.8130  137.6320 O   0  0  0  0  0  0  0  0  0  0  0  0
  196.3220  173.2570  137.7320 S   0  0  0  0  0  0  0  0  0  0  0  0
  197.6280  174.2750  137.0800 C   0  0  0  0  0  2  0  0  0  0  0  0
  197.9480  175.3340  138.0230 N   0  0  0  0  0  1  0  0  0  0  0  0
  182.9850  177.3630  139.1040 C   0  0  0  0  0  2  0  0  0  0  0  0
  182.4880  176.3010  138.1360 C   0  0  0  0  0  2  0  0  0  0  0  0
  182.9640  175.0480  138.5260 O   0  0  0  0  0  1  0  0  0  0  0  0
  190.0830  177.7310  142.7080 C   0  0  0  0  0  2  0  0  0  0  0  0
  190.2840  176.5790  143.6850 C   0  0  0  0  0  2  0  0  0  0  0  0
  191.1570  176.9890  144.8650 C   0  0  1  0  0  3  0  0  0  0  0  0
  191.7400  178.2330  144.6160 O   0  0  0  0  0  1  0  0  0  0  0  0
  188.0440  177.5180  147.1180 C   0  0  0  0  0  0  0  0  0  0  0  0
  188.9530  177.3990  146.0170 N   0  0  0  0  0  2  0  0  0  0  0  0
  188.4130  177.2390  148.2890 O   0  0  0  0  0  0  0  0  0  0  0  0
  190.8440  176.7330  147.2250 O   0  0  0  0  0  0  0  0  0  0  0  0
  190.3310  177.0250  146.1110 C   0  0  0  0  0  0  0  0  0  0  0  0
  186.7440  177.9670  146.9090 O   0  0  0  0  0  0  0  0  0  0  0  0
  186.1380  177.9230  145.6240 C   0  0  0  0  0  2  0  0  0  0  0  0
  185.2470  179.1330  145.4320 C   0  0  0  0  0  2  0  0  0  0  0  0
  183.9890  178.8830  145.9780 O   0  0  0  0  0  1  0  0  0  0  0  0
  1 10  1  0  0  0  0
  2  4  2  0  0  0  0
  3 12  1  1  0  0  0
  3 20  1  0  0  0  0
  5 21  1  0  0  0  0
  5 14  2  0  0  0  0
  6 11  1  0  0  0  0
  7 32  1  1  0  0  0
  7 16  1  0  0  0  0
  8 21  1  6  0  0  0
  8 12  1  0  0  0  0
  8  9  1  0  0  0  0
  9  2  1  6  0  0  0
  9 13  1  0  0  0  0
 10 35  1  0  0  0  0
 11 10  2  0  0  0  0
 13  1  2  0  0  0  0
 14  2  1  0  0  0  0
 15  7  1  0  0  0  0
 17  4  1  1  0  0  0
 17 16  1  0  0  0  0
 18 15  2  0  0  0  0
 18 17  1  0  0  0  0
 19 14  1  0  0  0  0
 19 18  1  0  0  0  0
 20 13  1  0  0  0  0
 20  6  1  6  0  0  0
 22 25  1  0  0  0  0
 22 24  1  0  0  0  0
 24 23  1  0  0  0  0
 24 29  1  0  0  0  0
 26 25  1  6  0  0  0
 26  3  1  0  0  0  0
 26 23  1  0  0  0  0
 28 29  2  0  0  0  0
 29 27  2  0  0  0  0
 30 29  1  0  0  0  0
 30 31  1  0  0  0  0
 33 34  1  0  0  0  0
 33 32  1  0  0  0  0
 35 36  1  0  0  0  0
 36 37  1  0  0  0  0
 37 38  1  6  0  0  0
 37 43  1  0  0  0  0
 39 41  2  0  0  0  0
 40 43  1  0  0  0  0
 40 39  1  0  0  0  0
 43 42  2  0  0  0  0
 44 39  1  0  0  0  0
 45 44  1  0  0  0  0
 46 45  1  0  0  0  0
 46 47  1  0  0  0  0
M  END
>  <MODEL>
3

>  <REMARK>
 VINA RESULT:      -8.5      3.403      8.947
  Name = 
  12 active torsions:
  status: ('A' for Active; 'I' for Inactive)
    1  A    between atoms: C_1  and  O_14
    2  A    between atoms: C_4  and  C_28
    3  A    between atoms: C_4  and  C_35
    4  A    between atoms: C_6  and  C_39
    5  A    between atoms: C_8  and  C_30
    6  A    between atoms: C_12  and  C_16
    7  A    between atoms: O_14  and  C_30
    8  A    between atoms: C_16  and  C_19
    9  A    between atoms: C_23  and  C_33
   10  A    between atoms: C_28  and  C_33
   11  A    between atoms: N_31  and  S_32
   12  A    between atoms: S_32  and  C_43
                            x       y       z     vdW  Elec       q    Type
                         _______ _______ _______ _____ _____    ______ ____

>  <TORSDO>
F 12

$$$$
=
 OpenBabel10232411493D

 47 52  0  0  1  0  0  0  0  0999 V2000
  189.8320  176.8420  140.0020 C   0  0  0  0  0  3  0  0  0  0  0  0
  188.2310  176.5940  137.4010 C   0  0  0  0  0  0  0  0  0  0  0  0
  192.3250  175.9620  137.3660 C   0  0  1  0  0  3  0  0  0  0  0  0
  187.5570  177.3370  138.3000 C   0  0  0  0  0  3  0  0  0  0  0  0
  188.3150  175.6890  135.1630 N   0  0  0  0  0  0  0  0  0  0  0  0
  192.5850  177.3550  139.4880 C   0  0  0  0  0  2  0  0  0  0  0  0
  183.9810  178.0740  138.1650 C   0  0  2  0  0  3  0  0  0  0  0  0
  190.3180  175.7540  136.4920 N   0  0  1  0  0  0  0  0  0  0  0  0
  189.5060  175.8320  137.7250 C   0  0  1  0  0  3  0  0  0  0  0  0
  190.6960  177.3600  141.0820 C   0  0  0  0  0  0  0  0  0  0  0  0
  191.9990  177.5780  140.8570 C   0  0  0  0  0  3  0  0  0  0  0  0
  191.4530  175.0460  136.7490 O   0  0  0  0  0  0  0  0  0  0  0  0
  190.3620  176.3810  138.8610 C   0  0  0  0  0  0  0  0  0  0  0  0
  187.6670  176.3960  136.0380 C   0  0  0  0  0  0  0  0  0  0  0  0
  184.3790  177.5140  136.8870 N   0  0  0  0  0  0  0  0  0  0  0  0
  185.2760  178.1830  138.9790 C   0  0  0  0  0  2  0  0  0  0  0  0
  186.3620  178.1660  137.9180 C   0  0  2  0  0  3  0  0  0  0  0  0
  185.6550  177.5880  136.7550 C   0  0  0  0  0  0  0  0  0  0  0  0
  186.3610  176.8880  135.7300 N   0  0  0  0  0  2  0  0  0  0  0  0
  191.8650  176.1860  138.8070 C   0  0  1  0  0  3  0  0  0  0  0  0
  189.5680  175.0030  135.4850 C   0  0  0  0  0  2  0  0  0  0  0  0
  195.0620  174.2340  135.6820 C   0  0  0  0  0  2  0  0  0  0  0  0
  193.9220  174.0280  137.7270 C   0  0  0  0  0  2  0  0  0  0  0  0
  194.9150  173.3940  136.8670 N   0  0  0  0  0  0  0  0  0  0  0  0
  194.2800  175.5150  135.8770 C   0  0  0  0  0  2  0  0  0  0  0  0
  193.7720  175.4730  137.2930 C   0  0  1  0  0  3  0  0  0  0  0  0
  196.2360  173.6470  139.1700 O   0  0  0  0  0  0  0  0  0  0  0  0
  197.0900  172.0310  137.5360 O   0  0  0  0  0  0  0  0  0  0  0  0
  196.4390  173.3760  137.7050 S   0  0  0  0  0  0  0  0  0  0  0  0
  197.5010  174.6250  137.0140 C   0  0  0  0  0  2  0  0  0  0  0  0
  198.2320  175.2960  138.0770 N   0  0  0  0  0  1  0  0  0  0  0  0
  182.9890  177.1460  138.8510 C   0  0  0  0  0  2  0  0  0  0  0  0
  181.9190  177.9460  139.5780 C   0  0  0  0  0  2  0  0  0  0  0  0
  180.9410  177.0830  140.0750 O   0  0  0  0  0  1  0  0  0  0  0  0
  190.0970  177.6630  142.4160 C   0  0  0  0  0  2  0  0  0  0  0  0
  188.5910  177.8680  142.3120 C   0  0  0  0  0  2  0  0  0  0  0  0
  187.8260  176.8700  143.1720 C   0  0  1  0  0  3  0  0  0  0  0  0
  188.3930  175.6000  143.0430 O   0  0  0  0  0  1  0  0  0  0  0  0
  189.1620  177.3970  146.7760 C   0  0  0  0  0  0  0  0  0  0  0  0
  189.0070  177.0640  145.3910 N   0  0  0  0  0  2  0  0  0  0  0  0
  188.2540  178.0100  147.3960 O   0  0  0  0  0  0  0  0  0  0  0  0
  186.8470  177.9150  145.0910 O   0  0  0  0  0  0  0  0  0  0  0  0
  187.8440  177.3210  144.5980 C   0  0  0  0  0  0  0  0  0  0  0  0
  190.3140  177.0250  147.4610 O   0  0  0  0  0  0  0  0  0  0  0  0
  191.5010  176.6490  146.7760 C   0  0  0  0  0  2  0  0  0  0  0  0
  192.2970  175.6740  147.6190 C   0  0  0  0  0  2  0  0  0  0  0  0
  192.9920  176.3660  148.6100 O   0  0  0  0  0  1  0  0  0  0  0  0
  1 10  1  0  0  0  0
  2  4  2  0  0  0  0
  3 12  1  1  0  0  0
  3 20  1  0  0  0  0
  5 21  1  0  0  0  0
  5 14  2  0  0  0  0
  6 11  1  0  0  0  0
  7 32  1  1  0  0  0
  7 16  1  0  0  0  0
  8 21  1  6  0  0  0
  8 12  1  0  0  0  0
  8  9  1  0  0  0  0
  9  2  1  6  0  0  0
  9 13  1  0  0  0  0
 10 35  1  0  0  0  0
 11 10  2  0  0  0  0
 13  1  2  0  0  0  0
 14  2  1  0  0  0  0
 15  7  1  0  0  0  0
 17  4  1  1  0  0  0
 17 16  1  0  0  0  0
 18 15  2  0  0  0  0
 18 17  1  0  0  0  0
 19 14  1  0  0  0  0
 19 18  1  0  0  0  0
 20 13  1  0  0  0  0
 20  6  1  6  0  0  0
 22 25  1  0  0  0  0
 22 24  1  0  0  0  0
 24 29  1  0  0  0  0
 24 23  1  0  0  0  0
 26 25  1  6  0  0  0
 26  3  1  0  0  0  0
 26 23  1  0  0  0  0
 28 29  2  0  0  0  0
 29 27  2  0  0  0  0
 30 29  1  0  0  0  0
 30 31  1  0  0  0  0
 32 33  1  0  0  0  0
 33 34  1  0  0  0  0
 36 35  1  0  0  0  0
 36 37  1  0  0  0  0
 37 38  1  1  0  0  0
 37 43  1  0  0  0  0
 39 41  2  0  0  0  0
 39 44  1  0  0  0  0
 40 39  1  0  0  0  0
 43 42  2  0  0  0  0
 43 40  1  0  0  0  0
 45 44  1  0  0  0  0
 45 46  1  0  0  0  0
 46 47  1  0  0  0  0
M  END
>  <MODEL>
4

>  <REMARK>
 VINA RESULT:      -8.5      3.312      8.541
  Name = 
  12 active torsions:
  status: ('A' for Active; 'I' for Inactive)
    1  A    between atoms: C_1  and  O_14
    2  A    between atoms: C_4  and  C_28
    3  A    between atoms: C_4  and  C_35
    4  A    between atoms: C_6  and  C_39
    5  A    between atoms: C_8  and  C_30
    6  A    between atoms: C_12  and  C_16
    7  A    between atoms: O_14  and  C_30
    8  A    between atoms: C_16  and  C_19
    9  A    between atoms: C_23  and  C_33
   10  A    between atoms: C_28  and  C_33
   11  A    between atoms: N_31  and  S_32
   12  A    between atoms: S_32  and  C_43
                            x       y       z     vdW  Elec       q    Type
                         _______ _______ _______ _____ _____    ______ ____

>  <TORSDO>
F 12

$$$$
=
 OpenBabel10232411493D

 47 52  0  0  1  0  0  0  0  0999 V2000
  189.8980  176.8220  139.8920 C   0  0  0  0  0  3  0  0  0  0  0  0
  188.1400  176.7410  137.3840 C   0  0  0  0  0  0  0  0  0  0  0  0
  192.2260  176.1370  137.0550 C   0  0  1  0  0  3  0  0  0  0  0  0
  187.5220  177.4170  138.3700 C   0  0  0  0  0  3  0  0  0  0  0  0
  188.0880  175.9880  135.0890 N   0  0  0  0  0  0  0  0  0  0  0  0
  192.6130  177.3860  139.2470 C   0  0  0  0  0  2  0  0  0  0  0  0
  183.9430  178.1400  138.5050 C   0  0  2  0  0  3  0  0  0  0  0  0
  190.1700  175.9760  136.2940 N   0  0  1  0  0  0  0  0  0  0  0  0
  189.4340  175.9660  137.5770 C   0  0  1  0  0  3  0  0  0  0  0  0
  190.8270  177.2730  140.9500 C   0  0  0  0  0  0  0  0  0  0  0  0
  192.1130  177.5120  140.6610 C   0  0  0  0  0  3  0  0  0  0  0  0
  191.3190  175.2590  136.4330 O   0  0  0  0  0  0  0  0  0  0  0  0
  190.3580  176.4420  138.6920 C   0  0  0  0  0  0  0  0  0  0  0  0
  187.4950  176.6310  136.0470 C   0  0  0  0  0  0  0  0  0  0  0  0
  184.2620  177.6700  137.1690 N   0  0  0  0  0  0  0  0  0  0  0  0
  185.2860  178.2020  139.2430 C   0  0  0  0  0  2  0  0  0  0  0  0
  186.3050  178.2630  138.1190 C   0  0  2  0  0  3  0  0  0  0  0  0
  185.5280  177.7600  136.9650 C   0  0  0  0  0  0  0  0  0  0  0  0
  186.1710  177.1350  135.8540 N   0  0  0  0  0  2  0  0  0  0  0  0
  191.8560  176.2610  138.5340 C   0  0  1  0  0  3  0  0  0  0  0  0
  189.3600  175.2900  135.2860 C   0  0  0  0  0  2  0  0  0  0  0  0
  194.7340  174.0160  135.4660 C   0  0  0  0  0  2  0  0  0  0  0  0
  193.9820  174.4120  137.6570 C   0  0  0  0  0  2  0  0  0  0  0  0
  194.8490  173.5620  136.8490 N   0  0  0  0  0  0  0  0  0  0  0  0
  193.9180  175.2900  135.4250 C   0  0  0  0  0  2  0  0  0  0  0  0
  193.6670  175.6620  136.8610 C   0  0  1  0  0  3  0  0  0  0  0  0
  196.5400  174.7170  138.5560 O   0  0  0  0  0  0  0  0  0  0  0  0
  197.1100  172.4830  137.7220 O   0  0  0  0  0  0  0  0  0  0  0  0
  196.4930  173.8060  137.3610 S   0  0  0  0  0  0  0  0  0  0  0  0
  197.4180  174.5330  136.0270 C   0  0  0  0  0  2  0  0  0  0  0  0
  197.5410  175.9670  136.2320 N   0  0  0  0  0  1  0  0  0  0  0  0
  182.9970  177.1630  139.1860 C   0  0  0  0  0  2  0  0  0  0  0  0
  182.3670  177.7940  140.4180 C   0  0  0  0  0  2  0  0  0  0  0  0
  180.9860  177.5960  140.3940 O   0  0  0  0  0  1  0  0  0  0  0  0
  190.3100  177.4820  142.3360 C   0  0  0  0  0  2  0  0  0  0  0  0
  188.8750  177.9920  142.3190 C   0  0  0  0  0  2  0  0  0  0  0  0
  187.9240  177.0220  143.0090 C   0  0  1  0  0  3  0  0  0  0  0  0
  188.5930  175.8310  143.3030 O   0  0  0  0  0  1  0  0  0  0  0  0
  185.3420  178.6800  145.3810 C   0  0  0  0  0  0  0  0  0  0  0  0
  186.0010  178.0350  144.2860 N   0  0  0  0  0  2  0  0  0  0  0  0
  185.9590  178.9160  146.4530 O   0  0  0  0  0  0  0  0  0  0  0  0
  188.1260  177.8400  145.2490 O   0  0  0  0  0  0  0  0  0  0  0  0
  187.3800  177.6500  144.2510 C   0  0  0  0  0  0  0  0  0  0  0  0
  184.0140  179.0760  145.2660 O   0  0  0  0  0  0  0  0  0  0  0  0
  183.3910  179.2350  143.9990 C   0  0  0  0  0  2  0  0  0  0  0  0
  181.9510  178.7670  144.0700 C   0  0  0  0  0  2  0  0  0  0  0  0
  181.1400  179.6230  143.3260 O   0  0  0  0  0  1  0  0  0  0  0  0
  1 10  1  0  0  0  0
  2  4  2  0  0  0  0
  3 12  1  1  0  0  0
  3 20  1  0  0  0  0
  5 21  1  0  0  0  0
  5 14  2  0  0  0  0
  6 11  1  0  0  0  0
  7 32  1  1  0  0  0
  7 16  1  0  0  0  0
  8 21  1  6  0  0  0
  8 12  1  0  0  0  0
  8  9  1  0  0  0  0
  9  2  1  6  0  0  0
  9 13  1  0  0  0  0
 10 35  1  0  0  0  0
 11 10  2  0  0  0  0
 13  1  2  0  0  0  0
 14  2  1  0  0  0  0
 15  7  1  0  0  0  0
 17  4  1  1  0  0  0
 17 16  1  0  0  0  0
 18 15  2  0  0  0  0
 18 17  1  0  0  0  0
 19 14  1  0  0  0  0
 19 18  1  0  0  0  0
 20 13  1  0  0  0  0
 20  6  1  6  0  0  0
 22 24  1  0  0  0  0
 24 29  1  0  0  0  0
 24 23  1  0  0  0  0
 25 22  1  0  0  0  0
 26 25  1  6  0  0  0
 26  3  1  0  0  0  0
 26 23  1  0  0  0  0
 29 28  2  0  0  0  0
 29 27  2  0  0  0  0
 30 31  1  0  0  0  0
 30 29  1  0  0  0  0
 32 33  1  0  0  0  0
 34 33  1  0  0  0  0
 36 35  1  0  0  0  0
 36 37  1  0  0  0  0
 37 38  1  1  0  0  0
 37 43  1  0  0  0  0
 39 41  2  0  0  0  0
 40 39  1  0  0  0  0
 43 40  1  0  0  0  0
 43 42  2  0  0  0  0
 44 39  1  0  0  0  0
 45 46  1  0  0  0  0
 45 44  1  0  0  0  0
 47 46  1  0  0  0  0
M  END
>  <MODEL>
5

>  <REMARK>
 VINA RESULT:      -8.3      3.400      9.109
  Name = 
  12 active torsions:
  status: ('A' for Active; 'I' for Inactive)
    1  A    between atoms: C_1  and  O_14
    2  A    between atoms: C_4  and  C_28
    3  A    between atoms: C_4  and  C_35
    4  A    between atoms: C_6  and  C_39
    5  A    between atoms: C_8  and  C_30
    6  A    between atoms: C_12  and  C_16
    7  A    between atoms: O_14  and  C_30
    8  A    between atoms: C_16  and  C_19
    9  A    between atoms: C_23  and  C_33
   10  A    between atoms: C_28  and  C_33
   11  A    between atoms: N_31  and  S_32
   12  A    between atoms: S_32  and  C_43
                            x       y       z     vdW  Elec       q    Type
                         _______ _______ _______ _____ _____    ______ ____

>  <TORSDO>
F 12

$$$$
=
 OpenBabel10232411493D

 47 52  0  0  1  0  0  0  0  0999 V2000
  187.8890  177.3910  142.4840 C   0  0  0  0  0  3  0  0  0  0  0  0
  187.5630  177.8150  145.5010 C   0  0  0  0  0  0  0  0  0  0  0  0
  184.5280  178.9560  142.9220 C   0  0  1  0  0  3  0  0  0  0  0  0
  188.8650  177.6980  145.1800 C   0  0  0  0  0  3  0  0  0  0  0  0
  185.9190  178.2160  147.2260 N   0  0  0  0  0  0  0  0  0  0  0  0
  186.1930  179.1290  140.9960 C   0  0  0  0  0  2  0  0  0  0  0  0
  191.5510  176.9250  147.5330 C   0  0  2  0  0  3  0  0  0  0  0  0
  185.2870  178.4200  144.9140 N   0  0  1  0  0  0  0  0  0  0  0  0
  186.4280  177.5670  144.5200 C   0  0  1  0  0  3  0  0  0  0  0  0
  188.1500  177.6200  141.0470 C   0  0  0  0  0  0  0  0  0  0  0  0
  187.3400  178.4130  140.3330 C   0  0  0  0  0  3  0  0  0  0  0  0
  184.2440  178.1910  144.0680 O   0  0  0  0  0  0  0  0  0  0  0  0
  186.7380  177.7890  143.0430 C   0  0  0  0  0  0  0  0  0  0  0  0
  187.1720  178.0930  146.9100 C   0  0  0  0  0  0  0  0  0  0  0  0
  190.3620  177.2590  148.2940 N   0  0  0  0  0  0  0  0  0  0  0  0
  191.1620  177.1310  146.0640 C   0  0  0  0  0  2  0  0  0  0  0  0
  189.9610  178.0570  146.1430 C   0  0  2  0  0  3  0  0  0  0  0  0
  189.5250  177.8850  147.5460 C   0  0  0  0  0  0  0  0  0  0  0  0
  188.1690  178.1090  147.9340 N   0  0  0  0  0  2  0  0  0  0  0  0
  185.6280  178.2570  142.1220 C   0  0  1  0  0  3  0  0  0  0  0  0
  184.8450  178.0200  146.2510 C   0  0  0  0  0  2  0  0  0  0  0  0
  181.0190  178.3170  142.1510 C   0  0  0  0  0  2  0  0  0  0  0  0
  183.0720  178.1180  141.0250 C   0  0  0  0  0  2  0  0  0  0  0  0
  181.6470  177.8190  140.9310 N   0  0  0  0  0  0  0  0  0  0  0  0
  182.0350  179.1040  142.9510 C   0  0  0  0  0  2  0  0  0  0  0  0
  183.2650  179.1800  142.0880 C   0  0  1  0  0  3  0  0  0  0  0  0
  179.9880  177.8590  138.8430 O   0  0  0  0  0  0  0  0  0  0  0  0
  180.3070  179.9480  140.0880 O   0  0  0  0  0  0  0  0  0  0  0  0
  180.9860  178.7030  139.5870 S   0  0  0  0  0  0  0  0  0  0  0  0
  182.3060  179.1650  138.4870 C   0  0  0  0  0  2  0  0  0  0  0  0
  182.3570  178.2470  137.3620 N   0  0  0  0  0  1  0  0  0  0  0  0
  191.9420  175.4770  147.7890 C   0  0  0  0  0  2  0  0  0  0  0  0
  193.0910  175.3980  148.7820 C   0  0  0  0  0  2  0  0  0  0  0  0
  193.4220  176.6800  149.2230 O   0  0  0  0  0  1  0  0  0  0  0  0
  189.3380  176.9790  140.4090 C   0  0  0  0  0  2  0  0  0  0  0  0
  189.7790  177.7450  139.1680 C   0  0  0  0  0  2  0  0  0  0  0  0
  190.3810  176.8180  138.1190 C   0  0  1  0  0  3  0  0  0  0  0  0
  190.7700  175.6160  138.7140 O   0  0  0  0  0  1  0  0  0  0  0  0
  186.9870  175.9250  136.4670 C   0  0  0  0  0  0  0  0  0  0  0  0
  188.0430  176.2240  137.3870 N   0  0  0  0  0  2  0  0  0  0  0  0
  187.1740  176.0080  135.2250 O   0  0  0  0  0  0  0  0  0  0  0  0
  189.7220  176.6820  135.8210 O   0  0  0  0  0  0  0  0  0  0  0  0
  189.3840  176.5770  137.0320 C   0  0  0  0  0  0  0  0  0  0  0  0
  185.7420  175.5170  136.9360 O   0  0  0  0  0  0  0  0  0  0  0  0
  185.0550  174.4130  136.3620 C   0  0  0  0  0  2  0  0  0  0  0  0
  184.3310  173.6380  137.4430 C   0  0  0  0  0  2  0  0  0  0  0  0
  185.2220  172.7760  138.0830 O   0  0  0  0  0  1  0  0  0  0  0  0
  1 13  2  0  0  0  0
  2 14  1  0  0  0  0
  3 12  1  1  0  0  0
  4  2  2  0  0  0  0
  7 32  1  6  0  0  0
  7 15  1  0  0  0  0
  8 21  1  1  0  0  0
  9 13  1  6  0  0  0
  9  8  1  0  0  0  0
  9  2  1  0  0  0  0
 10  1  1  0  0  0  0
 11  6  1  0  0  0  0
 11 10  2  0  0  0  0
 12  8  1  0  0  0  0
 14  5  2  0  0  0  0
 14 19  1  0  0  0  0
 16 17  1  0  0  0  0
 16  7  1  0  0  0  0
 17  4  1  6  0  0  0
 17 18  1  0  0  0  0
 18 19  1  0  0  0  0
 18 15  2  0  0  0  0
 20  6  1  6  0  0  0
 20  3  1  0  0  0  0
 20 13  1  0  0  0  0
 21  5  1  0  0  0  0
 22 25  1  0  0  0  0
 24 23  1  0  0  0  0
 24 22  1  0  0  0  0
 26 23  1  6  0  0  0
 26  3  1  0  0  0  0
 26 25  1  0  0  0  0
 27 29  2  0  0  0  0
 29 28  2  0  0  0  0
 29 24  1  0  0  0  0
 30 29  1  0  0  0  0
 31 30  1  0  0  0  0
 32 33  1  0  0  0  0
 33 34  1  0  0  0  0
 35 10  1  0  0  0  0
 36 35  1  0  0  0  0
 37 38  1  1  0  0  0
 37 36  1  0  0  0  0
 39 44  1  0  0  0  0
 39 40  1  0  0  0  0
 41 39  2  0  0  0  0
 42 43  2  0  0  0  0
 43 40  1  0  0  0  0
 43 37  1  0  0  0  0
 45 44  1  0  0  0  0
 45 46  1  0  0  0  0
 46 47  1  0  0  0  0
M  END
>  <MODEL>
6

>  <REMARK>
 VINA RESULT:      -8.3      2.964      8.750
  Name = 
  12 active torsions:
  status: ('A' for Active; 'I' for Inactive)
    1  A    between atoms: C_1  and  O_14
    2  A    between atoms: C_4  and  C_28
    3  A    between atoms: C_4  and  C_35
    4  A    between atoms: C_6  and  C_39
    5  A    between atoms: C_8  and  C_30
    6  A    between atoms: C_12  and  C_16
    7  A    between atoms: O_14  and  C_30
    8  A    between atoms: C_16  and  C_19
    9  A    between atoms: C_23  and  C_33
   10  A    between atoms: C_28  and  C_33
   11  A    between atoms: N_31  and  S_32
   12  A    between atoms: S_32  and  C_43
                            x       y       z     vdW  Elec       q    Type
                         _______ _______ _______ _____ _____    ______ ____

>  <TORSDO>
F 12

$$$$
=
 OpenBabel10232411493D

 47 52  0  0  1  0  0  0  0  0999 V2000
  187.8460  177.4190  142.4490 C   0  0  0  0  0  3  0  0  0  0  0  0
  187.5130  177.8140  145.4690 C   0  0  0  0  0  0  0  0  0  0  0  0
  184.4720  178.9520  142.8960 C   0  0  1  0  0  3  0  0  0  0  0  0
  188.8170  177.7110  145.1490 C   0  0  0  0  0  3  0  0  0  0  0  0
  185.8650  178.1880  147.1960 N   0  0  0  0  0  0  0  0  0  0  0  0
  186.1390  179.1540  140.9740 C   0  0  0  0  0  2  0  0  0  0  0  0
  191.5070  176.9400  147.4980 C   0  0  2  0  0  3  0  0  0  0  0  0
  185.2330  178.4060  144.8850 N   0  0  1  0  0  0  0  0  0  0  0  0
  186.3820  177.5660  144.4850 C   0  0  1  0  0  3  0  0  0  0  0  0
  188.1070  177.6610  141.0150 C   0  0  0  0  0  0  0  0  0  0  0  0
  187.2920  178.4540  140.3060 C   0  0  0  0  0  3  0  0  0  0  0  0
  184.1940  178.1750  144.0360 O   0  0  0  0  0  0  0  0  0  0  0  0
  186.6920  177.8020  143.0110 C   0  0  0  0  0  0  0  0  0  0  0  0
  187.1190  178.0770  146.8800 C   0  0  0  0  0  0  0  0  0  0  0  0
  190.3140  177.2580  148.2610 N   0  0  0  0  0  0  0  0  0  0  0  0
  191.1170  177.1550  146.0310 C   0  0  0  0  0  2  0  0  0  0  0  0
  189.9100  178.0710  146.1160 C   0  0  2  0  0  3  0  0  0  0  0  0
  189.4730  177.8830  147.5170 C   0  0  0  0  0  0  0  0  0  0  0  0
  188.1150  178.0930  147.9050 N   0  0  0  0  0  2  0  0  0  0  0  0
  185.5790  178.2690  142.0920 C   0  0  1  0  0  3  0  0  0  0  0  0
  184.7930  177.9920  146.2180 C   0  0  0  0  0  2  0  0  0  0  0  0
  180.9240  178.4320  142.2230 C   0  0  0  0  0  2  0  0  0  0  0  0
  182.9460  178.0410  141.0910 C   0  0  0  0  0  2  0  0  0  0  0  0
  181.5060  177.8090  141.0390 N   0  0  0  0  0  0  0  0  0  0  0  0
  181.9900  179.2280  142.9450 C   0  0  0  0  0  2  0  0  0  0  0  0
  183.2090  179.1730  142.0630 C   0  0  1  0  0  3  0  0  0  0  0  0
  180.0590  177.6600  138.8040 O   0  0  0  0  0  0  0  0  0  0  0  0
  179.9930  179.7600  140.0690 O   0  0  0  0  0  0  0  0  0  0  0  0
  180.8680  178.6150  139.6370 S   0  0  0  0  0  0  0  0  0  0  0  0
  182.2160  179.2520  138.6650 C   0  0  0  0  0  2  0  0  0  0  0  0
  181.7090  179.8100  137.4220 N   0  0  0  0  0  1  0  0  0  0  0  0
  191.9090  175.4930  147.7430 C   0  0  0  0  0  2  0  0  0  0  0  0
  193.1010  175.4180  148.6850 C   0  0  0  0  0  2  0  0  0  0  0  0
  193.5140  176.7070  149.0250 O   0  0  0  0  0  1  0  0  0  0  0  0
  189.3010  177.0350  140.3730 C   0  0  0  0  0  2  0  0  0  0  0  0
  189.5050  177.5590  138.9570 C   0  0  0  0  0  2  0  0  0  0  0  0
  189.2910  176.4670  137.9160 C   0  0  1  0  0  3  0  0  0  0  0  0
  188.1350  176.7340  137.1790 O   0  0  0  0  0  1  0  0  0  0  0  0
  193.0090  176.0530  136.8920 C   0  0  0  0  0  0  0  0  0  0  0  0
  191.7690  176.1240  137.6040 N   0  0  0  0  0  2  0  0  0  0  0  0
  193.0380  176.1730  135.6390 O   0  0  0  0  0  0  0  0  0  0  0  0
  190.3650  176.5410  135.7780 O   0  0  0  0  0  0  0  0  0  0  0  0
  190.4860  176.3830  137.0230 C   0  0  0  0  0  0  0  0  0  0  0  0
  194.2040  175.8730  137.5800 O   0  0  0  0  0  0  0  0  0  0  0  0
  194.9780  174.6900  137.4320 C   0  0  0  0  0  2  0  0  0  0  0  0
  195.5970  174.3090  138.7610 C   0  0  0  0  0  2  0  0  0  0  0  0
  195.3380  172.9660  139.0340 O   0  0  0  0  0  1  0  0  0  0  0  0
  1 13  2  0  0  0  0
  2 14  1  0  0  0  0
  3 12  1  1  0  0  0
  4  2  2  0  0  0  0
  7 32  1  6  0  0  0
  7 15  1  0  0  0  0
  8 21  1  1  0  0  0
  9 13  1  6  0  0  0
  9  8  1  0  0  0  0
  9  2  1  0  0  0  0
 10  1  1  0  0  0  0
 11  6  1  0  0  0  0
 11 10  2  0  0  0  0
 12  8  1  0  0  0  0
 14  5  2  0  0  0  0
 14 19  1  0  0  0  0
 16 17  1  0  0  0  0
 16  7  1  0  0  0  0
 17  4  1  6  0  0  0
 17 18  1  0  0  0  0
 18 19  1  0  0  0  0
 18 15  2  0  0  0  0
 20  6  1  6  0  0  0
 20  3  1  0  0  0  0
 20 13  1  0  0  0  0
 21  5  1  0  0  0  0
 22 25  1  0  0  0  0
 24 23  1  0  0  0  0
 24 22  1  0  0  0  0
 26 23  1  6  0  0  0
 26  3  1  0  0  0  0
 26 25  1  0  0  0  0
 27 29  2  0  0  0  0
 29 28  2  0  0  0  0
 29 24  1  0  0  0  0
 30 29  1  0  0  0  0
 31 30  1  0  0  0  0
 32 33  1  0  0  0  0
 33 34  1  0  0  0  0
 35 10  1  0  0  0  0
 36 35  1  0  0  0  0
 37 38  1  6  0  0  0
 37 36  1  0  0  0  0
 39 44  1  0  0  0  0
 39 40  1  0  0  0  0
 41 39  2  0  0  0  0
 42 43  2  0  0  0  0
 43 40  1  0  0  0  0
 43 37  1  0  0  0  0
 45 44  1  0  0  0  0
 45 46  1  0  0  0  0
 46 47  1  0  0  0  0
M  END
>  <MODEL>
7

>  <REMARK>
 VINA RESULT:      -8.2      2.625      8.263
  Name = 
  12 active torsions:
  status: ('A' for Active; 'I' for Inactive)
    1  A    between atoms: C_1  and  O_14
    2  A    between atoms: C_4  and  C_28
    3  A    between atoms: C_4  and  C_35
    4  A    between atoms: C_6  and  C_39
    5  A    between atoms: C_8  and  C_30
    6  A    between atoms: C_12  and  C_16
    7  A    between atoms: O_14  and  C_30
    8  A    between atoms: C_16  and  C_19
    9  A    between atoms: C_23  and  C_33
   10  A    between atoms: C_28  and  C_33
   11  A    between atoms: N_31  and  S_32
   12  A    between atoms: S_32  and  C_43
                            x       y       z     vdW  Elec       q    Type
                         _______ _______ _______ _____ _____    ______ ____

>  <TORSDO>
F 12

$$$$
=
 OpenBabel10232411493D

 47 52  0  0  1  0  0  0  0  0999 V2000
  187.7270  177.8040  139.3460 C   0  0  0  0  0  3  0  0  0  0  0  0
  189.0840  177.3210  142.0500 C   0  0  0  0  0  0  0  0  0  0  0  0
  191.1190  176.4660  138.5440 C   0  0  1  0  0  3  0  0  0  0  0  0
  187.7460  177.3550  142.1950 C   0  0  0  0  0  3  0  0  0  0  0  0
  191.2360  176.9880  143.0960 N   0  0  0  0  0  0  0  0  0  0  0  0
  188.9090  176.2310  137.2890 C   0  0  0  0  0  2  0  0  0  0  0  0
  185.9820  177.8730  145.3520 C   0  0  2  0  0  3  0  0  0  0  0  0
  191.0550  176.8930  140.7000 N   0  0  1  0  0  0  0  0  0  0  0  0
  189.8010  177.6740  140.7570 C   0  0  1  0  0  3  0  0  0  0  0  0
  187.0050  177.5970  138.0730 C   0  0  0  0  0  0  0  0  0  0  0  0
  187.5670  176.8830  137.0890 C   0  0  0  0  0  3  0  0  0  0  0  0
  191.7320  177.2180  139.5640 O   0  0  0  0  0  0  0  0  0  0  0  0
  189.0200  177.4720  139.4640 C   0  0  0  0  0  0  0  0  0  0  0  0
  189.9460  177.0320  143.2290 C   0  0  0  0  0  0  0  0  0  0  0  0
  187.3760  177.6020  145.6500 N   0  0  0  0  0  0  0  0  0  0  0  0
  185.8590  177.7350  143.8300 C   0  0  0  0  0  2  0  0  0  0  0  0
  187.0650  176.8930  143.4530 C   0  0  2  0  0  3  0  0  0  0  0  0
  187.9430  177.0570  144.6320 C   0  0  0  0  0  0  0  0  0  0  0  0
  189.3600  176.9180  144.5270 N   0  0  0  0  0  2  0  0  0  0  0  0
  189.7740  177.1090  138.1990 C   0  0  1  0  0  3  0  0  0  0  0  0
  191.9020  177.2850  141.8260 C   0  0  0  0  0  2  0  0  0  0  0  0
  193.4180  174.6150  136.3990 C   0  0  0  0  0  2  0  0  0  0  0  0
  193.4900  176.5970  137.6600 C   0  0  0  0  0  2  0  0  0  0  0  0
  194.3010  175.6780  136.8700 N   0  0  0  0  0  0  0  0  0  0  0  0
  191.9870  174.9640  136.7480 C   0  0  0  0  0  2  0  0  0  0  0  0
  192.0330  176.3540  137.3230 C   0  0  1  0  0  3  0  0  0  0  0  0
  193.9220  176.4500  134.3460 O   0  0  0  0  0  0  0  0  0  0  0  0
  195.1330  177.9750  135.8360 O   0  0  0  0  0  0  0  0  0  0  0  0
  194.9050  176.5310  135.4800 S   0  0  0  0  0  0  0  0  0  0  0  0
  196.4500  175.8080  134.9760 C   0  0  0  0  0  2  0  0  0  0  0  0
  197.4820  176.1150  135.9530 N   0  0  0  0  0  1  0  0  0  0  0  0
  185.6210  179.2830  145.7970 C   0  0  0  0  0  2  0  0  0  0  0  0
  184.6180  179.9080  144.8400 C   0  0  0  0  0  2  0  0  0  0  0  0
  183.3290  179.4810  145.1640 O   0  0  0  0  0  1  0  0  0  0  0  0
  185.6370  178.1710  137.9070 C   0  0  0  0  0  2  0  0  0  0  0  0
  184.7800  177.9230  139.1420 C   0  0  0  0  0  2  0  0  0  0  0  0
  183.8190  179.0770  139.4010 C   0  0  1  0  0  3  0  0  0  0  0  0
  184.4960  180.2930  139.2900 O   0  0  0  0  0  1  0  0  0  0  0  0
  181.2750  177.5140  136.9250 C   0  0  0  0  0  0  0  0  0  0  0  0
  182.3110  177.7390  137.8870 N   0  0  0  0  0  2  0  0  0  0  0  0
  180.5590  178.4660  136.5160 O   0  0  0  0  0  0  0  0  0  0  0  0
  182.0620  180.0560  138.1020 O   0  0  0  0  0  0  0  0  0  0  0  0
  182.6820  179.0090  138.4330 C   0  0  0  0  0  0  0  0  0  0  0  0
  181.0590  176.2390  136.4100 O   0  0  0  0  0  0  0  0  0  0  0  0
  182.0160  175.2010  136.5670 C   0  0  0  0  0  2  0  0  0  0  0  0
  181.5460  174.2220  137.6230 C   0  0  0  0  0  2  0  0  0  0  0  0
  180.7570  174.8840  138.5630 O   0  0  0  0  0  1  0  0  0  0  0  0
  1 13  2  0  0  0  0
  2  4  2  0  0  0  0
  2 14  1  0  0  0  0
  3 12  1  1  0  0  0
  5 14  2  0  0  0  0
  7 15  1  0  0  0  0
  7 32  1  6  0  0  0
  8  9  1  0  0  0  0
  8 21  1  1  0  0  0
  9 13  1  6  0  0  0
  9  2  1  0  0  0  0
 10  1  1  0  0  0  0
 11  6  1  0  0  0  0
 11 10  2  0  0  0  0
 12  8  1  0  0  0  0
 14 19  1  0  0  0  0
 16  7  1  0  0  0  0
 17  4  1  6  0  0  0
 17 16  1  0  0  0  0
 17 18  1  0  0  0  0
 18 15  2  0  0  0  0
 19 18  1  0  0  0  0
 20  6  1  1  0  0  0
 20  3  1  0  0  0  0
 20 13  1  0  0  0  0
 21  5  1  0  0  0  0
 22 25  1  0  0  0  0
 22 24  1  0  0  0  0
 24 23  1  0  0  0  0
 26 25  1  1  0  0  0
 26 23  1  0  0  0  0
 26  3  1  0  0  0  0
 27 29  2  0  0  0  0
 29 28  2  0  0  0  0
 29 24  1  0  0  0  0
 30 29  1  0  0  0  0
 30 31  1  0  0  0  0
 33 34  1  0  0  0  0
 33 32  1  0  0  0  0
 35 10  1  0  0  0  0
 35 36  1  0  0  0  0
 36 37  1  0  0  0  0
 37 38  1  6  0  0  0
 39 40  1  0  0  0  0
 40 43  1  0  0  0  0
 41 39  2  0  0  0  0
 42 43  2  0  0  0  0
 43 37  1  0  0  0  0
 44 45  1  0  0  0  0
 44 39  1  0  0  0  0
 45 46  1  0  0  0  0
 46 47  1  0  0  0  0
M  END
>  <MODEL>
8

>  <REMARK>
 VINA RESULT:      -8.1      3.581      8.964
  Name = 
  12 active torsions:
  status: ('A' for Active; 'I' for Inactive)
    1  A    between atoms: C_1  and  O_14
    2  A    between atoms: C_4  and  C_28
    3  A    between atoms: C_4  and  C_35
    4  A    between atoms: C_6  and  C_39
    5  A    between atoms: C_8  and  C_30
    6  A    between atoms: C_12  and  C_16
    7  A    between atoms: O_14  and  C_30
    8  A    between atoms: C_16  and  C_19
    9  A    between atoms: C_23  and  C_33
   10  A    between atoms: C_28  and  C_33
   11  A    between atoms: N_31  and  S_32
   12  A    between atoms: S_32  and  C_43
                            x       y       z     vdW  Elec       q    Type
                         _______ _______ _______ _____ _____    ______ ____

>  <TORSDO>
F 12

$$$$
=
 OpenBabel10232411493D

 47 52  0  0  1  0  0  0  0  0999 V2000
  190.6860  177.3060  140.0450 C   0  0  0  0  0  3  0  0  0  0  0  0
  190.8200  176.3860  137.1250 C   0  0  0  0  0  0  0  0  0  0  0  0
  187.2810  177.9140  138.6420 C   0  0  1  0  0  3  0  0  0  0  0  0
  191.8010  175.8100  137.8460 C   0  0  0  0  0  3  0  0  0  0  0  0
  189.7060  176.5760  134.9900 N   0  0  0  0  0  0  0  0  0  0  0  0
  188.0090  177.3180  141.0140 C   0  0  0  0  0  2  0  0  0  0  0  0
  194.8000  174.2550  136.4550 C   0  0  2  0  0  3  0  0  0  0  0  0
  188.6110  177.3790  136.9750 N   0  0  1  0  0  0  0  0  0  0  0  0
  189.9160  177.4850  137.6610 C   0  0  1  0  0  3  0  0  0  0  0  0
  190.4320  177.3490  141.5000 C   0  0  0  0  0  0  0  0  0  0  0  0
  189.1750  177.3840  141.9640 C   0  0  0  0  0  3  0  0  0  0  0  0
  187.7930  178.3750  137.4150 O   0  0  0  0  0  0  0  0  0  0  0  0
  189.6940  177.5150  139.1690 C   0  0  0  0  0  0  0  0  0  0  0  0
  190.6550  176.0320  135.6890 C   0  0  0  0  0  0  0  0  0  0  0  0
  193.8630  174.4850  135.3710 N   0  0  0  0  0  0  0  0  0  0  0  0
  194.0660  174.6990  137.7260 C   0  0  0  0  0  2  0  0  0  0  0  0
  192.6030  174.6510  137.3230 C   0  0  2  0  0  3  0  0  0  0  0  0
  192.6840  174.6740  135.8460 C   0  0  0  0  0  0  0  0  0  0  0  0
  191.6100  175.1810  135.0520 N   0  0  0  0  0  2  0  0  0  0  0  0
  188.3720  178.0300  139.7060 C   0  0  1  0  0  3  0  0  0  0  0  0
  188.8160  177.5980  135.5430 C   0  0  0  0  0  2  0  0  0  0  0  0
  184.4350  178.5360  140.8390 C   0  0  0  0  0  2  0  0  0  0  0  0
  184.7480  177.9860  138.5760 C   0  0  0  0  0  2  0  0  0  0  0  0
  183.7380  178.1540  139.6150 N   0  0  0  0  0  0  0  0  0  0  0  0
  185.8940  178.7890  140.5260 C   0  0  0  0  0  2  0  0  0  0  0  0
  186.0160  178.6820  139.0300 C   0  0  1  0  0  3  0  0  0  0  0  0
  181.7090  179.7610  140.2560 O   0  0  0  0  0  0  0  0  0  0  0  0
  183.5170  180.6950  138.8870 O   0  0  0  0  0  0  0  0  0  0  0  0
  182.6920  179.4660  139.1580 S   0  0  0  0  0  0  0  0  0  0  0  0
  181.8100  179.0230  137.6780 C   0  0  0  0  0  2  0  0  0  0  0  0
  180.5320  178.4240  138.0240 N   0  0  0  0  0  1  0  0  0  0  0  0
  196.0560  175.0880  136.2390 C   0  0  0  0  0  2  0  0  0  0  0  0
  197.2520  174.4430  136.9210 C   0  0  0  0  0  2  0  0  0  0  0  0
  197.9790  175.4140  137.6130 O   0  0  0  0  0  1  0  0  0  0  0  0
  191.5880  177.3270  142.4450 C   0  0  0  0  0  2  0  0  0  0  0  0
  191.2460  176.5640  143.7190 C   0  0  0  0  0  2  0  0  0  0  0  0
  191.4600  177.4190  144.9620 C   0  0  1  0  0  3  0  0  0  0  0  0
  191.5640  178.7640  144.6010 O   0  0  0  0  0  1  0  0  0  0  0  0
  187.8800  177.6780  146.4330 C   0  0  0  0  0  0  0  0  0  0  0  0
  189.0470  177.7600  145.6060 N   0  0  0  0  0  2  0  0  0  0  0  0
  187.9040  177.0390  147.5170 O   0  0  0  0  0  0  0  0  0  0  0  0
  190.5080  176.5530  146.9810 O   0  0  0  0  0  0  0  0  0  0  0  0
  190.3300  177.2070  145.9170 C   0  0  0  0  0  0  0  0  0  0  0  0
  186.7080  178.3250  146.0560 O   0  0  0  0  0  0  0  0  0  0  0  0
  186.0490  178.0230  144.8340 C   0  0  0  0  0  2  0  0  0  0  0  0
  184.7770  178.8370  144.7180 C   0  0  0  0  0  2  0  0  0  0  0  0
  184.1740  178.9510  145.9700 O   0  0  0  0  0  1  0  0  0  0  0  0
  1 10  1  0  0  0  0
  2  4  2  0  0  0  0
  3 12  1  6  0  0  0
  3 26  1  0  0  0  0
  3 20  1  0  0  0  0
  5 21  1  0  0  0  0
  5 14  2  0  0  0  0
  6 11  1  0  0  0  0
  7 32  1  6  0  0  0
  7 16  1  0  0  0  0
  8 21  1  6  0  0  0
  8 12  1  0  0  0  0
  8  9  1  0  0  0  0
  9  2  1  1  0  0  0
  9 13  1  0  0  0  0
 10 11  2  0  0  0  0
 10 35  1  0  0  0  0
 13 20  1  0  0  0  0
 13  1  2  0  0  0  0
 14  2  1  0  0  0  0
 15 18  2  0  0  0  0
 15  7  1  0  0  0  0
 17 16  1  1  0  0  0
 17  4  1  0  0  0  0
 18 17  1  0  0  0  0
 19 14  1  0  0  0  0
 19 18  1  0  0  0  0
 20  6  1  1  0  0  0
 23 24  1  0  0  0  0
 24 22  1  0  0  0  0
 25 22  1  0  0  0  0
 26 23  1  1  0  0  0
 26 25  1  0  0  0  0
 28 29  2  0  0  0  0
 29 24  1  0  0  0  0
 29 27  2  0  0  0  0
 30 31  1  0  0  0  0
 30 29  1  0  0  0  0
 32 33  1  0  0  0  0
 33 34  1  0  0  0  0
 35 36  1  0  0  0  0
 36 37  1  0  0  0  0
 37 38  1  6  0  0  0
 37 43  1  0  0  0  0
 39 41  2  0  0  0  0
 40 43  1  0  0  0  0
 40 39  1  0  0  0  0
 43 42  2  0  0  0  0
 44 39  1  0  0  0  0
 45 44  1  0  0  0  0
 46 45  1  0  0  0  0
 46 47  1  0  0  0  0
M  END
>  <MODEL>
9

>  <REMARK>
 VINA RESULT:      -8.1      2.939     10.582
  Name = 
  12 active torsions:
  status: ('A' for Active; 'I' for Inactive)
    1  A    between atoms: C_1  and  O_14
    2  A    between atoms: C_4  and  C_28
    3  A    between atoms: C_4  and  C_35
    4  A    between atoms: C_6  and  C_39
    5  A    between atoms: C_8  and  C_30
    6  A    between atoms: C_12  and  C_16
    7  A    between atoms: O_14  and  C_30
    8  A    between atoms: C_16  and  C_19
    9  A    between atoms: C_23  and  C_33
   10  A    between atoms: C_28  and  C_33
   11  A    between atoms: N_31  and  S_32
   12  A    between atoms: S_32  and  C_43
                            x       y       z     vdW  Elec       q    Type
                         _______ _______ _______ _____ _____    ______ ____

>  <TORSDO>
F 12

$$$$
