=
 OpenBabel10232411163D

 33 36  0  0  1  0  0  0  0  0999 V2000
  188.7320  177.5350  144.8920 C   0  0  0  0  0  0  0  0  0  0  0  0
  188.8070  177.7770  146.3730 C   0  0  0  0  0  2  0  0  0  0  0  0
  190.9050  176.5480  146.8260 C   0  0  0  0  0  0  0  0  0  0  0  0
  189.6030  176.7150  147.0500 C   0  0  0  0  0  3  0  0  0  0  0  0
  189.8370  177.6390  144.1130 C   0  0  0  0  0  0  0  0  0  0  0  0
  191.5880  175.5930  147.5660 O   0  0  0  0  0  1  0  0  0  0  0  0
  191.6610  177.3570  145.8530 C   0  0  0  0  0  3  0  0  0  0  0  0
  191.1950  177.8370  144.6920 C   0  0  0  0  0  3  0  0  0  0  0  0
  190.4780  176.5930  140.5050 C   0  0  0  0  0  3  0  0  0  0  0  0
  188.8870  178.3980  141.9240 C   0  0  0  0  0  3  0  0  0  0  0  0
  189.6100  177.4470  139.8180 C   0  0  0  0  0  0  0  0  0  0  0  0
  188.8120  178.3460  140.5300 C   0  0  0  0  0  3  0  0  0  0  0  0
  190.5480  176.6430  141.9000 C   0  0  0  0  0  3  0  0  0  0  0  0
  189.7660  177.5570  142.6270 C   0  0  0  0  0  0  0  0  0  0  0  0
  189.5680  177.4390  138.3280 C   0  0  0  0  0  2  0  0  0  0  0  0
  188.9990  176.1940  137.8420 N   0  0  0  0  0  2  0  0  0  0  0  0
  187.6460  176.4480  137.5740 N   0  0  0  0  0  2  0  0  0  0  0  0
  186.4240  178.3250  136.7180 C   0  0  2  0  0  3  0  0  0  0  0  0
  186.3750  177.1870  135.8020 C   0  0  2  0  0  3  0  0  0  0  0  0
  187.6060  177.4300  136.5700 N   0  0  0  0  0  0  0  0  0  0  0  0
  186.5700  177.6740  134.3830 C   0  0  0  0  0  1  0  0  0  0  0  0
  184.5270  177.1870  137.9210 O   0  0  0  0  0  0  0  0  0  0  0  0
  185.8250  178.7380  139.0010 O   0  0  0  0  0  1  0  0  0  0  0  0
  185.5920  178.0820  137.9510 C   0  0  0  0  0  0  0  0  0  0  0  0
  187.4640  177.1910  144.3090 N   0  0  0  0  0  2  0  0  0  0  0  0
  185.4930  177.6210  145.7460 C   0  0  0  0  0  2  0  0  0  0  0  0
  185.4090  177.8730  143.1390 C   0  0  0  0  0  2  0  0  0  0  0  0
  184.4930  178.6780  146.1110 C   0  0  0  0  0  2  0  0  0  0  0  0
  183.6720  178.3110  141.5670 N   0  0  0  0  0  1  0  0  0  0  0  0
  183.4220  179.2130  143.8720 C   0  0  0  0  0  3  0  0  0  0  0  0
  183.7970  179.0760  145.1000 C   0  0  0  0  0  2  0  0  0  0  0  0
  184.2140  178.4570  142.8740 C   0  0  0  0  0  0  0  0  0  0  0  0
  186.2310  177.9630  144.4270 C   0  0  2  0  0  3  0  0  0  0  0  0
  1  2  1  0  0  0  0
  2  4  1  0  0  0  0
  3  4  2  0  0  0  0
  3  6  1  0  0  0  0
  5  8  1  0  0  0  0
  5  1  2  0  0  0  0
  7  3  1  0  0  0  0
  8  7  2  0  0  0  0
  9 13  1  0  0  0  0
 10 14  1  0  0  0  0
 11  9  2  0  0  0  0
 11 12  1  0  0  0  0
 12 10  2  0  0  0  0
 13 14  2  0  0  0  0
 14  5  1  0  0  0  0
 15 11  1  0  0  0  0
 16 15  1  0  0  0  0
 17 16  1  0  0  0  0
 18 24  1  1  0  0  0
 19 21  1  6  0  0  0
 19 20  1  0  0  0  0
 19 18  1  0  0  0  0
 20 18  1  0  0  0  0
 20 17  1  0  0  0  0
 22 24  2  0  0  0  0
 24 23  1  0  0  0  0
 25  1  1  0  0  0  0
 26 28  1  0  0  0  0
 27 33  1  0  0  0  0
 29 32  1  0  0  0  0
 30 31  1  0  0  0  0
 31 28  1  0  0  0  0
 32 27  1  0  0  0  0
 32 30  2  0  0  0  0
 33 25  1  6  0  0  0
 33 26  1  0  0  0  0
M  END
>  <MODEL>
1

>  <REMARK>
 VINA RESULT:      -9.0      0.000      0.000
  Name = 
  8 active torsions:
  status: ('A' for Active; 'I' for Inactive)
    1  A    between atoms: C_3  and  C_29
    2  A    between atoms: C_4  and  N_27
    3  A    between atoms: C_7  and  C_9
    4  A    between atoms: C_7  and  N_20
    5  A    between atoms: N_17  and  N_21
    6  A    between atoms: N_20  and  N_21
    7  A    between atoms: C_22  and  C_32
    8  A    between atoms: N_27  and  C_30
                            x       y       z     vdW  Elec       q    Type
                         _______ _______ _______ _____ _____    ______ ____

>  <TORSDO>
F 8

$$$$
=
 OpenBabel10232411163D

 33 36  0  0  1  0  0  0  0  0999 V2000
  188.6680  177.6110  144.7680 C   0  0  0  0  0  0  0  0  0  0  0  0
  188.7620  177.8680  146.2450 C   0  0  0  0  0  2  0  0  0  0  0  0
  190.8730  176.6570  146.6820 C   0  0  0  0  0  0  0  0  0  0  0  0
  189.5730  176.8180  146.9230 C   0  0  0  0  0  3  0  0  0  0  0  0
  189.7610  177.7130  143.9740 C   0  0  0  0  0  0  0  0  0  0  0  0
  191.5720  175.7140  147.4220 O   0  0  0  0  0  1  0  0  0  0  0  0
  191.6100  177.4610  145.6900 C   0  0  0  0  0  3  0  0  0  0  0  0
  191.1250  177.9260  144.5310 C   0  0  0  0  0  3  0  0  0  0  0  0
  188.6880  178.2910  140.3630 C   0  0  0  0  0  3  0  0  0  0  0  0
  190.5080  176.7280  141.7950 C   0  0  0  0  0  3  0  0  0  0  0  0
  189.5180  177.3910  139.6870 C   0  0  0  0  0  0  0  0  0  0  0  0
  190.4300  176.6140  140.4050 C   0  0  0  0  0  3  0  0  0  0  0  0
  188.7710  178.4080  141.7530 C   0  0  0  0  0  3  0  0  0  0  0  0
  189.6700  177.6160  142.4890 C   0  0  0  0  0  0  0  0  0  0  0  0
  189.4000  177.2200  138.2110 C   0  0  0  0  0  2  0  0  0  0  0  0
  189.6320  175.8360  137.8390 N   0  0  0  0  0  2  0  0  0  0  0  0
  190.8690  175.7980  137.1810 N   0  0  0  0  0  2  0  0  0  0  0  0
  192.9180  174.6780  137.7280 C   0  0  2  0  0  3  0  0  0  0  0  0
  192.4250  174.2860  136.4090 C   0  0  2  0  0  3  0  0  0  0  0  0
  191.4540  174.5560  137.4800 N   0  0  0  0  0  0  0  0  0  0  0  0
  192.5750  172.7900  136.2390 C   0  0  0  0  0  1  0  0  0  0  0  0
  193.9910  176.6380  136.5680 O   0  0  0  0  0  0  0  0  0  0  0  0
  193.4530  176.7550  138.7930 O   0  0  0  0  0  1  0  0  0  0  0  0
  193.4480  176.0890  137.7250 C   0  0  0  0  0  0  0  0  0  0  0  0
  187.3940  177.2520  144.2070 N   0  0  0  0  0  2  0  0  0  0  0  0
  185.4350  177.6290  145.6740 C   0  0  0  0  0  2  0  0  0  0  0  0
  185.3160  177.9300  143.0740 C   0  0  0  0  0  2  0  0  0  0  0  0
  184.4250  178.6650  146.0710 C   0  0  0  0  0  2  0  0  0  0  0  0
  183.5560  178.3750  141.5300 N   0  0  0  0  0  1  0  0  0  0  0  0
  183.3210  179.2290  143.8540 C   0  0  0  0  0  3  0  0  0  0  0  0
  183.7120  179.0740  145.0750 C   0  0  0  0  0  2  0  0  0  0  0  0
  184.1110  178.5030  142.8330 C   0  0  0  0  0  0  0  0  0  0  0  0
  186.1520  178.0060  144.3530 C   0  0  2  0  0  3  0  0  0  0  0  0
  1  2  1  0  0  0  0
  2  4  1  0  0  0  0
  3  4  2  0  0  0  0
  3  6  1  0  0  0  0
  5  8  1  0  0  0  0
  5  1  2  0  0  0  0
  7  3  1  0  0  0  0
  8  7  2  0  0  0  0
  9 13  1  0  0  0  0
 10 14  1  0  0  0  0
 11  9  2  0  0  0  0
 11 12  1  0  0  0  0
 12 10  2  0  0  0  0
 13 14  2  0  0  0  0
 14  5  1  0  0  0  0
 15 11  1  0  0  0  0
 16 15  1  0  0  0  0
 17 20  1  0  0  0  0
 17 16  1  0  0  0  0
 18 24  1  6  0  0  0
 19 21  1  1  0  0  0
 19 20  1  0  0  0  0
 19 18  1  0  0  0  0
 20 18  1  0  0  0  0
 22 24  2  0  0  0  0
 24 23  1  0  0  0  0
 25  1  1  0  0  0  0
 26 28  1  0  0  0  0
 27 33  1  0  0  0  0
 29 32  1  0  0  0  0
 30 31  1  0  0  0  0
 31 28  1  0  0  0  0
 32 27  1  0  0  0  0
 32 30  2  0  0  0  0
 33 25  1  6  0  0  0
 33 26  1  0  0  0  0
M  END
>  <MODEL>
2

>  <REMARK>
 VINA RESULT:      -8.9      2.721      3.669
  Name = 
  8 active torsions:
  status: ('A' for Active; 'I' for Inactive)
    1  A    between atoms: C_3  and  C_29
    2  A    between atoms: C_4  and  N_27
    3  A    between atoms: C_7  and  C_9
    4  A    between atoms: C_7  and  N_20
    5  A    between atoms: N_17  and  N_21
    6  A    between atoms: N_20  and  N_21
    7  A    between atoms: C_22  and  C_32
    8  A    between atoms: N_27  and  C_30
                            x       y       z     vdW  Elec       q    Type
                         _______ _______ _______ _____ _____    ______ ____

>  <TORSDO>
F 8

$$$$
=
 OpenBabel10232411163D

 33 36  0  0  1  0  0  0  0  0999 V2000
  185.4250  178.9800  140.9160 C   0  0  0  0  0  0  0  0  0  0  0  0
  184.7240  179.3200  139.6320 C   0  0  0  0  0  2  0  0  0  0  0  0
  183.2420  177.3440  139.5020 C   0  0  0  0  0  0  0  0  0  0  0  0
  184.2020  178.0950  138.9640 C   0  0  0  0  0  3  0  0  0  0  0  0
  184.7330  178.4990  141.9790 C   0  0  0  0  0  0  0  0  0  0  0  0
  182.7520  176.2710  138.7730 O   0  0  0  0  0  1  0  0  0  0  0  0
  182.6520  177.6250  140.8240 C   0  0  0  0  0  3  0  0  0  0  0  0
  183.2920  178.1360  141.8850 C   0  0  0  0  0  3  0  0  0  0  0  0
  185.6320  178.8860  145.6620 C   0  0  0  0  0  3  0  0  0  0  0  0
  186.3490  177.3050  143.4740 C   0  0  0  0  0  3  0  0  0  0  0  0
  186.6140  177.9010  145.8060 C   0  0  0  0  0  0  0  0  0  0  0  0
  186.9680  177.1090  144.7110 C   0  0  0  0  0  3  0  0  0  0  0  0
  185.0100  179.0770  144.4260 C   0  0  0  0  0  3  0  0  0  0  0  0
  185.3720  178.3000  143.3110 C   0  0  0  0  0  0  0  0  0  0  0  0
  187.3210  177.7260  147.1060 C   0  0  0  0  0  2  0  0  0  0  0  0
  188.7160  178.1130  146.9830 N   0  0  0  0  0  2  0  0  0  0  0  0
  189.4670  176.9310  147.0450 N   0  0  0  0  0  2  0  0  0  0  0  0
  191.5770  176.4470  146.0120 C   0  0  2  0  0  3  0  0  0  0  0  0
  191.1940  177.8450  145.8250 C   0  0  2  0  0  3  0  0  0  0  0  0
  190.1450  176.8130  145.8200 N   0  0  0  0  0  0  0  0  0  0  0  0
  191.4880  178.2610  144.4010 C   0  0  0  0  0  1  0  0  0  0  0  0
  192.2680  177.2110  148.3090 O   0  0  0  0  0  1  0  0  0  0  0  0
  192.1030  174.9760  147.8280 O   0  0  0  0  0  0  0  0  0  0  0  0
  191.9760  176.1670  147.4380 C   0  0  0  0  0  0  0  0  0  0  0  0
  186.8460  179.1740  141.0030 N   0  0  0  0  0  2  0  0  0  0  0  0
  189.0240  178.1590  141.6010 C   0  0  0  0  0  2  0  0  0  0  0  0
  188.2590  178.4710  139.1140 C   0  0  0  0  0  2  0  0  0  0  0  0
  189.8450  176.9140  141.4340 C   0  0  0  0  0  2  0  0  0  0  0  0
  189.3050  178.1380  136.9990 N   0  0  0  0  0  1  0  0  0  0  0  0
  190.0490  176.7290  138.9090 C   0  0  0  0  0  3  0  0  0  0  0  0
  190.1010  176.6480  140.1970 C   0  0  0  0  0  2  0  0  0  0  0  0
  189.1680  177.7910  138.3710 C   0  0  0  0  0  0  0  0  0  0  0  0
  187.8670  178.2240  140.5730 C   0  0  2  0  0  3  0  0  0  0  0  0
  1 25  1  0  0  0  0
  1  5  2  0  0  0  0
  2  1  1  0  0  0  0
  3  7  1  0  0  0  0
  4  3  2  0  0  0  0
  4  2  1  0  0  0  0
  5 14  1  0  0  0  0
  6  3  1  0  0  0  0
  7  8  2  0  0  0  0
  8  5  1  0  0  0  0
  9 11  1  0  0  0  0
 10 12  1  0  0  0  0
 11 15  1  0  0  0  0
 12 11  2  0  0  0  0
 13  9  2  0  0  0  0
 14 10  2  0  0  0  0
 14 13  1  0  0  0  0
 16 17  1  0  0  0  0
 16 15  1  0  0  0  0
 18 24  1  1  0  0  0
 19 21  1  6  0  0  0
 19 18  1  0  0  0  0
 20 19  1  0  0  0  0
 20 18  1  0  0  0  0
 20 17  1  0  0  0  0
 24 23  2  0  0  0  0
 24 22  1  0  0  0  0
 27 33  1  0  0  0  0
 28 26  1  0  0  0  0
 29 32  1  0  0  0  0
 30 31  1  0  0  0  0
 31 28  1  0  0  0  0
 32 30  2  0  0  0  0
 32 27  1  0  0  0  0
 33 25  1  1  0  0  0
 33 26  1  0  0  0  0
M  END
>  <MODEL>
3

>  <REMARK>
 VINA RESULT:      -8.8      2.039      8.529
  Name = 
  8 active torsions:
  status: ('A' for Active; 'I' for Inactive)
    1  A    between atoms: C_3  and  C_29
    2  A    between atoms: C_4  and  N_27
    3  A    between atoms: C_7  and  C_9
    4  A    between atoms: C_7  and  N_20
    5  A    between atoms: N_17  and  N_21
    6  A    between atoms: N_20  and  N_21
    7  A    between atoms: C_22  and  C_32
    8  A    between atoms: N_27  and  C_30
                            x       y       z     vdW  Elec       q    Type
                         _______ _______ _______ _____ _____    ______ ____

>  <TORSDO>
F 8

$$$$
=
 OpenBabel10232411163D

 33 36  0  0  1  0  0  0  0  0999 V2000
  188.7380  177.4870  144.9860 C   0  0  0  0  0  0  0  0  0  0  0  0
  188.8670  177.6920  146.4690 C   0  0  0  0  0  2  0  0  0  0  0  0
  191.0140  176.5120  146.8030 C   0  0  0  0  0  0  0  0  0  0  0  0
  189.7180  176.6350  147.0840 C   0  0  0  0  0  3  0  0  0  0  0  0
  189.8070  177.6430  144.1670 C   0  0  0  0  0  0  0  0  0  0  0  0
  191.7530  175.5580  147.4880 O   0  0  0  0  0  1  0  0  0  0  0  0
  191.7070  177.3680  145.8230 C   0  0  0  0  0  3  0  0  0  0  0  0
  191.1810  177.8650  144.6950 C   0  0  0  0  0  3  0  0  0  0  0  0
  190.3130  176.6980  140.5100 C   0  0  0  0  0  3  0  0  0  0  0  0
  188.7620  178.4480  142.0380 C   0  0  0  0  0  3  0  0  0  0  0  0
  189.4100  177.5600  139.8800 C   0  0  0  0  0  0  0  0  0  0  0  0
  188.6320  178.4310  140.6470 C   0  0  0  0  0  3  0  0  0  0  0  0
  190.4380  176.7130  141.9010 C   0  0  0  0  0  3  0  0  0  0  0  0
  189.6760  177.5990  142.6830 C   0  0  0  0  0  0  0  0  0  0  0  0
  189.3080  177.5890  138.3940 C   0  0  0  0  0  2  0  0  0  0  0  0
  188.5130  178.7250  137.9610 N   0  0  0  0  0  2  0  0  0  0  0  0
  187.5990  178.2380  137.0150 N   0  0  0  0  0  2  0  0  0  0  0  0
  186.2230  176.2740  136.9970 C   0  0  2  0  0  3  0  0  0  0  0  0
  185.4250  177.4930  136.8760 C   0  0  2  0  0  3  0  0  0  0  0  0
  186.6270  177.5110  137.7230 N   0  0  0  0  0  0  0  0  0  0  0  0
  184.1990  177.3810  137.7550 C   0  0  0  0  0  1  0  0  0  0  0  0
  186.5510  176.4620  134.5080 O   0  0  0  0  0  0  0  0  0  0  0  0
  188.0370  175.2790  135.7900 O   0  0  0  0  0  1  0  0  0  0  0  0
  187.0020  175.9930  135.7380 C   0  0  0  0  0  0  0  0  0  0  0  0
  187.4570  177.1220  144.4450 N   0  0  0  0  0  2  0  0  0  0  0  0
  185.4580  177.6100  145.8230 C   0  0  0  0  0  2  0  0  0  0  0  0
  185.4480  177.8310  143.2130 C   0  0  0  0  0  2  0  0  0  0  0  0
  184.4700  178.6920  146.1490 C   0  0  0  0  0  2  0  0  0  0  0  0
  183.7630  178.2850  141.5890 N   0  0  0  0  0  1  0  0  0  0  0  0
  183.4700  179.2210  143.8760 C   0  0  0  0  0  3  0  0  0  0  0  0
  183.8100  179.0920  145.1150 C   0  0  0  0  0  2  0  0  0  0  0  0
  184.2730  178.4360  142.9090 C   0  0  0  0  0  0  0  0  0  0  0  0
  186.2370  177.9200  144.5210 C   0  0  2  0  0  3  0  0  0  0  0  0
  1  2  1  0  0  0  0
  2  4  1  0  0  0  0
  3  4  2  0  0  0  0
  3  6  1  0  0  0  0
  5  8  1  0  0  0  0
  5  1  2  0  0  0  0
  7  3  1  0  0  0  0
  8  7  2  0  0  0  0
  9 13  1  0  0  0  0
 10 14  1  0  0  0  0
 11  9  2  0  0  0  0
 11 12  1  0  0  0  0
 12 10  2  0  0  0  0
 13 14  2  0  0  0  0
 14  5  1  0  0  0  0
 15 11  1  0  0  0  0
 16 15  1  0  0  0  0
 17 20  1  0  0  0  0
 17 16  1  0  0  0  0
 18 24  1  6  0  0  0
 18 20  1  0  0  0  0
 19 18  1  0  0  0  0
 19 20  1  0  0  0  0
 19 21  1  1  0  0  0
 22 24  2  0  0  0  0
 24 23  1  0  0  0  0
 25  1  1  0  0  0  0
 26 28  1  0  0  0  0
 27 33  1  0  0  0  0
 29 32  1  0  0  0  0
 30 31  1  0  0  0  0
 31 28  1  0  0  0  0
 32 27  1  0  0  0  0
 32 30  2  0  0  0  0
 33 25  1  6  0  0  0
 33 26  1  0  0  0  0
M  END
>  <MODEL>
4

>  <REMARK>
 VINA RESULT:      -8.8      1.374      1.662
  Name = 
  8 active torsions:
  status: ('A' for Active; 'I' for Inactive)
    1  A    between atoms: C_3  and  C_29
    2  A    between atoms: C_4  and  N_27
    3  A    between atoms: C_7  and  C_9
    4  A    between atoms: C_7  and  N_20
    5  A    between atoms: N_17  and  N_21
    6  A    between atoms: N_20  and  N_21
    7  A    between atoms: C_22  and  C_32
    8  A    between atoms: N_27  and  C_30
                            x       y       z     vdW  Elec       q    Type
                         _______ _______ _______ _____ _____    ______ ____

>  <TORSDO>
F 8

$$$$
=
 OpenBabel10232411163D

 33 36  0  0  1  0  0  0  0  0999 V2000
  189.6070  177.2430  144.4830 C   0  0  0  0  0  0  0  0  0  0  0  0
  190.8730  176.4890  144.7710 C   0  0  0  0  0  2  0  0  0  0  0  0
  191.0680  177.0310  147.1760 C   0  0  0  0  0  0  0  0  0  0  0  0
  191.5830  177.0630  145.9490 C   0  0  0  0  0  3  0  0  0  0  0  0
  188.5590  177.1970  145.3420 C   0  0  0  0  0  0  0  0  0  0  0  0
  191.8340  177.5080  148.2300 O   0  0  0  0  0  1  0  0  0  0  0  0
  189.7330  176.4780  147.4710 C   0  0  0  0  0  3  0  0  0  0  0  0
  188.6580  176.5380  146.6740 C   0  0  0  0  0  3  0  0  0  0  0  0
  185.4300  178.2530  143.4410 C   0  0  0  0  0  3  0  0  0  0  0  0
  186.5390  178.5280  145.9900 C   0  0  0  0  0  3  0  0  0  0  0  0
  184.7510  178.9830  144.4210 C   0  0  0  0  0  0  0  0  0  0  0  0
  185.3050  179.1150  145.6970 C   0  0  0  0  0  3  0  0  0  0  0  0
  186.6610  177.6620  143.7370 C   0  0  0  0  0  3  0  0  0  0  0  0
  187.2390  177.8050  145.0100 C   0  0  0  0  0  0  0  0  0  0  0  0
  183.4640  179.6630  144.0990 C   0  0  0  0  0  2  0  0  0  0  0  0
  182.5380  178.7300  143.4810 N   0  0  0  0  0  2  0  0  0  0  0  0
  182.5010  179.0460  142.1160 N   0  0  0  0  0  2  0  0  0  0  0  0
  183.3980  177.9690  140.1690 C   0  0  2  0  0  3  0  0  0  0  0  0
  181.9400  178.0570  140.1130 C   0  0  2  0  0  3  0  0  0  0  0  0
  182.5890  177.8320  141.4140 N   0  0  0  0  0  0  0  0  0  0  0  0
  181.3760  176.7480  139.6060 C   0  0  0  0  0  1  0  0  0  0  0  0
  183.4170  180.2980  139.2130 O   0  0  0  0  0  0  0  0  0  0  0  0
  185.1840  179.5380  140.4590 O   0  0  0  0  0  1  0  0  0  0  0  0
  184.0420  179.3180  139.9760 C   0  0  0  0  0  0  0  0  0  0  0  0
  189.5210  178.0180  143.2750 N   0  0  0  0  0  2  0  0  0  0  0  0
  191.3420  177.7630  141.6160 C   0  0  0  0  0  2  0  0  0  0  0  0
  188.8400  178.0940  140.9110 C   0  0  0  0  0  2  0  0  0  0  0  0
  191.7950  176.9150  140.4650 C   0  0  0  0  0  2  0  0  0  0  0  0
  187.7290  178.4130  138.8270 N   0  0  0  0  0  1  0  0  0  0  0  0
  189.8590  177.1280  138.8350 C   0  0  0  0  0  3  0  0  0  0  0  0
  190.9530  176.9110  139.4870 C   0  0  0  0  0  2  0  0  0  0  0  0
  188.8130  177.8730  139.5730 C   0  0  0  0  0  0  0  0  0  0  0  0
  189.8410  177.5460  141.9310 C   0  0  2  0  0  3  0  0  0  0  0  0
  1  2  1  0  0  0  0
  1  5  2  0  0  0  0
  2  4  1  0  0  0  0
  3  7  1  0  0  0  0
  3  6  1  0  0  0  0
  4  3  2  0  0  0  0
  5  8  1  0  0  0  0
  8  7  2  0  0  0  0
  9 13  2  0  0  0  0
  9 11  1  0  0  0  0
 11 12  2  0  0  0  0
 12 10  1  0  0  0  0
 13 14  1  0  0  0  0
 14  5  1  0  0  0  0
 14 10  2  0  0  0  0
 15 11  1  0  0  0  0
 16 15  1  0  0  0  0
 17 16  1  0  0  0  0
 18 24  1  1  0  0  0
 18 20  1  0  0  0  0
 19 21  1  6  0  0  0
 19 18  1  0  0  0  0
 19 20  1  0  0  0  0
 20 17  1  0  0  0  0
 22 24  2  0  0  0  0
 24 23  1  0  0  0  0
 25  1  1  0  0  0  0
 26 33  1  0  0  0  0
 27 33  1  0  0  0  0
 28 26  1  0  0  0  0
 29 32  1  0  0  0  0
 30 31  1  0  0  0  0
 30 32  2  0  0  0  0
 31 28  1  0  0  0  0
 32 27  1  0  0  0  0
 33 25  1  1  0  0  0
M  END
>  <MODEL>
5

>  <REMARK>
 VINA RESULT:      -8.7      2.044      5.541
  Name = 
  8 active torsions:
  status: ('A' for Active; 'I' for Inactive)
    1  A    between atoms: C_3  and  C_29
    2  A    between atoms: C_4  and  N_27
    3  A    between atoms: C_7  and  C_9
    4  A    between atoms: C_7  and  N_20
    5  A    between atoms: N_17  and  N_21
    6  A    between atoms: N_20  and  N_21
    7  A    between atoms: C_22  and  C_32
    8  A    between atoms: N_27  and  C_30
                            x       y       z     vdW  Elec       q    Type
                         _______ _______ _______ _____ _____    ______ ____

>  <TORSDO>
F 8

$$$$
=
 OpenBabel10232411163D

 33 36  0  0  1  0  0  0  0  0999 V2000
  188.7880  177.5920  143.9130 C   0  0  0  0  0  0  0  0  0  0  0  0
  188.9190  177.9250  145.3720 C   0  0  0  0  0  2  0  0  0  0  0  0
  191.2510  177.1690  145.6980 C   0  0  0  0  0  0  0  0  0  0  0  0
  189.9630  177.0830  146.0220 C   0  0  0  0  0  3  0  0  0  0  0  0
  189.7890  177.8730  143.0430 C   0  0  0  0  0  0  0  0  0  0  0  0
  192.1680  176.4130  146.4150 O   0  0  0  0  0  1  0  0  0  0  0  0
  191.7530  178.0590  144.6350 C   0  0  0  0  0  3  0  0  0  0  0  0
  191.1150  178.3720  143.4990 C   0  0  0  0  0  3  0  0  0  0  0  0
  188.5530  178.2680  139.4590 C   0  0  0  0  0  3  0  0  0  0  0  0
  190.4250  176.7660  140.8880 C   0  0  0  0  0  3  0  0  0  0  0  0
  189.3430  177.3250  138.7950 C   0  0  0  0  0  0  0  0  0  0  0  0
  190.2820  176.5790  139.5110 C   0  0  0  0  0  3  0  0  0  0  0  0
  188.7010  178.4580  140.8360 C   0  0  0  0  0  3  0  0  0  0  0  0
  189.6270  177.6980  141.5710 C   0  0  0  0  0  0  0  0  0  0  0  0
  189.1550  177.0770  137.3380 C   0  0  0  0  0  2  0  0  0  0  0  0
  188.2980  175.9240  137.1240 N   0  0  0  0  0  2  0  0  0  0  0  0
  187.1590  176.3880  136.4510 N   0  0  0  0  0  2  0  0  0  0  0  0
  184.7880  176.5520  136.7690 C   0  0  2  0  0  3  0  0  0  0  0  0
  185.4710  177.7810  137.1670 C   0  0  2  0  0  3  0  0  0  0  0  0
  186.1340  176.4900  137.4060 N   0  0  0  0  0  0  0  0  0  0  0  0
  184.8830  178.2860  138.4670 C   0  0  0  0  0  1  0  0  0  0  0  0
  184.8930  177.4830  134.4320 O   0  0  0  0  0  0  0  0  0  0  0  0
  184.6230  175.2330  134.7760 O   0  0  0  0  0  1  0  0  0  0  0  0
  184.7850  176.3800  135.2720 C   0  0  0  0  0  0  0  0  0  0  0  0
  187.5780  176.9680  143.4510 N   0  0  0  0  0  2  0  0  0  0  0  0
  185.7860  178.3720  142.4760 C   0  0  0  0  0  2  0  0  0  0  0  0
  186.0700  178.0590  145.0620 C   0  0  0  0  0  2  0  0  0  0  0  0
  184.2960  178.5380  142.4280 C   0  0  0  0  0  2  0  0  0  0  0  0
  185.0230  179.0150  146.9780 N   0  0  0  0  0  1  0  0  0  0  0  0
  183.7020  178.8550  144.8760 C   0  0  0  0  0  3  0  0  0  0  0  0
  183.7800  178.7510  143.5910 C   0  0  0  0  0  2  0  0  0  0  0  0
  184.9630  178.6130  145.6140 C   0  0  0  0  0  0  0  0  0  0  0  0
  186.2230  177.4700  143.6580 C   0  0  2  0  0  3  0  0  0  0  0  0
  1  2  1  0  0  0  0
  2  4  1  0  0  0  0
  3  4  2  0  0  0  0
  3  6  1  0  0  0  0
  5  8  1  0  0  0  0
  5  1  2  0  0  0  0
  7  3  1  0  0  0  0
  8  7  2  0  0  0  0
  9 13  1  0  0  0  0
 10 14  1  0  0  0  0
 11  9  2  0  0  0  0
 11 12  1  0  0  0  0
 12 10  2  0  0  0  0
 13 14  2  0  0  0  0
 14  5  1  0  0  0  0
 15 11  1  0  0  0  0
 16 15  1  0  0  0  0
 17 16  1  0  0  0  0
 17 20  1  0  0  0  0
 18 24  1  6  0  0  0
 18 19  1  0  0  0  0
 18 20  1  0  0  0  0
 19 20  1  0  0  0  0
 19 21  1  1  0  0  0
 22 24  2  0  0  0  0
 23 24  1  0  0  0  0
 25  1  1  0  0  0  0
 26 33  1  0  0  0  0
 27 32  1  0  0  0  0
 28 26  1  0  0  0  0
 28 31  1  0  0  0  0
 30 32  2  0  0  0  0
 31 30  1  0  0  0  0
 32 29  1  0  0  0  0
 33 25  1  6  0  0  0
 33 27  1  0  0  0  0
M  END
>  <MODEL>
6

>  <REMARK>
 VINA RESULT:      -8.7      1.628      2.508
  Name = 
  8 active torsions:
  status: ('A' for Active; 'I' for Inactive)
    1  A    between atoms: C_3  and  C_29
    2  A    between atoms: C_4  and  N_27
    3  A    between atoms: C_7  and  C_9
    4  A    between atoms: C_7  and  N_20
    5  A    between atoms: N_17  and  N_21
    6  A    between atoms: N_20  and  N_21
    7  A    between atoms: C_22  and  C_32
    8  A    between atoms: N_27  and  C_30
                            x       y       z     vdW  Elec       q    Type
                         _______ _______ _______ _____ _____    ______ ____

>  <TORSDO>
F 8

$$$$
=
 OpenBabel10232411163D

 33 36  0  0  1  0  0  0  0  0999 V2000
  188.1070  177.6130  144.6290 C   0  0  0  0  0  0  0  0  0  0  0  0
  189.3470  176.9670  145.1790 C   0  0  0  0  0  2  0  0  0  0  0  0
  189.1660  177.7810  147.5070 C   0  0  0  0  0  0  0  0  0  0  0  0
  189.8540  177.7070  146.3690 C   0  0  0  0  0  3  0  0  0  0  0  0
  186.9480  177.6030  145.3310 C   0  0  0  0  0  0  0  0  0  0  0  0
  189.7510  178.4140  148.5950 O   0  0  0  0  0  1  0  0  0  0  0  0
  187.8260  177.1900  147.6740 C   0  0  0  0  0  3  0  0  0  0  0  0
  186.8770  177.1020  146.7320 C   0  0  0  0  0  3  0  0  0  0  0  0
  183.4890  179.1630  144.9780 C   0  0  0  0  0  3  0  0  0  0  0  0
  185.4280  177.9530  143.3720 C   0  0  0  0  0  3  0  0  0  0  0  0
  183.2570  179.0000  143.6090 C   0  0  0  0  0  0  0  0  0  0  0  0
  184.2300  178.3990  142.8070 C   0  0  0  0  0  3  0  0  0  0  0  0
  184.6890  178.7220  145.5410 C   0  0  0  0  0  3  0  0  0  0  0  0
  185.6680  178.0960  144.7480 C   0  0  0  0  0  0  0  0  0  0  0  0
  181.9580  179.4180  143.0100 C   0  0  0  0  0  2  0  0  0  0  0  0
  181.5400  178.4720  141.9900 N   0  0  0  0  0  2  0  0  0  0  0  0
  181.6790  179.1240  140.7560 N   0  0  0  0  0  2  0  0  0  0  0  0
  182.9810  178.4370  138.8630 C   0  0  2  0  0  3  0  0  0  0  0  0
  181.6090  178.7680  138.4820 C   0  0  2  0  0  3  0  0  0  0  0  0
  181.8510  178.1250  139.7830 N   0  0  0  0  0  0  0  0  0  0  0  0
  181.0950  177.7340  137.5050 C   0  0  0  0  0  1  0  0  0  0  0  0
  183.3200  180.9320  138.8460 O   0  0  0  0  0  0  0  0  0  0  0  0
  184.8760  179.5530  139.8120 O   0  0  0  0  0  1  0  0  0  0  0  0
  183.7700  179.6700  139.2210 C   0  0  0  0  0  0  0  0  0  0  0  0
  188.1680  178.2440  143.3390 N   0  0  0  0  0  2  0  0  0  0  0  0
  190.4460  178.1160  142.3760 C   0  0  0  0  0  2  0  0  0  0  0  0
  188.2970  178.2220  140.8810 C   0  0  0  0  0  2  0  0  0  0  0  0
  191.3130  177.2890  141.4730 C   0  0  0  0  0  2  0  0  0  0  0  0
  187.9100  178.4100  138.5360 N   0  0  0  0  0  1  0  0  0  0  0  0
  190.0090  177.3100  139.2940 C   0  0  0  0  0  3  0  0  0  0  0  0
  190.8410  177.1980  140.2750 C   0  0  0  0  0  2  0  0  0  0  0  0
  188.7260  177.9760  139.6180 C   0  0  0  0  0  0  0  0  0  0  0  0
  188.9450  177.7780  142.1940 C   0  0  2  0  0  3  0  0  0  0  0  0
  1  2  1  0  0  0  0
  1  5  2  0  0  0  0
  2  4  1  0  0  0  0
  3  7  1  0  0  0  0
  3  6  1  0  0  0  0
  4  3  2  0  0  0  0
  5  8  1  0  0  0  0
  8  7  2  0  0  0  0
  9 13  1  0  0  0  0
 10 14  1  0  0  0  0
 11  9  2  0  0  0  0
 12 10  2  0  0  0  0
 12 11  1  0  0  0  0
 14  5  1  0  0  0  0
 14 13  2  0  0  0  0
 15 11  1  0  0  0  0
 16 15  1  0  0  0  0
 17 16  1  0  0  0  0
 18 24  1  1  0  0  0
 18 20  1  0  0  0  0
 19 21  1  6  0  0  0
 19 18  1  0  0  0  0
 19 20  1  0  0  0  0
 20 17  1  0  0  0  0
 22 24  2  0  0  0  0
 24 23  1  0  0  0  0
 25  1  1  0  0  0  0
 27 33  1  0  0  0  0
 28 26  1  0  0  0  0
 29 32  1  0  0  0  0
 30 32  2  0  0  0  0
 30 31  1  0  0  0  0
 31 28  1  0  0  0  0
 32 27  1  0  0  0  0
 33 26  1  0  0  0  0
 33 25  1  1  0  0  0
M  END
>  <MODEL>
7

>  <REMARK>
 VINA RESULT:      -8.6      2.094      5.587
  Name = 
  8 active torsions:
  status: ('A' for Active; 'I' for Inactive)
    1  A    between atoms: C_3  and  C_29
    2  A    between atoms: C_4  and  N_27
    3  A    between atoms: C_7  and  C_9
    4  A    between atoms: C_7  and  N_20
    5  A    between atoms: N_17  and  N_21
    6  A    between atoms: N_20  and  N_21
    7  A    between atoms: C_22  and  C_32
    8  A    between atoms: N_27  and  C_30
                            x       y       z     vdW  Elec       q    Type
                         _______ _______ _______ _____ _____    ______ ____

>  <TORSDO>
F 8

$$$$
=
 OpenBabel10232411163D

 33 36  0  0  1  0  0  0  0  0999 V2000
  188.7720  177.6800  144.4580 C   0  0  0  0  0  0  0  0  0  0  0  0
  188.9950  177.9370  145.9210 C   0  0  0  0  0  2  0  0  0  0  0  0
  191.1800  176.8030  146.1500 C   0  0  0  0  0  0  0  0  0  0  0  0
  189.9040  176.9160  146.5130 C   0  0  0  0  0  3  0  0  0  0  0  0
  189.7810  177.8240  143.5640 C   0  0  0  0  0  0  0  0  0  0  0  0
  191.9800  175.8850  146.8160 O   0  0  0  0  0  1  0  0  0  0  0  0
  191.7920  177.6360  145.0980 C   0  0  0  0  0  3  0  0  0  0  0  0
  191.1830  178.0860  143.9920 C   0  0  0  0  0  3  0  0  0  0  0  0
  188.3800  178.4000  140.0670 C   0  0  0  0  0  3  0  0  0  0  0  0
  190.3260  176.8410  141.3260 C   0  0  0  0  0  3  0  0  0  0  0  0
  189.1460  177.5020  139.3180 C   0  0  0  0  0  0  0  0  0  0  0  0
  190.1220  176.7270  139.9490 C   0  0  0  0  0  3  0  0  0  0  0  0
  188.5900  178.5170  141.4440 C   0  0  0  0  0  3  0  0  0  0  0  0
  189.5540  177.7270  142.0950 C   0  0  0  0  0  0  0  0  0  0  0  0
  188.8940  177.3320  137.8590 C   0  0  0  0  0  2  0  0  0  0  0  0
  187.6980  176.5360  137.6390 N   0  0  0  0  0  2  0  0  0  0  0  0
  188.0090  175.6150  136.6280 N   0  0  0  0  0  2  0  0  0  0  0  0
  188.3490  173.2680  136.9820 C   0  0  2  0  0  3  0  0  0  0  0  0
  187.5200  173.5210  135.8040 C   0  0  2  0  0  3  0  0  0  0  0  0
  187.3850  174.4050  136.9730 N   0  0  0  0  0  0  0  0  0  0  0  0
  186.3640  172.5460  135.7830 C   0  0  0  0  0  1  0  0  0  0  0  0
  190.3120  173.6560  135.4530 O   0  0  0  0  0  0  0  0  0  0  0  0
  190.5350  173.9120  137.7200 O   0  0  0  0  0  1  0  0  0  0  0  0
  189.7860  173.6510  136.7410 C   0  0  0  0  0  0  0  0  0  0  0  0
  187.4650  177.2760  144.0160 N   0  0  0  0  0  2  0  0  0  0  0  0
  185.5530  177.7060  145.5300 C   0  0  0  0  0  2  0  0  0  0  0  0
  185.3580  177.9360  142.9280 C   0  0  0  0  0  2  0  0  0  0  0  0
  184.5620  178.7600  145.9290 C   0  0  0  0  0  2  0  0  0  0  0  0
  183.5530  178.3500  141.4260 N   0  0  0  0  0  1  0  0  0  0  0  0
  183.3940  179.2700  143.7320 C   0  0  0  0  0  3  0  0  0  0  0  0
  183.8220  179.1450  144.9450 C   0  0  0  0  0  2  0  0  0  0  0  0
  184.1490  178.5100  142.7080 C   0  0  0  0  0  0  0  0  0  0  0  0
  186.2320  178.0410  144.1790 C   0  0  2  0  0  3  0  0  0  0  0  0
  1  2  1  0  0  0  0
  2  4  1  0  0  0  0
  3  4  2  0  0  0  0
  3  6  1  0  0  0  0
  5  8  1  0  0  0  0
  5  1  2  0  0  0  0
  7  3  1  0  0  0  0
  8  7  2  0  0  0  0
  9 13  1  0  0  0  0
 10 14  1  0  0  0  0
 11 12  1  0  0  0  0
 11  9  2  0  0  0  0
 12 10  2  0  0  0  0
 13 14  2  0  0  0  0
 14  5  1  0  0  0  0
 15 11  1  0  0  0  0
 16 15  1  0  0  0  0
 17 20  1  0  0  0  0
 17 16  1  0  0  0  0
 18 24  1  6  0  0  0
 19 21  1  1  0  0  0
 19 20  1  0  0  0  0
 19 18  1  0  0  0  0
 20 18  1  0  0  0  0
 22 24  2  0  0  0  0
 24 23  1  0  0  0  0
 25  1  1  0  0  0  0
 26 28  1  0  0  0  0
 27 33  1  0  0  0  0
 29 32  1  0  0  0  0
 30 31  1  0  0  0  0
 31 28  1  0  0  0  0
 32 27  1  0  0  0  0
 32 30  2  0  0  0  0
 33 25  1  6  0  0  0
 33 26  1  0  0  0  0
M  END
>  <MODEL>
8

>  <REMARK>
 VINA RESULT:      -8.6      2.376      2.774
  Name = 
  8 active torsions:
  status: ('A' for Active; 'I' for Inactive)
    1  A    between atoms: C_3  and  C_29
    2  A    between atoms: C_4  and  N_27
    3  A    between atoms: C_7  and  C_9
    4  A    between atoms: C_7  and  N_20
    5  A    between atoms: N_17  and  N_21
    6  A    between atoms: N_20  and  N_21
    7  A    between atoms: C_22  and  C_32
    8  A    between atoms: N_27  and  C_30
                            x       y       z     vdW  Elec       q    Type
                         _______ _______ _______ _____ _____    ______ ____

>  <TORSDO>
F 8

$$$$
=
 OpenBabel10232411163D

 33 36  0  0  1  0  0  0  0  0999 V2000
  188.7050  177.6700  143.7940 C   0  0  0  0  0  0  0  0  0  0  0  0
  188.8360  178.0400  145.2440 C   0  0  0  0  0  2  0  0  0  0  0  0
  191.1410  177.2220  145.6110 C   0  0  0  0  0  0  0  0  0  0  0  0
  189.8480  177.1850  145.9270 C   0  0  0  0  0  3  0  0  0  0  0  0
  189.7210  177.8960  142.9250 C   0  0  0  0  0  0  0  0  0  0  0  0
  192.0290  176.4590  146.3560 O   0  0  0  0  0  1  0  0  0  0  0  0
  191.6780  178.0670  144.5280 C   0  0  0  0  0  3  0  0  0  0  0  0
  191.0590  178.3670  143.3780 C   0  0  0  0  0  3  0  0  0  0  0  0
  188.4740  178.1760  139.3340 C   0  0  0  0  0  3  0  0  0  0  0  0
  190.3910  176.7630  140.7940 C   0  0  0  0  0  3  0  0  0  0  0  0
  189.2920  177.2440  138.6900 C   0  0  0  0  0  0  0  0  0  0  0  0
  190.2540  176.5420  139.4220 C   0  0  0  0  0  3  0  0  0  0  0  0
  188.6160  178.4000  140.7060 C   0  0  0  0  0  3  0  0  0  0  0  0
  189.5650  177.6850  141.4570 C   0  0  0  0  0  0  0  0  0  0  0  0
  189.1130  176.9590  137.2390 C   0  0  0  0  0  2  0  0  0  0  0  0
  188.7850  175.5590  137.0310 N   0  0  0  0  0  2  0  0  0  0  0  0
  187.3870  175.4640  137.0650 N   0  0  0  0  0  2  0  0  0  0  0  0
  185.8540  174.0320  135.9020 C   0  0  2  0  0  3  0  0  0  0  0  0
  187.2310  173.5570  135.7840 C   0  0  2  0  0  3  0  0  0  0  0  0
  186.9780  175.0060  135.8010 N   0  0  0  0  0  0  0  0  0  0  0  0
  187.4910  173.1150  134.3600 C   0  0  0  0  0  1  0  0  0  0  0  0
  185.7950  172.7960  138.0940 O   0  0  0  0  0  1  0  0  0  0  0  0
  184.3780  174.5570  137.7140 O   0  0  0  0  0  0  0  0  0  0  0  0
  185.3140  173.8270  137.2940 C   0  0  0  0  0  0  0  0  0  0  0  0
  187.4800  177.0710  143.3390 N   0  0  0  0  0  2  0  0  0  0  0  0
  185.6590  178.5450  142.5370 C   0  0  0  0  0  2  0  0  0  0  0  0
  186.0260  178.0270  145.0790 C   0  0  0  0  0  2  0  0  0  0  0  0
  184.1680  178.7110  142.5500 C   0  0  0  0  0  2  0  0  0  0  0  0
  185.0410  178.8270  147.0980 N   0  0  0  0  0  1  0  0  0  0  0  0
  183.6530  178.8320  145.0340 C   0  0  0  0  0  3  0  0  0  0  0  0
  183.6900  178.8300  143.7430 C   0  0  0  0  0  2  0  0  0  0  0  0
  184.9370  178.5340  145.7090 C   0  0  0  0  0  0  0  0  0  0  0  0
  186.1330  177.5530  143.6290 C   0  0  2  0  0  3  0  0  0  0  0  0
  1  2  1  0  0  0  0
  2  4  1  0  0  0  0
  3  4  2  0  0  0  0
  3  6  1  0  0  0  0
  5  8  1  0  0  0  0
  5  1  2  0  0  0  0
  7  3  1  0  0  0  0
  8  7  2  0  0  0  0
  9 13  1  0  0  0  0
 10 14  1  0  0  0  0
 11  9  2  0  0  0  0
 11 12  1  0  0  0  0
 12 10  2  0  0  0  0
 13 14  2  0  0  0  0
 14  5  1  0  0  0  0
 15 11  1  0  0  0  0
 16 17  1  0  0  0  0
 16 15  1  0  0  0  0
 18 24  1  1  0  0  0
 19 21  1  6  0  0  0
 19 20  1  0  0  0  0
 19 18  1  0  0  0  0
 20 18  1  0  0  0  0
 20 17  1  0  0  0  0
 24 23  2  0  0  0  0
 24 22  1  0  0  0  0
 25  1  1  0  0  0  0
 26 28  1  0  0  0  0
 26 33  1  0  0  0  0
 27 32  1  0  0  0  0
 28 31  1  0  0  0  0
 30 32  2  0  0  0  0
 31 30  1  0  0  0  0
 32 29  1  0  0  0  0
 33 25  1  6  0  0  0
 33 27  1  0  0  0  0
M  END
>  <MODEL>
9

>  <REMARK>
 VINA RESULT:      -8.4      1.981      2.738
  Name = 
  8 active torsions:
  status: ('A' for Active; 'I' for Inactive)
    1  A    between atoms: C_3  and  C_29
    2  A    between atoms: C_4  and  N_27
    3  A    between atoms: C_7  and  C_9
    4  A    between atoms: C_7  and  N_20
    5  A    between atoms: N_17  and  N_21
    6  A    between atoms: N_20  and  N_21
    7  A    between atoms: C_22  and  C_32
    8  A    between atoms: N_27  and  C_30
                            x       y       z     vdW  Elec       q    Type
                         _______ _______ _______ _____ _____    ______ ____

>  <TORSDO>
F 8

$$$$
