=
 OpenBabel10232410013D

 26 30  0  0  1  0  0  0  0  0999 V2000
  181.9160  178.9790  138.4100 C   0  0  1  0  0  3  0  0  0  0  0  0
  179.9860  177.1840  138.4780 C   0  0  0  0  0  1  0  0  0  0  0  0
  183.0880  179.1070  139.3710 C   0  0  1  0  0  3  0  0  0  0  0  0
  181.3760  177.7770  140.4850 C   0  0  1  0  0  3  0  0  0  0  0  0
  182.6830  178.4100  140.5860 N   0  0  0  0  0  0  0  0  0  0  0  0
  180.2750  178.8300  140.4670 C   0  0  0  0  0  2  0  0  0  0  0  0
  180.8040  178.2560  139.1670 C   0  0  1  0  0  0  0  0  0  0  0  0
  184.8400  178.6130  144.2420 C   0  0  0  0  0  0  0  0  0  0  0  0
  182.8010  178.9680  142.9870 C   0  0  0  0  0  3  0  0  0  0  0  0
  185.5270  178.6770  145.4070 F   0  0  0  0  0  0  0  0  0  0  0  0
  185.4630  178.1230  143.0900 C   0  0  0  0  0  3  0  0  0  0  0  0
  183.5100  179.0350  144.1900 C   0  0  0  0  0  3  0  0  0  0  0  0
  183.4150  178.4780  141.8240 C   0  0  0  0  0  0  0  0  0  0  0  0
  184.7540  178.0570  141.8880 C   0  0  0  0  0  3  0  0  0  0  0  0
  185.5640  179.0750  139.0120 C   0  0  0  0  0  3  0  0  0  0  0  0
  184.3180  178.4910  138.7740 C   0  0  0  0  0  0  0  0  0  0  0  0
  186.6890  178.5340  138.4700 N   0  0  0  0  0  0  0  0  0  0  0  0
  185.4120  176.8090  137.4200 C   0  0  0  0  0  3  0  0  0  0  0  0
  184.2480  177.3490  137.9660 C   0  0  0  0  0  3  0  0  0  0  0  0
  186.6380  177.4220  137.6870 C   0  0  0  0  0  3  0  0  0  0  0  0
  180.8280  180.5350  136.7180 C   0  0  0  0  0  3  0  0  0  0  0  0
  181.4710  180.3190  137.9220 C   0  0  0  0  0  0  0  0  0  0  0  0
  181.1290  182.4350  137.8960 C   0  0  0  0  0  3  0  0  0  0  0  0
  179.9900  182.6400  135.6990 N   0  0  0  0  0  1  0  0  0  0  0  0
  180.6260  181.8980  136.7330 C   0  0  0  0  0  0  0  0  0  0  0  0
  181.6330  181.4400  138.5880 O   0  0  0  0  0  0  0  0  0  0  0  0
  1 22  1  1  0  0  0
  1  7  1  0  0  0  0
  1  3  1  0  0  0  0
  3 16  1  6  0  0  0
  3  5  1  0  0  0  0
  4  6  1  1  0  0  0
  4  5  1  0  0  0  0
  5 13  1  0  0  0  0
  7  2  1  6  0  0  0
  7  6  1  0  0  0  0
  7  4  1  0  0  0  0
  8 10  1  0  0  0  0
  9 12  2  0  0  0  0
 11  8  2  0  0  0  0
 12  8  1  0  0  0  0
 13 14  2  0  0  0  0
 13  9  1  0  0  0  0
 14 11  1  0  0  0  0
 16 15  1  0  0  0  0
 17 15  2  0  0  0  0
 18 20  2  0  0  0  0
 18 19  1  0  0  0  0
 19 16  2  0  0  0  0
 20 17  1  0  0  0  0
 21 25  1  0  0  0  0
 21 22  2  0  0  0  0
 22 26  1  0  0  0  0
 23 26  1  0  0  0  0
 24 25  1  0  0  0  0
 25 23  2  0  0  0  0
M  END
>  <MODEL>
1

>  <REMARK>
 VINA RESULT:      -6.2      0.000      0.000
  Name = 
  3 active torsions:
  status: ('A' for Active; 'I' for Inactive)
    1  A    between atoms: C_2  and  C_5
    2  A    between atoms: C_4  and  C_13
    3  A    between atoms: C_15  and  N_23
                            x       y       z     vdW  Elec       q    Type
                         _______ _______ _______ _____ _____    ______ ____

>  <TORSDO>
F 3

$$$$
=
 OpenBabel10232410013D

 26 30  0  0  1  0  0  0  0  0999 V2000
  189.9640  177.1950  138.6010 C   0  0  1  0  0  3  0  0  0  0  0  0
  189.0490  179.2380  137.2070 C   0  0  0  0  0  1  0  0  0  0  0  0
  190.1680  175.7680  138.1150 C   0  0  1  0  0  3  0  0  0  0  0  0
  188.6180  176.8450  136.5730 C   0  0  1  0  0  3  0  0  0  0  0  0
  189.3150  175.6210  136.9420 N   0  0  0  0  0  0  0  0  0  0  0  0
  187.5300  177.1650  137.5890 C   0  0  0  0  0  2  0  0  0  0  0  0
  188.8950  177.8150  137.7020 C   0  0  1  0  0  0  0  0  0  0  0  0
  188.5160  171.8890  135.0730 C   0  0  0  0  0  0  0  0  0  0  0  0
  188.3740  173.3400  137.0050 C   0  0  0  0  0  3  0  0  0  0  0  0
  188.2610  170.7000  134.4770 F   0  0  0  0  0  0  0  0  0  0  0  0
  189.1860  172.8940  134.3680 C   0  0  0  0  0  3  0  0  0  0  0  0
  188.1110  172.1130  136.3900 C   0  0  0  0  0  3  0  0  0  0  0  0
  189.0450  174.3570  136.3070 C   0  0  0  0  0  0  0  0  0  0  0  0
  189.4490  174.1210  134.9830 C   0  0  0  0  0  3  0  0  0  0  0  0
  192.4720  176.6320  137.6650 C   0  0  0  0  0  3  0  0  0  0  0  0
  191.6090  175.5390  137.7710 C   0  0  0  0  0  0  0  0  0  0  0  0
  193.7810  176.4430  137.3440 N   0  0  0  0  0  0  0  0  0  0  0  0
  193.4570  174.0800  137.2050 C   0  0  0  0  0  3  0  0  0  0  0  0
  192.1120  174.2530  137.5320 C   0  0  0  0  0  3  0  0  0  0  0  0
  194.2860  175.2000  137.1150 C   0  0  0  0  0  3  0  0  0  0  0  0
  190.2320  176.5580  141.0480 C   0  0  0  0  0  3  0  0  0  0  0  0
  189.5610  177.2220  140.0380 C   0  0  0  0  0  0  0  0  0  0  0  0
  188.4510  177.7160  141.8040 C   0  0  0  0  0  3  0  0  0  0  0  0
  189.7730  176.4570  143.4870 N   0  0  0  0  0  1  0  0  0  0  0  0
  189.4950  176.8950  142.1620 C   0  0  0  0  0  0  0  0  0  0  0  0
  188.5290  177.8890  140.5060 O   0  0  0  0  0  0  0  0  0  0  0  0
  1 22  1  1  0  0  0
  3 16  1  6  0  0  0
  3  1  1  0  0  0  0
  4  5  1  0  0  0  0
  4  6  1  1  0  0  0
  4  7  1  0  0  0  0
  5  3  1  0  0  0  0
  6  7  1  0  0  0  0
  7  2  1  6  0  0  0
  7  1  1  0  0  0  0
  8 12  1  0  0  0  0
 10  8  1  0  0  0  0
 11 14  1  0  0  0  0
 11  8  2  0  0  0  0
 12  9  2  0  0  0  0
 13  5  1  0  0  0  0
 13  9  1  0  0  0  0
 14 13  2  0  0  0  0
 15 16  1  0  0  0  0
 17 15  2  0  0  0  0
 18 19  1  0  0  0  0
 19 16  2  0  0  0  0
 20 18  2  0  0  0  0
 20 17  1  0  0  0  0
 21 25  1  0  0  0  0
 22 26  1  0  0  0  0
 22 21  2  0  0  0  0
 23 25  2  0  0  0  0
 25 24  1  0  0  0  0
 26 23  1  0  0  0  0
M  END
>  <MODEL>
2

>  <REMARK>
 VINA RESULT:      -6.2      6.712      9.597
  Name = 
  3 active torsions:
  status: ('A' for Active; 'I' for Inactive)
    1  A    between atoms: C_2  and  C_5
    2  A    between atoms: C_4  and  C_13
    3  A    between atoms: C_15  and  N_23
                            x       y       z     vdW  Elec       q    Type
                         _______ _______ _______ _____ _____    ______ ____

>  <TORSDO>
F 3

$$$$
=
 OpenBabel10232410013D

 26 30  0  0  1  0  0  0  0  0999 V2000
  188.3200  177.2460  137.6500 C   0  0  1  0  0  3  0  0  0  0  0  0
  187.2230  179.1760  136.2280 C   0  0  0  0  0  1  0  0  0  0  0  0
  188.1350  175.7470  137.4640 C   0  0  1  0  0  3  0  0  0  0  0  0
  186.2730  176.8540  136.3470 C   0  0  1  0  0  3  0  0  0  0  0  0
  186.8880  175.5900  136.7230 N   0  0  0  0  0  0  0  0  0  0  0  0
  185.7030  177.5550  137.5740 C   0  0  0  0  0  2  0  0  0  0  0  0
  187.0820  177.9180  137.0580 C   0  0  1  0  0  0  0  0  0  0  0  0
  184.9540  171.8500  136.1510 C   0  0  0  0  0  0  0  0  0  0  0  0
  185.4150  173.7830  137.5330 C   0  0  0  0  0  3  0  0  0  0  0  0
  184.3360  170.6580  135.9680 F   0  0  0  0  0  0  0  0  0  0  0  0
  185.7670  172.3770  135.1430 C   0  0  0  0  0  3  0  0  0  0  0  0
  184.7780  172.5530  137.3450 C   0  0  0  0  0  3  0  0  0  0  0  0
  186.2340  174.3220  136.5280 C   0  0  0  0  0  0  0  0  0  0  0  0
  186.4040  173.6070  135.3320 C   0  0  0  0  0  3  0  0  0  0  0  0
  189.7790  175.8410  135.5810 C   0  0  0  0  0  3  0  0  0  0  0  0
  189.2930  175.1710  136.7070 C   0  0  0  0  0  0  0  0  0  0  0  0
  190.8240  175.3270  134.8760 N   0  0  0  0  0  0  0  0  0  0  0  0
  190.9640  173.4550  136.3540 C   0  0  0  0  0  3  0  0  0  0  0  0
  189.8930  173.9640  137.0890 C   0  0  0  0  0  3  0  0  0  0  0  0
  191.4210  174.1590  135.2380 C   0  0  0  0  0  3  0  0  0  0  0  0
  189.4550  177.0260  139.9140 C   0  0  0  0  0  3  0  0  0  0  0  0
  188.5010  177.5910  139.0910 C   0  0  0  0  0  0  0  0  0  0  0  0
  188.1890  178.5580  140.9790 C   0  0  0  0  0  3  0  0  0  0  0  0
  189.9570  177.4340  142.3120 N   0  0  0  0  0  1  0  0  0  0  0  0
  189.2270  177.6650  141.1130 C   0  0  0  0  0  0  0  0  0  0  0  0
  187.7780  178.4810  139.7350 O   0  0  0  0  0  0  0  0  0  0  0  0
  1 22  1  1  0  0  0
  3 16  1  6  0  0  0
  3  1  1  0  0  0  0
  4  5  1  0  0  0  0
  4  7  1  0  0  0  0
  4  6  1  1  0  0  0
  5  3  1  0  0  0  0
  7  2  1  6  0  0  0
  7  6  1  0  0  0  0
  7  1  1  0  0  0  0
  8 12  1  0  0  0  0
 10  8  1  0  0  0  0
 11 14  1  0  0  0  0
 11  8  2  0  0  0  0
 12  9  2  0  0  0  0
 13  5  1  0  0  0  0
 13  9  1  0  0  0  0
 14 13  2  0  0  0  0
 15 16  1  0  0  0  0
 16 19  2  0  0  0  0
 17 20  1  0  0  0  0
 17 15  2  0  0  0  0
 18 19  1  0  0  0  0
 20 18  2  0  0  0  0
 21 25  1  0  0  0  0
 22 26  1  0  0  0  0
 22 21  2  0  0  0  0
 23 25  2  0  0  0  0
 25 24  1  0  0  0  0
 26 23  1  0  0  0  0
M  END
>  <MODEL>
3

>  <REMARK>
 VINA RESULT:      -5.9      5.574      8.212
  Name = 
  3 active torsions:
  status: ('A' for Active; 'I' for Inactive)
    1  A    between atoms: C_2  and  C_5
    2  A    between atoms: C_4  and  C_13
    3  A    between atoms: C_15  and  N_23
                            x       y       z     vdW  Elec       q    Type
                         _______ _______ _______ _____ _____    ______ ____

>  <TORSDO>
F 3

$$$$
=
 OpenBabel10232410013D

 26 30  0  0  1  0  0  0  0  0999 V2000
  184.2790  178.3630  138.5830 C   0  0  1  0  0  3  0  0  0  0  0  0
  181.8930  179.4130  138.1920 C   0  0  0  0  0  1  0  0  0  0  0  0
  184.7910  177.0250  138.0720 C   0  0  1  0  0  3  0  0  0  0  0  0
  182.3560  176.9530  137.9890 C   0  0  1  0  0  3  0  0  0  0  0  0
  183.6030  176.2310  137.7790 N   0  0  0  0  0  0  0  0  0  0  0  0
  182.1080  177.1650  139.4760 C   0  0  0  0  0  2  0  0  0  0  0  0
  182.7570  178.2560  138.6460 C   0  0  1  0  0  0  0  0  0  0  0  0
  183.7120  172.0770  136.8910 C   0  0  0  0  0  0  0  0  0  0  0  0
  182.5160  174.1810  136.9390 C   0  0  0  0  0  3  0  0  0  0  0  0
  183.7470  170.7530  136.6070 F   0  0  0  0  0  0  0  0  0  0  0  0
  184.8390  172.7060  137.4280 C   0  0  0  0  0  3  0  0  0  0  0  0
  182.5520  172.8150  136.6470 C   0  0  0  0  0  3  0  0  0  0  0  0
  183.6410  174.8240  137.4790 C   0  0  0  0  0  0  0  0  0  0  0  0
  184.8030  174.0720  137.7210 C   0  0  0  0  0  3  0  0  0  0  0  0
  187.0110  177.3670  136.9710 C   0  0  0  0  0  3  0  0  0  0  0  0
  185.6280  177.2250  136.8440 C   0  0  0  0  0  0  0  0  0  0  0  0
  187.7850  177.5580  135.8670 N   0  0  0  0  0  0  0  0  0  0  0  0
  185.8630  177.4880  134.4490 C   0  0  0  0  0  3  0  0  0  0  0  0
  185.0540  177.2920  135.5680 C   0  0  0  0  0  3  0  0  0  0  0  0
  187.2430  177.6200  134.6210 C   0  0  0  0  0  3  0  0  0  0  0  0
  184.1240  178.9170  141.0600 C   0  0  0  0  0  3  0  0  0  0  0  0
  184.8660  178.6900  139.9170 C   0  0  0  0  0  0  0  0  0  0  0  0
  186.3450  179.0770  141.4200 C   0  0  0  0  0  3  0  0  0  0  0  0
  184.8570  179.4610  143.3710 N   0  0  0  0  0  1  0  0  0  0  0  0
  185.1000  179.1630  142.0010 C   0  0  0  0  0  0  0  0  0  0  0  0
  186.1560  178.7880  140.1540 O   0  0  0  0  0  0  0  0  0  0  0  0
  1  7  1  0  0  0  0
  1 22  1  1  0  0  0
  3 16  1  6  0  0  0
  3  1  1  0  0  0  0
  4  7  1  0  0  0  0
  4  6  1  1  0  0  0
  5  4  1  0  0  0  0
  5  3  1  0  0  0  0
  7  2  1  6  0  0  0
  7  6  1  0  0  0  0
  8 11  1  0  0  0  0
  9 13  2  0  0  0  0
 10  8  1  0  0  0  0
 11 14  2  0  0  0  0
 12  8  2  0  0  0  0
 12  9  1  0  0  0  0
 13 14  1  0  0  0  0
 13  5  1  0  0  0  0
 16 15  1  0  0  0  0
 17 15  2  0  0  0  0
 18 20  2  0  0  0  0
 18 19  1  0  0  0  0
 19 16  2  0  0  0  0
 20 17  1  0  0  0  0
 21 25  1  0  0  0  0
 22 26  1  0  0  0  0
 22 21  2  0  0  0  0
 23 25  2  0  0  0  0
 25 24  1  0  0  0  0
 26 23  1  0  0  0  0
M  END
>  <MODEL>
4

>  <REMARK>
 VINA RESULT:      -5.6      3.646      5.920
  Name = 
  3 active torsions:
  status: ('A' for Active; 'I' for Inactive)
    1  A    between atoms: C_2  and  C_5
    2  A    between atoms: C_4  and  C_13
    3  A    between atoms: C_15  and  N_23
                            x       y       z     vdW  Elec       q    Type
                         _______ _______ _______ _____ _____    ______ ____

>  <TORSDO>
F 3

$$$$
=
 OpenBabel10232410013D

 26 30  0  0  1  0  0  0  0  0999 V2000
  187.6770  177.7230  138.7460 C   0  0  1  0  0  3  0  0  0  0  0  0
  188.9820  179.5380  137.3480 C   0  0  0  0  0  1  0  0  0  0  0  0
  187.8900  177.3600  140.2080 C   0  0  1  0  0  3  0  0  0  0  0  0
  189.9030  178.5000  139.4410 C   0  0  1  0  0  3  0  0  0  0  0  0
  189.2370  177.8120  140.5380 N   0  0  0  0  0  0  0  0  0  0  0  0
  190.2730  177.5140  138.3400 C   0  0  0  0  0  2  0  0  0  0  0  0
  188.9920  178.3190  138.2460 C   0  0  1  0  0  0  0  0  0  0  0  0
  191.2380  176.7970  144.1470 C   0  0  0  0  0  0  0  0  0  0  0  0
  190.3950  178.4720  142.6150 C   0  0  0  0  0  3  0  0  0  0  0  0
  191.8740  176.4740  145.2980 F   0  0  0  0  0  0  0  0  0  0  0  0
  190.7650  175.7880  143.3040 C   0  0  0  0  0  3  0  0  0  0  0  0
  191.0530  178.1380  143.8020 C   0  0  0  0  0  3  0  0  0  0  0  0
  189.9150  177.4670  141.7600 C   0  0  0  0  0  0  0  0  0  0  0  0
  190.1070  176.1220  142.1160 C   0  0  0  0  0  3  0  0  0  0  0  0
  185.9420  178.9060  140.4770 C   0  0  0  0  0  3  0  0  0  0  0  0
  186.8650  178.0380  141.0660 C   0  0  0  0  0  0  0  0  0  0  0  0
  185.0100  179.5380  141.2420 N   0  0  0  0  0  0  0  0  0  0  0  0
  185.8560  178.4950  143.2190 C   0  0  0  0  0  3  0  0  0  0  0  0
  186.8190  177.8390  142.4520 C   0  0  0  0  0  3  0  0  0  0  0  0
  184.9490  179.3500  142.5890 C   0  0  0  0  0  3  0  0  0  0  0  0
  186.0390  176.3750  137.3440 C   0  0  0  0  0  3  0  0  0  0  0  0
  187.2730  176.5280  137.9480 C   0  0  0  0  0  0  0  0  0  0  0  0
  187.4070  174.6180  136.9830 C   0  0  0  0  0  3  0  0  0  0  0  0
  185.1410  174.5090  135.9730 N   0  0  0  0  0  1  0  0  0  0  0  0
  186.1580  175.1440  136.7380 C   0  0  0  0  0  0  0  0  0  0  0  0
  188.0500  175.4920  137.7210 O   0  0  0  0  0  0  0  0  0  0  0  0
  1 22  1  6  0  0  0
  1  3  1  0  0  0  0
  3  5  1  0  0  0  0
  3 16  1  1  0  0  0
  4  6  1  6  0  0  0
  4  5  1  0  0  0  0
  5 13  1  0  0  0  0
  7  2  1  6  0  0  0
  7  6  1  0  0  0  0
  7  1  1  0  0  0  0
  7  4  1  0  0  0  0
  8 10  1  0  0  0  0
  9 12  2  0  0  0  0
 11  8  2  0  0  0  0
 12  8  1  0  0  0  0
 13 14  2  0  0  0  0
 13  9  1  0  0  0  0
 14 11  1  0  0  0  0
 15 16  2  0  0  0  0
 15 17  1  0  0  0  0
 16 19  1  0  0  0  0
 17 20  2  0  0  0  0
 19 18  2  0  0  0  0
 20 18  1  0  0  0  0
 21 22  2  0  0  0  0
 23 26  1  0  0  0  0
 24 25  1  0  0  0  0
 25 23  2  0  0  0  0
 25 21  1  0  0  0  0
 26 22  1  0  0  0  0
M  END
>  <MODEL>
5

>  <REMARK>
 VINA RESULT:      -5.4      4.587      7.115
  Name = 
  3 active torsions:
  status: ('A' for Active; 'I' for Inactive)
    1  A    between atoms: C_2  and  C_5
    2  A    between atoms: C_4  and  C_13
    3  A    between atoms: C_15  and  N_23
                            x       y       z     vdW  Elec       q    Type
                         _______ _______ _______ _____ _____    ______ ____

>  <TORSDO>
F 3

$$$$
=
 OpenBabel10232410013D

 26 30  0  0  1  0  0  0  0  0999 V2000
  188.4910  176.4510  137.0430 C   0  0  1  0  0  3  0  0  0  0  0  0
  189.5070  177.6630  134.9330 C   0  0  0  0  0  1  0  0  0  0  0  0
  187.0270  176.1270  137.3020 C   0  0  1  0  0  3  0  0  0  0  0  0
  187.0950  177.8760  135.6060 C   0  0  1  0  0  3  0  0  0  0  0  0
  186.2630  177.0320  136.4500 N   0  0  0  0  0  0  0  0  0  0  0  0
  187.8110  178.9270  136.4430 C   0  0  0  0  0  2  0  0  0  0  0  0
  188.5140  177.6340  136.0760 C   0  0  1  0  0  0  0  0  0  0  0  0
  182.0550  177.5440  136.7510 C   0  0  0  0  0  0  0  0  0  0  0  0
  184.2590  177.6630  137.7450 C   0  0  0  0  0  3  0  0  0  0  0  0
  180.7140  177.7080  136.8470 F   0  0  0  0  0  0  0  0  0  0  0  0
  182.6190  177.0860  135.5570 C   0  0  0  0  0  3  0  0  0  0  0  0
  182.8750  177.8320  137.8450 C   0  0  0  0  0  3  0  0  0  0  0  0
  184.8370  177.2040  136.5510 C   0  0  0  0  0  0  0  0  0  0  0  0
  184.0030  176.9170  135.4580 C   0  0  0  0  0  3  0  0  0  0  0  0
  187.6830  173.9660  136.2260 C   0  0  0  0  0  3  0  0  0  0  0  0
  186.7460  174.6940  136.9620 C   0  0  0  0  0  0  0  0  0  0  0  0
  187.4400  172.6670  135.9010 N   0  0  0  0  0  0  0  0  0  0  0  0
  185.3230  172.7360  137.0070 C   0  0  0  0  0  3  0  0  0  0  0  0
  185.5530  174.0680  137.3490 C   0  0  0  0  0  3  0  0  0  0  0  0
  186.2890  172.0430  136.2740 C   0  0  0  0  0  3  0  0  0  0  0  0
  190.5810  176.7930  138.4500 C   0  0  0  0  0  3  0  0  0  0  0  0
  189.2060  176.7640  138.3160 C   0  0  0  0  0  0  0  0  0  0  0  0
  189.5100  177.2880  140.3720 C   0  0  0  0  0  3  0  0  0  0  0  0
  191.9930  177.2890  140.4330 N   0  0  0  0  0  1  0  0  0  0  0  0
  190.7410  177.1290  139.7770 C   0  0  0  0  0  0  0  0  0  0  0  0
  188.6070  177.0570  139.4490 O   0  0  0  0  0  0  0  0  0  0  0  0
  1  3  1  0  0  0  0
  1 22  1  1  0  0  0
  3 16  1  6  0  0  0
  4  7  1  0  0  0  0
  4  6  1  1  0  0  0
  4  5  1  0  0  0  0
  5 13  1  0  0  0  0
  5  3  1  0  0  0  0
  7  2  1  6  0  0  0
  7  6  1  0  0  0  0
  7  1  1  0  0  0  0
  8 10  1  0  0  0  0
  8 12  1  0  0  0  0
  9 12  2  0  0  0  0
 11  8  2  0  0  0  0
 13  9  1  0  0  0  0
 14 11  1  0  0  0  0
 14 13  2  0  0  0  0
 15 16  1  0  0  0  0
 16 19  2  0  0  0  0
 17 15  2  0  0  0  0
 17 20  1  0  0  0  0
 18 19  1  0  0  0  0
 20 18  2  0  0  0  0
 21 25  1  0  0  0  0
 22 21  2  0  0  0  0
 22 26  1  0  0  0  0
 25 23  2  0  0  0  0
 25 24  1  0  0  0  0
 26 23  1  0  0  0  0
M  END
>  <MODEL>
6

>  <REMARK>
 VINA RESULT:      -5.4      4.645      7.943
  Name = 
  3 active torsions:
  status: ('A' for Active; 'I' for Inactive)
    1  A    between atoms: C_2  and  C_5
    2  A    between atoms: C_4  and  C_13
    3  A    between atoms: C_15  and  N_23
                            x       y       z     vdW  Elec       q    Type
                         _______ _______ _______ _____ _____    ______ ____

>  <TORSDO>
F 3

$$$$
=
 OpenBabel10232410013D

 26 30  0  0  1  0  0  0  0  0999 V2000
  187.1740  176.6300  136.9350 C   0  0  1  0  0  3  0  0  0  0  0  0
  187.1380  178.2630  134.8650 C   0  0  0  0  0  1  0  0  0  0  0  0
  188.3950  176.1460  137.7040 C   0  0  1  0  0  3  0  0  0  0  0  0
  189.1710  176.9500  135.5380 C   0  0  1  0  0  3  0  0  0  0  0  0
  189.5280  176.3270  136.8040 N   0  0  0  0  0  0  0  0  0  0  0  0
  188.3690  175.9830  134.6760 C   0  0  0  0  0  2  0  0  0  0  0  0
  187.6580  177.0100  135.5370 C   0  0  1  0  0  0  0  0  0  0  0  0
  193.4010  174.7500  137.5610 C   0  0  0  0  0  0  0  0  0  0  0  0
  191.9100  176.6480  137.3650 C   0  0  0  0  0  3  0  0  0  0  0  0
  194.6350  174.2480  137.8030 F   0  0  0  0  0  0  0  0  0  0  0  0
  192.3440  173.8890  137.2570 C   0  0  0  0  0  3  0  0  0  0  0  0
  193.1840  176.1290  137.6140 C   0  0  0  0  0  3  0  0  0  0  0  0
  190.8400  175.7910  137.0600 C   0  0  0  0  0  0  0  0  0  0  0  0
  191.0690  174.4070  137.0080 C   0  0  0  0  0  3  0  0  0  0  0  0
  187.7580  178.0620  139.1800 C   0  0  0  0  0  3  0  0  0  0  0  0
  188.5660  176.9440  138.9610 C   0  0  0  0  0  0  0  0  0  0  0  0
  187.9070  178.8040  140.3120 N   0  0  0  0  0  0  0  0  0  0  0  0
  189.6690  177.3790  141.0720 C   0  0  0  0  0  3  0  0  0  0  0  0
  189.5320  176.6070  139.9180 C   0  0  0  0  0  3  0  0  0  0  0  0
  188.8370  178.4860  141.2540 C   0  0  0  0  0  3  0  0  0  0  0  0
  186.3120  174.2580  137.2440 C   0  0  0  0  0  3  0  0  0  0  0  0
  186.1160  175.5780  136.8870 C   0  0  0  0  0  0  0  0  0  0  0  0
  184.1950  174.6730  136.5870 C   0  0  0  0  0  3  0  0  0  0  0  0
  184.7290  172.3440  137.2610 N   0  0  0  0  0  1  0  0  0  0  0  0
  185.0660  173.7080  137.0390 C   0  0  0  0  0  0  0  0  0  0  0  0
  184.8750  175.7940  136.5100 O   0  0  0  0  0  0  0  0  0  0  0  0
  1 22  1  6  0  0  0
  1  3  1  0  0  0  0
  3 16  1  1  0  0  0
  4  6  1  6  0  0  0
  4  5  1  0  0  0  0
  5 13  1  0  0  0  0
  5  3  1  0  0  0  0
  6  7  1  0  0  0  0
  7  2  1  6  0  0  0
  7  4  1  0  0  0  0
  7  1  1  0  0  0  0
  8 12  1  0  0  0  0
  8 10  1  0  0  0  0
  9 12  2  0  0  0  0
 11  8  2  0  0  0  0
 13  9  1  0  0  0  0
 14 13  2  0  0  0  0
 14 11  1  0  0  0  0
 15 17  1  0  0  0  0
 16 15  2  0  0  0  0
 16 19  1  0  0  0  0
 17 20  2  0  0  0  0
 18 20  1  0  0  0  0
 19 18  2  0  0  0  0
 22 21  2  0  0  0  0
 23 25  2  0  0  0  0
 25 21  1  0  0  0  0
 25 24  1  0  0  0  0
 26 23  1  0  0  0  0
 26 22  1  0  0  0  0
M  END
>  <MODEL>
7

>  <REMARK>
 VINA RESULT:      -5.4      5.964      8.424
  Name = 
  3 active torsions:
  status: ('A' for Active; 'I' for Inactive)
    1  A    between atoms: C_2  and  C_5
    2  A    between atoms: C_4  and  C_13
    3  A    between atoms: C_15  and  N_23
                            x       y       z     vdW  Elec       q    Type
                         _______ _______ _______ _____ _____    ______ ____

>  <TORSDO>
F 3

$$$$
=
 OpenBabel10232410013D

 26 30  0  0  1  0  0  0  0  0999 V2000
  190.3700  175.5660  136.3760 C   0  0  1  0  0  3  0  0  0  0  0  0
  192.7720  176.1450  135.4550 C   0  0  0  0  0  1  0  0  0  0  0  0
  189.7370  176.0590  137.6680 C   0  0  1  0  0  3  0  0  0  0  0  0
  192.1460  176.3590  137.8790 C   0  0  1  0  0  3  0  0  0  0  0  0
  190.8450  176.4730  138.5210 N   0  0  0  0  0  0  0  0  0  0  0  0
  192.5360  174.8960  137.7210 C   0  0  0  0  0  2  0  0  0  0  0  0
  191.8830  175.6410  136.5720 C   0  0  1  0  0  0  0  0  0  0  0  0
  190.4030  177.4330  142.6370 C   0  0  0  0  0  0  0  0  0  0  0  0
  189.4590  176.6320  140.5570 C   0  0  0  0  0  3  0  0  0  0  0  0
  190.2620  177.7380  143.9490 F   0  0  0  0  0  0  0  0  0  0  0  0
  191.6400  177.6040  142.0090 C   0  0  0  0  0  3  0  0  0  0  0  0
  189.3130  176.9470  141.9110 C   0  0  0  0  0  3  0  0  0  0  0  0
  190.6960  176.7990  139.9160 C   0  0  0  0  0  0  0  0  0  0  0  0
  191.7850  177.2890  140.6550 C   0  0  0  0  0  3  0  0  0  0  0  0
  189.3340  178.4860  137.2170 C   0  0  0  0  0  3  0  0  0  0  0  0
  188.8090  177.2030  137.3880 C   0  0  0  0  0  0  0  0  0  0  0  0
  188.5060  179.5380  136.9710 N   0  0  0  0  0  0  0  0  0  0  0  0
  186.5900  178.1120  137.0570 C   0  0  0  0  0  3  0  0  0  0  0  0
  187.4220  177.0220  137.3100 C   0  0  0  0  0  3  0  0  0  0  0  0
  187.1570  179.3770  136.8870 C   0  0  0  0  0  3  0  0  0  0  0  0
  188.8040  173.5740  136.5930 C   0  0  0  0  0  3  0  0  0  0  0  0
  189.9230  174.1790  136.0520 C   0  0  0  0  0  0  0  0  0  0  0  0
  189.8930  172.2400  135.1370 C   0  0  0  0  0  3  0  0  0  0  0  0
  187.8570  171.3100  136.2110 N   0  0  0  0  0  1  0  0  0  0  0  0
  188.8160  172.3370  135.9880 C   0  0  0  0  0  0  0  0  0  0  0  0
  190.5370  173.3810  135.2060 O   0  0  0  0  0  0  0  0  0  0  0  0
  1 22  1  1  0  0  0
  1  7  1  0  0  0  0
  1  3  1  0  0  0  0
  3 16  1  6  0  0  0
  3  5  1  0  0  0  0
  4  6  1  1  0  0  0
  4  5  1  0  0  0  0
  5 13  1  0  0  0  0
  7  2  1  6  0  0  0
  7  6  1  0  0  0  0
  7  4  1  0  0  0  0
  8 10  1  0  0  0  0
  9 12  1  0  0  0  0
 11  8  1  0  0  0  0
 12  8  2  0  0  0  0
 13  9  2  0  0  0  0
 13 14  1  0  0  0  0
 14 11  2  0  0  0  0
 15 16  1  0  0  0  0
 17 15  2  0  0  0  0
 18 19  1  0  0  0  0
 19 16  2  0  0  0  0
 20 17  1  0  0  0  0
 20 18  2  0  0  0  0
 22 21  2  0  0  0  0
 23 26  1  0  0  0  0
 23 25  2  0  0  0  0
 25 24  1  0  0  0  0
 25 21  1  0  0  0  0
 26 22  1  0  0  0  0
M  END
>  <MODEL>
8

>  <REMARK>
 VINA RESULT:      -5.3      5.954      9.033
  Name = 
  3 active torsions:
  status: ('A' for Active; 'I' for Inactive)
    1  A    between atoms: C_2  and  C_5
    2  A    between atoms: C_4  and  C_13
    3  A    between atoms: C_15  and  N_23
                            x       y       z     vdW  Elec       q    Type
                         _______ _______ _______ _____ _____    ______ ____

>  <TORSDO>
F 3

$$$$
=
 OpenBabel10232410013D

 26 30  0  0  1  0  0  0  0  0999 V2000
  192.9680  175.6880  136.8430 C   0  0  1  0  0  3  0  0  0  0  0  0
  190.9790  175.6640  135.1120 C   0  0  0  0  0  1  0  0  0  0  0  0
  194.0420  174.6250  137.0260 C   0  0  1  0  0  3  0  0  0  0  0  0
  192.1800  173.5830  135.8470 C   0  0  1  0  0  3  0  0  0  0  0  0
  193.4920  173.4020  136.4510 N   0  0  0  0  0  0  0  0  0  0  0  0
  191.1250  173.8050  136.9220 C   0  0  0  0  0  2  0  0  0  0  0  0
  191.7610  174.9890  136.2200 C   0  0  1  0  0  0  0  0  0  0  0  0
  195.2810  169.5780  136.9280 C   0  0  0  0  0  0  0  0  0  0  0  0
  195.0060  171.8700  137.6560 C   0  0  0  0  0  3  0  0  0  0  0  0
  195.8510  168.3590  137.0820 F   0  0  0  0  0  0  0  0  0  0  0  0
  194.3790  169.8010  135.8850 C   0  0  0  0  0  3  0  0  0  0  0  0
  195.5940  170.6120  137.8130 C   0  0  0  0  0  3  0  0  0  0  0  0
  194.0980  172.1060  136.6120 C   0  0  0  0  0  0  0  0  0  0  0  0
  193.7910  171.0590  135.7280 C   0  0  0  0  0  3  0  0  0  0  0  0
  196.5010  175.0820  137.0410 C   0  0  0  0  0  3  0  0  0  0  0  0
  195.3020  175.0360  136.3260 C   0  0  0  0  0  0  0  0  0  0  0  0
  197.6530  175.4620  136.4240 N   0  0  0  0  0  0  0  0  0  0  0  0
  196.4970  175.7800  134.3570 C   0  0  0  0  0  3  0  0  0  0  0  0
  195.3060  175.3950  134.9720 C   0  0  0  0  0  3  0  0  0  0  0  0
  197.6740  175.8070  135.1080 C   0  0  0  0  0  3  0  0  0  0  0  0
  191.3370  176.4570  138.6350 C   0  0  0  0  0  3  0  0  0  0  0  0
  192.6220  176.3330  138.1440 C   0  0  0  0  0  0  0  0  0  0  0  0
  192.8850  177.3280  140.0250 C   0  0  0  0  0  3  0  0  0  0  0  0
  190.5140  177.4680  140.7500 N   0  0  0  0  0  1  0  0  0  0  0  0
  191.5410  177.0980  139.8380 C   0  0  0  0  0  0  0  0  0  0  0  0
  193.5040  176.8470  138.9730 O   0  0  0  0  0  0  0  0  0  0  0  0
  1  3  1  0  0  0  0
  1 22  1  1  0  0  0
  3 16  1  6  0  0  0
  4  7  1  0  0  0  0
  4  5  1  0  0  0  0
  4  6  1  1  0  0  0
  5 13  1  0  0  0  0
  5  3  1  0  0  0  0
  7  2  1  6  0  0  0
  7  1  1  0  0  0  0
  7  6  1  0  0  0  0
  8 10  1  0  0  0  0
  8 12  1  0  0  0  0
  9 12  2  0  0  0  0
 11  8  2  0  0  0  0
 13  9  1  0  0  0  0
 14 11  1  0  0  0  0
 14 13  2  0  0  0  0
 16 15  2  0  0  0  0
 17 15  1  0  0  0  0
 18 19  2  0  0  0  0
 18 20  1  0  0  0  0
 19 16  1  0  0  0  0
 20 17  2  0  0  0  0
 21 25  1  0  0  0  0
 22 21  2  0  0  0  0
 22 26  1  0  0  0  0
 25 23  2  0  0  0  0
 25 24  1  0  0  0  0
 26 23  1  0  0  0  0
M  END
>  <MODEL>
9

>  <REMARK>
 VINA RESULT:      -5.1      9.789     12.885
  Name = 
  3 active torsions:
  status: ('A' for Active; 'I' for Inactive)
    1  A    between atoms: C_2  and  C_5
    2  A    between atoms: C_4  and  C_13
    3  A    between atoms: C_15  and  N_23
                            x       y       z     vdW  Elec       q    Type
                         _______ _______ _______ _____ _____    ______ ____

>  <TORSDO>
F 3

$$$$
