=
 OpenBabel10232412443D

 45 49  0  0  1  0  0  0  0  0999 V2000
  191.3010  177.8940  139.1090 C   0  0  0  0  0  2  0  0  0  0  0  0
  192.3590  177.1760  139.9330 C   0  0  0  0  0  2  0  0  0  0  0  0
  191.1750  176.4080  139.3740 C   0  0  0  0  0  0  0  0  0  0  0  0
  190.0660  176.1220  140.2810 N   0  0  0  0  0  2  0  0  0  0  0  0
  189.1950  177.2880  140.3570 C   0  0  0  0  0  2  0  0  0  0  0  0
  188.9870  177.7110  141.8010 C   0  0  1  0  0  3  0  0  0  0  0  0
  186.9140  178.8850  141.2700 N   0  0  0  0  0  0  0  0  0  0  0  0
  185.4610  178.0900  142.9550 N   0  0  0  0  0  0  0  0  0  0  0  0
  186.7490  177.5470  143.0530 N   0  0  0  0  0  2  0  0  0  0  0  0
  187.5590  178.0960  142.0390 C   0  0  0  0  0  0  0  0  0  0  0  0
  185.5410  178.9480  141.7640 C   0  0  0  0  0  2  0  0  0  0  0  0
  185.2970  178.9400  144.0510 N   0  0  0  0  0  2  0  0  0  0  0  0
  185.9620  179.1420  146.3680 C   0  0  0  0  0  2  0  0  0  0  0  0
  184.6330  178.4190  146.3180 C   0  0  0  0  0  2  0  0  0  0  0  0
  185.6620  178.1840  145.2350 C   0  0  0  0  0  3  0  0  0  0  0  0
  189.4870  176.3550  142.9110 S   0  0  0  0  0  0  0  0  0  0  0  0
  191.5660  177.5930  143.9220 O   0  0  0  0  0  0  0  0  0  0  0  0
  190.3600  177.4480  144.0330 C   0  0  0  0  0  0  0  0  0  0  0  0
  189.6030  178.1760  145.1000 C   0  0  0  0  0  2  0  0  0  0  0  0
  190.5230  176.4300  146.4330 F   0  0  0  0  0  0  0  0  0  0  0  0
  189.6070  178.2070  147.4840 F   0  0  0  0  0  0  0  0  0  0  0  0
  188.2840  176.7160  146.4290 F   0  0  0  0  0  0  0  0  0  0  0  0
  189.5060  177.3690  146.3880 C   0  0  0  0  0  0  0  0  0  0  0  0
  191.3600  175.5610  138.1140 C   0  0  2  0  0  3  0  0  0  0  0  0
  192.2200  176.2400  137.0440 C   0  0  0  0  0  2  0  0  0  0  0  0
  193.4800  175.4290  136.7770 C   0  0  1  0  0  3  0  0  0  0  0  0
  195.1190  174.0290  137.9260 C   0  0  0  0  0  2  0  0  0  0  0  0
  195.4650  173.0090  136.9500 N   0  0  0  0  0  0  0  0  0  0  0  0
  193.6470  174.3660  137.8470 C   0  0  0  0  0  2  0  0  0  0  0  0
  196.1930  172.6390  134.7670 O   0  0  0  0  0  0  0  0  0  0  0  0
  195.3650  173.2130  135.5260 C   0  0  0  0  0  0  0  0  0  0  0  0
  193.4130  174.8410  135.4060 C   0  0  0  0  0  3  0  0  0  0  0  0
  194.2480  173.9360  134.8830 C   0  0  0  0  0  3  0  0  0  0  0  0
  195.2490  170.8080  137.9960 C   0  0  0  0  0  1  0  0  0  0  0  0
  196.2020  171.8600  137.4640 C   0  0  0  0  0  2  0  0  0  0  0  0
  190.0630  174.9000  137.6080 C   0  0  2  0  0  3  0  0  0  0  0  0
  189.3840  173.2090  136.3530 C   0  0  0  0  0  1  0  0  0  0  0  0
  190.3240  173.5610  137.3210 O   0  0  0  0  0  0  0  0  0  0  0  0
  189.4730  175.5530  136.3590 C   0  0  0  0  0  2  0  0  0  0  0  0
  186.4910  177.4720  137.6530 C   0  0  0  0  0  3  0  0  0  0  0  0
  188.5530  176.6740  136.6910 C   0  0  0  0  0  0  0  0  0  0  0  0
  186.8760  178.7500  137.3980 N   0  0  0  0  0  0  0  0  0  0  0  0
  188.9360  177.9960  136.4500 C   0  0  0  0  0  3  0  0  0  0  0  0
  188.0690  179.0310  136.8080 C   0  0  0  0  0  3  0  0  0  0  0  0
  187.3270  176.4080  137.3060 C   0  0  0  0  0  3  0  0  0  0  0  0
  1  3  1  0  0  0  0
  1  2  1  0  0  0  0
  3  2  1  0  0  0  0
  3  4  1  0  0  0  0
  4  5  1  0  0  0  0
  6  5  1  6  0  0  0
  6 10  1  0  0  0  0
  6 16  1  0  0  0  0
  7 11  1  0  0  0  0
  7 10  2  0  0  0  0
  8  9  1  0  0  0  0
  8 12  1  0  0  0  0
 10  9  1  0  0  0  0
 11  8  1  0  0  0  0
 12 15  1  0  0  0  0
 14 13  1  0  0  0  0
 15 14  1  0  0  0  0
 15 13  1  0  0  0  0
 16 18  1  0  0  0  0
 17 18  2  0  0  0  0
 18 19  1  0  0  0  0
 19 23  1  0  0  0  0
 23 22  1  0  0  0  0
 23 20  1  0  0  0  0
 23 21  1  0  0  0  0
 24 25  1  6  0  0  0
 24  3  1  0  0  0  0
 26 25  1  1  0  0  0
 26 29  1  0  0  0  0
 28 35  1  0  0  0  0
 28 27  1  0  0  0  0
 29 27  1  0  0  0  0
 30 31  2  0  0  0  0
 31 28  1  0  0  0  0
 32 26  1  0  0  0  0
 33 32  2  0  0  0  0
 33 31  1  0  0  0  0
 35 34  1  0  0  0  0
 36 39  1  6  0  0  0
 36 24  1  0  0  0  0
 37 38  1  0  0  0  0
 38 36  1  0  0  0  0
 39 41  1  0  0  0  0
 41 45  1  0  0  0  0
 42 40  1  0  0  0  0
 43 41  2  0  0  0  0
 43 44  1  0  0  0  0
 44 42  2  0  0  0  0
 45 40  2  0  0  0  0
M  END
>  <MODEL>
1

>  <REMARK>
 VINA RESULT:      -6.5      0.000      0.000
  Name = 
  18 active torsions:
  status: ('A' for Active; 'I' for Inactive)
    1  A    between atoms: C_1  and  C_22
    2  A    between atoms: C_1  and  C_29
    3  A    between atoms: C_1  and  C_43
    4  A    between atoms: N_3  and  C_22
    5  A    between atoms: N_3  and  C_42
    6  A    between atoms: C_6  and  C_21
    7  A    between atoms: C_6  and  C_43
    8  A    between atoms: C_12  and  C_29
    9  A    between atoms: S_14  and  C_36
   10  A    between atoms: S_14  and  C_41
   11  A    between atoms: N_16  and  N_31
   12  A    between atoms: C_18  and  C_28
   13  A    between atoms: N_19  and  C_40
   14  A    between atoms: C_27  and  C_41
   15  A    between atoms: C_28  and  C_36
   16  A    between atoms: N_31  and  C_44
   17  A    between atoms: O_37  and  C_43
   18  A    between atoms: C_41  and  C_42
                            x       y       z     vdW  Elec       q    Type
                         _______ _______ _______ _____ _____    ______ ____

>  <TORSDO>
F 18

$$$$
=
 OpenBabel10232412443D

 45 49  0  0  1  0  0  0  0  0999 V2000
  189.4060  178.3190  139.0470 C   0  0  0  0  0  2  0  0  0  0  0  0
  188.4890  177.1560  138.7030 C   0  0  0  0  0  2  0  0  0  0  0  0
  189.3430  177.1100  139.9570 C   0  0  0  0  0  0  0  0  0  0  0  0
  190.5820  176.3380  139.9020 N   0  0  0  0  0  2  0  0  0  0  0  0
  191.3900  176.8060  138.7840 C   0  0  0  0  0  2  0  0  0  0  0  0
  191.9420  175.6340  137.9910 C   0  0  1  0  0  3  0  0  0  0  0  0
  190.5660  175.5330  135.9780 N   0  0  0  0  0  0  0  0  0  0  0  0
  189.3310  173.5510  136.3330 N   0  0  0  0  0  0  0  0  0  0  0  0
  190.2140  173.8320  137.3840 N   0  0  0  0  0  2  0  0  0  0  0  0
  190.8830  175.0420  137.1140 C   0  0  0  0  0  0  0  0  0  0  0  0
  189.5740  174.6420  135.3800 C   0  0  0  0  0  2  0  0  0  0  0  0
  188.0380  173.7340  136.8320 N   0  0  0  0  0  2  0  0  0  0  0  0
  186.0030  172.4410  136.6470 C   0  0  0  0  0  2  0  0  0  0  0  0
  187.0230  171.8560  135.6950 C   0  0  0  0  0  2  0  0  0  0  0  0
  187.4670  172.4140  137.0290 C   0  0  0  0  0  3  0  0  0  0  0  0
  193.3690  176.1860  137.0020 S   0  0  0  0  0  0  0  0  0  0  0  0
  193.9560  174.1330  135.4800 O   0  0  0  0  0  0  0  0  0  0  0  0
  193.9050  174.5140  136.6370 C   0  0  0  0  0  0  0  0  0  0  0  0
  194.2880  173.5960  137.7570 C   0  0  0  0  0  2  0  0  0  0  0  0
  196.3840  172.7970  138.5560 F   0  0  0  0  0  0  0  0  0  0  0  0
  196.3330  174.7940  137.5000 F   0  0  0  0  0  0  0  0  0  0  0  0
  195.4580  174.5900  139.5680 F   0  0  0  0  0  0  0  0  0  0  0  0
  195.6440  173.9500  138.3520 C   0  0  0  0  0  0  0  0  0  0  0  0
  188.7010  177.4170  141.3110 C   0  0  2  0  0  3  0  0  0  0  0  0
  187.8700  178.7040  141.3140 C   0  0  0  0  0  2  0  0  0  0  0  0
  186.3850  178.3800  141.3840 C   0  0  1  0  0  3  0  0  0  0  0  0
  184.5500  178.2020  142.9860 C   0  0  0  0  0  2  0  0  0  0  0  0
  183.3870  178.6750  142.2530 N   0  0  0  0  0  0  0  0  0  0  0  0
  185.7750  179.0110  142.6220 C   0  0  0  0  0  2  0  0  0  0  0  0
  182.1410  178.4160  140.3010 O   0  0  0  0  0  0  0  0  0  0  0  0
  183.2760  178.6010  140.8180 C   0  0  0  0  0  0  0  0  0  0  0  0
  185.7150  178.8410  140.1310 C   0  0  0  0  0  3  0  0  0  0  0  0
  184.3990  178.8850  139.8980 C   0  0  0  0  0  3  0  0  0  0  0  0
  182.5500  178.9860  144.5300 C   0  0  0  0  0  1  0  0  0  0  0  0
  182.2030  178.9590  143.0550 C   0  0  0  0  0  2  0  0  0  0  0  0
  189.6510  177.2330  142.5100 C   0  0  2  0  0  3  0  0  0  0  0  0
  190.4920  175.2840  143.1330 C   0  0  0  0  0  1  0  0  0  0  0  0
  189.3240  176.0460  143.1630 O   0  0  0  0  0  0  0  0  0  0  0  0
  189.6030  178.3710  143.5280 C   0  0  0  0  0  2  0  0  0  0  0  0
  189.6980  177.1800  147.1080 C   0  0  0  0  0  3  0  0  0  0  0  0
  189.1660  177.9060  144.8720 C   0  0  0  0  0  0  0  0  0  0  0  0
  188.3710  177.1290  147.3990 N   0  0  0  0  0  0  0  0  0  0  0  0
  187.8080  177.8590  145.1950 C   0  0  0  0  0  3  0  0  0  0  0  0
  187.4260  177.4560  146.4760 C   0  0  0  0  0  3  0  0  0  0  0  0
  190.1200  177.5730  145.8370 C   0  0  0  0  0  3  0  0  0  0  0  0
  1  3  1  0  0  0  0
  2  1  1  0  0  0  0
  2  3  1  0  0  0  0
  3 24  1  0  0  0  0
  4  3  1  0  0  0  0
  5  4  1  0  0  0  0
  6  5  1  6  0  0  0
  7 10  2  0  0  0  0
  8 12  1  0  0  0  0
  8  9  1  0  0  0  0
 10  9  1  0  0  0  0
 10  6  1  0  0  0  0
 11  7  1  0  0  0  0
 11  8  1  0  0  0  0
 12 15  1  0  0  0  0
 13 15  1  0  0  0  0
 14 13  1  0  0  0  0
 14 15  1  0  0  0  0
 16  6  1  0  0  0  0
 17 18  2  0  0  0  0
 18 16  1  0  0  0  0
 18 19  1  0  0  0  0
 19 23  1  0  0  0  0
 21 23  1  0  0  0  0
 23 20  1  0  0  0  0
 23 22  1  0  0  0  0
 24 25  1  6  0  0  0
 24 36  1  0  0  0  0
 26 25  1  6  0  0  0
 26 29  1  0  0  0  0
 28 27  1  0  0  0  0
 28 35  1  0  0  0  0
 29 27  1  0  0  0  0
 30 31  2  0  0  0  0
 31 28  1  0  0  0  0
 32 26  1  0  0  0  0
 33 32  2  0  0  0  0
 33 31  1  0  0  0  0
 35 34  1  0  0  0  0
 36 38  1  0  0  0  0
 36 39  1  1  0  0  0
 37 38  1  0  0  0  0
 39 41  1  0  0  0  0
 40 42  1  0  0  0  0
 41 43  2  0  0  0  0
 41 45  1  0  0  0  0
 43 44  1  0  0  0  0
 44 42  2  0  0  0  0
 45 40  2  0  0  0  0
M  END
>  <MODEL>
2

>  <REMARK>
 VINA RESULT:      -6.5      3.847      9.703
  Name = 
  18 active torsions:
  status: ('A' for Active; 'I' for Inactive)
    1  A    between atoms: C_1  and  C_22
    2  A    between atoms: C_1  and  C_29
    3  A    between atoms: C_1  and  C_43
    4  A    between atoms: N_3  and  C_22
    5  A    between atoms: N_3  and  C_42
    6  A    between atoms: C_6  and  C_21
    7  A    between atoms: C_6  and  C_43
    8  A    between atoms: C_12  and  C_29
    9  A    between atoms: S_14  and  C_36
   10  A    between atoms: S_14  and  C_41
   11  A    between atoms: N_16  and  N_31
   12  A    between atoms: C_18  and  C_28
   13  A    between atoms: N_19  and  C_40
   14  A    between atoms: C_27  and  C_41
   15  A    between atoms: C_28  and  C_36
   16  A    between atoms: N_31  and  C_44
   17  A    between atoms: O_37  and  C_43
   18  A    between atoms: C_41  and  C_42
                            x       y       z     vdW  Elec       q    Type
                         _______ _______ _______ _____ _____    ______ ____

>  <TORSDO>
F 18

$$$$
=
 OpenBabel10232412443D

 45 49  0  0  1  0  0  0  0  0999 V2000
  188.6650  178.8190  141.0580 C   0  0  0  0  0  2  0  0  0  0  0  0
  188.0270  177.6410  140.3390 C   0  0  0  0  0  2  0  0  0  0  0  0
  189.3900  177.4920  140.9880 C   0  0  0  0  0  0  0  0  0  0  0  0
  190.5630  177.5730  140.1210 N   0  0  0  0  0  2  0  0  0  0  0  0
  190.6040  176.4000  139.2580 C   0  0  0  0  0  2  0  0  0  0  0  0
  190.8900  176.7990  137.8210 C   0  0  1  0  0  3  0  0  0  0  0  0
  192.3730  175.5200  136.3640 N   0  0  0  0  0  0  0  0  0  0  0  0
  194.4960  176.0230  137.2710 N   0  0  0  0  0  0  0  0  0  0  0  0
  193.4520  176.6560  137.9580 N   0  0  0  0  0  2  0  0  0  0  0  0
  192.2230  176.2790  137.3810 C   0  0  0  0  0  0  0  0  0  0  0  0
  193.8070  175.2980  136.1940 C   0  0  0  0  0  2  0  0  0  0  0  0
  195.0200  175.0570  138.1340 N   0  0  0  0  0  2  0  0  0  0  0  0
  196.9490  173.6150  137.9060 C   0  0  0  0  0  2  0  0  0  0  0  0
  195.7270  172.7440  138.1000 C   0  0  0  0  0  2  0  0  0  0  0  0
  195.6210  174.0280  137.3060 C   0  0  0  0  0  3  0  0  0  0  0  0
  189.5620  176.1760  136.7400 S   0  0  0  0  0  0  0  0  0  0  0  0
  189.2800  178.7560  137.1160 O   0  0  0  0  0  0  0  0  0  0  0  0
  188.7510  177.7710  136.6290 C   0  0  0  0  0  0  0  0  0  0  0  0
  187.4280  177.8850  135.9370 C   0  0  0  0  0  2  0  0  0  0  0  0
  186.2090  178.7330  137.8000 F   0  0  0  0  0  0  0  0  0  0  0  0
  185.0710  177.6280  136.1910 F   0  0  0  0  0  0  0  0  0  0  0  0
  186.4330  176.4970  137.5870 F   0  0  0  0  0  0  0  0  0  0  0  0
  186.2600  177.6850  136.8950 C   0  0  0  0  0  0  0  0  0  0  0  0
  189.5000  176.8010  142.3490 C   0  0  2  0  0  3  0  0  0  0  0  0
  188.1610  176.2770  142.8760 C   0  0  0  0  0  2  0  0  0  0  0  0
  187.4130  177.3750  143.6180 C   0  0  1  0  0  3  0  0  0  0  0  0
  185.5280  178.9060  143.3550 C   0  0  0  0  0  2  0  0  0  0  0  0
  184.9560  179.0030  144.6880 N   0  0  0  0  0  0  0  0  0  0  0  0
  186.0000  177.4970  143.0780 C   0  0  0  0  0  2  0  0  0  0  0  0
  185.4260  179.4470  146.9270 O   0  0  0  0  0  0  0  0  0  0  0  0
  185.7210  178.7900  145.8920 C   0  0  0  0  0  0  0  0  0  0  0  0
  187.4310  177.0870  145.0840 C   0  0  0  0  0  3  0  0  0  0  0  0
  186.7390  177.7280  146.0320 C   0  0  0  0  0  3  0  0  0  0  0  0
  182.6190  178.8060  143.9920 C   0  0  0  0  0  1  0  0  0  0  0  0
  183.6360  179.6170  144.7710 C   0  0  0  0  0  2  0  0  0  0  0  0
  190.3670  177.5640  143.3690 C   0  0  2  0  0  3  0  0  0  0  0  0
  191.1410  179.5890  143.8140 C   0  0  0  0  0  1  0  0  0  0  0  0
  190.8660  178.7160  142.7610 O   0  0  0  0  0  0  0  0  0  0  0  0
  191.5450  176.7600  143.9170 C   0  0  0  0  0  2  0  0  0  0  0  0
  192.2280  175.4730  147.3990 C   0  0  0  0  0  3  0  0  0  0  0  0
  191.4390  176.5360  145.3840 C   0  0  0  0  0  0  0  0  0  0  0  0
  191.3160  176.1780  148.1190 N   0  0  0  0  0  0  0  0  0  0  0  0
  190.5170  177.2610  146.1440 C   0  0  0  0  0  3  0  0  0  0  0  0
  190.4660  177.0590  147.5250 C   0  0  0  0  0  3  0  0  0  0  0  0
  192.3080  175.6420  146.0150 C   0  0  0  0  0  3  0  0  0  0  0  0
  2  3  1  0  0  0  0
  2  1  1  0  0  0  0
  3  1  1  0  0  0  0
  3 24  1  0  0  0  0
  4  3  1  0  0  0  0
  5  4  1  0  0  0  0
  6  5  1  1  0  0  0
  7 10  2  0  0  0  0
  8  9  1  0  0  0  0
  8 12  1  0  0  0  0
 10  6  1  0  0  0  0
 10  9  1  0  0  0  0
 11  7  1  0  0  0  0
 11  8  1  0  0  0  0
 13 14  1  0  0  0  0
 15 13  1  0  0  0  0
 15 14  1  0  0  0  0
 15 12  1  0  0  0  0
 16  6  1  0  0  0  0
 18 16  1  0  0  0  0
 18 17  2  0  0  0  0
 19 18  1  0  0  0  0
 19 23  1  0  0  0  0
 21 23  1  0  0  0  0
 23 22  1  0  0  0  0
 23 20  1  0  0  0  0
 24 25  1  1  0  0  0
 24 36  1  0  0  0  0
 26 25  1  6  0  0  0
 26 32  1  0  0  0  0
 27 28  1  0  0  0  0
 28 35  1  0  0  0  0
 28 31  1  0  0  0  0
 29 27  1  0  0  0  0
 29 26  1  0  0  0  0
 31 33  1  0  0  0  0
 31 30  2  0  0  0  0
 32 33  2  0  0  0  0
 34 35  1  0  0  0  0
 36 39  1  6  0  0  0
 38 36  1  0  0  0  0
 38 37  1  0  0  0  0
 39 41  1  0  0  0  0
 40 42  1  0  0  0  0
 41 45  1  0  0  0  0
 41 43  2  0  0  0  0
 43 44  1  0  0  0  0
 44 42  2  0  0  0  0
 45 40  2  0  0  0  0
M  END
>  <MODEL>
3

>  <REMARK>
 VINA RESULT:      -6.3      3.620     10.397
  Name = 
  18 active torsions:
  status: ('A' for Active; 'I' for Inactive)
    1  A    between atoms: C_1  and  C_22
    2  A    between atoms: C_1  and  C_29
    3  A    between atoms: C_1  and  C_43
    4  A    between atoms: N_3  and  C_22
    5  A    between atoms: N_3  and  C_42
    6  A    between atoms: C_6  and  C_21
    7  A    between atoms: C_6  and  C_43
    8  A    between atoms: C_12  and  C_29
    9  A    between atoms: S_14  and  C_36
   10  A    between atoms: S_14  and  C_41
   11  A    between atoms: N_16  and  N_31
   12  A    between atoms: C_18  and  C_28
   13  A    between atoms: N_19  and  C_40
   14  A    between atoms: C_27  and  C_41
   15  A    between atoms: C_28  and  C_36
   16  A    between atoms: N_31  and  C_44
   17  A    between atoms: O_37  and  C_43
   18  A    between atoms: C_41  and  C_42
                            x       y       z     vdW  Elec       q    Type
                         _______ _______ _______ _____ _____    ______ ____

>  <TORSDO>
F 18

$$$$
=
 OpenBabel10232412443D

 45 49  0  0  1  0  0  0  0  0999 V2000
  189.4440  178.3570  138.9310 C   0  0  0  0  0  2  0  0  0  0  0  0
  188.2960  177.3810  138.7260 C   0  0  0  0  0  2  0  0  0  0  0  0
  189.3460  177.1140  139.7890 C   0  0  0  0  0  0  0  0  0  0  0  0
  190.4050  176.1610  139.4680 N   0  0  0  0  0  2  0  0  0  0  0  0
  191.3400  176.7780  138.5360 C   0  0  0  0  0  2  0  0  0  0  0  0
  191.3190  176.0590  137.1980 C   0  0  1  0  0  3  0  0  0  0  0  0
  192.9400  175.5460  135.4450 N   0  0  0  0  0  0  0  0  0  0  0  0
  194.9750  176.1700  136.4700 N   0  0  0  0  0  0  0  0  0  0  0  0
  193.8680  176.3740  137.3030 N   0  0  0  0  0  2  0  0  0  0  0  0
  192.7030  175.9470  136.6360 C   0  0  0  0  0  0  0  0  0  0  0  0
  194.3790  175.6580  135.2280 C   0  0  0  0  0  2  0  0  0  0  0  0
  195.7110  175.1200  137.0250 N   0  0  0  0  0  2  0  0  0  0  0  0
  195.1600  173.2510  138.4580 C   0  0  0  0  0  2  0  0  0  0  0  0
  196.0750  174.1810  139.2250 C   0  0  0  0  0  2  0  0  0  0  0  0
  195.0520  174.7480  138.2650 C   0  0  0  0  0  3  0  0  0  0  0  0
  190.5670  174.4120  137.4030 S   0  0  0  0  0  0  0  0  0  0  0  0
  189.1880  175.8230  135.6760 O   0  0  0  0  0  0  0  0  0  0  0  0
  189.3020  174.7140  136.1680 C   0  0  0  0  0  0  0  0  0  0  0  0
  188.3940  173.6000  135.7480 C   0  0  0  0  0  2  0  0  0  0  0  0
  187.4160  172.3480  137.5230 F   0  0  0  0  0  0  0  0  0  0  0  0
  187.0530  174.5770  137.4600 F   0  0  0  0  0  0  0  0  0  0  0  0
  186.0570  173.2300  135.9510 F   0  0  0  0  0  0  0  0  0  0  0  0
  187.2100  173.4370  136.6920 C   0  0  0  0  0  0  0  0  0  0  0  0
  189.0250  177.4240  141.2520 C   0  0  2  0  0  3  0  0  0  0  0  0
  188.2050  178.7050  141.4380 C   0  0  0  0  0  2  0  0  0  0  0  0
  186.7620  178.3690  141.7840 C   0  0  1  0  0  3  0  0  0  0  0  0
  185.2920  178.0480  143.7090 C   0  0  0  0  0  2  0  0  0  0  0  0
  184.0100  178.5740  143.2720 N   0  0  0  0  0  0  0  0  0  0  0  0
  186.4260  178.8900  143.1690 C   0  0  0  0  0  2  0  0  0  0  0  0
  182.3860  178.4740  141.6020 O   0  0  0  0  0  0  0  0  0  0  0  0
  183.6060  178.6200  141.8880 C   0  0  0  0  0  0  0  0  0  0  0  0
  185.8550  178.9300  140.7380 C   0  0  0  0  0  3  0  0  0  0  0  0
  184.5190  178.9860  140.7850 C   0  0  0  0  0  3  0  0  0  0  0  0
  183.6850  178.8610  145.6790 C   0  0  0  0  0  1  0  0  0  0  0  0
  183.0180  178.7850  144.3200 C   0  0  0  0  0  2  0  0  0  0  0  0
  190.2240  177.2550  142.2060 C   0  0  2  0  0  3  0  0  0  0  0  0
  188.7310  175.7650  142.8750 C   0  0  0  0  0  1  0  0  0  0  0  0
  190.1000  176.0360  142.8700 O   0  0  0  0  0  0  0  0  0  0  0  0
  190.3550  178.3610  143.2510 C   0  0  0  0  0  2  0  0  0  0  0  0
  189.3390  177.3570  146.7450 C   0  0  0  0  0  3  0  0  0  0  0  0
  190.4110  177.8220  144.6360 C   0  0  0  0  0  0  0  0  0  0  0  0
  190.4720  176.7430  147.1770 N   0  0  0  0  0  0  0  0  0  0  0  0
  191.5620  177.1750  145.0950 C   0  0  0  0  0  3  0  0  0  0  0  0
  191.5750  176.6430  146.3870 C   0  0  0  0  0  3  0  0  0  0  0  0
  189.2870  177.9060  145.4620 C   0  0  0  0  0  3  0  0  0  0  0  0
  1  3  1  0  0  0  0
  2  1  1  0  0  0  0
  2  3  1  0  0  0  0
  3 24  1  0  0  0  0
  4  3  1  0  0  0  0
  5  4  1  0  0  0  0
  6 16  1  0  0  0  0
  6  5  1  1  0  0  0
  7 10  2  0  0  0  0
  8 12  1  0  0  0  0
  8  9  1  0  0  0  0
 10  6  1  0  0  0  0
 10  9  1  0  0  0  0
 11  7  1  0  0  0  0
 11  8  1  0  0  0  0
 12 15  1  0  0  0  0
 13 14  1  0  0  0  0
 15 13  1  0  0  0  0
 15 14  1  0  0  0  0
 17 18  2  0  0  0  0
 18 16  1  0  0  0  0
 19 18  1  0  0  0  0
 19 23  1  0  0  0  0
 22 23  1  0  0  0  0
 23 21  1  0  0  0  0
 23 20  1  0  0  0  0
 24 25  1  6  0  0  0
 24 36  1  0  0  0  0
 26 25  1  6  0  0  0
 26 29  1  0  0  0  0
 28 27  1  0  0  0  0
 28 35  1  0  0  0  0
 29 27  1  0  0  0  0
 30 31  2  0  0  0  0
 31 28  1  0  0  0  0
 32 33  2  0  0  0  0
 32 26  1  0  0  0  0
 33 31  1  0  0  0  0
 35 34  1  0  0  0  0
 36 38  1  0  0  0  0
 36 39  1  1  0  0  0
 38 37  1  0  0  0  0
 39 41  1  0  0  0  0
 40 42  1  0  0  0  0
 41 43  2  0  0  0  0
 41 45  1  0  0  0  0
 43 44  1  0  0  0  0
 44 42  2  0  0  0  0
 45 40  2  0  0  0  0
M  END
>  <MODEL>
4

>  <REMARK>
 VINA RESULT:      -6.2      3.632     10.086
  Name = 
  18 active torsions:
  status: ('A' for Active; 'I' for Inactive)
    1  A    between atoms: C_1  and  C_22
    2  A    between atoms: C_1  and  C_29
    3  A    between atoms: C_1  and  C_43
    4  A    between atoms: N_3  and  C_22
    5  A    between atoms: N_3  and  C_42
    6  A    between atoms: C_6  and  C_21
    7  A    between atoms: C_6  and  C_43
    8  A    between atoms: C_12  and  C_29
    9  A    between atoms: S_14  and  C_36
   10  A    between atoms: S_14  and  C_41
   11  A    between atoms: N_16  and  N_31
   12  A    between atoms: C_18  and  C_28
   13  A    between atoms: N_19  and  C_40
   14  A    between atoms: C_27  and  C_41
   15  A    between atoms: C_28  and  C_36
   16  A    between atoms: N_31  and  C_44
   17  A    between atoms: O_37  and  C_43
   18  A    between atoms: C_41  and  C_42
                            x       y       z     vdW  Elec       q    Type
                         _______ _______ _______ _____ _____    ______ ____

>  <TORSDO>
F 18

$$$$
=
 OpenBabel10232412443D

 45 49  0  0  1  0  0  0  0  0999 V2000
  191.1470  177.9700  139.2570 C   0  0  0  0  0  2  0  0  0  0  0  0
  191.9890  177.2040  140.2660 C   0  0  0  0  0  2  0  0  0  0  0  0
  190.8730  176.5030  139.5140 C   0  0  0  0  0  0  0  0  0  0  0  0
  189.6030  176.3130  140.2110 N   0  0  0  0  0  2  0  0  0  0  0  0
  188.8840  177.5790  140.2520 C   0  0  0  0  0  2  0  0  0  0  0  0
  188.4940  177.9300  141.6780 C   0  0  1  0  0  3  0  0  0  0  0  0
  186.3140  178.0840  142.7650 N   0  0  0  0  0  0  0  0  0  0  0  0
  185.0710  179.3260  141.1860 N   0  0  0  0  0  0  0  0  0  0  0  0
  186.3910  179.1000  140.7750 N   0  0  0  0  0  2  0  0  0  0  0  0
  187.0520  178.3260  141.7500 C   0  0  0  0  0  0  0  0  0  0  0  0
  185.0110  178.6940  142.5110 C   0  0  0  0  0  2  0  0  0  0  0  0
  184.2510  178.5710  140.3430 N   0  0  0  0  0  2  0  0  0  0  0  0
  182.9450  178.6780  138.3100 C   0  0  0  0  0  2  0  0  0  0  0  0
  182.2390  179.4970  139.3700 C   0  0  0  0  0  2  0  0  0  0  0  0
  183.7510  179.4690  139.3180 C   0  0  0  0  0  3  0  0  0  0  0  0
  188.8330  176.5110  142.7690 S   0  0  0  0  0  0  0  0  0  0  0  0
  190.3170  178.5220  143.5620 O   0  0  0  0  0  0  0  0  0  0  0  0
  189.7830  177.4900  143.9320 C   0  0  0  0  0  0  0  0  0  0  0  0
  189.9150  177.0350  145.3530 C   0  0  0  0  0  2  0  0  0  0  0  0
  189.4180  178.4970  147.1650 F   0  0  0  0  0  0  0  0  0  0  0  0
  187.9140  178.3220  145.4890 F   0  0  0  0  0  0  0  0  0  0  0  0
  188.1940  176.6140  146.9340 F   0  0  0  0  0  0  0  0  0  0  0  0
  188.8400  177.6330  146.2500 C   0  0  0  0  0  0  0  0  0  0  0  0
  191.2200  175.6150  138.3170 C   0  0  2  0  0  3  0  0  0  0  0  0
  192.1890  176.2730  137.3300 C   0  0  0  0  0  2  0  0  0  0  0  0
  193.2990  175.3050  136.9470 C   0  0  1  0  0  3  0  0  0  0  0  0
  194.7530  174.7240  135.0710 C   0  0  0  0  0  2  0  0  0  0  0  0
  196.0080  174.3420  135.6960 N   0  0  0  0  0  0  0  0  0  0  0  0
  194.1200  175.8830  135.8090 C   0  0  0  0  0  2  0  0  0  0  0  0
  196.9860  172.9680  137.3050 O   0  0  0  0  0  0  0  0  0  0  0  0
  196.0950  173.8190  137.0370 C   0  0  0  0  0  0  0  0  0  0  0  0
  194.1350  175.0040  138.1470 C   0  0  0  0  0  3  0  0  0  0  0  0
  195.2930  174.3360  138.1670 C   0  0  0  0  0  3  0  0  0  0  0  0
  197.9510  175.5220  134.7930 C   0  0  0  0  0  1  0  0  0  0  0  0
  197.1550  174.2310  134.8030 C   0  0  0  0  0  2  0  0  0  0  0  0
  190.0030  174.9090  137.6880 C   0  0  2  0  0  3  0  0  0  0  0  0
  190.0800  173.4690  136.0090 C   0  0  0  0  0  1  0  0  0  0  0  0
  190.3590  173.5990  137.3700 O   0  0  0  0  0  0  0  0  0  0  0  0
  189.4720  175.5830  136.4240 C   0  0  0  0  0  2  0  0  0  0  0  0
  187.8640  178.9870  136.6900 C   0  0  0  0  0  3  0  0  0  0  0  0
  188.4930  176.6600  136.7290 C   0  0  0  0  0  0  0  0  0  0  0  0
  186.6500  178.6600  137.2060 N   0  0  0  0  0  0  0  0  0  0  0  0
  187.2350  176.3440  137.2480 C   0  0  0  0  0  3  0  0  0  0  0  0
  186.3190  177.3710  137.4890 C   0  0  0  0  0  3  0  0  0  0  0  0
  188.8080  177.9900  136.4390 C   0  0  0  0  0  3  0  0  0  0  0  0
  1  3  1  0  0  0  0
  1  2  1  0  0  0  0
  3  4  1  0  0  0  0
  3  2  1  0  0  0  0
  4  5  1  0  0  0  0
  6  5  1  6  0  0  0
  6 10  1  0  0  0  0
  6 16  1  0  0  0  0
  8 11  1  0  0  0  0
  9  8  1  0  0  0  0
  9 10  1  0  0  0  0
 10  7  2  0  0  0  0
 11  7  1  0  0  0  0
 12  8  1  0  0  0  0
 13 15  1  0  0  0  0
 13 14  1  0  0  0  0
 15 14  1  0  0  0  0
 15 12  1  0  0  0  0
 16 18  1  0  0  0  0
 17 18  2  0  0  0  0
 18 19  1  0  0  0  0
 19 23  1  0  0  0  0
 21 23  1  0  0  0  0
 23 22  1  0  0  0  0
 23 20  1  0  0  0  0
 24 25  1  6  0  0  0
 24  3  1  0  0  0  0
 26 25  1  1  0  0  0
 26 32  1  0  0  0  0
 27 28  1  0  0  0  0
 27 29  1  0  0  0  0
 28 31  1  0  0  0  0
 29 26  1  0  0  0  0
 31 30  2  0  0  0  0
 31 33  1  0  0  0  0
 32 33  2  0  0  0  0
 34 35  1  0  0  0  0
 35 28  1  0  0  0  0
 36 39  1  6  0  0  0
 36 24  1  0  0  0  0
 37 38  1  0  0  0  0
 38 36  1  0  0  0  0
 39 41  1  0  0  0  0
 40 42  1  0  0  0  0
 41 43  2  0  0  0  0
 42 44  2  0  0  0  0
 43 44  1  0  0  0  0
 45 40  2  0  0  0  0
 45 41  1  0  0  0  0
M  END
>  <MODEL>
5

>  <REMARK>
 VINA RESULT:      -6.2      1.490      2.783
  Name = 
  18 active torsions:
  status: ('A' for Active; 'I' for Inactive)
    1  A    between atoms: C_1  and  C_22
    2  A    between atoms: C_1  and  C_29
    3  A    between atoms: C_1  and  C_43
    4  A    between atoms: N_3  and  C_22
    5  A    between atoms: N_3  and  C_42
    6  A    between atoms: C_6  and  C_21
    7  A    between atoms: C_6  and  C_43
    8  A    between atoms: C_12  and  C_29
    9  A    between atoms: S_14  and  C_36
   10  A    between atoms: S_14  and  C_41
   11  A    between atoms: N_16  and  N_31
   12  A    between atoms: C_18  and  C_28
   13  A    between atoms: N_19  and  C_40
   14  A    between atoms: C_27  and  C_41
   15  A    between atoms: C_28  and  C_36
   16  A    between atoms: N_31  and  C_44
   17  A    between atoms: O_37  and  C_43
   18  A    between atoms: C_41  and  C_42
                            x       y       z     vdW  Elec       q    Type
                         _______ _______ _______ _____ _____    ______ ____

>  <TORSDO>
F 18

$$$$
=
 OpenBabel10232412443D

 45 49  0  0  1  0  0  0  0  0999 V2000
  188.7800  177.2930  140.0090 C   0  0  0  0  0  2  0  0  0  0  0  0
  189.1190  178.7640  139.8240 C   0  0  0  0  0  2  0  0  0  0  0  0
  187.6850  178.3370  140.0730 C   0  0  0  0  0  0  0  0  0  0  0  0
  186.7960  178.2460  138.9170 N   0  0  0  0  0  2  0  0  0  0  0  0
  187.5750  178.4170  137.6980 C   0  0  0  0  0  2  0  0  0  0  0  0
  187.7850  177.0840  137.0020 C   0  0  1  0  0  3  0  0  0  0  0  0
  185.5530  177.3900  136.0630 N   0  0  0  0  0  0  0  0  0  0  0  0
  185.0100  175.1960  135.3760 N   0  0  0  0  0  0  0  0  0  0  0  0
  186.2790  175.2780  135.9650 N   0  0  0  0  0  2  0  0  0  0  0  0
  186.5110  176.6050  136.3770 C   0  0  0  0  0  0  0  0  0  0  0  0
  184.5310  176.5850  135.4000 C   0  0  0  0  0  2  0  0  0  0  0  0
  184.2010  174.4770  136.2600 N   0  0  0  0  0  2  0  0  0  0  0  0
  183.9410  172.3140  137.3110 C   0  0  0  0  0  2  0  0  0  0  0  0
  183.5190  172.1900  135.8630 C   0  0  0  0  0  2  0  0  0  0  0  0
  184.6660  173.1020  136.2400 C   0  0  0  0  0  3  0  0  0  0  0  0
  189.0990  177.2510  135.7500 S   0  0  0  0  0  0  0  0  0  0  0  0
  189.5990  175.1110  137.1820 O   0  0  0  0  0  0  0  0  0  0  0  0
  190.1140  175.9670  136.4830 C   0  0  0  0  0  0  0  0  0  0  0  0
  191.5900  175.9540  136.2320 C   0  0  0  0  0  2  0  0  0  0  0  0
  191.6810  176.9070  138.4130 F   0  0  0  0  0  0  0  0  0  0  0  0
  192.6570  174.8970  138.0830 F   0  0  0  0  0  0  0  0  0  0  0  0
  193.5930  176.7590  137.2220 F   0  0  0  0  0  0  0  0  0  0  0  0
  192.3930  176.1290  137.5150 C   0  0  0  0  0  0  0  0  0  0  0  0
  187.0910  178.4900  141.4750 C   0  0  2  0  0  3  0  0  0  0  0  0
  187.2860  177.2540  142.3580 C   0  0  0  0  0  2  0  0  0  0  0  0
  188.1950  177.5770  143.5350 C   0  0  1  0  0  3  0  0  0  0  0  0
  188.1080  178.0660  145.9270 C   0  0  0  0  0  2  0  0  0  0  0  0
  189.3110  177.4490  146.4620 N   0  0  0  0  0  0  0  0  0  0  0  0
  187.5080  177.2070  144.8370 C   0  0  0  0  0  2  0  0  0  0  0  0
  191.6270  177.3010  146.2430 O   0  0  0  0  0  0  0  0  0  0  0  0
  190.5010  177.2300  145.6780 C   0  0  0  0  0  0  0  0  0  0  0  0
  189.4990  176.8690  143.3670 C   0  0  0  0  0  3  0  0  0  0  0  0
  190.4780  176.7720  144.2730 C   0  0  0  0  0  3  0  0  0  0  0  0
  188.1790  178.0090  148.5570 C   0  0  0  0  0  1  0  0  0  0  0  0
  189.3700  177.3260  147.9140 C   0  0  0  0  0  2  0  0  0  0  0  0
  185.6790  179.1070  141.4920 C   0  0  2  0  0  3  0  0  0  0  0  0
  184.7890  179.3440  143.5040 C   0  0  0  0  0  1  0  0  0  0  0  0
  185.5900  179.9930  142.5640 O   0  0  0  0  0  0  0  0  0  0  0  0
  184.5500  178.0850  141.6170 C   0  0  0  0  0  2  0  0  0  0  0  0
  182.6240  179.2660  138.5940 C   0  0  0  0  0  3  0  0  0  0  0  0
  183.6500  178.0930  140.4330 C   0  0  0  0  0  0  0  0  0  0  0  0
  182.0560  178.1040  138.1790 N   0  0  0  0  0  0  0  0  0  0  0  0
  183.0660  176.9060  139.9830 C   0  0  0  0  0  3  0  0  0  0  0  0
  182.2560  176.9340  138.8450 C   0  0  0  0  0  3  0  0  0  0  0  0
  183.4360  179.2810  139.7300 C   0  0  0  0  0  3  0  0  0  0  0  0
  1  3  1  0  0  0  0
  2  1  1  0  0  0  0
  2  3  1  0  0  0  0
  3 24  1  0  0  0  0
  4  3  1  0  0  0  0
  5  4  1  0  0  0  0
  6  5  1  6  0  0  0
  7 10  2  0  0  0  0
  8 11  1  0  0  0  0
  8  9  1  0  0  0  0
  8 12  1  0  0  0  0
  9 10  1  0  0  0  0
 10  6  1  0  0  0  0
 11  7  1  0  0  0  0
 14 15  1  0  0  0  0
 14 13  1  0  0  0  0
 15 12  1  0  0  0  0
 15 13  1  0  0  0  0
 16 18  1  0  0  0  0
 16  6  1  0  0  0  0
 18 17  2  0  0  0  0
 19 18  1  0  0  0  0
 19 23  1  0  0  0  0
 22 23  1  0  0  0  0
 23 21  1  0  0  0  0
 23 20  1  0  0  0  0
 24 36  1  0  0  0  0
 24 25  1  6  0  0  0
 26 25  1  6  0  0  0
 26 29  1  0  0  0  0
 27 28  1  0  0  0  0
 28 35  1  0  0  0  0
 29 27  1  0  0  0  0
 31 30  2  0  0  0  0
 31 28  1  0  0  0  0
 32 26  1  0  0  0  0
 32 33  2  0  0  0  0
 33 31  1  0  0  0  0
 35 34  1  0  0  0  0
 36 39  1  1  0  0  0
 36 38  1  0  0  0  0
 38 37  1  0  0  0  0
 40 45  1  0  0  0  0
 41 39  1  0  0  0  0
 42 40  2  0  0  0  0
 42 44  1  0  0  0  0
 43 41  1  0  0  0  0
 44 43  2  0  0  0  0
 45 41  2  0  0  0  0
M  END
>  <MODEL>
6

>  <REMARK>
 VINA RESULT:      -6.0      3.991      8.684
  Name = 
  18 active torsions:
  status: ('A' for Active; 'I' for Inactive)
    1  A    between atoms: C_1  and  C_22
    2  A    between atoms: C_1  and  C_29
    3  A    between atoms: C_1  and  C_43
    4  A    between atoms: N_3  and  C_22
    5  A    between atoms: N_3  and  C_42
    6  A    between atoms: C_6  and  C_21
    7  A    between atoms: C_6  and  C_43
    8  A    between atoms: C_12  and  C_29
    9  A    between atoms: S_14  and  C_36
   10  A    between atoms: S_14  and  C_41
   11  A    between atoms: N_16  and  N_31
   12  A    between atoms: C_18  and  C_28
   13  A    between atoms: N_19  and  C_40
   14  A    between atoms: C_27  and  C_41
   15  A    between atoms: C_28  and  C_36
   16  A    between atoms: N_31  and  C_44
   17  A    between atoms: O_37  and  C_43
   18  A    between atoms: C_41  and  C_42
                            x       y       z     vdW  Elec       q    Type
                         _______ _______ _______ _____ _____    ______ ____

>  <TORSDO>
F 18

$$$$
=
 OpenBabel10232412443D

 45 49  0  0  1  0  0  0  0  0999 V2000
  188.7670  177.2830  139.9690 C   0  0  0  0  0  2  0  0  0  0  0  0
  189.2090  178.7330  139.8480 C   0  0  0  0  0  2  0  0  0  0  0  0
  187.7450  178.3960  140.0680 C   0  0  0  0  0  0  0  0  0  0  0  0
  186.8650  178.4150  138.9020 N   0  0  0  0  0  2  0  0  0  0  0  0
  187.6690  178.5670  137.6960 C   0  0  0  0  0  2  0  0  0  0  0  0
  187.2340  177.5760  136.6310 C   0  0  1  0  0  3  0  0  0  0  0  0
  188.3100  175.9190  135.1960 N   0  0  0  0  0  0  0  0  0  0  0  0
  190.5960  176.2740  135.6780 N   0  0  0  0  0  0  0  0  0  0  0  0
  189.7540  177.1280  136.4020 N   0  0  0  0  0  2  0  0  0  0  0  0
  188.4130  176.8310  136.0860 C   0  0  0  0  0  0  0  0  0  0  0  0
  189.6640  175.4940  134.8510 C   0  0  0  0  0  2  0  0  0  0  0  0
  191.1570  175.3850  136.5980 N   0  0  0  0  0  2  0  0  0  0  0  0
  193.1890  175.3200  137.9090 C   0  0  0  0  0  2  0  0  0  0  0  0
  193.3580  176.3620  136.8250 C   0  0  0  0  0  2  0  0  0  0  0  0
  192.0080  176.1640  137.4790 C   0  0  0  0  0  3  0  0  0  0  0  0
  186.0080  176.4250  137.3330 S   0  0  0  0  0  0  0  0  0  0  0  0
  184.9370  177.0560  135.0240 O   0  0  0  0  0  0  0  0  0  0  0  0
  184.7080  176.9540  136.2170 C   0  0  0  0  0  0  0  0  0  0  0  0
  183.3470  177.2670  136.7580 C   0  0  0  0  0  2  0  0  0  0  0  0
  183.1320  174.8950  136.7110 F   0  0  0  0  0  0  0  0  0  0  0  0
  182.9150  175.9490  138.6970 F   0  0  0  0  0  0  0  0  0  0  0  0
  181.2950  176.1350  137.1400 F   0  0  0  0  0  0  0  0  0  0  0  0
  182.6630  176.0370  137.3400 C   0  0  0  0  0  0  0  0  0  0  0  0
  187.1480  178.5330  141.4700 C   0  0  2  0  0  3  0  0  0  0  0  0
  187.3310  177.2810  142.3340 C   0  0  0  0  0  2  0  0  0  0  0  0
  188.2020  177.5910  143.5420 C   0  0  1  0  0  3  0  0  0  0  0  0
  188.0420  178.0550  145.9350 C   0  0  0  0  0  2  0  0  0  0  0  0
  189.2260  177.4300  146.5020 N   0  0  0  0  0  0  0  0  0  0  0  0
  187.4740  177.2090  144.8180 C   0  0  0  0  0  2  0  0  0  0  0  0
  191.5480  177.2800  146.3540 O   0  0  0  0  0  0  0  0  0  0  0  0
  190.4400  177.2170  145.7530 C   0  0  0  0  0  0  0  0  0  0  0  0
  189.5100  176.8820  143.4080 C   0  0  0  0  0  3  0  0  0  0  0  0
  190.4600  176.7740  144.3430 C   0  0  0  0  0  3  0  0  0  0  0  0
  188.0930  178.0650  148.5750 C   0  0  0  0  0  1  0  0  0  0  0  0
  189.2400  177.2920  147.9530 C   0  0  0  0  0  2  0  0  0  0  0  0
  185.7400  179.1600  141.4910 C   0  0  2  0  0  3  0  0  0  0  0  0
  184.7360  179.1870  143.4620 C   0  0  0  0  0  1  0  0  0  0  0  0
  185.6060  179.9180  142.6540 O   0  0  0  0  0  0  0  0  0  0  0  0
  184.6000  178.1440  141.4450 C   0  0  0  0  0  2  0  0  0  0  0  0
  181.1050  178.6210  140.1040 C   0  0  0  0  0  3  0  0  0  0  0  0
  183.4620  178.6130  140.6120 C   0  0  0  0  0  0  0  0  0  0  0  0
  181.3240  179.5460  139.1330 N   0  0  0  0  0  0  0  0  0  0  0  0
  183.6640  179.5740  139.6180 C   0  0  0  0  0  3  0  0  0  0  0  0
  182.5710  180.0270  138.8750 C   0  0  0  0  0  3  0  0  0  0  0  0
  182.1720  178.1390  140.8650 C   0  0  0  0  0  3  0  0  0  0  0  0
  1  3  1  0  0  0  0
  2  1  1  0  0  0  0
  2  3  1  0  0  0  0
  3 24  1  0  0  0  0
  4  3  1  0  0  0  0
  5  4  1  0  0  0  0
  6 16  1  0  0  0  0
  6  5  1  1  0  0  0
  7 10  2  0  0  0  0
  8  9  1  0  0  0  0
  8 12  1  0  0  0  0
 10  9  1  0  0  0  0
 10  6  1  0  0  0  0
 11  7  1  0  0  0  0
 11  8  1  0  0  0  0
 12 15  1  0  0  0  0
 14 15  1  0  0  0  0
 14 13  1  0  0  0  0
 15 13  1  0  0  0  0
 17 18  2  0  0  0  0
 18 19  1  0  0  0  0
 18 16  1  0  0  0  0
 19 23  1  0  0  0  0
 20 23  1  0  0  0  0
 22 23  1  0  0  0  0
 23 21  1  0  0  0  0
 24 36  1  0  0  0  0
 24 25  1  6  0  0  0
 26 25  1  6  0  0  0
 26 29  1  0  0  0  0
 27 28  1  0  0  0  0
 28 35  1  0  0  0  0
 29 27  1  0  0  0  0
 31 30  2  0  0  0  0
 31 28  1  0  0  0  0
 32 26  1  0  0  0  0
 32 33  2  0  0  0  0
 33 31  1  0  0  0  0
 35 34  1  0  0  0  0
 36 39  1  1  0  0  0
 36 38  1  0  0  0  0
 38 37  1  0  0  0  0
 40 45  1  0  0  0  0
 41 45  2  0  0  0  0
 41 39  1  0  0  0  0
 42 40  2  0  0  0  0
 43 41  1  0  0  0  0
 44 42  1  0  0  0  0
 44 43  2  0  0  0  0
M  END
>  <MODEL>
7

>  <REMARK>
 VINA RESULT:      -6.0      4.308      9.224
  Name = 
  18 active torsions:
  status: ('A' for Active; 'I' for Inactive)
    1  A    between atoms: C_1  and  C_22
    2  A    between atoms: C_1  and  C_29
    3  A    between atoms: C_1  and  C_43
    4  A    between atoms: N_3  and  C_22
    5  A    between atoms: N_3  and  C_42
    6  A    between atoms: C_6  and  C_21
    7  A    between atoms: C_6  and  C_43
    8  A    between atoms: C_12  and  C_29
    9  A    between atoms: S_14  and  C_36
   10  A    between atoms: S_14  and  C_41
   11  A    between atoms: N_16  and  N_31
   12  A    between atoms: C_18  and  C_28
   13  A    between atoms: N_19  and  C_40
   14  A    between atoms: C_27  and  C_41
   15  A    between atoms: C_28  and  C_36
   16  A    between atoms: N_31  and  C_44
   17  A    between atoms: O_37  and  C_43
   18  A    between atoms: C_41  and  C_42
                            x       y       z     vdW  Elec       q    Type
                         _______ _______ _______ _____ _____    ______ ____

>  <TORSDO>
F 18

$$$$
=
 OpenBabel10232412443D

 45 49  0  0  1  0  0  0  0  0999 V2000
  188.8890  179.1100  137.5420 C   0  0  0  0  0  2  0  0  0  0  0  0
  189.1540  177.7970  136.8220 C   0  0  0  0  0  2  0  0  0  0  0  0
  188.0910  177.8750  137.9020 C   0  0  0  0  0  0  0  0  0  0  0  0
  188.4430  177.3850  139.2330 N   0  0  0  0  0  2  0  0  0  0  0  0
  189.7230  177.9540  139.6310 C   0  0  0  0  0  2  0  0  0  0  0  0
  190.6210  176.8890  140.2370 C   0  0  1  0  0  3  0  0  0  0  0  0
  191.2790  175.4310  138.3920 N   0  0  0  0  0  0  0  0  0  0  0  0
  193.4620  176.2020  137.9210 N   0  0  0  0  0  0  0  0  0  0  0  0
  192.8590  176.9010  138.9750 N   0  0  0  0  0  2  0  0  0  0  0  0
  191.5810  176.3610  139.2160 C   0  0  0  0  0  0  0  0  0  0  0  0
  192.4220  175.2520  137.5010 C   0  0  0  0  0  2  0  0  0  0  0  0
  194.4960  175.4450  138.4780 N   0  0  0  0  0  2  0  0  0  0  0  0
  196.0130  173.9540  137.3270 C   0  0  0  0  0  2  0  0  0  0  0  0
  195.4020  173.2020  138.4890 C   0  0  0  0  0  2  0  0  0  0  0  0
  194.5740  174.2090  137.7210 C   0  0  0  0  0  3  0  0  0  0  0  0
  191.5120  177.5840  141.6660 S   0  0  0  0  0  0  0  0  0  0  0  0
  189.7810  175.8330  142.5690 O   0  0  0  0  0  0  0  0  0  0  0  0
  190.8470  176.3740  142.8110 C   0  0  0  0  0  0  0  0  0  0  0  0
  191.6040  176.0360  144.0570 C   0  0  0  0  0  2  0  0  0  0  0  0
  191.6160  178.2680  144.8860 F   0  0  0  0  0  0  0  0  0  0  0  0
  189.9040  176.9170  145.4770 F   0  0  0  0  0  0  0  0  0  0  0  0
  191.9590  176.5770  146.3410 F   0  0  0  0  0  0  0  0  0  0  0  0
  191.2600  176.9690  145.2100 C   0  0  0  0  0  0  0  0  0  0  0  0
  186.6190  177.9790  137.4980 C   0  0  2  0  0  3  0  0  0  0  0  0
  185.8880  179.1540  138.1560 C   0  0  0  0  0  2  0  0  0  0  0  0
  185.0500  178.6700  139.3300 C   0  0  1  0  0  3  0  0  0  0  0  0
  185.2570  178.0220  141.6770 C   0  0  0  0  0  2  0  0  0  0  0  0
  184.0260  178.4920  142.2880 N   0  0  0  0  0  0  0  0  0  0  0  0
  185.7460  179.0050  140.6370 C   0  0  0  0  0  2  0  0  0  0  0  0
  181.6990  178.4540  142.1440 O   0  0  0  0  0  0  0  0  0  0  0  0
  182.7950  178.6620  141.5560 C   0  0  0  0  0  0  0  0  0  0  0  0
  183.6860  179.2720  139.2510 C   0  0  0  0  0  3  0  0  0  0  0  0
  182.7330  179.2190  140.1880 C   0  0  0  0  0  3  0  0  0  0  0  0
  184.1580  179.9210  144.2700 C   0  0  0  0  0  1  0  0  0  0  0  0
  184.0040  178.5060  143.7460 C   0  0  0  0  0  2  0  0  0  0  0  0
  185.8690  176.6330  137.5140 C   0  0  2  0  0  3  0  0  0  0  0  0
  186.4900  175.1280  136.0150 C   0  0  0  0  0  1  0  0  0  0  0  0
  186.7870  175.6070  137.2910 O   0  0  0  0  0  0  0  0  0  0  0  0
  184.7600  176.5210  136.4700 C   0  0  0  0  0  2  0  0  0  0  0  0
  181.9000  175.7790  138.8180 C   0  0  0  0  0  3  0  0  0  0  0  0
  183.4060  176.5160  137.0860 C   0  0  0  0  0  0  0  0  0  0  0  0
  180.9240  176.5680  138.2950 N   0  0  0  0  0  0  0  0  0  0  0  0
  182.3940  177.3300  136.5710 C   0  0  0  0  0  3  0  0  0  0  0  0
  181.1430  177.3360  137.1930 C   0  0  0  0  0  3  0  0  0  0  0  0
  183.1630  175.7410  138.2230 C   0  0  0  0  0  3  0  0  0  0  0  0
  1  3  1  0  0  0  0
  2  1  1  0  0  0  0
  2  3  1  0  0  0  0
  3  4  1  0  0  0  0
  4  5  1  0  0  0  0
  6  5  1  6  0  0  0
  6 16  1  0  0  0  0
  7 10  2  0  0  0  0
  8 12  1  0  0  0  0
  8  9  1  0  0  0  0
  9 10  1  0  0  0  0
 10  6  1  0  0  0  0
 11  8  1  0  0  0  0
 11  7  1  0  0  0  0
 13 15  1  0  0  0  0
 13 14  1  0  0  0  0
 15 12  1  0  0  0  0
 15 14  1  0  0  0  0
 16 18  1  0  0  0  0
 17 18  2  0  0  0  0
 18 19  1  0  0  0  0
 19 23  1  0  0  0  0
 20 23  1  0  0  0  0
 23 21  1  0  0  0  0
 23 22  1  0  0  0  0
 24 36  1  0  0  0  0
 24  3  1  0  0  0  0
 24 25  1  1  0  0  0
 26 25  1  6  0  0  0
 26 29  1  0  0  0  0
 27 28  1  0  0  0  0
 28 35  1  0  0  0  0
 29 27  1  0  0  0  0
 31 30  2  0  0  0  0
 31 28  1  0  0  0  0
 32 26  1  0  0  0  0
 32 33  2  0  0  0  0
 33 31  1  0  0  0  0
 35 34  1  0  0  0  0
 36 39  1  6  0  0  0
 37 38  1  0  0  0  0
 38 36  1  0  0  0  0
 39 41  1  0  0  0  0
 41 45  1  0  0  0  0
 42 40  1  0  0  0  0
 43 41  2  0  0  0  0
 43 44  1  0  0  0  0
 44 42  2  0  0  0  0
 45 40  2  0  0  0  0
M  END
>  <MODEL>
8

>  <REMARK>
 VINA RESULT:      -6.0      3.024      8.528
  Name = 
  18 active torsions:
  status: ('A' for Active; 'I' for Inactive)
    1  A    between atoms: C_1  and  C_22
    2  A    between atoms: C_1  and  C_29
    3  A    between atoms: C_1  and  C_43
    4  A    between atoms: N_3  and  C_22
    5  A    between atoms: N_3  and  C_42
    6  A    between atoms: C_6  and  C_21
    7  A    between atoms: C_6  and  C_43
    8  A    between atoms: C_12  and  C_29
    9  A    between atoms: S_14  and  C_36
   10  A    between atoms: S_14  and  C_41
   11  A    between atoms: N_16  and  N_31
   12  A    between atoms: C_18  and  C_28
   13  A    between atoms: N_19  and  C_40
   14  A    between atoms: C_27  and  C_41
   15  A    between atoms: C_28  and  C_36
   16  A    between atoms: N_31  and  C_44
   17  A    between atoms: O_37  and  C_43
   18  A    between atoms: C_41  and  C_42
                            x       y       z     vdW  Elec       q    Type
                         _______ _______ _______ _____ _____    ______ ____

>  <TORSDO>
F 18

$$$$
=
 OpenBabel10232412443D

 45 49  0  0  1  0  0  0  0  0999 V2000
  190.4790  176.0100  141.7500 C   0  0  0  0  0  2  0  0  0  0  0  0
  191.3210  177.2490  141.4830 C   0  0  0  0  0  2  0  0  0  0  0  0
  189.8310  177.2610  141.1950 C   0  0  0  0  0  0  0  0  0  0  0  0
  189.4100  177.0710  139.8100 N   0  0  0  0  0  2  0  0  0  0  0  0
  190.4020  177.6600  138.9210 C   0  0  0  0  0  2  0  0  0  0  0  0
  190.4790  176.8900  137.6140 C   0  0  1  0  0  3  0  0  0  0  0  0
  192.1960  175.6940  136.3560 N   0  0  0  0  0  0  0  0  0  0  0  0
  194.1560  176.2680  137.5440 N   0  0  0  0  0  0  0  0  0  0  0  0
  193.0040  176.8480  138.0920 N   0  0  0  0  0  2  0  0  0  0  0  0
  191.8800  176.4300  137.3520 C   0  0  0  0  0  0  0  0  0  0  0  0
  193.6470  175.5330  136.3770 C   0  0  0  0  0  2  0  0  0  0  0  0
  194.6010  175.3110  138.4590 N   0  0  0  0  0  2  0  0  0  0  0  0
  196.5730  173.9110  138.5090 C   0  0  0  0  0  2  0  0  0  0  0  0
  195.3560  173.0130  138.4660 C   0  0  0  0  0  2  0  0  0  0  0  0
  195.3550  174.3230  137.7090 C   0  0  0  0  0  3  0  0  0  0  0  0
  189.3330  175.4750  137.6730 S   0  0  0  0  0  0  0  0  0  0  0  0
  188.9280  176.1950  135.1840 O   0  0  0  0  0  0  0  0  0  0  0  0
  188.3820  176.0440  136.2640 C   0  0  0  0  0  0  0  0  0  0  0  0
  186.9200  176.3300  136.4210 C   0  0  0  0  0  2  0  0  0  0  0  0
  186.8210  178.4170  135.2780 F   0  0  0  0  0  0  0  0  0  0  0  0
  185.3330  178.0340  136.9340 F   0  0  0  0  0  0  0  0  0  0  0  0
  187.5020  178.4000  137.4290 F   0  0  0  0  0  0  0  0  0  0  0  0
  186.6340  177.8230  136.5150 C   0  0  0  0  0  0  0  0  0  0  0  0
  188.8820  177.9310  142.1910 C   0  0  2  0  0  3  0  0  0  0  0  0
  187.9630  178.9750  141.5490 C   0  0  0  0  0  2  0  0  0  0  0  0
  186.5160  178.5060  141.5860 C   0  0  1  0  0  3  0  0  0  0  0  0
  184.6230  178.2960  143.1160 C   0  0  0  0  0  2  0  0  0  0  0  0
  183.4600  178.5700  142.2880 N   0  0  0  0  0  0  0  0  0  0  0  0
  185.7800  179.1880  142.7250 C   0  0  0  0  0  2  0  0  0  0  0  0
  182.3540  177.9930  140.3190 O   0  0  0  0  0  0  0  0  0  0  0  0
  183.4360  178.3450  140.8630 C   0  0  0  0  0  0  0  0  0  0  0  0
  185.8720  178.7700  140.2640 C   0  0  0  0  0  3  0  0  0  0  0  0
  184.5730  178.6530  139.9700 C   0  0  0  0  0  3  0  0  0  0  0  0
  182.4450  178.8050  144.5010 C   0  0  0  0  0  1  0  0  0  0  0  0
  182.2120  178.8070  143.0020 C   0  0  0  0  0  2  0  0  0  0  0  0
  189.5560  178.3560  143.5100 C   0  0  2  0  0  3  0  0  0  0  0  0
  191.2280  179.5400  144.3460 C   0  0  0  0  0  1  0  0  0  0  0  0
  190.8510  178.7910  143.2310 O   0  0  0  0  0  0  0  0  0  0  0  0
  189.6370  177.2480  144.5580 C   0  0  0  0  0  2  0  0  0  0  0  0
  186.6520  178.2260  146.6500 C   0  0  0  0  0  3  0  0  0  0  0  0
  188.7670  177.5210  145.7330 C   0  0  0  0  0  0  0  0  0  0  0  0
  187.1070  177.9450  147.8990 N   0  0  0  0  0  0  0  0  0  0  0  0
  189.2120  177.2260  147.0250 C   0  0  0  0  0  3  0  0  0  0  0  0
  188.3600  177.4560  148.1070 C   0  0  0  0  0  3  0  0  0  0  0  0
  187.4750  178.0150  145.5410 C   0  0  0  0  0  3  0  0  0  0  0  0
  2  1  1  0  0  0  0
  3  2  1  0  0  0  0
  3  1  1  0  0  0  0
  3 24  1  0  0  0  0
  4  3  1  0  0  0  0
  5  4  1  0  0  0  0
  6 16  1  0  0  0  0
  6  5  1  1  0  0  0
  7 11  1  0  0  0  0
  7 10  2  0  0  0  0
  8  9  1  0  0  0  0
  8 12  1  0  0  0  0
 10  6  1  0  0  0  0
 10  9  1  0  0  0  0
 11  8  1  0  0  0  0
 14 13  1  0  0  0  0
 15 12  1  0  0  0  0
 15 14  1  0  0  0  0
 15 13  1  0  0  0  0
 17 18  2  0  0  0  0
 18 19  1  0  0  0  0
 18 16  1  0  0  0  0
 19 23  1  0  0  0  0
 20 23  1  0  0  0  0
 23 21  1  0  0  0  0
 23 22  1  0  0  0  0
 24 25  1  6  0  0  0
 24 36  1  0  0  0  0
 26 25  1  6  0  0  0
 26 29  1  0  0  0  0
 28 35  1  0  0  0  0
 28 27  1  0  0  0  0
 29 27  1  0  0  0  0
 30 31  2  0  0  0  0
 31 28  1  0  0  0  0
 32 26  1  0  0  0  0
 33 32  2  0  0  0  0
 33 31  1  0  0  0  0
 35 34  1  0  0  0  0
 36 39  1  1  0  0  0
 38 36  1  0  0  0  0
 38 37  1  0  0  0  0
 39 41  1  0  0  0  0
 40 42  1  0  0  0  0
 41 43  2  0  0  0  0
 42 44  2  0  0  0  0
 43 44  1  0  0  0  0
 45 41  1  0  0  0  0
 45 40  2  0  0  0  0
M  END
>  <MODEL>
9

>  <REMARK>
 VINA RESULT:      -5.9      3.676     10.101
  Name = 
  18 active torsions:
  status: ('A' for Active; 'I' for Inactive)
    1  A    between atoms: C_1  and  C_22
    2  A    between atoms: C_1  and  C_29
    3  A    between atoms: C_1  and  C_43
    4  A    between atoms: N_3  and  C_22
    5  A    between atoms: N_3  and  C_42
    6  A    between atoms: C_6  and  C_21
    7  A    between atoms: C_6  and  C_43
    8  A    between atoms: C_12  and  C_29
    9  A    between atoms: S_14  and  C_36
   10  A    between atoms: S_14  and  C_41
   11  A    between atoms: N_16  and  N_31
   12  A    between atoms: C_18  and  C_28
   13  A    between atoms: N_19  and  C_40
   14  A    between atoms: C_27  and  C_41
   15  A    between atoms: C_28  and  C_36
   16  A    between atoms: N_31  and  C_44
   17  A    between atoms: O_37  and  C_43
   18  A    between atoms: C_41  and  C_42
                            x       y       z     vdW  Elec       q    Type
                         _______ _______ _______ _____ _____    ______ ____

>  <TORSDO>
F 18

$$$$
