=
 OpenBabel10232409433D

 35 39  0  0  1  0  0  0  0  0999 V2000
  189.4130  177.5090  144.7640 C   0  0  0  0  0  0  0  0  0  0  0  0
  187.3390  178.1570  141.7610 N   0  0  0  0  0  0  0  0  0  0  0  0
  187.6500  178.2090  140.4520 C   0  0  0  0  0  3  0  0  0  0  0  0
  190.8550  177.2670  144.4670 C   0  0  0  0  0  1  0  0  0  0  0  0
  186.0320  178.2190  143.7780 C   0  0  0  0  0  0  0  0  0  0  0  0
  189.0130  177.9720  140.3440 C   0  0  0  0  0  0  0  0  0  0  0  0
  186.1170  178.3270  142.3620 C   0  0  2  0  0  3  0  0  0  0  0  0
  185.0240  178.5880  141.6380 C   0  0  0  0  0  3  0  0  0  0  0  0
  182.2160  178.9040  144.2470 C   0  0  0  0  0  2  0  0  0  0  0  0
  184.7250  178.4090  144.5060 C   0  0  0  0  0  3  0  0  0  0  0  0
  188.4720  177.8890  142.4440 C   0  0  0  0  0  0  0  0  0  0  0  0
  180.2010  178.2450  141.0040 C   0  0  0  0  0  1  0  0  0  0  0  0
  188.4250  177.7740  143.8310 C   0  0  0  0  0  0  0  0  0  0  0  0
  179.9840  178.1710  143.8240 O   0  0  0  0  0  0  0  0  0  0  0  0
  183.5520  178.6770  143.5980 C   0  0  0  0  0  0  0  0  0  0  0  0
  182.5350  179.0840  141.3670 C   0  0  0  0  0  2  0  0  0  0  0  0
  187.4520  177.7780  145.8320 C   0  0  0  0  0  0  0  0  0  0  0  0
  183.7020  178.7640  142.2590 C   0  0  0  0  0  0  0  0  0  0  0  0
  188.8070  177.5110  146.0240 C   0  0  0  0  0  0  0  0  0  0  0  0
  181.0940  178.5120  143.3360 C   0  0  0  0  0  0  0  0  0  0  0  0
  186.4890  177.8680  146.8320 O   0  0  0  0  0  1  0  0  0  0  0  0
  189.5580  177.7580  141.6030 C   0  0  0  0  0  3  0  0  0  0  0  0
  187.2210  177.9390  144.4800 C   0  0  0  0  0  0  0  0  0  0  0  0
  181.2890  178.5580  141.9160 N   0  0  0  0  0  0  0  0  0  0  0  0
  190.2470  176.2840  147.4660 O   0  0  0  0  0  0  0  0  0  0  0  0
  189.4800  177.2720  147.3200 C   0  0  0  0  0  0  0  0  0  0  0  0
  189.2730  178.1860  148.4780 C   0  0  0  0  0  1  0  0  0  0  0  0
  189.7680  177.9020  139.0630 C   0  0  0  0  0  2  0  0  0  0  0  0
  189.1520  176.5310  138.0370 S   0  0  0  0  0  0  0  0  0  0  0  0
  190.7270  175.6190  138.1000 C   0  0  0  0  0  2  0  0  0  0  0  0
  191.8370  176.3940  137.4060 C   0  0  0  0  0  2  0  0  0  0  0  0
  193.1010  176.4220  138.2560 C   0  0  0  0  0  2  0  0  0  0  0  0
  194.2900  174.4750  137.7480 C   0  0  0  0  0  1  0  0  0  0  0  0
  193.9170  176.0750  136.1000 C   0  0  0  0  0  1  0  0  0  0  0  0
  194.2350  175.9060  137.5060 N   0  0  0  0  0  0  0  0  0  0  0  0
  1 19  1  0  0  0  0
  2  7  1  0  0  0  0
  2 11  1  0  0  0  0
  3  2  1  0  0  0  0
  4  1  1  0  0  0  0
  5 23  2  0  0  0  0
  5 10  1  0  0  0  0
  6  3  2  0  0  0  0
  6 22  1  0  0  0  0
  7  8  1  6  0  0  0
  7  5  1  0  0  0  0
  8 18  2  0  0  0  0
 11 13  1  0  0  0  0
 12 24  1  0  0  0  0
 13 23  1  0  0  0  0
 13  1  2  0  0  0  0
 15  9  1  0  0  0  0
 15 10  2  0  0  0  0
 16 24  1  0  0  0  0
 16 18  1  0  0  0  0
 17 19  2  0  0  0  0
 17 21  1  0  0  0  0
 18 15  1  0  0  0  0
 19 26  1  0  0  0  0
 20 14  2  0  0  0  0
 20  9  1  0  0  0  0
 22 11  2  0  0  0  0
 23 17  1  0  0  0  0
 24 20  1  0  0  0  0
 26 25  2  0  0  0  0
 26 27  1  0  0  0  0
 28  6  1  0  0  0  0
 29 30  1  0  0  0  0
 29 28  1  0  0  0  0
 31 30  1  0  0  0  0
 31 32  1  0  0  0  0
 34 35  1  0  0  0  0
 35 33  1  0  0  0  0
 35 32  1  0  0  0  0
M  END
>  <MODEL>
1

>  <REMARK>
 VINA RESULT:      -9.9      0.000      0.000
  Name = 
  7 active torsions:
  status: ('A' for Active; 'I' for Inactive)
    1  A    between atoms: C_3  and  S_9
    2  A    between atoms: C_3  and  C_13
    3  A    between atoms: C_8  and  C_24
    4  A    between atoms: S_9  and  C_24
    5  A    between atoms: C_11  and  C_30
    6  A    between atoms: C_13  and  C_29
    7  A    between atoms: N_27  and  C_29
                            x       y       z     vdW  Elec       q    Type
                         _______ _______ _______ _____ _____    ______ ____

>  <TORSDO>
F 7

$$$$
=
 OpenBabel10232409433D

 35 39  0  0  1  0  0  0  0  0999 V2000
  190.2030  177.1070  144.7700 C   0  0  0  0  0  0  0  0  0  0  0  0
  188.0380  177.8260  141.8480 N   0  0  0  0  0  0  0  0  0  0  0  0
  188.2890  177.8210  140.5250 C   0  0  0  0  0  3  0  0  0  0  0  0
  191.6080  176.7540  144.4130 C   0  0  0  0  0  1  0  0  0  0  0  0
  186.8380  178.0350  143.9200 C   0  0  0  0  0  0  0  0  0  0  0  0
  189.6240  177.4840  140.3610 C   0  0  0  0  0  0  0  0  0  0  0  0
  186.8620  178.1000  142.5000 C   0  0  2  0  0  3  0  0  0  0  0  0
  185.7560  178.4200  141.8200 C   0  0  0  0  0  3  0  0  0  0  0  0
  183.1070  179.0060  144.5460 C   0  0  0  0  0  2  0  0  0  0  0  0
  185.5840  178.3380  144.7020 C   0  0  0  0  0  3  0  0  0  0  0  0
  189.1810  177.4940  142.4860 C   0  0  0  0  0  0  0  0  0  0  0  0
  180.8960  178.4110  141.4200 C   0  0  0  0  0  1  0  0  0  0  0  0
  189.1930  177.4180  143.8760 C   0  0  0  0  0  0  0  0  0  0  0  0
  180.8120  178.4260  144.2480 O   0  0  0  0  0  0  0  0  0  0  0  0
  184.3910  178.6660  143.8420 C   0  0  0  0  0  0  0  0  0  0  0  0
  183.2990  179.0880  141.6500 C   0  0  0  0  0  2  0  0  0  0  0  0
  188.3200  177.5450  145.9190 C   0  0  0  0  0  0  0  0  0  0  0  0
  184.4820  178.7070  142.4960 C   0  0  0  0  0  0  0  0  0  0  0  0
  189.6610  177.1850  146.0550 C   0  0  0  0  0  0  0  0  0  0  0  0
  181.9180  178.6730  143.7000 C   0  0  0  0  0  0  0  0  0  0  0  0
  187.4160  177.7310  146.9600 O   0  0  0  0  0  1  0  0  0  0  0  0
  190.2140  177.2630  141.5990 C   0  0  0  0  0  3  0  0  0  0  0  0
  188.0360  177.6870  144.5750 C   0  0  0  0  0  0  0  0  0  0  0  0
  182.0460  178.6680  142.2710 N   0  0  0  0  0  0  0  0  0  0  0  0
  190.1780  177.6720  148.3250 O   0  0  0  0  0  0  0  0  0  0  0  0
  190.3770  176.9320  147.3260 C   0  0  0  0  0  0  0  0  0  0  0  0
  191.3430  175.8060  147.4570 C   0  0  0  0  0  1  0  0  0  0  0  0
  190.3100  177.3260  139.0490 C   0  0  0  0  0  2  0  0  0  0  0  0
  189.2050  176.5170  137.8490 S   0  0  0  0  0  0  0  0  0  0  0  0
  188.9490  178.0390  136.8810 C   0  0  0  0  0  2  0  0  0  0  0  0
  187.4680  178.3420  136.7170 C   0  0  0  0  0  2  0  0  0  0  0  0
  186.6150  177.1360  137.0920 C   0  0  0  0  0  2  0  0  0  0  0  0
  184.4590  176.2400  137.2090 C   0  0  0  0  0  1  0  0  0  0  0  0
  184.9430  178.2550  138.2690 C   0  0  0  0  0  1  0  0  0  0  0  0
  185.2020  177.4800  137.0690 N   0  0  0  0  0  0  0  0  0  0  0  0
  1 19  1  0  0  0  0
  2 11  1  0  0  0  0
  2  7  1  0  0  0  0
  3  2  1  0  0  0  0
  4  1  1  0  0  0  0
  5 23  2  0  0  0  0
  5 10  1  0  0  0  0
  6  3  2  0  0  0  0
  6 22  1  0  0  0  0
  7  8  1  6  0  0  0
  7  5  1  0  0  0  0
  8 18  2  0  0  0  0
 11 13  1  0  0  0  0
 12 24  1  0  0  0  0
 13 23  1  0  0  0  0
 13  1  2  0  0  0  0
 15  9  1  0  0  0  0
 15 10  2  0  0  0  0
 16 24  1  0  0  0  0
 16 18  1  0  0  0  0
 17 19  2  0  0  0  0
 17 21  1  0  0  0  0
 18 15  1  0  0  0  0
 19 26  1  0  0  0  0
 20 14  2  0  0  0  0
 20  9  1  0  0  0  0
 22 11  2  0  0  0  0
 23 17  1  0  0  0  0
 24 20  1  0  0  0  0
 26 27  1  0  0  0  0
 26 25  2  0  0  0  0
 28  6  1  0  0  0  0
 29 28  1  0  0  0  0
 30 29  1  0  0  0  0
 31 30  1  0  0  0  0
 31 32  1  0  0  0  0
 35 32  1  0  0  0  0
 35 33  1  0  0  0  0
 35 34  1  0  0  0  0
M  END
>  <MODEL>
2

>  <REMARK>
 VINA RESULT:      -9.8      2.090      3.316
  Name = 
  7 active torsions:
  status: ('A' for Active; 'I' for Inactive)
    1  A    between atoms: C_3  and  S_9
    2  A    between atoms: C_3  and  C_13
    3  A    between atoms: C_8  and  C_24
    4  A    between atoms: S_9  and  C_24
    5  A    between atoms: C_11  and  C_30
    6  A    between atoms: C_13  and  C_29
    7  A    between atoms: N_27  and  C_29
                            x       y       z     vdW  Elec       q    Type
                         _______ _______ _______ _____ _____    ______ ____

>  <TORSDO>
F 7

$$$$
=
 OpenBabel10232409433D

 35 39  0  0  1  0  0  0  0  0999 V2000
  189.4260  177.4840  144.8250 C   0  0  0  0  0  0  0  0  0  0  0  0
  187.3770  178.0970  141.7970 N   0  0  0  0  0  0  0  0  0  0  0  0
  187.6980  178.1230  140.4900 C   0  0  0  0  0  3  0  0  0  0  0  0
  190.8670  177.2240  144.5420 C   0  0  0  0  0  1  0  0  0  0  0  0
  186.0580  178.2060  143.8040 C   0  0  0  0  0  0  0  0  0  0  0  0
  189.0590  177.8720  140.3950 C   0  0  0  0  0  0  0  0  0  0  0  0
  186.1530  178.2880  142.3870 C   0  0  2  0  0  3  0  0  0  0  0  0
  185.0670  178.5450  141.6510 C   0  0  0  0  0  3  0  0  0  0  0  0
  182.2450  178.9330  144.2350 C   0  0  0  0  0  2  0  0  0  0  0  0
  184.7480  178.4210  144.5190 C   0  0  0  0  0  3  0  0  0  0  0  0
  188.5030  177.8300  142.4930 C   0  0  0  0  0  0  0  0  0  0  0  0
  180.2460  178.2340  140.9910 C   0  0  0  0  0  1  0  0  0  0  0  0
  188.4460  177.7410  143.8810 C   0  0  0  0  0  0  0  0  0  0  0  0
  180.0100  178.2130  143.8100 O   0  0  0  0  0  0  0  0  0  0  0  0
  183.5840  178.6820  143.5990 C   0  0  0  0  0  0  0  0  0  0  0  0
  182.5850  179.0590  141.3550 C   0  0  0  0  0  2  0  0  0  0  0  0
  187.4600  177.7900  145.8750 C   0  0  0  0  0  0  0  0  0  0  0  0
  183.7430  178.7440  142.2600 C   0  0  0  0  0  0  0  0  0  0  0  0
  188.8120  177.5130  146.0810 C   0  0  0  0  0  0  0  0  0  0  0  0
  181.1260  178.5350  143.3240 C   0  0  0  0  0  0  0  0  0  0  0  0
  186.4910  177.9060  146.8670 O   0  0  0  0  0  1  0  0  0  0  0  0
  189.5940  177.6750  141.6610 C   0  0  0  0  0  3  0  0  0  0  0  0
  187.2390  177.9280  144.5190 C   0  0  0  0  0  0  0  0  0  0  0  0
  181.3300  178.5540  141.9040 N   0  0  0  0  0  0  0  0  0  0  0  0
  190.2490  176.3130  147.5470 O   0  0  0  0  0  0  0  0  0  0  0  0
  189.4740  177.2920  147.3860 C   0  0  0  0  0  0  0  0  0  0  0  0
  189.2450  178.2120  148.5340 C   0  0  0  0  0  1  0  0  0  0  0  0
  189.8220  177.7720  139.1200 C   0  0  0  0  0  2  0  0  0  0  0  0
  188.9660  178.6820  137.7970 S   0  0  0  0  0  0  0  0  0  0  0  0
  189.4460  177.4910  136.5050 C   0  0  0  0  0  2  0  0  0  0  0  0
  190.5960  176.6110  136.9700 C   0  0  0  0  0  2  0  0  0  0  0  0
  191.0060  175.6240  135.8850 C   0  0  0  0  0  2  0  0  0  0  0  0
  192.1700  174.5620  137.6120 C   0  0  0  0  0  1  0  0  0  0  0  0
  190.0660  173.7930  136.9780 C   0  0  0  0  0  1  0  0  0  0  0  0
  191.3140  174.3250  136.4620 N   0  0  0  0  0  0  0  0  0  0  0  0
  1 19  1  0  0  0  0
  2  7  1  0  0  0  0
  2 11  1  0  0  0  0
  3  2  1  0  0  0  0
  4  1  1  0  0  0  0
  5 23  2  0  0  0  0
  5 10  1  0  0  0  0
  6  3  2  0  0  0  0
  6 22  1  0  0  0  0
  7  8  1  6  0  0  0
  7  5  1  0  0  0  0
  8 18  2  0  0  0  0
 11 13  1  0  0  0  0
 12 24  1  0  0  0  0
 13 23  1  0  0  0  0
 13  1  2  0  0  0  0
 15  9  1  0  0  0  0
 15 10  2  0  0  0  0
 16 24  1  0  0  0  0
 16 18  1  0  0  0  0
 17 19  2  0  0  0  0
 17 21  1  0  0  0  0
 18 15  1  0  0  0  0
 19 26  1  0  0  0  0
 20 14  2  0  0  0  0
 20  9  1  0  0  0  0
 22 11  2  0  0  0  0
 23 17  1  0  0  0  0
 24 20  1  0  0  0  0
 26 25  2  0  0  0  0
 26 27  1  0  0  0  0
 28  6  1  0  0  0  0
 29 28  1  0  0  0  0
 30 31  1  0  0  0  0
 30 29  1  0  0  0  0
 32 35  1  0  0  0  0
 32 31  1  0  0  0  0
 35 34  1  0  0  0  0
 35 33  1  0  0  0  0
M  END
>  <MODEL>
3

>  <REMARK>
 VINA RESULT:      -9.7      1.041      1.336
  Name = 
  7 active torsions:
  status: ('A' for Active; 'I' for Inactive)
    1  A    between atoms: C_3  and  S_9
    2  A    between atoms: C_3  and  C_13
    3  A    between atoms: C_8  and  C_24
    4  A    between atoms: S_9  and  C_24
    5  A    between atoms: C_11  and  C_30
    6  A    between atoms: C_13  and  C_29
    7  A    between atoms: N_27  and  C_29
                            x       y       z     vdW  Elec       q    Type
                         _______ _______ _______ _____ _____    ______ ____

>  <TORSDO>
F 7

$$$$
=
 OpenBabel10232409433D

 35 39  0  0  1  0  0  0  0  0999 V2000
  183.3390  178.6370  143.5340 C   0  0  0  0  0  0  0  0  0  0  0  0
  186.9720  177.9370  143.7680 N   0  0  0  0  0  0  0  0  0  0  0  0
  187.7650  177.6680  144.8220 C   0  0  0  0  0  3  0  0  0  0  0  0
  182.6310  178.6220  144.8470 C   0  0  0  0  0  1  0  0  0  0  0  0
  186.2810  178.3140  141.4970 C   0  0  0  0  0  0  0  0  0  0  0  0
  186.9670  177.6970  145.9560 C   0  0  0  0  0  0  0  0  0  0  0  0
  187.3040  178.0190  142.4390 C   0  0  0  0  0  0  0  0  0  0  0  0
  188.5630  177.8250  142.0310 C   0  0  0  0  0  3  0  0  0  0  0  0
  188.4030  178.3030  138.2180 C   0  0  0  0  0  2  0  0  0  0  0  0
  186.5780  178.4340  140.0230 C   0  0  0  0  0  3  0  0  0  0  0  0
  185.7170  178.1200  144.2320 C   0  0  0  0  0  0  0  0  0  0  0  0
  191.7100  176.3250  138.6220 C   0  0  0  0  0  1  0  0  0  0  0  0
  184.6900  178.4070  143.3380 C   0  0  2  0  0  3  0  0  0  0  0  0
  189.7490  177.0340  136.7100 O   0  0  0  0  0  0  0  0  0  0  0  0
  188.0190  178.1770  139.6660 C   0  0  0  0  0  0  0  0  0  0  0  0
  190.3860  177.6970  140.2500 C   0  0  0  0  0  2  0  0  0  0  0  0
  183.7960  178.7950  141.3370 C   0  0  0  0  0  0  0  0  0  0  0  0
  188.9410  177.8980  140.6110 C   0  0  0  0  0  0  0  0  0  0  0  0
  182.7720  178.8810  142.2800 C   0  0  0  0  0  0  0  0  0  0  0  0
  189.5810  177.4390  137.8910 C   0  0  0  0  0  0  0  0  0  0  0  0
  183.6580  178.9720  139.9640 O   0  0  0  0  0  1  0  0  0  0  0  0
  185.6530  177.9770  145.6040 C   0  0  0  0  0  3  0  0  0  0  0  0
  184.9760  178.5030  141.9930 C   0  0  0  0  0  0  0  0  0  0  0  0
  190.5230  177.1080  138.9210 N   0  0  0  0  0  0  0  0  0  0  0  0
  180.8360  180.2580  142.3950 O   0  0  0  0  0  0  0  0  0  0  0  0
  181.3480  179.1750  142.0050 C   0  0  0  0  0  0  0  0  0  0  0  0
  180.4880  178.2100  141.2650 C   0  0  0  0  0  1  0  0  0  0  0  0
  187.4390  177.4130  147.3390 C   0  0  0  0  0  2  0  0  0  0  0  0
  189.0770  178.1570  147.6150 S   0  0  0  0  0  0  0  0  0  0  0  0
  189.9580  176.5740  147.4290 C   0  0  0  0  0  2  0  0  0  0  0  0
  191.4370  176.7980  147.1530 C   0  0  0  0  0  2  0  0  0  0  0  0
  191.8540  176.1560  145.8360 C   0  0  0  0  0  2  0  0  0  0  0  0
  191.6680  178.0430  144.4700 C   0  0  0  0  0  1  0  0  0  0  0  0
  191.4050  175.9160  143.5620 C   0  0  0  0  0  1  0  0  0  0  0  0
  191.1080  176.7280  144.7270 N   0  0  0  0  0  0  0  0  0  0  0  0
  1  4  1  0  0  0  0
  2 11  1  0  0  0  0
  2  3  1  0  0  0  0
  3  6  2  0  0  0  0
  5 23  1  0  0  0  0
  5  7  1  0  0  0  0
  6 28  1  0  0  0  0
  7  2  1  0  0  0  0
  8  7  2  0  0  0  0
  9 15  1  0  0  0  0
 10  5  2  0  0  0  0
 11 22  2  0  0  0  0
 12 24  1  0  0  0  0
 13 23  1  1  0  0  0
 13  1  1  0  0  0  0
 13 11  1  0  0  0  0
 14 20  2  0  0  0  0
 15 10  1  0  0  0  0
 15 18  2  0  0  0  0
 16 18  1  0  0  0  0
 17 23  2  0  0  0  0
 17 19  1  0  0  0  0
 18  8  1  0  0  0  0
 19  1  2  0  0  0  0
 20  9  1  0  0  0  0
 20 24  1  0  0  0  0
 21 17  1  0  0  0  0
 22  6  1  0  0  0  0
 24 16  1  0  0  0  0
 26 19  1  0  0  0  0
 26 25  2  0  0  0  0
 27 26  1  0  0  0  0
 28 29  1  0  0  0  0
 30 29  1  0  0  0  0
 31 30  1  0  0  0  0
 32 31  1  0  0  0  0
 33 35  1  0  0  0  0
 34 35  1  0  0  0  0
 35 32  1  0  0  0  0
M  END
>  <MODEL>
4

>  <REMARK>
 VINA RESULT:      -9.4      3.271      7.703
  Name = 
  7 active torsions:
  status: ('A' for Active; 'I' for Inactive)
    1  A    between atoms: C_3  and  S_9
    2  A    between atoms: C_3  and  C_13
    3  A    between atoms: C_8  and  C_24
    4  A    between atoms: S_9  and  C_24
    5  A    between atoms: C_11  and  C_30
    6  A    between atoms: C_13  and  C_29
    7  A    between atoms: N_27  and  C_29
                            x       y       z     vdW  Elec       q    Type
                         _______ _______ _______ _____ _____    ______ ____

>  <TORSDO>
F 7

$$$$
=
 OpenBabel10232409433D

 35 39  0  0  0  0  0  0  0  0999 V2000
  189.2690  177.3770  146.7260 C   0  0  0  0  0  0  0  0  0  0  0  0
  187.1540  177.9180  143.7300 N   0  0  0  0  0  0  0  0  0  0  0  0
  185.8840  178.3420  143.5960 C   0  0  0  0  0  3  0  0  0  0  0  0
  188.5850  177.6810  148.0160 C   0  0  0  0  0  1  0  0  0  0  0  0
  189.3550  177.1480  143.1420 C   0  0  0  0  0  0  0  0  0  0  0  0
  185.3910  178.5740  144.8710 C   0  0  0  0  0  0  0  0  0  0  0  0
  188.0520  177.5640  142.7530 C   0  0  0  0  0  0  0  0  0  0  0  0
  187.7140  177.6100  141.4600 C   0  0  0  0  0  3  0  0  0  0  0  0
  190.8740  176.4180  139.6190 C   0  0  0  0  0  2  0  0  0  0  0  0
  190.3860  176.7320  142.1220 C   0  0  0  0  0  2  0  0  0  0  0  0
  187.4440  177.8930  145.0480 C   0  0  0  0  0  0  0  0  0  0  0  0
  188.9680  178.2610  136.7930 C   0  0  0  0  0  1  0  0  0  0  0  0
  188.7110  177.4940  145.4640 C   0  0  0  0  0  0  0  0  0  0  0  0
  191.5330  177.3010  137.5020 O   0  0  0  0  0  0  0  0  0  0  0  0
  189.9140  176.8400  140.6960 C   0  0  0  0  0  0  0  0  0  0  0  0
  188.1840  177.2990  138.9710 C   0  0  0  0  0  2  0  0  0  0  0  0
  190.8010  176.7760  145.1920 C   0  0  0  0  0  0  0  0  0  0  0  0
  188.6620  177.2460  140.3950 C   0  0  0  0  0  0  0  0  0  0  0  0
  190.5820  176.9270  146.5610 C   0  0  0  0  0  0  0  0  0  0  0  0
  190.6030  177.1400  138.3350 C   0  0  0  0  0  0  0  0  0  0  0  0
  191.9820  176.3460  144.5970 O   0  0  0  0  0  1  0  0  0  0  0  0
  186.3710  178.3010  145.8160 C   0  0  0  0  0  3  0  0  0  0  0  0
  189.6450  177.1270  144.5200 C   0  0  0  0  0  0  0  0  0  0  0  0
  189.2780  177.6130  138.0570 N   0  0  0  0  0  0  0  0  0  0  0  0
  191.8950  177.5780  148.4350 O   0  0  0  0  0  0  0  0  0  0  0  0
  191.5590  176.6600  147.6400 C   0  0  0  0  0  0  0  0  0  0  0  0
  192.1660  175.3120  147.8170 C   0  0  0  0  0  1  0  0  0  0  0  0
  184.0300  179.0920  145.1800 C   0  0  0  0  0  2  0  0  0  0  0  0
  183.1300  179.4660  143.6420 S   0  0  0  0  0  0  0  0  0  0  0  0
  181.5560  178.7880  144.2580 C   0  0  0  0  0  2  0  0  0  0  0  0
  180.5930  178.5100  143.1140 C   0  0  0  0  0  2  0  0  0  0  0  0
  180.7420  179.5440  142.0070 C   0  0  0  0  0  2  0  0  0  0  0  0
  181.9930  178.7660  140.1920 C   0  0  0  0  0  1  0  0  0  0  0  0
  180.1330  177.5730  140.9220 C   0  0  0  0  0  1  0  0  0  0  0  0
  180.6410  178.9150  140.7000 N   0  0  0  0  0  0  0  0  0  0  0  0
  1  4  1  0  0  0  0
  2 11  1  0  0  0  0
  3  2  1  0  0  0  0
  3  6  2  0  0  0  0
  5 23  2  0  0  0  0
  6 28  1  0  0  0  0
  6 22  1  0  0  0  0
  7  5  1  0  0  0  0
  7  2  1  0  0  0  0
  8  7  2  0  0  0  0
  9 15  1  0  0  0  0
 10  5  1  0  0  0  0
 11 13  1  0  0  0  0
 11 22  2  0  0  0  0
 12 24  1  0  0  0  0
 13  1  2  0  0  0  0
 14 20  2  0  0  0  0
 15 10  1  0  0  0  0
 16 18  1  0  0  0  0
 17 19  2  0  0  0  0
 18 15  2  0  0  0  0
 18  8  1  0  0  0  0
 19  1  1  0  0  0  0
 19 26  1  0  0  0  0
 20  9  1  0  0  0  0
 21 17  1  0  0  0  0
 23 17  1  0  0  0  0
 23 13  1  0  0  0  0
 24 20  1  0  0  0  0
 24 16  1  0  0  0  0
 26 27  1  0  0  0  0
 26 25  2  0  0  0  0
 29 30  1  0  0  0  0
 29 28  1  0  0  0  0
 31 30  1  0  0  0  0
 32 31  1  0  0  0  0
 33 35  1  0  0  0  0
 35 34  1  0  0  0  0
 35 32  1  0  0  0  0
M  END
>  <MODEL>
5

>  <REMARK>
 VINA RESULT:      -8.9      3.268      7.878
  Name = 
  7 active torsions:
  status: ('A' for Active; 'I' for Inactive)
    1  A    between atoms: C_3  and  S_9
    2  A    between atoms: C_3  and  C_13
    3  A    between atoms: C_8  and  C_24
    4  A    between atoms: S_9  and  C_24
    5  A    between atoms: C_11  and  C_30
    6  A    between atoms: C_13  and  C_29
    7  A    between atoms: N_27  and  C_29
                            x       y       z     vdW  Elec       q    Type
                         _______ _______ _______ _____ _____    ______ ____

>  <TORSDO>
F 7

$$$$
=
 OpenBabel10232409433D

 35 39  0  0  1  0  0  0  0  0999 V2000
  186.8460  178.4260  139.1550 C   0  0  0  0  0  0  0  0  0  0  0  0
  189.6540  177.3810  141.3380 N   0  0  0  0  0  0  0  0  0  0  0  0
  190.9220  177.0270  141.0570 C   0  0  0  0  0  3  0  0  0  0  0  0
  187.1830  178.4540  137.7020 C   0  0  0  0  0  1  0  0  0  0  0  0
  187.6720  177.8720  142.6070 C   0  0  0  0  0  0  0  0  0  0  0  0
  191.0730  177.0970  139.6810 C   0  0  0  0  0  0  0  0  0  0  0  0
  189.0330  177.4640  142.5590 C   0  0  0  0  0  0  0  0  0  0  0  0
  189.6900  177.1700  143.6860 C   0  0  0  0  0  3  0  0  0  0  0  0
  187.0800  177.6890  146.4630 C   0  0  0  0  0  2  0  0  0  0  0  0
  186.9240  177.9700  143.9130 C   0  0  0  0  0  3  0  0  0  0  0  0
  189.0380  177.6700  140.1710 C   0  0  0  0  0  0  0  0  0  0  0  0
  190.3940  177.8590  148.4620 C   0  0  0  0  0  1  0  0  0  0  0  0
  187.7060  178.0750  140.1810 C   0  0  2  0  0  3  0  0  0  0  0  0
  187.6530  178.5390  148.6180 O   0  0  0  0  0  0  0  0  0  0  0  0
  187.7590  177.6400  145.1230 C   0  0  0  0  0  0  0  0  0  0  0  0
  189.8580  176.8820  146.2170 C   0  0  0  0  0  2  0  0  0  0  0  0
  185.7510  178.5850  141.1130 C   0  0  0  0  0  0  0  0  0  0  0  0
  189.0500  177.2620  145.0070 C   0  0  0  0  0  0  0  0  0  0  0  0
  185.6160  178.7480  139.7340 C   0  0  0  0  0  0  0  0  0  0  0  0
  188.0550  177.9940  147.5570 C   0  0  0  0  0  0  0  0  0  0  0  0
  184.7560  178.8020  142.0610 O   0  0  0  0  0  1  0  0  0  0  0  0
  189.8860  177.5120  139.0930 C   0  0  0  0  0  3  0  0  0  0  0  0
  187.0400  178.1700  141.3830 C   0  0  0  0  0  0  0  0  0  0  0  0
  189.4350  177.6340  147.3940 N   0  0  0  0  0  0  0  0  0  0  0  0
  184.1090  180.4050  138.9330 O   0  0  0  0  0  0  0  0  0  0  0  0
  184.3960  179.1810  139.0170 C   0  0  0  0  0  0  0  0  0  0  0  0
  183.4820  178.1930  138.3790 C   0  0  0  0  0  1  0  0  0  0  0  0
  192.3390  176.8220  138.9460 C   0  0  0  0  0  2  0  0  0  0  0  0
  192.0940  175.4790  137.7420 S   0  0  0  0  0  0  0  0  0  0  0  0
  193.5990  175.8890  136.8000 C   0  0  0  0  0  2  0  0  0  0  0  0
  194.7240  174.9150  137.1110 C   0  0  0  0  0  2  0  0  0  0  0  0
  194.2130  173.7210  137.9070 C   0  0  0  0  0  2  0  0  0  0  0  0
  196.1040  172.3460  137.8930 C   0  0  0  0  0  1  0  0  0  0  0  0
  196.0890  174.2940  139.1660 C   0  0  0  0  0  1  0  0  0  0  0  0
  195.2680  173.1740  138.7450 N   0  0  0  0  0  0  0  0  0  0  0  0
  1 19  2  0  0  0  0
  2  7  1  0  0  0  0
  3  2  1  0  0  0  0
  4  1  1  0  0  0  0
  5 10  1  0  0  0  0
  6  3  2  0  0  0  0
  7  5  2  0  0  0  0
  7  8  1  0  0  0  0
  8 18  2  0  0  0  0
  9 20  1  0  0  0  0
 10 15  2  0  0  0  0
 11 13  1  0  0  0  0
 11  2  1  0  0  0  0
 13  1  1  6  0  0  0
 13 23  1  0  0  0  0
 15  9  1  0  0  0  0
 16 24  1  0  0  0  0
 17 23  2  0  0  0  0
 17 21  1  0  0  0  0
 18 15  1  0  0  0  0
 18 16  1  0  0  0  0
 19 17  1  0  0  0  0
 20 14  2  0  0  0  0
 22  6  1  0  0  0  0
 22 11  2  0  0  0  0
 23  5  1  0  0  0  0
 24 20  1  0  0  0  0
 24 12  1  0  0  0  0
 25 26  2  0  0  0  0
 26 19  1  0  0  0  0
 27 26  1  0  0  0  0
 28  6  1  0  0  0  0
 29 28  1  0  0  0  0
 30 31  1  0  0  0  0
 30 29  1  0  0  0  0
 31 32  1  0  0  0  0
 32 35  1  0  0  0  0
 33 35  1  0  0  0  0
 35 34  1  0  0  0  0
M  END
>  <MODEL>
6

>  <REMARK>
 VINA RESULT:      -8.7      2.750      6.165
  Name = 
  7 active torsions:
  status: ('A' for Active; 'I' for Inactive)
    1  A    between atoms: C_3  and  S_9
    2  A    between atoms: C_3  and  C_13
    3  A    between atoms: C_8  and  C_24
    4  A    between atoms: S_9  and  C_24
    5  A    between atoms: C_11  and  C_30
    6  A    between atoms: C_13  and  C_29
    7  A    between atoms: N_27  and  C_29
                            x       y       z     vdW  Elec       q    Type
                         _______ _______ _______ _____ _____    ______ ____

>  <TORSDO>
F 7

$$$$
=
 OpenBabel10232409433D

 35 39  0  0  1  0  0  0  0  0999 V2000
  183.6860  178.8650  141.0180 C   0  0  0  0  0  0  0  0  0  0  0  0
  187.2500  178.1300  141.7280 N   0  0  0  0  0  0  0  0  0  0  0  0
  188.3260  178.0580  140.9230 C   0  0  0  0  0  3  0  0  0  0  0  0
  183.3940  179.1220  139.5770 C   0  0  0  0  0  1  0  0  0  0  0  0
  185.9140  178.0860  143.7260 C   0  0  0  0  0  0  0  0  0  0  0  0
  187.8910  178.3130  139.6310 C   0  0  0  0  0  0  0  0  0  0  0  0
  187.1770  177.9530  143.0870 C   0  0  2  0  0  3  0  0  0  0  0  0
  188.2690  177.6630  143.8020 C   0  0  0  0  0  3  0  0  0  0  0  0
  186.9780  177.3540  147.4120 C   0  0  0  0  0  2  0  0  0  0  0  0
  185.7590  177.8900  145.2140 C   0  0  0  0  0  3  0  0  0  0  0  0
  186.1800  178.4280  140.9600 C   0  0  0  0  0  0  0  0  0  0  0  0
  190.7680  177.9220  147.9810 C   0  0  0  0  0  1  0  0  0  0  0  0
  184.9280  178.5680  141.5530 C   0  0  0  0  0  0  0  0  0  0  0  0
  188.2680  178.0450  149.2970 O   0  0  0  0  0  0  0  0  0  0  0  0
  187.0500  177.5890  145.9290 C   0  0  0  0  0  0  0  0  0  0  0  0
  189.4910  177.1240  145.9770 C   0  0  0  0  0  2  0  0  0  0  0  0
  183.4760  178.5870  143.2400 C   0  0  0  0  0  0  0  0  0  0  0  0
  188.2180  177.4790  145.2600 C   0  0  0  0  0  0  0  0  0  0  0  0
  182.7700  178.8780  142.0730 C   0  0  0  0  0  0  0  0  0  0  0  0
  188.2680  177.7120  148.0830 C   0  0  0  0  0  0  0  0  0  0  0  0
  182.9370  178.5010  144.5190 O   0  0  0  0  0  1  0  0  0  0  0  0
  186.5250  178.5590  139.6300 C   0  0  0  0  0  3  0  0  0  0  0  0
  184.8050  178.3970  142.9150 C   0  0  0  0  0  0  0  0  0  0  0  0
  189.4940  177.6420  147.3410 N   0  0  0  0  0  0  0  0  0  0  0  0
  180.8460  180.2410  142.3870 O   0  0  0  0  0  0  0  0  0  0  0  0
  181.3180  179.1510  141.9700 C   0  0  0  0  0  0  0  0  0  0  0  0
  180.3850  178.1540  141.3760 C   0  0  0  0  0  1  0  0  0  0  0  0
  188.7700  178.3700  138.4300 C   0  0  0  0  0  2  0  0  0  0  0  0
  187.7700  178.3260  136.9100 S   0  0  0  0  0  0  0  0  0  0  0  0
  188.3170  176.6480  136.4580 C   0  0  0  0  0  2  0  0  0  0  0  0
  189.7740  176.4260  136.8320 C   0  0  0  0  0  2  0  0  0  0  0  0
  190.0130  174.9900  137.2810 C   0  0  0  0  0  2  0  0  0  0  0  0
  192.1890  174.1350  137.2830 C   0  0  0  0  0  1  0  0  0  0  0  0
  191.7630  176.2420  138.1770 C   0  0  0  0  0  1  0  0  0  0  0  0
  191.2320  174.8960  138.0680 N   0  0  0  0  0  0  0  0  0  0  0  0
  1 13  2  0  0  0  0
  1 19  1  0  0  0  0
  2  7  1  0  0  0  0
  3  2  1  0  0  0  0
  4  1  1  0  0  0  0
  5 10  1  0  0  0  0
  6  3  2  0  0  0  0
  7  5  1  0  0  0  0
  7  8  1  1  0  0  0
  8 18  2  0  0  0  0
  9 20  1  0  0  0  0
 10 15  2  0  0  0  0
 11 13  1  0  0  0  0
 11  2  1  0  0  0  0
 13 23  1  0  0  0  0
 15  9  1  0  0  0  0
 16 24  1  0  0  0  0
 17 21  1  0  0  0  0
 18 15  1  0  0  0  0
 18 16  1  0  0  0  0
 19 17  2  0  0  0  0
 20 14  2  0  0  0  0
 22  6  1  0  0  0  0
 22 11  2  0  0  0  0
 23 17  1  0  0  0  0
 23  5  2  0  0  0  0
 24 12  1  0  0  0  0
 24 20  1  0  0  0  0
 26 19  1  0  0  0  0
 26 25  2  0  0  0  0
 27 26  1  0  0  0  0
 28  6  1  0  0  0  0
 29 28  1  0  0  0  0
 30 31  1  0  0  0  0
 30 29  1  0  0  0  0
 31 32  1  0  0  0  0
 32 35  1  0  0  0  0
 33 35  1  0  0  0  0
 35 34  1  0  0  0  0
M  END
>  <MODEL>
7

>  <REMARK>
 VINA RESULT:      -8.6      1.907      6.104
  Name = 
  7 active torsions:
  status: ('A' for Active; 'I' for Inactive)
    1  A    between atoms: C_3  and  S_9
    2  A    between atoms: C_3  and  C_13
    3  A    between atoms: C_8  and  C_24
    4  A    between atoms: S_9  and  C_24
    5  A    between atoms: C_11  and  C_30
    6  A    between atoms: C_13  and  C_29
    7  A    between atoms: N_27  and  C_29
                            x       y       z     vdW  Elec       q    Type
                         _______ _______ _______ _____ _____    ______ ____

>  <TORSDO>
F 7

$$$$
=
 OpenBabel10232409433D

 35 39  0  0  1  0  0  0  0  0999 V2000
  186.6850  178.4310  139.0980 C   0  0  0  0  0  0  0  0  0  0  0  0
  189.5430  177.2940  141.1670 N   0  0  0  0  0  0  0  0  0  0  0  0
  190.7870  176.9020  140.8360 C   0  0  0  0  0  3  0  0  0  0  0  0
  186.9650  178.4530  137.6330 C   0  0  0  0  0  1  0  0  0  0  0  0
  187.6280  177.8410  142.5140 C   0  0  0  0  0  0  0  0  0  0  0  0
  190.8870  176.9720  139.4550 C   0  0  0  0  0  0  0  0  0  0  0  0
  188.9730  177.3920  142.4120 C   0  0  0  0  0  0  0  0  0  0  0  0
  189.6650  177.0750  143.5120 C   0  0  0  0  0  3  0  0  0  0  0  0
  187.1820  177.6640  146.3900 C   0  0  0  0  0  2  0  0  0  0  0  0
  186.9350  177.9580  143.8490 C   0  0  0  0  0  3  0  0  0  0  0  0
  188.8910  177.6050  140.0260 C   0  0  0  0  0  0  0  0  0  0  0  0
  190.5760  177.7270  148.2580 C   0  0  0  0  0  1  0  0  0  0  0  0
  187.5730  178.0510  140.0890 C   0  0  2  0  0  3  0  0  0  0  0  0
  187.8650  178.4890  148.5230 O   0  0  0  0  0  0  0  0  0  0  0  0
  187.8060  177.5990  145.0240 C   0  0  0  0  0  0  0  0  0  0  0  0
  189.9220  176.7740  146.0330 C   0  0  0  0  0  2  0  0  0  0  0  0
  185.6720  178.6170  141.0980 C   0  0  0  0  0  0  0  0  0  0  0  0
  189.0800  177.1820  144.8570 C   0  0  0  0  0  0  0  0  0  0  0  0
  185.4880  178.7880  139.7260 C   0  0  0  0  0  0  0  0  0  0  0  0
  188.2090  177.9360  147.4450 C   0  0  0  0  0  0  0  0  0  0  0  0
  184.7230  178.8620  142.0850 O   0  0  0  0  0  1  0  0  0  0  0  0
  189.6900  177.4250  138.9150 C   0  0  0  0  0  3  0  0  0  0  0  0
  186.9580  178.1630  141.3170 C   0  0  0  0  0  0  0  0  0  0  0  0
  189.5690  177.5350  147.2280 N   0  0  0  0  0  0  0  0  0  0  0  0
  184.0780  180.4900  138.8470 O   0  0  0  0  0  0  0  0  0  0  0  0
  184.2550  179.2610  139.0580 C   0  0  0  0  0  0  0  0  0  0  0  0
  183.1990  178.3060  138.6210 C   0  0  0  0  0  1  0  0  0  0  0  0
  192.1130  176.6620  138.6700 C   0  0  0  0  0  2  0  0  0  0  0  0
  191.6730  176.1580  136.9780 S   0  0  0  0  0  0  0  0  0  0  0  0
  191.3540  174.4280  137.4480 C   0  0  0  0  0  2  0  0  0  0  0  0
  190.0910  173.9020  136.7850 C   0  0  0  0  0  2  0  0  0  0  0  0
  189.5830  174.8700  135.7240 C   0  0  0  0  0  2  0  0  0  0  0  0
  187.6060  174.8410  136.9710 C   0  0  0  0  0  1  0  0  0  0  0  0
  187.7060  176.0290  134.9720 C   0  0  0  0  0  1  0  0  0  0  0  0
  188.1350  174.8020  135.6190 N   0  0  0  0  0  0  0  0  0  0  0  0
  1 19  2  0  0  0  0
  2  7  1  0  0  0  0
  3  2  1  0  0  0  0
  4  1  1  0  0  0  0
  5 10  1  0  0  0  0
  6  3  2  0  0  0  0
  7  5  2  0  0  0  0
  7  8  1  0  0  0  0
  8 18  2  0  0  0  0
  9 20  1  0  0  0  0
 10 15  2  0  0  0  0
 11 13  1  0  0  0  0
 11  2  1  0  0  0  0
 13  1  1  6  0  0  0
 13 23  1  0  0  0  0
 15  9  1  0  0  0  0
 16 24  1  0  0  0  0
 17 23  2  0  0  0  0
 17 21  1  0  0  0  0
 18 15  1  0  0  0  0
 18 16  1  0  0  0  0
 19 17  1  0  0  0  0
 20 14  2  0  0  0  0
 22  6  1  0  0  0  0
 22 11  2  0  0  0  0
 23  5  1  0  0  0  0
 24 20  1  0  0  0  0
 24 12  1  0  0  0  0
 25 26  2  0  0  0  0
 26 19  1  0  0  0  0
 27 26  1  0  0  0  0
 28  6  1  0  0  0  0
 29 30  1  0  0  0  0
 29 28  1  0  0  0  0
 31 30  1  0  0  0  0
 32 31  1  0  0  0  0
 34 35  1  0  0  0  0
 35 32  1  0  0  0  0
 35 33  1  0  0  0  0
M  END
>  <MODEL>
8

>  <REMARK>
 VINA RESULT:      -8.5      2.913      6.409
  Name = 
  7 active torsions:
  status: ('A' for Active; 'I' for Inactive)
    1  A    between atoms: C_3  and  S_9
    2  A    between atoms: C_3  and  C_13
    3  A    between atoms: C_8  and  C_24
    4  A    between atoms: S_9  and  C_24
    5  A    between atoms: C_11  and  C_30
    6  A    between atoms: C_13  and  C_29
    7  A    between atoms: N_27  and  C_29
                            x       y       z     vdW  Elec       q    Type
                         _______ _______ _______ _____ _____    ______ ____

>  <TORSDO>
F 7

$$$$
=
 OpenBabel10232409433D

 35 39  0  0  1  0  0  0  0  0999 V2000
  186.9210  178.5640  141.2370 C   0  0  0  0  0  0  0  0  0  0  0  0
  190.4930  177.5700  141.2910 N   0  0  0  0  0  0  0  0  0  0  0  0
  191.3950  177.5290  142.2890 C   0  0  0  0  0  3  0  0  0  0  0  0
  186.3920  179.0010  142.5620 C   0  0  0  0  0  1  0  0  0  0  0  0
  189.5400  177.3570  139.0940 C   0  0  0  0  0  0  0  0  0  0  0  0
  190.7560  177.9660  143.4400 C   0  0  0  0  0  0  0  0  0  0  0  0
  190.6530  177.2340  139.9700 C   0  0  0  0  0  0  0  0  0  0  0  0
  191.8300  176.7960  139.5100 C   0  0  0  0  0  3  0  0  0  0  0  0
  191.2080  176.1800  135.7640 C   0  0  0  0  0  2  0  0  0  0  0  0
  189.6490  177.0180  137.6280 C   0  0  0  0  0  3  0  0  0  0  0  0
  189.3260  178.0130  141.8080 C   0  0  0  0  0  0  0  0  0  0  0  0
  194.3850  174.0540  136.3910 C   0  0  0  0  0  1  0  0  0  0  0  0
  188.2150  178.1430  140.9790 C   0  0  2  0  0  3  0  0  0  0  0  0
  192.2490  174.3960  134.5690 O   0  0  0  0  0  0  0  0  0  0  0  0
  191.0080  176.5150  137.2160 C   0  0  0  0  0  0  0  0  0  0  0  0
  193.3900  175.9680  137.6670 C   0  0  0  0  0  2  0  0  0  0  0  0
  187.0970  178.0380  139.0570 C   0  0  0  0  0  0  0  0  0  0  0  0
  192.0230  176.4200  138.1010 C   0  0  0  0  0  0  0  0  0  0  0  0
  186.2140  178.5000  140.0340 C   0  0  0  0  0  0  0  0  0  0  0  0
  192.2670  175.1370  135.5870 C   0  0  0  0  0  0  0  0  0  0  0  0
  186.7940  177.8300  137.7160 O   0  0  0  0  0  1  0  0  0  0  0  0
  189.4320  178.2750  143.1590 C   0  0  0  0  0  3  0  0  0  0  0  0
  188.3280  177.8190  139.6450 C   0  0  0  0  0  0  0  0  0  0  0  0
  193.3080  175.0130  136.5660 N   0  0  0  0  0  0  0  0  0  0  0  0
  184.4820  179.9140  139.2220 O   0  0  0  0  0  0  0  0  0  0  0  0
  184.7920  178.8570  139.8330 C   0  0  0  0  0  0  0  0  0  0  0  0
  183.6980  177.9830  140.3410 C   0  0  0  0  0  1  0  0  0  0  0  0
  191.3830  178.0400  144.7880 C   0  0  0  0  0  2  0  0  0  0  0  0
  190.9810  176.5510  145.7560 S   0  0  0  0  0  0  0  0  0  0  0  0
  190.0420  177.4770  147.0120 C   0  0  0  0  0  2  0  0  0  0  0  0
  188.6390  176.9140  147.1740 C   0  0  0  0  0  2  0  0  0  0  0  0
  187.6350  178.0170  147.4840 C   0  0  0  0  0  2  0  0  0  0  0  0
  186.7320  177.1870  145.4940 C   0  0  0  0  0  1  0  0  0  0  0  0
  185.5730  178.7890  146.7220 C   0  0  0  0  0  1  0  0  0  0  0  0
  186.8990  178.3920  146.2870 N   0  0  0  0  0  0  0  0  0  0  0  0
  1  4  1  0  0  0  0
  2 11  1  0  0  0  0
  2  3  1  0  0  0  0
  3  6  2  0  0  0  0
  5 23  1  0  0  0  0
  5  7  1  0  0  0  0
  6 28  1  0  0  0  0
  7  2  1  0  0  0  0
  8  7  2  0  0  0  0
  9 15  1  0  0  0  0
 10  5  2  0  0  0  0
 11 22  2  0  0  0  0
 12 24  1  0  0  0  0
 13 23  1  6  0  0  0
 13  1  1  0  0  0  0
 13 11  1  0  0  0  0
 14 20  2  0  0  0  0
 15 10  1  0  0  0  0
 15 18  2  0  0  0  0
 16 18  1  0  0  0  0
 17 23  2  0  0  0  0
 17 19  1  0  0  0  0
 18  8  1  0  0  0  0
 19  1  2  0  0  0  0
 20  9  1  0  0  0  0
 20 24  1  0  0  0  0
 21 17  1  0  0  0  0
 22  6  1  0  0  0  0
 24 16  1  0  0  0  0
 25 26  2  0  0  0  0
 26 19  1  0  0  0  0
 26 27  1  0  0  0  0
 28 29  1  0  0  0  0
 29 30  1  0  0  0  0
 30 31  1  0  0  0  0
 31 32  1  0  0  0  0
 33 35  1  0  0  0  0
 35 34  1  0  0  0  0
 35 32  1  0  0  0  0
M  END
>  <MODEL>
9

>  <REMARK>
 VINA RESULT:      -8.2      3.591      9.262
  Name = 
  7 active torsions:
  status: ('A' for Active; 'I' for Inactive)
    1  A    between atoms: C_3  and  S_9
    2  A    between atoms: C_3  and  C_13
    3  A    between atoms: C_8  and  C_24
    4  A    between atoms: S_9  and  C_24
    5  A    between atoms: C_11  and  C_30
    6  A    between atoms: C_13  and  C_29
    7  A    between atoms: N_27  and  C_29
                            x       y       z     vdW  Elec       q    Type
                         _______ _______ _______ _____ _____    ______ ____

>  <TORSDO>
F 7

$$$$
