=
 OpenBabel10232410203D

 61 65  0  0  1  0  0  0  0  0999 V2000
  189.6830  178.0340  141.6680 C   0  0  2  0  0  3  0  0  0  0  0  0
  190.4320  177.5320  142.9840 C   0  0  2  0  0  3  0  0  0  0  0  0
  189.9600  176.1820  143.3950 C   0  0  0  0  0  3  0  0  0  0  0  0
  190.4490  175.1610  142.8450 O   0  0  0  0  0  0  0  0  0  0  0  0
  190.6550  178.4860  144.1180 C   0  0  0  0  0  2  0  0  0  0  0  0
  191.2890  179.6430  143.7030 F   0  0  0  0  0  0  0  0  0  0  0  0
  188.2570  177.6240  141.3340 C   0  0  0  0  0  2  0  0  0  0  0  0
  187.1860  178.6140  141.9370 C   0  0  2  0  0  3  0  0  0  0  0  0
  185.9120  178.0710  142.4570 C   0  0  2  0  0  3  0  0  0  0  0  0
  185.3390  179.1870  141.6550 C   0  0  1  0  0  3  0  0  0  0  0  0
  186.5480  179.4040  141.0190 O   0  0  0  0  0  0  0  0  0  0  0  0
  183.6090  177.6370  141.5760 O   0  0  0  0  0  1  0  0  0  0  0  0
  184.3360  178.3990  140.7140 C   0  0  1  0  0  3  0  0  0  0  0  0
  183.5200  179.2770  139.9210 C   0  0  0  0  0  2  0  0  0  0  0  0
  181.9810  177.9930  137.8050 C   0  0  0  0  0  2  0  0  0  0  0  0
  182.3600  179.4360  137.9560 C   0  0  0  0  0  2  0  0  0  0  0  0
  183.4300  177.7260  138.2290 C   0  0  2  0  0  3  0  0  0  0  0  0
  183.7480  179.1700  138.4550 N   0  0  0  0  0  0  0  0  0  0  0  0
  184.1440  177.0630  137.1240 O   0  0  0  0  0  0  0  0  0  0  0  0
  187.0120  174.7310  137.0580 C   0  0  0  0  0  3  0  0  0  0  0  0
  184.8800  175.8960  137.0510 C   0  0  0  0  0  0  0  0  0  0  0  0
  184.2720  174.6850  136.6030 C   0  0  0  0  0  3  0  0  0  0  0  0
  185.0400  173.5270  136.4590 C   0  0  0  0  0  0  0  0  0  0  0  0
  186.4250  173.5430  136.6850 C   0  0  0  0  0  3  0  0  0  0  0  0
  186.2860  175.8450  137.2120 C   0  0  0  0  0  3  0  0  0  0  0  0
  184.1200  172.1610  134.8080 O   0  0  0  0  0  0  0  0  0  0  0  0
  184.3590  172.3500  136.0220 C   0  0  0  0  0  0  0  0  0  0  0  0
  183.9870  171.4430  136.9890 O   0  0  0  0  0  1  0  0  0  0  0  0
  185.4720  178.1710  143.9670 C   0  0  1  0  0  3  0  0  0  0  0  0
  186.3220  178.5200  146.3920 C   0  0  0  0  0  1  0  0  0  0  0  0
  186.4620  177.8620  145.0760 C   0  0  0  0  0  2  0  0  0  0  0  0
  183.7330  178.9240  145.1850 C   0  0  0  0  0  1  0  0  0  0  0  0
  184.7470  179.2870  144.2760 O   0  0  0  0  0  0  0  0  0  0  0  0
  190.5570  178.0310  140.4780 N   0  0  0  0  0  2  0  0  0  0  0  0
  189.8290  176.9880  135.9220 C   0  0  0  0  0  3  0  0  0  0  0  0
  189.9710  177.0470  139.5430 C   0  0  2  0  0  3  0  0  0  0  0  0
  188.1800  178.1510  134.5190 F   0  0  0  0  0  0  0  0  0  0  0  0
  188.8100  177.9410  135.6990 C   0  0  0  0  0  0  0  0  0  0  0  0
  191.2740  175.8310  137.8230 C   0  0  2  0  0  3  0  0  0  0  0  0
  188.8920  178.6150  138.0090 C   0  0  0  0  0  3  0  0  0  0  0  0
  190.3460  176.8440  137.2200 C   0  0  0  0  0  0  0  0  0  0  0  0
  188.3960  178.7700  136.7500 C   0  0  0  0  0  3  0  0  0  0  0  0
  190.8890  175.8410  139.3100 C   0  0  0  0  0  2  0  0  0  0  0  0
  189.8280  177.6450  138.2060 C   0  0  0  0  0  0  0  0  0  0  0  0
  193.4060  176.8190  138.4050 O   0  0  0  0  0  0  0  0  0  0  0  0
  192.7570  176.1910  137.5640 C   0  0  0  0  0  0  0  0  0  0  0  0
  193.4940  175.7960  136.3110 C   0  0  0  0  0  2  0  0  0  0  0  0
  195.4520  174.4120  136.3600 N   0  0  0  0  0  0  0  0  0  0  0  0
  194.1460  174.4640  136.3130 C   0  0  0  0  0  0  0  0  0  0  0  0
  196.3450  176.5640  135.8200 O   0  0  0  0  0  0  0  0  0  0  0  0
  196.4080  175.4200  136.4740 C   0  0  0  0  0  0  0  0  0  0  0  0
  199.8850  174.9310  139.0600 C   0  0  0  0  0  1  0  0  0  0  0  0
  200.2300  172.8320  137.7070 C   0  0  0  0  0  1  0  0  0  0  0  0
  198.1260  174.0280  137.4240 C   0  0  0  0  0  3  0  0  0  0  0  0
  199.3900  173.9280  138.1170 N   0  0  0  0  0  0  0  0  0  0  0  0
  197.5200  175.1260  137.3360 N   0  0  0  0  0  0  0  0  0  0  0  0
  193.3440  173.2390  135.9320 C   0  0  0  0  0  2  0  0  0  0  0  0
  194.0780  172.0440  135.4560 N   0  0  0  0  0  0  0  0  0  0  0  0
  194.5650  171.3700  136.6570 C   0  0  0  0  0  1  0  0  0  0  0  0
  193.3740  169.7900  135.8380 C   0  0  0  0  0  1  0  0  0  0  0  0
  193.1520  171.0190  134.9770 C   0  0  0  0  0  2  0  0  0  0  0  0
  1  7  1  6  0  0  0
  1  2  1  0  0  0  0
  2  3  1  1  0  0  0
  2  5  1  0  0  0  0
  4  3  2  0  0  0  0
  6  5  1  0  0  0  0
  8  7  1  6  0  0  0
  8  9  1  0  0  0  0
  9 29  1  1  0  0  0
 10 13  1  6  0  0  0
 10  9  1  0  0  0  0
 11 10  1  0  0  0  0
 11  8  1  0  0  0  0
 13 12  1  1  0  0  0
 14 13  1  0  0  0  0
 15 16  1  0  0  0  0
 15 17  1  0  0  0  0
 16 18  1  0  0  0  0
 17 19  1  6  0  0  0
 17 18  1  0  0  0  0
 18 14  1  0  0  0  0
 20 25  1  0  0  0  0
 21 19  1  0  0  0  0
 21 25  2  0  0  0  0
 22 21  1  0  0  0  0
 23 22  2  0  0  0  0
 23 24  1  0  0  0  0
 24 20  2  0  0  0  0
 26 27  2  0  0  0  0
 27 23  1  0  0  0  0
 27 28  1  0  0  0  0
 29 33  1  0  0  0  0
 29 31  1  1  0  0  0
 31 30  1  0  0  0  0
 33 32  1  0  0  0  0
 34  1  1  0  0  0  0
 35 41  1  0  0  0  0
 36 34  1  1  0  0  0
 37 38  1  0  0  0  0
 38 35  2  0  0  0  0
 38 42  1  0  0  0  0
 39 46  1  1  0  0  0
 39 43  1  0  0  0  0
 40 44  1  0  0  0  0
 41 39  1  0  0  0  0
 41 44  2  0  0  0  0
 42 40  2  0  0  0  0
 43 36  1  0  0  0  0
 44 36  1  0  0  0  0
 46 45  2  0  0  0  0
 47 49  1  0  0  0  0
 47 46  1  0  0  0  0
 48 51  1  0  0  0  0
 49 48  2  0  0  0  0
 50 51  2  0  0  0  0
 51 56  1  0  0  0  0
 53 55  1  0  0  0  0
 54 55  1  0  0  0  0
 55 52  1  0  0  0  0
 56 54  2  0  0  0  0
 57 49  1  0  0  0  0
 58 57  1  0  0  0  0
 58 59  1  0  0  0  0
 61 58  1  0  0  0  0
 61 60  1  0  0  0  0
M  END
>  <MODEL>
1

>  <REMARK>
 VINA RESULT:      -6.6      0.000      0.000
  Name = 
  24 active torsions:
  status: ('A' for Active; 'I' for Inactive)
    1  A    between atoms: O_1  and  C_12
    2  A    between atoms: O_1  and  C_50
    3  A    between atoms: C_4  and  N_38
    4  A    between atoms: C_5  and  C_7
    5  A    between atoms: C_5  and  C_58
    6  A    between atoms: C_9  and  C_13
    7  A    between atoms: N_11  and  C_59
    8  A    between atoms: C_13  and  C_48
    9  A    between atoms: C_13  and  C_58
   10  A    between atoms: C_18  and  C_61
   11  A    between atoms: C_23  and  C_27
   12  A    between atoms: C_23  and  C_30
   13  A    between atoms: C_26  and  C_35
   14  A    between atoms: C_26  and  C_47
   15  A    between atoms: C_28  and  C_60
   16  A    between atoms: C_30  and  N_55
   17  A    between atoms: N_33  and  C_37
   18  A    between atoms: N_33  and  C_47
   19  A    between atoms: C_35  and  C_60
   20  A    between atoms: N_38  and  C_58
   21  A    between atoms: O_40  and  C_61
   22  A    between atoms: C_43  and  C_51
   23  A    between atoms: N_45  and  C_59
   24  A    between atoms: C_46  and  C_61
                            x       y       z     vdW  Elec       q    Type
                         _______ _______ _______ _____ _____    ______ ____

>  <TORSDO>
F 24

$$$$
=
 OpenBabel10232410203D

 61 65  0  0  1  0  0  0  0  0999 V2000
  189.5560  177.9860  141.5830 C   0  0  2  0  0  3  0  0  0  0  0  0
  190.3610  177.2730  142.7620 C   0  0  2  0  0  3  0  0  0  0  0  0
  191.6190  178.0020  143.0780 C   0  0  0  0  0  3  0  0  0  0  0  0
  191.7150  178.6300  144.1640 O   0  0  0  0  0  0  0  0  0  0  0  0
  190.4860  175.7800  142.7760 C   0  0  0  0  0  2  0  0  0  0  0  0
  191.3550  175.3430  143.7580 F   0  0  0  0  0  0  0  0  0  0  0  0
  188.0910  177.6950  141.3030 C   0  0  0  0  0  2  0  0  0  0  0  0
  187.1200  178.5780  142.1800 C   0  0  2  0  0  3  0  0  0  0  0  0
  186.1220  177.9140  143.0450 C   0  0  2  0  0  3  0  0  0  0  0  0
  185.2130  178.9210  142.4320 C   0  0  1  0  0  3  0  0  0  0  0  0
  186.1570  179.2500  141.4760 O   0  0  0  0  0  0  0  0  0  0  0  0
  183.1220  177.9680  142.7780 O   0  0  0  0  0  1  0  0  0  0  0  0
  184.0890  177.9830  141.8220 C   0  0  1  0  0  3  0  0  0  0  0  0
  183.6110  178.4520  140.5500 C   0  0  0  0  0  2  0  0  0  0  0  0
  181.4470  177.7700  138.7210 C   0  0  0  0  0  2  0  0  0  0  0  0
  181.5630  177.5000  140.1920 C   0  0  0  0  0  2  0  0  0  0  0  0
  181.9870  179.1570  139.0880 C   0  0  2  0  0  3  0  0  0  0  0  0
  182.1720  178.8250  140.5350 N   0  0  0  0  0  0  0  0  0  0  0  0
  180.9650  180.1720  138.7740 O   0  0  0  0  0  0  0  0  0  0  0  0
  180.4940  181.3310  135.2950 C   0  0  0  0  0  3  0  0  0  0  0  0
  180.7730  181.0010  137.6850 C   0  0  0  0  0  0  0  0  0  0  0  0
  180.9460  182.4120  137.8130 C   0  0  0  0  0  3  0  0  0  0  0  0
  180.8260  183.2380  136.6920 C   0  0  0  0  0  0  0  0  0  0  0  0
  180.6000  182.6990  135.4170 C   0  0  0  0  0  3  0  0  0  0  0  0
  180.5960  180.5300  136.3620 C   0  0  0  0  0  3  0  0  0  0  0  0
  182.0300  185.0850  137.4490 O   0  0  0  0  0  1  0  0  0  0  0  0
  180.9960  184.6390  136.9010 C   0  0  0  0  0  0  0  0  0  0  0  0
  179.9840  185.4680  136.4710 O   0  0  0  0  0  0  0  0  0  0  0  0
  186.1170  178.0250  144.6180 C   0  0  1  0  0  3  0  0  0  0  0  0
  188.4230  177.1300  145.3950 C   0  0  0  0  0  1  0  0  0  0  0  0
  187.4190  178.2150  145.3760 C   0  0  0  0  0  2  0  0  0  0  0  0
  185.5440  179.2570  146.4140 C   0  0  0  0  0  1  0  0  0  0  0  0
  185.1470  178.8420  145.1270 O   0  0  0  0  0  0  0  0  0  0  0  0
  190.3480  178.1050  140.3430 N   0  0  0  0  0  2  0  0  0  0  0  0
  189.7650  176.8720  135.8130 C   0  0  0  0  0  3  0  0  0  0  0  0
  189.8410  177.0560  139.4320 C   0  0  2  0  0  3  0  0  0  0  0  0
  188.0710  177.8830  134.3470 F   0  0  0  0  0  0  0  0  0  0  0  0
  188.6930  177.7520  135.5430 C   0  0  0  0  0  0  0  0  0  0  0  0
  191.2470  175.8700  137.7730 C   0  0  2  0  0  3  0  0  0  0  0  0
  188.6930  178.5030  137.8310 C   0  0  0  0  0  3  0  0  0  0  0  0
  190.2670  176.8020  137.1230 C   0  0  0  0  0  0  0  0  0  0  0  0
  188.2100  178.5860  136.5600 C   0  0  0  0  0  3  0  0  0  0  0  0
  190.8360  175.9040  139.2530 C   0  0  0  0  0  2  0  0  0  0  0  0
  189.6840  177.6000  138.0740 C   0  0  0  0  0  0  0  0  0  0  0  0
  193.4020  176.7370  138.4540 O   0  0  0  0  0  0  0  0  0  0  0  0
  192.7080  176.3140  137.5250 C   0  0  0  0  0  0  0  0  0  0  0  0
  193.3710  176.2470  136.1740 C   0  0  0  0  0  2  0  0  0  0  0  0
  194.5010  174.1990  135.6390 N   0  0  0  0  0  0  0  0  0  0  0  0
  193.4150  174.9170  135.5180 C   0  0  0  0  0  0  0  0  0  0  0  0
  195.9970  175.5910  136.8810 O   0  0  0  0  0  0  0  0  0  0  0  0
  195.6750  174.4250  136.3550 C   0  0  0  0  0  0  0  0  0  0  0  0
  198.4700  171.0780  136.2740 C   0  0  0  0  0  1  0  0  0  0  0  0
  196.6470  169.9050  137.5610 C   0  0  0  0  0  1  0  0  0  0  0  0
  196.4250  172.3070  137.2200 C   0  0  0  0  0  3  0  0  0  0  0  0
  197.2270  171.1190  137.0450 N   0  0  0  0  0  0  0  0  0  0  0  0
  196.5640  173.3000  136.4600 N   0  0  0  0  0  0  0  0  0  0  0  0
  192.3770  174.5660  134.4740 C   0  0  0  0  0  2  0  0  0  0  0  0
  191.5830  173.3310  134.6680 N   0  0  0  0  0  0  0  0  0  0  0  0
  191.5760  173.0830  136.1090 C   0  0  0  0  0  1  0  0  0  0  0  0
  189.4060  172.5760  135.3160 C   0  0  0  0  0  1  0  0  0  0  0  0
  190.1570  173.5910  134.4740 C   0  0  0  0  0  2  0  0  0  0  0  0
  1  7  1  6  0  0  0
  1  2  1  0  0  0  0
  2  5  1  6  0  0  0
  2  3  1  0  0  0  0
  3  4  2  0  0  0  0
  5  6  1  0  0  0  0
  8  7  1  6  0  0  0
  8  9  1  0  0  0  0
  9 29  1  1  0  0  0
 10 13  1  6  0  0  0
 10  9  1  0  0  0  0
 11  8  1  0  0  0  0
 11 10  1  0  0  0  0
 13 12  1  1  0  0  0
 14 13  1  0  0  0  0
 15 17  1  0  0  0  0
 15 16  1  0  0  0  0
 16 18  1  0  0  0  0
 17 19  1  1  0  0  0
 17 18  1  0  0  0  0
 18 14  1  0  0  0  0
 20 24  2  0  0  0  0
 20 25  1  0  0  0  0
 21 22  1  0  0  0  0
 21 19  1  0  0  0  0
 23 27  1  0  0  0  0
 23 22  2  0  0  0  0
 24 23  1  0  0  0  0
 25 21  2  0  0  0  0
 27 26  1  0  0  0  0
 28 27  2  0  0  0  0
 29 33  1  0  0  0  0
 29 31  1  6  0  0  0
 31 30  1  0  0  0  0
 33 32  1  0  0  0  0
 34  1  1  0  0  0  0
 35 41  1  0  0  0  0
 36 34  1  1  0  0  0
 37 38  1  0  0  0  0
 38 35  2  0  0  0  0
 38 42  1  0  0  0  0
 39 46  1  1  0  0  0
 39 43  1  0  0  0  0
 40 44  1  0  0  0  0
 41 39  1  0  0  0  0
 41 44  2  0  0  0  0
 42 40  2  0  0  0  0
 43 36  1  0  0  0  0
 44 36  1  0  0  0  0
 46 45  2  0  0  0  0
 47 46  1  0  0  0  0
 48 51  1  0  0  0  0
 49 48  2  0  0  0  0
 49 47  1  0  0  0  0
 51 56  1  0  0  0  0
 51 50  2  0  0  0  0
 52 55  1  0  0  0  0
 55 54  1  0  0  0  0
 55 53  1  0  0  0  0
 56 54  2  0  0  0  0
 57 58  1  0  0  0  0
 57 49  1  0  0  0  0
 58 59  1  0  0  0  0
 61 58  1  0  0  0  0
 61 60  1  0  0  0  0
M  END
>  <MODEL>
2

>  <REMARK>
 VINA RESULT:      -6.4      2.781      4.624
  Name = 
  24 active torsions:
  status: ('A' for Active; 'I' for Inactive)
    1  A    between atoms: O_1  and  C_12
    2  A    between atoms: O_1  and  C_50
    3  A    between atoms: C_4  and  N_38
    4  A    between atoms: C_5  and  C_7
    5  A    between atoms: C_5  and  C_58
    6  A    between atoms: C_9  and  C_13
    7  A    between atoms: N_11  and  C_59
    8  A    between atoms: C_13  and  C_48
    9  A    between atoms: C_13  and  C_58
   10  A    between atoms: C_18  and  C_61
   11  A    between atoms: C_23  and  C_27
   12  A    between atoms: C_23  and  C_30
   13  A    between atoms: C_26  and  C_35
   14  A    between atoms: C_26  and  C_47
   15  A    between atoms: C_28  and  C_60
   16  A    between atoms: C_30  and  N_55
   17  A    between atoms: N_33  and  C_37
   18  A    between atoms: N_33  and  C_47
   19  A    between atoms: C_35  and  C_60
   20  A    between atoms: N_38  and  C_58
   21  A    between atoms: O_40  and  C_61
   22  A    between atoms: C_43  and  C_51
   23  A    between atoms: N_45  and  C_59
   24  A    between atoms: C_46  and  C_61
                            x       y       z     vdW  Elec       q    Type
                         _______ _______ _______ _____ _____    ______ ____

>  <TORSDO>
F 24

$$$$
=
 OpenBabel10232410203D

 61 65  0  0  1  0  0  0  0  0999 V2000
  189.4410  177.8020  142.2200 C   0  0  2  0  0  3  0  0  0  0  0  0
  190.2020  177.1770  143.4750 C   0  0  2  0  0  3  0  0  0  0  0  0
  190.7270  175.8190  143.1690 C   0  0  0  0  0  3  0  0  0  0  0  0
  191.7360  175.3900  143.7870 O   0  0  0  0  0  0  0  0  0  0  0  0
  189.6150  177.3250  144.8450 C   0  0  0  0  0  2  0  0  0  0  0  0
  190.5050  176.9450  145.8330 F   0  0  0  0  0  0  0  0  0  0  0  0
  188.0320  177.3860  141.8300 C   0  0  0  0  0  2  0  0  0  0  0  0
  186.9760  178.5350  142.0640 C   0  0  2  0  0  3  0  0  0  0  0  0
  185.6850  178.2100  142.7100 C   0  0  2  0  0  3  0  0  0  0  0  0
  185.1440  179.0170  141.5820 C   0  0  1  0  0  3  0  0  0  0  0  0
  186.3640  178.9970  140.9300 O   0  0  0  0  0  0  0  0  0  0  0  0
  183.0230  178.0750  141.7070 O   0  0  0  0  0  1  0  0  0  0  0  0
  184.1340  177.9840  140.9280 C   0  0  1  0  0  3  0  0  0  0  0  0
  183.8720  178.2710  139.5440 C   0  0  0  0  0  2  0  0  0  0  0  0
  182.7390  177.4270  136.9950 C   0  0  0  0  0  2  0  0  0  0  0  0
  182.6620  176.7540  138.3330 C   0  0  0  0  0  2  0  0  0  0  0  0
  182.4520  178.7050  137.7920 C   0  0  2  0  0  3  0  0  0  0  0  0
  182.4690  178.0150  139.1190 N   0  0  0  0  0  0  0  0  0  0  0  0
  181.1580  179.2640  137.3610 O   0  0  0  0  0  0  0  0  0  0  0  0
  180.2060  181.4640  134.5470 C   0  0  0  0  0  3  0  0  0  0  0  0
  180.8190  180.3920  136.6380 C   0  0  0  0  0  0  0  0  0  0  0  0
  181.0170  181.6920  137.1930 C   0  0  0  0  0  3  0  0  0  0  0  0
  180.7440  182.8290  136.4290 C   0  0  0  0  0  0  0  0  0  0  0  0
  180.3370  182.7220  135.0910 C   0  0  0  0  0  3  0  0  0  0  0  0
  180.4520  180.3660  135.2710 C   0  0  0  0  0  3  0  0  0  0  0  0
  181.9610  184.7850  136.7900 O   0  0  0  0  0  0  0  0  0  0  0  0
  180.9520  184.0940  137.0570 C   0  0  0  0  0  0  0  0  0  0  0  0
  179.9980  184.5150  137.9560 O   0  0  0  0  0  1  0  0  0  0  0  0
  185.2310  178.7990  144.1000 C   0  0  1  0  0  3  0  0  0  0  0  0
  182.7430  179.5050  144.2890 C   0  0  0  0  0  1  0  0  0  0  0  0
  184.1670  179.8800  144.1630 C   0  0  0  0  0  2  0  0  0  0  0  0
  186.2530  177.3020  145.4370 C   0  0  0  0  0  1  0  0  0  0  0  0
  185.0120  177.8610  145.0690 O   0  0  0  0  0  0  0  0  0  0  0  0
  190.3200  177.9660  141.0440 N   0  0  0  0  0  2  0  0  0  0  0  0
  189.8600  177.2270  136.3940 C   0  0  0  0  0  3  0  0  0  0  0  0
  189.8000  177.0420  140.0140 C   0  0  2  0  0  3  0  0  0  0  0  0
  188.2750  178.4660  134.9820 F   0  0  0  0  0  0  0  0  0  0  0  0
  188.8420  178.1830  136.1790 C   0  0  0  0  0  0  0  0  0  0  0  0
  191.2130  175.9580  138.2920 C   0  0  2  0  0  3  0  0  0  0  0  0
  188.7860  178.6990  138.5300 C   0  0  0  0  0  3  0  0  0  0  0  0
  190.3050  177.0000  137.7080 C   0  0  0  0  0  0  0  0  0  0  0  0
  188.3590  178.9340  137.2590 C   0  0  0  0  0  3  0  0  0  0  0  0
  190.7450  175.8640  139.7520 C   0  0  0  0  0  2  0  0  0  0  0  0
  189.7230  177.7270  138.7140 C   0  0  0  0  0  0  0  0  0  0  0  0
  193.2590  177.0430  138.9980 O   0  0  0  0  0  0  0  0  0  0  0  0
  192.7020  176.3490  138.1420 C   0  0  0  0  0  0  0  0  0  0  0  0
  193.5570  175.9090  136.9820 C   0  0  0  0  0  2  0  0  0  0  0  0
  194.8080  173.8780  137.2270 N   0  0  0  0  0  0  0  0  0  0  0  0
  193.7160  174.4470  136.7880 C   0  0  0  0  0  0  0  0  0  0  0  0
  195.8490  174.7010  139.2160 O   0  0  0  0  0  0  0  0  0  0  0  0
  195.8930  174.3950  137.9340 C   0  0  0  0  0  0  0  0  0  0  0  0
  199.2610  175.1710  135.2750 C   0  0  0  0  0  1  0  0  0  0  0  0
  200.2170  173.1070  136.3620 C   0  0  0  0  0  1  0  0  0  0  0  0
  198.2020  174.0690  137.3370 C   0  0  0  0  0  3  0  0  0  0  0  0
  199.2440  174.1690  136.3410 N   0  0  0  0  0  0  0  0  0  0  0  0
  197.0850  174.6210  137.1640 N   0  0  0  0  0  0  0  0  0  0  0  0
  192.8070  173.7190  135.8230 C   0  0  0  0  0  2  0  0  0  0  0  0
  191.3840  174.1250  135.7620 N   0  0  0  0  0  0  0  0  0  0  0  0
  191.0240  174.1090  134.3460 C   0  0  0  0  0  1  0  0  0  0  0  0
  189.1220  173.6390  136.3730 C   0  0  0  0  0  1  0  0  0  0  0  0
  190.5130  173.0490  136.2330 C   0  0  0  0  0  2  0  0  0  0  0  0
  1  7  1  6  0  0  0
  1  2  1  0  0  0  0
  2  3  1  6  0  0  0
  2  5  1  0  0  0  0
  3  4  2  0  0  0  0
  5  6  1  0  0  0  0
  8  7  1  6  0  0  0
  8  9  1  0  0  0  0
  9 29  1  1  0  0  0
 10 13  1  6  0  0  0
 10  9  1  0  0  0  0
 11 10  1  0  0  0  0
 11  8  1  0  0  0  0
 13 12  1  1  0  0  0
 14 13  1  0  0  0  0
 15 17  1  0  0  0  0
 15 16  1  0  0  0  0
 16 18  1  0  0  0  0
 17 19  1  6  0  0  0
 17 18  1  0  0  0  0
 18 14  1  0  0  0  0
 20 24  2  0  0  0  0
 20 25  1  0  0  0  0
 21 22  1  0  0  0  0
 21 19  1  0  0  0  0
 23 27  1  0  0  0  0
 23 22  2  0  0  0  0
 24 23  1  0  0  0  0
 25 21  2  0  0  0  0
 26 27  2  0  0  0  0
 27 28  1  0  0  0  0
 29 31  1  6  0  0  0
 29 33  1  0  0  0  0
 31 30  1  0  0  0  0
 33 32  1  0  0  0  0
 34  1  1  0  0  0  0
 35 41  1  0  0  0  0
 36 34  1  1  0  0  0
 37 38  1  0  0  0  0
 38 35  2  0  0  0  0
 38 42  1  0  0  0  0
 39 46  1  1  0  0  0
 39 43  1  0  0  0  0
 40 44  1  0  0  0  0
 41 39  1  0  0  0  0
 41 44  2  0  0  0  0
 42 40  2  0  0  0  0
 43 36  1  0  0  0  0
 44 36  1  0  0  0  0
 46 45  2  0  0  0  0
 47 46  1  0  0  0  0
 48 51  1  0  0  0  0
 49 47  1  0  0  0  0
 49 48  2  0  0  0  0
 51 50  2  0  0  0  0
 52 55  1  0  0  0  0
 55 53  1  0  0  0  0
 55 54  1  0  0  0  0
 56 54  2  0  0  0  0
 56 51  1  0  0  0  0
 57 49  1  0  0  0  0
 58 57  1  0  0  0  0
 58 61  1  0  0  0  0
 59 58  1  0  0  0  0
 61 60  1  0  0  0  0
M  END
>  <MODEL>
3

>  <REMARK>
 VINA RESULT:      -6.2      2.452      4.451
  Name = 
  24 active torsions:
  status: ('A' for Active; 'I' for Inactive)
    1  A    between atoms: O_1  and  C_12
    2  A    between atoms: O_1  and  C_50
    3  A    between atoms: C_4  and  N_38
    4  A    between atoms: C_5  and  C_7
    5  A    between atoms: C_5  and  C_58
    6  A    between atoms: C_9  and  C_13
    7  A    between atoms: N_11  and  C_59
    8  A    between atoms: C_13  and  C_48
    9  A    between atoms: C_13  and  C_58
   10  A    between atoms: C_18  and  C_61
   11  A    between atoms: C_23  and  C_27
   12  A    between atoms: C_23  and  C_30
   13  A    between atoms: C_26  and  C_35
   14  A    between atoms: C_26  and  C_47
   15  A    between atoms: C_28  and  C_60
   16  A    between atoms: C_30  and  N_55
   17  A    between atoms: N_33  and  C_37
   18  A    between atoms: N_33  and  C_47
   19  A    between atoms: C_35  and  C_60
   20  A    between atoms: N_38  and  C_58
   21  A    between atoms: O_40  and  C_61
   22  A    between atoms: C_43  and  C_51
   23  A    between atoms: N_45  and  C_59
   24  A    between atoms: C_46  and  C_61
                            x       y       z     vdW  Elec       q    Type
                         _______ _______ _______ _____ _____    ______ ____

>  <TORSDO>
F 24

$$$$
=
 OpenBabel10232410203D

 61 65  0  0  1  0  0  0  0  0999 V2000
  189.3860  177.8750  141.9700 C   0  0  2  0  0  3  0  0  0  0  0  0
  190.0300  177.2440  143.2870 C   0  0  2  0  0  3  0  0  0  0  0  0
  190.9160  178.2200  143.9770 C   0  0  0  0  0  3  0  0  0  0  0  0
  190.6670  179.4510  143.8930 O   0  0  0  0  0  0  0  0  0  0  0  0
  190.5530  175.8410  143.2560 C   0  0  0  0  0  2  0  0  0  0  0  0
  191.8930  175.7810  143.5930 F   0  0  0  0  0  0  0  0  0  0  0  0
  187.9870  177.5170  141.4940 C   0  0  0  0  0  2  0  0  0  0  0  0
  186.9300  178.6410  141.8240 C   0  0  2  0  0  3  0  0  0  0  0  0
  185.6080  178.2550  142.3630 C   0  0  2  0  0  3  0  0  0  0  0  0
  185.1270  179.2050  141.3230 C   0  0  1  0  0  3  0  0  0  0  0  0
  186.3750  179.2510  140.7300 O   0  0  0  0  0  0  0  0  0  0  0  0
  183.5840  177.4710  141.4430 O   0  0  0  0  0  1  0  0  0  0  0  0
  184.1410  178.2760  140.4980 C   0  0  1  0  0  3  0  0  0  0  0  0
  183.1640  179.0290  139.7590 C   0  0  0  0  0  2  0  0  0  0  0  0
  180.7520  178.5200  138.2050 C   0  0  0  0  0  2  0  0  0  0  0  0
  181.8630  179.4920  137.9360 C   0  0  0  0  0  2  0  0  0  0  0  0
  181.8890  177.5510  138.5500 C   0  0  2  0  0  3  0  0  0  0  0  0
  182.9670  178.5710  138.3580 N   0  0  0  0  0  0  0  0  0  0  0  0
  181.8730  176.4270  137.5960 O   0  0  0  0  0  0  0  0  0  0  0  0
  183.4580  173.1280  137.0740 C   0  0  0  0  0  3  0  0  0  0  0  0
  182.8050  175.4600  137.2740 C   0  0  0  0  0  0  0  0  0  0  0  0
  184.1750  175.8110  137.0830 C   0  0  0  0  0  3  0  0  0  0  0  0
  185.1250  174.8180  136.8320 C   0  0  0  0  0  0  0  0  0  0  0  0
  184.7710  173.4610  136.8290 C   0  0  0  0  0  3  0  0  0  0  0  0
  182.5350  174.0700  137.3030 C   0  0  0  0  0  3  0  0  0  0  0  0
  187.1960  175.5550  137.6110 O   0  0  0  0  0  1  0  0  0  0  0  0
  186.4720  175.2480  136.6360 C   0  0  0  0  0  0  0  0  0  0  0  0
  186.9330  175.3040  135.3400 O   0  0  0  0  0  0  0  0  0  0  0  0
  185.0940  178.6690  143.7950 C   0  0  1  0  0  3  0  0  0  0  0  0
  182.9660  178.9330  145.2530 C   0  0  0  0  0  1  0  0  0  0  0  0
  183.6770  179.1810  143.9810 C   0  0  0  0  0  2  0  0  0  0  0  0
  186.4930  178.3250  145.5260 C   0  0  0  0  0  1  0  0  0  0  0  0
  185.4160  177.7900  144.7900 O   0  0  0  0  0  0  0  0  0  0  0  0
  190.3480  177.9690  140.8540 N   0  0  0  0  0  2  0  0  0  0  0  0
  190.1940  176.9830  136.2290 C   0  0  0  0  0  3  0  0  0  0  0  0
  189.8960  176.9900  139.8420 C   0  0  2  0  0  3  0  0  0  0  0  0
  188.7080  178.1420  134.6520 F   0  0  0  0  0  0  0  0  0  0  0  0
  189.1940  177.9240  135.8970 C   0  0  0  0  0  0  0  0  0  0  0  0
  191.4180  175.8200  138.2770 C   0  0  2  0  0  3  0  0  0  0  0  0
  188.9840  178.5640  138.2090 C   0  0  0  0  0  3  0  0  0  0  0  0
  190.5520  176.8270  137.5790 C   0  0  0  0  0  0  0  0  0  0  0  0
  188.6420  178.7300  136.9010 C   0  0  0  0  0  3  0  0  0  0  0  0
  190.8560  175.8020  139.7060 C   0  0  0  0  0  2  0  0  0  0  0  0
  189.9060  177.6050  138.5050 C   0  0  0  0  0  0  0  0  0  0  0  0
  193.3780  177.0670  138.9580 O   0  0  0  0  0  0  0  0  0  0  0  0
  192.9150  176.2070  138.2040 C   0  0  0  0  0  0  0  0  0  0  0  0
  193.8860  175.5650  137.2480 C   0  0  0  0  0  2  0  0  0  0  0  0
  195.0900  173.5910  137.8840 N   0  0  0  0  0  0  0  0  0  0  0  0
  194.0200  174.0900  137.3230 C   0  0  0  0  0  0  0  0  0  0  0  0
  196.0490  174.9780  139.5800 O   0  0  0  0  0  0  0  0  0  0  0  0
  196.1690  174.2080  138.5160 C   0  0  0  0  0  0  0  0  0  0  0  0
  200.2310  173.6220  137.0400 C   0  0  0  0  0  1  0  0  0  0  0  0
  199.3980  174.9680  135.0770 C   0  0  0  0  0  1  0  0  0  0  0  0
  197.7540  174.2020  136.7040 C   0  0  0  0  0  3  0  0  0  0  0  0
  199.1320  174.2060  136.2710 N   0  0  0  0  0  0  0  0  0  0  0  0
  197.4530  173.9900  137.9060 N   0  0  0  0  0  0  0  0  0  0  0  0
  193.1180  173.2150  136.4810 C   0  0  0  0  0  2  0  0  0  0  0  0
  193.7320  172.4260  135.3890 N   0  0  0  0  0  0  0  0  0  0  0  0
  193.9390  171.0850  135.9320 C   0  0  0  0  0  1  0  0  0  0  0  0
  191.5360  171.5300  135.0690 C   0  0  0  0  0  1  0  0  0  0  0  0
  192.7460  172.1050  134.3570 C   0  0  0  0  0  2  0  0  0  0  0  0
  1  7  1  6  0  0  0
  1  2  1  0  0  0  0
  2  5  1  6  0  0  0
  2  3  1  0  0  0  0
  4  3  2  0  0  0  0
  5  6  1  0  0  0  0
  8  7  1  6  0  0  0
  8  9  1  0  0  0  0
  9 29  1  1  0  0  0
 10 13  1  6  0  0  0
 10  9  1  0  0  0  0
 11 10  1  0  0  0  0
 11  8  1  0  0  0  0
 13 12  1  1  0  0  0
 14 13  1  0  0  0  0
 15 17  1  0  0  0  0
 16 15  1  0  0  0  0
 16 18  1  0  0  0  0
 17 19  1  6  0  0  0
 18 17  1  0  0  0  0
 18 14  1  0  0  0  0
 20 25  1  0  0  0  0
 21 25  2  0  0  0  0
 21 19  1  0  0  0  0
 22 21  1  0  0  0  0
 23 22  2  0  0  0  0
 24 23  1  0  0  0  0
 24 20  2  0  0  0  0
 27 23  1  0  0  0  0
 27 26  1  0  0  0  0
 28 27  2  0  0  0  0
 29 31  1  6  0  0  0
 29 33  1  0  0  0  0
 31 30  1  0  0  0  0
 33 32  1  0  0  0  0
 34  1  1  0  0  0  0
 35 41  1  0  0  0  0
 36 34  1  1  0  0  0
 37 38  1  0  0  0  0
 38 35  2  0  0  0  0
 38 42  1  0  0  0  0
 39 46  1  1  0  0  0
 39 43  1  0  0  0  0
 40 44  1  0  0  0  0
 41 39  1  0  0  0  0
 41 44  2  0  0  0  0
 42 40  2  0  0  0  0
 43 36  1  0  0  0  0
 44 36  1  0  0  0  0
 46 45  2  0  0  0  0
 47 49  1  0  0  0  0
 47 46  1  0  0  0  0
 48 51  1  0  0  0  0
 49 48  2  0  0  0  0
 51 50  2  0  0  0  0
 53 55  1  0  0  0  0
 54 56  2  0  0  0  0
 55 54  1  0  0  0  0
 55 52  1  0  0  0  0
 56 51  1  0  0  0  0
 57 49  1  0  0  0  0
 58 59  1  0  0  0  0
 58 57  1  0  0  0  0
 61 60  1  0  0  0  0
 61 58  1  0  0  0  0
M  END
>  <MODEL>
4

>  <REMARK>
 VINA RESULT:      -6.0      1.572      2.112
  Name = 
  24 active torsions:
  status: ('A' for Active; 'I' for Inactive)
    1  A    between atoms: O_1  and  C_12
    2  A    between atoms: O_1  and  C_50
    3  A    between atoms: C_4  and  N_38
    4  A    between atoms: C_5  and  C_7
    5  A    between atoms: C_5  and  C_58
    6  A    between atoms: C_9  and  C_13
    7  A    between atoms: N_11  and  C_59
    8  A    between atoms: C_13  and  C_48
    9  A    between atoms: C_13  and  C_58
   10  A    between atoms: C_18  and  C_61
   11  A    between atoms: C_23  and  C_27
   12  A    between atoms: C_23  and  C_30
   13  A    between atoms: C_26  and  C_35
   14  A    between atoms: C_26  and  C_47
   15  A    between atoms: C_28  and  C_60
   16  A    between atoms: C_30  and  N_55
   17  A    between atoms: N_33  and  C_37
   18  A    between atoms: N_33  and  C_47
   19  A    between atoms: C_35  and  C_60
   20  A    between atoms: N_38  and  C_58
   21  A    between atoms: O_40  and  C_61
   22  A    between atoms: C_43  and  C_51
   23  A    between atoms: N_45  and  C_59
   24  A    between atoms: C_46  and  C_61
                            x       y       z     vdW  Elec       q    Type
                         _______ _______ _______ _____ _____    ______ ____

>  <TORSDO>
F 24

$$$$
=
 OpenBabel10232410203D

 61 65  0  0  1  0  0  0  0  0999 V2000
  186.1860  178.8020  143.8240 C   0  0  2  0  0  3  0  0  0  0  0  0
  185.3450  178.2920  145.0800 C   0  0  2  0  0  3  0  0  0  0  0  0
  183.8850  178.4770  144.8660 C   0  0  0  0  0  3  0  0  0  0  0  0
  183.2520  179.2970  145.5800 O   0  0  0  0  0  0  0  0  0  0  0  0
  185.8170  178.6110  146.4650 C   0  0  0  0  0  2  0  0  0  0  0  0
  186.3920  177.5150  147.0810 F   0  0  0  0  0  0  0  0  0  0  0  0
  185.5410  179.5090  142.6420 C   0  0  0  0  0  2  0  0  0  0  0  0
  184.9650  178.5010  141.5740 C   0  0  2  0  0  3  0  0  0  0  0  0
  185.0940  178.8200  140.1360 C   0  0  2  0  0  3  0  0  0  0  0  0
  183.6580  178.4290  140.1240 C   0  0  1  0  0  3  0  0  0  0  0  0
  183.5990  178.4490  141.5050 O   0  0  0  0  0  0  0  0  0  0  0  0
  183.9920  180.2860  138.7670 O   0  0  0  0  0  1  0  0  0  0  0  0
  182.9950  179.7310  139.5070 C   0  0  1  0  0  3  0  0  0  0  0  0
  181.8210  179.4360  138.7310 C   0  0  0  0  0  2  0  0  0  0  0  0
  180.0530  178.4750  136.6230 C   0  0  0  0  0  2  0  0  0  0  0  0
  181.3020  179.2980  136.5080 C   0  0  0  0  0  2  0  0  0  0  0  0
  180.8670  177.6590  137.6340 C   0  0  2  0  0  3  0  0  0  0  0  0
  182.0650  178.5520  137.5600 N   0  0  0  0  0  0  0  0  0  0  0  0
  181.0400  176.2870  137.1220 O   0  0  0  0  0  0  0  0  0  0  0  0
  183.4840  175.1320  134.6000 C   0  0  0  0  0  3  0  0  0  0  0  0
  182.1080  175.6340  136.5380 C   0  0  0  0  0  0  0  0  0  0  0  0
  182.7590  174.5610  137.2200 C   0  0  0  0  0  3  0  0  0  0  0  0
  183.7880  173.8540  136.5930 C   0  0  0  0  0  0  0  0  0  0  0  0
  184.1580  174.1350  135.2700 C   0  0  0  0  0  3  0  0  0  0  0  0
  182.5040  175.8250  135.1920 C   0  0  0  0  0  3  0  0  0  0  0  0
  185.4040  173.0300  138.0580 O   0  0  0  0  0  1  0  0  0  0  0  0
  184.4010  172.8060  137.3430 C   0  0  0  0  0  0  0  0  0  0  0  0
  183.8390  171.5520  137.2480 O   0  0  0  0  0  0  0  0  0  0  0  0
  185.9300  177.9510  139.1190 C   0  0  1  0  0  3  0  0  0  0  0  0
  185.7020  177.1700  136.6570 C   0  0  0  0  0  1  0  0  0  0  0  0
  185.8920  178.2640  137.6340 C   0  0  0  0  0  2  0  0  0  0  0  0
  187.9710  178.8660  139.3820 C   0  0  0  0  0  1  0  0  0  0  0  0
  187.2100  177.6870  139.5170 O   0  0  0  0  0  0  0  0  0  0  0  0
  187.2200  177.8370  143.3990 N   0  0  0  0  0  2  0  0  0  0  0  0
  191.7200  176.9710  144.5730 C   0  0  0  0  0  3  0  0  0  0  0  0
  188.5190  178.4540  143.7390 C   0  0  2  0  0  3  0  0  0  0  0  0
  192.4020  176.1500  146.7870 F   0  0  0  0  0  0  0  0  0  0  0  0
  191.4640  176.5620  145.9010 C   0  0  0  0  0  0  0  0  0  0  0  0
  190.6000  178.0940  142.4450 C   0  0  2  0  0  3  0  0  0  0  0  0
  189.1150  177.0110  145.6200 C   0  0  0  0  0  3  0  0  0  0  0  0
  190.6480  177.4320  143.7910 C   0  0  0  0  0  0  0  0  0  0  0  0
  190.1480  176.5500  146.3800 C   0  0  0  0  0  3  0  0  0  0  0  0
  189.2980  178.9050  142.4970 C   0  0  0  0  0  2  0  0  0  0  0  0
  189.4030  177.4580  144.3660 C   0  0  0  0  0  0  0  0  0  0  0  0
  190.3600  175.8730  141.5110 O   0  0  0  0  0  0  0  0  0  0  0  0
  190.6390  177.0560  141.2980 C   0  0  0  0  0  0  0  0  0  0  0  0
  190.9920  177.4110  139.8770 C   0  0  0  0  0  2  0  0  0  0  0  0
  192.2130  175.8920  138.4780 N   0  0  0  0  0  0  0  0  0  0  0  0
  191.0430  176.2930  138.9030 C   0  0  0  0  0  0  0  0  0  0  0  0
  193.7620  177.3350  139.5910 O   0  0  0  0  0  0  0  0  0  0  0  0
  193.5020  176.2940  138.8250 C   0  0  0  0  0  0  0  0  0  0  0  0
  196.9490  174.2920  137.0550 C   0  0  0  0  0  1  0  0  0  0  0  0
  195.1860  173.0430  135.7540 C   0  0  0  0  0  1  0  0  0  0  0  0
  194.4460  174.4470  137.6030 C   0  0  0  0  0  3  0  0  0  0  0  0
  195.5530  173.9030  136.8500 N   0  0  0  0  0  0  0  0  0  0  0  0
  194.5680  175.5160  138.2530 N   0  0  0  0  0  0  0  0  0  0  0  0
  189.7810  175.8730  138.1820 C   0  0  0  0  0  2  0  0  0  0  0  0
  189.9190  175.0800  136.9380 N   0  0  0  0  0  0  0  0  0  0  0  0
  188.6710  174.3320  136.8020 C   0  0  0  0  0  1  0  0  0  0  0  0
  189.2940  177.2820  136.2390 C   0  0  0  0  0  1  0  0  0  0  0  0
  189.8030  175.9350  135.7580 C   0  0  0  0  0  2  0  0  0  0  0  0
  1  7  1  6  0  0  0
  1  2  1  0  0  0  0
  2  3  1  6  0  0  0
  2  5  1  0  0  0  0
  3  4  2  0  0  0  0
  5  6  1  0  0  0  0
  8  7  1  1  0  0  0
  9 29  1  6  0  0  0
  9  8  1  0  0  0  0
 10 13  1  6  0  0  0
 10  9  1  0  0  0  0
 10 11  1  0  0  0  0
 11  8  1  0  0  0  0
 13 12  1  6  0  0  0
 14 13  1  0  0  0  0
 15 17  1  0  0  0  0
 16 15  1  0  0  0  0
 16 18  1  0  0  0  0
 17 19  1  6  0  0  0
 18 17  1  0  0  0  0
 18 14  1  0  0  0  0
 20 25  2  0  0  0  0
 20 24  1  0  0  0  0
 21 19  1  0  0  0  0
 21 22  2  0  0  0  0
 23 22  1  0  0  0  0
 23 27  1  0  0  0  0
 24 23  2  0  0  0  0
 25 21  1  0  0  0  0
 27 26  1  0  0  0  0
 28 27  2  0  0  0  0
 29 31  1  6  0  0  0
 29 33  1  0  0  0  0
 30 31  1  0  0  0  0
 32 33  1  0  0  0  0
 34  1  1  0  0  0  0
 35 38  1  0  0  0  0
 36 34  1  6  0  0  0
 36 44  1  0  0  0  0
 38 42  2  0  0  0  0
 38 37  1  0  0  0  0
 39 46  1  6  0  0  0
 39 43  1  0  0  0  0
 39 41  1  0  0  0  0
 40 42  1  0  0  0  0
 41 44  1  0  0  0  0
 41 35  2  0  0  0  0
 43 36  1  0  0  0  0
 44 40  2  0  0  0  0
 46 45  2  0  0  0  0
 47 46  1  0  0  0  0
 48 51  1  0  0  0  0
 48 49  2  0  0  0  0
 49 47  1  0  0  0  0
 51 50  2  0  0  0  0
 53 55  1  0  0  0  0
 54 56  2  0  0  0  0
 55 52  1  0  0  0  0
 55 54  1  0  0  0  0
 56 51  1  0  0  0  0
 57 49  1  0  0  0  0
 58 57  1  0  0  0  0
 59 58  1  0  0  0  0
 61 60  1  0  0  0  0
 61 58  1  0  0  0  0
M  END
>  <MODEL>
5

>  <REMARK>
 VINA RESULT:      -5.7      2.596      5.405
  Name = 
  24 active torsions:
  status: ('A' for Active; 'I' for Inactive)
    1  A    between atoms: O_1  and  C_12
    2  A    between atoms: O_1  and  C_50
    3  A    between atoms: C_4  and  N_38
    4  A    between atoms: C_5  and  C_7
    5  A    between atoms: C_5  and  C_58
    6  A    between atoms: C_9  and  C_13
    7  A    between atoms: N_11  and  C_59
    8  A    between atoms: C_13  and  C_48
    9  A    between atoms: C_13  and  C_58
   10  A    between atoms: C_18  and  C_61
   11  A    between atoms: C_23  and  C_27
   12  A    between atoms: C_23  and  C_30
   13  A    between atoms: C_26  and  C_35
   14  A    between atoms: C_26  and  C_47
   15  A    between atoms: C_28  and  C_60
   16  A    between atoms: C_30  and  N_55
   17  A    between atoms: N_33  and  C_37
   18  A    between atoms: N_33  and  C_47
   19  A    between atoms: C_35  and  C_60
   20  A    between atoms: N_38  and  C_58
   21  A    between atoms: O_40  and  C_61
   22  A    between atoms: C_43  and  C_51
   23  A    between atoms: N_45  and  C_59
   24  A    between atoms: C_46  and  C_61
                            x       y       z     vdW  Elec       q    Type
                         _______ _______ _______ _____ _____    ______ ____

>  <TORSDO>
F 24

$$$$
=
 OpenBabel10232410203D

 61 65  0  0  1  0  0  0  0  0999 V2000
  187.9080  176.6460  136.8830 C   0  0  2  0  0  3  0  0  0  0  0  0
  188.6000  176.0870  135.5590 C   0  0  2  0  0  3  0  0  0  0  0  0
  189.2910  174.7930  135.8130 C   0  0  0  0  0  3  0  0  0  0  0  0
  190.2450  174.4430  135.0710 O   0  0  0  0  0  0  0  0  0  0  0  0
  189.3460  177.0250  134.6600 C   0  0  0  0  0  2  0  0  0  0  0  0
  188.9350  178.3350  134.8250 F   0  0  0  0  0  0  0  0  0  0  0  0
  188.6610  177.4810  137.9070 C   0  0  0  0  0  2  0  0  0  0  0  0
  189.5310  176.5990  138.8840 C   0  0  2  0  0  3  0  0  0  0  0  0
  190.6390  177.2300  139.6350 C   0  0  2  0  0  3  0  0  0  0  0  0
  191.3820  176.0330  139.1550 C   0  0  1  0  0  3  0  0  0  0  0  0
  190.3710  175.7110  138.2680 O   0  0  0  0  0  0  0  0  0  0  0  0
  193.5800  176.7640  139.3490 O   0  0  0  0  0  1  0  0  0  0  0  0
  192.6010  176.7140  138.4050 C   0  0  1  0  0  3  0  0  0  0  0  0
  192.9970  175.9900  137.2270 C   0  0  0  0  0  2  0  0  0  0  0  0
  194.6250  174.7200  135.1700 C   0  0  0  0  0  2  0  0  0  0  0  0
  194.8010  176.0590  135.8240 C   0  0  0  0  0  2  0  0  0  0  0  0
  194.3340  174.2340  136.5950 C   0  0  2  0  0  3  0  0  0  0  0  0
  194.4320  175.5980  137.2010 N   0  0  0  0  0  0  0  0  0  0  0  0
  195.3690  173.2640  136.9960 O   0  0  0  0  0  0  0  0  0  0  0  0
  196.5320  169.7970  137.5370 C   0  0  0  0  0  3  0  0  0  0  0  0
  195.3850  171.8840  137.0600 C   0  0  0  0  0  0  0  0  0  0  0  0
  194.3530  171.1200  136.4360 C   0  0  0  0  0  3  0  0  0  0  0  0
  194.4150  169.7240  136.4380 C   0  0  0  0  0  0  0  0  0  0  0  0
  195.5140  169.0490  136.9900 C   0  0  0  0  0  3  0  0  0  0  0  0
  196.4810  171.1340  137.5520 C   0  0  0  0  0  3  0  0  0  0  0  0
  192.9600  167.9140  136.2330 O   0  0  0  0  0  1  0  0  0  0  0  0
  193.3390  169.0290  135.8080 C   0  0  0  0  0  0  0  0  0  0  0  0
  192.7420  169.6400  134.7280 O   0  0  0  0  0  0  0  0  0  0  0  0
  190.6800  177.3350  141.2070 C   0  0  1  0  0  3  0  0  0  0  0  0
  188.8070  176.3330  142.6940 C   0  0  0  0  0  1  0  0  0  0  0  0
  190.1380  176.2050  142.0640 C   0  0  0  0  0  2  0  0  0  0  0  0
  191.6470  178.2170  143.0400 C   0  0  0  0  0  1  0  0  0  0  0  0
  191.8640  177.7910  141.7150 O   0  0  0  0  0  0  0  0  0  0  0  0
  187.0110  175.6610  137.5180 N   0  0  0  0  0  2  0  0  0  0  0  0
  182.7240  173.7390  136.9560 C   0  0  0  0  0  3  0  0  0  0  0  0
  185.8940  175.4560  136.5710 C   0  0  2  0  0  3  0  0  0  0  0  0
  182.3500  171.3220  136.7230 F   0  0  0  0  0  0  0  0  0  0  0  0
  183.1590  172.3980  136.8740 C   0  0  0  0  0  0  0  0  0  0  0  0
  183.5820  176.2510  136.9700 C   0  0  2  0  0  3  0  0  0  0  0  0
  185.4560  173.0980  137.0440 C   0  0  0  0  0  3  0  0  0  0  0  0
  183.6890  174.7570  137.0490 C   0  0  0  0  0  0  0  0  0  0  0  0
  184.5260  172.1060  136.9670 C   0  0  0  0  0  3  0  0  0  0  0  0
  184.9720  176.6780  136.4780 C   0  0  0  0  0  2  0  0  0  0  0  0
  185.0100  174.3850  137.0580 C   0  0  0  0  0  0  0  0  0  0  0  0
  182.8520  176.1450  139.2760 O   0  0  0  0  0  0  0  0  0  0  0  0
  183.1910  176.8680  138.3350 C   0  0  0  0  0  0  0  0  0  0  0  0
  183.2130  178.3490  138.6060 C   0  0  0  0  0  2  0  0  0  0  0  0
  183.3890  179.0080  140.9050 N   0  0  0  0  0  0  0  0  0  0  0  0
  182.6040  178.8030  139.8800 C   0  0  0  0  0  0  0  0  0  0  0  0
  185.6070  179.0640  140.0150 O   0  0  0  0  0  0  0  0  0  0  0  0
  184.7750  178.9350  141.0300 C   0  0  0  0  0  0  0  0  0  0  0  0
  186.3890  177.7380  144.9000 C   0  0  0  0  0  1  0  0  0  0  0  0
  184.2560  178.7570  145.7760 C   0  0  0  0  0  1  0  0  0  0  0  0
  184.8030  179.1190  143.4300 C   0  0  0  0  0  3  0  0  0  0  0  0
  185.2000  178.5670  144.7040 N   0  0  0  0  0  0  0  0  0  0  0  0
  185.2660  178.6620  142.3540 N   0  0  0  0  0  0  0  0  0  0  0  0
  181.1060  178.7010  140.0700 C   0  0  0  0  0  2  0  0  0  0  0  0
  180.2430  179.6550  139.3360 N   0  0  0  0  0  0  0  0  0  0  0  0
  179.9820  180.7520  140.2660 C   0  0  0  0  0  1  0  0  0  0  0  0
  180.3950  180.0550  136.9820 C   0  0  0  0  0  1  0  0  0  0  0  0
  181.0110  180.3860  138.3290 C   0  0  0  0  0  2  0  0  0  0  0  0
  1 34  1  0  0  0  0
  1  7  1  1  0  0  0
  2  5  1  1  0  0  0
  2  3  1  0  0  0  0
  2  1  1  0  0  0  0
  4  3  2  0  0  0  0
  5  6  1  0  0  0  0
  8  7  1  6  0  0  0
  8  9  1  0  0  0  0
  9 29  1  1  0  0  0
 10 13  1  6  0  0  0
 10  9  1  0  0  0  0
 11  8  1  0  0  0  0
 11 10  1  0  0  0  0
 13 12  1  1  0  0  0
 14 13  1  0  0  0  0
 15 16  1  0  0  0  0
 15 17  1  0  0  0  0
 16 18  1  0  0  0  0
 17 19  1  1  0  0  0
 17 18  1  0  0  0  0
 18 14  1  0  0  0  0
 19 21  1  0  0  0  0
 20 25  1  0  0  0  0
 21 25  2  0  0  0  0
 22 23  2  0  0  0  0
 22 21  1  0  0  0  0
 23 24  1  0  0  0  0
 24 20  2  0  0  0  0
 27 26  1  0  0  0  0
 27 23  1  0  0  0  0
 28 27  2  0  0  0  0
 29 33  1  0  0  0  0
 29 31  1  1  0  0  0
 31 30  1  0  0  0  0
 33 32  1  0  0  0  0
 35 41  1  0  0  0  0
 36 44  1  0  0  0  0
 36 34  1  1  0  0  0
 37 38  1  0  0  0  0
 38 35  2  0  0  0  0
 38 42  1  0  0  0  0
 39 41  1  0  0  0  0
 39 46  1  1  0  0  0
 40 44  1  0  0  0  0
 41 44  2  0  0  0  0
 42 40  2  0  0  0  0
 43 36  1  0  0  0  0
 43 39  1  0  0  0  0
 46 47  1  0  0  0  0
 46 45  2  0  0  0  0
 47 49  1  0  0  0  0
 48 51  1  0  0  0  0
 49 57  1  0  0  0  0
 49 48  2  0  0  0  0
 50 51  2  0  0  0  0
 51 56  1  0  0  0  0
 54 55  1  0  0  0  0
 55 52  1  0  0  0  0
 55 53  1  0  0  0  0
 56 54  2  0  0  0  0
 58 57  1  0  0  0  0
 58 59  1  0  0  0  0
 60 61  1  0  0  0  0
 61 58  1  0  0  0  0
M  END
>  <MODEL>
6

>  <REMARK>
 VINA RESULT:      -5.3      2.871     10.607
  Name = 
  24 active torsions:
  status: ('A' for Active; 'I' for Inactive)
    1  A    between atoms: O_1  and  C_12
    2  A    between atoms: O_1  and  C_50
    3  A    between atoms: C_4  and  N_38
    4  A    between atoms: C_5  and  C_7
    5  A    between atoms: C_5  and  C_58
    6  A    between atoms: C_9  and  C_13
    7  A    between atoms: N_11  and  C_59
    8  A    between atoms: C_13  and  C_48
    9  A    between atoms: C_13  and  C_58
   10  A    between atoms: C_18  and  C_61
   11  A    between atoms: C_23  and  C_27
   12  A    between atoms: C_23  and  C_30
   13  A    between atoms: C_26  and  C_35
   14  A    between atoms: C_26  and  C_47
   15  A    between atoms: C_28  and  C_60
   16  A    between atoms: C_30  and  N_55
   17  A    between atoms: N_33  and  C_37
   18  A    between atoms: N_33  and  C_47
   19  A    between atoms: C_35  and  C_60
   20  A    between atoms: N_38  and  C_58
   21  A    between atoms: O_40  and  C_61
   22  A    between atoms: C_43  and  C_51
   23  A    between atoms: N_45  and  C_59
   24  A    between atoms: C_46  and  C_61
                            x       y       z     vdW  Elec       q    Type
                         _______ _______ _______ _____ _____    ______ ____

>  <TORSDO>
F 24

$$$$
=
 OpenBabel10232410203D

 61 65  0  0  1  0  0  0  0  0999 V2000
  189.1370  178.2880  141.3780 C   0  0  2  0  0  3  0  0  0  0  0  0
  189.9740  177.7620  142.6300 C   0  0  2  0  0  3  0  0  0  0  0  0
  190.8540  178.8280  143.1800 C   0  0  0  0  0  3  0  0  0  0  0  0
  190.9000  179.0140  144.4240 O   0  0  0  0  0  0  0  0  0  0  0  0
  190.5980  176.4010  142.5840 C   0  0  0  0  0  2  0  0  0  0  0  0
  189.6510  175.3960  142.6500 F   0  0  0  0  0  0  0  0  0  0  0  0
  187.6440  178.0420  141.2330 C   0  0  0  0  0  2  0  0  0  0  0  0
  186.7920  178.8400  142.2950 C   0  0  2  0  0  3  0  0  0  0  0  0
  185.9070  178.0970  143.2180 C   0  0  2  0  0  3  0  0  0  0  0  0
  184.9320  179.1460  142.8100 C   0  0  1  0  0  3  0  0  0  0  0  0
  185.7510  179.5620  141.7770 O   0  0  0  0  0  0  0  0  0  0  0  0
  182.8250  178.2820  143.2740 O   0  0  0  0  0  1  0  0  0  0  0  0
  183.7390  178.2550  142.2660 C   0  0  1  0  0  3  0  0  0  0  0  0
  183.2120  178.7420  141.0210 C   0  0  0  0  0  2  0  0  0  0  0  0
  183.3290  179.1710  138.1400 C   0  0  0  0  0  2  0  0  0  0  0  0
  184.3450  178.5390  139.0450 C   0  0  0  0  0  2  0  0  0  0  0  0
  182.3220  178.3380  138.9430 C   0  0  2  0  0  3  0  0  0  0  0  0
  183.3510  177.7940  139.8830 N   0  0  0  0  0  0  0  0  0  0  0  0
  181.6750  177.3640  138.0450 O   0  0  0  0  0  0  0  0  0  0  0  0
  183.5370  174.8250  136.1070 C   0  0  0  0  0  3  0  0  0  0  0  0
  182.0820  176.1460  137.5350 C   0  0  0  0  0  0  0  0  0  0  0  0
  181.2680  174.9850  137.7010 C   0  0  0  0  0  3  0  0  0  0  0  0
  181.6480  173.7740  137.1180 C   0  0  0  0  0  0  0  0  0  0  0  0
  182.7910  173.6860  136.3100 C   0  0  0  0  0  3  0  0  0  0  0  0
  183.1910  175.9900  136.6690 C   0  0  0  0  0  3  0  0  0  0  0  0
  180.0010  172.6340  138.3110 O   0  0  0  0  0  1  0  0  0  0  0  0
  180.7920  172.6530  137.3410 C   0  0  0  0  0  0  0  0  0  0  0  0
  180.8730  171.6100  136.4460 O   0  0  0  0  0  0  0  0  0  0  0  0
  186.0980  178.0740  144.7820 C   0  0  1  0  0  3  0  0  0  0  0  0
  188.3340  177.0720  145.6300 C   0  0  0  0  0  1  0  0  0  0  0  0
  187.4780  178.2530  145.3880 C   0  0  0  0  0  2  0  0  0  0  0  0
  185.3900  178.5970  146.8560 C   0  0  0  0  0  1  0  0  0  0  0  0
  185.1760  178.8040  145.4780 O   0  0  0  0  0  0  0  0  0  0  0  0
  189.8570  178.1210  140.1000 N   0  0  0  0  0  2  0  0  0  0  0  0
  188.6280  176.7410  135.7450 C   0  0  0  0  0  3  0  0  0  0  0  0
  189.0800  177.1340  139.3200 C   0  0  2  0  0  3  0  0  0  0  0  0
  187.0180  177.9640  134.3460 F   0  0  0  0  0  0  0  0  0  0  0  0
  187.7160  177.7910  135.4950 C   0  0  0  0  0  0  0  0  0  0  0  0
  190.0780  175.5990  137.6520 C   0  0  2  0  0  3  0  0  0  0  0  0
  188.0730  178.6710  137.7080 C   0  0  0  0  0  3  0  0  0  0  0  0
  189.2310  176.6590  137.0110 C   0  0  0  0  0  0  0  0  0  0  0  0
  187.4950  178.7640  136.4780 C   0  0  0  0  0  3  0  0  0  0  0  0
  189.8230  175.8030  139.1520 C   0  0  0  0  0  2  0  0  0  0  0  0
  188.8980  177.6120  137.9400 C   0  0  0  0  0  0  0  0  0  0  0  0
  192.0710  176.8530  137.0920 O   0  0  0  0  0  0  0  0  0  0  0  0
  191.5660  175.7390  137.2500 C   0  0  0  0  0  0  0  0  0  0  0  0
  192.4790  174.5580  137.0480 C   0  0  0  0  0  2  0  0  0  0  0  0
  192.6750  173.6950  134.8190 N   0  0  0  0  0  0  0  0  0  0  0  0
  193.1780  174.4720  135.7430 C   0  0  0  0  0  0  0  0  0  0  0  0
  190.2970  173.4470  134.8070 O   0  0  0  0  0  0  0  0  0  0  0  0
  191.5100  172.9300  134.7970 C   0  0  0  0  0  0  0  0  0  0  0  0
  191.7540  168.5840  135.0560 C   0  0  0  0  0  1  0  0  0  0  0  0
  194.2140  169.0340  135.3750 C   0  0  0  0  0  1  0  0  0  0  0  0
  192.8000  170.9000  134.7020 C   0  0  0  0  0  3  0  0  0  0  0  0
  192.9020  169.4890  134.9930 N   0  0  0  0  0  0  0  0  0  0  0  0
  191.7030  171.5050  134.8030 N   0  0  0  0  0  0  0  0  0  0  0  0
  194.5920  174.9950  135.6170 C   0  0  0  0  0  2  0  0  0  0  0  0
  195.6920  174.1760  136.1780 N   0  0  0  0  0  0  0  0  0  0  0  0
  195.6400  174.3750  137.6250 C   0  0  0  0  0  1  0  0  0  0  0  0
  196.6300  171.9940  136.4680 C   0  0  0  0  0  1  0  0  0  0  0  0
  195.3600  172.7530  136.1300 C   0  0  0  0  0  2  0  0  0  0  0  0
  1  7  1  6  0  0  0
  1  2  1  0  0  0  0
  2  5  1  6  0  0  0
  2  3  1  0  0  0  0
  3  4  2  0  0  0  0
  5  6  1  0  0  0  0
  8  7  1  6  0  0  0
  8  9  1  0  0  0  0
  9 29  1  1  0  0  0
 10 13  1  6  0  0  0
 10  9  1  0  0  0  0
 11  8  1  0  0  0  0
 11 10  1  0  0  0  0
 13 12  1  1  0  0  0
 14 13  1  0  0  0  0
 15 17  1  0  0  0  0
 15 16  1  0  0  0  0
 16 18  1  0  0  0  0
 17 19  1  6  0  0  0
 17 18  1  0  0  0  0
 18 14  1  0  0  0  0
 20 24  2  0  0  0  0
 20 25  1  0  0  0  0
 21 22  1  0  0  0  0
 21 19  1  0  0  0  0
 23 27  1  0  0  0  0
 23 22  2  0  0  0  0
 24 23  1  0  0  0  0
 25 21  2  0  0  0  0
 27 26  1  0  0  0  0
 28 27  2  0  0  0  0
 29 31  1  6  0  0  0
 29 33  1  0  0  0  0
 31 30  1  0  0  0  0
 33 32  1  0  0  0  0
 34  1  1  0  0  0  0
 35 41  1  0  0  0  0
 36 34  1  1  0  0  0
 37 38  1  0  0  0  0
 38 35  2  0  0  0  0
 38 42  1  0  0  0  0
 39 46  1  1  0  0  0
 39 43  1  0  0  0  0
 40 44  1  0  0  0  0
 41 39  1  0  0  0  0
 41 44  2  0  0  0  0
 42 40  2  0  0  0  0
 43 36  1  0  0  0  0
 44 36  1  0  0  0  0
 45 46  2  0  0  0  0
 47 46  1  0  0  0  0
 48 49  2  0  0  0  0
 49 47  1  0  0  0  0
 51 56  1  0  0  0  0
 51 50  2  0  0  0  0
 51 48  1  0  0  0  0
 54 56  2  0  0  0  0
 54 55  1  0  0  0  0
 55 52  1  0  0  0  0
 55 53  1  0  0  0  0
 57 49  1  0  0  0  0
 57 58  1  0  0  0  0
 58 59  1  0  0  0  0
 61 58  1  0  0  0  0
 61 60  1  0  0  0  0
M  END
>  <MODEL>
7

>  <REMARK>
 VINA RESULT:      -5.2      2.068      3.477
  Name = 
  24 active torsions:
  status: ('A' for Active; 'I' for Inactive)
    1  A    between atoms: O_1  and  C_12
    2  A    between atoms: O_1  and  C_50
    3  A    between atoms: C_4  and  N_38
    4  A    between atoms: C_5  and  C_7
    5  A    between atoms: C_5  and  C_58
    6  A    between atoms: C_9  and  C_13
    7  A    between atoms: N_11  and  C_59
    8  A    between atoms: C_13  and  C_48
    9  A    between atoms: C_13  and  C_58
   10  A    between atoms: C_18  and  C_61
   11  A    between atoms: C_23  and  C_27
   12  A    between atoms: C_23  and  C_30
   13  A    between atoms: C_26  and  C_35
   14  A    between atoms: C_26  and  C_47
   15  A    between atoms: C_28  and  C_60
   16  A    between atoms: C_30  and  N_55
   17  A    between atoms: N_33  and  C_37
   18  A    between atoms: N_33  and  C_47
   19  A    between atoms: C_35  and  C_60
   20  A    between atoms: N_38  and  C_58
   21  A    between atoms: O_40  and  C_61
   22  A    between atoms: C_43  and  C_51
   23  A    between atoms: N_45  and  C_59
   24  A    between atoms: C_46  and  C_61
                            x       y       z     vdW  Elec       q    Type
                         _______ _______ _______ _____ _____    ______ ____

>  <TORSDO>
F 24

$$$$
=
 OpenBabel10232410203D

 61 65  0  0  1  0  0  0  0  0999 V2000
  188.1290  176.8160  137.0520 C   0  0  2  0  0  3  0  0  0  0  0  0
  188.8460  176.1220  135.8070 C   0  0  2  0  0  3  0  0  0  0  0  0
  188.6240  176.8940  134.5550 C   0  0  0  0  0  3  0  0  0  0  0  0
  187.6820  177.7260  134.4980 O   0  0  0  0  0  0  0  0  0  0  0  0
  188.7690  174.6350  135.6440 C   0  0  0  0  0  2  0  0  0  0  0  0
  189.4200  173.9680  136.6660 F   0  0  0  0  0  0  0  0  0  0  0  0
  188.8760  177.7070  138.0310 C   0  0  0  0  0  2  0  0  0  0  0  0
  189.6650  176.8820  139.1210 C   0  0  2  0  0  3  0  0  0  0  0  0
  190.8180  177.5060  139.8050 C   0  0  2  0  0  3  0  0  0  0  0  0
  191.4590  176.2010  139.4860 C   0  0  1  0  0  3  0  0  0  0  0  0
  190.4290  175.8590  138.6290 O   0  0  0  0  0  0  0  0  0  0  0  0
  193.5130  177.2820  139.6170 O   0  0  0  0  0  1  0  0  0  0  0  0
  192.7350  176.6810  138.6760 C   0  0  1  0  0  3  0  0  0  0  0  0
  193.4040  175.5980  138.0080 C   0  0  0  0  0  2  0  0  0  0  0  0
  192.8380  174.4240  135.4010 C   0  0  0  0  0  2  0  0  0  0  0  0
  192.6160  175.8310  135.8730 C   0  0  0  0  0  2  0  0  0  0  0  0
  194.1870  174.5590  136.1160 C   0  0  2  0  0  3  0  0  0  0  0  0
  193.8980  175.9280  136.6440 N   0  0  0  0  0  0  0  0  0  0  0  0
  195.2730  174.4560  135.1240 O   0  0  0  0  0  0  0  0  0  0  0  0
  198.9050  175.0990  134.8700 C   0  0  0  0  0  3  0  0  0  0  0  0
  196.6410  174.3020  135.2450 C   0  0  0  0  0  0  0  0  0  0  0  0
  197.1960  173.0420  135.6190 C   0  0  0  0  0  3  0  0  0  0  0  0
  198.5820  172.8720  135.6660 C   0  0  0  0  0  0  0  0  0  0  0  0
  199.4510  173.9060  135.2860 C   0  0  0  0  0  3  0  0  0  0  0  0
  197.5790  175.2790  134.8320 C   0  0  0  0  0  3  0  0  0  0  0  0
  199.6090  170.8240  135.2370 O   0  0  0  0  0  0  0  0  0  0  0  0
  199.0620  171.5880  136.0640 C   0  0  0  0  0  0  0  0  0  0  0  0
  198.9020  171.2380  137.3860 O   0  0  0  0  0  1  0  0  0  0  0  0
  190.8620  177.7990  141.3530 C   0  0  1  0  0  3  0  0  0  0  0  0
  188.3100  178.2550  141.4230 C   0  0  0  0  0  1  0  0  0  0  0  0
  189.5720  177.9680  142.1370 C   0  0  0  0  0  2  0  0  0  0  0  0
  191.3810  177.0540  143.4150 C   0  0  0  0  0  1  0  0  0  0  0  0
  191.7440  177.0250  142.0530 O   0  0  0  0  0  0  0  0  0  0  0  0
  187.1730  175.9200  137.7320 N   0  0  0  0  0  2  0  0  0  0  0  0
  183.0350  173.7320  137.0430 C   0  0  0  0  0  3  0  0  0  0  0  0
  186.0560  175.7190  136.7840 C   0  0  2  0  0  3  0  0  0  0  0  0
  182.8420  171.3250  136.5850 F   0  0  0  0  0  0  0  0  0  0  0  0
  183.5690  172.4420  136.8280 C   0  0  0  0  0  0  0  0  0  0  0  0
  183.6990  176.2900  137.2860 C   0  0  2  0  0  3  0  0  0  0  0  0
  185.8090  173.3000  137.0360 C   0  0  0  0  0  3  0  0  0  0  0  0
  183.9210  174.8080  137.2210 C   0  0  0  0  0  0  0  0  0  0  0  0
  184.9560  172.2500  136.8760 C   0  0  0  0  0  3  0  0  0  0  0  0
  185.0430  176.8690  136.8190 C   0  0  0  0  0  2  0  0  0  0  0  0
  185.2660  174.5410  137.1780 C   0  0  0  0  0  0  0  0  0  0  0  0
  183.0110  175.9120  139.5760 O   0  0  0  0  0  0  0  0  0  0  0  0
  183.2890  176.7440  138.7070 C   0  0  0  0  0  0  0  0  0  0  0  0
  183.2190  178.1900  139.1230 C   0  0  0  0  0  2  0  0  0  0  0  0
  182.9410  178.7560  141.4370 N   0  0  0  0  0  0  0  0  0  0  0  0
  182.3620  178.5080  140.2910 C   0  0  0  0  0  0  0  0  0  0  0  0
  185.2510  179.1040  140.9230 O   0  0  0  0  0  0  0  0  0  0  0  0
  184.2880  178.8420  141.7860 C   0  0  0  0  0  0  0  0  0  0  0  0
  184.9790  178.4010  146.0690 C   0  0  0  0  0  1  0  0  0  0  0  0
  187.3300  177.8610  145.3380 C   0  0  0  0  0  1  0  0  0  0  0  0
  185.6140  178.0090  143.6140 C   0  0  0  0  0  3  0  0  0  0  0  0
  185.9370  178.0490  145.0220 N   0  0  0  0  0  0  0  0  0  0  0  0
  184.5890  178.5840  143.1680 N   0  0  0  0  0  0  0  0  0  0  0  0
  180.8790  178.2190  140.2290 C   0  0  0  0  0  2  0  0  0  0  0  0
  180.0170  179.1530  139.4670 N   0  0  0  0  0  0  0  0  0  0  0  0
  180.6570  180.4620  139.5720 C   0  0  0  0  0  1  0  0  0  0  0  0
  180.3920  180.3060  137.4040 C   0  0  0  0  0  1  0  0  0  0  0  0
  180.1650  178.9410  138.0270 C   0  0  0  0  0  2  0  0  0  0  0  0
  1 34  1  0  0  0  0
  1  7  1  1  0  0  0
  2  3  1  6  0  0  0
  2  1  1  0  0  0  0
  4  3  2  0  0  0  0
  5  2  1  0  0  0  0
  5  6  1  0  0  0  0
  8  7  1  6  0  0  0
  8  9  1  0  0  0  0
  9 29  1  1  0  0  0
 10 13  1  6  0  0  0
 10  9  1  0  0  0  0
 11  8  1  0  0  0  0
 11 10  1  0  0  0  0
 13 12  1  1  0  0  0
 14 13  1  0  0  0  0
 15 16  1  0  0  0  0
 15 17  1  0  0  0  0
 16 18  1  0  0  0  0
 17 19  1  6  0  0  0
 17 18  1  0  0  0  0
 18 14  1  0  0  0  0
 19 21  1  0  0  0  0
 20 24  1  0  0  0  0
 21 22  2  0  0  0  0
 22 23  1  0  0  0  0
 23 27  1  0  0  0  0
 24 23  2  0  0  0  0
 25 20  2  0  0  0  0
 25 21  1  0  0  0  0
 26 27  2  0  0  0  0
 27 28  1  0  0  0  0
 29 33  1  0  0  0  0
 29 31  1  1  0  0  0
 30 31  1  0  0  0  0
 33 32  1  0  0  0  0
 35 41  1  0  0  0  0
 36 43  1  0  0  0  0
 36 44  1  0  0  0  0
 36 34  1  1  0  0  0
 37 38  1  0  0  0  0
 38 42  1  0  0  0  0
 38 35  2  0  0  0  0
 39 46  1  1  0  0  0
 40 44  1  0  0  0  0
 41 39  1  0  0  0  0
 42 40  2  0  0  0  0
 43 39  1  0  0  0  0
 44 41  2  0  0  0  0
 46 47  1  0  0  0  0
 46 45  2  0  0  0  0
 47 49  1  0  0  0  0
 48 51  1  0  0  0  0
 49 48  2  0  0  0  0
 50 51  2  0  0  0  0
 51 56  1  0  0  0  0
 54 55  1  0  0  0  0
 55 53  1  0  0  0  0
 55 52  1  0  0  0  0
 56 54  2  0  0  0  0
 57 49  1  0  0  0  0
 58 59  1  0  0  0  0
 58 57  1  0  0  0  0
 60 61  1  0  0  0  0
 61 58  1  0  0  0  0
M  END
>  <MODEL>
8

>  <REMARK>
 VINA RESULT:      -5.1      2.737     10.986
  Name = 
  24 active torsions:
  status: ('A' for Active; 'I' for Inactive)
    1  A    between atoms: O_1  and  C_12
    2  A    between atoms: O_1  and  C_50
    3  A    between atoms: C_4  and  N_38
    4  A    between atoms: C_5  and  C_7
    5  A    between atoms: C_5  and  C_58
    6  A    between atoms: C_9  and  C_13
    7  A    between atoms: N_11  and  C_59
    8  A    between atoms: C_13  and  C_48
    9  A    between atoms: C_13  and  C_58
   10  A    between atoms: C_18  and  C_61
   11  A    between atoms: C_23  and  C_27
   12  A    between atoms: C_23  and  C_30
   13  A    between atoms: C_26  and  C_35
   14  A    between atoms: C_26  and  C_47
   15  A    between atoms: C_28  and  C_60
   16  A    between atoms: C_30  and  N_55
   17  A    between atoms: N_33  and  C_37
   18  A    between atoms: N_33  and  C_47
   19  A    between atoms: C_35  and  C_60
   20  A    between atoms: N_38  and  C_58
   21  A    between atoms: O_40  and  C_61
   22  A    between atoms: C_43  and  C_51
   23  A    between atoms: N_45  and  C_59
   24  A    between atoms: C_46  and  C_61
                            x       y       z     vdW  Elec       q    Type
                         _______ _______ _______ _____ _____    ______ ____

>  <TORSDO>
F 24

$$$$
=
 OpenBabel10232410203D

 61 65  0  0  1  0  0  0  0  0999 V2000
  189.9250  177.9130  142.1650 C   0  0  2  0  0  3  0  0  0  0  0  0
  191.0630  177.3010  143.1000 C   0  0  2  0  0  3  0  0  0  0  0  0
  190.5810  176.0910  143.8200 C   0  0  0  0  0  3  0  0  0  0  0  0
  191.0040  174.9570  143.4770 O   0  0  0  0  0  0  0  0  0  0  0  0
  191.9170  178.2170  143.9230 C   0  0  0  0  0  2  0  0  0  0  0  0
  191.5230  179.5370  143.8040 F   0  0  0  0  0  0  0  0  0  0  0  0
  188.4690  177.4870  142.2660 C   0  0  0  0  0  2  0  0  0  0  0  0
  187.6160  178.4560  143.1730 C   0  0  2  0  0  3  0  0  0  0  0  0
  186.6170  177.8840  144.1020 C   0  0  2  0  0  3  0  0  0  0  0  0
  185.7560  178.9480  143.5160 C   0  0  1  0  0  3  0  0  0  0  0  0
  186.6710  179.1880  142.5070 O   0  0  0  0  0  0  0  0  0  0  0  0
  183.5150  178.4170  143.8220 O   0  0  0  0  0  1  0  0  0  0  0  0
  184.5340  178.0900  142.9830 C   0  0  1  0  0  3  0  0  0  0  0  0
  184.2320  178.3590  141.6040 C   0  0  0  0  0  2  0  0  0  0  0  0
  181.7240  178.5180  140.1270 C   0  0  0  0  0  2  0  0  0  0  0  0
  181.9790  178.7530  141.5870 C   0  0  0  0  0  2  0  0  0  0  0  0
  183.0040  179.3380  139.9280 C   0  0  2  0  0  3  0  0  0  0  0  0
  183.2750  179.4790  141.3930 N   0  0  0  0  0  0  0  0  0  0  0  0
  182.6760  180.5780  139.2010 O   0  0  0  0  0  0  0  0  0  0  0  0
  180.6900  180.1060  136.1180 C   0  0  0  0  0  3  0  0  0  0  0  0
  181.8600  180.8390  138.1170 C   0  0  0  0  0  0  0  0  0  0  0  0
  181.5840  182.1850  137.7290 C   0  0  0  0  0  3  0  0  0  0  0  0
  180.8210  182.4420  136.5870 C   0  0  0  0  0  0  0  0  0  0  0  0
  180.3680  181.3980  135.7680 C   0  0  0  0  0  3  0  0  0  0  0  0
  181.4110  179.8440  137.2160 C   0  0  0  0  0  3  0  0  0  0  0  0
  180.2230  184.6220  137.1590 O   0  0  0  0  0  1  0  0  0  0  0  0
  180.5740  183.8120  136.2710 C   0  0  0  0  0  0  0  0  0  0  0  0
  180.7430  184.1970  134.9600 O   0  0  0  0  0  0  0  0  0  0  0  0
  186.7040  178.0200  145.6700 C   0  0  1  0  0  3  0  0  0  0  0  0
  188.1200  178.1030  147.8400 C   0  0  0  0  0  1  0  0  0  0  0  0
  188.0490  177.9550  146.3710 C   0  0  0  0  0  2  0  0  0  0  0  0
  184.9410  178.4510  147.0040 C   0  0  0  0  0  1  0  0  0  0  0  0
  185.9420  179.0260  146.1960 O   0  0  0  0  0  0  0  0  0  0  0  0
  190.3630  178.0750  140.7640 N   0  0  0  0  0  2  0  0  0  0  0  0
  188.8050  176.9220  136.4490 C   0  0  0  0  0  3  0  0  0  0  0  0
  189.6040  177.0770  139.9810 C   0  0  2  0  0  3  0  0  0  0  0  0
  186.9450  178.0770  135.3330 F   0  0  0  0  0  0  0  0  0  0  0  0
  187.7760  177.8880  136.3860 C   0  0  0  0  0  0  0  0  0  0  0  0
  190.5560  175.7900  138.0910 C   0  0  2  0  0  3  0  0  0  0  0  0
  188.2860  178.6220  138.6220 C   0  0  0  0  0  3  0  0  0  0  0  0
  189.5470  176.8030  137.6360 C   0  0  0  0  0  0  0  0  0  0  0  0
  187.5710  178.7520  137.4690 C   0  0  0  0  0  3  0  0  0  0  0  0
  190.4480  175.8480  139.6220 C   0  0  0  0  0  2  0  0  0  0  0  0
  189.2280  177.6400  138.6750 C   0  0  0  0  0  0  0  0  0  0  0  0
  192.7310  176.8480  138.1960 O   0  0  0  0  0  0  0  0  0  0  0  0
  191.9720  176.1150  137.5570 C   0  0  0  0  0  0  0  0  0  0  0  0
  192.5120  175.5610  136.2640 C   0  0  0  0  0  2  0  0  0  0  0  0
  192.0080  173.2730  135.7490 N   0  0  0  0  0  0  0  0  0  0  0  0
  192.8670  174.1210  136.2520 C   0  0  0  0  0  0  0  0  0  0  0  0
  190.5070  174.5020  134.3510 O   0  0  0  0  0  0  0  0  0  0  0  0
  190.7740  173.4740  135.1320 C   0  0  0  0  0  0  0  0  0  0  0  0
  187.9790  170.2170  135.9040 C   0  0  0  0  0  1  0  0  0  0  0  0
  186.2980  171.8160  134.9170 C   0  0  0  0  0  1  0  0  0  0  0  0
  188.5210  172.6780  135.4210 C   0  0  0  0  0  3  0  0  0  0  0  0
  187.6040  171.5630  135.4720 N   0  0  0  0  0  0  0  0  0  0  0  0
  189.7650  172.4950  135.4330 N   0  0  0  0  0  0  0  0  0  0  0  0
  194.0240  173.6310  137.0960 C   0  0  0  0  0  2  0  0  0  0  0  0
  195.1470  174.5620  137.3500 N   0  0  0  0  0  0  0  0  0  0  0  0
  195.3920  174.5080  138.7890 C   0  0  0  0  0  1  0  0  0  0  0  0
  196.3380  173.9530  135.3650 C   0  0  0  0  0  1  0  0  0  0  0  0
  196.4110  173.9960  136.8810 C   0  0  0  0  0  2  0  0  0  0  0  0
  1  7  1  6  0  0  0
  1  2  1  0  0  0  0
  2  3  1  1  0  0  0
  2  5  1  0  0  0  0
  4  3  2  0  0  0  0
  6  5  1  0  0  0  0
  8  7  1  6  0  0  0
  8  9  1  0  0  0  0
  9 29  1  1  0  0  0
 10 13  1  6  0  0  0
 10  9  1  0  0  0  0
 11  8  1  0  0  0  0
 11 10  1  0  0  0  0
 13 12  1  1  0  0  0
 14 13  1  0  0  0  0
 15 16  1  0  0  0  0
 17 19  1  1  0  0  0
 17 15  1  0  0  0  0
 17 18  1  0  0  0  0
 18 16  1  0  0  0  0
 18 14  1  0  0  0  0
 20 25  1  0  0  0  0
 21 19  1  0  0  0  0
 22 21  1  0  0  0  0
 23 22  2  0  0  0  0
 24 20  2  0  0  0  0
 24 23  1  0  0  0  0
 25 21  2  0  0  0  0
 27 23  1  0  0  0  0
 27 26  1  0  0  0  0
 28 27  2  0  0  0  0
 29 33  1  0  0  0  0
 29 31  1  6  0  0  0
 31 30  1  0  0  0  0
 33 32  1  0  0  0  0
 34  1  1  0  0  0  0
 35 41  1  0  0  0  0
 36 34  1  1  0  0  0
 37 38  1  0  0  0  0
 38 35  2  0  0  0  0
 38 42  1  0  0  0  0
 39 46  1  1  0  0  0
 39 43  1  0  0  0  0
 40 44  1  0  0  0  0
 41 39  1  0  0  0  0
 41 44  2  0  0  0  0
 42 40  2  0  0  0  0
 43 36  1  0  0  0  0
 44 36  1  0  0  0  0
 46 45  2  0  0  0  0
 47 46  1  0  0  0  0
 48 49  2  0  0  0  0
 49 47  1  0  0  0  0
 49 57  1  0  0  0  0
 50 51  2  0  0  0  0
 51 56  1  0  0  0  0
 51 48  1  0  0  0  0
 53 55  1  0  0  0  0
 54 56  2  0  0  0  0
 54 55  1  0  0  0  0
 55 52  1  0  0  0  0
 57 58  1  0  0  0  0
 58 59  1  0  0  0  0
 60 61  1  0  0  0  0
 61 58  1  0  0  0  0
M  END
>  <MODEL>
9

>  <REMARK>
 VINA RESULT:      -5.1      2.667      5.570
  Name = 
  24 active torsions:
  status: ('A' for Active; 'I' for Inactive)
    1  A    between atoms: O_1  and  C_12
    2  A    between atoms: O_1  and  C_50
    3  A    between atoms: C_4  and  N_38
    4  A    between atoms: C_5  and  C_7
    5  A    between atoms: C_5  and  C_58
    6  A    between atoms: C_9  and  C_13
    7  A    between atoms: N_11  and  C_59
    8  A    between atoms: C_13  and  C_48
    9  A    between atoms: C_13  and  C_58
   10  A    between atoms: C_18  and  C_61
   11  A    between atoms: C_23  and  C_27
   12  A    between atoms: C_23  and  C_30
   13  A    between atoms: C_26  and  C_35
   14  A    between atoms: C_26  and  C_47
   15  A    between atoms: C_28  and  C_60
   16  A    between atoms: C_30  and  N_55
   17  A    between atoms: N_33  and  C_37
   18  A    between atoms: N_33  and  C_47
   19  A    between atoms: C_35  and  C_60
   20  A    between atoms: N_38  and  C_58
   21  A    between atoms: O_40  and  C_61
   22  A    between atoms: C_43  and  C_51
   23  A    between atoms: N_45  and  C_59
   24  A    between atoms: C_46  and  C_61
                            x       y       z     vdW  Elec       q    Type
                         _______ _______ _______ _____ _____    ______ ____

>  <TORSDO>
F 24

$$$$
