=
 OpenBabel10232410393D

 48 51  0  0  1  0  0  0  0  0999 V2000
  190.3920  175.6000  137.5000 C   0  0  2  0  0  3  0  0  0  0  0  0
  194.8970  174.7880  136.6000 C   0  0  1  0  0  3  0  0  0  0  0  0
  193.7470  174.1680  137.3980 C   0  0  0  0  0  2  0  0  0  0  0  0
  190.8750  175.4150  135.1820 C   0  0  0  0  0  2  0  0  0  0  0  0
  193.3070  176.0860  135.1460 C   0  0  0  0  0  2  0  0  0  0  0  0
  191.1370  176.2190  136.4000 N   0  0  0  0  0  0  0  0  0  0  0  0
  194.5000  176.1780  136.0950 C   0  0  0  0  0  2  0  0  0  0  0  0
  192.5020  174.0020  136.5280 C   0  0  0  0  0  2  0  0  0  0  0  0
  192.1740  175.3280  135.8240 C   0  0  1  0  0  0  0  0  0  0  0  0
  196.0220  174.8890  137.4180 O   0  0  0  0  0  0  0  0  0  0  0  0
  197.0370  172.4300  137.4570 C   0  0  0  0  0  1  0  0  0  0  0  0
  196.2760  173.6210  135.2000 O   0  0  0  0  0  1  0  0  0  0  0  0
  197.2730  174.0430  136.5600 P   0  0  1  0  0  0  0  0  0  0  0  0
  186.9310  176.6230  137.2010 C   0  0  0  0  0  0  0  0  0  0  0  0
  186.6910  175.1530  137.0020 C   0  0  2  0  0  3  0  0  0  0  0  0
  188.5150  173.3540  136.9750 O   0  0  0  0  0  1  0  0  0  0  0  0
  188.1800  176.9200  137.3660 N   0  0  0  0  0  0  0  0  0  0  0  0
  188.1060  174.6790  137.0610 C   0  0  0  0  0  0  0  0  0  0  0  0
  188.9130  175.7070  137.2600 C   0  0  0  0  0  0  0  0  0  0  0  0
  186.0440  174.8380  135.6460 C   0  0  0  0  0  0  0  0  0  0  0  0
  186.5290  175.7170  134.6970 F   0  0  0  0  0  0  0  0  0  0  0  0
  186.3740  173.5490  135.2640 F   0  0  0  0  0  0  0  0  0  0  0  0
  184.6620  174.9530  135.7120 F   0  0  0  0  0  0  0  0  0  0  0  0
  185.8480  177.6470  137.3020 C   0  0  0  0  0  2  0  0  0  0  0  0
  186.0070  178.4450  138.5880 C   0  0  0  0  0  2  0  0  0  0  0  0
  184.7770  179.1570  140.4300 C   0  0  0  0  0  1  0  0  0  0  0  0
  184.7220  178.9870  138.9920 N   0  0  0  0  0  0  0  0  0  0  0  0
  183.7320  177.9570  138.7320 C   0  0  0  0  0  1  0  0  0  0  0  0
  190.0260  176.7620  141.2070 C   0  0  0  0  0  0  0  0  0  0  0  0
  191.8410  176.8700  138.9000 O   0  0  0  0  0  0  0  0  0  0  0  0
  189.8280  176.1850  139.9090 N   0  0  0  0  0  2  0  0  0  0  0  0
  189.1590  176.5720  142.0990 O   0  0  0  0  0  0  0  0  0  0  0  0
  190.7360  176.2670  138.7970 C   0  0  0  0  0  0  0  0  0  0  0  0
  191.2190  177.5990  141.5240 C   0  0  0  0  0  2  0  0  0  0  0  0
  191.7090  177.3080  142.9320 C   0  0  0  0  0  2  0  0  0  0  0  0
  191.1680  178.3490  143.8970 C   0  0  0  0  0  2  0  0  0  0  0  0
  191.1550  176.0760  146.9380 C   0  0  0  0  0  3  0  0  0  0  0  0
  189.9550  176.3810  147.4380 C   0  0  0  0  0  3  0  0  0  0  0  0
  191.7880  176.9060  145.8560 C   0  0  0  0  0  2  0  0  0  0  0  0
  189.1550  177.5030  146.9080 C   0  0  0  0  0  0  0  0  0  0  0  0
  190.7950  177.7340  145.1610 N   0  0  0  0  0  0  0  0  0  0  0  0
  189.5770  178.1330  145.8060 C   0  0  0  0  0  3  0  0  0  0  0  0
  187.9490  178.1120  148.8490 O   0  0  0  0  0  0  0  0  0  0  0  0
  186.6950  178.2760  146.9070 N   0  0  0  0  0  2  0  0  0  0  0  0
  187.9260  177.9780  147.5900 C   0  0  0  0  0  0  0  0  0  0  0  0
  186.4380  178.4180  145.4760 C   0  0  0  0  0  3  0  0  0  0  0  0
  185.1290  179.1350  145.2070 C   0  0  0  0  0  1  0  0  0  0  0  0
  186.5300  177.0920  144.7370 C   0  0  0  0  0  1  0  0  0  0  0  0
  1 33  1  1  0  0  0
  2  3  1  0  0  0  0
  2 10  1  1  0  0  0
  4  9  1  0  0  0  0
  4  6  1  0  0  0  0
  5  7  1  0  0  0  0
  6  1  1  0  0  0  0
  7  2  1  0  0  0  0
  8  3  1  0  0  0  0
  9  5  1  6  0  0  0
  9  6  1  0  0  0  0
  9  8  1  0  0  0  0
 12 13  1  0  0  0  0
 13 10  1  0  0  0  0
 13 11  1  1  0  0  0
 14 24  1  0  0  0  0
 14 17  2  0  0  0  0
 15 20  1  6  0  0  0
 15 18  1  0  0  0  0
 15 14  1  0  0  0  0
 16 18  1  0  0  0  0
 18 19  2  0  0  0  0
 19 17  1  0  0  0  0
 19  1  1  0  0  0  0
 20 23  1  0  0  0  0
 21 20  1  0  0  0  0
 22 20  1  0  0  0  0
 24 25  1  0  0  0  0
 25 27  1  0  0  0  0
 27 26  1  0  0  0  0
 28 27  1  0  0  0  0
 29 34  1  0  0  0  0
 29 32  2  0  0  0  0
 31 29  1  0  0  0  0
 33 30  2  0  0  0  0
 33 31  1  0  0  0  0
 34 35  1  0  0  0  0
 35 36  1  0  0  0  0
 36 41  1  0  0  0  0
 37 38  2  0  0  0  0
 39 37  1  0  0  0  0
 40 38  1  0  0  0  0
 40 45  1  0  0  0  0
 41 42  1  0  0  0  0
 41 39  1  0  0  0  0
 42 40  2  0  0  0  0
 44 45  1  0  0  0  0
 45 43  2  0  0  0  0
 46 44  1  0  0  0  0
 47 46  1  0  0  0  0
 48 46  1  0  0  0  0
M  END
>  <MODEL>
1

>  <REMARK>
 VINA RESULT:      -7.5      0.000      0.000
  Name = 
  15 active torsions:
  status: ('A' for Active; 'I' for Inactive)
    1  A    between atoms: C_1  and  O_36
    2  A    between atoms: C_2  and  N_22
    3  A    between atoms: C_2  and  C_39
    4  A    between atoms: C_2  and  C_42
    5  A    between atoms: C_4  and  C_5
    6  A    between atoms: C_5  and  C_33
    7  A    between atoms: C_9  and  C_13
    8  A    between atoms: C_10  and  C_14
    9  A    between atoms: C_14  and  C_26
   10  A    between atoms: C_17  and  C_26
   11  A    between atoms: C_17  and  N_29
   12  A    between atoms: C_19  and  N_35
   13  A    between atoms: N_25  and  C_33
   14  A    between atoms: C_28  and  C_44
   15  A    between atoms: O_36  and  P_43
                            x       y       z     vdW  Elec       q    Type
                         _______ _______ _______ _____ _____    ______ ____

>  <TORSDO>
F 15

$$$$
=
 OpenBabel10232410393D

 48 51  0  0  1  0  0  0  0  0999 V2000
  190.6560  175.6160  137.2980 C   0  0  2  0  0  3  0  0  0  0  0  0
  195.2310  174.7950  136.9020 C   0  0  1  0  0  3  0  0  0  0  0  0
  194.0100  174.2190  137.6240 C   0  0  0  0  0  2  0  0  0  0  0  0
  191.3650  175.2780  135.0570 C   0  0  0  0  0  2  0  0  0  0  0  0
  193.7850  175.9730  135.2130 C   0  0  0  0  0  2  0  0  0  0  0  0
  191.5020  176.1660  136.2360 N   0  0  0  0  0  0  0  0  0  0  0  0
  194.8790  176.1430  136.2650 C   0  0  0  0  0  2  0  0  0  0  0  0
  192.8580  173.9790  136.6500 C   0  0  0  0  0  2  0  0  0  0  0  0
  192.5950  175.2500  135.8270 C   0  0  1  0  0  0  0  0  0  0  0  0
  196.2700  174.9650  137.8170 O   0  0  0  0  0  0  0  0  0  0  0  0
  197.3730  173.9590  135.6160 C   0  0  0  0  0  1  0  0  0  0  0  0
  198.8160  174.6450  137.7460 O   0  0  0  0  0  1  0  0  0  0  0  0
  197.3920  173.6900  137.4570 P   0  0  1  0  0  0  0  0  0  0  0  0
  187.1290  175.2810  136.5450 C   0  0  0  0  0  0  0  0  0  0  0  0
  187.2450  176.7320  136.1710 C   0  0  2  0  0  3  0  0  0  0  0  0
  189.3870  178.1270  136.3360 O   0  0  0  0  0  1  0  0  0  0  0  0
  188.2400  174.7730  136.9740 N   0  0  0  0  0  0  0  0  0  0  0  0
  188.6830  176.9430  136.5150 C   0  0  0  0  0  0  0  0  0  0  0  0
  189.2030  175.8170  136.9710 C   0  0  0  0  0  0  0  0  0  0  0  0
  186.3240  177.6340  137.0030 C   0  0  0  0  0  0  0  0  0  0  0  0
  186.7300  178.9470  136.8650 F   0  0  0  0  0  0  0  0  0  0  0  0
  185.0240  177.5230  136.5380 F   0  0  0  0  0  0  0  0  0  0  0  0
  186.3590  177.2830  138.3450 F   0  0  0  0  0  0  0  0  0  0  0  0
  185.8960  174.4600  136.3590 C   0  0  0  0  0  2  0  0  0  0  0  0
  185.9200  173.2650  137.3030 C   0  0  0  0  0  2  0  0  0  0  0  0
  183.9160  172.1060  137.0750 C   0  0  0  0  0  1  0  0  0  0  0  0
  184.6070  173.0810  137.8950 N   0  0  0  0  0  0  0  0  0  0  0  0
  183.8950  174.3370  137.7370 C   0  0  0  0  0  1  0  0  0  0  0  0
  190.1950  176.7770  140.9940 C   0  0  0  0  0  0  0  0  0  0  0  0
  192.0750  176.8720  138.7390 O   0  0  0  0  0  0  0  0  0  0  0  0
  190.0280  176.2030  139.6910 N   0  0  0  0  0  2  0  0  0  0  0  0
  189.3020  176.5930  141.8620 O   0  0  0  0  0  0  0  0  0  0  0  0
  190.9690  176.2780  138.6050 C   0  0  0  0  0  0  0  0  0  0  0  0
  191.3860  177.6040  141.3460 C   0  0  0  0  0  2  0  0  0  0  0  0
  191.7990  177.3480  142.7850 C   0  0  0  0  0  2  0  0  0  0  0  0
  191.2060  178.4120  143.6930 C   0  0  0  0  0  2  0  0  0  0  0  0
  191.1010  176.2500  146.8130 C   0  0  0  0  0  3  0  0  0  0  0  0
  189.8670  176.5310  147.2370 C   0  0  0  0  0  3  0  0  0  0  0  0
  191.7650  177.0610  145.7360 C   0  0  0  0  0  2  0  0  0  0  0  0
  189.0600  177.6050  146.6230 C   0  0  0  0  0  0  0  0  0  0  0  0
  190.7850  177.8300  144.9580 N   0  0  0  0  0  0  0  0  0  0  0  0
  189.5210  178.2090  145.5230 C   0  0  0  0  0  3  0  0  0  0  0  0
  187.7430  178.2810  148.4670 O   0  0  0  0  0  0  0  0  0  0  0  0
  186.5680  178.2500  146.4700 N   0  0  0  0  0  2  0  0  0  0  0  0
  187.7810  178.0620  147.2210 C   0  0  0  0  0  0  0  0  0  0  0  0
  186.3670  178.2820  145.0230 C   0  0  0  0  0  3  0  0  0  0  0  0
  185.0160  178.8630  144.6540 C   0  0  0  0  0  1  0  0  0  0  0  0
  186.6060  176.9270  144.3750 C   0  0  0  0  0  1  0  0  0  0  0  0
  1 33  1  1  0  0  0
  2  3  1  0  0  0  0
  2 10  1  1  0  0  0
  4  6  1  0  0  0  0
  5  9  1  0  0  0  0
  5  7  1  0  0  0  0
  6  1  1  0  0  0  0
  7  2  1  0  0  0  0
  8  3  1  0  0  0  0
  9  4  1  6  0  0  0
  9  6  1  0  0  0  0
  9  8  1  0  0  0  0
 13 11  1  6  0  0  0
 13 12  1  0  0  0  0
 13 10  1  0  0  0  0
 14 17  2  0  0  0  0
 15 18  1  0  0  0  0
 15 14  1  0  0  0  0
 15 20  1  1  0  0  0
 16 18  1  0  0  0  0
 18 19  2  0  0  0  0
 19 17  1  0  0  0  0
 19  1  1  0  0  0  0
 20 23  1  0  0  0  0
 21 20  1  0  0  0  0
 22 20  1  0  0  0  0
 24 14  1  0  0  0  0
 24 25  1  0  0  0  0
 25 27  1  0  0  0  0
 26 27  1  0  0  0  0
 28 27  1  0  0  0  0
 29 34  1  0  0  0  0
 29 32  2  0  0  0  0
 31 29  1  0  0  0  0
 33 30  2  0  0  0  0
 33 31  1  0  0  0  0
 34 35  1  0  0  0  0
 35 36  1  0  0  0  0
 36 41  1  0  0  0  0
 37 38  2  0  0  0  0
 39 37  1  0  0  0  0
 40 45  1  0  0  0  0
 40 38  1  0  0  0  0
 41 42  1  0  0  0  0
 41 39  1  0  0  0  0
 42 40  2  0  0  0  0
 44 45  1  0  0  0  0
 45 43  2  0  0  0  0
 46 44  1  0  0  0  0
 47 46  1  0  0  0  0
 48 46  1  0  0  0  0
M  END
>  <MODEL>
2

>  <REMARK>
 VINA RESULT:      -7.5      1.779      2.399
  Name = 
  15 active torsions:
  status: ('A' for Active; 'I' for Inactive)
    1  A    between atoms: C_1  and  O_36
    2  A    between atoms: C_2  and  N_22
    3  A    between atoms: C_2  and  C_39
    4  A    between atoms: C_2  and  C_42
    5  A    between atoms: C_4  and  C_5
    6  A    between atoms: C_5  and  C_33
    7  A    between atoms: C_9  and  C_13
    8  A    between atoms: C_10  and  C_14
    9  A    between atoms: C_14  and  C_26
   10  A    between atoms: C_17  and  C_26
   11  A    between atoms: C_17  and  N_29
   12  A    between atoms: C_19  and  N_35
   13  A    between atoms: N_25  and  C_33
   14  A    between atoms: C_28  and  C_44
   15  A    between atoms: O_36  and  P_43
                            x       y       z     vdW  Elec       q    Type
                         _______ _______ _______ _____ _____    ______ ____

>  <TORSDO>
F 15

$$$$
=
 OpenBabel10232410393D

 48 51  0  0  1  0  0  0  0  0999 V2000
  192.2500  175.8450  137.1530 C   0  0  2  0  0  3  0  0  0  0  0  0
  187.9340  177.1020  135.9090 C   0  0  1  0  0  3  0  0  0  0  0  0
  189.3430  177.6980  135.9610 C   0  0  0  0  0  2  0  0  0  0  0  0
  191.2880  174.4230  135.5120 C   0  0  0  0  0  2  0  0  0  0  0  0
  188.8300  174.7530  135.9780 C   0  0  0  0  0  2  0  0  0  0  0  0
  191.1560  174.9020  136.9090 N   0  0  0  0  0  0  0  0  0  0  0  0
  187.9010  175.7620  136.6490 C   0  0  0  0  0  2  0  0  0  0  0  0
  190.3560  176.7760  135.2850 C   0  0  0  0  0  2  0  0  0  0  0  0
  190.2240  175.3520  135.8470 C   0  0  1  0  0  0  0  0  0  0  0  0
  187.0360  177.9890  136.5030 O   0  0  0  0  0  0  0  0  0  0  0  0
  185.0890  178.3160  138.2850 C   0  0  0  0  0  1  0  0  0  0  0  0
  184.6790  177.1550  135.9240 O   0  0  0  0  0  1  0  0  0  0  0  0
  185.8220  176.9770  137.2210 P   0  0  1  0  0  0  0  0  0  0  0  0
  195.1340  173.6650  137.3780 C   0  0  0  0  0  0  0  0  0  0  0  0
  195.8200  174.7770  136.6340 C   0  0  2  0  0  3  0  0  0  0  0  0
  194.6930  176.9430  135.8600 O   0  0  0  0  0  1  0  0  0  0  0  0
  193.8810  173.8990  137.6060 N   0  0  0  0  0  0  0  0  0  0  0  0
  194.6530  175.6920  136.4630 C   0  0  0  0  0  0  0  0  0  0  0  0
  193.5790  175.1560  137.0180 C   0  0  0  0  0  0  0  0  0  0  0  0
  196.3870  174.3220  135.2820 C   0  0  0  0  0  0  0  0  0  0  0  0
  197.1340  175.3490  134.7370 F   0  0  0  0  0  0  0  0  0  0  0  0
  197.2130  173.2280  135.4710 F   0  0  0  0  0  0  0  0  0  0  0  0
  195.3710  173.9800  134.4020 F   0  0  0  0  0  0  0  0  0  0  0  0
  195.8270  172.4490  137.8990 C   0  0  0  0  0  2  0  0  0  0  0  0
  195.0040  171.2080  137.5830 C   0  0  0  0  0  2  0  0  0  0  0  0
  197.0020  170.0760  137.2160 C   0  0  0  0  0  1  0  0  0  0  0  0
  195.7520  170.0180  137.9460 N   0  0  0  0  0  0  0  0  0  0  0  0
  195.0150  168.8820  137.4200 C   0  0  0  0  0  1  0  0  0  0  0  0
  190.5990  176.9440  140.5130 C   0  0  0  0  0  0  0  0  0  0  0  0
  193.1640  176.9010  139.0810 O   0  0  0  0  0  0  0  0  0  0  0  0
  190.8610  176.4280  139.2010 N   0  0  0  0  0  2  0  0  0  0  0  0
  189.4410  176.8320  140.9940 O   0  0  0  0  0  0  0  0  0  0  0  0
  192.1310  176.4330  138.5260 C   0  0  0  0  0  0  0  0  0  0  0  0
  191.6530  177.6280  141.3160 C   0  0  0  0  0  2  0  0  0  0  0  0
  191.5960  177.1690  142.7620 C   0  0  0  0  0  2  0  0  0  0  0  0
  190.9280  178.2300  143.6200 C   0  0  0  0  0  2  0  0  0  0  0  0
  191.2380  176.2620  146.8520 C   0  0  0  0  0  3  0  0  0  0  0  0
  190.0610  176.5600  147.4070 C   0  0  0  0  0  3  0  0  0  0  0  0
  191.7530  177.0110  145.6550 C   0  0  0  0  0  2  0  0  0  0  0  0
  189.1690  177.5870  146.8340 C   0  0  0  0  0  0  0  0  0  0  0  0
  190.6740  177.7240  144.9590 N   0  0  0  0  0  0  0  0  0  0  0  0
  189.4830  178.1270  145.6510 C   0  0  0  0  0  3  0  0  0  0  0  0
  188.0440  178.2430  148.8080 O   0  0  0  0  0  0  0  0  0  0  0  0
  186.7030  178.3360  146.9210 N   0  0  0  0  0  2  0  0  0  0  0  0
  187.9670  178.0700  147.5570 C   0  0  0  0  0  0  0  0  0  0  0  0
  186.3810  178.4320  145.4990 C   0  0  0  0  0  3  0  0  0  0  0  0
  185.0610  179.1410  145.2670 C   0  0  0  0  0  1  0  0  0  0  0  0
  186.4410  177.0830  144.7990 C   0  0  0  0  0  1  0  0  0  0  0  0
  1 33  1  1  0  0  0
  2  3  1  0  0  0  0
  2 10  1  1  0  0  0
  2  7  1  0  0  0  0
  4  9  1  0  0  0  0
  4  6  1  0  0  0  0
  5  7  1  0  0  0  0
  6  1  1  0  0  0  0
  8  3  1  0  0  0  0
  9  8  1  6  0  0  0
  9  5  1  0  0  0  0
  9  6  1  0  0  0  0
 10 13  1  0  0  0  0
 12 13  1  0  0  0  0
 13 11  1  1  0  0  0
 14 17  2  0  0  0  0
 14 24  1  0  0  0  0
 15 20  1  6  0  0  0
 15 14  1  0  0  0  0
 16 18  1  0  0  0  0
 18 15  1  0  0  0  0
 18 19  2  0  0  0  0
 19  1  1  0  0  0  0
 19 17  1  0  0  0  0
 20 22  1  0  0  0  0
 21 20  1  0  0  0  0
 23 20  1  0  0  0  0
 25 24  1  0  0  0  0
 25 27  1  0  0  0  0
 26 27  1  0  0  0  0
 28 27  1  0  0  0  0
 29 32  2  0  0  0  0
 29 34  1  0  0  0  0
 31 29  1  0  0  0  0
 33 30  2  0  0  0  0
 33 31  1  0  0  0  0
 34 35  1  0  0  0  0
 35 36  1  0  0  0  0
 36 41  1  0  0  0  0
 37 38  2  0  0  0  0
 39 37  1  0  0  0  0
 40 38  1  0  0  0  0
 40 45  1  0  0  0  0
 41 42  1  0  0  0  0
 41 39  1  0  0  0  0
 42 40  2  0  0  0  0
 44 45  1  0  0  0  0
 45 43  2  0  0  0  0
 46 44  1  0  0  0  0
 47 46  1  0  0  0  0
 48 46  1  0  0  0  0
M  END
>  <MODEL>
3

>  <REMARK>
 VINA RESULT:      -7.5      3.704      7.127
  Name = 
  15 active torsions:
  status: ('A' for Active; 'I' for Inactive)
    1  A    between atoms: C_1  and  O_36
    2  A    between atoms: C_2  and  N_22
    3  A    between atoms: C_2  and  C_39
    4  A    between atoms: C_2  and  C_42
    5  A    between atoms: C_4  and  C_5
    6  A    between atoms: C_5  and  C_33
    7  A    between atoms: C_9  and  C_13
    8  A    between atoms: C_10  and  C_14
    9  A    between atoms: C_14  and  C_26
   10  A    between atoms: C_17  and  C_26
   11  A    between atoms: C_17  and  N_29
   12  A    between atoms: C_19  and  N_35
   13  A    between atoms: N_25  and  C_33
   14  A    between atoms: C_28  and  C_44
   15  A    between atoms: O_36  and  P_43
                            x       y       z     vdW  Elec       q    Type
                         _______ _______ _______ _____ _____    ______ ____

>  <TORSDO>
F 15

$$$$
=
 OpenBabel10232410393D

 48 51  0  0  1  0  0  0  0  0999 V2000
  189.0840  175.3140  136.6980 C   0  0  2  0  0  3  0  0  0  0  0  0
  193.7190  175.0580  137.1540 C   0  0  1  0  0  3  0  0  0  0  0  0
  192.4610  174.4270  137.7560 C   0  0  0  0  0  2  0  0  0  0  0  0
  190.2040  174.7780  134.6740 C   0  0  0  0  0  2  0  0  0  0  0  0
  192.4720  175.8000  135.1000 C   0  0  0  0  0  2  0  0  0  0  0  0
  190.0380  175.8260  135.7110 N   0  0  0  0  0  0  0  0  0  0  0  0
  193.3400  176.2510  136.2720 C   0  0  0  0  0  2  0  0  0  0  0  0
  191.5280  173.9100  136.6620 C   0  0  0  0  0  2  0  0  0  0  0  0
  191.2770  175.0150  135.6230 C   0  0  1  0  0  0  0  0  0  0  0  0
  194.5580  175.4830  138.1850 O   0  0  0  0  0  0  0  0  0  0  0  0
  196.7550  174.3700  137.1790 C   0  0  0  0  0  1  0  0  0  0  0  0
  196.4880  174.9000  139.7750 O   0  0  0  0  0  1  0  0  0  0  0  0
  195.5380  174.0990  138.5600 P   0  0  1  0  0  0  0  0  0  0  0  0
  185.9300  174.0410  135.4540 C   0  0  0  0  0  0  0  0  0  0  0  0
  185.9030  175.3360  134.6910 C   0  0  2  0  0  3  0  0  0  0  0  0
  187.7000  177.1570  134.8180 O   0  0  0  0  0  1  0  0  0  0  0  0
  186.9740  173.9140  136.2080 N   0  0  0  0  0  0  0  0  0  0  0  0
  187.1670  175.9360  135.2110 C   0  0  0  0  0  0  0  0  0  0  0  0
  187.7350  175.1050  136.0690 C   0  0  0  0  0  0  0  0  0  0  0  0
  184.6820  176.2000  135.0350 C   0  0  0  0  0  0  0  0  0  0  0  0
  184.7980  177.4210  134.4000 F   0  0  0  0  0  0  0  0  0  0  0  0
  183.5310  175.5760  134.5850 F   0  0  0  0  0  0  0  0  0  0  0  0
  184.5830  176.4050  136.4040 F   0  0  0  0  0  0  0  0  0  0  0  0
  184.9190  172.9530  135.3000 C   0  0  0  0  0  2  0  0  0  0  0  0
  184.0990  172.8230  136.5760 C   0  0  0  0  0  2  0  0  0  0  0  0
  183.5980  170.9210  135.3340 C   0  0  0  0  0  1  0  0  0  0  0  0
  183.5410  171.4850  136.6670 N   0  0  0  0  0  0  0  0  0  0  0  0
  182.1340  171.6380  136.9940 C   0  0  0  0  0  1  0  0  0  0  0  0
  190.1390  177.5050  139.7500 C   0  0  0  0  0  0  0  0  0  0  0  0
  187.8340  176.8090  138.0670 O   0  0  0  0  0  0  0  0  0  0  0  0
  190.1090  176.6000  138.6380 N   0  0  0  0  0  2  0  0  0  0  0  0
  191.2350  177.7240  140.3300 O   0  0  0  0  0  0  0  0  0  0  0  0
  188.9560  176.2750  137.8400 C   0  0  0  0  0  0  0  0  0  0  0  0
  188.9070  178.1770  140.2540 C   0  0  0  0  0  2  0  0  0  0  0  0
  188.4320  177.5170  141.5360 C   0  0  0  0  0  2  0  0  0  0  0  0
  187.0950  178.1010  141.9580 C   0  0  0  0  0  2  0  0  0  0  0  0
  185.6090  178.3750  145.4420 C   0  0  0  0  0  3  0  0  0  0  0  0
  186.6930  178.0950  146.1680 C   0  0  0  0  0  3  0  0  0  0  0  0
  185.5750  178.1360  143.9580 C   0  0  0  0  0  2  0  0  0  0  0  0
  187.9400  177.6070  145.5470 C   0  0  0  0  0  0  0  0  0  0  0  0
  186.9280  178.0150  143.4010 N   0  0  0  0  0  0  0  0  0  0  0  0
  188.0310  177.5850  144.2130 C   0  0  0  0  0  3  0  0  0  0  0  0
  188.8490  176.7640  147.5610 O   0  0  0  0  0  0  0  0  0  0  0  0
  190.4190  176.9750  145.8700 N   0  0  0  0  0  2  0  0  0  0  0  0
  189.0720  177.0960  146.3600 C   0  0  0  0  0  0  0  0  0  0  0  0
  190.9230  177.0750  144.5020 C   0  0  0  0  0  3  0  0  0  0  0  0
  191.7240  175.8500  144.1050 C   0  0  0  0  0  1  0  0  0  0  0  0
  191.6880  178.3660  144.2590 C   0  0  0  0  0  1  0  0  0  0  0  0
  1 33  1  1  0  0  0
  2  3  1  0  0  0  0
  2 10  1  1  0  0  0
  4  6  1  0  0  0  0
  5  9  1  0  0  0  0
  5  7  1  0  0  0  0
  6  1  1  0  0  0  0
  7  2  1  0  0  0  0
  8  3  1  0  0  0  0
  9  4  1  6  0  0  0
  9  6  1  0  0  0  0
  9  8  1  0  0  0  0
 10 13  1  0  0  0  0
 13 11  1  6  0  0  0
 13 12  1  0  0  0  0
 14 17  2  0  0  0  0
 15 20  1  1  0  0  0
 15 18  1  0  0  0  0
 15 14  1  0  0  0  0
 16 18  1  0  0  0  0
 18 19  2  0  0  0  0
 19 17  1  0  0  0  0
 19  1  1  0  0  0  0
 20 23  1  0  0  0  0
 21 20  1  0  0  0  0
 22 20  1  0  0  0  0
 24 14  1  0  0  0  0
 24 25  1  0  0  0  0
 25 27  1  0  0  0  0
 26 27  1  0  0  0  0
 27 28  1  0  0  0  0
 29 34  1  0  0  0  0
 29 32  2  0  0  0  0
 31 29  1  0  0  0  0
 33 30  2  0  0  0  0
 33 31  1  0  0  0  0
 34 35  1  0  0  0  0
 35 36  1  0  0  0  0
 36 41  1  0  0  0  0
 37 38  2  0  0  0  0
 39 37  1  0  0  0  0
 40 38  1  0  0  0  0
 40 45  1  0  0  0  0
 41 39  1  0  0  0  0
 41 42  1  0  0  0  0
 42 40  2  0  0  0  0
 44 45  1  0  0  0  0
 45 43  2  0  0  0  0
 46 44  1  0  0  0  0
 47 46  1  0  0  0  0
 48 46  1  0  0  0  0
M  END
>  <MODEL>
4

>  <REMARK>
 VINA RESULT:      -7.3      2.365      3.906
  Name = 
  15 active torsions:
  status: ('A' for Active; 'I' for Inactive)
    1  A    between atoms: C_1  and  O_36
    2  A    between atoms: C_2  and  N_22
    3  A    between atoms: C_2  and  C_39
    4  A    between atoms: C_2  and  C_42
    5  A    between atoms: C_4  and  C_5
    6  A    between atoms: C_5  and  C_33
    7  A    between atoms: C_9  and  C_13
    8  A    between atoms: C_10  and  C_14
    9  A    between atoms: C_14  and  C_26
   10  A    between atoms: C_17  and  C_26
   11  A    between atoms: C_17  and  N_29
   12  A    between atoms: C_19  and  N_35
   13  A    between atoms: N_25  and  C_33
   14  A    between atoms: C_28  and  C_44
   15  A    between atoms: O_36  and  P_43
                            x       y       z     vdW  Elec       q    Type
                         _______ _______ _______ _____ _____    ______ ____

>  <TORSDO>
F 15

$$$$
=
 OpenBabel10232410393D

 48 51  0  0  1  0  0  0  0  0999 V2000
  189.5790  175.3740  136.7390 C   0  0  2  0  0  3  0  0  0  0  0  0
  194.2190  175.0700  137.0970 C   0  0  1  0  0  3  0  0  0  0  0  0
  192.9700  174.3480  137.6080 C   0  0  0  0  0  2  0  0  0  0  0  0
  190.6760  175.1640  134.6440 C   0  0  0  0  0  2  0  0  0  0  0  0
  192.9460  176.1170  135.1970 C   0  0  0  0  0  2  0  0  0  0  0  0
  190.5200  176.0370  135.8330 N   0  0  0  0  0  0  0  0  0  0  0  0
  193.8270  176.3840  136.4150 C   0  0  0  0  0  2  0  0  0  0  0  0
  192.0260  174.0030  136.4580 C   0  0  0  0  0  2  0  0  0  0  0  0
  191.7600  175.2550  135.6060 C   0  0  1  0  0  0  0  0  0  0  0  0
  195.0700  175.3340  138.1720 O   0  0  0  0  0  0  0  0  0  0  0  0
  197.3710  174.2110  137.4500 C   0  0  0  0  0  1  0  0  0  0  0  0
  196.5790  174.3300  139.9890 O   0  0  0  0  0  1  0  0  0  0  0  0
  195.8720  173.8260  138.4830 P   0  0  1  0  0  0  0  0  0  0  0  0
  186.4390  174.2930  135.2930 C   0  0  0  0  0  0  0  0  0  0  0  0
  186.3510  175.7240  134.8400 C   0  0  2  0  0  3  0  0  0  0  0  0
  188.0900  177.5360  135.3410 O   0  0  0  0  0  1  0  0  0  0  0  0
  187.5050  174.0400  135.9830 N   0  0  0  0  0  0  0  0  0  0  0  0
  187.6080  176.2390  135.4600 C   0  0  0  0  0  0  0  0  0  0  0  0
  188.2230  175.2600  136.1010 C   0  0  0  0  0  0  0  0  0  0  0  0
  185.1110  176.4430  135.3870 C   0  0  0  0  0  0  0  0  0  0  0  0
  184.9030  177.6010  134.6630 F   0  0  0  0  0  0  0  0  0  0  0  0
  184.0020  175.6280  135.2440 F   0  0  0  0  0  0  0  0  0  0  0  0
  185.2700  176.7650  136.7280 F   0  0  0  0  0  0  0  0  0  0  0  0
  185.4610  173.2290  134.9170 C   0  0  0  0  0  2  0  0  0  0  0  0
  185.0200  172.4670  136.1590 C   0  0  0  0  0  2  0  0  0  0  0  0
  183.1780  171.3040  136.9750 C   0  0  0  0  0  1  0  0  0  0  0  0
  183.5730  172.5080  136.2720 N   0  0  0  0  0  0  0  0  0  0  0  0
  183.0430  172.3950  134.9240 C   0  0  0  0  0  1  0  0  0  0  0  0
  190.6930  177.2620  139.9670 C   0  0  0  0  0  0  0  0  0  0  0  0
  188.3160  176.4790  138.4290 O   0  0  0  0  0  0  0  0  0  0  0  0
  190.6490  176.5200  138.7410 N   0  0  0  0  0  2  0  0  0  0  0  0
  191.8120  177.5550  140.4650 O   0  0  0  0  0  0  0  0  0  0  0  0
  189.4630  176.1450  138.0190 C   0  0  0  0  0  0  0  0  0  0  0  0
  189.4520  177.6790  140.6820 C   0  0  0  0  0  2  0  0  0  0  0  0
  189.7000  177.7390  142.1790 C   0  0  0  0  0  2  0  0  0  0  0  0
  188.9440  176.6200  142.8760 C   0  0  0  0  0  2  0  0  0  0  0  0
  188.0360  177.5630  146.4410 C   0  0  0  0  0  3  0  0  0  0  0  0
  186.7470  177.8660  146.2690 C   0  0  0  0  0  3  0  0  0  0  0  0
  188.9610  177.3780  145.2710 C   0  0  0  0  0  2  0  0  0  0  0  0
  186.1450  177.9650  144.9240 C   0  0  0  0  0  0  0  0  0  0  0  0
  188.2180  177.1310  144.0290 N   0  0  0  0  0  0  0  0  0  0  0  0
  186.8720  177.5990  143.8630 C   0  0  0  0  0  3  0  0  0  0  0  0
  184.1630  178.9860  145.7140 O   0  0  0  0  0  0  0  0  0  0  0  0
  184.0960  178.4940  143.4500 N   0  0  0  0  0  2  0  0  0  0  0  0
  184.7780  178.5050  144.7180 C   0  0  0  0  0  0  0  0  0  0  0  0
  184.6200  178.2080  142.1170 C   0  0  0  0  0  3  0  0  0  0  0  0
  185.4450  179.3590  141.5760 C   0  0  0  0  0  1  0  0  0  0  0  0
  183.5310  177.7760  141.1470 C   0  0  0  0  0  1  0  0  0  0  0  0
  1 33  1  1  0  0  0
  2  3  1  0  0  0  0
  2 10  1  1  0  0  0
  4  6  1  0  0  0  0
  5  9  1  0  0  0  0
  5  7  1  0  0  0  0
  6  1  1  0  0  0  0
  7  2  1  0  0  0  0
  8  3  1  0  0  0  0
  9  4  1  6  0  0  0
  9  6  1  0  0  0  0
  9  8  1  0  0  0  0
 10 13  1  0  0  0  0
 13 11  1  6  0  0  0
 13 12  1  0  0  0  0
 14 17  2  0  0  0  0
 15 14  1  0  0  0  0
 15 20  1  1  0  0  0
 15 18  1  0  0  0  0
 16 18  1  0  0  0  0
 17 19  1  0  0  0  0
 18 19  2  0  0  0  0
 19  1  1  0  0  0  0
 20 23  1  0  0  0  0
 21 20  1  0  0  0  0
 22 20  1  0  0  0  0
 24 14  1  0  0  0  0
 24 25  1  0  0  0  0
 25 27  1  0  0  0  0
 27 26  1  0  0  0  0
 28 27  1  0  0  0  0
 29 32  2  0  0  0  0
 29 34  1  0  0  0  0
 31 29  1  0  0  0  0
 33 30  2  0  0  0  0
 33 31  1  0  0  0  0
 34 35  1  0  0  0  0
 35 36  1  0  0  0  0
 36 41  1  0  0  0  0
 38 37  2  0  0  0  0
 39 37  1  0  0  0  0
 40 38  1  0  0  0  0
 41 39  1  0  0  0  0
 42 41  1  0  0  0  0
 42 40  2  0  0  0  0
 44 45  1  0  0  0  0
 45 40  1  0  0  0  0
 45 43  2  0  0  0  0
 46 44  1  0  0  0  0
 47 46  1  0  0  0  0
 48 46  1  0  0  0  0
M  END
>  <MODEL>
5

>  <REMARK>
 VINA RESULT:      -7.1      2.335      3.490
  Name = 
  15 active torsions:
  status: ('A' for Active; 'I' for Inactive)
    1  A    between atoms: C_1  and  O_36
    2  A    between atoms: C_2  and  N_22
    3  A    between atoms: C_2  and  C_39
    4  A    between atoms: C_2  and  C_42
    5  A    between atoms: C_4  and  C_5
    6  A    between atoms: C_5  and  C_33
    7  A    between atoms: C_9  and  C_13
    8  A    between atoms: C_10  and  C_14
    9  A    between atoms: C_14  and  C_26
   10  A    between atoms: C_17  and  C_26
   11  A    between atoms: C_17  and  N_29
   12  A    between atoms: C_19  and  N_35
   13  A    between atoms: N_25  and  C_33
   14  A    between atoms: C_28  and  C_44
   15  A    between atoms: O_36  and  P_43
                            x       y       z     vdW  Elec       q    Type
                         _______ _______ _______ _____ _____    ______ ____

>  <TORSDO>
F 15

$$$$
=
 OpenBabel10232410393D

 48 51  0  0  1  0  0  0  0  0999 V2000
  188.9970  177.2200  140.5300 C   0  0  2  0  0  3  0  0  0  0  0  0
  189.7230  177.6060  145.1210 C   0  0  1  0  0  3  0  0  0  0  0  0
  189.0090  176.6770  144.1370 C   0  0  0  0  0  2  0  0  0  0  0  0
  191.2960  177.2900  141.1200 C   0  0  0  0  0  2  0  0  0  0  0  0
  191.1890  178.5460  143.3050 C   0  0  0  0  0  2  0  0  0  0  0  0
  190.0310  178.0650  141.1310 N   0  0  0  0  0  0  0  0  0  0  0  0
  190.1830  178.8800  144.4040 C   0  0  0  0  0  2  0  0  0  0  0  0
  189.9410  176.2540  143.0040 C   0  0  0  0  0  2  0  0  0  0  0  0
  190.5990  177.4940  142.3770 C   0  0  1  0  0  0  0  0  0  0  0  0
  188.8500  177.9390  146.1570 O   0  0  0  0  0  0  0  0  0  0  0  0
  191.1170  176.9110  147.0950 C   0  0  0  0  0  1  0  0  0  0  0  0
  189.3570  178.1460  148.6650 O   0  0  0  0  0  1  0  0  0  0  0  0
  189.2950  176.8890  147.4670 P   0  0  1  0  0  0  0  0  0  0  0  0
  189.9410  175.9120  137.2870 C   0  0  0  0  0  0  0  0  0  0  0  0
  189.8090  177.3470  136.8590 C   0  0  2  0  0  3  0  0  0  0  0  0
  189.1140  179.2810  138.3890 O   0  0  0  0  0  1  0  0  0  0  0  0
  189.6670  175.7240  138.5380 N   0  0  0  0  0  0  0  0  0  0  0  0
  189.3630  177.9340  138.1580 C   0  0  0  0  0  0  0  0  0  0  0  0
  189.2890  176.9840  139.0740 C   0  0  0  0  0  0  0  0  0  0  0  0
  188.7580  177.5420  135.7580 C   0  0  0  0  0  0  0  0  0  0  0  0
  188.2350  178.8180  135.8510 F   0  0  0  0  0  0  0  0  0  0  0  0
  189.3540  177.3990  134.5170 F   0  0  0  0  0  0  0  0  0  0  0  0
  187.7290  176.6180  135.8780 F   0  0  0  0  0  0  0  0  0  0  0  0
  190.4330  174.8130  136.4040 C   0  0  0  0  0  2  0  0  0  0  0  0
  191.7960  174.3330  136.8830 C   0  0  0  0  0  2  0  0  0  0  0  0
  193.8050  174.5820  135.7370 C   0  0  0  0  0  1  0  0  0  0  0  0
  192.8140  175.3000  136.5130 N   0  0  0  0  0  0  0  0  0  0  0  0
  193.4670  175.7130  137.7420 C   0  0  0  0  0  1  0  0  0  0  0  0
  185.9190  178.8880  142.2530 C   0  0  0  0  0  0  0  0  0  0  0  0
  186.9730  178.0950  139.6280 O   0  0  0  0  0  0  0  0  0  0  0  0
  187.1730  178.2540  141.9690 N   0  0  0  0  0  2  0  0  0  0  0  0
  185.6490  179.2060  143.4410 O   0  0  0  0  0  0  0  0  0  0  0  0
  187.6530  177.8690  140.6690 C   0  0  0  0  0  0  0  0  0  0  0  0
  184.9150  179.1650  141.1850 C   0  0  0  0  0  2  0  0  0  0  0  0
  183.7630  178.1790  141.2750 C   0  0  0  0  0  2  0  0  0  0  0  0
  182.6650  178.5690  140.3000 C   0  0  0  0  0  2  0  0  0  0  0  0
  181.0230  175.5040  138.7770 C   0  0  0  0  0  3  0  0  0  0  0  0
  181.9250  175.2130  137.8360 C   0  0  0  0  0  3  0  0  0  0  0  0
  181.0510  176.8140  139.5120 C   0  0  0  0  0  2  0  0  0  0  0  0
  183.0380  176.1290  137.5180 C   0  0  0  0  0  0  0  0  0  0  0  0
  182.3610  177.4680  139.4010 N   0  0  0  0  0  0  0  0  0  0  0  0
  183.2310  177.2030  138.2910 C   0  0  0  0  0  3  0  0  0  0  0  0
  183.8160  176.7140  135.3630 O   0  0  0  0  0  0  0  0  0  0  0  0
  184.8590  174.8340  136.2290 N   0  0  0  0  0  2  0  0  0  0  0  0
  183.9140  175.9150  136.3390 C   0  0  0  0  0  0  0  0  0  0  0  0
  185.3330  173.9080  137.2530 C   0  0  0  0  0  3  0  0  0  0  0  0
  186.8070  173.5920  137.0890 C   0  0  0  0  0  1  0  0  0  0  0  0
  184.4820  172.6500  137.3370 C   0  0  0  0  0  1  0  0  0  0  0  0
  1 33  1  6  0  0  0
  1  6  1  0  0  0  0
  2 10  1  1  0  0  0
  3  2  1  0  0  0  0
  4  6  1  0  0  0  0
  5  7  1  0  0  0  0
  6  9  1  0  0  0  0
  7  2  1  0  0  0  0
  8  3  1  0  0  0  0
  9  4  1  6  0  0  0
  9  8  1  0  0  0  0
  9  5  1  0  0  0  0
 10 13  1  0  0  0  0
 13 11  1  6  0  0  0
 13 12  1  0  0  0  0
 14 17  2  0  0  0  0
 15 20  1  6  0  0  0
 15 14  1  0  0  0  0
 15 18  1  0  0  0  0
 17 19  1  0  0  0  0
 18 16  1  0  0  0  0
 18 19  2  0  0  0  0
 19  1  1  0  0  0  0
 20 21  1  0  0  0  0
 20 23  1  0  0  0  0
 22 20  1  0  0  0  0
 24 25  1  0  0  0  0
 24 14  1  0  0  0  0
 26 27  1  0  0  0  0
 27 25  1  0  0  0  0
 27 28  1  0  0  0  0
 29 32  2  0  0  0  0
 30 33  2  0  0  0  0
 31 29  1  0  0  0  0
 33 31  1  0  0  0  0
 34 35  1  0  0  0  0
 34 29  1  0  0  0  0
 36 35  1  0  0  0  0
 37 39  1  0  0  0  0
 38 37  2  0  0  0  0
 40 38  1  0  0  0  0
 40 42  2  0  0  0  0
 41 39  1  0  0  0  0
 41 36  1  0  0  0  0
 42 41  1  0  0  0  0
 43 45  2  0  0  0  0
 44 45  1  0  0  0  0
 44 46  1  0  0  0  0
 45 40  1  0  0  0  0
 46 48  1  0  0  0  0
 47 46  1  0  0  0  0
M  END
>  <MODEL>
6

>  <REMARK>
 VINA RESULT:      -7.1      3.593      8.730
  Name = 
  15 active torsions:
  status: ('A' for Active; 'I' for Inactive)
    1  A    between atoms: C_1  and  O_36
    2  A    between atoms: C_2  and  N_22
    3  A    between atoms: C_2  and  C_39
    4  A    between atoms: C_2  and  C_42
    5  A    between atoms: C_4  and  C_5
    6  A    between atoms: C_5  and  C_33
    7  A    between atoms: C_9  and  C_13
    8  A    between atoms: C_10  and  C_14
    9  A    between atoms: C_14  and  C_26
   10  A    between atoms: C_17  and  C_26
   11  A    between atoms: C_17  and  N_29
   12  A    between atoms: C_19  and  N_35
   13  A    between atoms: N_25  and  C_33
   14  A    between atoms: C_28  and  C_44
   15  A    between atoms: O_36  and  P_43
                            x       y       z     vdW  Elec       q    Type
                         _______ _______ _______ _____ _____    ______ ____

>  <TORSDO>
F 15

$$$$
=
 OpenBabel10232410393D

 48 51  0  0  1  0  0  0  0  0999 V2000
  188.8800  177.9900  140.9550 C   0  0  2  0  0  3  0  0  0  0  0  0
  189.3280  177.3620  136.3550 C   0  0  1  0  0  3  0  0  0  0  0  0
  189.2800  178.5100  137.3660 C   0  0  0  0  0  2  0  0  0  0  0  0
  190.7060  176.5920  140.3660 C   0  0  0  0  0  2  0  0  0  0  0  0
  189.9210  175.6950  138.1420 C   0  0  0  0  0  2  0  0  0  0  0  0
  189.2290  176.7130  140.3280 N   0  0  0  0  0  0  0  0  0  0  0  0
  188.9340  176.0460  137.0320 C   0  0  0  0  0  2  0  0  0  0  0  0
  190.2600  178.2730  138.5130 C   0  0  0  0  0  2  0  0  0  0  0  0
  190.0480  176.8690  139.1020 C   0  0  1  0  0  0  0  0  0  0  0  0
  188.4470  177.6340  135.3070 O   0  0  0  0  0  0  0  0  0  0  0  0
  185.8770  177.6560  134.6200 C   0  0  0  0  0  1  0  0  0  0  0  0
  187.4050  175.4930  134.3470 O   0  0  0  0  0  1  0  0  0  0  0  0
  187.0650  176.6290  135.6180 P   0  0  1  0  0  0  0  0  0  0  0  0
  188.3380  177.6170  144.5160 C   0  0  0  0  0  0  0  0  0  0  0  0
  189.7300  178.1750  144.6140 C   0  0  2  0  0  3  0  0  0  0  0  0
  191.2020  178.8160  142.6180 O   0  0  0  0  0  1  0  0  0  0  0  0
  187.9260  177.4820  143.2960 N   0  0  0  0  0  0  0  0  0  0  0  0
  190.0300  178.3000  143.1570 C   0  0  0  0  0  0  0  0  0  0  0  0
  188.9900  177.8920  142.4500 C   0  0  0  0  0  0  0  0  0  0  0  0
  190.7040  177.2180  145.3140 C   0  0  0  0  0  0  0  0  0  0  0  0
  191.9810  177.7400  145.2460 F   0  0  0  0  0  0  0  0  0  0  0  0
  190.3500  177.0900  146.6460 F   0  0  0  0  0  0  0  0  0  0  0  0
  190.6910  175.9650  144.7170 F   0  0  0  0  0  0  0  0  0  0  0  0
  187.4610  177.3320  145.6910 C   0  0  0  0  0  2  0  0  0  0  0  0
  186.0030  177.5600  145.3170 C   0  0  0  0  0  2  0  0  0  0  0  0
  185.9900  178.8600  147.2450 C   0  0  0  0  0  1  0  0  0  0  0  0
  185.5470  178.8240  145.8670 N   0  0  0  0  0  0  0  0  0  0  0  0
  184.0960  178.7710  145.8960 C   0  0  0  0  0  1  0  0  0  0  0  0
  185.1840  179.1580  141.4050 C   0  0  0  0  0  0  0  0  0  0  0  0
  187.1600  178.4120  139.3630 O   0  0  0  0  0  0  0  0  0  0  0  0
  186.5440  178.7530  141.6100 N   0  0  0  0  0  2  0  0  0  0  0  0
  184.4900  179.4940  142.4000 O   0  0  0  0  0  0  0  0  0  0  0  0
  187.4830  178.3840  140.5840 C   0  0  0  0  0  0  0  0  0  0  0  0
  184.5610  179.1730  140.0500 C   0  0  0  0  0  2  0  0  0  0  0  0
  183.0990  178.7700  140.1360 C   0  0  0  0  0  2  0  0  0  0  0  0
  182.9840  177.3210  140.5780 C   0  0  0  0  0  2  0  0  0  0  0  0
  180.1970  175.3470  138.9200 C   0  0  0  0  0  3  0  0  0  0  0  0
  180.8660  174.8530  137.8750 C   0  0  0  0  0  3  0  0  0  0  0  0
  180.7740  176.4400  139.7750 C   0  0  0  0  0  2  0  0  0  0  0  0
  182.2340  175.3000  137.5470 C   0  0  0  0  0  0  0  0  0  0  0  0
  182.2280  176.5460  139.6070 N   0  0  0  0  0  0  0  0  0  0  0  0
  182.8710  176.1100  138.4000 C   0  0  0  0  0  3  0  0  0  0  0  0
  182.9500  175.7690  135.3420 O   0  0  0  0  0  0  0  0  0  0  0  0
  183.4720  173.6200  136.0330 N   0  0  0  0  0  2  0  0  0  0  0  0
  182.8980  174.9170  136.2770 C   0  0  0  0  0  0  0  0  0  0  0  0
  183.7470  172.5350  136.9720 C   0  0  0  0  0  3  0  0  0  0  0  0
  185.0330  172.7670  137.7410 C   0  0  0  0  0  1  0  0  0  0  0  0
  183.7150  171.1690  136.3040 C   0  0  0  0  0  1  0  0  0  0  0  0
  1 33  1  1  0  0  0
  1 19  1  0  0  0  0
  2 10  1  6  0  0  0
  2  7  1  0  0  0  0
  2  3  1  0  0  0  0
  3  8  1  0  0  0  0
  6  4  1  0  0  0  0
  6  1  1  0  0  0  0
  7  5  1  0  0  0  0
  8  9  1  0  0  0  0
  9  5  1  6  0  0  0
  9  6  1  0  0  0  0
  9  4  1  0  0  0  0
 10 13  1  0  0  0  0
 12 13  1  0  0  0  0
 13 11  1  6  0  0  0
 14 15  1  0  0  0  0
 14 24  1  0  0  0  0
 15 20  1  6  0  0  0
 16 18  1  0  0  0  0
 17 14  2  0  0  0  0
 18 15  1  0  0  0  0
 19 18  2  0  0  0  0
 19 17  1  0  0  0  0
 20 22  1  0  0  0  0
 21 20  1  0  0  0  0
 23 20  1  0  0  0  0
 25 24  1  0  0  0  0
 25 27  1  0  0  0  0
 27 28  1  0  0  0  0
 27 26  1  0  0  0  0
 29 31  1  0  0  0  0
 29 32  2  0  0  0  0
 30 33  2  0  0  0  0
 33 31  1  0  0  0  0
 34 35  1  0  0  0  0
 34 29  1  0  0  0  0
 35 36  1  0  0  0  0
 37 39  1  0  0  0  0
 38 37  2  0  0  0  0
 40 38  1  0  0  0  0
 40 42  2  0  0  0  0
 41 39  1  0  0  0  0
 41 36  1  0  0  0  0
 42 41  1  0  0  0  0
 43 45  2  0  0  0  0
 44 45  1  0  0  0  0
 44 46  1  0  0  0  0
 45 40  1  0  0  0  0
 46 47  1  0  0  0  0
 48 46  1  0  0  0  0
M  END
>  <MODEL>
7

>  <REMARK>
 VINA RESULT:      -6.9      4.575      8.959
  Name = 
  15 active torsions:
  status: ('A' for Active; 'I' for Inactive)
    1  A    between atoms: C_1  and  O_36
    2  A    between atoms: C_2  and  N_22
    3  A    between atoms: C_2  and  C_39
    4  A    between atoms: C_2  and  C_42
    5  A    between atoms: C_4  and  C_5
    6  A    between atoms: C_5  and  C_33
    7  A    between atoms: C_9  and  C_13
    8  A    between atoms: C_10  and  C_14
    9  A    between atoms: C_14  and  C_26
   10  A    between atoms: C_17  and  C_26
   11  A    between atoms: C_17  and  N_29
   12  A    between atoms: C_19  and  N_35
   13  A    between atoms: N_25  and  C_33
   14  A    between atoms: C_28  and  C_44
   15  A    between atoms: O_36  and  P_43
                            x       y       z     vdW  Elec       q    Type
                         _______ _______ _______ _____ _____    ______ ____

>  <TORSDO>
F 15

$$$$
=
 OpenBabel10232410393D

 48 51  0  0  1  0  0  0  0  0999 V2000
  188.9760  176.1750  137.7180 C   0  0  2  0  0  3  0  0  0  0  0  0
  192.8540  174.1900  136.0500 C   0  0  1  0  0  3  0  0  0  0  0  0
  191.6430  173.8190  136.9090 C   0  0  0  0  0  2  0  0  0  0  0  0
  189.1540  176.2880  135.3520 C   0  0  0  0  0  2  0  0  0  0  0  0
  191.6570  176.1660  135.0560 C   0  0  0  0  0  2  0  0  0  0  0  0
  189.7790  176.7270  136.6230 N   0  0  0  0  0  0  0  0  0  0  0  0
  192.8950  175.7040  135.8200 C   0  0  0  0  0  2  0  0  0  0  0  0
  190.3380  174.2140  136.2180 C   0  0  0  0  0  2  0  0  0  0  0  0
  190.4040  175.6840  135.7740 C   0  0  1  0  0  0  0  0  0  0  0  0
  194.0200  173.7820  136.6980 O   0  0  0  0  0  0  0  0  0  0  0  0
  196.5180  174.6900  136.8080 C   0  0  0  0  0  1  0  0  0  0  0  0
  195.8760  172.4390  135.5400 O   0  0  0  0  0  1  0  0  0  0  0  0
  195.2910  174.0750  135.5520 P   0  0  1  0  0  0  0  0  0  0  0  0
  185.4120  176.2940  137.0860 C   0  0  0  0  0  0  0  0  0  0  0  0
  185.6140  177.7790  137.1980 C   0  0  2  0  0  3  0  0  0  0  0  0
  187.8500  178.9270  137.6950 O   0  0  0  0  0  1  0  0  0  0  0  0
  186.4990  175.6150  137.2660 N   0  0  0  0  0  0  0  0  0  0  0  0
  187.0730  177.7890  137.5160 C   0  0  0  0  0  0  0  0  0  0  0  0
  187.5300  176.5490  137.5520 C   0  0  0  0  0  0  0  0  0  0  0  0
  184.7840  178.4060  138.3260 C   0  0  0  0  0  0  0  0  0  0  0  0
  185.2150  179.7010  138.5400 F   0  0  0  0  0  0  0  0  0  0  0  0
  183.4510  178.4410  137.9550 F   0  0  0  0  0  0  0  0  0  0  0  0
  184.9100  177.6820  139.5030 F   0  0  0  0  0  0  0  0  0  0  0  0
  184.1200  175.6470  136.7080 C   0  0  0  0  0  2  0  0  0  0  0  0
  184.3880  174.4010  135.8750 C   0  0  0  0  0  2  0  0  0  0  0  0
  184.2020  172.4330  137.1020 C   0  0  0  0  0  1  0  0  0  0  0  0
  183.4630  173.3480  136.2560 N   0  0  0  0  0  0  0  0  0  0  0  0
  183.1340  172.6200  135.0430 C   0  0  0  0  0  1  0  0  0  0  0  0
  191.4940  177.4510  140.4110 C   0  0  0  0  0  0  0  0  0  0  0  0
  188.6440  176.9020  139.9610 O   0  0  0  0  0  0  0  0  0  0  0  0
  190.8770  176.9530  139.2170 N   0  0  0  0  0  2  0  0  0  0  0  0
  192.7320  177.6780  140.4110 O   0  0  0  0  0  0  0  0  0  0  0  0
  189.4750  176.6860  139.0350 C   0  0  0  0  0  0  0  0  0  0  0  0
  190.7160  177.6880  141.6620 C   0  0  0  0  0  2  0  0  0  0  0  0
  191.3870  177.0020  142.8390 C   0  0  0  0  0  2  0  0  0  0  0  0
  191.6040  177.9970  143.9660 C   0  0  0  0  0  2  0  0  0  0  0  0
  190.7590  176.2710  147.2410 C   0  0  0  0  0  3  0  0  0  0  0  0
  189.4610  176.5710  147.3220 C   0  0  0  0  0  3  0  0  0  0  0  0
  191.6610  176.9490  146.2480 C   0  0  0  0  0  2  0  0  0  0  0  0
  188.8260  177.5290  146.3950 C   0  0  0  0  0  0  0  0  0  0  0  0
  190.8950  177.5780  145.1650 N   0  0  0  0  0  0  0  0  0  0  0  0
  189.5360  177.9940  145.3610 C   0  0  0  0  0  3  0  0  0  0  0  0
  187.1060  178.3840  147.7750 O   0  0  0  0  0  0  0  0  0  0  0  0
  186.4510  178.1050  145.5700 N   0  0  0  0  0  2  0  0  0  0  0  0
  187.4440  178.0260  146.6100 C   0  0  0  0  0  0  0  0  0  0  0  0
  186.6080  177.9680  144.1240 C   0  0  0  0  0  3  0  0  0  0  0  0
  185.3500  178.3730  143.3800 C   0  0  0  0  0  1  0  0  0  0  0  0
  187.0940  176.5850  143.7220 C   0  0  0  0  0  1  0  0  0  0  0  0
  1 33  1  1  0  0  0
  2 10  1  1  0  0  0
  2  3  1  0  0  0  0
  4  9  1  0  0  0  0
  4  6  1  0  0  0  0
  5  7  1  0  0  0  0
  6  1  1  0  0  0  0
  7  2  1  0  0  0  0
  8  3  1  0  0  0  0
  9  5  1  6  0  0  0
  9  8  1  0  0  0  0
  9  6  1  0  0  0  0
 12 13  1  0  0  0  0
 13 10  1  0  0  0  0
 13 11  1  1  0  0  0
 14 15  1  0  0  0  0
 14 17  2  0  0  0  0
 15 18  1  0  0  0  0
 15 20  1  1  0  0  0
 17 19  1  0  0  0  0
 18 19  2  0  0  0  0
 18 16  1  0  0  0  0
 19  1  1  0  0  0  0
 20 21  1  0  0  0  0
 20 23  1  0  0  0  0
 22 20  1  0  0  0  0
 24 14  1  0  0  0  0
 25 27  1  0  0  0  0
 25 24  1  0  0  0  0
 27 26  1  0  0  0  0
 28 27  1  0  0  0  0
 29 32  2  0  0  0  0
 29 34  1  0  0  0  0
 31 29  1  0  0  0  0
 33 31  1  0  0  0  0
 33 30  2  0  0  0  0
 34 35  1  0  0  0  0
 35 36  1  0  0  0  0
 36 41  1  0  0  0  0
 37 38  2  0  0  0  0
 39 37  1  0  0  0  0
 40 45  1  0  0  0  0
 40 38  1  0  0  0  0
 41 42  1  0  0  0  0
 41 39  1  0  0  0  0
 42 40  2  0  0  0  0
 44 45  1  0  0  0  0
 45 43  2  0  0  0  0
 46 44  1  0  0  0  0
 47 46  1  0  0  0  0
 48 46  1  0  0  0  0
M  END
>  <MODEL>
8

>  <REMARK>
 VINA RESULT:      -6.9      2.183      3.061
  Name = 
  15 active torsions:
  status: ('A' for Active; 'I' for Inactive)
    1  A    between atoms: C_1  and  O_36
    2  A    between atoms: C_2  and  N_22
    3  A    between atoms: C_2  and  C_39
    4  A    between atoms: C_2  and  C_42
    5  A    between atoms: C_4  and  C_5
    6  A    between atoms: C_5  and  C_33
    7  A    between atoms: C_9  and  C_13
    8  A    between atoms: C_10  and  C_14
    9  A    between atoms: C_14  and  C_26
   10  A    between atoms: C_17  and  C_26
   11  A    between atoms: C_17  and  N_29
   12  A    between atoms: C_19  and  N_35
   13  A    between atoms: N_25  and  C_33
   14  A    between atoms: C_28  and  C_44
   15  A    between atoms: O_36  and  P_43
                            x       y       z     vdW  Elec       q    Type
                         _______ _______ _______ _____ _____    ______ ____

>  <TORSDO>
F 15

$$$$
=
 OpenBabel10232410393D

 48 51  0  0  1  0  0  0  0  0999 V2000
  188.8260  177.2750  140.4890 C   0  0  2  0  0  3  0  0  0  0  0  0
  189.9790  177.6730  144.9910 C   0  0  1  0  0  3  0  0  0  0  0  0
  189.1440  176.7630  144.0870 C   0  0  0  0  0  2  0  0  0  0  0  0
  191.1700  177.2630  140.8690 C   0  0  0  0  0  2  0  0  0  0  0  0
  191.3080  178.5410  143.0400 C   0  0  0  0  0  2  0  0  0  0  0  0
  189.9410  178.0850  140.9850 N   0  0  0  0  0  0  0  0  0  0  0  0
  190.4180  178.9220  144.2210 C   0  0  0  0  0  2  0  0  0  0  0  0
  189.9540  176.2950  142.8790 C   0  0  0  0  0  2  0  0  0  0  0  0
  190.5980  177.5040  142.1810 C   0  0  1  0  0  0  0  0  0  0  0  0
  189.2160  178.0470  146.0980 O   0  0  0  0  0  0  0  0  0  0  0  0
  191.4280  176.8370  146.9460 C   0  0  0  0  0  1  0  0  0  0  0  0
  189.7330  178.0370  148.6120 O   0  0  0  0  0  1  0  0  0  0  0  0
  189.6060  176.8800  147.3220 P   0  0  1  0  0  0  0  0  0  0  0  0
  189.1750  176.1360  137.0690 C   0  0  0  0  0  0  0  0  0  0  0  0
  189.2010  177.6070  136.7610 C   0  0  2  0  0  3  0  0  0  0  0  0
  188.9820  179.4780  138.4970 O   0  0  0  0  0  1  0  0  0  0  0  0
  189.0290  175.8800  138.3290 N   0  0  0  0  0  0  0  0  0  0  0  0
  189.0040  178.1350  138.1440 C   0  0  0  0  0  0  0  0  0  0  0  0
  188.9040  177.1280  138.9950 C   0  0  0  0  0  0  0  0  0  0  0  0
  188.0650  178.0360  135.8230 C   0  0  0  0  0  0  0  0  0  0  0  0
  188.5160  177.9970  134.5180 F   0  0  0  0  0  0  0  0  0  0  0  0
  187.0040  177.1550  135.9490 F   0  0  0  0  0  0  0  0  0  0  0  0
  187.6290  179.3200  136.1180 F   0  0  0  0  0  0  0  0  0  0  0  0
  189.3930  175.0600  136.0560 C   0  0  0  0  0  2  0  0  0  0  0  0
  188.2660  174.0400  136.1320 C   0  0  0  0  0  2  0  0  0  0  0  0
  189.7400  172.6100  135.0400 C   0  0  0  0  0  1  0  0  0  0  0  0
  188.8200  172.6980  136.1560 N   0  0  0  0  0  0  0  0  0  0  0  0
  187.7270  171.7870  135.8680 C   0  0  0  0  0  1  0  0  0  0  0  0
  185.9050  178.5520  142.7400 C   0  0  0  0  0  0  0  0  0  0  0  0
  186.8050  178.4130  139.9470 O   0  0  0  0  0  0  0  0  0  0  0  0
  187.1160  177.9700  142.2380 N   0  0  0  0  0  2  0  0  0  0  0  0
  185.7030  178.5680  143.9820 O   0  0  0  0  0  0  0  0  0  0  0  0
  187.5200  177.9110  140.8590 C   0  0  0  0  0  0  0  0  0  0  0  0
  184.8680  179.1200  141.8310 C   0  0  0  0  0  2  0  0  0  0  0  0
  183.7750  178.0980  141.5720 C   0  0  0  0  0  2  0  0  0  0  0  0
  182.5390  178.7860  141.0170 C   0  0  0  0  0  2  0  0  0  0  0  0
  181.8570  178.8210  137.2820 C   0  0  0  0  0  3  0  0  0  0  0  0
  181.5160  177.5420  137.1060 C   0  0  0  0  0  3  0  0  0  0  0  0
  182.4950  179.2950  138.5580 C   0  0  0  0  0  2  0  0  0  0  0  0
  181.6780  176.5410  138.1790 C   0  0  0  0  0  0  0  0  0  0  0  0
  182.2740  178.3460  139.6560 N   0  0  0  0  0  0  0  0  0  0  0  0
  182.0370  176.9540  139.3990 C   0  0  0  0  0  3  0  0  0  0  0  0
  180.3280  174.6180  137.9100 O   0  0  0  0  0  0  0  0  0  0  0  0
  182.5950  174.1740  137.7200 N   0  0  0  0  0  2  0  0  0  0  0  0
  181.5030  175.0890  137.9260 C   0  0  0  0  0  0  0  0  0  0  0  0
  184.0080  174.4550  137.4770 C   0  0  0  0  0  3  0  0  0  0  0  0
  184.2340  175.0620  136.1050 C   0  0  0  0  0  1  0  0  0  0  0  0
  184.8900  173.2410  137.7210 C   0  0  0  0  0  1  0  0  0  0  0  0
  1 33  1  6  0  0  0
  1  6  1  0  0  0  0
  2 10  1  1  0  0  0
  3  2  1  0  0  0  0
  4  6  1  0  0  0  0
  5  7  1  0  0  0  0
  6  9  1  0  0  0  0
  7  2  1  0  0  0  0
  8  3  1  0  0  0  0
  9  4  1  6  0  0  0
  9  8  1  0  0  0  0
  9  5  1  0  0  0  0
 10 13  1  0  0  0  0
 13 11  1  6  0  0  0
 13 12  1  0  0  0  0
 14 17  2  0  0  0  0
 15 20  1  6  0  0  0
 15 14  1  0  0  0  0
 15 18  1  0  0  0  0
 17 19  1  0  0  0  0
 18 16  1  0  0  0  0
 18 19  2  0  0  0  0
 19  1  1  0  0  0  0
 20 22  1  0  0  0  0
 20 23  1  0  0  0  0
 21 20  1  0  0  0  0
 24 25  1  0  0  0  0
 24 14  1  0  0  0  0
 25 27  1  0  0  0  0
 26 27  1  0  0  0  0
 28 27  1  0  0  0  0
 29 32  2  0  0  0  0
 30 33  2  0  0  0  0
 31 29  1  0  0  0  0
 33 31  1  0  0  0  0
 34 29  1  0  0  0  0
 35 34  1  0  0  0  0
 36 35  1  0  0  0  0
 37 39  1  0  0  0  0
 38 37  2  0  0  0  0
 38 40  1  0  0  0  0
 39 41  1  0  0  0  0
 40 42  2  0  0  0  0
 41 36  1  0  0  0  0
 42 41  1  0  0  0  0
 43 45  2  0  0  0  0
 44 45  1  0  0  0  0
 45 40  1  0  0  0  0
 46 44  1  0  0  0  0
 46 48  1  0  0  0  0
 47 46  1  0  0  0  0
M  END
>  <MODEL>
9

>  <REMARK>
 VINA RESULT:      -6.9      4.025      8.511
  Name = 
  15 active torsions:
  status: ('A' for Active; 'I' for Inactive)
    1  A    between atoms: C_1  and  O_36
    2  A    between atoms: C_2  and  N_22
    3  A    between atoms: C_2  and  C_39
    4  A    between atoms: C_2  and  C_42
    5  A    between atoms: C_4  and  C_5
    6  A    between atoms: C_5  and  C_33
    7  A    between atoms: C_9  and  C_13
    8  A    between atoms: C_10  and  C_14
    9  A    between atoms: C_14  and  C_26
   10  A    between atoms: C_17  and  C_26
   11  A    between atoms: C_17  and  N_29
   12  A    between atoms: C_19  and  N_35
   13  A    between atoms: N_25  and  C_33
   14  A    between atoms: C_28  and  C_44
   15  A    between atoms: O_36  and  P_43
                            x       y       z     vdW  Elec       q    Type
                         _______ _______ _______ _____ _____    ______ ____

>  <TORSDO>
F 15

$$$$
