=
 OpenBabel10232410343D

 50 55  0  0  1  0  0  0  0  0999 V2000
  182.4080  176.6430  140.3290 C   0  0  0  0  0  2  0  0  0  0  0  0
  181.5110  174.1550  138.1630 C   0  0  0  0  0  1  0  0  0  0  0  0
  184.6850  179.1000  139.0930 C   0  0  2  0  0  3  0  0  0  0  0  0
  180.5900  177.4430  137.6780 C   0  0  0  0  0  2  0  0  0  0  0  0
  180.1700  176.0860  137.6970 O   0  0  0  0  0  0  0  0  0  0  0  0
  184.3810  178.1280  140.2280 C   0  0  2  0  0  3  0  0  0  0  0  0
  182.0030  177.5160  138.2100 C   0  0  2  0  0  3  0  0  0  0  0  0
  181.9940  176.3740  139.0960 C   0  0  2  0  0  3  0  0  0  0  0  0
  180.9100  175.4340  138.7120 C   0  0  0  0  0  0  0  0  0  0  0  0
  182.2650  178.6910  139.1480 C   0  0  2  0  0  3  0  0  0  0  0  0
  179.9820  175.0980  139.8710 C   0  0  0  0  0  1  0  0  0  0  0  0
  183.3380  179.5910  138.5700 C   0  0  0  0  0  2  0  0  0  0  0  0
  182.8710  178.0580  140.3990 C   0  0  1  0  0  3  0  0  0  0  0  0
  185.6090  179.6860  141.5280 O   0  0  0  0  0  0  0  0  0  0  0  0
  185.0560  178.5560  141.4890 C   0  0  0  0  0  0  0  0  0  0  0  0
  185.0660  177.6880  142.6330 N   0  0  0  0  0  2  0  0  0  0  0  0
  185.4840  178.0530  143.9540 C   0  0  0  0  0  0  0  0  0  0  0  0
  186.7680  177.7490  144.4270 C   0  0  0  0  0  3  0  0  0  0  0  0
  187.1710  178.1160  145.7210 C   0  0  0  0  0  0  0  0  0  0  0  0
  184.6000  178.7540  144.7790 C   0  0  0  0  0  3  0  0  0  0  0  0
  186.2640  178.8120  146.5370 C   0  0  0  0  0  3  0  0  0  0  0  0
  184.9870  179.1310  146.0670 C   0  0  0  0  0  3  0  0  0  0  0  0
  189.6240  177.9420  145.4350 C   0  0  0  0  0  3  0  0  0  0  0  0
  188.5410  177.7990  146.2130 C   0  0  0  0  0  0  0  0  0  0  0  0
  188.7480  177.3270  147.6040 C   0  0  0  0  0  0  0  0  0  0  0  0
  189.4010  178.1570  148.5610 N   0  0  0  0  0  1  0  0  0  0  0  0
  188.3380  176.1900  147.9620 O   0  0  0  0  0  0  0  0  0  0  0  0
  189.5510  178.3540  144.0690 N   0  0  0  0  0  2  0  0  0  0  0  0
  190.3440  177.7410  143.0910 N   0  0  0  0  0  2  0  0  0  0  0  0
  189.5460  176.6850  142.4920 C   0  0  0  0  0  2  0  0  0  0  0  0
  190.1900  175.4600  142.6640 O   0  0  0  0  0  1  0  0  0  0  0  0
  185.4980  178.4100  137.9840 C   0  0  1  0  0  3  0  0  0  0  0  0
  186.9630  178.7030  138.1270 C   0  0  0  0  0  0  0  0  0  0  0  0
  189.1170  179.4490  137.0570 C   0  0  0  0  0  1  0  0  0  0  0  0
  187.5380  178.5560  139.2410 O   0  0  0  0  0  0  0  0  0  0  0  0
  187.6990  179.1460  136.9860 N   0  0  0  0  0  2  0  0  0  0  0  0
  186.0900  176.2430  136.8960 C   0  0  2  0  0  3  0  0  0  0  0  0
  185.2740  176.8990  137.9950 C   0  0  2  0  0  3  0  0  0  0  0  0
  184.6070  176.4660  136.7030 C   0  0  0  0  0  2  0  0  0  0  0  0
  186.3410  174.7970  137.2750 C   0  0  0  0  0  2  0  0  0  0  0  0
  187.4420  174.2700  136.4900 N   0  0  0  0  0  2  0  0  0  0  0  0
  188.5260  175.2290  136.6000 C   0  0  0  0  0  2  0  0  0  0  0  0
  189.6610  174.6030  137.2540 N   0  0  0  0  0  2  0  0  0  0  0  0
  190.9630  177.5400  139.2720 C   0  0  0  0  0  2  0  0  0  0  0  0
  191.9840  175.0820  137.7710 C   0  0  0  0  0  2  0  0  0  0  0  0
  193.3930  176.8260  138.9810 C   0  0  0  0  0  2  0  0  0  0  0  0
  193.0170  176.1910  137.6390 C   0  0  0  0  0  2  0  0  0  0  0  0
  190.0990  176.3470  138.8860 C   0  0  0  0  0  2  0  0  0  0  0  0
  192.2310  177.0490  139.9550 C   0  0  0  0  0  2  0  0  0  0  0  0
  190.5840  175.6660  137.6080 C   0  0  0  0  0  3  0  0  0  0  0  0
  2  9  1  0  0  0  0
  3 32  1  6  0  0  0
  3  6  1  0  0  0  0
  4  5  1  0  0  0  0
  5  9  1  0  0  0  0
  6 13  1  0  0  0  0
  6 15  1  1  0  0  0
  7  4  1  1  0  0  0
  7  8  1  0  0  0  0
  7 10  1  0  0  0  0
  8  1  1  1  0  0  0
  9  8  1  0  0  0  0
  9 11  1  0  0  0  0
 10 12  1  6  0  0  0
 10 13  1  0  0  0  0
 12  3  1  0  0  0  0
 13  1  1  6  0  0  0
 15 14  2  0  0  0  0
 15 16  1  0  0  0  0
 16 17  1  0  0  0  0
 17 18  2  0  0  0  0
 17 20  1  0  0  0  0
 18 19  1  0  0  0  0
 19 24  1  0  0  0  0
 19 21  2  0  0  0  0
 20 22  2  0  0  0  0
 22 21  1  0  0  0  0
 23 24  2  0  0  0  0
 24 25  1  0  0  0  0
 25 27  2  0  0  0  0
 25 26  1  0  0  0  0
 28 23  1  0  0  0  0
 29 28  1  0  0  0  0
 30 31  1  0  0  0  0
 30 29  1  0  0  0  0
 32 33  1  1  0  0  0
 33 35  2  0  0  0  0
 36 34  1  0  0  0  0
 36 33  1  0  0  0  0
 37 40  1  1  0  0  0
 37 38  1  0  0  0  0
 38 32  1  6  0  0  0
 39 37  1  0  0  0  0
 39 38  1  0  0  0  0
 41 42  1  0  0  0  0
 41 40  1  0  0  0  0
 42 43  1  0  0  0  0
 43 50  1  0  0  0  0
 44 49  1  0  0  0  0
 46 49  1  0  0  0  0
 47 45  1  0  0  0  0
 47 46  1  0  0  0  0
 48 44  1  0  0  0  0
 50 45  1  0  0  0  0
 50 48  1  0  0  0  0
M  END
>  <MODEL>
1

>  <REMARK>
 VINA RESULT:      -7.6      0.000      0.000
  Name = 
  15 active torsions:
  status: ('A' for Active; 'I' for Inactive)
    1  A    between atoms: C_1  and  N_45
    2  A    between atoms: C_3  and  C_41
    3  A    between atoms: C_6  and  C_36
    4  A    between atoms: C_7  and  C_39
    5  A    between atoms: C_11  and  C_36
    6  A    between atoms: C_12  and  C_39
    7  A    between atoms: C_15  and  N_26
    8  A    between atoms: C_16  and  C_36
    9  A    between atoms: C_17  and  C_42
   10  A    between atoms: N_18  and  C_41
   11  A    between atoms: N_18  and  C_47
   12  A    between atoms: C_19  and  N_23
   13  A    between atoms: N_23  and  N_26
   14  A    between atoms: N_37  and  C_47
   15  A    between atoms: N_37  and  C_48
                            x       y       z     vdW  Elec       q    Type
                         _______ _______ _______ _____ _____    ______ ____

>  <TORSDO>
F 15

$$$$
=
 OpenBabel10232410343D

 50 55  0  0  1  0  0  0  0  0999 V2000
  192.4130  173.7780  137.0850 C   0  0  0  0  0  2  0  0  0  0  0  0
  195.1820  174.7410  138.8450 C   0  0  0  0  0  1  0  0  0  0  0  0
  189.9080  176.2670  136.5530 C   0  0  2  0  0  3  0  0  0  0  0  0
  194.4610  175.9910  135.7110 C   0  0  0  0  0  2  0  0  0  0  0  0
  195.4510  175.4360  136.5670 O   0  0  0  0  0  0  0  0  0  0  0  0
  190.1840  174.8440  137.0290 C   0  0  2  0  0  3  0  0  0  0  0  0
  193.1190  175.8880  136.4000 C   0  0  2  0  0  3  0  0  0  0  0  0
  193.3470  174.7140  137.2130 C   0  0  2  0  0  3  0  0  0  0  0  0
  194.8030  174.4910  137.3980 C   0  0  0  0  0  0  0  0  0  0  0  0
  191.9700  175.4690  135.4870 C   0  0  2  0  0  3  0  0  0  0  0  0
  195.2410  173.0890  136.9970 C   0  0  0  0  0  1  0  0  0  0  0  0
  190.9160  176.5570  135.4440 C   0  0  0  0  0  2  0  0  0  0  0  0
  191.3260  174.2810  136.1970 C   0  0  1  0  0  3  0  0  0  0  0  0
  188.9610  172.8530  137.4380 O   0  0  0  0  0  0  0  0  0  0  0  0
  188.9580  174.0000  136.9190 C   0  0  0  0  0  0  0  0  0  0  0  0
  187.7970  174.4970  136.2350 N   0  0  0  0  0  2  0  0  0  0  0  0
  186.5000  173.8890  136.2390 C   0  0  0  0  0  0  0  0  0  0  0  0
  185.3570  174.6000  136.6290 C   0  0  0  0  0  3  0  0  0  0  0  0
  184.0900  173.9970  136.6230 C   0  0  0  0  0  0  0  0  0  0  0  0
  186.3680  172.5640  135.8130 C   0  0  0  0  0  3  0  0  0  0  0  0
  183.9810  172.6620  136.2020 C   0  0  0  0  0  3  0  0  0  0  0  0
  185.1140  171.9500  135.7970 C   0  0  0  0  0  3  0  0  0  0  0  0
  181.6630  174.4800  136.5370 C   0  0  0  0  0  3  0  0  0  0  0  0
  182.8780  174.7630  137.0300 C   0  0  0  0  0  0  0  0  0  0  0  0
  182.9830  175.8640  138.0180 C   0  0  0  0  0  0  0  0  0  0  0  0
  183.1840  177.2070  137.5880 N   0  0  0  0  0  1  0  0  0  0  0  0
  182.8840  175.6280  139.2520 O   0  0  0  0  0  0  0  0  0  0  0  0
  181.4390  173.4680  135.5550 N   0  0  0  0  0  2  0  0  0  0  0  0
  180.1930  172.8360  135.4470 N   0  0  0  0  0  2  0  0  0  0  0  0
  180.3840  171.4450  135.8180 C   0  0  0  0  0  2  0  0  0  0  0  0
  180.1340  171.2870  137.1810 O   0  0  0  0  0  1  0  0  0  0  0  0
  190.0470  177.2690  137.7120 C   0  0  1  0  0  3  0  0  0  0  0  0
  188.7970  178.0840  137.8750 C   0  0  0  0  0  0  0  0  0  0  0  0
  186.3410  178.1610  138.4250 C   0  0  0  0  0  1  0  0  0  0  0  0
  188.8190  179.3310  137.6810 O   0  0  0  0  0  0  0  0  0  0  0  0
  187.5840  177.4310  138.2480 N   0  0  0  0  0  2  0  0  0  0  0  0
  190.5150  177.5660  140.1460 C   0  0  2  0  0  3  0  0  0  0  0  0
  190.3670  176.5540  139.0240 C   0  0  2  0  0  3  0  0  0  0  0  0
  191.7460  176.9590  139.5100 C   0  0  0  0  0  2  0  0  0  0  0  0
  190.2310  176.8730  141.4640 C   0  0  0  0  0  2  0  0  0  0  0  0
  189.2840  177.6580  142.2340 N   0  0  0  0  0  2  0  0  0  0  0  0
  188.3600  176.7160  142.8390 C   0  0  0  0  0  2  0  0  0  0  0  0
  187.0110  177.2500  142.7690 N   0  0  0  0  0  2  0  0  0  0  0  0
  185.0090  179.2050  145.3300 C   0  0  0  0  0  2  0  0  0  0  0  0
  187.3390  177.2340  145.1740 C   0  0  0  0  0  2  0  0  0  0  0  0
  186.3860  178.3080  147.2790 C   0  0  0  0  0  2  0  0  0  0  0  0
  187.5880  178.1840  146.3360 C   0  0  0  0  0  2  0  0  0  0  0  0
  185.3070  178.3170  144.1290 C   0  0  0  0  0  2  0  0  0  0  0  0
  185.0150  178.3620  146.5980 C   0  0  0  0  0  2  0  0  0  0  0  0
  186.7970  178.0170  143.9820 C   0  0  0  0  0  3  0  0  0  0  0  0
  3  6  1  0  0  0  0
  3 32  1  1  0  0  0
  4  5  1  0  0  0  0
  5  9  1  0  0  0  0
  6 15  1  6  0  0  0
  7  4  1  6  0  0  0
  7  8  1  0  0  0  0
  8  1  1  6  0  0  0
  8  9  1  0  0  0  0
  9  2  1  0  0  0  0
 10 12  1  1  0  0  0
 10 13  1  0  0  0  0
 10  7  1  0  0  0  0
 11  9  1  0  0  0  0
 12  3  1  0  0  0  0
 13  6  1  0  0  0  0
 13  1  1  1  0  0  0
 15 14  2  0  0  0  0
 16 17  1  0  0  0  0
 16 15  1  0  0  0  0
 17 18  1  0  0  0  0
 19 18  2  0  0  0  0
 19 24  1  0  0  0  0
 20 17  2  0  0  0  0
 21 19  1  0  0  0  0
 22 20  1  0  0  0  0
 22 21  2  0  0  0  0
 23 24  2  0  0  0  0
 24 25  1  0  0  0  0
 25 27  2  0  0  0  0
 26 25  1  0  0  0  0
 28 23  1  0  0  0  0
 29 28  1  0  0  0  0
 29 30  1  0  0  0  0
 30 31  1  0  0  0  0
 32 33  1  1  0  0  0
 33 36  1  0  0  0  0
 35 33  2  0  0  0  0
 36 34  1  0  0  0  0
 37 40  1  1  0  0  0
 38 32  1  6  0  0  0
 38 39  1  0  0  0  0
 38 37  1  0  0  0  0
 39 37  1  0  0  0  0
 40 41  1  0  0  0  0
 41 42  1  0  0  0  0
 43 42  1  0  0  0  0
 43 50  1  0  0  0  0
 44 49  1  0  0  0  0
 45 47  1  0  0  0  0
 47 46  1  0  0  0  0
 48 44  1  0  0  0  0
 49 46  1  0  0  0  0
 50 48  1  0  0  0  0
 50 45  1  0  0  0  0
M  END
>  <MODEL>
2

>  <REMARK>
 VINA RESULT:      -7.0      2.843      9.977
  Name = 
  15 active torsions:
  status: ('A' for Active; 'I' for Inactive)
    1  A    between atoms: C_1  and  N_45
    2  A    between atoms: C_3  and  C_41
    3  A    between atoms: C_6  and  C_36
    4  A    between atoms: C_7  and  C_39
    5  A    between atoms: C_11  and  C_36
    6  A    between atoms: C_12  and  C_39
    7  A    between atoms: C_15  and  N_26
    8  A    between atoms: C_16  and  C_36
    9  A    between atoms: C_17  and  C_42
   10  A    between atoms: N_18  and  C_41
   11  A    between atoms: N_18  and  C_47
   12  A    between atoms: C_19  and  N_23
   13  A    between atoms: N_23  and  N_26
   14  A    between atoms: N_37  and  C_47
   15  A    between atoms: N_37  and  C_48
                            x       y       z     vdW  Elec       q    Type
                         _______ _______ _______ _____ _____    ______ ____

>  <TORSDO>
F 15

$$$$
=
 OpenBabel10232410343D

 50 55  0  0  1  0  0  0  0  0999 V2000
  186.5700  176.9380  137.8430 C   0  0  0  0  0  2  0  0  0  0  0  0
  184.8680  175.3980  135.3080 C   0  0  0  0  0  1  0  0  0  0  0  0
  190.1130  177.1860  137.4730 C   0  0  2  0  0  3  0  0  0  0  0  0
  186.4690  178.4240  134.8830 C   0  0  0  0  0  2  0  0  0  0  0  0
  185.2820  177.6710  134.6720 O   0  0  0  0  0  0  0  0  0  0  0  0
  188.9720  176.7740  138.3980 C   0  0  2  0  0  3  0  0  0  0  0  0
  187.3910  177.6250  135.7760 C   0  0  2  0  0  3  0  0  0  0  0  0
  186.4150  176.8660  136.5250 C   0  0  2  0  0  3  0  0  0  0  0  0
  185.1280  176.8140  135.7870 C   0  0  0  0  0  0  0  0  0  0  0  0
  188.1010  178.4470  136.8480 C   0  0  2  0  0  3  0  0  0  0  0  0
  183.9470  177.2880  136.6240 C   0  0  0  0  0  1  0  0  0  0  0  0
  189.6020  178.3690  136.6550 C   0  0  0  0  0  2  0  0  0  0  0  0
  187.8030  177.7160  138.1550 C   0  0  1  0  0  3  0  0  0  0  0  0
  190.4410  176.1590  140.1570 O   0  0  0  0  0  0  0  0  0  0  0  0
  189.4100  176.8000  139.8250 C   0  0  0  0  0  0  0  0  0  0  0  0
  188.6630  177.5510  140.7960 N   0  0  0  0  0  2  0  0  0  0  0  0
  189.0830  177.8340  142.1360 C   0  0  0  0  0  0  0  0  0  0  0  0
  188.2200  177.6640  143.2270 C   0  0  0  0  0  3  0  0  0  0  0  0
  188.6430  177.9380  144.5370 C   0  0  0  0  0  0  0  0  0  0  0  0
  190.3950  178.2620  142.3630 C   0  0  0  0  0  3  0  0  0  0  0  0
  189.9610  178.3750  144.7420 C   0  0  0  0  0  3  0  0  0  0  0  0
  190.8330  178.5350  143.6610 C   0  0  0  0  0  3  0  0  0  0  0  0
  186.3900  177.7230  145.5420 C   0  0  0  0  0  3  0  0  0  0  0  0
  187.7230  177.7430  145.6920 C   0  0  0  0  0  0  0  0  0  0  0  0
  188.2660  177.5460  147.0580 C   0  0  0  0  0  0  0  0  0  0  0  0
  189.2050  176.5070  147.3220 N   0  0  0  0  0  1  0  0  0  0  0  0
  187.9140  178.3030  148.0030 O   0  0  0  0  0  0  0  0  0  0  0  0
  185.7470  177.9360  144.2840 N   0  0  0  0  0  2  0  0  0  0  0  0
  184.9370  179.0590  144.0740 N   0  0  0  0  0  2  0  0  0  0  0  0
  184.5370  179.0440  142.6770 C   0  0  0  0  0  2  0  0  0  0  0  0
  185.5440  179.6150  141.8990 O   0  0  0  0  0  1  0  0  0  0  0  0
  190.5310  176.0170  136.5650 C   0  0  1  0  0  3  0  0  0  0  0  0
  191.8770  175.4820  136.9580 C   0  0  0  0  0  0  0  0  0  0  0  0
  194.3600  175.4020  136.5440 C   0  0  0  0  0  1  0  0  0  0  0  0
  191.9880  174.6880  137.9330 O   0  0  0  0  0  0  0  0  0  0  0  0
  193.0290  175.8800  136.2140 N   0  0  0  0  0  2  0  0  0  0  0  0
  189.8950  173.7870  135.6420 C   0  0  2  0  0  3  0  0  0  0  0  0
  189.5000  174.8900  136.6060 C   0  0  2  0  0  3  0  0  0  0  0  0
  188.8110  174.7700  135.2600 C   0  0  0  0  0  2  0  0  0  0  0  0
  189.2620  172.4890  136.1040 C   0  0  0  0  0  2  0  0  0  0  0  0
  188.6510  171.8140  134.9730 N   0  0  0  0  0  2  0  0  0  0  0  0
  187.4600  171.1550  135.4780 C   0  0  0  0  0  2  0  0  0  0  0  0
  186.7050  172.0850  136.2980 N   0  0  0  0  0  2  0  0  0  0  0  0
  183.6840  170.4550  134.6810 C   0  0  0  0  0  2  0  0  0  0  0  0
  184.4220  172.1400  137.1210 C   0  0  0  0  0  2  0  0  0  0  0  0
  182.0980  171.3120  136.4830 C   0  0  0  0  0  2  0  0  0  0  0  0
  183.0170  172.5220  136.6780 C   0  0  0  0  0  2  0  0  0  0  0  0
  185.0990  170.6160  135.2200 C   0  0  0  0  0  2  0  0  0  0  0  0
  182.7440  170.0910  135.8220 C   0  0  0  0  0  2  0  0  0  0  0  0
  185.3140  171.9690  135.8960 C   0  0  0  0  0  3  0  0  0  0  0  0
  2  9  1  0  0  0  0
  3 32  1  6  0  0  0
  3  6  1  0  0  0  0
  5  4  1  0  0  0  0
  5  9  1  0  0  0  0
  6 15  1  1  0  0  0
  7  4  1  6  0  0  0
  7  8  1  0  0  0  0
  7 10  1  0  0  0  0
  8  1  1  1  0  0  0
  9  8  1  0  0  0  0
  9 11  1  0  0  0  0
 10 12  1  6  0  0  0
 10 13  1  0  0  0  0
 12  3  1  0  0  0  0
 13  1  1  6  0  0  0
 13  6  1  0  0  0  0
 15 14  2  0  0  0  0
 15 16  1  0  0  0  0
 16 17  1  0  0  0  0
 17 20  2  0  0  0  0
 17 18  1  0  0  0  0
 18 19  2  0  0  0  0
 19 21  1  0  0  0  0
 19 24  1  0  0  0  0
 20 22  1  0  0  0  0
 22 21  2  0  0  0  0
 23 24  2  0  0  0  0
 24 25  1  0  0  0  0
 25 26  1  0  0  0  0
 25 27  2  0  0  0  0
 28 23  1  0  0  0  0
 29 28  1  0  0  0  0
 30 29  1  0  0  0  0
 31 30  1  0  0  0  0
 32 33  1  1  0  0  0
 33 35  2  0  0  0  0
 36 34  1  0  0  0  0
 36 33  1  0  0  0  0
 37 40  1  1  0  0  0
 37 38  1  0  0  0  0
 38 32  1  6  0  0  0
 39 37  1  0  0  0  0
 39 38  1  0  0  0  0
 41 42  1  0  0  0  0
 41 40  1  0  0  0  0
 42 43  1  0  0  0  0
 44 48  1  0  0  0  0
 44 49  1  0  0  0  0
 46 47  1  0  0  0  0
 47 45  1  0  0  0  0
 48 50  1  0  0  0  0
 49 46  1  0  0  0  0
 50 43  1  0  0  0  0
 50 45  1  0  0  0  0
M  END
>  <MODEL>
3

>  <REMARK>
 VINA RESULT:      -7.0      2.576      6.028
  Name = 
  15 active torsions:
  status: ('A' for Active; 'I' for Inactive)
    1  A    between atoms: C_1  and  N_45
    2  A    between atoms: C_3  and  C_41
    3  A    between atoms: C_6  and  C_36
    4  A    between atoms: C_7  and  C_39
    5  A    between atoms: C_11  and  C_36
    6  A    between atoms: C_12  and  C_39
    7  A    between atoms: C_15  and  N_26
    8  A    between atoms: C_16  and  C_36
    9  A    between atoms: C_17  and  C_42
   10  A    between atoms: N_18  and  C_41
   11  A    between atoms: N_18  and  C_47
   12  A    between atoms: C_19  and  N_23
   13  A    between atoms: N_23  and  N_26
   14  A    between atoms: N_37  and  C_47
   15  A    between atoms: N_37  and  C_48
                            x       y       z     vdW  Elec       q    Type
                         _______ _______ _______ _____ _____    ______ ____

>  <TORSDO>
F 15

$$$$
=
 OpenBabel10232410343D

 50 55  0  0  1  0  0  0  0  0999 V2000
  190.6410  177.0900  141.0790 C   0  0  0  0  0  2  0  0  0  0  0  0
  188.2040  175.9090  143.1670 C   0  0  0  0  0  1  0  0  0  0  0  0
  189.9590  176.9430  137.5770 C   0  0  2  0  0  3  0  0  0  0  0  0
  187.7760  178.7460  141.2520 C   0  0  0  0  0  2  0  0  0  0  0  0
  187.6410  178.1510  142.5350 O   0  0  0  0  0  0  0  0  0  0  0  0
  190.9640  176.6140  138.6750 C   0  0  2  0  0  3  0  0  0  0  0  0
  188.5410  177.7950  140.3600 C   0  0  2  0  0  3  0  0  0  0  0  0
  189.3410  177.1130  141.3530 C   0  0  2  0  0  3  0  0  0  0  0  0
  188.7220  177.2540  142.6960 C   0  0  0  0  0  0  0  0  0  0  0  0
  189.5820  178.4640  139.4670 C   0  0  2  0  0  3  0  0  0  0  0  0
  189.6860  177.8130  143.7340 C   0  0  0  0  0  1  0  0  0  0  0  0
  189.2480  178.2230  138.0080 C   0  0  0  0  0  2  0  0  0  0  0  0
  190.8740  177.6980  139.7380 C   0  0  1  0  0  3  0  0  0  0  0  0
  193.3170  176.8760  138.8260 O   0  0  0  0  0  0  0  0  0  0  0  0
  192.3440  176.5060  138.1180 C   0  0  0  0  0  0  0  0  0  0  0  0
  192.5510  175.9850  136.7950 N   0  0  0  0  0  2  0  0  0  0  0  0
  193.8160  175.6320  136.2240 C   0  0  0  0  0  0  0  0  0  0  0  0
  194.6930  174.7520  136.8710 C   0  0  0  0  0  3  0  0  0  0  0  0
  195.9290  174.4070  136.3010 C   0  0  0  0  0  0  0  0  0  0  0  0
  194.1710  176.1560  134.9770 C   0  0  0  0  0  3  0  0  0  0  0  0
  196.2690  174.9510  135.0520 C   0  0  0  0  0  3  0  0  0  0  0  0
  195.3940  175.8190  134.3930 C   0  0  0  0  0  3  0  0  0  0  0  0
  197.8150  173.8900  137.8180 C   0  0  0  0  0  3  0  0  0  0  0  0
  196.8510  173.4620  136.9900 C   0  0  0  0  0  0  0  0  0  0  0  0
  196.7130  171.9990  136.7880 C   0  0  0  0  0  0  0  0  0  0  0  0
  195.4300  171.4120  136.5890 N   0  0  0  0  0  1  0  0  0  0  0  0
  197.7310  171.2550  136.7780 O   0  0  0  0  0  0  0  0  0  0  0  0
  198.0690  175.2730  138.0660 N   0  0  0  0  0  2  0  0  0  0  0  0
  198.1900  175.7570  139.3750 N   0  0  0  0  0  2  0  0  0  0  0  0
  197.2880  174.9770  140.2050 C   0  0  0  0  0  2  0  0  0  0  0  0
  196.0330  175.5850  140.2260 O   0  0  0  0  0  1  0  0  0  0  0  0
  188.9620  175.7880  137.3830 C   0  0  1  0  0  3  0  0  0  0  0  0
  187.6360  176.2960  136.8920 C   0  0  0  0  0  0  0  0  0  0  0  0
  186.2280  177.1090  134.9700 C   0  0  0  0  0  1  0  0  0  0  0  0
  186.6720  176.4390  137.6940 O   0  0  0  0  0  0  0  0  0  0  0  0
  187.4830  176.6160  135.5100 N   0  0  0  0  0  2  0  0  0  0  0  0
  188.7500  173.4400  136.5620 C   0  0  2  0  0  3  0  0  0  0  0  0
  189.5050  174.7470  136.4050 C   0  0  2  0  0  3  0  0  0  0  0  0
  190.1250  173.5940  137.1710 C   0  0  0  0  0  2  0  0  0  0  0  0
  188.8530  172.6620  135.2650 C   0  0  0  0  0  2  0  0  0  0  0  0
  187.5230  172.3340  134.7850 N   0  0  0  0  0  2  0  0  0  0  0  0
  187.1050  171.1430  135.5020 C   0  0  0  0  0  2  0  0  0  0  0  0
  185.6670  170.9860  135.3800 N   0  0  0  0  0  2  0  0  0  0  0  0
  183.2470  173.8720  134.9250 C   0  0  0  0  0  2  0  0  0  0  0  0
  184.6930  172.3430  137.1410 C   0  0  0  0  0  2  0  0  0  0  0  0
  183.1240  174.3300  137.4300 C   0  0  0  0  0  2  0  0  0  0  0  0
  184.5530  173.7960  137.5700 C   0  0  0  0  0  2  0  0  0  0  0  0
  183.8680  172.4920  134.7550 C   0  0  0  0  0  2  0  0  0  0  0  0
  182.3730  173.8860  136.1710 C   0  0  0  0  0  2  0  0  0  0  0  0
  185.0750  172.2810  135.6660 C   0  0  0  0  0  3  0  0  0  0  0  0
  3 32  1  1  0  0  0
  3 12  1  0  0  0  0
  3  6  1  0  0  0  0
  4  5  1  0  0  0  0
  5  9  1  0  0  0  0
  6 15  1  6  0  0  0
  6 13  1  0  0  0  0
  7  4  1  1  0  0  0
  7  8  1  0  0  0  0
  8  1  1  1  0  0  0
  8  9  1  0  0  0  0
  9  2  1  0  0  0  0
  9 11  1  0  0  0  0
 10 12  1  6  0  0  0
 10 13  1  0  0  0  0
 10  7  1  0  0  0  0
 13  1  1  1  0  0  0
 15 14  2  0  0  0  0
 16 15  1  0  0  0  0
 17 16  1  0  0  0  0
 17 18  1  0  0  0  0
 19 18  2  0  0  0  0
 19 24  1  0  0  0  0
 20 17  2  0  0  0  0
 21 19  1  0  0  0  0
 22 20  1  0  0  0  0
 22 21  2  0  0  0  0
 23 28  1  0  0  0  0
 24 23  2  0  0  0  0
 25 24  1  0  0  0  0
 26 25  1  0  0  0  0
 27 25  2  0  0  0  0
 28 29  1  0  0  0  0
 29 30  1  0  0  0  0
 30 31  1  0  0  0  0
 32 33  1  6  0  0  0
 33 35  2  0  0  0  0
 34 36  1  0  0  0  0
 36 33  1  0  0  0  0
 37 40  1  6  0  0  0
 37 39  1  0  0  0  0
 38 37  1  0  0  0  0
 38 39  1  0  0  0  0
 38 32  1  1  0  0  0
 41 40  1  0  0  0  0
 41 42  1  0  0  0  0
 43 42  1  0  0  0  0
 43 50  1  0  0  0  0
 44 49  1  0  0  0  0
 45 47  1  0  0  0  0
 46 47  1  0  0  0  0
 48 44  1  0  0  0  0
 48 50  1  0  0  0  0
 49 46  1  0  0  0  0
 50 45  1  0  0  0  0
M  END
>  <MODEL>
4

>  <REMARK>
 VINA RESULT:      -6.8      4.053      9.271
  Name = 
  15 active torsions:
  status: ('A' for Active; 'I' for Inactive)
    1  A    between atoms: C_1  and  N_45
    2  A    between atoms: C_3  and  C_41
    3  A    between atoms: C_6  and  C_36
    4  A    between atoms: C_7  and  C_39
    5  A    between atoms: C_11  and  C_36
    6  A    between atoms: C_12  and  C_39
    7  A    between atoms: C_15  and  N_26
    8  A    between atoms: C_16  and  C_36
    9  A    between atoms: C_17  and  C_42
   10  A    between atoms: N_18  and  C_41
   11  A    between atoms: N_18  and  C_47
   12  A    between atoms: C_19  and  N_23
   13  A    between atoms: N_23  and  N_26
   14  A    between atoms: N_37  and  C_47
   15  A    between atoms: N_37  and  C_48
                            x       y       z     vdW  Elec       q    Type
                         _______ _______ _______ _____ _____    ______ ____

>  <TORSDO>
F 15

$$$$
=
 OpenBabel10232410343D

 50 55  0  0  1  0  0  0  0  0999 V2000
  186.5850  176.8190  137.6730 C   0  0  0  0  0  2  0  0  0  0  0  0
  185.2130  175.2730  134.9490 C   0  0  0  0  0  1  0  0  0  0  0  0
  190.0670  177.5890  137.4930 C   0  0  2  0  0  3  0  0  0  0  0  0
  186.3800  178.5180  134.8360 C   0  0  0  0  0  2  0  0  0  0  0  0
  185.3210  177.6270  134.5120 O   0  0  0  0  0  0  0  0  0  0  0  0
  188.9650  176.9460  138.3280 C   0  0  2  0  0  3  0  0  0  0  0  0
  187.3740  177.7840  135.7070 C   0  0  2  0  0  3  0  0  0  0  0  0
  186.4900  176.8360  136.3480 C   0  0  2  0  0  3  0  0  0  0  0  0
  185.2510  176.6670  135.5470 C   0  0  0  0  0  0  0  0  0  0  0  0
  187.9200  178.6040  136.8720 C   0  0  2  0  0  3  0  0  0  0  0  0
  183.9850  176.8990  136.3620 C   0  0  0  0  0  1  0  0  0  0  0  0
  189.4220  178.7540  136.7450 C   0  0  0  0  0  2  0  0  0  0  0  0
  187.6820  177.7320  138.1030 C   0  0  1  0  0  3  0  0  0  0  0  0
  190.2680  176.1450  140.1400 O   0  0  0  0  0  0  0  0  0  0  0  0
  189.3420  176.9140  139.7710 C   0  0  0  0  0  0  0  0  0  0  0  0
  188.6590  177.7540  140.7160 N   0  0  0  0  0  2  0  0  0  0  0  0
  189.0560  177.9790  142.0740 C   0  0  0  0  0  0  0  0  0  0  0  0
  188.1750  177.7600  143.1410 C   0  0  0  0  0  3  0  0  0  0  0  0
  188.5750  177.9770  144.4690 C   0  0  0  0  0  0  0  0  0  0  0  0
  190.3620  178.3980  142.3410 C   0  0  0  0  0  3  0  0  0  0  0  0
  189.8880  178.4070  144.7150 C   0  0  0  0  0  3  0  0  0  0  0  0
  190.7780  178.6150  143.6570 C   0  0  0  0  0  3  0  0  0  0  0  0
  188.0240  177.1020  146.7180 C   0  0  0  0  0  3  0  0  0  0  0  0
  187.6360  177.7310  145.5990 C   0  0  0  0  0  0  0  0  0  0  0  0
  186.2310  178.1980  145.5220 C   0  0  0  0  0  0  0  0  0  0  0  0
  185.4470  178.3360  146.7040 N   0  0  0  0  0  1  0  0  0  0  0  0
  185.7130  178.4910  144.4100 O   0  0  0  0  0  0  0  0  0  0  0  0
  189.3390  176.5750  146.8980 N   0  0  0  0  0  2  0  0  0  0  0  0
  190.2670  177.2270  147.7200 N   0  0  0  0  0  2  0  0  0  0  0  0
  191.4980  176.4570  147.6710 C   0  0  0  0  0  2  0  0  0  0  0  0
  192.1310  176.6680  146.4470 O   0  0  0  0  0  1  0  0  0  0  0  0
  190.6810  176.5710  136.5170 C   0  0  1  0  0  3  0  0  0  0  0  0
  192.1270  176.3210  136.8350 C   0  0  0  0  0  0  0  0  0  0  0  0
  194.3650  175.4350  136.0960 C   0  0  0  0  0  1  0  0  0  0  0  0
  192.5990  176.6530  137.9570 O   0  0  0  0  0  0  0  0  0  0  0  0
  192.9580  175.7020  135.8530 N   0  0  0  0  0  2  0  0  0  0  0  0
  190.4250  174.3260  135.4540 C   0  0  2  0  0  3  0  0  0  0  0  0
  189.9150  175.2480  136.5460 C   0  0  2  0  0  3  0  0  0  0  0  0
  189.1280  175.0790  135.2600 C   0  0  0  0  0  2  0  0  0  0  0  0
  190.1260  172.8940  135.8490 C   0  0  0  0  0  2  0  0  0  0  0  0
  189.3000  172.2690  134.8320 N   0  0  0  0  0  2  0  0  0  0  0  0
  188.3220  171.4570  135.5330 C   0  0  0  0  0  2  0  0  0  0  0  0
  187.7480  172.2270  136.6230 N   0  0  0  0  0  2  0  0  0  0  0  0
  184.3740  171.1520  135.2610 C   0  0  0  0  0  2  0  0  0  0  0  0
  185.5870  172.6000  137.6640 C   0  0  0  0  0  2  0  0  0  0  0  0
  183.1130  172.1670  137.2310 C   0  0  0  0  0  2  0  0  0  0  0  0
  184.2250  173.2120  137.3690 C   0  0  0  0  0  2  0  0  0  0  0  0
  185.8400  171.0700  135.6660 C   0  0  0  0  0  2  0  0  0  0  0  0
  183.4960  170.8900  136.4780 C   0  0  0  0  0  2  0  0  0  0  0  0
  186.3250  172.3440  136.3540 C   0  0  0  0  0  3  0  0  0  0  0  0
  2  9  1  0  0  0  0
  3 32  1  6  0  0  0
  3  6  1  0  0  0  0
  5  4  1  0  0  0  0
  5  9  1  0  0  0  0
  6 15  1  1  0  0  0
  7  4  1  6  0  0  0
  7  8  1  0  0  0  0
  7 10  1  0  0  0  0
  8  1  1  1  0  0  0
  9  8  1  0  0  0  0
  9 11  1  0  0  0  0
 10 12  1  6  0  0  0
 10 13  1  0  0  0  0
 12  3  1  0  0  0  0
 13  1  1  6  0  0  0
 13  6  1  0  0  0  0
 15 14  2  0  0  0  0
 15 16  1  0  0  0  0
 16 17  1  0  0  0  0
 17 20  2  0  0  0  0
 17 18  1  0  0  0  0
 18 19  2  0  0  0  0
 19 21  1  0  0  0  0
 19 24  1  0  0  0  0
 20 22  1  0  0  0  0
 22 21  2  0  0  0  0
 23 28  1  0  0  0  0
 24 23  2  0  0  0  0
 25 24  1  0  0  0  0
 25 26  1  0  0  0  0
 27 25  2  0  0  0  0
 28 29  1  0  0  0  0
 30 29  1  0  0  0  0
 31 30  1  0  0  0  0
 32 33  1  1  0  0  0
 33 35  2  0  0  0  0
 36 34  1  0  0  0  0
 36 33  1  0  0  0  0
 37 40  1  1  0  0  0
 37 38  1  0  0  0  0
 38 32  1  6  0  0  0
 39 37  1  0  0  0  0
 39 38  1  0  0  0  0
 41 42  1  0  0  0  0
 41 40  1  0  0  0  0
 42 43  1  0  0  0  0
 44 48  1  0  0  0  0
 44 49  1  0  0  0  0
 46 47  1  0  0  0  0
 47 45  1  0  0  0  0
 48 50  1  0  0  0  0
 49 46  1  0  0  0  0
 50 43  1  0  0  0  0
 50 45  1  0  0  0  0
M  END
>  <MODEL>
5

>  <REMARK>
 VINA RESULT:      -6.8      2.823      5.752
  Name = 
  15 active torsions:
  status: ('A' for Active; 'I' for Inactive)
    1  A    between atoms: C_1  and  N_45
    2  A    between atoms: C_3  and  C_41
    3  A    between atoms: C_6  and  C_36
    4  A    between atoms: C_7  and  C_39
    5  A    between atoms: C_11  and  C_36
    6  A    between atoms: C_12  and  C_39
    7  A    between atoms: C_15  and  N_26
    8  A    between atoms: C_16  and  C_36
    9  A    between atoms: C_17  and  C_42
   10  A    between atoms: N_18  and  C_41
   11  A    between atoms: N_18  and  C_47
   12  A    between atoms: C_19  and  N_23
   13  A    between atoms: N_23  and  N_26
   14  A    between atoms: N_37  and  C_47
   15  A    between atoms: N_37  and  C_48
                            x       y       z     vdW  Elec       q    Type
                         _______ _______ _______ _____ _____    ______ ____

>  <TORSDO>
F 15

$$$$
=
 OpenBabel10232410343D

 50 55  0  0  1  0  0  0  0  0999 V2000
  182.8680  176.9290  139.9720 C   0  0  0  0  0  2  0  0  0  0  0  0
  182.1680  174.3700  137.8150 C   0  0  0  0  0  1  0  0  0  0  0  0
  185.7230  178.9330  139.2070 C   0  0  2  0  0  3  0  0  0  0  0  0
  181.9000  177.6850  136.8950 C   0  0  0  0  0  2  0  0  0  0  0  0
  181.2890  176.4010  136.8940 O   0  0  0  0  0  0  0  0  0  0  0  0
  185.0060  178.1280  140.2860 C   0  0  2  0  0  3  0  0  0  0  0  0
  183.1330  177.6280  137.7670 C   0  0  2  0  0  3  0  0  0  0  0  0
  182.7350  176.5920  138.6940 C   0  0  2  0  0  3  0  0  0  0  0  0
  181.6500  175.7660  138.1050 C   0  0  0  0  0  0  0  0  0  0  0  0
  183.3300  178.8480  138.6630 C   0  0  2  0  0  3  0  0  0  0  0  0
  180.4250  175.6720  139.0060 C   0  0  0  0  0  1  0  0  0  0  0  0
  184.6350  179.5380  138.3230 C   0  0  0  0  0  2  0  0  0  0  0  0
  183.5080  178.2720  140.0660 C   0  0  1  0  0  3  0  0  0  0  0  0
  185.5680  179.8240  141.8470 O   0  0  0  0  0  0  0  0  0  0  0  0
  185.4070  178.5910  141.6470 C   0  0  0  0  0  0  0  0  0  0  0  0
  185.6000  177.6400  142.7060 N   0  0  0  0  0  2  0  0  0  0  0  0
  185.7740  177.9570  144.0920 C   0  0  0  0  0  0  0  0  0  0  0  0
  187.0100  177.7990  144.7320 C   0  0  0  0  0  3  0  0  0  0  0  0
  187.1720  178.1180  146.0890 C   0  0  0  0  0  0  0  0  0  0  0  0
  184.6900  178.4640  144.8160 C   0  0  0  0  0  3  0  0  0  0  0  0
  186.0690  178.6170  146.8000 C   0  0  0  0  0  3  0  0  0  0  0  0
  184.8350  178.7910  146.1660 C   0  0  0  0  0  3  0  0  0  0  0  0
  189.6440  177.9720  146.0700 C   0  0  0  0  0  3  0  0  0  0  0  0
  188.4930  177.9580  146.7590 C   0  0  0  0  0  0  0  0  0  0  0  0
  188.5730  177.7940  148.2310 C   0  0  0  0  0  0  0  0  0  0  0  0
  189.6200  178.4120  148.9740 N   0  0  0  0  0  1  0  0  0  0  0  0
  187.7070  177.1160  148.8470 O   0  0  0  0  0  0  0  0  0  0  0  0
  189.6960  178.0880  144.6470 N   0  0  0  0  0  2  0  0  0  0  0  0
  190.2720  177.0780  143.8660 N   0  0  0  0  0  2  0  0  0  0  0  0
  191.3910  176.5390  144.6200 C   0  0  0  0  0  2  0  0  0  0  0  0
  191.9270  175.4450  143.9400 O   0  0  0  0  0  1  0  0  0  0  0  0
  186.6700  178.0360  138.3920 C   0  0  1  0  0  3  0  0  0  0  0  0
  186.5730  178.3390  136.9250 C   0  0  0  0  0  0  0  0  0  0  0  0
  185.7400  177.6700  134.6450 C   0  0  0  0  0  1  0  0  0  0  0  0
  187.1070  179.3810  136.4530 O   0  0  0  0  0  0  0  0  0  0  0  0
  185.8730  177.4340  136.0720 N   0  0  0  0  0  2  0  0  0  0  0  0
  188.8740  176.8960  138.6640 C   0  0  2  0  0  3  0  0  0  0  0  0
  188.1180  178.1970  138.8540 C   0  0  2  0  0  3  0  0  0  0  0  0
  188.3860  177.2900  140.0390 C   0  0  0  0  0  2  0  0  0  0  0  0
  190.3520  177.2080  138.5410 C   0  0  0  0  0  2  0  0  0  0  0  0
  190.8000  176.9300  137.1890 N   0  0  0  0  0  2  0  0  0  0  0  0
  189.7430  176.1660  136.5510 C   0  0  0  0  0  2  0  0  0  0  0  0
  190.3070  174.9720  135.9470 N   0  0  0  0  0  2  0  0  0  0  0  0
  187.8870  172.1850  136.8240 C   0  0  0  0  0  2  0  0  0  0  0  0
  187.9700  174.8360  135.3060 C   0  0  0  0  0  2  0  0  0  0  0  0
  185.9680  173.2790  135.5510 C   0  0  0  0  0  2  0  0  0  0  0  0
  186.9920  173.9070  134.6010 C   0  0  0  0  0  2  0  0  0  0  0  0
  188.9650  173.2470  137.0030 C   0  0  0  0  0  2  0  0  0  0  0  0
  186.5140  172.8360  136.9120 C   0  0  0  0  0  2  0  0  0  0  0  0
  189.2070  174.0500  135.7270 C   0  0  0  0  0  3  0  0  0  0  0  0
  2  9  1  0  0  0  0
  3 32  1  6  0  0  0
  3  6  1  0  0  0  0
  5  4  1  0  0  0  0
  5  9  1  0  0  0  0
  6 15  1  1  0  0  0
  7  4  1  6  0  0  0
  7 10  1  0  0  0  0
  7  8  1  0  0  0  0
  8  1  1  1  0  0  0
  9  8  1  0  0  0  0
  9 11  1  0  0  0  0
 10 12  1  6  0  0  0
 10 13  1  0  0  0  0
 12  3  1  0  0  0  0
 13  1  1  6  0  0  0
 13  6  1  0  0  0  0
 15 14  2  0  0  0  0
 15 16  1  0  0  0  0
 16 17  1  0  0  0  0
 17 18  2  0  0  0  0
 17 20  1  0  0  0  0
 18 19  1  0  0  0  0
 19 24  1  0  0  0  0
 19 21  2  0  0  0  0
 20 22  2  0  0  0  0
 22 21  1  0  0  0  0
 23 24  2  0  0  0  0
 24 25  1  0  0  0  0
 25 27  2  0  0  0  0
 25 26  1  0  0  0  0
 28 23  1  0  0  0  0
 29 30  1  0  0  0  0
 29 28  1  0  0  0  0
 31 30  1  0  0  0  0
 32 33  1  6  0  0  0
 34 36  1  0  0  0  0
 35 33  2  0  0  0  0
 36 33  1  0  0  0  0
 37 40  1  1  0  0  0
 37 38  1  0  0  0  0
 37 39  1  0  0  0  0
 38 32  1  6  0  0  0
 38 39  1  0  0  0  0
 41 40  1  0  0  0  0
 42 41  1  0  0  0  0
 43 42  1  0  0  0  0
 44 49  1  0  0  0  0
 44 48  1  0  0  0  0
 45 50  1  0  0  0  0
 46 49  1  0  0  0  0
 47 45  1  0  0  0  0
 47 46  1  0  0  0  0
 50 43  1  0  0  0  0
 50 48  1  0  0  0  0
M  END
>  <MODEL>
6

>  <REMARK>
 VINA RESULT:      -6.7      1.559      2.992
  Name = 
  15 active torsions:
  status: ('A' for Active; 'I' for Inactive)
    1  A    between atoms: C_1  and  N_45
    2  A    between atoms: C_3  and  C_41
    3  A    between atoms: C_6  and  C_36
    4  A    between atoms: C_7  and  C_39
    5  A    between atoms: C_11  and  C_36
    6  A    between atoms: C_12  and  C_39
    7  A    between atoms: C_15  and  N_26
    8  A    between atoms: C_16  and  C_36
    9  A    between atoms: C_17  and  C_42
   10  A    between atoms: N_18  and  C_41
   11  A    between atoms: N_18  and  C_47
   12  A    between atoms: C_19  and  N_23
   13  A    between atoms: N_23  and  N_26
   14  A    between atoms: N_37  and  C_47
   15  A    between atoms: N_37  and  C_48
                            x       y       z     vdW  Elec       q    Type
                         _______ _______ _______ _____ _____    ______ ____

>  <TORSDO>
F 15

$$$$
=
 OpenBabel10232410343D

 50 55  0  0  1  0  0  0  0  0999 V2000
  182.9980  176.9370  140.0400 C   0  0  0  0  0  2  0  0  0  0  0  0
  182.3270  174.3690  137.8840 C   0  0  0  0  0  1  0  0  0  0  0  0
  185.8510  178.9500  139.2930 C   0  0  2  0  0  3  0  0  0  0  0  0
  182.0540  177.6790  136.9520 C   0  0  0  0  0  2  0  0  0  0  0  0
  181.4480  176.3930  136.9500 O   0  0  0  0  0  0  0  0  0  0  0  0
  185.1280  178.1460  140.3690 C   0  0  2  0  0  3  0  0  0  0  0  0
  183.2800  177.6300  137.8350 C   0  0  2  0  0  3  0  0  0  0  0  0
  182.8770  176.5960  138.7620 C   0  0  2  0  0  3  0  0  0  0  0  0
  181.8010  175.7630  138.1660 C   0  0  0  0  0  0  0  0  0  0  0  0
  183.4640  178.8540  138.7290 C   0  0  2  0  0  3  0  0  0  0  0  0
  180.5690  175.6670  139.0560 C   0  0  0  0  0  1  0  0  0  0  0  0
  184.7690  179.5480  138.3980 C   0  0  0  0  0  2  0  0  0  0  0  0
  183.6320  178.2830  140.1350 C   0  0  1  0  0  3  0  0  0  0  0  0
  185.5850  179.8520  141.9520 O   0  0  0  0  0  0  0  0  0  0  0  0
  185.5150  178.6150  141.7320 C   0  0  0  0  0  0  0  0  0  0  0  0
  185.7970  177.6630  142.7710 N   0  0  0  0  0  2  0  0  0  0  0  0
  185.9690  177.9680  144.1600 C   0  0  0  0  0  0  0  0  0  0  0  0
  187.1720  177.7000  144.8260 C   0  0  0  0  0  3  0  0  0  0  0  0
  187.3330  178.0090  146.1860 C   0  0  0  0  0  0  0  0  0  0  0  0
  184.9210  178.5770  144.8580 C   0  0  0  0  0  3  0  0  0  0  0  0
  186.2650  178.6100  146.8710 C   0  0  0  0  0  3  0  0  0  0  0  0
  185.0670  178.8940  146.2100 C   0  0  0  0  0  3  0  0  0  0  0  0
  189.6880  177.2460  146.2370 C   0  0  0  0  0  3  0  0  0  0  0  0
  188.6180  177.7300  146.8850 C   0  0  0  0  0  0  0  0  0  0  0  0
  188.7570  178.0020  148.3370 C   0  0  0  0  0  0  0  0  0  0  0  0
  187.8550  177.4180  149.2730 N   0  0  0  0  0  1  0  0  0  0  0  0
  189.6820  178.7440  148.7640 O   0  0  0  0  0  0  0  0  0  0  0  0
  189.6680  176.9110  144.8480 N   0  0  0  0  0  2  0  0  0  0  0  0
  190.6750  177.3660  143.9870 N   0  0  0  0  0  2  0  0  0  0  0  0
  190.5160  176.6550  142.7290 C   0  0  0  0  0  2  0  0  0  0  0  0
  190.4360  175.2850  142.9760 O   0  0  0  0  0  1  0  0  0  0  0  0
  186.8090  178.0540  138.4900 C   0  0  1  0  0  3  0  0  0  0  0  0
  186.7260  178.3540  137.0210 C   0  0  0  0  0  0  0  0  0  0  0  0
  185.9780  177.6440  134.7240 C   0  0  0  0  0  1  0  0  0  0  0  0
  187.2100  179.4250  136.5610 O   0  0  0  0  0  0  0  0  0  0  0  0
  186.0940  177.4130  136.1530 N   0  0  0  0  0  2  0  0  0  0  0  0
  188.9960  176.9050  138.8480 C   0  0  2  0  0  3  0  0  0  0  0  0
  188.2520  178.2220  138.9660 C   0  0  2  0  0  3  0  0  0  0  0  0
  188.4920  177.3680  140.1960 C   0  0  0  0  0  2  0  0  0  0  0  0
  190.4790  177.1940  138.7330 C   0  0  0  0  0  2  0  0  0  0  0  0
  191.0000  176.6010  137.5160 N   0  0  0  0  0  2  0  0  0  0  0  0
  192.2880  176.0220  137.8540 C   0  0  0  0  0  2  0  0  0  0  0  0
  193.2360  176.2980  136.7910 N   0  0  0  0  0  2  0  0  0  0  0  0
  196.3760  174.4440  135.7430 C   0  0  0  0  0  2  0  0  0  0  0  0
  194.6630  174.9540  138.2220 C   0  0  0  0  0  2  0  0  0  0  0  0
  196.7650  173.5190  138.0860 C   0  0  0  0  0  2  0  0  0  0  0  0
  195.2520  173.5540  138.3210 C   0  0  0  0  0  2  0  0  0  0  0  0
  195.3650  175.5750  135.8730 C   0  0  0  0  0  2  0  0  0  0  0  0
  197.2810  174.4280  136.9670 C   0  0  0  0  0  2  0  0  0  0  0  0
  194.2010  175.2120  136.7920 C   0  0  0  0  0  3  0  0  0  0  0  0
  2  9  1  0  0  0  0
  3 32  1  6  0  0  0
  3  6  1  0  0  0  0
  5  4  1  0  0  0  0
  5  9  1  0  0  0  0
  6 15  1  1  0  0  0
  7  4  1  6  0  0  0
  7 10  1  0  0  0  0
  7  8  1  0  0  0  0
  8  1  1  1  0  0  0
  9  8  1  0  0  0  0
  9 11  1  0  0  0  0
 10 12  1  6  0  0  0
 10 13  1  0  0  0  0
 12  3  1  0  0  0  0
 13  1  1  6  0  0  0
 13  6  1  0  0  0  0
 15 14  2  0  0  0  0
 15 16  1  0  0  0  0
 16 17  1  0  0  0  0
 17 18  2  0  0  0  0
 17 20  1  0  0  0  0
 18 19  1  0  0  0  0
 19 21  2  0  0  0  0
 19 24  1  0  0  0  0
 20 22  2  0  0  0  0
 22 21  1  0  0  0  0
 23 24  2  0  0  0  0
 24 25  1  0  0  0  0
 25 27  2  0  0  0  0
 25 26  1  0  0  0  0
 28 23  1  0  0  0  0
 29 28  1  0  0  0  0
 30 31  1  0  0  0  0
 30 29  1  0  0  0  0
 32 33  1  6  0  0  0
 34 36  1  0  0  0  0
 35 33  2  0  0  0  0
 36 33  1  0  0  0  0
 37 40  1  1  0  0  0
 37 38  1  0  0  0  0
 37 39  1  0  0  0  0
 38 32  1  6  0  0  0
 38 39  1  0  0  0  0
 41 42  1  0  0  0  0
 41 40  1  0  0  0  0
 43 50  1  0  0  0  0
 43 42  1  0  0  0  0
 44 48  1  0  0  0  0
 44 49  1  0  0  0  0
 45 47  1  0  0  0  0
 46 47  1  0  0  0  0
 48 50  1  0  0  0  0
 49 46  1  0  0  0  0
 50 45  1  0  0  0  0
M  END
>  <MODEL>
7

>  <REMARK>
 VINA RESULT:      -6.6      1.903      2.801
  Name = 
  15 active torsions:
  status: ('A' for Active; 'I' for Inactive)
    1  A    between atoms: C_1  and  N_45
    2  A    between atoms: C_3  and  C_41
    3  A    between atoms: C_6  and  C_36
    4  A    between atoms: C_7  and  C_39
    5  A    between atoms: C_11  and  C_36
    6  A    between atoms: C_12  and  C_39
    7  A    between atoms: C_15  and  N_26
    8  A    between atoms: C_16  and  C_36
    9  A    between atoms: C_17  and  C_42
   10  A    between atoms: N_18  and  C_41
   11  A    between atoms: N_18  and  C_47
   12  A    between atoms: C_19  and  N_23
   13  A    between atoms: N_23  and  N_26
   14  A    between atoms: N_37  and  C_47
   15  A    between atoms: N_37  and  C_48
                            x       y       z     vdW  Elec       q    Type
                         _______ _______ _______ _____ _____    ______ ____

>  <TORSDO>
F 15

$$$$
=
 OpenBabel10232410343D

 50 55  0  0  1  0  0  0  0  0999 V2000
  185.8760  177.3900  137.7800 C   0  0  0  0  0  2  0  0  0  0  0  0
  184.3350  175.1580  135.6970 C   0  0  0  0  0  1  0  0  0  0  0  0
  189.4200  177.6920  137.4640 C   0  0  2  0  0  3  0  0  0  0  0  0
  185.8420  178.0330  134.5300 C   0  0  0  0  0  2  0  0  0  0  0  0
  184.6930  177.1980  134.4920 O   0  0  0  0  0  0  0  0  0  0  0  0
  188.2580  177.4880  138.4310 C   0  0  2  0  0  3  0  0  0  0  0  0
  186.7550  177.5420  135.6300 C   0  0  2  0  0  3  0  0  0  0  0  0
  185.7780  176.9640  136.5250 C   0  0  2  0  0  3  0  0  0  0  0  0
  184.5240  176.6600  135.7890 C   0  0  0  0  0  0  0  0  0  0  0  0
  187.3910  178.6490  136.4660 C   0  0  2  0  0  3  0  0  0  0  0  0
  183.2940  177.2840  136.4350 C   0  0  0  0  0  1  0  0  0  0  0  0
  188.9000  178.5920  136.3450 C   0  0  0  0  0  2  0  0  0  0  0  0
  187.0660  178.2770  137.9110 C   0  0  1  0  0  3  0  0  0  0  0  0
  188.0940  178.9360  140.3020 O   0  0  0  0  0  0  0  0  0  0  0  0
  188.6350  177.9110  139.8110 C   0  0  0  0  0  0  0  0  0  0  0  0
  189.5980  177.1530  140.5620 N   0  0  0  0  0  2  0  0  0  0  0  0
  189.8900  177.3190  141.9540 C   0  0  0  0  0  0  0  0  0  0  0  0
  188.8730  177.3610  142.9170 C   0  0  0  0  0  3  0  0  0  0  0  0
  189.1690  177.5170  144.2800 C   0  0  0  0  0  0  0  0  0  0  0  0
  191.2230  177.4120  142.3640 C   0  0  0  0  0  3  0  0  0  0  0  0
  190.5140  177.6180  144.6700 C   0  0  0  0  0  3  0  0  0  0  0  0
  191.5360  177.5640  143.7170 C   0  0  0  0  0  3  0  0  0  0  0  0
  186.7970  177.7220  144.9590 C   0  0  0  0  0  3  0  0  0  0  0  0
  188.0830  177.5490  145.2990 C   0  0  0  0  0  0  0  0  0  0  0  0
  188.3980  177.3690  146.7370 C   0  0  0  0  0  0  0  0  0  0  0  0
  187.7410  178.1560  147.7270 N   0  0  0  0  0  1  0  0  0  0  0  0
  189.2430  176.5090  147.1050 O   0  0  0  0  0  0  0  0  0  0  0  0
  186.3720  177.9410  143.6140 N   0  0  0  0  0  2  0  0  0  0  0  0
  185.0810  178.4100  143.3360 N   0  0  0  0  0  2  0  0  0  0  0  0
  184.6030  179.0810  144.5340 C   0  0  0  0  0  2  0  0  0  0  0  0
  183.2520  178.7910  144.7210 O   0  0  0  0  0  1  0  0  0  0  0  0
  189.9160  176.3460  136.9120 C   0  0  1  0  0  3  0  0  0  0  0  0
  191.1770  175.9110  137.6010 C   0  0  0  0  0  0  0  0  0  0  0  0
  193.6650  176.1690  137.8890 C   0  0  0  0  0  1  0  0  0  0  0  0
  191.1450  174.9980  138.4720 O   0  0  0  0  0  0  0  0  0  0  0  0
  192.4110  176.5410  137.2580 N   0  0  0  0  0  2  0  0  0  0  0  0
  189.1990  174.0640  136.1950 C   0  0  2  0  0  3  0  0  0  0  0  0
  188.8500  175.2610  137.0610 C   0  0  2  0  0  3  0  0  0  0  0  0
  188.1430  175.0450  135.7370 C   0  0  0  0  0  2  0  0  0  0  0  0
  188.5300  172.8340  136.7750 C   0  0  0  0  0  2  0  0  0  0  0  0
  188.4320  171.8050  135.7560 N   0  0  0  0  0  2  0  0  0  0  0  0
  189.4540  172.1000  134.7680 C   0  0  0  0  0  2  0  0  0  0  0  0
  190.2350  170.9040  134.5090 N   0  0  0  0  0  2  0  0  0  0  0  0
  193.9210  170.2370  135.1100 C   0  0  0  0  0  2  0  0  0  0  0  0
  191.9620  172.5710  134.8750 C   0  0  0  0  0  2  0  0  0  0  0  0
  194.4620  172.7170  135.3450 C   0  0  0  0  0  2  0  0  0  0  0  0
  193.0440  172.9480  135.8760 C   0  0  0  0  0  2  0  0  0  0  0  0
  192.5400  170.1410  134.4760 C   0  0  0  0  0  2  0  0  0  0  0  0
  194.6630  171.4340  134.5320 C   0  0  0  0  0  2  0  0  0  0  0  0
  191.5460  171.1200  135.0960 C   0  0  0  0  0  3  0  0  0  0  0  0
  2  9  1  0  0  0  0
  3 32  1  6  0  0  0
  3  6  1  0  0  0  0
  5  4  1  0  0  0  0
  5  9  1  0  0  0  0
  6 15  1  1  0  0  0
  7  4  1  6  0  0  0
  7 10  1  0  0  0  0
  7  8  1  0  0  0  0
  8  1  1  1  0  0  0
  9 11  1  0  0  0  0
  9  8  1  0  0  0  0
 10 12  1  1  0  0  0
 10 13  1  0  0  0  0
 12  3  1  0  0  0  0
 13  1  1  6  0  0  0
 13  6  1  0  0  0  0
 15 14  2  0  0  0  0
 15 16  1  0  0  0  0
 16 17  1  0  0  0  0
 17 20  2  0  0  0  0
 17 18  1  0  0  0  0
 18 19  2  0  0  0  0
 19 21  1  0  0  0  0
 19 24  1  0  0  0  0
 20 22  1  0  0  0  0
 22 21  2  0  0  0  0
 23 24  2  0  0  0  0
 24 25  1  0  0  0  0
 25 27  2  0  0  0  0
 25 26  1  0  0  0  0
 28 23  1  0  0  0  0
 29 28  1  0  0  0  0
 29 30  1  0  0  0  0
 30 31  1  0  0  0  0
 32 33  1  1  0  0  0
 33 35  2  0  0  0  0
 36 33  1  0  0  0  0
 36 34  1  0  0  0  0
 37 40  1  1  0  0  0
 37 38  1  0  0  0  0
 38 32  1  6  0  0  0
 39 37  1  0  0  0  0
 39 38  1  0  0  0  0
 41 40  1  0  0  0  0
 42 41  1  0  0  0  0
 43 42  1  0  0  0  0
 43 50  1  0  0  0  0
 45 50  1  0  0  0  0
 45 47  1  0  0  0  0
 46 47  1  0  0  0  0
 48 50  1  0  0  0  0
 48 44  1  0  0  0  0
 49 44  1  0  0  0  0
 49 46  1  0  0  0  0
M  END
>  <MODEL>
8

>  <REMARK>
 VINA RESULT:      -6.4      2.718      4.987
  Name = 
  15 active torsions:
  status: ('A' for Active; 'I' for Inactive)
    1  A    between atoms: C_1  and  N_45
    2  A    between atoms: C_3  and  C_41
    3  A    between atoms: C_6  and  C_36
    4  A    between atoms: C_7  and  C_39
    5  A    between atoms: C_11  and  C_36
    6  A    between atoms: C_12  and  C_39
    7  A    between atoms: C_15  and  N_26
    8  A    between atoms: C_16  and  C_36
    9  A    between atoms: C_17  and  C_42
   10  A    between atoms: N_18  and  C_41
   11  A    between atoms: N_18  and  C_47
   12  A    between atoms: C_19  and  N_23
   13  A    between atoms: N_23  and  N_26
   14  A    between atoms: N_37  and  C_47
   15  A    between atoms: N_37  and  C_48
                            x       y       z     vdW  Elec       q    Type
                         _______ _______ _______ _____ _____    ______ ____

>  <TORSDO>
F 15

$$$$
=
 OpenBabel10232410343D

 50 55  0  0  1  0  0  0  0  0999 V2000
  187.0420  174.5230  135.9590 C   0  0  0  0  0  2  0  0  0  0  0  0
  188.3550  171.3930  136.3730 C   0  0  0  0  0  1  0  0  0  0  0  0
  188.8710  177.2310  137.3980 C   0  0  2  0  0  3  0  0  0  0  0  0
  189.9000  173.8030  134.4470 C   0  0  0  0  0  2  0  0  0  0  0  0
  189.4750  172.4500  134.5360 O   0  0  0  0  0  0  0  0  0  0  0  0
  187.5040  176.5660  137.2700 C   0  0  2  0  0  3  0  0  0  0  0  0
  189.3460  174.5580  135.6330 C   0  0  2  0  0  3  0  0  0  0  0  0
  188.1460  173.7900  135.8790 C   0  0  2  0  0  3  0  0  0  0  0  0
  188.2700  172.4380  135.2770 C   0  0  0  0  0  0  0  0  0  0  0  0
  188.8140  175.9500  135.3040 C   0  0  2  0  0  3  0  0  0  0  0  0
  187.1130  172.0990  134.3460 C   0  0  0  0  0  1  0  0  0  0  0  0
  189.5910  177.0000  136.0720 C   0  0  0  0  0  2  0  0  0  0  0  0
  187.3990  175.9680  135.8750 C   0  0  1  0  0  3  0  0  0  0  0  0
  186.2060  178.4650  136.6920 O   0  0  0  0  0  0  0  0  0  0  0  0
  186.4100  177.5480  137.5300 C   0  0  0  0  0  0  0  0  0  0  0  0
  185.6070  177.4380  138.7150 N   0  0  0  0  0  2  0  0  0  0  0  0
  184.4050  178.1700  138.9810 C   0  0  0  0  0  0  0  0  0  0  0  0
  183.2590  177.5410  139.4860 C   0  0  0  0  0  3  0  0  0  0  0  0
  182.0880  178.2690  139.7490 C   0  0  0  0  0  0  0  0  0  0  0  0
  184.3850  179.5510  138.7600 C   0  0  0  0  0  3  0  0  0  0  0  0
  182.0860  179.6520  139.5110 C   0  0  0  0  0  3  0  0  0  0  0  0
  183.2300  180.2900  139.0210 C   0  0  0  0  0  3  0  0  0  0  0  0
  180.2640  178.0310  141.4060 C   0  0  0  0  0  3  0  0  0  0  0  0
  180.8770  177.5950  140.2960 C   0  0  0  0  0  0  0  0  0  0  0  0
  180.2990  176.4160  139.6060 C   0  0  0  0  0  0  0  0  0  0  0  0
  179.9960  175.2280  140.3320 N   0  0  0  0  0  1  0  0  0  0  0  0
  180.0540  176.4540  138.3700 O   0  0  0  0  0  0  0  0  0  0  0  0
  180.7440  179.1330  142.1780 N   0  0  0  0  0  2  0  0  0  0  0  0
  181.2390  178.9400  143.4740 N   0  0  0  0  0  2  0  0  0  0  0  0
  182.6830  178.8210  143.3690 C   0  0  0  0  0  2  0  0  0  0  0  0
  183.2080  178.4240  144.5980 O   0  0  0  0  0  1  0  0  0  0  0  0
  189.6620  176.6360  138.5740 C   0  0  1  0  0  3  0  0  0  0  0  0
  190.9980  176.1220  138.1220 C   0  0  0  0  0  0  0  0  0  0  0  0
  192.4420  174.1560  137.4940 C   0  0  0  0  0  1  0  0  0  0  0  0
  191.9520  176.9210  137.9150 O   0  0  0  0  0  0  0  0  0  0  0  0
  191.1760  174.7180  137.9320 N   0  0  0  0  0  2  0  0  0  0  0  0
  189.9180  176.9750  141.0350 C   0  0  2  0  0  3  0  0  0  0  0  0
  189.8590  177.6670  139.6850 C   0  0  2  0  0  3  0  0  0  0  0  0
  188.6500  177.6770  140.6010 C   0  0  0  0  0  2  0  0  0  0  0  0
  190.6820  177.8580  142.0000 C   0  0  0  0  0  2  0  0  0  0  0  0
  191.6100  177.0510  142.7710 N   0  0  0  0  0  2  0  0  0  0  0  0
  190.8400  176.4380  143.8380 C   0  0  0  0  0  2  0  0  0  0  0  0
  191.2180  177.0310  145.1080 N   0  0  0  0  0  2  0  0  0  0  0  0
  187.5430  177.9630  145.2560 C   0  0  0  0  0  2  0  0  0  0  0  0
  189.8730  177.2800  147.1130 C   0  0  0  0  0  2  0  0  0  0  0  0
  187.4980  177.8920  147.8040 C   0  0  0  0  0  2  0  0  0  0  0  0
  188.9770  178.2900  147.8150 C   0  0  0  0  0  2  0  0  0  0  0  0
  188.8190  177.2570  144.8140 C   0  0  0  0  0  2  0  0  0  0  0  0
  186.9880  177.2770  146.4970 C   0  0  0  0  0  2  0  0  0  0  0  0
  190.0300  177.6690  145.6470 C   0  0  0  0  0  3  0  0  0  0  0  0
  3 32  1  1  0  0  0
  4  5  1  0  0  0  0
  5  9  1  0  0  0  0
  6  3  1  0  0  0  0
  6 15  1  6  0  0  0
  7  4  1  6  0  0  0
  7  8  1  0  0  0  0
  8  1  1  6  0  0  0
  9  8  1  0  0  0  0
  9  2  1  0  0  0  0
 10  7  1  0  0  0  0
 10 13  1  0  0  0  0
 10 12  1  1  0  0  0
 11  9  1  0  0  0  0
 12  3  1  0  0  0  0
 13  1  1  1  0  0  0
 13  6  1  0  0  0  0
 14 15  2  0  0  0  0
 15 16  1  0  0  0  0
 16 17  1  0  0  0  0
 17 18  1  0  0  0  0
 18 19  2  0  0  0  0
 19 24  1  0  0  0  0
 20 17  2  0  0  0  0
 20 22  1  0  0  0  0
 21 19  1  0  0  0  0
 22 21  2  0  0  0  0
 23 28  1  0  0  0  0
 24 23  2  0  0  0  0
 25 24  1  0  0  0  0
 25 26  1  0  0  0  0
 27 25  2  0  0  0  0
 28 29  1  0  0  0  0
 30 29  1  0  0  0  0
 30 31  1  0  0  0  0
 32 33  1  6  0  0  0
 34 36  1  0  0  0  0
 35 33  2  0  0  0  0
 36 33  1  0  0  0  0
 37 40  1  1  0  0  0
 38 32  1  6  0  0  0
 38 39  1  0  0  0  0
 38 37  1  0  0  0  0
 39 37  1  0  0  0  0
 40 41  1  0  0  0  0
 41 42  1  0  0  0  0
 42 43  1  0  0  0  0
 43 50  1  0  0  0  0
 44 49  1  0  0  0  0
 45 47  1  0  0  0  0
 46 47  1  0  0  0  0
 48 44  1  0  0  0  0
 48 50  1  0  0  0  0
 49 46  1  0  0  0  0
 50 45  1  0  0  0  0
M  END
>  <MODEL>
9

>  <REMARK>
 VINA RESULT:      -6.4      2.576      7.917
  Name = 
  15 active torsions:
  status: ('A' for Active; 'I' for Inactive)
    1  A    between atoms: C_1  and  N_45
    2  A    between atoms: C_3  and  C_41
    3  A    between atoms: C_6  and  C_36
    4  A    between atoms: C_7  and  C_39
    5  A    between atoms: C_11  and  C_36
    6  A    between atoms: C_12  and  C_39
    7  A    between atoms: C_15  and  N_26
    8  A    between atoms: C_16  and  C_36
    9  A    between atoms: C_17  and  C_42
   10  A    between atoms: N_18  and  C_41
   11  A    between atoms: N_18  and  C_47
   12  A    between atoms: C_19  and  N_23
   13  A    between atoms: N_23  and  N_26
   14  A    between atoms: N_37  and  C_47
   15  A    between atoms: N_37  and  C_48
                            x       y       z     vdW  Elec       q    Type
                         _______ _______ _______ _____ _____    ______ ____

>  <TORSDO>
F 15

$$$$
