=
 OpenBabel10232411373D

 27 30  0  0  1  0  0  0  0  0999 V2000
  191.8410  176.5290  145.8100 C   0  0  0  0  0  3  0  0  0  0  0  0
  190.7210  176.8930  147.7040 N   0  0  0  0  0  0  0  0  0  0  0  0
  185.9830  177.7010  143.7370 C   0  0  2  0  0  3  0  0  0  0  0  0
  185.7970  178.2310  146.2330 C   0  0  0  0  0  3  0  0  0  0  0  0
  189.8830  177.0660  146.5780 C   0  0  0  0  0  0  0  0  0  0  0  0
  188.1850  177.5250  142.7420 C   0  0  0  0  0  0  0  0  0  0  0  0
  191.8710  176.5760  147.2480 N   0  0  0  0  0  2  0  0  0  0  0  0
  184.1630  179.1150  144.6330 C   0  0  0  0  0  3  0  0  0  0  0  0
  190.6060  176.8320  145.4570 C   0  0  0  0  0  0  0  0  0  0  0  0
  186.6530  177.8400  145.0910 C   0  0  1  0  0  3  0  0  0  0  0  0
  184.6180  178.8200  146.0090 C   0  0  0  0  0  3  0  0  0  0  0  0
  188.7570  177.2760  144.0830 C   0  0  0  0  0  0  0  0  0  0  0  0
  190.0790  176.9420  144.2140 N   0  0  0  0  0  0  0  0  0  0  0  0
  187.9500  177.5090  145.2400 C   0  0  0  0  0  0  0  0  0  0  0  0
  186.9210  177.8010  142.6180 N   0  0  0  0  0  0  0  0  0  0  0  0
  188.5420  177.4170  146.5200 C   0  0  0  0  0  3  0  0  0  0  0  0
  184.8210  178.6390  143.5690 C   0  0  0  0  0  3  0  0  0  0  0  0
  189.0680  177.6060  141.5380 C   0  0  0  0  0  2  0  0  0  0  0  0
  188.4030  178.4030  140.4230 C   0  0  0  0  0  2  0  0  0  0  0  0
  189.2550  178.4190  139.1590 C   0  0  0  0  0  2  0  0  0  0  0  0
  188.4010  178.2440  137.9090 C   0  0  0  0  0  2  0  0  0  0  0  0
  186.9910  177.8920  138.2630 C   0  0  0  0  0  3  0  0  0  0  0  0
  186.0190  178.6320  137.8710 N   0  0  0  0  0  0  0  0  0  0  0  0
  184.6580  178.3000  138.2080 C   0  0  0  0  0  2  0  0  0  0  0  0
  184.7820  179.7100  140.1260 O   0  0  0  0  0  0  0  0  0  0  0  0
  184.3790  178.6230  139.6360 C   0  0  0  0  0  0  0  0  0  0  0  0
  183.6450  177.7410  140.4170 O   0  0  0  0  0  1  0  0  0  0  0  0
  1  7  1  0  0  0  0
  3 17  1  6  0  0  0
  3 10  1  0  0  0  0
  5  2  2  0  0  0  0
  6 12  1  0  0  0  0
  7  2  1  0  0  0  0
  8 11  1  0  0  0  0
  9  1  2  0  0  0  0
  9  5  1  0  0  0  0
 10 14  1  0  0  0  0
 10  4  1  1  0  0  0
 11  4  2  0  0  0  0
 12 13  2  0  0  0  0
 12 14  1  0  0  0  0
 13  9  1  0  0  0  0
 14 16  2  0  0  0  0
 15  6  2  0  0  0  0
 15  3  1  0  0  0  0
 16  5  1  0  0  0  0
 17  8  2  0  0  0  0
 18  6  1  0  0  0  0
 19 18  1  0  0  0  0
 20 19  1  0  0  0  0
 21 22  1  0  0  0  0
 21 20  1  0  0  0  0
 23 24  1  0  0  0  0
 23 22  2  0  0  0  0
 24 26  1  0  0  0  0
 26 25  2  0  0  0  0
 26 27  1  0  0  0  0
M  END
>  <MODEL>
1

>  <REMARK>
 VINA RESULT:      -9.0      0.000      0.000
  Name = 
  7 active torsions:
  status: ('A' for Active; 'I' for Inactive)
    1  A    between atoms: C_4  and  C_20
    2  A    between atoms: C_4  and  N_24
    3  A    between atoms: C_5  and  C_12
    4  A    between atoms: C_5  and  C_25
    5  A    between atoms: C_6  and  C_7
    6  A    between atoms: C_6  and  C_25
    7  A    between atoms: C_10  and  C_12
                            x       y       z     vdW  Elec       q    Type
                         _______ _______ _______ _____ _____    ______ ____

>  <TORSDO>
F 7

$$$$
=
 OpenBabel10232411373D

 27 30  0  0  1  0  0  0  0  0999 V2000
  184.4150  178.7120  144.6270 C   0  0  0  0  0  3  0  0  0  0  0  0
  184.8330  178.5570  146.8120 N   0  0  0  0  0  0  0  0  0  0  0  0
  190.5840  177.3360  144.7480 C   0  0  2  0  0  3  0  0  0  0  0  0
  189.9190  177.0790  147.2040 C   0  0  0  0  0  3  0  0  0  0  0  0
  185.9890  178.2650  146.0530 C   0  0  0  0  0  0  0  0  0  0  0  0
  188.8430  177.3990  143.0650 C   0  0  0  0  0  0  0  0  0  0  0  0
  183.9090  178.8200  145.9700 N   0  0  0  0  0  2  0  0  0  0  0  0
  191.9590  176.0310  146.3370 C   0  0  0  0  0  3  0  0  0  0  0  0
  185.6860  178.3750  144.7370 C   0  0  0  0  0  0  0  0  0  0  0  0
  189.5010  177.3420  145.8100 C   0  0  1  0  0  3  0  0  0  0  0  0
  191.0850  176.4710  147.4460 C   0  0  0  0  0  3  0  0  0  0  0  0
  187.8680  177.7890  144.1080 C   0  0  0  0  0  0  0  0  0  0  0  0
  186.5900  178.1330  143.7580 N   0  0  0  0  0  0  0  0  0  0  0  0
  188.2390  177.6840  145.4850 C   0  0  0  0  0  0  0  0  0  0  0  0
  190.0660  177.1130  143.3970 N   0  0  0  0  0  0  0  0  0  0  0  0
  187.2620  177.9130  146.4790 C   0  0  0  0  0  3  0  0  0  0  0  0
  191.7050  176.3870  145.0720 C   0  0  0  0  0  3  0  0  0  0  0  0
  188.4040  177.1860  141.6520 C   0  0  0  0  0  2  0  0  0  0  0  0
  189.5660  177.3720  140.6830 C   0  0  0  0  0  2  0  0  0  0  0  0
  189.2070  178.3310  139.5550 C   0  0  0  0  0  2  0  0  0  0  0  0
  188.8510  177.5810  138.2770 C   0  0  0  0  0  2  0  0  0  0  0  0
  187.3770  177.6140  138.0250 C   0  0  0  0  0  3  0  0  0  0  0  0
  186.6180  178.3880  138.7110 N   0  0  0  0  0  0  0  0  0  0  0  0
  185.1980  178.4250  138.4750 C   0  0  0  0  0  2  0  0  0  0  0  0
  185.1590  179.5880  140.5550 O   0  0  0  0  0  1  0  0  0  0  0  0
  184.5050  179.1690  139.5650 C   0  0  0  0  0  0  0  0  0  0  0  0
  183.1450  179.4310  139.4720 O   0  0  0  0  0  0  0  0  0  0  0  0
  1  9  2  0  0  0  0
  1  7  1  0  0  0  0
  3 17  1  1  0  0  0
  3 10  1  0  0  0  0
  4 11  2  0  0  0  0
  5 16  1  0  0  0  0
  5  2  2  0  0  0  0
  6 15  2  0  0  0  0
  6 12  1  0  0  0  0
  7  2  1  0  0  0  0
  8 11  1  0  0  0  0
  9  5  1  0  0  0  0
 10  4  1  1  0  0  0
 12 14  1  0  0  0  0
 13 12  2  0  0  0  0
 13  9  1  0  0  0  0
 14 10  1  0  0  0  0
 14 16  2  0  0  0  0
 15  3  1  0  0  0  0
 17  8  2  0  0  0  0
 18  6  1  0  0  0  0
 19 18  1  0  0  0  0
 20 19  1  0  0  0  0
 21 20  1  0  0  0  0
 22 21  1  0  0  0  0
 22 23  2  0  0  0  0
 24 23  1  0  0  0  0
 24 26  1  0  0  0  0
 26 25  1  0  0  0  0
 27 26  2  0  0  0  0
M  END
>  <MODEL>
2

>  <REMARK>
 VINA RESULT:      -9.0      1.555      4.218
  Name = 
  7 active torsions:
  status: ('A' for Active; 'I' for Inactive)
    1  A    between atoms: C_4  and  C_20
    2  A    between atoms: C_4  and  N_24
    3  A    between atoms: C_5  and  C_12
    4  A    between atoms: C_5  and  C_25
    5  A    between atoms: C_6  and  C_7
    6  A    between atoms: C_6  and  C_25
    7  A    between atoms: C_10  and  C_12
                            x       y       z     vdW  Elec       q    Type
                         _______ _______ _______ _____ _____    ______ ____

>  <TORSDO>
F 7

$$$$
=
 OpenBabel10232411373D

 27 30  0  0  1  0  0  0  0  0999 V2000
  191.7730  176.6210  145.7770 C   0  0  0  0  0  3  0  0  0  0  0  0
  190.6390  176.9090  147.6760 N   0  0  0  0  0  0  0  0  0  0  0  0
  185.9030  177.7430  143.7120 C   0  0  2  0  0  3  0  0  0  0  0  0
  185.6970  178.1960  146.2210 C   0  0  0  0  0  3  0  0  0  0  0  0
  189.8030  177.0990  146.5520 C   0  0  0  0  0  0  0  0  0  0  0  0
  188.1120  177.6360  142.7220 C   0  0  0  0  0  0  0  0  0  0  0  0
  191.7970  176.6270  147.2170 N   0  0  0  0  0  2  0  0  0  0  0  0
  184.0530  179.0960  144.6400 C   0  0  0  0  0  3  0  0  0  0  0  0
  190.5340  176.9110  145.4280 C   0  0  0  0  0  0  0  0  0  0  0  0
  186.5640  177.8550  145.0730 C   0  0  1  0  0  3  0  0  0  0  0  0
  184.5080  178.7700  146.0090 C   0  0  0  0  0  3  0  0  0  0  0  0
  188.6840  177.3600  144.0590 C   0  0  0  0  0  0  0  0  0  0  0  0
  190.0100  177.0470  144.1860 N   0  0  0  0  0  0  0  0  0  0  0  0
  187.8670  177.5450  145.2180 C   0  0  0  0  0  0  0  0  0  0  0  0
  186.8440  177.8930  142.6000 N   0  0  0  0  0  0  0  0  0  0  0  0
  188.4550  177.4260  146.4980 C   0  0  0  0  0  3  0  0  0  0  0  0
  184.7240  178.6640  143.5660 C   0  0  0  0  0  3  0  0  0  0  0  0
  188.9990  177.7690  141.5260 C   0  0  0  0  0  2  0  0  0  0  0  0
  188.2540  178.4070  140.3590 C   0  0  0  0  0  2  0  0  0  0  0  0
  189.0660  178.3420  139.0720 C   0  0  0  0  0  2  0  0  0  0  0  0
  188.9200  176.9880  138.3870 C   0  0  0  0  0  2  0  0  0  0  0  0
  190.2250  176.5250  137.8220 C   0  0  0  0  0  3  0  0  0  0  0  0
  190.9460  175.6790  138.4630 N   0  0  0  0  0  0  0  0  0  0  0  0
  192.2040  175.2280  137.9260 C   0  0  0  0  0  2  0  0  0  0  0  0
  193.8740  176.6410  136.9780 O   0  0  0  0  0  0  0  0  0  0  0  0
  193.2250  176.3110  138.0050 C   0  0  0  0  0  0  0  0  0  0  0  0
  193.4370  176.9800  139.2030 O   0  0  0  0  0  1  0  0  0  0  0  0
  1  7  1  0  0  0  0
  3 17  1  6  0  0  0
  3 10  1  0  0  0  0
  5  2  2  0  0  0  0
  6 12  1  0  0  0  0
  7  2  1  0  0  0  0
  8 11  1  0  0  0  0
  9  1  2  0  0  0  0
  9  5  1  0  0  0  0
 10 14  1  0  0  0  0
 10  4  1  1  0  0  0
 11  4  2  0  0  0  0
 12 13  2  0  0  0  0
 12 14  1  0  0  0  0
 13  9  1  0  0  0  0
 14 16  2  0  0  0  0
 15  6  2  0  0  0  0
 15  3  1  0  0  0  0
 16  5  1  0  0  0  0
 17  8  2  0  0  0  0
 18  6  1  0  0  0  0
 19 18  1  0  0  0  0
 20 19  1  0  0  0  0
 21 20  1  0  0  0  0
 22 21  1  0  0  0  0
 22 23  2  0  0  0  0
 24 26  1  0  0  0  0
 24 23  1  0  0  0  0
 25 26  2  0  0  0  0
 26 27  1  0  0  0  0
M  END
>  <MODEL>
3

>  <REMARK>
 VINA RESULT:      -9.0      3.157      3.853
  Name = 
  7 active torsions:
  status: ('A' for Active; 'I' for Inactive)
    1  A    between atoms: C_4  and  C_20
    2  A    between atoms: C_4  and  N_24
    3  A    between atoms: C_5  and  C_12
    4  A    between atoms: C_5  and  C_25
    5  A    between atoms: C_6  and  C_7
    6  A    between atoms: C_6  and  C_25
    7  A    between atoms: C_10  and  C_12
                            x       y       z     vdW  Elec       q    Type
                         _______ _______ _______ _____ _____    ______ ____

>  <TORSDO>
F 7

$$$$
=
 OpenBabel10232411373D

 27 30  0  0  1  0  0  0  0  0999 V2000
  189.0260  177.4070  140.4960 C   0  0  0  0  0  3  0  0  0  0  0  0
  190.9760  177.1190  141.5400 N   0  0  0  0  0  0  0  0  0  0  0  0
  187.3330  177.4070  146.5880 C   0  0  2  0  0  3  0  0  0  0  0  0
  189.8870  177.4040  146.7300 C   0  0  0  0  0  3  0  0  0  0  0  0
  189.9220  177.2770  142.4690 C   0  0  0  0  0  0  0  0  0  0  0  0
  186.2800  177.9840  144.4830 C   0  0  0  0  0  0  0  0  0  0  0  0
  190.4450  177.1960  140.3810 N   0  0  0  0  0  0  0  0  0  0  0  0
  188.5210  178.1200  148.6360 C   0  0  0  0  0  3  0  0  0  0  0  0
  188.7630  177.4450  141.7880 C   0  0  1  0  0  3  0  0  0  0  0  0
  188.6750  177.4610  145.8840 C   0  0  1  0  0  3  0  0  0  0  0  0
  189.8040  177.7040  148.0300 C   0  0  0  0  0  3  0  0  0  0  0  0
  187.5370  177.6470  143.7780 C   0  0  0  0  0  0  0  0  0  0  0  0
  187.5750  177.6430  142.4090 N   0  0  0  0  0  0  0  0  0  0  0  0
  188.7320  177.4510  144.5370 C   0  0  0  0  0  0  0  0  0  0  0  0
  186.2370  177.9470  145.7810 N   0  0  0  0  0  0  0  0  0  0  0  0
  189.9580  177.2790  143.8560 C   0  0  0  0  0  3  0  0  0  0  0  0
  187.3720  178.0320  147.9540 C   0  0  0  0  0  3  0  0  0  0  0  0
  185.0990  178.5070  143.7300 C   0  0  0  0  0  2  0  0  0  0  0  0
  183.9130  178.7330  144.6600 C   0  0  0  0  0  2  0  0  0  0  0  0
  182.8290  179.5710  143.9930 C   0  0  0  0  0  2  0  0  0  0  0  0
  181.8650  178.7030  143.1930 C   0  0  0  0  0  2  0  0  0  0  0  0
  182.0680  178.8850  141.7230 C   0  0  0  0  0  3  0  0  0  0  0  0
  182.9900  178.2380  141.1090 N   0  0  0  0  0  0  0  0  0  0  0  0
  183.1920  178.4080  139.6930 C   0  0  0  0  0  2  0  0  0  0  0  0
  184.2450  180.4370  139.0170 O   0  0  0  0  0  0  0  0  0  0  0  0
  184.3890  179.2580  139.4330 C   0  0  0  0  0  0  0  0  0  0  0  0
  185.6610  178.7620  139.6830 O   0  0  0  0  0  1  0  0  0  0  0  0
  2  5  2  0  0  0  0
  3 17  1  1  0  0  0
  4 11  2  0  0  0  0
  5 16  1  0  0  0  0
  6 15  2  0  0  0  0
  7  1  2  0  0  0  0
  7  2  1  0  0  0  0
  9  1  1  6  0  0  0
  9 13  1  0  0  0  0
  9  5  1  0  0  0  0
 10  3  1  0  0  0  0
 10  4  1  1  0  0  0
 11  8  1  0  0  0  0
 12  6  1  0  0  0  0
 12 14  1  0  0  0  0
 13 12  2  0  0  0  0
 14 10  1  0  0  0  0
 15  3  1  0  0  0  0
 16 14  2  0  0  0  0
 17  8  2  0  0  0  0
 18  6  1  0  0  0  0
 18 19  1  0  0  0  0
 20 19  1  0  0  0  0
 21 20  1  0  0  0  0
 22 21  1  0  0  0  0
 23 22  2  0  0  0  0
 24 23  1  0  0  0  0
 25 26  2  0  0  0  0
 26 27  1  0  0  0  0
 26 24  1  0  0  0  0
M  END
>  <MODEL>
4

>  <REMARK>
 VINA RESULT:      -8.7      2.252      4.678
  Name = 
  7 active torsions:
  status: ('A' for Active; 'I' for Inactive)
    1  A    between atoms: C_4  and  C_20
    2  A    between atoms: C_4  and  N_24
    3  A    between atoms: C_5  and  C_12
    4  A    between atoms: C_5  and  C_25
    5  A    between atoms: C_6  and  C_7
    6  A    between atoms: C_6  and  C_25
    7  A    between atoms: C_10  and  C_12
                            x       y       z     vdW  Elec       q    Type
                         _______ _______ _______ _____ _____    ______ ____

>  <TORSDO>
F 7

$$$$
=
 OpenBabel10232411373D

 27 30  0  0  1  0  0  0  0  0999 V2000
  184.2500  178.7990  144.3700 C   0  0  0  0  0  3  0  0  0  0  0  0
  184.5910  178.6310  146.5670 N   0  0  0  0  0  0  0  0  0  0  0  0
  190.4260  177.4890  144.7030 C   0  0  2  0  0  3  0  0  0  0  0  0
  189.6760  177.2050  147.1310 C   0  0  0  0  0  3  0  0  0  0  0  0
  185.7770  178.3580  145.8480 C   0  0  0  0  0  0  0  0  0  0  0  0
  188.7460  177.5480  142.9590 C   0  0  0  0  0  0  0  0  0  0  0  0
  183.6960  178.8910  145.6950 N   0  0  0  0  0  2  0  0  0  0  0  0
  191.7570  176.1860  146.3300 C   0  0  0  0  0  3  0  0  0  0  0  0
  185.5200  178.4760  144.5240 C   0  0  0  0  0  0  0  0  0  0  0  0
  189.3060  177.4750  145.7250 C   0  0  1  0  0  3  0  0  0  0  0  0
  190.8390  176.6080  147.4100 C   0  0  0  0  0  3  0  0  0  0  0  0
  187.7300  177.9190  143.9690 C   0  0  0  0  0  0  0  0  0  0  0  0
  186.4610  178.2510  143.5750 N   0  0  0  0  0  0  0  0  0  0  0  0
  188.0530  177.8060  145.3570 C   0  0  0  0  0  0  0  0  0  0  0  0
  189.9600  177.2730  143.3320 N   0  0  0  0  0  0  0  0  0  0  0  0
  187.0370  178.0160  146.3170 C   0  0  0  0  0  3  0  0  0  0  0  0
  191.5450  176.5500  145.0590 C   0  0  0  0  0  3  0  0  0  0  0  0
  188.3600  177.3420  141.5290 C   0  0  0  0  0  2  0  0  0  0  0  0
  189.5920  177.1590  140.6500 C   0  0  0  0  0  2  0  0  0  0  0  0
  189.3440  177.6460  139.2270 C   0  0  0  0  0  2  0  0  0  0  0  0
  189.2310  176.4810  138.2510 C   0  0  0  0  0  2  0  0  0  0  0  0
  190.5590  176.1490  137.6510 C   0  0  0  0  0  3  0  0  0  0  0  0
  191.2930  175.2300  138.1660 N   0  0  0  0  0  0  0  0  0  0  0  0
  192.5740  174.9040  137.5940 C   0  0  0  0  0  2  0  0  0  0  0  0
  194.1220  176.5250  136.7820 O   0  0  0  0  0  0  0  0  0  0  0  0
  193.5320  176.0320  137.7780 C   0  0  0  0  0  0  0  0  0  0  0  0
  193.7470  176.5600  139.0430 O   0  0  0  0  0  1  0  0  0  0  0  0
  1  9  2  0  0  0  0
  1  7  1  0  0  0  0
  3 17  1  1  0  0  0
  3 10  1  0  0  0  0
  4 11  2  0  0  0  0
  5 16  1  0  0  0  0
  5  2  2  0  0  0  0
  6 15  2  0  0  0  0
  6 12  1  0  0  0  0
  7  2  1  0  0  0  0
  8 11  1  0  0  0  0
  9  5  1  0  0  0  0
 10  4  1  1  0  0  0
 12 14  1  0  0  0  0
 13 12  2  0  0  0  0
 13  9  1  0  0  0  0
 14 10  1  0  0  0  0
 14 16  2  0  0  0  0
 15  3  1  0  0  0  0
 17  8  2  0  0  0  0
 18  6  1  0  0  0  0
 19 18  1  0  0  0  0
 20 19  1  0  0  0  0
 21 20  1  0  0  0  0
 22 23  2  0  0  0  0
 22 21  1  0  0  0  0
 24 26  1  0  0  0  0
 24 23  1  0  0  0  0
 25 26  2  0  0  0  0
 26 27  1  0  0  0  0
M  END
>  <MODEL>
5

>  <REMARK>
 VINA RESULT:      -8.6      3.664      5.829
  Name = 
  7 active torsions:
  status: ('A' for Active; 'I' for Inactive)
    1  A    between atoms: C_4  and  C_20
    2  A    between atoms: C_4  and  N_24
    3  A    between atoms: C_5  and  C_12
    4  A    between atoms: C_5  and  C_25
    5  A    between atoms: C_6  and  C_7
    6  A    between atoms: C_6  and  C_25
    7  A    between atoms: C_10  and  C_12
                            x       y       z     vdW  Elec       q    Type
                         _______ _______ _______ _____ _____    ______ ____

>  <TORSDO>
F 7

$$$$
=
 OpenBabel10232411373D

 27 30  0  0  1  0  0  0  0  0999 V2000
  189.9460  177.5600  139.9850 C   0  0  0  0  0  3  0  0  0  0  0  0
  191.4950  177.1100  141.5250 N   0  0  0  0  0  0  0  0  0  0  0  0
  186.5930  177.5680  145.3460 C   0  0  2  0  0  3  0  0  0  0  0  0
  188.9950  177.3750  146.2030 C   0  0  0  0  0  3  0  0  0  0  0  0
  190.2330  177.3270  142.1240 C   0  0  0  0  0  0  0  0  0  0  0  0
  186.2230  178.2600  143.0540 C   0  0  0  0  0  0  0  0  0  0  0  0
  191.3220  177.2470  140.2680 N   0  0  0  0  0  0  0  0  0  0  0  0
  187.1930  178.1540  147.6720 C   0  0  0  0  0  3  0  0  0  0  0  0
  189.3290  177.5920  141.1510 C   0  0  1  0  0  3  0  0  0  0  0  0
  188.0810  177.5370  145.0520 C   0  0  1  0  0  3  0  0  0  0  0  0
  188.5660  177.6560  147.4380 C   0  0  0  0  0  3  0  0  0  0  0  0
  187.6040  177.8460  142.7190 C   0  0  0  0  0  0  0  0  0  0  0  0
  188.0290  177.8650  141.4180 N   0  0  0  0  0  0  0  0  0  0  0  0
  188.5180  177.5480  143.7770 C   0  0  0  0  0  0  0  0  0  0  0  0
  185.8090  178.2010  144.2840 N   0  0  0  0  0  0  0  0  0  0  0  0
  189.8730  177.3000  143.4640 C   0  0  0  0  0  3  0  0  0  0  0  0
  186.2830  178.1630  146.6910 C   0  0  0  0  0  3  0  0  0  0  0  0
  185.3410  178.8820  142.0190 C   0  0  0  0  0  2  0  0  0  0  0  0
  184.1610  177.9760  141.6870 C   0  0  0  0  0  2  0  0  0  0  0  0
  183.5470  178.3270  140.3370 C   0  0  0  0  0  2  0  0  0  0  0  0
  184.4690  179.2250  139.5210 C   0  0  0  0  0  2  0  0  0  0  0  0
  185.1650  178.4520  138.4470 C   0  0  0  0  0  3  0  0  0  0  0  0
  186.4320  178.5630  138.2840 N   0  0  0  0  0  0  0  0  0  0  0  0
  187.1100  177.8220  137.2520 C   0  0  0  0  0  2  0  0  0  0  0  0
  188.6520  179.6370  137.3370 O   0  0  0  0  0  1  0  0  0  0  0  0
  188.3750  178.5060  136.8600 C   0  0  0  0  0  0  0  0  0  0  0  0
  189.2650  177.8810  135.9970 O   0  0  0  0  0  0  0  0  0  0  0  0
  1  7  2  0  0  0  0
  2  5  2  0  0  0  0
  3 17  1  1  0  0  0
  4 11  2  0  0  0  0
  5 16  1  0  0  0  0
  6 15  2  0  0  0  0
  7  2  1  0  0  0  0
  9  1  1  1  0  0  0
  9 13  1  0  0  0  0
  9  5  1  0  0  0  0
 10  3  1  0  0  0  0
 10  4  1  6  0  0  0
 11  8  1  0  0  0  0
 12  6  1  0  0  0  0
 12 14  1  0  0  0  0
 13 12  2  0  0  0  0
 14 10  1  0  0  0  0
 15  3  1  0  0  0  0
 16 14  2  0  0  0  0
 17  8  2  0  0  0  0
 18  6  1  0  0  0  0
 19 18  1  0  0  0  0
 20 19  1  0  0  0  0
 21 20  1  0  0  0  0
 22 21  1  0  0  0  0
 23 22  2  0  0  0  0
 24 23  1  0  0  0  0
 26 24  1  0  0  0  0
 26 25  1  0  0  0  0
 27 26  2  0  0  0  0
M  END
>  <MODEL>
6

>  <REMARK>
 VINA RESULT:      -8.4      2.585      4.173
  Name = 
  7 active torsions:
  status: ('A' for Active; 'I' for Inactive)
    1  A    between atoms: C_4  and  C_20
    2  A    between atoms: C_4  and  N_24
    3  A    between atoms: C_5  and  C_12
    4  A    between atoms: C_5  and  C_25
    5  A    between atoms: C_6  and  C_7
    6  A    between atoms: C_6  and  C_25
    7  A    between atoms: C_10  and  C_12
                            x       y       z     vdW  Elec       q    Type
                         _______ _______ _______ _____ _____    ______ ____

>  <TORSDO>
F 7

$$$$
=
 OpenBabel10232411373D

 27 30  0  0  1  0  0  0  0  0999 V2000
  191.6640  176.7870  145.5440 C   0  0  0  0  0  3  0  0  0  0  0  0
  190.5250  176.9520  147.4540 N   0  0  0  0  0  0  0  0  0  0  0  0
  185.7680  177.8780  143.5370 C   0  0  2  0  0  3  0  0  0  0  0  0
  185.5530  178.1970  146.0650 C   0  0  0  0  0  3  0  0  0  0  0  0
  189.6840  177.1800  146.3410 C   0  0  0  0  0  0  0  0  0  0  0  0
  187.9780  177.8730  142.5430 C   0  0  0  0  0  0  0  0  0  0  0  0
  191.6880  176.7210  146.9810 N   0  0  0  0  0  2  0  0  0  0  0  0
  183.8880  179.1380  144.5310 C   0  0  0  0  0  3  0  0  0  0  0  0
  190.4180  177.0660  145.2090 C   0  0  0  0  0  0  0  0  0  0  0  0
  186.4280  177.9360  144.9010 C   0  0  1  0  0  3  0  0  0  0  0  0
  184.3510  178.7540  145.8820 C   0  0  0  0  0  3  0  0  0  0  0  0
  188.5570  177.5420  143.8640 C   0  0  0  0  0  0  0  0  0  0  0  0
  189.8910  177.2530  143.9760 N   0  0  0  0  0  0  0  0  0  0  0  0
  187.7380  177.6480  145.0310 C   0  0  0  0  0  0  0  0  0  0  0  0
  186.7040  178.1060  142.4340 N   0  0  0  0  0  0  0  0  0  0  0  0
  188.3290  177.4780  146.3030 C   0  0  0  0  0  3  0  0  0  0  0  0
  184.5680  178.7770  143.4370 C   0  0  0  0  0  3  0  0  0  0  0  0
  188.8610  178.0870  141.3550 C   0  0  0  0  0  2  0  0  0  0  0  0
  188.0370  178.2600  140.0850 C   0  0  0  0  0  2  0  0  0  0  0  0
  188.5660  177.3910  138.9500 C   0  0  0  0  0  2  0  0  0  0  0  0
  188.0180  177.8400  137.6010 C   0  0  0  0  0  2  0  0  0  0  0  0
  187.3540  176.7090  136.8840 C   0  0  0  0  0  3  0  0  0  0  0  0
  187.3530  175.5300  137.3900 N   0  0  0  0  0  0  0  0  0  0  0  0
  186.7160  174.4350  136.7060 C   0  0  0  0  0  2  0  0  0  0  0  0
  184.4760  174.9270  137.3560 O   0  0  0  0  0  0  0  0  0  0  0  0
  185.4190  174.0940  137.3580 C   0  0  0  0  0  0  0  0  0  0  0  0
  185.2390  172.8450  137.9370 O   0  0  0  0  0  1  0  0  0  0  0  0
  1  7  1  0  0  0  0
  3 17  1  1  0  0  0
  3 10  1  0  0  0  0
  5  2  2  0  0  0  0
  6 12  1  0  0  0  0
  7  2  1  0  0  0  0
  8 11  1  0  0  0  0
  9  1  2  0  0  0  0
  9  5  1  0  0  0  0
 10 14  1  0  0  0  0
 10  4  1  1  0  0  0
 11  4  2  0  0  0  0
 12 13  2  0  0  0  0
 12 14  1  0  0  0  0
 13  9  1  0  0  0  0
 14 16  2  0  0  0  0
 15  6  2  0  0  0  0
 15  3  1  0  0  0  0
 16  5  1  0  0  0  0
 17  8  2  0  0  0  0
 18  6  1  0  0  0  0
 19 18  1  0  0  0  0
 20 19  1  0  0  0  0
 21 20  1  0  0  0  0
 22 23  2  0  0  0  0
 22 21  1  0  0  0  0
 24 26  1  0  0  0  0
 24 23  1  0  0  0  0
 25 26  2  0  0  0  0
 26 27  1  0  0  0  0
M  END
>  <MODEL>
7

>  <REMARK>
 VINA RESULT:      -8.2      1.949      2.205
  Name = 
  7 active torsions:
  status: ('A' for Active; 'I' for Inactive)
    1  A    between atoms: C_4  and  C_20
    2  A    between atoms: C_4  and  N_24
    3  A    between atoms: C_5  and  C_12
    4  A    between atoms: C_5  and  C_25
    5  A    between atoms: C_6  and  C_7
    6  A    between atoms: C_6  and  C_25
    7  A    between atoms: C_10  and  C_12
                            x       y       z     vdW  Elec       q    Type
                         _______ _______ _______ _____ _____    ______ ____

>  <TORSDO>
F 7

$$$$
=
 OpenBabel10232411373D

 27 30  0  0  1  0  0  0  0  0999 V2000
  183.5890  178.6610  142.0370 C   0  0  0  0  0  3  0  0  0  0  0  0
  182.9140  178.8060  144.1570 N   0  0  0  0  0  0  0  0  0  0  0  0
  188.9820  177.9020  145.2490 C   0  0  2  0  0  3  0  0  0  0  0  0
  187.2280  177.8740  147.1110 C   0  0  0  0  0  3  0  0  0  0  0  0
  184.3000  178.5380  144.0840 C   0  0  0  0  0  0  0  0  0  0  0  0
  188.2580  177.6000  142.9570 C   0  0  0  0  0  0  0  0  0  0  0  0
  182.5000  178.8780  142.9520 N   0  0  0  0  0  2  0  0  0  0  0  0
  189.4620  176.9300  147.4720 C   0  0  0  0  0  3  0  0  0  0  0  0
  184.6610  178.4630  142.7810 C   0  0  0  0  0  0  0  0  0  0  0  0
  187.5230  177.9300  145.6620 C   0  0  1  0  0  3  0  0  0  0  0  0
  188.1520  177.4130  147.9600 C   0  0  0  0  0  3  0  0  0  0  0  0
  186.8930  178.0170  143.3470 C   0  0  0  0  0  0  0  0  0  0  0  0
  185.9300  178.1930  142.3900 N   0  0  0  0  0  0  0  0  0  0  0  0
  186.5620  178.1100  144.7350 C   0  0  0  0  0  0  0  0  0  0  0  0
  189.1810  177.4740  143.8630 N   0  0  0  0  0  0  0  0  0  0  0  0
  185.2220  178.3610  145.1060 C   0  0  0  0  0  3  0  0  0  0  0  0
  189.8360  177.1090  146.1990 C   0  0  0  0  0  3  0  0  0  0  0  0
  188.5560  177.1820  141.5530 C   0  0  0  0  0  2  0  0  0  0  0  0
  190.0360  177.3510  141.2330 C   0  0  0  0  0  2  0  0  0  0  0  0
  190.4060  176.6790  139.9160 C   0  0  0  0  0  2  0  0  0  0  0  0
  190.3930  177.6720  138.7600 C   0  0  0  0  0  2  0  0  0  0  0  0
  189.0740  177.6630  138.0560 C   0  0  0  0  0  3  0  0  0  0  0  0
  188.5580  178.7570  137.6280 N   0  0  0  0  0  0  0  0  0  0  0  0
  187.2880  178.7570  136.9490 C   0  0  0  0  0  2  0  0  0  0  0  0
  185.8000  178.7190  138.8110 O   0  0  0  0  0  1  0  0  0  0  0  0
  186.2410  178.1180  137.7970 C   0  0  0  0  0  0  0  0  0  0  0  0
  185.7280  176.8760  137.4490 O   0  0  0  0  0  0  0  0  0  0  0  0
  1  9  2  0  0  0  0
  1  7  1  0  0  0  0
  3 10  1  0  0  0  0
  3 17  1  1  0  0  0
  4 11  2  0  0  0  0
  5  2  2  0  0  0  0
  5 16  1  0  0  0  0
  6 12  1  0  0  0  0
  6 15  2  0  0  0  0
  7  2  1  0  0  0  0
  8 11  1  0  0  0  0
  9  5  1  0  0  0  0
 10  4  1  1  0  0  0
 12 14  1  0  0  0  0
 13  9  1  0  0  0  0
 13 12  2  0  0  0  0
 14 16  2  0  0  0  0
 14 10  1  0  0  0  0
 15  3  1  0  0  0  0
 17  8  2  0  0  0  0
 18  6  1  0  0  0  0
 19 18  1  0  0  0  0
 20 19  1  0  0  0  0
 21 20  1  0  0  0  0
 22 21  1  0  0  0  0
 23 22  2  0  0  0  0
 24 23  1  0  0  0  0
 24 26  1  0  0  0  0
 26 25  1  0  0  0  0
 27 26  2  0  0  0  0
M  END
>  <MODEL>
8

>  <REMARK>
 VINA RESULT:      -8.1      1.872      4.629
  Name = 
  7 active torsions:
  status: ('A' for Active; 'I' for Inactive)
    1  A    between atoms: C_4  and  C_20
    2  A    between atoms: C_4  and  N_24
    3  A    between atoms: C_5  and  C_12
    4  A    between atoms: C_5  and  C_25
    5  A    between atoms: C_6  and  C_7
    6  A    between atoms: C_6  and  C_25
    7  A    between atoms: C_10  and  C_12
                            x       y       z     vdW  Elec       q    Type
                         _______ _______ _______ _____ _____    ______ ____

>  <TORSDO>
F 7

$$$$
=
 OpenBabel10232411373D

 27 30  0  0  1  0  0  0  0  0999 V2000
  184.3440  178.6650  144.5210 C   0  0  0  0  0  3  0  0  0  0  0  0
  184.7330  178.5600  146.7140 N   0  0  0  0  0  0  0  0  0  0  0  0
  190.5250  177.3510  144.7590 C   0  0  2  0  0  3  0  0  0  0  0  0
  189.8260  177.1400  147.2110 C   0  0  0  0  0  3  0  0  0  0  0  0
  185.9020  178.2640  145.9780 C   0  0  0  0  0  0  0  0  0  0  0  0
  188.8070  177.3620  143.0510 C   0  0  0  0  0  0  0  0  0  0  0  0
  183.8190  178.7970  145.8540 N   0  0  0  0  0  2  0  0  0  0  0  0
  191.8870  176.0930  146.3950 C   0  0  0  0  0  3  0  0  0  0  0  0
  185.6170  178.3430  144.6570 C   0  0  0  0  0  0  0  0  0  0  0  0
  189.4260  177.3690  145.8050 C   0  0  1  0  0  3  0  0  0  0  0  0
  190.9940  176.5480  147.4820 C   0  0  0  0  0  3  0  0  0  0  0  0
  187.8130  177.7650  144.0710 C   0  0  0  0  0  0  0  0  0  0  0  0
  186.5370  178.0890  143.6960 N   0  0  0  0  0  0  0  0  0  0  0  0
  188.1660  177.6920  145.4550 C   0  0  0  0  0  0  0  0  0  0  0  0
  190.0280  177.0950  143.4060 N   0  0  0  0  0  0  0  0  0  0  0  0
  187.1720  177.9330  146.4300 C   0  0  0  0  0  3  0  0  0  0  0  0
  191.6490  176.4200  145.1190 C   0  0  0  0  0  3  0  0  0  0  0  0
  188.3900  177.1150  141.6360 C   0  0  0  0  0  2  0  0  0  0  0  0
  188.6320  178.3470  140.7710 C   0  0  0  0  0  2  0  0  0  0  0  0
  189.4070  178.0000  139.5060 C   0  0  0  0  0  2  0  0  0  0  0  0
  188.9060  178.8000  138.3090 C   0  0  0  0  0  2  0  0  0  0  0  0
  188.3600  177.8980  137.2480 C   0  0  0  0  0  3  0  0  0  0  0  0
  188.1550  176.6560  137.4940 N   0  0  0  0  0  0  0  0  0  0  0  0
  187.6300  175.7810  136.4780 C   0  0  0  0  0  2  0  0  0  0  0  0
  185.7170  176.6260  135.3320 O   0  0  0  0  0  0  0  0  0  0  0  0
  186.1610  175.9850  136.3200 C   0  0  0  0  0  0  0  0  0  0  0  0
  185.2810  175.4380  137.2440 O   0  0  0  0  0  1  0  0  0  0  0  0
  1  9  2  0  0  0  0
  1  7  1  0  0  0  0
  3 17  1  1  0  0  0
  3 10  1  0  0  0  0
  4 11  2  0  0  0  0
  5 16  1  0  0  0  0
  5  2  2  0  0  0  0
  6 15  2  0  0  0  0
  6 12  1  0  0  0  0
  7  2  1  0  0  0  0
  8 11  1  0  0  0  0
  9  5  1  0  0  0  0
 10  4  1  1  0  0  0
 12 14  1  0  0  0  0
 13 12  2  0  0  0  0
 13  9  1  0  0  0  0
 14 10  1  0  0  0  0
 14 16  2  0  0  0  0
 15  3  1  0  0  0  0
 17  8  2  0  0  0  0
 18  6  1  0  0  0  0
 19 18  1  0  0  0  0
 20 19  1  0  0  0  0
 21 20  1  0  0  0  0
 22 23  2  0  0  0  0
 22 21  1  0  0  0  0
 24 23  1  0  0  0  0
 25 26  2  0  0  0  0
 26 24  1  0  0  0  0
 26 27  1  0  0  0  0
M  END
>  <MODEL>
9

>  <REMARK>
 VINA RESULT:      -8.0      2.271      4.613
  Name = 
  7 active torsions:
  status: ('A' for Active; 'I' for Inactive)
    1  A    between atoms: C_4  and  C_20
    2  A    between atoms: C_4  and  N_24
    3  A    between atoms: C_5  and  C_12
    4  A    between atoms: C_5  and  C_25
    5  A    between atoms: C_6  and  C_7
    6  A    between atoms: C_6  and  C_25
    7  A    between atoms: C_10  and  C_12
                            x       y       z     vdW  Elec       q    Type
                         _______ _______ _______ _____ _____    ______ ____

>  <TORSDO>
F 7

$$$$
