=
 OpenBabel10232409383D

 35 39  0  0  1  0  0  0  0  0999 V2000
  185.9530  178.4970  139.8330 N   0  0  0  0  0  0  0  0  0  0  0  0
  185.2520  178.5090  141.0030 C   0  0  0  0  0  0  0  0  0  0  0  0
  187.3440  178.3120  142.2030 C   0  0  0  0  0  3  0  0  0  0  0  0
  185.2280  178.4440  143.4600 C   0  0  0  0  0  0  0  0  0  0  0  0
  183.8370  178.6070  143.4150 C   0  0  0  0  0  3  0  0  0  0  0  0
  188.0280  178.2950  140.9890 C   0  0  0  0  0  3  0  0  0  0  0  0
  183.1600  178.7070  142.2040 C   0  0  0  0  0  3  0  0  0  0  0  0
  183.8490  178.6550  140.9890 C   0  0  0  0  0  0  0  0  0  0  0  0
  185.9460  178.4070  142.2380 C   0  0  0  0  0  0  0  0  0  0  0  0
  187.3080  178.3740  139.7970 C   0  0  0  0  0  0  0  0  0  0  0  0
  180.9540  179.0710  136.0750 N   0  0  0  0  0  1  0  0  0  0  0  0
  182.6320  177.5770  139.0450 C   0  0  0  0  0  0  0  0  0  0  0  0
  182.8490  176.2770  139.5850 N   0  0  0  0  0  1  0  0  0  0  0  0
  182.8130  179.9940  139.1610 C   0  0  0  0  0  3  0  0  0  0  0  0
  181.9290  177.6990  137.8420 C   0  0  0  0  0  3  0  0  0  0  0  0
  182.1120  180.1060  137.9590 C   0  0  0  0  0  3  0  0  0  0  0  0
  183.0810  178.7340  139.7210 C   0  0  0  0  0  0  0  0  0  0  0  0
  181.6700  178.9580  137.2980 C   0  0  0  0  0  0  0  0  0  0  0  0
  185.8950  178.7520  147.1940 C   0  0  0  0  0  3  0  0  0  0  0  0
  185.8730  178.3250  144.7960 C   0  0  0  0  0  0  0  0  0  0  0  0
  187.1460  178.1400  147.2970 C   0  0  0  0  0  3  0  0  0  0  0  0
  187.1380  177.7230  144.9140 C   0  0  0  0  0  3  0  0  0  0  0  0
  185.2660  178.8470  145.9500 C   0  0  0  0  0  3  0  0  0  0  0  0
  187.7750  177.6270  146.1550 C   0  0  0  0  0  0  0  0  0  0  0  0
  189.9160  177.3480  145.1670 O   0  0  0  0  0  1  0  0  0  0  0  0
  189.1120  176.9640  146.2410 C   0  0  1  0  0  3  0  0  0  0  0  0
  189.8000  177.3090  147.5490 C   0  0  0  0  0  1  0  0  0  0  0  0
  187.3170  177.5280  137.4650 C   0  0  0  0  0  2  0  0  0  0  0  0
  188.0300  178.3960  138.4870 C   0  0  2  0  0  3  0  0  0  0  0  0
  188.5510  177.0050  138.1640 C   0  0  2  0  0  3  0  0  0  0  0  0
  189.6930  177.1220  137.2740 N   0  0  0  0  0  2  0  0  0  0  0  0
  190.5130  176.0110  137.5170 N   0  0  0  0  0  0  0  0  0  0  0  0
  190.5030  175.8070  138.8560 O   0  0  0  0  0  1  0  0  0  0  0  0
  192.4270  176.5440  138.4080 C   0  0  0  0  0  1  0  0  0  0  0  0
  191.7740  176.3770  137.1870 O   0  0  0  0  0  0  0  0  0  0  0  0
  1  2  1  0  0  0  0
  2  9  1  0  0  0  0
  3  9  1  0  0  0  0
  4 20  1  0  0  0  0
  5  4  1  0  0  0  0
  6  3  2  0  0  0  0
  7  5  2  0  0  0  0
  8  2  2  0  0  0  0
  8  7  1  0  0  0  0
  9  4  2  0  0  0  0
 10  1  2  0  0  0  0
 10  6  1  0  0  0  0
 11 18  1  0  0  0  0
 12 13  1  0  0  0  0
 12 17  1  0  0  0  0
 14 17  2  0  0  0  0
 15 12  2  0  0  0  0
 16 14  1  0  0  0  0
 17  8  1  0  0  0  0
 18 15  1  0  0  0  0
 18 16  2  0  0  0  0
 19 21  1  0  0  0  0
 20 22  2  0  0  0  0
 20 23  1  0  0  0  0
 22 24  1  0  0  0  0
 23 19  2  0  0  0  0
 24 26  1  0  0  0  0
 24 21  2  0  0  0  0
 25 26  1  0  0  0  0
 26 27  1  1  0  0  0
 28 30  1  0  0  0  0
 28 29  1  0  0  0  0
 29 10  1  1  0  0  0
 30 31  1  6  0  0  0
 30 29  1  0  0  0  0
 31 32  1  0  0  0  0
 32 33  1  0  0  0  0
 35 32  1  0  0  0  0
 35 34  1  0  0  0  0
M  END
>  <MODEL>
1

>  <REMARK>
 VINA RESULT:      -9.3      0.000      0.000
  Name = 
  7 active torsions:
  status: ('A' for Active; 'I' for Inactive)
    1  A    between atoms: C_8  and  C_33
    2  A    between atoms: C_10  and  C_11
    3  A    between atoms: C_13  and  C_32
    4  A    between atoms: N_22  and  O_28
    5  A    between atoms: N_22  and  N_34
    6  A    between atoms: C_23  and  C_31
    7  A    between atoms: C_27  and  N_34
                            x       y       z     vdW  Elec       q    Type
                         _______ _______ _______ _____ _____    ______ ____

>  <TORSDO>
F 7

$$$$
=
 OpenBabel10232409383D

 35 39  0  0  1  0  0  0  0  0999 V2000
  187.0650  178.4170  140.9350 N   0  0  0  0  0  0  0  0  0  0  0  0
  186.5290  178.3270  142.1860 C   0  0  0  0  0  0  0  0  0  0  0  0
  188.7570  177.9780  143.0620 C   0  0  0  0  0  3  0  0  0  0  0  0
  186.8360  178.0220  144.6050 C   0  0  0  0  0  0  0  0  0  0  0  0
  185.4570  178.2110  144.7680 C   0  0  0  0  0  3  0  0  0  0  0  0
  189.2700  178.0680  141.7700 C   0  0  0  0  0  3  0  0  0  0  0  0
  184.6250  178.4410  143.6760 C   0  0  0  0  0  3  0  0  0  0  0  0
  185.1410  178.4970  142.3780 C   0  0  0  0  0  0  0  0  0  0  0  0
  187.3800  178.0930  143.2980 C   0  0  0  0  0  0  0  0  0  0  0  0
  188.3970  178.2760  140.7010 C   0  0  0  0  0  0  0  0  0  0  0  0
  181.6440  179.2640  137.9200 N   0  0  0  0  0  1  0  0  0  0  0  0
  182.8150  178.8220  141.4270 C   0  0  0  0  0  0  0  0  0  0  0  0
  182.2410  178.7860  142.7300 N   0  0  0  0  0  1  0  0  0  0  0  0
  184.7310  178.7870  139.9380 C   0  0  0  0  0  3  0  0  0  0  0  0
  181.9750  179.0060  140.3240 C   0  0  0  0  0  3  0  0  0  0  0  0
  183.8850  178.9690  138.8420 C   0  0  0  0  0  3  0  0  0  0  0  0
  184.2120  178.7130  141.2410 C   0  0  0  0  0  0  0  0  0  0  0  0
  182.5060  179.0770  139.0360 C   0  0  0  0  0  0  0  0  0  0  0  0
  187.8870  177.6610  148.2450 C   0  0  0  0  0  3  0  0  0  0  0  0
  187.6520  177.7610  145.8230 C   0  0  0  0  0  0  0  0  0  0  0  0
  189.2350  177.3250  148.1060 C   0  0  0  0  0  3  0  0  0  0  0  0
  189.0120  177.4340  145.6980 C   0  0  0  0  0  3  0  0  0  0  0  0
  187.1030  177.8820  147.1100 C   0  0  0  0  0  3  0  0  0  0  0  0
  189.8050  177.2150  146.8300 C   0  0  0  0  0  0  0  0  0  0  0  0
  191.5690  175.7530  147.4530 O   0  0  0  0  0  1  0  0  0  0  0  0
  191.2440  176.8520  146.6560 C   0  0  1  0  0  3  0  0  0  0  0  0
  191.5480  176.5410  145.2020 C   0  0  0  0  0  1  0  0  0  0  0  0
  187.9130  177.9520  138.2900 C   0  0  0  0  0  2  0  0  0  0  0  0
  188.9360  178.4140  139.3120 C   0  0  2  0  0  3  0  0  0  0  0  0
  189.0590  177.0420  138.6690 C   0  0  2  0  0  3  0  0  0  0  0  0
  190.0760  177.0930  137.6340 N   0  0  0  0  0  2  0  0  0  0  0  0
  190.6530  175.8170  137.5680 N   0  0  0  0  0  0  0  0  0  0  0  0
  190.8580  175.4180  138.8460 O   0  0  0  0  0  1  0  0  0  0  0  0
  192.6700  176.5020  138.0220 C   0  0  0  0  0  1  0  0  0  0  0  0
  191.8750  175.9700  137.0060 O   0  0  0  0  0  0  0  0  0  0  0  0
  1  2  1  0  0  0  0
  2  8  2  0  0  0  0
  2  9  1  0  0  0  0
  3  9  1  0  0  0  0
  4  5  1  0  0  0  0
  4 20  1  0  0  0  0
  6  3  2  0  0  0  0
  7  5  2  0  0  0  0
  8  7  1  0  0  0  0
  9  4  2  0  0  0  0
 10  1  2  0  0  0  0
 10  6  1  0  0  0  0
 11 18  1  0  0  0  0
 12 13  1  0  0  0  0
 14 17  2  0  0  0  0
 15 12  2  0  0  0  0
 16 18  2  0  0  0  0
 16 14  1  0  0  0  0
 17 12  1  0  0  0  0
 17  8  1  0  0  0  0
 18 15  1  0  0  0  0
 20 23  1  0  0  0  0
 21 19  1  0  0  0  0
 22 20  2  0  0  0  0
 22 24  1  0  0  0  0
 23 19  2  0  0  0  0
 24 21  2  0  0  0  0
 26 27  1  6  0  0  0
 26 24  1  0  0  0  0
 26 25  1  0  0  0  0
 28 30  1  0  0  0  0
 28 29  1  0  0  0  0
 29 10  1  1  0  0  0
 30 31  1  6  0  0  0
 30 29  1  0  0  0  0
 32 31  1  0  0  0  0
 32 33  1  0  0  0  0
 35 32  1  0  0  0  0
 35 34  1  0  0  0  0
M  END
>  <MODEL>
2

>  <REMARK>
 VINA RESULT:      -9.0      1.368      2.044
  Name = 
  7 active torsions:
  status: ('A' for Active; 'I' for Inactive)
    1  A    between atoms: C_8  and  C_33
    2  A    between atoms: C_10  and  C_11
    3  A    between atoms: C_13  and  C_32
    4  A    between atoms: N_22  and  O_28
    5  A    between atoms: N_22  and  N_34
    6  A    between atoms: C_23  and  C_31
    7  A    between atoms: C_27  and  N_34
                            x       y       z     vdW  Elec       q    Type
                         _______ _______ _______ _____ _____    ______ ____

>  <TORSDO>
F 7

$$$$
=
 OpenBabel10232409383D

 35 39  0  0  1  0  0  0  0  0999 V2000
  188.3830  177.8850  142.8130 N   0  0  0  0  0  0  0  0  0  0  0  0
  187.2540  177.9640  143.5730 C   0  0  0  0  0  0  0  0  0  0  0  0
  185.9990  178.4800  141.5700 C   0  0  0  0  0  3  0  0  0  0  0  0
  184.8300  178.3380  143.7350 C   0  0  0  0  0  0  0  0  0  0  0  0
  184.9140  178.0590  145.1050 C   0  0  0  0  0  3  0  0  0  0  0  0
  187.1730  178.3990  140.8240 C   0  0  0  0  0  3  0  0  0  0  0  0
  186.1310  177.7520  145.7070 C   0  0  0  0  0  3  0  0  0  0  0  0
  187.3110  177.7050  144.9590 C   0  0  0  0  0  0  0  0  0  0  0  0
  186.0130  178.2770  142.9570 C   0  0  0  0  0  0  0  0  0  0  0  0
  188.3750  178.1110  141.4710 C   0  0  0  0  0  0  0  0  0  0  0  0
  192.3030  176.5720  147.5060 N   0  0  0  0  0  1  0  0  0  0  0  0
  188.7560  177.6040  147.0380 C   0  0  0  0  0  0  0  0  0  0  0  0
  187.6760  178.0530  147.8520 N   0  0  0  0  0  1  0  0  0  0  0  0
  189.6770  176.9280  144.8980 C   0  0  0  0  0  3  0  0  0  0  0  0
  189.9850  177.3250  147.6430 C   0  0  0  0  0  3  0  0  0  0  0  0
  190.9020  176.6540  145.5090 C   0  0  0  0  0  3  0  0  0  0  0  0
  188.5900  177.4030  145.6490 C   0  0  0  0  0  0  0  0  0  0  0  0
  191.0560  176.8530  146.8820 C   0  0  0  0  0  0  0  0  0  0  0  0
  181.1300  179.1860  143.4660 C   0  0  0  0  0  3  0  0  0  0  0  0
  183.4930  178.6780  143.1730 C   0  0  0  0  0  0  0  0  0  0  0  0
  180.9670  179.2550  142.0820 C   0  0  0  0  0  3  0  0  0  0  0  0
  183.3120  178.7390  141.7820 C   0  0  0  0  0  3  0  0  0  0  0  0
  182.3840  178.8950  144.0080 C   0  0  0  0  0  3  0  0  0  0  0  0
  182.0580  179.0270  141.2330 C   0  0  0  0  0  0  0  0  0  0  0  0
  180.9220  180.0230  139.4020 O   0  0  0  0  0  1  0  0  0  0  0  0
  181.9090  179.1000  139.7470 C   0  0  1  0  0  3  0  0  0  0  0  0
  183.2240  179.4830  139.0940 C   0  0  0  0  0  1  0  0  0  0  0  0
  189.3870  178.2840  139.2130 C   0  0  0  0  0  2  0  0  0  0  0  0
  189.6380  177.9810  140.6790 C   0  0  2  0  0  3  0  0  0  0  0  0
  189.5010  176.8490  139.6750 C   0  0  2  0  0  3  0  0  0  0  0  0
  190.8220  176.3430  139.3480 N   0  0  0  0  0  2  0  0  0  0  0  0
  190.7410  175.7980  138.0590 N   0  0  0  0  0  0  0  0  0  0  0  0
  191.1940  174.5250  138.1460 O   0  0  0  0  0  1  0  0  0  0  0  0
  192.8150  176.4610  138.0250 C   0  0  0  0  0  1  0  0  0  0  0  0
  191.6280  176.4770  137.2920 O   0  0  0  0  0  0  0  0  0  0  0  0
  1  2  1  0  0  0  0
  2  8  1  0  0  0  0
  3  9  1  0  0  0  0
  4  5  2  0  0  0  0
  5  7  1  0  0  0  0
  6 10  1  0  0  0  0
  6  3  2  0  0  0  0
  8 17  1  0  0  0  0
  8  7  2  0  0  0  0
  9  2  2  0  0  0  0
  9  4  1  0  0  0  0
 10  1  2  0  0  0  0
 12 15  1  0  0  0  0
 12 13  1  0  0  0  0
 14 16  2  0  0  0  0
 14 17  1  0  0  0  0
 16 18  1  0  0  0  0
 17 12  2  0  0  0  0
 18 11  1  0  0  0  0
 18 15  2  0  0  0  0
 19 23  1  0  0  0  0
 20  4  1  0  0  0  0
 20 23  2  0  0  0  0
 21 19  2  0  0  0  0
 22 20  1  0  0  0  0
 24 22  2  0  0  0  0
 24 21  1  0  0  0  0
 25 26  1  0  0  0  0
 26 27  1  6  0  0  0
 26 24  1  0  0  0  0
 28 30  1  0  0  0  0
 28 29  1  0  0  0  0
 29 10  1  1  0  0  0
 30 31  1  6  0  0  0
 30 29  1  0  0  0  0
 32 33  1  0  0  0  0
 32 31  1  0  0  0  0
 35 34  1  0  0  0  0
 35 32  1  0  0  0  0
M  END
>  <MODEL>
3

>  <REMARK>
 VINA RESULT:      -8.9      3.143      7.121
  Name = 
  7 active torsions:
  status: ('A' for Active; 'I' for Inactive)
    1  A    between atoms: C_8  and  C_33
    2  A    between atoms: C_10  and  C_11
    3  A    between atoms: C_13  and  C_32
    4  A    between atoms: N_22  and  O_28
    5  A    between atoms: N_22  and  N_34
    6  A    between atoms: C_23  and  C_31
    7  A    between atoms: C_27  and  N_34
                            x       y       z     vdW  Elec       q    Type
                         _______ _______ _______ _____ _____    ______ ____

>  <TORSDO>
F 7

$$$$
=
 OpenBabel10232409383D

 35 39  0  0  1  0  0  0  0  0999 V2000
  187.3510  178.2090  140.6620 N   0  0  0  0  0  0  0  0  0  0  0  0
  188.5290  177.7720  141.1930 C   0  0  0  0  0  0  0  0  0  0  0  0
  187.5670  178.0120  143.4000 C   0  0  0  0  0  3  0  0  0  0  0  0
  189.8790  177.1920  143.1630 C   0  0  0  0  0  0  0  0  0  0  0  0
  190.9120  176.8070  142.2980 C   0  0  0  0  0  3  0  0  0  0  0  0
  186.3810  178.4630  142.8250 C   0  0  0  0  0  3  0  0  0  0  0  0
  190.7730  176.9080  140.9170 C   0  0  0  0  0  3  0  0  0  0  0  0
  189.5920  177.3930  140.3470 C   0  0  0  0  0  0  0  0  0  0  0  0
  188.6670  177.6690  142.6020 C   0  0  0  0  0  0  0  0  0  0  0  0
  186.2930  178.5720  141.4370 C   0  0  0  0  0  0  0  0  0  0  0  0
  189.2540  177.9850  134.6690 N   0  0  0  0  0  1  0  0  0  0  0  0
  189.9440  176.4850  138.0070 C   0  0  0  0  0  0  0  0  0  0  0  0
  190.4490  175.2570  138.5230 N   0  0  0  0  0  1  0  0  0  0  0  0
  188.9820  178.6920  138.3100 C   0  0  0  0  0  3  0  0  0  0  0  0
  189.8570  176.6490  136.6210 C   0  0  0  0  0  3  0  0  0  0  0  0
  188.9000  178.8480  136.9250 C   0  0  0  0  0  3  0  0  0  0  0  0
  189.5010  177.5130  138.8700 C   0  0  0  0  0  0  0  0  0  0  0  0
  189.3390  177.8270  136.0800 C   0  0  0  0  0  0  0  0  0  0  0  0
  191.5750  176.5750  146.5130 C   0  0  0  0  0  3  0  0  0  0  0  0
  190.1160  177.0710  144.6280 C   0  0  0  0  0  0  0  0  0  0  0  0
  190.5160  176.7880  147.3970 C   0  0  0  0  0  3  0  0  0  0  0  0
  189.0560  177.2710  145.5290 C   0  0  0  0  0  3  0  0  0  0  0  0
  191.3750  176.7110  145.1370 C   0  0  0  0  0  3  0  0  0  0  0  0
  189.2500  177.1320  146.9070 C   0  0  0  0  0  0  0  0  0  0  0  0
  188.5160  178.1100  148.9420 O   0  0  0  0  0  1  0  0  0  0  0  0
  188.1010  177.3700  147.8340 C   0  0  1  0  0  3  0  0  0  0  0  0
  186.9770  178.0970  147.1210 C   0  0  0  0  0  1  0  0  0  0  0  0
  183.8380  178.2250  141.3470 C   0  0  0  0  0  2  0  0  0  0  0  0
  185.0130  179.0160  140.8010 C   0  0  2  0  0  3  0  0  0  0  0  0
  184.4160  177.8750  139.9950 C   0  0  2  0  0  3  0  0  0  0  0  0
  183.5670  178.4240  138.9530 N   0  0  0  0  0  2  0  0  0  0  0  0
  183.9080  177.7660  137.7620 N   0  0  0  0  0  0  0  0  0  0  0  0
  183.7380  176.4410  137.9890 O   0  0  0  0  0  1  0  0  0  0  0  0
  185.5890  177.0620  136.5690 C   0  0  0  0  0  1  0  0  0  0  0  0
  185.2350  177.9620  137.5740 O   0  0  0  0  0  0  0  0  0  0  0  0
  1  2  2  0  0  0  0
  1 10  1  0  0  0  0
  2  9  1  0  0  0  0
  4 20  1  0  0  0  0
  5  4  2  0  0  0  0
  6  3  1  0  0  0  0
  7  5  1  0  0  0  0
  8  7  2  0  0  0  0
  8  2  1  0  0  0  0
  9  4  1  0  0  0  0
  9  3  2  0  0  0  0
 10  6  2  0  0  0  0
 11 18  1  0  0  0  0
 12 13  1  0  0  0  0
 12 17  1  0  0  0  0
 14 17  2  0  0  0  0
 15 12  2  0  0  0  0
 16 14  1  0  0  0  0
 17  8  1  0  0  0  0
 18 15  1  0  0  0  0
 18 16  2  0  0  0  0
 19 21  1  0  0  0  0
 20 23  1  0  0  0  0
 20 22  2  0  0  0  0
 22 24  1  0  0  0  0
 23 19  2  0  0  0  0
 24 21  2  0  0  0  0
 24 26  1  0  0  0  0
 26 27  1  6  0  0  0
 26 25  1  0  0  0  0
 29 28  1  0  0  0  0
 29 10  1  1  0  0  0
 30 31  1  6  0  0  0
 30 29  1  0  0  0  0
 30 28  1  0  0  0  0
 32 33  1  0  0  0  0
 32 31  1  0  0  0  0
 34 35  1  0  0  0  0
 35 32  1  0  0  0  0
M  END
>  <MODEL>
4

>  <REMARK>
 VINA RESULT:      -8.8      2.533      5.609
  Name = 
  7 active torsions:
  status: ('A' for Active; 'I' for Inactive)
    1  A    between atoms: C_8  and  C_33
    2  A    between atoms: C_10  and  C_11
    3  A    between atoms: C_13  and  C_32
    4  A    between atoms: N_22  and  O_28
    5  A    between atoms: N_22  and  N_34
    6  A    between atoms: C_23  and  C_31
    7  A    between atoms: C_27  and  N_34
                            x       y       z     vdW  Elec       q    Type
                         _______ _______ _______ _____ _____    ______ ____

>  <TORSDO>
F 7

$$$$
=
 OpenBabel10232409383D

 35 39  0  0  1  0  0  0  0  0999 V2000
  186.9520  178.3530  141.7650 N   0  0  0  0  0  0  0  0  0  0  0  0
  185.5920  178.4420  141.8040 C   0  0  0  0  0  0  0  0  0  0  0  0
  185.5820  178.6080  139.3900 C   0  0  0  0  0  3  0  0  0  0  0  0
  183.4480  178.6510  140.6210 C   0  0  0  0  0  0  0  0  0  0  0  0
  182.7960  178.5530  141.8580 C   0  0  0  0  0  3  0  0  0  0  0  0
  186.9730  178.5220  139.3880 C   0  0  0  0  0  3  0  0  0  0  0  0
  183.5130  178.4140  143.0430 C   0  0  0  0  0  3  0  0  0  0  0  0
  184.9100  178.3630  143.0370 C   0  0  0  0  0  0  0  0  0  0  0  0
  184.8640  178.5820  140.5930 C   0  0  0  0  0  0  0  0  0  0  0  0
  187.6530  178.4090  140.6010 C   0  0  0  0  0  0  0  0  0  0  0  0
  187.8090  177.9310  147.9470 N   0  0  0  0  0  1  0  0  0  0  0  0
  185.0550  178.6640  145.5480 C   0  0  0  0  0  0  0  0  0  0  0  0
  183.7230  179.1650  145.6000 N   0  0  0  0  0  1  0  0  0  0  0  0
  186.9390  177.7310  144.3370 C   0  0  0  0  0  3  0  0  0  0  0  0
  185.7810  178.5540  146.7390 C   0  0  0  0  0  3  0  0  0  0  0  0
  187.6570  177.6260  145.5290 C   0  0  0  0  0  3  0  0  0  0  0  0
  185.6330  178.2470  144.3280 C   0  0  0  0  0  0  0  0  0  0  0  0
  187.0780  178.0390  146.7310 C   0  0  0  0  0  0  0  0  0  0  0  0
  181.5560  177.9060  137.4040 C   0  0  0  0  0  3  0  0  0  0  0  0
  182.6080  178.8160  139.4030 C   0  0  0  0  0  0  0  0  0  0  0  0
  181.0730  179.1730  137.0740 C   0  0  0  0  0  3  0  0  0  0  0  0
  182.1250  180.0880  139.0520 C   0  0  0  0  0  3  0  0  0  0  0  0
  182.3230  177.7300  138.5590 C   0  0  0  0  0  3  0  0  0  0  0  0
  181.3600  180.2720  137.8950 C   0  0  0  0  0  0  0  0  0  0  0  0
  181.6940  182.6140  138.0960 O   0  0  0  0  0  1  0  0  0  0  0  0
  180.8500  181.6370  137.5650 C   0  0  1  0  0  3  0  0  0  0  0  0
  180.7320  181.8190  136.0640 C   0  0  0  0  0  1  0  0  0  0  0  0
  189.5890  177.1330  139.7180 C   0  0  0  0  0  2  0  0  0  0  0  0
  189.1440  178.2760  140.6130 C   0  0  2  0  0  3  0  0  0  0  0  0
  189.5350  176.9380  141.2160 C   0  0  2  0  0  3  0  0  0  0  0  0
  190.8770  177.0390  141.7630 N   0  0  0  0  0  2  0  0  0  0  0  0
  190.8630  176.3780  142.9990 N   0  0  0  0  0  0  0  0  0  0  0  0
  189.8510  175.4790  142.9460 O   0  0  0  0  0  1  0  0  0  0  0  0
  191.6100  178.1680  143.9880 C   0  0  0  0  0  1  0  0  0  0  0  0
  190.5200  177.2990  143.9300 O   0  0  0  0  0  0  0  0  0  0  0  0
  1  2  1  0  0  0  0
  2  8  1  0  0  0  0
  3  9  1  0  0  0  0
  4  5  2  0  0  0  0
  5  7  1  0  0  0  0
  6  3  2  0  0  0  0
  6 10  1  0  0  0  0
  8  7  2  0  0  0  0
  8 17  1  0  0  0  0
  9  4  1  0  0  0  0
  9  2  2  0  0  0  0
 10  1  2  0  0  0  0
 12 13  1  0  0  0  0
 12 15  1  0  0  0  0
 14 16  2  0  0  0  0
 16 18  1  0  0  0  0
 17 14  1  0  0  0  0
 17 12  2  0  0  0  0
 18 15  2  0  0  0  0
 18 11  1  0  0  0  0
 19 23  1  0  0  0  0
 20  4  1  0  0  0  0
 21 19  2  0  0  0  0
 21 24  1  0  0  0  0
 22 20  1  0  0  0  0
 23 20  2  0  0  0  0
 24 22  2  0  0  0  0
 26 27  1  6  0  0  0
 26 24  1  0  0  0  0
 26 25  1  0  0  0  0
 28 29  1  0  0  0  0
 28 30  1  0  0  0  0
 29 10  1  6  0  0  0
 29 30  1  0  0  0  0
 30 31  1  1  0  0  0
 31 32  1  0  0  0  0
 32 35  1  0  0  0  0
 33 32  1  0  0  0  0
 35 34  1  0  0  0  0
M  END
>  <MODEL>
5

>  <REMARK>
 VINA RESULT:      -8.4      3.123      7.525
  Name = 
  7 active torsions:
  status: ('A' for Active; 'I' for Inactive)
    1  A    between atoms: C_8  and  C_33
    2  A    between atoms: C_10  and  C_11
    3  A    between atoms: C_13  and  C_32
    4  A    between atoms: N_22  and  O_28
    5  A    between atoms: N_22  and  N_34
    6  A    between atoms: C_23  and  C_31
    7  A    between atoms: C_27  and  N_34
                            x       y       z     vdW  Elec       q    Type
                         _______ _______ _______ _____ _____    ______ ____

>  <TORSDO>
F 7

$$$$
=
 OpenBabel10232409383D

 35 39  0  0  1  0  0  0  0  0999 V2000
  187.1190  177.8890  141.2530 N   0  0  0  0  0  0  0  0  0  0  0  0
  186.6120  178.0830  142.5040 C   0  0  0  0  0  0  0  0  0  0  0  0
  188.7540  177.4280  143.4200 C   0  0  0  0  0  3  0  0  0  0  0  0
  186.9240  178.0670  144.9420 C   0  0  0  0  0  0  0  0  0  0  0  0
  185.6140  178.5470  145.0770 C   0  0  0  0  0  3  0  0  0  0  0  0
  189.2360  177.2320  142.1270 C   0  0  0  0  0  3  0  0  0  0  0  0
  184.8120  178.7810  143.9640 C   0  0  0  0  0  3  0  0  0  0  0  0
  185.2910  178.5500  142.6720 C   0  0  0  0  0  0  0  0  0  0  0  0
  187.4330  177.8450  143.6380 C   0  0  0  0  0  0  0  0  0  0  0  0
  188.3900  177.4550  141.0410 C   0  0  0  0  0  0  0  0  0  0  0  0
  181.9060  179.3950  138.1420 N   0  0  0  0  0  1  0  0  0  0  0  0
  182.9820  178.7820  141.6540 C   0  0  0  0  0  0  0  0  0  0  0  0
  182.3660  178.6120  142.9270 N   0  0  0  0  0  1  0  0  0  0  0  0
  184.9460  178.9870  140.2430 C   0  0  0  0  0  3  0  0  0  0  0  0
  182.1700  178.9870  140.5330 C   0  0  0  0  0  3  0  0  0  0  0  0
  184.1280  179.1890  139.1300 C   0  0  0  0  0  3  0  0  0  0  0  0
  184.3890  178.7830  141.5160 C   0  0  0  0  0  0  0  0  0  0  0  0
  182.7390  179.1880  139.2750 C   0  0  0  0  0  0  0  0  0  0  0  0
  187.9120  177.8470  148.6110 C   0  0  0  0  0  3  0  0  0  0  0  0
  187.7090  177.8240  146.1840 C   0  0  0  0  0  0  0  0  0  0  0  0
  189.2360  177.4180  148.5100 C   0  0  0  0  0  3  0  0  0  0  0  0
  189.0470  177.4040  146.0980 C   0  0  0  0  0  3  0  0  0  0  0  0
  187.1550  178.0530  147.4550 C   0  0  0  0  0  3  0  0  0  0  0  0
  189.8110  177.1990  147.2510 C   0  0  0  0  0  0  0  0  0  0  0  0
  191.4090  175.5320  147.8000 O   0  0  0  0  0  1  0  0  0  0  0  0
  191.2250  176.7350  147.1170 C   0  0  1  0  0  3  0  0  0  0  0  0
  191.5990  176.5610  145.6570 C   0  0  0  0  0  1  0  0  0  0  0  0
  189.3480  178.6210  139.0720 C   0  0  0  0  0  2  0  0  0  0  0  0
  188.9050  177.2870  139.6460 C   0  0  2  0  0  3  0  0  0  0  0  0
  188.0110  178.0400  138.6740 C   0  0  2  0  0  3  0  0  0  0  0  0
  188.1220  177.4330  137.3600 N   0  0  0  0  0  2  0  0  0  0  0  0
  187.0240  177.8810  136.6120 N   0  0  0  0  0  0  0  0  0  0  0  0
  186.8110  179.1700  136.9690 O   0  0  0  0  0  1  0  0  0  0  0  0
  185.9560  176.0160  136.2600 C   0  0  0  0  0  1  0  0  0  0  0  0
  185.9490  177.1750  137.0360 O   0  0  0  0  0  0  0  0  0  0  0  0
  1  2  1  0  0  0  0
  2  8  2  0  0  0  0
  2  9  1  0  0  0  0
  3  9  1  0  0  0  0
  4  5  1  0  0  0  0
  4 20  1  0  0  0  0
  6  3  2  0  0  0  0
  7  5  2  0  0  0  0
  8  7  1  0  0  0  0
  9  4  2  0  0  0  0
 10  1  2  0  0  0  0
 10  6  1  0  0  0  0
 11 18  1  0  0  0  0
 12 13  1  0  0  0  0
 14 17  2  0  0  0  0
 15 12  2  0  0  0  0
 16 18  2  0  0  0  0
 16 14  1  0  0  0  0
 17 12  1  0  0  0  0
 17  8  1  0  0  0  0
 18 15  1  0  0  0  0
 20 23  1  0  0  0  0
 21 19  1  0  0  0  0
 22 20  2  0  0  0  0
 22 24  1  0  0  0  0
 23 19  2  0  0  0  0
 24 21  2  0  0  0  0
 26 27  1  6  0  0  0
 26 24  1  0  0  0  0
 26 25  1  0  0  0  0
 28 29  1  0  0  0  0
 29 10  1  1  0  0  0
 30 31  1  6  0  0  0
 30 28  1  0  0  0  0
 30 29  1  0  0  0  0
 32 33  1  0  0  0  0
 32 35  1  0  0  0  0
 32 31  1  0  0  0  0
 34 35  1  0  0  0  0
M  END
>  <MODEL>
6

>  <REMARK>
 VINA RESULT:      -8.4      2.067      2.983
  Name = 
  7 active torsions:
  status: ('A' for Active; 'I' for Inactive)
    1  A    between atoms: C_8  and  C_33
    2  A    between atoms: C_10  and  C_11
    3  A    between atoms: C_13  and  C_32
    4  A    between atoms: N_22  and  O_28
    5  A    between atoms: N_22  and  N_34
    6  A    between atoms: C_23  and  C_31
    7  A    between atoms: C_27  and  N_34
                            x       y       z     vdW  Elec       q    Type
                         _______ _______ _______ _____ _____    ______ ____

>  <TORSDO>
F 7

$$$$
=
 OpenBabel10232409383D

 35 39  0  0  1  0  0  0  0  0999 V2000
  186.7150  178.2810  139.6980 N   0  0  0  0  0  0  0  0  0  0  0  0
  187.7250  177.8850  140.5240 C   0  0  0  0  0  0  0  0  0  0  0  0
  186.3420  178.4770  142.4190 C   0  0  0  0  0  3  0  0  0  0  0  0
  188.5950  177.5520  142.7980 C   0  0  0  0  0  0  0  0  0  0  0  0
  189.7580  177.0090  142.2360 C   0  0  0  0  0  3  0  0  0  0  0  0
  185.3340  178.8800  141.5460 C   0  0  0  0  0  3  0  0  0  0  0  0
  189.9170  176.9130  140.8560 C   0  0  0  0  0  3  0  0  0  0  0  0
  188.9150  177.3500  139.9850 C   0  0  0  0  0  0  0  0  0  0  0  0
  187.5600  177.9840  141.9310 C   0  0  0  0  0  0  0  0  0  0  0  0
  185.5440  178.7880  140.1700 C   0  0  0  0  0  0  0  0  0  0  0  0
  189.7320  176.8730  134.3460 N   0  0  0  0  0  1  0  0  0  0  0  0
  189.1510  178.4020  137.6920 C   0  0  0  0  0  0  0  0  0  0  0  0
  188.9990  179.7090  138.2380 N   0  0  0  0  0  1  0  0  0  0  0  0
  189.3270  175.9940  137.9360 C   0  0  0  0  0  3  0  0  0  0  0  0
  189.3480  178.2650  136.3140 C   0  0  0  0  0  3  0  0  0  0  0  0
  189.5220  175.8670  136.5600 C   0  0  0  0  0  3  0  0  0  0  0  0
  189.1410  177.2570  138.5210 C   0  0  0  0  0  0  0  0  0  0  0  0
  189.5310  177.0030  135.7480 C   0  0  0  0  0  0  0  0  0  0  0  0
  189.5190  177.3880  146.4860 C   0  0  0  0  0  3  0  0  0  0  0  0
  188.5130  177.6370  144.2830 C   0  0  0  0  0  0  0  0  0  0  0  0
  188.3100  177.7450  147.0850 C   0  0  0  0  0  3  0  0  0  0  0  0
  187.2990  177.9830  144.8990 C   0  0  0  0  0  3  0  0  0  0  0  0
  189.6180  177.3300  145.0940 C   0  0  0  0  0  3  0  0  0  0  0  0
  187.1920  178.0400  146.2930 C   0  0  0  0  0  0  0  0  0  0  0  0
  185.9820  179.6970  147.4860 O   0  0  0  0  0  1  0  0  0  0  0  0
  185.8880  178.4290  146.9100 C   0  0  1  0  0  3  0  0  0  0  0  0
  184.7780  178.4140  145.8770 C   0  0  0  0  0  1  0  0  0  0  0  0
  183.0950  179.0490  139.8770 C   0  0  0  0  0  2  0  0  0  0  0  0
  184.4570  179.1800  139.2190 C   0  0  2  0  0  3  0  0  0  0  0  0
  183.5750  177.9780  138.9250 C   0  0  2  0  0  3  0  0  0  0  0  0
  182.9380  178.1630  137.6330 N   0  0  0  0  0  2  0  0  0  0  0  0
  183.1820  177.0000  136.8890 N   0  0  0  0  0  0  0  0  0  0  0  0
  183.6030  176.0590  137.7680 O   0  0  0  0  0  1  0  0  0  0  0  0
  183.8320  176.8130  134.8190 C   0  0  0  0  0  1  0  0  0  0  0  0
  184.2300  177.2700  136.0750 O   0  0  0  0  0  0  0  0  0  0  0  0
  1 10  2  0  0  0  0
  1  2  1  0  0  0  0
  2  9  1  0  0  0  0
  4 20  1  0  0  0  0
  5  4  1  0  0  0  0
  6  3  2  0  0  0  0
  7  5  2  0  0  0  0
  8  2  2  0  0  0  0
  8  7  1  0  0  0  0
  9  3  1  0  0  0  0
  9  4  2  0  0  0  0
 10  6  1  0  0  0  0
 11 18  1  0  0  0  0
 12 13  1  0  0  0  0
 12 17  1  0  0  0  0
 14 17  2  0  0  0  0
 15 12  2  0  0  0  0
 16 14  1  0  0  0  0
 17  8  1  0  0  0  0
 18 15  1  0  0  0  0
 18 16  2  0  0  0  0
 19 21  1  0  0  0  0
 20 22  2  0  0  0  0
 20 23  1  0  0  0  0
 22 24  1  0  0  0  0
 23 19  2  0  0  0  0
 24 26  1  0  0  0  0
 24 21  2  0  0  0  0
 26 27  1  6  0  0  0
 26 25  1  0  0  0  0
 29 28  1  0  0  0  0
 29 10  1  1  0  0  0
 30 31  1  6  0  0  0
 30 29  1  0  0  0  0
 30 28  1  0  0  0  0
 32 31  1  0  0  0  0
 32 33  1  0  0  0  0
 34 35  1  0  0  0  0
 35 32  1  0  0  0  0
M  END
>  <MODEL>
7

>  <REMARK>
 VINA RESULT:      -8.3      2.557      5.642
  Name = 
  7 active torsions:
  status: ('A' for Active; 'I' for Inactive)
    1  A    between atoms: C_8  and  C_33
    2  A    between atoms: C_10  and  C_11
    3  A    between atoms: C_13  and  C_32
    4  A    between atoms: N_22  and  O_28
    5  A    between atoms: N_22  and  N_34
    6  A    between atoms: C_23  and  C_31
    7  A    between atoms: C_27  and  N_34
                            x       y       z     vdW  Elec       q    Type
                         _______ _______ _______ _____ _____    ______ ____

>  <TORSDO>
F 7

$$$$
=
 OpenBabel10232409383D

 35 39  0  0  1  0  0  0  0  0999 V2000
  187.6270  178.2320  142.3260 N   0  0  0  0  0  0  0  0  0  0  0  0
  186.2660  178.3150  142.2960 C   0  0  0  0  0  0  0  0  0  0  0  0
  186.3740  178.4150  139.8810 C   0  0  0  0  0  3  0  0  0  0  0  0
  184.1810  178.4800  141.0050 C   0  0  0  0  0  0  0  0  0  0  0  0
  183.4710  178.4130  142.2120 C   0  0  0  0  0  3  0  0  0  0  0  0
  187.7630  178.3360  139.9480 C   0  0  0  0  0  3  0  0  0  0  0  0
  184.1300  178.3110  143.4340 C   0  0  0  0  0  3  0  0  0  0  0  0
  185.5260  178.2660  143.4960 C   0  0  0  0  0  0  0  0  0  0  0  0
  185.5970  178.4180  141.0480 C   0  0  0  0  0  0  0  0  0  0  0  0
  188.3840  178.2590  141.1950 C   0  0  0  0  0  0  0  0  0  0  0  0
  188.1840  177.9820  148.5500 N   0  0  0  0  0  1  0  0  0  0  0  0
  185.5540  178.6520  146.0000 C   0  0  0  0  0  0  0  0  0  0  0  0
  184.2250  179.1630  145.9710 N   0  0  0  0  0  1  0  0  0  0  0  0
  187.4850  177.6640  144.9120 C   0  0  0  0  0  3  0  0  0  0  0  0
  186.2220  178.5770  147.2270 C   0  0  0  0  0  3  0  0  0  0  0  0
  188.1450  177.5950  146.1400 C   0  0  0  0  0  3  0  0  0  0  0  0
  186.1860  178.1890  144.8230 C   0  0  0  0  0  0  0  0  0  0  0  0
  187.5130  178.0530  147.2980 C   0  0  0  0  0  0  0  0  0  0  0  0
  182.1890  179.9600  138.1200 C   0  0  0  0  0  3  0  0  0  0  0  0
  183.4010  178.6090  139.7440 C   0  0  0  0  0  0  0  0  0  0  0  0
  181.8750  178.8120  137.3910 C   0  0  0  0  0  3  0  0  0  0  0  0
  183.0670  177.4610  139.0060 C   0  0  0  0  0  3  0  0  0  0  0  0
  182.9440  179.8570  139.2920 C   0  0  0  0  0  3  0  0  0  0  0  0
  182.3090  177.5560  137.8340 C   0  0  0  0  0  0  0  0  0  0  0  0
  182.1250  175.1890  137.8840 O   0  0  0  0  0  1  0  0  0  0  0  0
  181.9890  176.3130  137.0680 C   0  0  1  0  0  3  0  0  0  0  0  0
  180.5820  176.3750  136.5060 C   0  0  0  0  0  1  0  0  0  0  0  0
  190.3760  177.0410  140.3580 C   0  0  0  0  0  2  0  0  0  0  0  0
  189.8720  178.1350  141.2830 C   0  0  2  0  0  3  0  0  0  0  0  0
  190.2420  176.7690  141.8390 C   0  0  2  0  0  3  0  0  0  0  0  0
  191.5500  176.8500  142.4630 N   0  0  0  0  0  2  0  0  0  0  0  0
  191.4460  176.2140  143.7080 N   0  0  0  0  0  0  0  0  0  0  0  0
  190.2460  175.5870  143.7250 O   0  0  0  0  0  1  0  0  0  0  0  0
  191.6070  176.5380  145.8560 C   0  0  0  0  0  1  0  0  0  0  0  0
  191.3890  177.1920  144.6430 O   0  0  0  0  0  0  0  0  0  0  0  0
  2  1  1  0  0  0  0
  2  8  1  0  0  0  0
  3  6  2  0  0  0  0
  3  9  1  0  0  0  0
  4  9  1  0  0  0  0
  4  5  2  0  0  0  0
  5  7  1  0  0  0  0
  6 10  1  0  0  0  0
  7  8  2  0  0  0  0
  8 17  1  0  0  0  0
  9  2  2  0  0  0  0
 10  1  2  0  0  0  0
 12 15  1  0  0  0  0
 13 12  1  0  0  0  0
 14 16  2  0  0  0  0
 15 18  2  0  0  0  0
 16 18  1  0  0  0  0
 17 14  1  0  0  0  0
 17 12  2  0  0  0  0
 18 11  1  0  0  0  0
 19 23  1  0  0  0  0
 20  4  1  0  0  0  0
 21 24  1  0  0  0  0
 21 19  2  0  0  0  0
 22 20  1  0  0  0  0
 23 20  2  0  0  0  0
 24 22  2  0  0  0  0
 26 27  1  1  0  0  0
 26 24  1  0  0  0  0
 26 25  1  0  0  0  0
 28 29  1  0  0  0  0
 28 30  1  0  0  0  0
 29 10  1  6  0  0  0
 29 30  1  0  0  0  0
 30 31  1  1  0  0  0
 31 32  1  0  0  0  0
 32 33  1  0  0  0  0
 32 35  1  0  0  0  0
 35 34  1  0  0  0  0
M  END
>  <MODEL>
8

>  <REMARK>
 VINA RESULT:      -8.3      2.991      7.524
  Name = 
  7 active torsions:
  status: ('A' for Active; 'I' for Inactive)
    1  A    between atoms: C_8  and  C_33
    2  A    between atoms: C_10  and  C_11
    3  A    between atoms: C_13  and  C_32
    4  A    between atoms: N_22  and  O_28
    5  A    between atoms: N_22  and  N_34
    6  A    between atoms: C_23  and  C_31
    7  A    between atoms: C_27  and  N_34
                            x       y       z     vdW  Elec       q    Type
                         _______ _______ _______ _____ _____    ______ ____

>  <TORSDO>
F 7

$$$$
=
 OpenBabel10232409383D

 35 39  0  0  1  0  0  0  0  0999 V2000
  190.5420  176.9720  143.2590 N   0  0  0  0  0  0  0  0  0  0  0  0
  189.3780  177.4100  142.7010 C   0  0  0  0  0  0  0  0  0  0  0  0
  188.3950  177.4650  144.9110 C   0  0  0  0  0  3  0  0  0  0  0  0
  187.0460  178.1420  142.9620 C   0  0  0  0  0  0  0  0  0  0  0  0
  187.0030  178.3780  141.5820 C   0  0  0  0  0  3  0  0  0  0  0  0
  189.5980  177.0100  145.4480 C   0  0  0  0  0  3  0  0  0  0  0  0
  188.1060  178.1290  140.7710 C   0  0  0  0  0  3  0  0  0  0  0  0
  189.2990  177.6400  141.3110 C   0  0  0  0  0  0  0  0  0  0  0  0
  188.2540  177.6630  143.5300 C   0  0  0  0  0  0  0  0  0  0  0  0
  190.6710  176.7500  144.5950 C   0  0  0  0  0  0  0  0  0  0  0  0
  193.7690  176.5380  137.9190 N   0  0  0  0  0  1  0  0  0  0  0  0
  190.2530  176.7990  139.1190 C   0  0  0  0  0  0  0  0  0  0  0  0
  188.9480  176.5300  138.6150 N   0  0  0  0  0  1  0  0  0  0  0  0
  191.7460  177.6340  140.8400 C   0  0  0  0  0  3  0  0  0  0  0  0
  191.3590  176.5330  138.3050 C   0  0  0  0  0  3  0  0  0  0  0  0
  192.8440  177.3640  140.0210 C   0  0  0  0  0  3  0  0  0  0  0  0
  190.4400  177.3590  140.4030 C   0  0  0  0  0  0  0  0  0  0  0  0
  192.6500  176.8120  138.7540 C   0  0  0  0  0  0  0  0  0  0  0  0
  184.6620  178.6190  145.8900 C   0  0  0  0  0  3  0  0  0  0  0  0
  185.8160  178.4160  143.7550 C   0  0  0  0  0  0  0  0  0  0  0  0
  183.4620  178.8730  145.2240 C   0  0  0  0  0  3  0  0  0  0  0  0
  184.5990  178.6600  143.0980 C   0  0  0  0  0  3  0  0  0  0  0  0
  185.8310  178.3880  145.1590 C   0  0  0  0  0  3  0  0  0  0  0  0
  183.4250  178.8890  143.8240 C   0  0  0  0  0  0  0  0  0  0  0  0
  182.1480  178.4990  141.8610 O   0  0  0  0  0  1  0  0  0  0  0  0
  182.1530  179.1630  143.0880 C   0  0  1  0  0  3  0  0  0  0  0  0
  180.9520  178.7340  143.9110 C   0  0  0  0  0  1  0  0  0  0  0  0
  191.9820  174.7960  145.3810 C   0  0  0  0  0  2  0  0  0  0  0  0
  191.9810  176.2980  145.1600 C   0  0  2  0  0  3  0  0  0  0  0  0
  191.7720  175.7280  146.5530 C   0  0  2  0  0  3  0  0  0  0  0  0
  193.0090  175.8440  147.3030 N   0  0  0  0  0  2  0  0  0  0  0  0
  192.6610  176.2330  148.6040 N   0  0  0  0  0  0  0  0  0  0  0  0
  191.9610  177.3870  148.4890 O   0  0  0  0  0  1  0  0  0  0  0  0
  193.4820  177.5900  150.0970 C   0  0  0  0  0  1  0  0  0  0  0  0
  193.8150  176.5380  149.2430 O   0  0  0  0  0  0  0  0  0  0  0  0
  1 10  1  0  0  0  0
  2  1  2  0  0  0  0
  2  9  1  0  0  0  0
  3  6  1  0  0  0  0
  4  9  1  0  0  0  0
  4 20  1  0  0  0  0
  5  4  2  0  0  0  0
  7  8  2  0  0  0  0
  7  5  1  0  0  0  0
  8  2  1  0  0  0  0
  9  3  2  0  0  0  0
 10  6  2  0  0  0  0
 11 18  1  0  0  0  0
 12 17  1  0  0  0  0
 13 12  1  0  0  0  0
 15 18  1  0  0  0  0
 15 12  2  0  0  0  0
 16 14  1  0  0  0  0
 17 14  2  0  0  0  0
 17  8  1  0  0  0  0
 18 16  2  0  0  0  0
 20 23  1  0  0  0  0
 21 19  1  0  0  0  0
 22 20  2  0  0  0  0
 22 24  1  0  0  0  0
 23 19  2  0  0  0  0
 24 21  2  0  0  0  0
 25 26  1  0  0  0  0
 26 24  1  0  0  0  0
 26 27  1  1  0  0  0
 28 30  1  0  0  0  0
 29 10  1  6  0  0  0
 29 28  1  0  0  0  0
 29 30  1  0  0  0  0
 30 31  1  1  0  0  0
 31 32  1  0  0  0  0
 32 35  1  0  0  0  0
 33 32  1  0  0  0  0
 35 34  1  0  0  0  0
M  END
>  <MODEL>
9

>  <REMARK>
 VINA RESULT:      -8.3      3.966      7.791
  Name = 
  7 active torsions:
  status: ('A' for Active; 'I' for Inactive)
    1  A    between atoms: C_8  and  C_33
    2  A    between atoms: C_10  and  C_11
    3  A    between atoms: C_13  and  C_32
    4  A    between atoms: N_22  and  O_28
    5  A    between atoms: N_22  and  N_34
    6  A    between atoms: C_23  and  C_31
    7  A    between atoms: C_27  and  N_34
                            x       y       z     vdW  Elec       q    Type
                         _______ _______ _______ _____ _____    ______ ____

>  <TORSDO>
F 7

$$$$
