=
 OpenBabel10232411023D

 26 27  0  0  1  0  0  0  0  0999 V2000
  189.6720  177.0330  141.7620 C   0  0  1  0  0  3  0  0  0  0  0  0
  190.6990  176.9770  140.6680 C   0  0  0  0  0  0  0  0  0  0  0  0
  191.9910  177.4940  140.8510 C   0  0  0  0  0  3  0  0  0  0  0  0
  192.9260  177.4290  139.8130 C   0  0  0  0  0  3  0  0  0  0  0  0
  190.3530  176.3970  139.4430 C   0  0  0  0  0  3  0  0  0  0  0  0
  191.2890  176.3330  138.4060 C   0  0  0  0  0  3  0  0  0  0  0  0
  192.5740  176.8500  138.5910 C   0  0  0  0  0  0  0  0  0  0  0  0
  193.5030  176.7860  137.5620 O   0  0  0  0  0  1  0  0  0  0  0  0
  190.2960  177.1230  143.1210 C   0  0  0  0  0  0  0  0  0  0  0  0
  190.1350  177.3490  146.1740 C   0  0  0  0  0  3  0  0  0  0  0  0
  191.7550  176.0150  144.8290 C   0  0  0  0  0  3  0  0  0  0  0  0
  191.3750  176.5650  145.9970 C   0  0  0  0  0  0  0  0  0  0  0  0
  189.5710  178.1330  145.2550 C   0  0  0  0  0  3  0  0  0  0  0  0
  191.0690  176.1140  143.5250 C   0  0  0  0  0  3  0  0  0  0  0  0
  190.1810  178.3860  143.9180 C   0  0  0  0  0  2  0  0  0  0  0  0
  192.1410  176.3340  147.1410 O   0  0  0  0  0  0  0  0  0  0  0  0
  192.1010  177.1640  148.1930 O   0  0  0  0  0  1  0  0  0  0  0  0
  188.6360  178.1330  141.5400 C   0  0  0  0  0  2  0  0  0  0  0  0
  186.2490  178.6480  142.2170 C   0  0  0  0  0  0  0  0  0  0  0  0
  186.1350  179.5100  141.3050 O   0  0  0  0  0  0  0  0  0  0  0  0
  187.4580  177.9010  142.3670 N   0  0  0  0  0  2  0  0  0  0  0  0
  185.1290  178.4330  143.1710 C   0  0  0  0  0  2  0  0  0  0  0  0
  185.6850  178.1200  144.5480 C   0  0  0  0  0  2  0  0  0  0  0  0
  183.6980  179.1060  145.4130 O   0  0  0  0  0  0  0  0  0  0  0  0
  185.5650  179.2740  146.7850 N   0  0  0  0  0  1  0  0  0  0  0  0
  184.9210  178.8650  145.5840 C   0  0  0  0  0  0  0  0  0  0  0  0
  1 18  1  6  0  0  0
  1  9  1  0  0  0  0
  2  3  1  0  0  0  0
  2  1  1  0  0  0  0
  4  3  2  0  0  0  0
  5  2  2  0  0  0  0
  6  7  2  0  0  0  0
  6  5  1  0  0  0  0
  7  4  1  0  0  0  0
  8  7  1  0  0  0  0
  9 14  2  0  0  0  0
  9 15  1  0  0  0  0
 11 12  2  0  0  0  0
 12 10  1  0  0  0  0
 12 16  1  0  0  0  0
 13 10  2  0  0  0  0
 14 11  1  0  0  0  0
 15 13  1  0  0  0  0
 16 17  1  0  0  0  0
 18 21  1  0  0  0  0
 19 21  1  0  0  0  0
 19 22  1  0  0  0  0
 20 19  2  0  0  0  0
 22 23  1  0  0  0  0
 23 26  1  0  0  0  0
 24 26  2  0  0  0  0
 26 25  1  0  0  0  0
M  END
>  <MODEL>
1

>  <REMARK>
 VINA RESULT:      -8.4      0.000      0.000
  Name = 
  8 active torsions:
  status: ('A' for Active; 'I' for Inactive)
    1  A    between atoms: C_1  and  C_3
    2  A    between atoms: C_2  and  C_5
    3  A    between atoms: C_3  and  C_10
    4  A    between atoms: C_3  and  C_11
    5  A    between atoms: O_4  and  C_19
    6  A    between atoms: C_5  and  C_20
    7  A    between atoms: C_11  and  N_24
    8  A    between atoms: C_20  and  C_25
                            x       y       z     vdW  Elec       q    Type
                         _______ _______ _______ _____ _____    ______ ____

>  <TORSDO>
F 8

$$$$
=
 OpenBabel10232411023D

 26 27  0  0  1  0  0  0  0  0999 V2000
  188.6010  177.1640  143.8510 C   0  0  1  0  0  3  0  0  0  0  0  0
  189.5810  176.9960  144.9750 C   0  0  0  0  0  0  0  0  0  0  0  0
  189.2490  177.3450  146.2930 C   0  0  0  0  0  3  0  0  0  0  0  0
  190.1840  177.1790  147.3190 C   0  0  0  0  0  3  0  0  0  0  0  0
  190.8530  176.4820  144.6950 C   0  0  0  0  0  3  0  0  0  0  0  0
  191.7860  176.3180  145.7220 C   0  0  0  0  0  3  0  0  0  0  0  0
  191.4530  176.6670  147.0340 C   0  0  0  0  0  0  0  0  0  0  0  0
  192.3800  176.5030  148.0530 O   0  0  0  0  0  1  0  0  0  0  0  0
  187.2240  177.4880  144.3440 C   0  0  0  0  0  0  0  0  0  0  0  0
  185.2860  178.8870  146.2630 C   0  0  0  0  0  3  0  0  0  0  0  0
  185.0020  178.5170  143.8150 C   0  0  0  0  0  3  0  0  0  0  0  0
  184.4940  178.8440  145.0170 C   0  0  0  0  0  0  0  0  0  0  0  0
  186.3170  178.0960  146.5590 C   0  0  0  0  0  3  0  0  0  0  0  0
  186.3870  178.1050  143.5080 C   0  0  0  0  0  3  0  0  0  0  0  0
  186.7650  176.9810  145.6760 C   0  0  0  0  0  2  0  0  0  0  0  0
  183.1580  179.2410  145.1070 O   0  0  0  0  0  0  0  0  0  0  0  0
  182.2230  178.7550  144.2780 O   0  0  0  0  0  1  0  0  0  0  0  0
  189.0770  178.1640  142.7990 C   0  0  0  0  0  2  0  0  0  0  0  0
  190.3650  177.2580  140.8140 C   0  0  0  0  0  0  0  0  0  0  0  0
  191.4690  177.4930  141.3740 O   0  0  0  0  0  0  0  0  0  0  0  0
  189.1340  177.5370  141.4840 N   0  0  0  0  0  2  0  0  0  0  0  0
  190.3410  176.7220  139.4280 C   0  0  0  0  0  2  0  0  0  0  0  0
  188.9880  176.9950  138.7980 C   0  0  0  0  0  2  0  0  0  0  0  0
  189.0000  179.3210  138.2910 O   0  0  0  0  0  0  0  0  0  0  0  0
  189.3190  177.9110  136.4730 N   0  0  0  0  0  1  0  0  0  0  0  0
  189.0890  178.1430  137.8580 C   0  0  0  0  0  0  0  0  0  0  0  0
  1 18  1  6  0  0  0
  1  9  1  0  0  0  0
  1  2  1  0  0  0  0
  2  3  1  0  0  0  0
  3  4  2  0  0  0  0
  5  2  2  0  0  0  0
  5  6  1  0  0  0  0
  6  7  2  0  0  0  0
  7  4  1  0  0  0  0
  7  8  1  0  0  0  0
  9 15  1  0  0  0  0
 10 13  2  0  0  0  0
 11 12  2  0  0  0  0
 12 16  1  0  0  0  0
 12 10  1  0  0  0  0
 14 11  1  0  0  0  0
 14  9  2  0  0  0  0
 15 13  1  0  0  0  0
 17 16  1  0  0  0  0
 19 20  2  0  0  0  0
 19 21  1  0  0  0  0
 21 18  1  0  0  0  0
 22 19  1  0  0  0  0
 23 22  1  0  0  0  0
 25 26  1  0  0  0  0
 26 24  2  0  0  0  0
 26 23  1  0  0  0  0
M  END
>  <MODEL>
2

>  <REMARK>
 VINA RESULT:      -8.1      2.162      6.867
  Name = 
  8 active torsions:
  status: ('A' for Active; 'I' for Inactive)
    1  A    between atoms: C_1  and  C_3
    2  A    between atoms: C_2  and  C_5
    3  A    between atoms: C_3  and  C_10
    4  A    between atoms: C_3  and  C_11
    5  A    between atoms: O_4  and  C_19
    6  A    between atoms: C_5  and  C_20
    7  A    between atoms: C_11  and  N_24
    8  A    between atoms: C_20  and  C_25
                            x       y       z     vdW  Elec       q    Type
                         _______ _______ _______ _____ _____    ______ ____

>  <TORSDO>
F 8

$$$$
=
 OpenBabel10232411023D

 26 27  0  0  1  0  0  0  0  0999 V2000
  188.4850  177.1440  143.4470 C   0  0  1  0  0  3  0  0  0  0  0  0
  189.4120  177.0610  144.6240 C   0  0  0  0  0  0  0  0  0  0  0  0
  189.0010  177.4520  145.9080 C   0  0  0  0  0  3  0  0  0  0  0  0
  189.8880  177.3660  146.9850 C   0  0  0  0  0  3  0  0  0  0  0  0
  190.7140  176.5840  144.4300 C   0  0  0  0  0  3  0  0  0  0  0  0
  191.5990  176.4990  145.5090 C   0  0  0  0  0  3  0  0  0  0  0  0
  191.1870  176.8900  146.7850 C   0  0  0  0  0  0  0  0  0  0  0  0
  192.0660  176.8050  147.8560 O   0  0  0  0  0  1  0  0  0  0  0  0
  187.0840  177.4850  143.8520 C   0  0  0  0  0  0  0  0  0  0  0  0
  185.0470  178.9570  145.6080 C   0  0  0  0  0  3  0  0  0  0  0  0
  184.8930  178.4870  143.1650 C   0  0  0  0  0  3  0  0  0  0  0  0
  184.3220  178.8620  144.3240 C   0  0  0  0  0  0  0  0  0  0  0  0
  186.0600  178.1800  145.9900 C   0  0  0  0  0  3  0  0  0  0  0  0
  186.2930  178.0660  142.9490 C   0  0  0  0  0  3  0  0  0  0  0  0
  186.5540  177.0310  145.1770 C   0  0  0  0  0  2  0  0  0  0  0  0
  182.9830  179.2590  144.3270 O   0  0  0  0  0  0  0  0  0  0  0  0
  182.1880  179.0580  143.2660 O   0  0  0  0  0  1  0  0  0  0  0  0
  189.0020  178.0780  142.3540 C   0  0  0  0  0  2  0  0  0  0  0  0
  188.6660  177.7010  139.8720 C   0  0  0  0  0  0  0  0  0  0  0  0
  187.9480  178.7310  139.7730 O   0  0  0  0  0  0  0  0  0  0  0  0
  189.2520  177.3380  141.1240 N   0  0  0  0  0  2  0  0  0  0  0  0
  188.8760  176.8320  138.6840 C   0  0  0  0  0  2  0  0  0  0  0  0
  190.1590  177.2310  137.9800 C   0  0  0  0  0  2  0  0  0  0  0  0
  192.3000  176.7400  138.8980 O   0  0  0  0  0  0  0  0  0  0  0  0
  191.1070  174.9010  138.1300 N   0  0  0  0  0  1  0  0  0  0  0  0
  191.2550  176.2980  138.3550 C   0  0  0  0  0  0  0  0  0  0  0  0
  1 18  1  6  0  0  0
  1  9  1  0  0  0  0
  1  2  1  0  0  0  0
  2  3  1  0  0  0  0
  3  4  2  0  0  0  0
  5  2  2  0  0  0  0
  5  6  1  0  0  0  0
  6  7  2  0  0  0  0
  7  4  1  0  0  0  0
  7  8  1  0  0  0  0
  9 15  1  0  0  0  0
 10 13  2  0  0  0  0
 11 12  2  0  0  0  0
 12 16  1  0  0  0  0
 12 10  1  0  0  0  0
 14 11  1  0  0  0  0
 14  9  2  0  0  0  0
 15 13  1  0  0  0  0
 17 16  1  0  0  0  0
 19 21  1  0  0  0  0
 20 19  2  0  0  0  0
 21 18  1  0  0  0  0
 22 19  1  0  0  0  0
 23 26  1  0  0  0  0
 23 22  1  0  0  0  0
 25 26  1  0  0  0  0
 26 24  2  0  0  0  0
M  END
>  <MODEL>
3

>  <REMARK>
 VINA RESULT:      -8.0      2.014      7.007
  Name = 
  8 active torsions:
  status: ('A' for Active; 'I' for Inactive)
    1  A    between atoms: C_1  and  C_3
    2  A    between atoms: C_2  and  C_5
    3  A    between atoms: C_3  and  C_10
    4  A    between atoms: C_3  and  C_11
    5  A    between atoms: O_4  and  C_19
    6  A    between atoms: C_5  and  C_20
    7  A    between atoms: C_11  and  N_24
    8  A    between atoms: C_20  and  C_25
                            x       y       z     vdW  Elec       q    Type
                         _______ _______ _______ _____ _____    ______ ____

>  <TORSDO>
F 8

$$$$
=
 OpenBabel10232411023D

 26 27  0  0  1  0  0  0  0  0999 V2000
  188.3360  177.2800  142.8600 C   0  0  1  0  0  3  0  0  0  0  0  0
  189.3830  177.1240  143.9250 C   0  0  0  0  0  0  0  0  0  0  0  0
  190.4760  176.2600  143.7540 C   0  0  0  0  0  3  0  0  0  0  0  0
  191.4350  176.1350  144.7640 C   0  0  0  0  0  3  0  0  0  0  0  0
  189.2590  177.8570  145.1110 C   0  0  0  0  0  3  0  0  0  0  0  0
  190.2180  177.7290  146.1200 C   0  0  0  0  0  3  0  0  0  0  0  0
  191.3050  176.8680  145.9470 C   0  0  0  0  0  0  0  0  0  0  0  0
  192.2570  176.7420  146.9490 O   0  0  0  0  0  1  0  0  0  0  0  0
  186.9820  177.5660  143.4350 C   0  0  0  0  0  0  0  0  0  0  0  0
  185.1310  178.8440  145.5180 C   0  0  0  0  0  3  0  0  0  0  0  0
  184.7320  178.6050  143.0700 C   0  0  0  0  0  3  0  0  0  0  0  0
  184.2810  178.8620  144.3110 C   0  0  0  0  0  0  0  0  0  0  0  0
  186.1790  178.0450  145.7210 C   0  0  0  0  0  3  0  0  0  0  0  0
  186.1030  178.2210  142.6760 C   0  0  0  0  0  3  0  0  0  0  0  0
  186.5900  176.9830  144.7580 C   0  0  0  0  0  2  0  0  0  0  0  0
  182.9490  179.2430  144.4860 O   0  0  0  0  0  0  0  0  0  0  0  0
  182.0180  178.9960  143.5520 O   0  0  0  0  0  1  0  0  0  0  0  0
  188.7270  178.3020  141.7940 C   0  0  0  0  0  2  0  0  0  0  0  0
  188.3820  177.7420  139.3480 C   0  0  0  0  0  0  0  0  0  0  0  0
  187.3700  178.4900  139.2790 O   0  0  0  0  0  0  0  0  0  0  0  0
  189.1250  177.6310  140.5630 N   0  0  0  0  0  2  0  0  0  0  0  0
  188.7850  176.9380  138.1640 C   0  0  0  0  0  2  0  0  0  0  0  0
  190.1750  177.3520  137.7150 C   0  0  0  0  0  2  0  0  0  0  0  0
  190.7410  175.1300  138.3550 O   0  0  0  0  0  0  0  0  0  0  0  0
  192.5460  176.5230  137.9130 N   0  0  0  0  0  1  0  0  0  0  0  0
  191.1500  176.2730  138.0250 C   0  0  0  0  0  0  0  0  0  0  0  0
  1 18  1  6  0  0  0
  1  9  1  0  0  0  0
  1  2  1  0  0  0  0
  2  5  1  0  0  0  0
  3  2  2  0  0  0  0
  3  4  1  0  0  0  0
  4  7  2  0  0  0  0
  5  6  2  0  0  0  0
  7  6  1  0  0  0  0
  7  8  1  0  0  0  0
  9 15  1  0  0  0  0
 10 13  2  0  0  0  0
 11 12  2  0  0  0  0
 12 16  1  0  0  0  0
 12 10  1  0  0  0  0
 14 11  1  0  0  0  0
 14  9  2  0  0  0  0
 15 13  1  0  0  0  0
 17 16  1  0  0  0  0
 19 21  1  0  0  0  0
 20 19  2  0  0  0  0
 21 18  1  0  0  0  0
 22 19  1  0  0  0  0
 23 26  1  0  0  0  0
 23 22  1  0  0  0  0
 25 26  1  0  0  0  0
 26 24  2  0  0  0  0
M  END
>  <MODEL>
4

>  <REMARK>
 VINA RESULT:      -7.9      2.156      6.870
  Name = 
  8 active torsions:
  status: ('A' for Active; 'I' for Inactive)
    1  A    between atoms: C_1  and  C_3
    2  A    between atoms: C_2  and  C_5
    3  A    between atoms: C_3  and  C_10
    4  A    between atoms: C_3  and  C_11
    5  A    between atoms: O_4  and  C_19
    6  A    between atoms: C_5  and  C_20
    7  A    between atoms: C_11  and  N_24
    8  A    between atoms: C_20  and  C_25
                            x       y       z     vdW  Elec       q    Type
                         _______ _______ _______ _____ _____    ______ ____

>  <TORSDO>
F 8

$$$$
=
 OpenBabel10232411023D

 26 27  0  0  1  0  0  0  0  0999 V2000
  189.0870  177.1020  141.4130 C   0  0  1  0  0  3  0  0  0  0  0  0
  190.2630  177.0180  140.4830 C   0  0  0  0  0  0  0  0  0  0  0  0
  190.1540  176.4200  139.2180 C   0  0  0  0  0  3  0  0  0  0  0  0
  191.2670  176.3540  138.3750 C   0  0  0  0  0  3  0  0  0  0  0  0
  191.4910  177.5480  140.8940 C   0  0  0  0  0  3  0  0  0  0  0  0
  192.6030  177.4810  140.0490 C   0  0  0  0  0  3  0  0  0  0  0  0
  192.4920  176.8840  138.7910 C   0  0  0  0  0  0  0  0  0  0  0  0
  193.5950  176.8180  137.9530 O   0  0  0  0  0  1  0  0  0  0  0  0
  189.4690  176.8250  142.8340 C   0  0  0  0  0  0  0  0  0  0  0  0
  191.5300  176.5190  145.0830 C   0  0  0  0  0  3  0  0  0  0  0  0
  189.2520  177.5190  145.2310 C   0  0  0  0  0  3  0  0  0  0  0  0
  190.3530  177.0200  145.8220 C   0  0  0  0  0  0  0  0  0  0  0  0
  191.5050  175.9150  143.8960 C   0  0  0  0  0  3  0  0  0  0  0  0
  188.9800  177.6240  143.7830 C   0  0  0  0  0  3  0  0  0  0  0  0
  190.2400  175.5870  143.1770 C   0  0  0  0  0  2  0  0  0  0  0  0
  190.4440  177.0320  147.2150 O   0  0  0  0  0  0  0  0  0  0  0  0
  189.6110  177.7660  147.9680 O   0  0  0  0  0  1  0  0  0  0  0  0
  188.3220  178.4180  141.2780 C   0  0  0  0  0  2  0  0  0  0  0  0
  185.8330  178.8600  141.4430 C   0  0  0  0  0  0  0  0  0  0  0  0
  185.8030  179.3480  140.2820 O   0  0  0  0  0  0  0  0  0  0  0  0
  187.0500  178.3450  141.9860 N   0  0  0  0  0  2  0  0  0  0  0  0
  184.5980  178.8530  142.2710 C   0  0  0  0  0  2  0  0  0  0  0  0
  184.9280  178.3810  143.6750 C   0  0  0  0  0  2  0  0  0  0  0  0
  182.6430  178.8220  144.1810 O   0  0  0  0  0  0  0  0  0  0  0  0
  184.1030  178.9760  145.9810 N   0  0  0  0  0  1  0  0  0  0  0  0
  183.8260  178.7460  144.6050 C   0  0  0  0  0  0  0  0  0  0  0  0
  1 18  1  1  0  0  0
  1  9  1  0  0  0  0
  2  5  1  0  0  0  0
  2  1  1  0  0  0  0
  3  2  2  0  0  0  0
  4  7  2  0  0  0  0
  4  3  1  0  0  0  0
  6  5  2  0  0  0  0
  7  6  1  0  0  0  0
  8  7  1  0  0  0  0
  9 15  1  0  0  0  0
  9 14  2  0  0  0  0
 10 12  1  0  0  0  0
 11 12  2  0  0  0  0
 12 16  1  0  0  0  0
 13 10  2  0  0  0  0
 14 11  1  0  0  0  0
 15 13  1  0  0  0  0
 16 17  1  0  0  0  0
 18 21  1  0  0  0  0
 19 21  1  0  0  0  0
 19 22  1  0  0  0  0
 20 19  2  0  0  0  0
 22 23  1  0  0  0  0
 23 26  1  0  0  0  0
 24 26  2  0  0  0  0
 26 25  1  0  0  0  0
M  END
>  <MODEL>
5

>  <REMARK>
 VINA RESULT:      -7.8      1.055      1.840
  Name = 
  8 active torsions:
  status: ('A' for Active; 'I' for Inactive)
    1  A    between atoms: C_1  and  C_3
    2  A    between atoms: C_2  and  C_5
    3  A    between atoms: C_3  and  C_10
    4  A    between atoms: C_3  and  C_11
    5  A    between atoms: O_4  and  C_19
    6  A    between atoms: C_5  and  C_20
    7  A    between atoms: C_11  and  N_24
    8  A    between atoms: C_20  and  C_25
                            x       y       z     vdW  Elec       q    Type
                         _______ _______ _______ _____ _____    ______ ____

>  <TORSDO>
F 8

$$$$
=
 OpenBabel10232411023D

 26 27  0  0  1  0  0  0  0  0999 V2000
  189.7970  177.4790  142.7770 C   0  0  1  0  0  3  0  0  0  0  0  0
  188.3240  177.7620  142.7190 C   0  0  0  0  0  0  0  0  0  0  0  0
  187.7810  178.6180  141.7480 C   0  0  0  0  0  3  0  0  0  0  0  0
  186.4050  178.8640  141.7200 C   0  0  0  0  0  3  0  0  0  0  0  0
  187.4800  177.1580  143.6580 C   0  0  0  0  0  3  0  0  0  0  0  0
  186.1040  177.4060  143.6290 C   0  0  0  0  0  3  0  0  0  0  0  0
  185.5670  178.2590  142.6610 C   0  0  0  0  0  0  0  0  0  0  0  0
  184.2020  178.5040  142.6320 O   0  0  0  0  0  1  0  0  0  0  0  0
  190.3070  177.4200  144.1850 C   0  0  0  0  0  0  0  0  0  0  0  0
  189.9380  176.9340  147.1890 C   0  0  0  0  0  3  0  0  0  0  0  0
  191.9130  176.3530  145.7840 C   0  0  0  0  0  3  0  0  0  0  0  0
  191.3450  176.5290  146.9910 C   0  0  0  0  0  0  0  0  0  0  0  0
  189.2390  177.7390  146.3890 C   0  0  0  0  0  3  0  0  0  0  0  0
  191.2910  176.5640  144.4600 C   0  0  0  0  0  3  0  0  0  0  0  0
  189.8300  178.4150  145.1980 C   0  0  0  0  0  2  0  0  0  0  0  0
  192.0860  176.2480  148.1400 O   0  0  0  0  0  0  0  0  0  0  0  0
  193.1340  175.4120  148.1140 O   0  0  0  0  0  1  0  0  0  0  0  0
  190.1910  176.2380  141.9790 C   0  0  0  0  0  2  0  0  0  0  0  0
  190.7460  176.9690  139.6180 C   0  0  0  0  0  0  0  0  0  0  0  0
  191.9160  177.2940  139.9520 O   0  0  0  0  0  0  0  0  0  0  0  0
  189.8460  176.4030  140.5730 N   0  0  0  0  0  2  0  0  0  0  0  0
  190.2830  177.2100  138.2260 C   0  0  0  0  0  2  0  0  0  0  0  0
  189.3500  178.4060  138.1980 C   0  0  0  0  0  2  0  0  0  0  0  0
  186.9970  178.7640  138.1190 O   0  0  0  0  0  0  0  0  0  0  0  0
  187.6890  176.6090  137.5980 N   0  0  0  0  0  1  0  0  0  0  0  0
  187.9500  177.9520  137.9860 C   0  0  0  0  0  0  0  0  0  0  0  0
  1 18  1  1  0  0  0
  1  9  1  0  0  0  0
  2  1  1  0  0  0  0
  2  5  1  0  0  0  0
  3  2  2  0  0  0  0
  4  3  1  0  0  0  0
  4  7  2  0  0  0  0
  6  5  2  0  0  0  0
  7  6  1  0  0  0  0
  8  7  1  0  0  0  0
  9 14  2  0  0  0  0
  9 15  1  0  0  0  0
 11 12  2  0  0  0  0
 12 10  1  0  0  0  0
 12 16  1  0  0  0  0
 13 10  2  0  0  0  0
 14 11  1  0  0  0  0
 15 13  1  0  0  0  0
 17 16  1  0  0  0  0
 19 20  2  0  0  0  0
 19 21  1  0  0  0  0
 21 18  1  0  0  0  0
 22 19  1  0  0  0  0
 23 22  1  0  0  0  0
 25 26  1  0  0  0  0
 26 24  2  0  0  0  0
 26 23  1  0  0  0  0
M  END
>  <MODEL>
6

>  <REMARK>
 VINA RESULT:      -7.7      2.272      5.478
  Name = 
  8 active torsions:
  status: ('A' for Active; 'I' for Inactive)
    1  A    between atoms: C_1  and  C_3
    2  A    between atoms: C_2  and  C_5
    3  A    between atoms: C_3  and  C_10
    4  A    between atoms: C_3  and  C_11
    5  A    between atoms: O_4  and  C_19
    6  A    between atoms: C_5  and  C_20
    7  A    between atoms: C_11  and  N_24
    8  A    between atoms: C_20  and  C_25
                            x       y       z     vdW  Elec       q    Type
                         _______ _______ _______ _____ _____    ______ ____

>  <TORSDO>
F 8

$$$$
=
 OpenBabel10232411023D

 26 27  0  0  1  0  0  0  0  0999 V2000
  189.4900  177.5910  142.5860 C   0  0  1  0  0  3  0  0  0  0  0  0
  188.0240  177.9100  142.6010 C   0  0  0  0  0  0  0  0  0  0  0  0
  187.1620  177.3440  143.5540 C   0  0  0  0  0  3  0  0  0  0  0  0
  185.8000  177.6580  143.5420 C   0  0  0  0  0  3  0  0  0  0  0  0
  187.5110  178.7890  141.6400 C   0  0  0  0  0  3  0  0  0  0  0  0
  186.1480  179.1020  141.6300 C   0  0  0  0  0  3  0  0  0  0  0  0
  185.2930  178.5360  142.5790 C   0  0  0  0  0  0  0  0  0  0  0  0
  183.9410  178.8470  142.5690 O   0  0  0  0  0  1  0  0  0  0  0  0
  190.0640  177.4960  143.9660 C   0  0  0  0  0  0  0  0  0  0  0  0
  189.7980  177.1310  146.9980 C   0  0  0  0  0  3  0  0  0  0  0  0
  191.5990  176.2610  145.5130 C   0  0  0  0  0  3  0  0  0  0  0  0
  191.1260  176.5380  146.7410 C   0  0  0  0  0  0  0  0  0  0  0  0
  189.1680  178.0030  146.2110 C   0  0  0  0  0  3  0  0  0  0  0  0
  190.9400  176.5220  144.2170 C   0  0  0  0  0  3  0  0  0  0  0  0
  189.7780  178.5680  144.9730 C   0  0  0  0  0  2  0  0  0  0  0  0
  191.8850  176.1870  147.8590 O   0  0  0  0  0  0  0  0  0  0  0  0
  193.1090  175.6520  147.7390 O   0  0  0  0  0  1  0  0  0  0  0  0
  189.8150  176.3530  141.7510 C   0  0  0  0  0  2  0  0  0  0  0  0
  189.9270  176.9450  139.2900 C   0  0  0  0  0  0  0  0  0  0  0  0
  188.6730  176.8870  139.1790 O   0  0  0  0  0  0  0  0  0  0  0  0
  190.5580  176.7240  140.5530 N   0  0  0  0  0  2  0  0  0  0  0  0
  190.7610  177.2090  138.0880 C   0  0  0  0  0  2  0  0  0  0  0  0
  191.7060  176.0430  137.8570 C   0  0  0  0  0  2  0  0  0  0  0  0
  193.8400  176.5600  136.9380 O   0  0  0  0  0  0  0  0  0  0  0  0
  193.6350  176.9130  139.2250 N   0  0  0  0  0  1  0  0  0  0  0  0
  193.1160  176.5040  137.9650 C   0  0  0  0  0  0  0  0  0  0  0  0
  1 18  1  1  0  0  0
  1  2  1  0  0  0  0
  1  9  1  0  0  0  0
  2  3  1  0  0  0  0
  4  3  2  0  0  0  0
  5  2  2  0  0  0  0
  6  5  1  0  0  0  0
  6  7  2  0  0  0  0
  7  4  1  0  0  0  0
  8  7  1  0  0  0  0
  9 14  2  0  0  0  0
  9 15  1  0  0  0  0
 11 12  2  0  0  0  0
 12 10  1  0  0  0  0
 12 16  1  0  0  0  0
 13 10  2  0  0  0  0
 14 11  1  0  0  0  0
 15 13  1  0  0  0  0
 17 16  1  0  0  0  0
 19 21  1  0  0  0  0
 20 19  2  0  0  0  0
 21 18  1  0  0  0  0
 22 19  1  0  0  0  0
 23 26  1  0  0  0  0
 23 22  1  0  0  0  0
 24 26  2  0  0  0  0
 26 25  1  0  0  0  0
M  END
>  <MODEL>
7

>  <REMARK>
 VINA RESULT:      -7.6      2.256      6.263
  Name = 
  8 active torsions:
  status: ('A' for Active; 'I' for Inactive)
    1  A    between atoms: C_1  and  C_3
    2  A    between atoms: C_2  and  C_5
    3  A    between atoms: C_3  and  C_10
    4  A    between atoms: C_3  and  C_11
    5  A    between atoms: O_4  and  C_19
    6  A    between atoms: C_5  and  C_20
    7  A    between atoms: C_11  and  N_24
    8  A    between atoms: C_20  and  C_25
                            x       y       z     vdW  Elec       q    Type
                         _______ _______ _______ _____ _____    ______ ____

>  <TORSDO>
F 8

$$$$
=
 OpenBabel10232411023D

 26 27  0  0  1  0  0  0  0  0999 V2000
  186.5200  178.5610  145.0410 C   0  0  1  0  0  3  0  0  0  0  0  0
  187.5800  177.8470  144.2530 C   0  0  0  0  0  0  0  0  0  0  0  0
  188.8440  178.4200  144.0400 C   0  0  0  0  0  3  0  0  0  0  0  0
  189.8100  177.7320  143.3000 C   0  0  0  0  0  3  0  0  0  0  0  0
  187.2950  176.5840  143.7210 C   0  0  0  0  0  3  0  0  0  0  0  0
  188.2620  175.8980  142.9810 C   0  0  0  0  0  3  0  0  0  0  0  0
  189.5190  176.4720  142.7700 C   0  0  0  0  0  0  0  0  0  0  0  0
  190.4790  175.7900  142.0360 O   0  0  0  0  0  1  0  0  0  0  0  0
  185.2970  178.8390  144.2220 C   0  0  0  0  0  0  0  0  0  0  0  0
  183.4210  178.2750  141.8640 C   0  0  0  0  0  3  0  0  0  0  0  0
  182.7960  178.9650  144.1750 C   0  0  0  0  0  3  0  0  0  0  0  0
  182.4790  178.7860  142.8800 C   0  0  0  0  0  0  0  0  0  0  0  0
  184.7360  178.4910  141.8420 C   0  0  0  0  0  3  0  0  0  0  0  0
  184.1080  178.7430  144.8170 C   0  0  0  0  0  3  0  0  0  0  0  0
  185.4320  179.3680  142.8270 C   0  0  0  0  0  2  0  0  0  0  0  0
  181.1680  179.0200  142.4610 O   0  0  0  0  0  0  0  0  0  0  0  0
  180.2280  178.0660  142.5260 O   0  0  0  0  0  1  0  0  0  0  0  0
  186.1770  177.8480  146.3480 C   0  0  0  0  0  2  0  0  0  0  0  0
  188.2310  177.9610  147.8260 C   0  0  0  0  0  0  0  0  0  0  0  0
  187.9500  179.1320  148.1940 O   0  0  0  0  0  0  0  0  0  0  0  0
  187.3700  177.2510  146.9340 N   0  0  0  0  0  2  0  0  0  0  0  0
  189.4910  177.3240  148.2940 C   0  0  0  0  0  2  0  0  0  0  0  0
  190.0360  176.4140  147.2090 C   0  0  0  0  0  2  0  0  0  0  0  0
  191.9810  177.0790  146.0070 O   0  0  0  0  0  0  0  0  0  0  0  0
  192.3670  176.2990  148.1600 N   0  0  0  0  0  1  0  0  0  0  0  0
  191.5050  176.6100  147.0730 C   0  0  0  0  0  0  0  0  0  0  0  0
  1 18  1  1  0  0  0
  2  1  1  0  0  0  0
  3  2  1  0  0  0  0
  4  3  2  0  0  0  0
  5  2  2  0  0  0  0
  6  5  1  0  0  0  0
  7  6  2  0  0  0  0
  7  4  1  0  0  0  0
  8  7  1  0  0  0  0
  9 14  2  0  0  0  0
  9  1  1  0  0  0  0
 10 12  1  0  0  0  0
 11 14  1  0  0  0  0
 12 11  2  0  0  0  0
 13 10  2  0  0  0  0
 13 15  1  0  0  0  0
 15  9  1  0  0  0  0
 16 17  1  0  0  0  0
 16 12  1  0  0  0  0
 18 21  1  0  0  0  0
 19 20  2  0  0  0  0
 19 22  1  0  0  0  0
 21 19  1  0  0  0  0
 23 22  1  0  0  0  0
 24 26  2  0  0  0  0
 26 23  1  0  0  0  0
 26 25  1  0  0  0  0
M  END
>  <MODEL>
8

>  <REMARK>
 VINA RESULT:      -7.6      2.987      7.112
  Name = 
  8 active torsions:
  status: ('A' for Active; 'I' for Inactive)
    1  A    between atoms: C_1  and  C_3
    2  A    between atoms: C_2  and  C_5
    3  A    between atoms: C_3  and  C_10
    4  A    between atoms: C_3  and  C_11
    5  A    between atoms: O_4  and  C_19
    6  A    between atoms: C_5  and  C_20
    7  A    between atoms: C_11  and  N_24
    8  A    between atoms: C_20  and  C_25
                            x       y       z     vdW  Elec       q    Type
                         _______ _______ _______ _____ _____    ______ ____

>  <TORSDO>
F 8

$$$$
=
 OpenBabel10232411023D

 26 27  0  0  1  0  0  0  0  0999 V2000
  188.8160  177.6690  144.5580 C   0  0  1  0  0  3  0  0  0  0  0  0
  189.8630  177.2660  145.5560 C   0  0  0  0  0  0  0  0  0  0  0  0
  190.9900  176.5230  145.1740 C   0  0  0  0  0  3  0  0  0  0  0  0
  191.9470  176.1610  146.1270 C   0  0  0  0  0  3  0  0  0  0  0  0
  189.7030  177.6420  146.8950 C   0  0  0  0  0  3  0  0  0  0  0  0
  190.6610  177.2780  147.8460 C   0  0  0  0  0  3  0  0  0  0  0  0
  191.7820  176.5370  147.4630 C   0  0  0  0  0  0  0  0  0  0  0  0
  192.7330  176.1770  148.4070 O   0  0  0  0  0  1  0  0  0  0  0  0
  189.3730  177.7950  143.1740 C   0  0  0  0  0  0  0  0  0  0  0  0
  191.5340  177.2890  141.0590 C   0  0  0  0  0  3  0  0  0  0  0  0
  189.0620  177.2900  140.7400 C   0  0  0  0  0  3  0  0  0  0  0  0
  190.3080  177.3160  140.2340 C   0  0  0  0  0  0  0  0  0  0  0  0
  191.6710  177.8310  142.2680 C   0  0  0  0  0  3  0  0  0  0  0  0
  188.6720  177.2760  142.1650 C   0  0  0  0  0  3  0  0  0  0  0  0
  190.5950  178.6260  142.9290 C   0  0  0  0  0  2  0  0  0  0  0  0
  190.4820  177.2930  138.8490 O   0  0  0  0  0  0  0  0  0  0  0  0
  191.2600  176.3790  138.2520 O   0  0  0  0  0  1  0  0  0  0  0  0
  187.5880  176.7610  144.5940 C   0  0  0  0  0  2  0  0  0  0  0  0
  185.7550  178.0870  145.7340 C   0  0  0  0  0  0  0  0  0  0  0  0
  186.2980  177.9430  146.8620 O   0  0  0  0  0  0  0  0  0  0  0  0
  186.3650  177.5530  144.5580 N   0  0  0  0  0  2  0  0  0  0  0  0
  184.4470  178.7880  145.6300 C   0  0  0  0  0  2  0  0  0  0  0  0
  184.3990  179.5900  144.3430 C   0  0  0  0  0  2  0  0  0  0  0  0
  182.1550  179.0960  143.7180 O   0  0  0  0  0  0  0  0  0  0  0  0
  183.7780  178.4120  142.2040 N   0  0  0  0  0  1  0  0  0  0  0  0
  183.3770  179.0170  143.4270 C   0  0  0  0  0  0  0  0  0  0  0  0
  1 18  1  6  0  0  0
  1  2  1  0  0  0  0
  2  5  1  0  0  0  0
  3  2  2  0  0  0  0
  3  4  1  0  0  0  0
  4  7  2  0  0  0  0
  5  6  2  0  0  0  0
  7  6  1  0  0  0  0
  7  8  1  0  0  0  0
  9  1  1  0  0  0  0
 10 13  2  0  0  0  0
 11 14  1  0  0  0  0
 12 11  2  0  0  0  0
 12 10  1  0  0  0  0
 13 15  1  0  0  0  0
 14  9  2  0  0  0  0
 15  9  1  0  0  0  0
 16 12  1  0  0  0  0
 17 16  1  0  0  0  0
 19 20  2  0  0  0  0
 21 18  1  0  0  0  0
 21 19  1  0  0  0  0
 22 19  1  0  0  0  0
 23 22  1  0  0  0  0
 25 26  1  0  0  0  0
 26 24  2  0  0  0  0
 26 23  1  0  0  0  0
M  END
>  <MODEL>
9

>  <REMARK>
 VINA RESULT:      -7.6      1.886      5.688
  Name = 
  8 active torsions:
  status: ('A' for Active; 'I' for Inactive)
    1  A    between atoms: C_1  and  C_3
    2  A    between atoms: C_2  and  C_5
    3  A    between atoms: C_3  and  C_10
    4  A    between atoms: C_3  and  C_11
    5  A    between atoms: O_4  and  C_19
    6  A    between atoms: C_5  and  C_20
    7  A    between atoms: C_11  and  N_24
    8  A    between atoms: C_20  and  C_25
                            x       y       z     vdW  Elec       q    Type
                         _______ _______ _______ _____ _____    ______ ____

>  <TORSDO>
F 8

$$$$
