=
 OpenBabel10232407503D

 32 33  0  0  1  0  0  0  0  0999 V2000
  188.6070  177.2130  140.1610 C   0  0  1  0  0  3  0  0  0  0  0  0
  187.8630  177.6560  138.9320 C   0  0  1  0  0  3  0  0  0  0  0  0
  189.9500  177.9100  140.0430 C   0  0  2  0  0  3  0  0  0  0  0  0
  188.7900  178.6730  138.3050 C   0  0  0  0  0  2  0  0  0  0  0  0
  190.0960  178.4040  138.7380 O   0  0  0  0  0  0  0  0  0  0  0  0
  187.9070  177.6810  141.3490 N   0  0  0  0  0  2  0  0  0  0  0  0
  187.9420  176.9790  142.5960 C   0  0  0  0  0  0  0  0  0  0  0  0
  188.5630  175.8850  142.6860 O   0  0  0  0  0  0  0  0  0  0  0  0
  187.1620  177.9330  146.1700 C   0  0  0  0  0  3  0  0  0  0  0  0
  187.8210  177.4140  145.0510 C   0  0  0  0  0  3  0  0  0  0  0  0
  185.3550  178.6980  144.7500 C   0  0  0  0  0  3  0  0  0  0  0  0
  187.2520  177.5340  143.7740 C   0  0  0  0  0  0  0  0  0  0  0  0
  185.9300  178.5750  146.0200 C   0  0  0  0  0  0  0  0  0  0  0  0
  186.0140  178.1800  143.6320 C   0  0  0  0  0  3  0  0  0  0  0  0
  185.2860  179.0720  147.1050 F   0  0  0  0  0  0  0  0  0  0  0  0
  187.7170  176.5700  138.0660 O   0  0  0  0  0  0  0  0  0  0  0  0
  186.6940  176.9470  137.1940 C   0  0  0  0  0  2  0  0  0  0  0  0
  186.6170  175.9590  136.0440 C   0  0  0  0  0  2  0  0  0  0  0  0
  188.1950  175.0850  134.3930 O   0  0  0  0  0  0  0  0  0  0  0  0
  187.7650  176.1320  135.1700 N   0  0  0  0  0  0  0  0  0  0  0  0
  188.2510  177.2690  135.0020 O   0  0  0  0  0  0  0  0  0  0  0  0
  191.0930  176.9630  140.3870 C   0  0  0  0  0  2  0  0  0  0  0  0
  192.0460  177.6040  141.1830 O   0  0  0  0  0  0  0  0  0  0  0  0
  191.7160  177.2450  142.4930 C   0  0  0  0  0  2  0  0  0  0  0  0
  191.2820  178.4720  143.2770 C   0  0  0  0  0  2  0  0  0  0  0  0
  191.3280  178.1940  144.7670 C   0  0  0  0  0  2  0  0  0  0  0  0
  192.3200  174.9730  146.3060 N   0  0  0  0  0  2  0  0  0  0  0  0
  191.8400  176.1710  146.2540 C   0  0  0  0  0  0  0  0  0  0  0  0
  191.8260  176.8460  144.9900 N   0  0  0  0  0  2  0  0  0  0  0  0
  192.1930  177.2850  148.4450 O   0  0  0  0  0  1  0  0  0  0  0  0
  190.0720  176.8570  147.7090 O   0  0  0  0  0  0  0  0  0  0  0  0
  191.3100  176.7800  147.4940 C   0  0  0  0  0  0  0  0  0  0  0  0
  1  6  1  1  0  0  0
  2 16  1  6  0  0  0
  2  1  1  0  0  0  0
  3  1  1  0  0  0  0
  3 22  1  6  0  0  0
  4  5  1  0  0  0  0
  4  2  1  0  0  0  0
  5  3  1  0  0  0  0
  6  7  1  0  0  0  0
  7  8  2  0  0  0  0
  7 12  1  0  0  0  0
 10  9  2  0  0  0  0
 11 13  2  0  0  0  0
 12 10  1  0  0  0  0
 13  9  1  0  0  0  0
 13 15  1  0  0  0  0
 14 12  2  0  0  0  0
 14 11  1  0  0  0  0
 17 16  1  0  0  0  0
 18 17  1  0  0  0  0
 19 20  2  0  0  0  0
 20 18  1  0  0  0  0
 21 20  2  0  0  0  0
 22 23  1  0  0  0  0
 23 24  1  0  0  0  0
 24 25  1  0  0  0  0
 25 26  1  0  0  0  0
 26 29  1  0  0  0  0
 28 27  2  0  0  0  0
 28 32  1  0  0  0  0
 29 28  1  0  0  0  0
 32 31  2  0  0  0  0
 32 30  1  0  0  0  0
M  END
>  <MODEL>
1

>  <REMARK>
 VINA RESULT:      -6.7      0.000      0.000
  Name = 
  13 active torsions:
  status: ('A' for Active; 'I' for Inactive)
    1  A    between atoms: N_2  and  C_11
    2  A    between atoms: C_4  and  C_15
    3  A    between atoms: C_4  and  O_16
    4  A    between atoms: O_7  and  C_14
    5  A    between atoms: O_7  and  C_18
    6  A    between atoms: C_9  and  C_29
    7  A    between atoms: C_10  and  C_21
    8  A    between atoms: C_15  and  C_20
    9  A    between atoms: O_16  and  C_23
   10  A    between atoms: C_17  and  C_23
   11  A    between atoms: C_18  and  C_24
   12  A    between atoms: C_20  and  N_30
   13  A    between atoms: C_24  and  N_25
                            x       y       z     vdW  Elec       q    Type
                         _______ _______ _______ _____ _____    ______ ____

>  <TORSDO>
F 13

$$$$
=
 OpenBabel10232407503D

 32 33  0  0  1  0  0  0  0  0999 V2000
  185.4410  177.8920  141.8750 C   0  0  1  0  0  3  0  0  0  0  0  0
  184.0210  178.3260  141.6390 C   0  0  1  0  0  3  0  0  0  0  0  0
  186.2570  178.8250  140.9990 C   0  0  2  0  0  3  0  0  0  0  0  0
  184.1670  179.5540  140.7670 C   0  0  0  0  0  2  0  0  0  0  0  0
  185.3970  179.4750  140.1000 O   0  0  0  0  0  0  0  0  0  0  0  0
  185.7850  178.0980  143.2750 N   0  0  0  0  0  2  0  0  0  0  0  0
  186.7850  177.3250  143.9480 C   0  0  0  0  0  0  0  0  0  0  0  0
  187.3780  176.3930  143.3390 O   0  0  0  0  0  0  0  0  0  0  0  0
  186.5180  178.5500  147.5150 C   0  0  0  0  0  3  0  0  0  0  0  0
  186.1940  178.2640  146.1840 C   0  0  0  0  0  3  0  0  0  0  0  0
  188.6980  177.5460  147.2000 C   0  0  0  0  0  3  0  0  0  0  0  0
  187.1210  177.6180  145.3530 C   0  0  0  0  0  0  0  0  0  0  0  0
  187.7690  178.1910  148.0230 C   0  0  0  0  0  0  0  0  0  0  0  0
  188.3760  177.2610  145.8710 C   0  0  0  0  0  3  0  0  0  0  0  0
  188.0860  178.4730  149.3100 F   0  0  0  0  0  0  0  0  0  0  0  0
  183.3490  177.3310  140.9250 O   0  0  0  0  0  0  0  0  0  0  0  0
  182.3370  178.0070  140.2410 C   0  0  0  0  0  2  0  0  0  0  0  0
  181.0020  177.7380  140.9120 C   0  0  0  0  0  2  0  0  0  0  0  0
  180.2790  180.0550  141.2170 O   0  0  0  0  0  0  0  0  0  0  0  0
  180.6520  178.8560  141.7730 N   0  0  0  0  0  0  0  0  0  0  0  0
  180.5290  178.6770  143.0010 O   0  0  0  0  0  0  0  0  0  0  0  0
  187.3410  178.0650  140.2470 C   0  0  0  0  0  2  0  0  0  0  0  0
  188.4580  178.8780  140.0300 O   0  0  0  0  0  0  0  0  0  0  0  0
  188.8700  178.5760  138.7290 C   0  0  0  0  0  2  0  0  0  0  0  0
  189.8200  177.3890  138.7450 C   0  0  0  0  0  2  0  0  0  0  0  0
  190.7750  177.4900  139.9190 C   0  0  0  0  0  2  0  0  0  0  0  0
  190.3840  175.3230  142.8990 N   0  0  0  0  0  2  0  0  0  0  0  0
  190.5730  176.4160  142.2370 C   0  0  0  0  0  0  0  0  0  0  0  0
  190.5710  176.3550  140.8040 N   0  0  0  0  0  2  0  0  0  0  0  0
  191.9230  177.8690  143.7310 O   0  0  0  0  0  1  0  0  0  0  0  0
  189.8970  178.5920  142.9590 O   0  0  0  0  0  0  0  0  0  0  0  0
  190.7630  177.6780  142.9840 C   0  0  0  0  0  0  0  0  0  0  0  0
  1  6  1  1  0  0  0
  2 16  1  6  0  0  0
  2  1  1  0  0  0  0
  3 22  1  6  0  0  0
  3  1  1  0  0  0  0
  4  2  1  0  0  0  0
  5  4  1  0  0  0  0
  5  3  1  0  0  0  0
  6  7  1  0  0  0  0
  7 12  1  0  0  0  0
  8  7  2  0  0  0  0
  9 13  1  0  0  0  0
 10  9  2  0  0  0  0
 11 13  2  0  0  0  0
 12 14  2  0  0  0  0
 12 10  1  0  0  0  0
 13 15  1  0  0  0  0
 14 11  1  0  0  0  0
 17 18  1  0  0  0  0
 17 16  1  0  0  0  0
 18 20  1  0  0  0  0
 19 20  2  0  0  0  0
 20 21  2  0  0  0  0
 23 22  1  0  0  0  0
 24 25  1  0  0  0  0
 24 23  1  0  0  0  0
 25 26  1  0  0  0  0
 26 29  1  0  0  0  0
 28 27  2  0  0  0  0
 28 32  1  0  0  0  0
 29 28  1  0  0  0  0
 31 32  2  0  0  0  0
 32 30  1  0  0  0  0
M  END
>  <MODEL>
2

>  <REMARK>
 VINA RESULT:      -6.6      3.629      5.247
  Name = 
  13 active torsions:
  status: ('A' for Active; 'I' for Inactive)
    1  A    between atoms: N_2  and  C_11
    2  A    between atoms: C_4  and  C_15
    3  A    between atoms: C_4  and  O_16
    4  A    between atoms: O_7  and  C_14
    5  A    between atoms: O_7  and  C_18
    6  A    between atoms: C_9  and  C_29
    7  A    between atoms: C_10  and  C_21
    8  A    between atoms: C_15  and  C_20
    9  A    between atoms: O_16  and  C_23
   10  A    between atoms: C_17  and  C_23
   11  A    between atoms: C_18  and  C_24
   12  A    between atoms: C_20  and  N_30
   13  A    between atoms: C_24  and  N_25
                            x       y       z     vdW  Elec       q    Type
                         _______ _______ _______ _____ _____    ______ ____

>  <TORSDO>
F 13

$$$$
=
 OpenBabel10232407503D

 32 33  0  0  1  0  0  0  0  0999 V2000
  188.4630  177.3090  140.2660 C   0  0  1  0  0  3  0  0  0  0  0  0
  187.8750  177.8700  139.0020 C   0  0  1  0  0  3  0  0  0  0  0  0
  189.8680  177.8820  140.2990 C   0  0  2  0  0  3  0  0  0  0  0  0
  188.9410  178.8220  138.5080 C   0  0  0  0  0  2  0  0  0  0  0  0
  190.1740  178.4150  139.0370 O   0  0  0  0  0  0  0  0  0  0  0  0
  187.7030  177.7900  141.4110 N   0  0  0  0  0  2  0  0  0  0  0  0
  187.6560  177.0900  142.6590 C   0  0  0  0  0  0  0  0  0  0  0  0
  188.2550  175.9870  142.7870 O   0  0  0  0  0  0  0  0  0  0  0  0
  186.6780  178.0470  146.1840 C   0  0  0  0  0  3  0  0  0  0  0  0
  187.3930  177.5150  145.1050 C   0  0  0  0  0  3  0  0  0  0  0  0
  184.9870  178.8680  144.6580 C   0  0  0  0  0  3  0  0  0  0  0  0
  186.9090  177.6570  143.7950 C   0  0  0  0  0  0  0  0  0  0  0  0
  185.4760  178.7230  145.9600 C   0  0  0  0  0  0  0  0  0  0  0  0
  185.7000  178.3380  143.5800 C   0  0  0  0  0  3  0  0  0  0  0  0
  184.7790  179.2320  147.0060 F   0  0  0  0  0  0  0  0  0  0  0  0
  187.7120  176.8390  138.0730 O   0  0  0  0  0  0  0  0  0  0  0  0
  186.6680  177.2650  137.2500 C   0  0  0  0  0  2  0  0  0  0  0  0
  185.5910  177.9230  138.0940 C   0  0  0  0  0  2  0  0  0  0  0  0
  183.9750  177.2140  136.3990 O   0  0  0  0  0  0  0  0  0  0  0  0
  184.2880  177.3940  137.7250 N   0  0  0  0  0  0  0  0  0  0  0  0
  183.5270  176.9490  138.6070 O   0  0  0  0  0  0  0  0  0  0  0  0
  190.8870  176.8200  140.6920 C   0  0  0  0  0  2  0  0  0  0  0  0
  192.0000  177.4020  141.3050 O   0  0  0  0  0  0  0  0  0  0  0  0
  191.5470  177.7890  142.5690 C   0  0  0  0  0  2  0  0  0  0  0  0
  191.6480  176.6230  143.5400 C   0  0  0  0  0  2  0  0  0  0  0  0
  190.8890  176.9280  144.8170 C   0  0  0  0  0  2  0  0  0  0  0  0
  192.3060  176.7630  148.2360 N   0  0  0  0  0  2  0  0  0  0  0  0
  191.3950  176.8820  147.3290 C   0  0  0  0  0  0  0  0  0  0  0  0
  191.7900  176.8070  145.9520 N   0  0  0  0  0  2  0  0  0  0  0  0
  189.5650  178.3180  148.1950 O   0  0  0  0  0  1  0  0  0  0  0  0
  189.1610  176.1220  147.7120 O   0  0  0  0  0  0  0  0  0  0  0  0
  189.9890  177.0700  147.7500 C   0  0  0  0  0  0  0  0  0  0  0  0
  1  3  1  0  0  0  0
  1  6  1  1  0  0  0
  2 16  1  6  0  0  0
  2  1  1  0  0  0  0
  3 22  1  6  0  0  0
  4  2  1  0  0  0  0
  4  5  1  0  0  0  0
  5  3  1  0  0  0  0
  6  7  1  0  0  0  0
  7  8  2  0  0  0  0
  7 12  1  0  0  0  0
 10  9  2  0  0  0  0
 11 13  2  0  0  0  0
 12 10  1  0  0  0  0
 13  9  1  0  0  0  0
 13 15  1  0  0  0  0
 14 12  2  0  0  0  0
 14 11  1  0  0  0  0
 17 16  1  0  0  0  0
 17 18  1  0  0  0  0
 19 20  2  0  0  0  0
 20 18  1  0  0  0  0
 20 21  2  0  0  0  0
 22 23  1  0  0  0  0
 23 24  1  0  0  0  0
 24 25  1  0  0  0  0
 25 26  1  0  0  0  0
 26 29  1  0  0  0  0
 28 32  1  0  0  0  0
 28 27  2  0  0  0  0
 29 28  1  0  0  0  0
 31 32  2  0  0  0  0
 32 30  1  0  0  0  0
M  END
>  <MODEL>
3

>  <REMARK>
 VINA RESULT:      -6.6      1.563      1.939
  Name = 
  13 active torsions:
  status: ('A' for Active; 'I' for Inactive)
    1  A    between atoms: N_2  and  C_11
    2  A    between atoms: C_4  and  C_15
    3  A    between atoms: C_4  and  O_16
    4  A    between atoms: O_7  and  C_14
    5  A    between atoms: O_7  and  C_18
    6  A    between atoms: C_9  and  C_29
    7  A    between atoms: C_10  and  C_21
    8  A    between atoms: C_15  and  C_20
    9  A    between atoms: O_16  and  C_23
   10  A    between atoms: C_17  and  C_23
   11  A    between atoms: C_18  and  C_24
   12  A    between atoms: C_20  and  N_30
   13  A    between atoms: C_24  and  N_25
                            x       y       z     vdW  Elec       q    Type
                         _______ _______ _______ _____ _____    ______ ____

>  <TORSDO>
F 13

$$$$
=
 OpenBabel10232407503D

 32 33  0  0  1  0  0  0  0  0999 V2000
  188.1430  178.1460  142.4690 C   0  0  1  0  0  3  0  0  0  0  0  0
  188.9640  177.4150  143.4940 C   0  0  1  0  0  3  0  0  0  0  0  0
  188.3410  177.3350  141.2010 C   0  0  2  0  0  3  0  0  0  0  0  0
  189.4340  176.1810  142.7580 C   0  0  0  0  0  2  0  0  0  0  0  0
  189.4210  176.4580  141.3840 O   0  0  0  0  0  0  0  0  0  0  0  0
  186.7410  178.1210  142.8600 N   0  0  0  0  0  2  0  0  0  0  0  0
  185.7550  178.9690  142.2630 C   0  0  0  0  0  0  0  0  0  0  0  0
  186.0940  179.8110  141.3870 O   0  0  0  0  0  0  0  0  0  0  0  0
  181.9970  178.5870  142.0930 C   0  0  0  0  0  3  0  0  0  0  0  0
  183.3380  178.6830  141.7060 C   0  0  0  0  0  3  0  0  0  0  0  0
  182.6470  178.8400  144.4110 C   0  0  0  0  0  3  0  0  0  0  0  0
  184.3430  178.8580  142.6700 C   0  0  0  0  0  0  0  0  0  0  0  0
  181.6520  178.6660  143.4440 C   0  0  0  0  0  0  0  0  0  0  0  0
  183.9870  178.9360  144.0250 C   0  0  0  0  0  3  0  0  0  0  0  0
  180.3520  178.5800  143.8190 F   0  0  0  0  0  0  0  0  0  0  0  0
  190.0700  178.1960  143.8390 O   0  0  0  0  0  0  0  0  0  0  0  0
  190.1340  178.1250  145.2320 C   0  0  0  0  0  2  0  0  0  0  0  0
  191.2920  177.2330  145.6430 C   0  0  0  0  0  2  0  0  0  0  0  0
  192.1040  176.7420  147.8970 O   0  0  0  0  0  0  0  0  0  0  0  0
  191.0720  176.7340  146.9910 N   0  0  0  0  0  0  0  0  0  0  0  0
  189.9160  176.4600  147.3700 O   0  0  0  0  0  0  0  0  0  0  0  0
  188.5850  178.2410  140.0010 C   0  0  0  0  0  2  0  0  0  0  0  0
  189.8150  177.9510  139.4020 O   0  0  0  0  0  0  0  0  0  0  0  0
  189.5160  177.7630  138.0500 C   0  0  0  0  0  2  0  0  0  0  0  0
  190.5330  176.8290  137.4160 C   0  0  0  0  0  2  0  0  0  0  0  0
  191.1170  175.8940  138.4570 C   0  0  0  0  0  2  0  0  0  0  0  0
  193.2240  173.3340  136.8030 N   0  0  0  0  0  2  0  0  0  0  0  0
  192.9430  174.4570  137.3770 C   0  0  0  0  0  0  0  0  0  0  0  0
  191.5940  174.6850  137.8050 N   0  0  0  0  0  2  0  0  0  0  0  0
  194.8540  175.3360  138.6950 O   0  0  0  0  0  1  0  0  0  0  0  0
  194.2200  176.3820  136.7660 O   0  0  0  0  0  0  0  0  0  0  0  0
  194.0260  175.4440  137.5820 C   0  0  0  0  0  0  0  0  0  0  0  0
  1  6  1  1  0  0  0
  1  2  1  0  0  0  0
  2 16  1  6  0  0  0
  3 22  1  6  0  0  0
  3  5  1  0  0  0  0
  3  1  1  0  0  0  0
  4  2  1  0  0  0  0
  5  4  1  0  0  0  0
  7 12  1  0  0  0  0
  7  6  1  0  0  0  0
  8  7  2  0  0  0  0
  9 13  1  0  0  0  0
 10  9  2  0  0  0  0
 10 12  1  0  0  0  0
 12 14  2  0  0  0  0
 13 15  1  0  0  0  0
 13 11  2  0  0  0  0
 14 11  1  0  0  0  0
 16 17  1  0  0  0  0
 17 18  1  0  0  0  0
 18 20  1  0  0  0  0
 20 21  2  0  0  0  0
 20 19  2  0  0  0  0
 23 22  1  0  0  0  0
 24 23  1  0  0  0  0
 25 24  1  0  0  0  0
 25 26  1  0  0  0  0
 27 28  2  0  0  0  0
 28 32  1  0  0  0  0
 28 29  1  0  0  0  0
 29 26  1  0  0  0  0
 31 32  2  0  0  0  0
 32 30  1  0  0  0  0
M  END
>  <MODEL>
4

>  <REMARK>
 VINA RESULT:      -6.5      3.128      7.326
  Name = 
  13 active torsions:
  status: ('A' for Active; 'I' for Inactive)
    1  A    between atoms: N_2  and  C_11
    2  A    between atoms: C_4  and  C_15
    3  A    between atoms: C_4  and  O_16
    4  A    between atoms: O_7  and  C_14
    5  A    between atoms: O_7  and  C_18
    6  A    between atoms: C_9  and  C_29
    7  A    between atoms: C_10  and  C_21
    8  A    between atoms: C_15  and  C_20
    9  A    between atoms: O_16  and  C_23
   10  A    between atoms: C_17  and  C_23
   11  A    between atoms: C_18  and  C_24
   12  A    between atoms: C_20  and  N_30
   13  A    between atoms: C_24  and  N_25
                            x       y       z     vdW  Elec       q    Type
                         _______ _______ _______ _____ _____    ______ ____

>  <TORSDO>
F 13

$$$$
=
 OpenBabel10232407503D

 32 33  0  0  1  0  0  0  0  0999 V2000
  189.3190  177.8000  142.4930 C   0  0  1  0  0  3  0  0  0  0  0  0
  189.8030  177.0200  143.6830 C   0  0  1  0  0  3  0  0  0  0  0  0
  189.6270  176.8920  141.3150 C   0  0  2  0  0  3  0  0  0  0  0  0
  190.2060  175.6870  143.0940 C   0  0  0  0  0  2  0  0  0  0  0  0
  190.5010  175.8780  141.7370 O   0  0  0  0  0  0  0  0  0  0  0  0
  187.8820  178.0060  142.5980 N   0  0  0  0  0  2  0  0  0  0  0  0
  187.1950  178.0520  143.8530 C   0  0  0  0  0  0  0  0  0  0  0  0
  187.8310  177.8690  144.9270 O   0  0  0  0  0  0  0  0  0  0  0  0
  183.6050  178.4990  142.7550 C   0  0  0  0  0  3  0  0  0  0  0  0
  184.9800  178.2400  142.7180 C   0  0  0  0  0  3  0  0  0  0  0  0
  183.7450  178.9080  145.1370 C   0  0  0  0  0  3  0  0  0  0  0  0
  185.7460  178.3150  143.8920 C   0  0  0  0  0  0  0  0  0  0  0  0
  182.9880  178.8320  143.9630 C   0  0  0  0  0  0  0  0  0  0  0  0
  185.1180  178.6510  145.1010 C   0  0  0  0  0  3  0  0  0  0  0  0
  181.6570  179.0890  143.9970 F   0  0  0  0  0  0  0  0  0  0  0  0
  190.9310  177.6490  144.2170 O   0  0  0  0  0  0  0  0  0  0  0  0
  191.5190  176.6850  145.0380 C   0  0  0  0  0  2  0  0  0  0  0  0
  191.0470  176.8790  146.4680 C   0  0  0  0  0  2  0  0  0  0  0  0
  192.6910  175.1570  147.0280 O   0  0  0  0  0  0  0  0  0  0  0  0
  192.0120  176.2960  147.3860 N   0  0  0  0  0  0  0  0  0  0  0  0
  192.3440  176.9180  148.4140 O   0  0  0  0  0  0  0  0  0  0  0  0
  190.2360  177.6770  140.1610 C   0  0  0  0  0  2  0  0  0  0  0  0
  189.6010  177.3610  138.9560 O   0  0  0  0  0  0  0  0  0  0  0  0
  190.6230  176.8850  138.1300 C   0  0  0  0  0  2  0  0  0  0  0  0
  190.0490  175.9560  137.0730 C   0  0  0  0  0  2  0  0  0  0  0  0
  188.5390  175.8840  137.1930 C   0  0  0  0  0  2  0  0  0  0  0  0
  186.8140  178.0020  134.6890 N   0  0  0  0  0  2  0  0  0  0  0  0
  187.3180  177.6820  135.8350 C   0  0  0  0  0  0  0  0  0  0  0  0
  187.9350  176.3950  135.9730 N   0  0  0  0  0  2  0  0  0  0  0  0
  188.2680  179.6030  137.0880 O   0  0  0  0  0  0  0  0  0  0  0  0
  186.2940  178.6670  137.7560 O   0  0  0  0  0  1  0  0  0  0  0  0
  187.2530  178.6620  136.9410 C   0  0  0  0  0  0  0  0  0  0  0  0
  1  6  1  1  0  0  0
  1  2  1  0  0  0  0
  2 16  1  6  0  0  0
  3 22  1  6  0  0  0
  3  5  1  0  0  0  0
  3  1  1  0  0  0  0
  4  2  1  0  0  0  0
  5  4  1  0  0  0  0
  6  7  1  0  0  0  0
  7 12  1  0  0  0  0
  7  8  2  0  0  0  0
  9 13  1  0  0  0  0
 10  9  2  0  0  0  0
 10 12  1  0  0  0  0
 12 14  2  0  0  0  0
 13 15  1  0  0  0  0
 13 11  2  0  0  0  0
 14 11  1  0  0  0  0
 16 17  1  0  0  0  0
 17 18  1  0  0  0  0
 18 20  1  0  0  0  0
 19 20  2  0  0  0  0
 20 21  2  0  0  0  0
 23 22  1  0  0  0  0
 24 23  1  0  0  0  0
 25 26  1  0  0  0  0
 25 24  1  0  0  0  0
 27 28  2  0  0  0  0
 28 29  1  0  0  0  0
 28 32  1  0  0  0  0
 29 26  1  0  0  0  0
 32 30  2  0  0  0  0
 32 31  1  0  0  0  0
M  END
>  <MODEL>
5

>  <REMARK>
 VINA RESULT:      -6.5      2.107      7.786
  Name = 
  13 active torsions:
  status: ('A' for Active; 'I' for Inactive)
    1  A    between atoms: N_2  and  C_11
    2  A    between atoms: C_4  and  C_15
    3  A    between atoms: C_4  and  O_16
    4  A    between atoms: O_7  and  C_14
    5  A    between atoms: O_7  and  C_18
    6  A    between atoms: C_9  and  C_29
    7  A    between atoms: C_10  and  C_21
    8  A    between atoms: C_15  and  C_20
    9  A    between atoms: O_16  and  C_23
   10  A    between atoms: C_17  and  C_23
   11  A    between atoms: C_18  and  C_24
   12  A    between atoms: C_20  and  N_30
   13  A    between atoms: C_24  and  N_25
                            x       y       z     vdW  Elec       q    Type
                         _______ _______ _______ _____ _____    ______ ____

>  <TORSDO>
F 13

$$$$
=
 OpenBabel10232407503D

 32 33  0  0  1  0  0  0  0  0999 V2000
  185.4220  177.9630  141.9890 C   0  0  1  0  0  3  0  0  0  0  0  0
  183.9540  178.2590  141.8620 C   0  0  1  0  0  3  0  0  0  0  0  0
  186.0820  179.0200  141.1230 C   0  0  2  0  0  3  0  0  0  0  0  0
  183.9200  179.5390  141.0580 C   0  0  0  0  0  2  0  0  0  0  0  0
  185.1060  179.6240  140.3160 O   0  0  0  0  0  0  0  0  0  0  0  0
  185.8340  178.1290  143.3760 N   0  0  0  0  0  2  0  0  0  0  0  0
  186.8680  177.3420  143.9760 C   0  0  0  0  0  0  0  0  0  0  0  0
  187.4350  176.4320  143.3110 O   0  0  0  0  0  0  0  0  0  0  0  0
  186.7520  178.4080  147.6020 C   0  0  0  0  0  3  0  0  0  0  0  0
  186.3650  178.1600  146.2800 C   0  0  0  0  0  3  0  0  0  0  0  0
  188.9560  177.5310  147.1210 C   0  0  0  0  0  3  0  0  0  0  0  0
  187.2720  177.5950  145.3710 C   0  0  0  0  0  0  0  0  0  0  0  0
  188.0460  178.0940  148.0220 C   0  0  0  0  0  0  0  0  0  0  0  0
  188.5710  177.2830  145.8010 C   0  0  0  0  0  3  0  0  0  0  0  0
  188.4240  178.3410  149.3000 F   0  0  0  0  0  0  0  0  0  0  0  0
  183.3400  177.2390  141.1320 O   0  0  0  0  0  0  0  0  0  0  0  0
  182.2300  177.8450  140.5400 C   0  0  0  0  0  2  0  0  0  0  0  0
  182.0020  177.2530  139.1610 C   0  0  0  0  0  2  0  0  0  0  0  0
  182.2570  179.3000  137.8470 O   0  0  0  0  0  0  0  0  0  0  0  0
  182.7090  178.0430  138.1660 N   0  0  0  0  0  0  0  0  0  0  0  0
  183.8100  177.6510  137.7310 O   0  0  0  0  0  0  0  0  0  0  0  0
  187.1870  178.4170  140.2650 C   0  0  0  0  0  2  0  0  0  0  0  0
  188.4320  178.5620  140.8840 O   0  0  0  0  0  0  0  0  0  0  0  0
  189.1050  177.3680  140.6120 C   0  0  0  0  0  2  0  0  0  0  0  0
  190.4400  177.6610  139.9470 C   0  0  0  0  0  2  0  0  0  0  0  0
  191.5820  177.1190  140.7850 C   0  0  0  0  0  2  0  0  0  0  0  0
  191.5630  178.0360  144.3750 N   0  0  0  0  0  2  0  0  0  0  0  0
  191.4890  177.2640  143.3420 C   0  0  0  0  0  0  0  0  0  0  0  0
  191.6450  177.8480  142.0420 N   0  0  0  0  0  2  0  0  0  0  0  0
  192.1030  175.1080  144.4080 O   0  0  0  0  0  1  0  0  0  0  0  0
  190.3340  175.2060  142.9650 O   0  0  0  0  0  0  0  0  0  0  0  0
  191.2680  175.8160  143.5490 C   0  0  0  0  0  0  0  0  0  0  0  0
  1  6  1  1  0  0  0
  2 16  1  6  0  0  0
  2  1  1  0  0  0  0
  3 22  1  6  0  0  0
  3  1  1  0  0  0  0
  4  2  1  0  0  0  0
  5  4  1  0  0  0  0
  5  3  1  0  0  0  0
  6  7  1  0  0  0  0
  7 12  1  0  0  0  0
  8  7  2  0  0  0  0
  9 13  1  0  0  0  0
 10  9  2  0  0  0  0
 11 13  2  0  0  0  0
 12 14  2  0  0  0  0
 12 10  1  0  0  0  0
 13 15  1  0  0  0  0
 14 11  1  0  0  0  0
 17 16  1  0  0  0  0
 18 17  1  0  0  0  0
 19 20  2  0  0  0  0
 20 18  1  0  0  0  0
 21 20  2  0  0  0  0
 22 23  1  0  0  0  0
 24 23  1  0  0  0  0
 25 24  1  0  0  0  0
 25 26  1  0  0  0  0
 26 29  1  0  0  0  0
 28 32  1  0  0  0  0
 28 27  2  0  0  0  0
 29 28  1  0  0  0  0
 31 32  2  0  0  0  0
 32 30  1  0  0  0  0
M  END
>  <MODEL>
6

>  <REMARK>
 VINA RESULT:      -6.5      3.100      4.283
  Name = 
  13 active torsions:
  status: ('A' for Active; 'I' for Inactive)
    1  A    between atoms: N_2  and  C_11
    2  A    between atoms: C_4  and  C_15
    3  A    between atoms: C_4  and  O_16
    4  A    between atoms: O_7  and  C_14
    5  A    between atoms: O_7  and  C_18
    6  A    between atoms: C_9  and  C_29
    7  A    between atoms: C_10  and  C_21
    8  A    between atoms: C_15  and  C_20
    9  A    between atoms: O_16  and  C_23
   10  A    between atoms: C_17  and  C_23
   11  A    between atoms: C_18  and  C_24
   12  A    between atoms: C_20  and  N_30
   13  A    between atoms: C_24  and  N_25
                            x       y       z     vdW  Elec       q    Type
                         _______ _______ _______ _____ _____    ______ ____

>  <TORSDO>
F 13

$$$$
=
 OpenBabel10232407503D

 32 33  0  0  1  0  0  0  0  0999 V2000
  189.0200  177.2020  140.2160 C   0  0  1  0  0  3  0  0  0  0  0  0
  188.0440  178.0860  139.4900 C   0  0  1  0  0  3  0  0  0  0  0  0
  190.3700  177.6200  139.6610 C   0  0  2  0  0  3  0  0  0  0  0  0
  188.9320  179.0200  138.7000 C   0  0  0  0  0  2  0  0  0  0  0  0
  190.1700  178.3920  138.5060 O   0  0  0  0  0  0  0  0  0  0  0  0
  188.9610  177.4830  141.6430 N   0  0  0  0  0  2  0  0  0  0  0  0
  189.5190  176.6070  142.6280 C   0  0  0  0  0  0  0  0  0  0  0  0
  190.0540  175.5210  142.2760 O   0  0  0  0  0  0  0  0  0  0  0  0
  190.5900  177.3070  146.1870 C   0  0  0  0  0  3  0  0  0  0  0  0
  190.6390  176.9670  144.8300 C   0  0  0  0  0  3  0  0  0  0  0  0
  188.2020  177.6690  146.0090 C   0  0  0  0  0  3  0  0  0  0  0  0
  189.4700  176.9750  144.0550 C   0  0  0  0  0  0  0  0  0  0  0  0
  189.3720  177.6580  146.7750 C   0  0  0  0  0  0  0  0  0  0  0  0
  188.2510  177.3290  144.6540 C   0  0  0  0  0  3  0  0  0  0  0  0
  189.3220  177.9820  148.0910 F   0  0  0  0  0  0  0  0  0  0  0  0
  187.2910  177.3090  138.6060 O   0  0  0  0  0  0  0  0  0  0  0  0
  186.5040  178.2280  137.9090 C   0  0  0  0  0  2  0  0  0  0  0  0
  185.0550  178.0850  138.3370 C   0  0  0  0  0  2  0  0  0  0  0  0
  184.8430  178.9270  140.6230 O   0  0  0  0  0  0  0  0  0  0  0  0
  184.7130  179.1430  139.2730 N   0  0  0  0  0  0  0  0  0  0  0  0
  184.4670  180.2900  138.8500 O   0  0  0  0  0  0  0  0  0  0  0  0
  191.2360  176.4070  139.3510 C   0  0  0  0  0  2  0  0  0  0  0  0
  191.6680  176.4320  138.0210 O   0  0  0  0  0  0  0  0  0  0  0  0
  193.0620  176.4760  138.1010 C   0  0  0  0  0  2  0  0  0  0  0  0
  193.6650  176.4740  136.7060 C   0  0  0  0  0  2  0  0  0  0  0  0
  194.3310  175.1430  136.4170 C   0  0  0  0  0  2  0  0  0  0  0  0
  197.8630  175.1200  137.5360 N   0  0  0  0  0  2  0  0  0  0  0  0
  196.5890  174.9150  137.6060 C   0  0  0  0  0  0  0  0  0  0  0  0
  195.7750  175.3000  136.4910 N   0  0  0  0  0  2  0  0  0  0  0  0
  195.8050  175.0420  139.9580 O   0  0  0  0  0  1  0  0  0  0  0  0
  195.7630  173.0460  138.8460 O   0  0  0  0  0  0  0  0  0  0  0  0
  196.0360  174.2750  138.8200 C   0  0  0  0  0  0  0  0  0  0  0  0
  1  6  1  1  0  0  0
  2 16  1  6  0  0  0
  2  1  1  0  0  0  0
  3 22  1  6  0  0  0
  3  1  1  0  0  0  0
  4  2  1  0  0  0  0
  5  4  1  0  0  0  0
  5  3  1  0  0  0  0
  6  7  1  0  0  0  0
  7 12  1  0  0  0  0
  8  7  2  0  0  0  0
  9 13  1  0  0  0  0
 10  9  2  0  0  0  0
 11 13  2  0  0  0  0
 12 14  2  0  0  0  0
 12 10  1  0  0  0  0
 13 15  1  0  0  0  0
 14 11  1  0  0  0  0
 17 18  1  0  0  0  0
 17 16  1  0  0  0  0
 18 20  1  0  0  0  0
 20 19  2  0  0  0  0
 21 20  2  0  0  0  0
 23 24  1  0  0  0  0
 23 22  1  0  0  0  0
 25 24  1  0  0  0  0
 26 29  1  0  0  0  0
 26 25  1  0  0  0  0
 27 28  2  0  0  0  0
 28 32  1  0  0  0  0
 29 28  1  0  0  0  0
 32 31  2  0  0  0  0
 32 30  1  0  0  0  0
M  END
>  <MODEL>
7

>  <REMARK>
 VINA RESULT:      -6.5      3.870      5.668
  Name = 
  13 active torsions:
  status: ('A' for Active; 'I' for Inactive)
    1  A    between atoms: N_2  and  C_11
    2  A    between atoms: C_4  and  C_15
    3  A    between atoms: C_4  and  O_16
    4  A    between atoms: O_7  and  C_14
    5  A    between atoms: O_7  and  C_18
    6  A    between atoms: C_9  and  C_29
    7  A    between atoms: C_10  and  C_21
    8  A    between atoms: C_15  and  C_20
    9  A    between atoms: O_16  and  C_23
   10  A    between atoms: C_17  and  C_23
   11  A    between atoms: C_18  and  C_24
   12  A    between atoms: C_20  and  N_30
   13  A    between atoms: C_24  and  N_25
                            x       y       z     vdW  Elec       q    Type
                         _______ _______ _______ _____ _____    ______ ____

>  <TORSDO>
F 13

$$$$
=
 OpenBabel10232407503D

 32 33  0  0  1  0  0  0  0  0999 V2000
  188.7870  177.9480  142.5280 C   0  0  1  0  0  3  0  0  0  0  0  0
  189.6830  177.3360  143.5690 C   0  0  1  0  0  3  0  0  0  0  0  0
  188.8760  176.9820  141.3600 C   0  0  2  0  0  3  0  0  0  0  0  0
  190.0820  176.0120  142.9570 C   0  0  0  0  0  2  0  0  0  0  0  0
  189.9600  176.1150  141.5650 O   0  0  0  0  0  0  0  0  0  0  0  0
  187.4210  177.9960  143.0290 N   0  0  0  0  0  2  0  0  0  0  0  0
  186.4030  178.8020  142.4270 C   0  0  0  0  0  0  0  0  0  0  0  0
  186.6840  179.5430  141.4440 O   0  0  0  0  0  0  0  0  0  0  0  0
  182.6440  178.4380  142.6050 C   0  0  0  0  0  3  0  0  0  0  0  0
  183.9510  178.4620  142.1060 C   0  0  0  0  0  3  0  0  0  0  0  0
  183.4720  179.0260  144.8030 C   0  0  0  0  0  3  0  0  0  0  0  0
  185.0270  178.7680  142.9530 C   0  0  0  0  0  0  0  0  0  0  0  0
  182.4050  178.7200  143.9530 C   0  0  0  0  0  0  0  0  0  0  0  0
  184.7780  179.0500  144.3060 C   0  0  0  0  0  3  0  0  0  0  0  0
  181.1380  178.7040  144.4350 F   0  0  0  0  0  0  0  0  0  0  0  0
  190.8190  178.1340  143.7240 O   0  0  0  0  0  0  0  0  0  0  0  0
  191.7190  177.3340  144.4310 C   0  0  0  0  0  2  0  0  0  0  0  0
  191.3140  177.2820  145.8930 C   0  0  0  0  0  2  0  0  0  0  0  0
  192.2000  176.2210  147.9110 O   0  0  0  0  0  0  0  0  0  0  0  0
  191.9990  176.1830  146.5520 N   0  0  0  0  0  0  0  0  0  0  0  0
  192.2520  175.1390  145.9180 O   0  0  0  0  0  0  0  0  0  0  0  0
  189.0290  177.7280  140.0400 C   0  0  0  0  0  2  0  0  0  0  0  0
  189.7180  176.9480  139.1070 O   0  0  0  0  0  0  0  0  0  0  0  0
  188.7460  176.5580  138.1830 C   0  0  0  0  0  2  0  0  0  0  0  0
  188.1320  177.7810  137.5210 C   0  0  0  0  0  2  0  0  0  0  0  0
  186.6220  177.6520  137.4630 C   0  0  0  0  0  2  0  0  0  0  0  0
  184.2260  179.9360  139.1270 N   0  0  0  0  0  2  0  0  0  0  0  0
  184.6280  178.8760  138.5080 C   0  0  0  0  0  0  0  0  0  0  0  0
  186.0160  178.7730  138.1640 N   0  0  0  0  0  2  0  0  0  0  0  0
  183.0680  177.7520  136.9380 O   0  0  0  0  0  0  0  0  0  0  0  0
  183.3200  176.9550  139.0640 O   0  0  0  0  0  1  0  0  0  0  0  0
  183.6460  177.8130  138.2020 C   0  0  0  0  0  0  0  0  0  0  0  0
  1  6  1  1  0  0  0
  1  2  1  0  0  0  0
  2 16  1  6  0  0  0
  3 22  1  6  0  0  0
  3  5  1  0  0  0  0
  3  1  1  0  0  0  0
  4  2  1  0  0  0  0
  5  4  1  0  0  0  0
  7 12  1  0  0  0  0
  7  6  1  0  0  0  0
  8  7  2  0  0  0  0
  9 13  1  0  0  0  0
 10  9  2  0  0  0  0
 10 12  1  0  0  0  0
 12 14  2  0  0  0  0
 13 15  1  0  0  0  0
 13 11  2  0  0  0  0
 14 11  1  0  0  0  0
 16 17  1  0  0  0  0
 17 18  1  0  0  0  0
 18 20  1  0  0  0  0
 20 19  2  0  0  0  0
 21 20  2  0  0  0  0
 23 22  1  0  0  0  0
 24 23  1  0  0  0  0
 25 24  1  0  0  0  0
 26 25  1  0  0  0  0
 26 29  1  0  0  0  0
 28 27  2  0  0  0  0
 29 28  1  0  0  0  0
 30 32  2  0  0  0  0
 32 28  1  0  0  0  0
 32 31  1  0  0  0  0
M  END
>  <MODEL>
8

>  <REMARK>
 VINA RESULT:      -6.4      2.703      7.783
  Name = 
  13 active torsions:
  status: ('A' for Active; 'I' for Inactive)
    1  A    between atoms: N_2  and  C_11
    2  A    between atoms: C_4  and  C_15
    3  A    between atoms: C_4  and  O_16
    4  A    between atoms: O_7  and  C_14
    5  A    between atoms: O_7  and  C_18
    6  A    between atoms: C_9  and  C_29
    7  A    between atoms: C_10  and  C_21
    8  A    between atoms: C_15  and  C_20
    9  A    between atoms: O_16  and  C_23
   10  A    between atoms: C_17  and  C_23
   11  A    between atoms: C_18  and  C_24
   12  A    between atoms: C_20  and  N_30
   13  A    between atoms: C_24  and  N_25
                            x       y       z     vdW  Elec       q    Type
                         _______ _______ _______ _____ _____    ______ ____

>  <TORSDO>
F 13

$$$$
=
 OpenBabel10232407503D

 32 33  0  0  1  0  0  0  0  0999 V2000
  188.9810  177.0710  139.8040 C   0  0  1  0  0  3  0  0  0  0  0  0
  187.9320  177.6890  138.9220 C   0  0  1  0  0  3  0  0  0  0  0  0
  190.2650  177.7580  139.3760 C   0  0  2  0  0  3  0  0  0  0  0  0
  188.6860  178.7690  138.1790 C   0  0  0  0  0  2  0  0  0  0  0  0
  190.0440  178.4250  138.1610 O   0  0  0  0  0  0  0  0  0  0  0  0
  188.6910  177.3810  141.1960 N   0  0  0  0  0  2  0  0  0  0  0  0
  189.2930  176.6780  142.2880 C   0  0  0  0  0  0  0  0  0  0  0  0
  190.0800  175.7180  142.0630 O   0  0  0  0  0  0  0  0  0  0  0  0
  187.3840  177.6240  145.4120 C   0  0  0  0  0  3  0  0  0  0  0  0
  187.6660  177.2380  144.0970 C   0  0  0  0  0  3  0  0  0  0  0  0
  189.7540  177.6920  145.9000 C   0  0  0  0  0  3  0  0  0  0  0  0
  188.9950  177.0760  143.6760 C   0  0  0  0  0  0  0  0  0  0  0  0
  188.4270  177.8510  146.3120 C   0  0  0  0  0  0  0  0  0  0  0  0
  190.0370  177.3060  144.5870 C   0  0  0  0  0  3  0  0  0  0  0  0
  188.1550  178.2320  147.5850 F   0  0  0  0  0  0  0  0  0  0  0  0
  187.4770  176.7330  138.0100 O   0  0  0  0  0  0  0  0  0  0  0  0
  186.4390  177.3650  137.3240 C   0  0  0  0  0  2  0  0  0  0  0  0
  186.3530  176.8150  135.9110 C   0  0  0  0  0  2  0  0  0  0  0  0
  188.4890  177.1290  134.7600 O   0  0  0  0  0  0  0  0  0  0  0  0
  187.2210  177.5830  135.0330 N   0  0  0  0  0  0  0  0  0  0  0  0
  186.7620  178.5550  134.4010 O   0  0  0  0  0  0  0  0  0  0  0  0
  191.4050  176.7580  139.2370 C   0  0  0  0  0  2  0  0  0  0  0  0
  190.9380  175.5380  138.7390 O   0  0  0  0  0  0  0  0  0  0  0  0
  191.8840  175.1590  137.7830 C   0  0  0  0  0  2  0  0  0  0  0  0
  192.8710  176.2910  137.5470 C   0  0  0  0  0  2  0  0  0  0  0  0
  194.2440  175.7380  137.2180 C   0  0  0  0  0  2  0  0  0  0  0  0
  195.2550  172.5640  138.8400 N   0  0  0  0  0  2  0  0  0  0  0  0
  195.3030  173.8210  138.5490 C   0  0  0  0  0  0  0  0  0  0  0  0
  194.3210  174.3510  137.6490 N   0  0  0  0  0  2  0  0  0  0  0  0
  196.0600  175.4000  140.3090 O   0  0  0  0  0  1  0  0  0  0  0  0
  197.5180  174.7090  138.6910 O   0  0  0  0  0  0  0  0  0  0  0  0
  196.3550  174.6570  139.1700 C   0  0  0  0  0  0  0  0  0  0  0  0
  1  6  1  1  0  0  0
  2 16  1  6  0  0  0
  2  1  1  0  0  0  0
  3 22  1  6  0  0  0
  3  1  1  0  0  0  0
  4  2  1  0  0  0  0
  5  4  1  0  0  0  0
  5  3  1  0  0  0  0
  6  7  1  0  0  0  0
  7 12  1  0  0  0  0
  8  7  2  0  0  0  0
  9 13  1  0  0  0  0
 10  9  2  0  0  0  0
 11 13  2  0  0  0  0
 12 10  1  0  0  0  0
 12 14  2  0  0  0  0
 13 15  1  0  0  0  0
 14 11  1  0  0  0  0
 17 16  1  0  0  0  0
 18 17  1  0  0  0  0
 19 20  2  0  0  0  0
 20 18  1  0  0  0  0
 21 20  2  0  0  0  0
 23 22  1  0  0  0  0
 24 23  1  0  0  0  0
 25 24  1  0  0  0  0
 26 25  1  0  0  0  0
 26 29  1  0  0  0  0
 28 27  2  0  0  0  0
 28 32  1  0  0  0  0
 29 28  1  0  0  0  0
 31 32  2  0  0  0  0
 32 30  1  0  0  0  0
M  END
>  <MODEL>
9

>  <REMARK>
 VINA RESULT:      -6.2      3.265      4.903
  Name = 
  13 active torsions:
  status: ('A' for Active; 'I' for Inactive)
    1  A    between atoms: N_2  and  C_11
    2  A    between atoms: C_4  and  C_15
    3  A    between atoms: C_4  and  O_16
    4  A    between atoms: O_7  and  C_14
    5  A    between atoms: O_7  and  C_18
    6  A    between atoms: C_9  and  C_29
    7  A    between atoms: C_10  and  C_21
    8  A    between atoms: C_15  and  C_20
    9  A    between atoms: O_16  and  C_23
   10  A    between atoms: C_17  and  C_23
   11  A    between atoms: C_18  and  C_24
   12  A    between atoms: C_20  and  N_30
   13  A    between atoms: C_24  and  N_25
                            x       y       z     vdW  Elec       q    Type
                         _______ _______ _______ _____ _____    ______ ____

>  <TORSDO>
F 13

$$$$
