=
 OpenBabel10232407493D

 32 35  0  0  1  0  0  0  0  0999 V2000
  189.7710  177.6330  144.2960 N   0  0  0  0  0  0  0  0  0  0  0  0
  191.3950  176.1990  143.4000 C   0  0  0  0  0  2  0  0  0  0  0  0
  191.6470  176.3720  138.1170 C   0  0  0  0  0  0  0  0  0  0  0  0
  189.1110  176.7620  137.9830 C   0  0  0  0  0  0  0  0  0  0  0  0
  189.4100  178.1720  140.3660 N   0  0  0  0  0  0  0  0  0  0  0  0
  190.8360  176.9500  144.5570 C   0  0  0  0  0  0  0  0  0  0  0  0
  188.7960  176.2580  136.7930 C   0  0  0  0  0  3  0  0  0  0  0  0
  190.3920  177.2090  140.0460 C   0  0  1  0  0  3  0  0  0  0  0  0
  189.4280  177.5030  142.8890 C   0  0  1  0  0  3  0  0  0  0  0  0
  190.8070  176.4100  140.9930 N   0  0  0  0  0  2  0  0  0  0  0  0
  188.2320  178.0740  139.8650 C   0  0  0  0  0  0  0  0  0  0  0  0
  192.8250  176.5230  138.9080 N   0  0  0  0  0  1  0  0  0  0  0  0
  190.9340  175.4380  135.7810 C   0  0  0  0  0  3  0  0  0  0  0  0
  191.8400  175.8460  136.8030 N   0  0  0  0  0  0  0  0  0  0  0  0
  188.0340  177.3340  138.6910 O   0  0  0  0  0  0  0  0  0  0  0  0
  189.6240  175.6080  135.7840 C   0  0  0  0  0  3  0  0  0  0  0  0
  190.2810  176.3270  142.3760 C   0  0  1  0  0  3  0  0  0  0  0  0
  187.9820  177.3000  142.6220 N   0  0  0  0  0  0  0  0  0  0  0  0
  187.3910  178.5770  142.1910 C   0  0  0  0  0  2  0  0  0  0  0  0
  190.4590  176.7510  138.6400 C   0  0  1  0  0  3  0  0  0  0  0  0
  187.0880  178.6090  140.6680 C   0  0  0  0  0  2  0  0  0  0  0  0
  192.6270  175.9590  147.7260 C   0  0  0  0  0  1  0  0  0  0  0  0
  191.4330  176.8930  145.8590 N   0  0  0  0  0  0  0  0  0  0  0  0
  192.2040  174.7150  145.6580 F   0  0  0  0  0  0  0  0  0  0  0  0
  192.0570  175.8690  146.3570 C   0  0  0  0  0  0  0  0  0  0  0  0
  187.2460  176.8420  143.7970 C   0  0  0  0  0  2  0  0  0  0  0  0
  186.0270  177.7170  144.0160 C   0  0  0  0  0  2  0  0  0  0  0  0
  186.0570  178.4220  145.6900 S   0  0  0  0  0  0  0  0  0  0  0  0
  188.7930  176.4330  147.8070 N   0  0  0  0  0  2  0  0  0  0  0  0
  187.2070  177.2050  146.2540 N   0  0  0  0  0  2  0  0  0  0  0  0
  187.8000  178.5570  148.3230 C   0  0  0  0  0  1  0  0  0  0  0  0
  187.9590  177.3550  147.4590 C   0  0  0  0  0  0  0  0  0  0  0  0
  1  6  2  0  0  0  0
  2  6  1  0  0  0  0
  3 20  1  0  0  0  0
  3 12  1  0  0  0  0
  4 15  1  0  0  0  0
  6 23  1  0  0  0  0
  7  4  2  0  0  0  0
  8  5  1  1  0  0  0
  8 10  1  0  0  0  0
  9  1  1  1  0  0  0
 10 17  1  0  0  0  0
 11  5  2  0  0  0  0
 11 21  1  0  0  0  0
 13 16  2  0  0  0  0
 13 14  1  0  0  0  0
 14  3  2  0  0  0  0
 15 11  1  0  0  0  0
 16  7  1  0  0  0  0
 17  9  1  0  0  0  0
 17  2  1  1  0  0  0
 18  9  1  0  0  0  0
 18 26  1  0  0  0  0
 19 18  1  0  0  0  0
 20  4  1  1  0  0  0
 20  8  1  0  0  0  0
 21 19  1  0  0  0  0
 23 25  2  0  0  0  0
 24 25  1  0  0  0  0
 25 22  1  0  0  0  0
 26 27  1  0  0  0  0
 27 28  1  0  0  0  0
 28 30  1  0  0  0  0
 30 32  1  0  0  0  0
 32 29  2  0  0  0  0
 32 31  1  0  0  0  0
M  END
>  <MODEL>
1

>  <REMARK>
 VINA RESULT:      -8.4      0.000      0.000
  Name = 
  5 active torsions:
  status: ('A' for Active; 'I' for Inactive)
    1  A    between atoms: S_5  and  N_15
    2  A    between atoms: S_5  and  C_18
    3  A    between atoms: C_9  and  N_10
    4  A    between atoms: C_13  and  C_18
    5  A    between atoms: C_13  and  N_29
                            x       y       z     vdW  Elec       q    Type
                         _______ _______ _______ _____ _____    ______ ____

>  <TORSDO>
F 5

$$$$
=
 OpenBabel10232407493D

 32 35  0  0  1  0  0  0  0  0999 V2000
  187.2900  178.8060  140.2820 N   0  0  0  0  0  0  0  0  0  0  0  0
  186.3100  178.2980  142.3500 C   0  0  0  0  0  2  0  0  0  0  0  0
  189.8510  177.4650  146.1930 C   0  0  0  0  0  0  0  0  0  0  0  0
  191.4770  176.4150  144.5040 C   0  0  0  0  0  0  0  0  0  0  0  0
  190.4230  178.2330  142.6750 N   0  0  0  0  0  0  0  0  0  0  0  0
  186.2030  178.8630  140.9770 C   0  0  0  0  0  0  0  0  0  0  0  0
  192.1910  175.5850  145.2570 C   0  0  0  0  0  3  0  0  0  0  0  0
  189.6310  177.8940  143.7930 C   0  0  1  0  0  3  0  0  0  0  0  0
  188.3600  178.2220  141.0780 C   0  0  1  0  0  3  0  0  0  0  0  0
  188.3610  177.6550  143.6010 N   0  0  0  0  0  2  0  0  0  0  0  0
  191.3340  177.4240  142.2680 C   0  0  0  0  0  0  0  0  0  0  0  0
  188.7700  178.3780  146.3830 N   0  0  0  0  0  1  0  0  0  0  0  0
  191.3330  175.8290  147.5960 C   0  0  0  0  0  3  0  0  0  0  0  0
  190.3710  176.8580  147.3780 N   0  0  0  0  0  2  0  0  0  0  0  0
  191.8550  176.4640  143.1460 O   0  0  0  0  0  0  0  0  0  0  0  0
  192.1080  175.2770  146.6790 C   0  0  0  0  0  3  0  0  0  0  0  0
  187.6560  177.5990  142.2990 C   0  0  1  0  0  3  0  0  0  0  0  0
  189.1980  177.2340  140.3530 N   0  0  0  0  0  0  0  0  0  0  0  0
  190.4550  177.8810  139.9460 C   0  0  0  0  0  2  0  0  0  0  0  0
  190.3150  177.2570  144.9400 C   0  0  0  0  0  0  0  0  0  0  0  0
  191.6650  177.4270  140.8080 C   0  0  0  0  0  2  0  0  0  0  0  0
  183.1190  179.7020  138.9730 C   0  0  0  0  0  1  0  0  0  0  0  0
  184.9760  179.4060  140.4720 N   0  0  0  0  0  0  0  0  0  0  0  0
  184.9170  178.0890  138.5630 F   0  0  0  0  0  0  0  0  0  0  0  0
  184.3930  179.0480  139.3680 C   0  0  0  0  0  0  0  0  0  0  0  0
  188.5530  176.7150  139.1510 C   0  0  0  0  0  2  0  0  0  0  0  0
  189.5180  176.7730  137.9820 C   0  0  0  0  0  2  0  0  0  0  0  0
  189.7620  175.1110  137.2910 S   0  0  0  0  0  0  0  0  0  0  0  0
  193.6850  175.1440  138.0240 N   0  0  0  0  0  2  0  0  0  0  0  0
  191.3430  174.9490  138.0640 N   0  0  0  0  0  2  0  0  0  0  0  0
  192.5620  175.8390  136.0180 C   0  0  0  0  0  1  0  0  0  0  0  0
  192.5620  175.2990  137.4060 C   0  0  0  0  0  0  0  0  0  0  0  0
  1  6  2  0  0  0  0
  3 12  1  0  0  0  0
  3 14  1  0  0  0  0
  4 20  1  0  0  0  0
  4  7  2  0  0  0  0
  6  2  1  0  0  0  0
  7 16  1  0  0  0  0
  8  5  1  6  0  0  0
  8 20  1  0  0  0  0
  9  1  1  6  0  0  0
  9 17  1  0  0  0  0
 10  8  1  0  0  0  0
 11  5  2  0  0  0  0
 11 15  1  0  0  0  0
 14 13  1  0  0  0  0
 15  4  1  0  0  0  0
 16 13  2  0  0  0  0
 17  2  1  1  0  0  0
 17 10  1  0  0  0  0
 18  9  1  0  0  0  0
 19 18  1  0  0  0  0
 19 21  1  0  0  0  0
 20  3  2  0  0  0  0
 21 11  1  0  0  0  0
 22 25  1  0  0  0  0
 23  6  1  0  0  0  0
 24 25  1  0  0  0  0
 25 23  2  0  0  0  0
 26 18  1  0  0  0  0
 27 26  1  0  0  0  0
 28 27  1  0  0  0  0
 28 30  1  0  0  0  0
 31 32  1  0  0  0  0
 32 29  2  0  0  0  0
 32 30  1  0  0  0  0
M  END
>  <MODEL>
2

>  <REMARK>
 VINA RESULT:      -8.4      3.270      8.123
  Name = 
  5 active torsions:
  status: ('A' for Active; 'I' for Inactive)
    1  A    between atoms: S_5  and  N_15
    2  A    between atoms: S_5  and  C_18
    3  A    between atoms: C_9  and  N_10
    4  A    between atoms: C_13  and  C_18
    5  A    between atoms: C_13  and  N_29
                            x       y       z     vdW  Elec       q    Type
                         _______ _______ _______ _____ _____    ______ ____

>  <TORSDO>
F 5

$$$$
=
 OpenBabel10232407493D

 32 35  0  0  1  0  0  0  0  0999 V2000
  187.4490  178.7220  140.2230 N   0  0  0  0  0  0  0  0  0  0  0  0
  186.4000  178.2320  142.2620 C   0  0  0  0  0  2  0  0  0  0  0  0
  189.8100  177.4890  146.2400 C   0  0  0  0  0  0  0  0  0  0  0  0
  191.5060  176.4330  144.6240 C   0  0  0  0  0  0  0  0  0  0  0  0
  190.5000  178.2150  142.7340 N   0  0  0  0  0  0  0  0  0  0  0  0
  186.3370  178.7770  140.8780 C   0  0  0  0  0  0  0  0  0  0  0  0
  192.2020  175.6220  145.4140 C   0  0  0  0  0  3  0  0  0  0  0  0
  189.6720  177.8830  143.8270 C   0  0  1  0  0  3  0  0  0  0  0  0
  188.4950  178.1610  141.0640 C   0  0  1  0  0  3  0  0  0  0  0  0
  188.4120  177.6280  143.5940 N   0  0  0  0  0  2  0  0  0  0  0  0
  191.4330  177.4100  142.3700 C   0  0  0  0  0  0  0  0  0  0  0  0
  188.7140  178.3930  146.3780 N   0  0  0  0  0  1  0  0  0  0  0  0
  191.2570  175.8890  147.7170 C   0  0  0  0  0  3  0  0  0  0  0  0
  190.2940  176.9040  147.4510 N   0  0  0  0  0  2  0  0  0  0  0  0
  191.9320  176.4680  143.2800 O   0  0  0  0  0  0  0  0  0  0  0  0
  192.0700  175.3320  146.8360 C   0  0  0  0  0  3  0  0  0  0  0  0
  187.7550  177.5470  142.2680 C   0  0  1  0  0  3  0  0  0  0  0  0
  189.3690  177.1720  140.3840 N   0  0  0  0  0  0  0  0  0  0  0  0
  190.6330  177.8260  140.0130 C   0  0  0  0  0  2  0  0  0  0  0  0
  190.3210  177.2690  145.0070 C   0  0  0  0  0  0  0  0  0  0  0  0
  191.8170  177.3970  140.9240 C   0  0  0  0  0  2  0  0  0  0  0  0
  183.2300  179.4500  138.8470 C   0  0  0  0  0  1  0  0  0  0  0  0
  185.1240  179.3000  140.3220 N   0  0  0  0  0  0  0  0  0  0  0  0
  184.9200  177.6850  138.6690 F   0  0  0  0  0  0  0  0  0  0  0  0
  184.4800  178.7960  139.3120 C   0  0  0  0  0  0  0  0  0  0  0  0
  188.7720  176.6290  139.1670 C   0  0  0  0  0  2  0  0  0  0  0  0
  189.8590  176.0870  138.2580 C   0  0  0  0  0  2  0  0  0  0  0  0
  189.3890  176.3150  136.5180 S   0  0  0  0  0  0  0  0  0  0  0  0
  187.2370  179.6710  136.6920 N   0  0  0  0  0  2  0  0  0  0  0  0
  188.8600  177.9760  136.8090 N   0  0  0  0  0  2  0  0  0  0  0  0
  186.5510  177.5330  135.8420 C   0  0  0  0  0  1  0  0  0  0  0  0
  187.5540  178.4420  136.4630 C   0  0  0  0  0  0  0  0  0  0  0  0
  1  6  2  0  0  0  0
  3 12  1  0  0  0  0
  3 14  1  0  0  0  0
  4 20  1  0  0  0  0
  4  7  2  0  0  0  0
  6  2  1  0  0  0  0
  7 16  1  0  0  0  0
  8  5  1  6  0  0  0
  8 20  1  0  0  0  0
  9  1  1  6  0  0  0
  9 17  1  0  0  0  0
 10  8  1  0  0  0  0
 11  5  2  0  0  0  0
 11 15  1  0  0  0  0
 14 13  1  0  0  0  0
 15  4  1  0  0  0  0
 16 13  2  0  0  0  0
 17  2  1  1  0  0  0
 17 10  1  0  0  0  0
 18  9  1  0  0  0  0
 19 18  1  0  0  0  0
 19 21  1  0  0  0  0
 20  3  2  0  0  0  0
 21 11  1  0  0  0  0
 22 25  1  0  0  0  0
 23  6  1  0  0  0  0
 24 25  1  0  0  0  0
 25 23  2  0  0  0  0
 26 18  1  0  0  0  0
 27 26  1  0  0  0  0
 28 30  1  0  0  0  0
 28 27  1  0  0  0  0
 31 32  1  0  0  0  0
 32 29  2  0  0  0  0
 32 30  1  0  0  0  0
M  END
>  <MODEL>
3

>  <REMARK>
 VINA RESULT:      -8.2      3.439      8.134
  Name = 
  5 active torsions:
  status: ('A' for Active; 'I' for Inactive)
    1  A    between atoms: S_5  and  N_15
    2  A    between atoms: S_5  and  C_18
    3  A    between atoms: C_9  and  N_10
    4  A    between atoms: C_13  and  C_18
    5  A    between atoms: C_13  and  N_29
                            x       y       z     vdW  Elec       q    Type
                         _______ _______ _______ _____ _____    ______ ____

>  <TORSDO>
F 5

$$$$
=
 OpenBabel10232407493D

 32 35  0  0  1  0  0  0  0  0999 V2000
  189.9990  177.4990  144.5460 N   0  0  0  0  0  0  0  0  0  0  0  0
  191.7830  176.2270  143.7130 C   0  0  0  0  0  2  0  0  0  0  0  0
  192.3630  176.6260  138.4680 C   0  0  0  0  0  0  0  0  0  0  0  0
  189.8190  176.8310  138.1760 C   0  0  0  0  0  0  0  0  0  0  0  0
  189.8540  178.1640  140.6210 N   0  0  0  0  0  0  0  0  0  0  0  0
  191.0940  176.8880  144.8550 C   0  0  0  0  0  0  0  0  0  0  0  0
  189.6220  176.3520  136.9510 C   0  0  0  0  0  3  0  0  0  0  0  0
  190.9260  177.2900  140.3350 C   0  0  1  0  0  3  0  0  0  0  0  0
  189.7590  177.4000  143.1150 C   0  0  1  0  0  3  0  0  0  0  0  0
  191.3380  176.4880  141.2800 N   0  0  0  0  0  2  0  0  0  0  0  0
  188.7210  177.9980  140.0390 C   0  0  0  0  0  0  0  0  0  0  0  0
  193.4730  176.8330  139.3420 N   0  0  0  0  0  1  0  0  0  0  0  0
  191.8780  175.7340  136.0590 C   0  0  0  0  0  3  0  0  0  0  0  0
  192.6810  176.1680  137.1530 N   0  0  0  0  0  0  0  0  0  0  0  0
  188.6570  177.2920  138.8290 O   0  0  0  0  0  0  0  0  0  0  0  0
  190.5610  175.8060  135.9790 C   0  0  0  0  0  3  0  0  0  0  0  0
  190.7320  176.3110  142.6210 C   0  0  1  0  0  3  0  0  0  0  0  0
  188.3530  177.1000  142.7440 N   0  0  0  0  0  0  0  0  0  0  0  0
  187.6950  178.3450  142.3180 C   0  0  0  0  0  2  0  0  0  0  0  0
  191.1180  176.8940  138.9220 C   0  0  1  0  0  3  0  0  0  0  0  0
  187.4890  178.4150  140.7800 C   0  0  0  0  0  2  0  0  0  0  0  0
  192.6670  175.8750  148.1300 C   0  0  0  0  0  1  0  0  0  0  0  0
  191.6080  176.8240  146.1920 N   0  0  0  0  0  0  0  0  0  0  0  0
  192.3520  174.6330  146.0420 F   0  0  0  0  0  0  0  0  0  0  0  0
  192.1820  175.7910  146.7290 C   0  0  0  0  0  0  0  0  0  0  0  0
  187.5810  176.5420  143.8500 C   0  0  0  0  0  2  0  0  0  0  0  0
  186.3330  177.3750  144.0800 C   0  0  0  0  0  2  0  0  0  0  0  0
  186.4090  178.1760  145.7080 S   0  0  0  0  0  0  0  0  0  0  0  0
  182.6130  179.1630  144.9740 N   0  0  0  0  0  2  0  0  0  0  0  0
  184.6500  178.3240  145.7910 N   0  0  0  0  0  2  0  0  0  0  0  0
  184.5610  179.7940  143.7200 C   0  0  0  0  0  1  0  0  0  0  0  0
  183.8950  179.0860  144.8480 C   0  0  0  0  0  0  0  0  0  0  0  0
  1  6  2  0  0  0  0
  2  6  1  0  0  0  0
  3 20  1  0  0  0  0
  3 12  1  0  0  0  0
  4 15  1  0  0  0  0
  6 23  1  0  0  0  0
  7  4  2  0  0  0  0
  8  5  1  1  0  0  0
  8 10  1  0  0  0  0
  9  1  1  1  0  0  0
 10 17  1  0  0  0  0
 11  5  2  0  0  0  0
 11 21  1  0  0  0  0
 13 14  1  0  0  0  0
 14  3  2  0  0  0  0
 15 11  1  0  0  0  0
 16 13  2  0  0  0  0
 16  7  1  0  0  0  0
 17  9  1  0  0  0  0
 17  2  1  1  0  0  0
 18  9  1  0  0  0  0
 18 26  1  0  0  0  0
 19 18  1  0  0  0  0
 20  4  1  1  0  0  0
 20  8  1  0  0  0  0
 21 19  1  0  0  0  0
 23 25  2  0  0  0  0
 24 25  1  0  0  0  0
 25 22  1  0  0  0  0
 26 27  1  0  0  0  0
 27 28  1  0  0  0  0
 28 30  1  0  0  0  0
 31 32  1  0  0  0  0
 32 29  2  0  0  0  0
 32 30  1  0  0  0  0
M  END
>  <MODEL>
4

>  <REMARK>
 VINA RESULT:      -7.9      1.414      2.030
  Name = 
  5 active torsions:
  status: ('A' for Active; 'I' for Inactive)
    1  A    between atoms: S_5  and  N_15
    2  A    between atoms: S_5  and  C_18
    3  A    between atoms: C_9  and  N_10
    4  A    between atoms: C_13  and  C_18
    5  A    between atoms: C_13  and  N_29
                            x       y       z     vdW  Elec       q    Type
                         _______ _______ _______ _____ _____    ______ ____

>  <TORSDO>
F 5

$$$$
=
 OpenBabel10232407493D

 32 35  0  0  1  0  0  0  0  0999 V2000
  188.1150  177.2680  140.5060 N   0  0  0  0  0  0  0  0  0  0  0  0
  190.3680  177.4230  141.1360 C   0  0  0  0  0  2  0  0  0  0  0  0
  191.1420  176.6900  146.3200 C   0  0  0  0  0  0  0  0  0  0  0  0
  188.8960  177.8230  146.8420 C   0  0  0  0  0  0  0  0  0  0  0  0
  188.0120  176.7050  144.4490 N   0  0  0  0  0  0  0  0  0  0  0  0
  189.3340  177.2320  140.0820 C   0  0  0  0  0  0  0  0  0  0  0  0
  189.0880  178.3130  148.0620 C   0  0  0  0  0  3  0  0  0  0  0  0
  189.4020  176.8950  144.6090 C   0  0  1  0  0  3  0  0  0  0  0  0
  188.0950  177.4520  141.9490 C   0  0  1  0  0  3  0  0  0  0  0  0
  190.0790  177.3860  143.6060 N   0  0  0  0  0  2  0  0  0  0  0  0
  187.1870  177.4210  145.1230 C   0  0  0  0  0  0  0  0  0  0  0  0
  191.9000  175.9560  145.3580 N   0  0  0  0  0  1  0  0  0  0  0  0
  191.4110  177.6630  148.7320 C   0  0  0  0  0  3  0  0  0  0  0  0
  191.7710  176.8960  147.5860 N   0  0  0  0  0  2  0  0  0  0  0  0
  187.6080  178.0380  146.3090 O   0  0  0  0  0  0  0  0  0  0  0  0
  190.2590  178.2790  148.9300 C   0  0  0  0  0  3  0  0  0  0  0  0
  189.5300  177.8740  142.3190 C   0  0  1  0  0  3  0  0  0  0  0  0
  187.0850  178.4270  142.4320 N   0  0  0  0  0  0  0  0  0  0  0  0
  185.9230  177.6930  142.9550 C   0  0  0  0  0  2  0  0  0  0  0  0
  189.9010  177.1110  145.9860 C   0  0  0  0  0  0  0  0  0  0  0  0
  185.8540  177.7130  144.5070 C   0  0  0  0  0  2  0  0  0  0  0  0
  189.9080  177.5750  136.3690 C   0  0  0  0  0  1  0  0  0  0  0  0
  189.6810  177.0440  138.7040 N   0  0  0  0  0  0  0  0  0  0  0  0
  188.9310  179.1230  137.9980 F   0  0  0  0  0  0  0  0  0  0  0  0
  189.4950  177.9120  137.7560 C   0  0  0  0  0  0  0  0  0  0  0  0
  186.6120  179.3230  141.3810 C   0  0  0  0  0  2  0  0  0  0  0  0
  185.1430  179.0650  141.1060 C   0  0  0  0  0  2  0  0  0  0  0  0
  184.8970  178.6630  139.3520 S   0  0  0  0  0  0  0  0  0  0  0  0
  182.0900  181.3840  138.5520 N   0  0  0  0  0  2  0  0  0  0  0  0
  184.0470  180.1830  139.0530 N   0  0  0  0  0  2  0  0  0  0  0  0
  181.8170  179.0050  138.7320 C   0  0  0  0  0  1  0  0  0  0  0  0
  182.6470  180.2410  138.7740 C   0  0  0  0  0  0  0  0  0  0  0  0
  3 14  1  0  0  0  0
  4  7  2  0  0  0  0
  5  8  1  0  0  0  0
  5 11  2  0  0  0  0
  6  1  2  0  0  0  0
  6  2  1  0  0  0  0
  7 16  1  0  0  0  0
  8 10  1  6  0  0  0
  8 20  1  0  0  0  0
  9  1  1  6  0  0  0
  9 17  1  0  0  0  0
  9 18  1  0  0  0  0
 11 15  1  0  0  0  0
 12  3  1  0  0  0  0
 13 16  2  0  0  0  0
 14 13  1  0  0  0  0
 15  4  1  0  0  0  0
 17  2  1  6  0  0  0
 17 10  1  0  0  0  0
 18 19  1  0  0  0  0
 19 21  1  0  0  0  0
 20  3  2  0  0  0  0
 20  4  1  0  0  0  0
 21 11  1  0  0  0  0
 22 25  1  0  0  0  0
 23  6  1  0  0  0  0
 25 24  1  0  0  0  0
 25 23  2  0  0  0  0
 26 18  1  0  0  0  0
 27 26  1  0  0  0  0
 28 27  1  0  0  0  0
 29 32  2  0  0  0  0
 30 28  1  0  0  0  0
 31 32  1  0  0  0  0
 32 30  1  0  0  0  0
M  END
>  <MODEL>
5

>  <REMARK>
 VINA RESULT:      -7.5      3.561      7.823
  Name = 
  5 active torsions:
  status: ('A' for Active; 'I' for Inactive)
    1  A    between atoms: S_5  and  N_15
    2  A    between atoms: S_5  and  C_18
    3  A    between atoms: C_9  and  N_10
    4  A    between atoms: C_13  and  C_18
    5  A    between atoms: C_13  and  N_29
                            x       y       z     vdW  Elec       q    Type
                         _______ _______ _______ _____ _____    ______ ____

>  <TORSDO>
F 5

$$$$
=
 OpenBabel10232407493D

 32 35  0  0  1  0  0  0  0  0999 V2000
  183.9670  178.6530  137.6980 N   0  0  0  0  0  0  0  0  0  0  0  0
  182.4980  178.3620  139.5020 C   0  0  0  0  0  2  0  0  0  0  0  0
  184.8440  178.8950  144.2150 C   0  0  0  0  0  0  0  0  0  0  0  0
  187.0060  177.8650  143.2840 C   0  0  0  0  0  0  0  0  0  0  0  0
  186.3160  179.1000  140.8850 N   0  0  0  0  0  0  0  0  0  0  0  0
  182.7260  178.6390  138.0570 C   0  0  0  0  0  0  0  0  0  0  0  0
  187.5670  177.3290  144.3630 C   0  0  0  0  0  3  0  0  0  0  0  0
  185.2800  178.8330  141.8060 C   0  0  1  0  0  3  0  0  0  0  0  0
  184.8220  178.4270  138.8530 C   0  0  1  0  0  3  0  0  0  0  0  0
  184.1600  178.3380  141.3520 N   0  0  0  0  0  2  0  0  0  0  0  0
  187.3970  178.4070  140.9190 C   0  0  0  0  0  0  0  0  0  0  0  0
  183.6520  179.6180  143.9080 N   0  0  0  0  0  1  0  0  0  0  0  0
  186.0430  177.8360  146.2840 C   0  0  0  0  0  3  0  0  0  0  0  0
  185.0680  178.6180  145.5990 N   0  0  0  0  0  2  0  0  0  0  0  0
  187.7540  177.7330  142.0960 O   0  0  0  0  0  0  0  0  0  0  0  0
  187.1120  177.2750  145.7470 C   0  0  0  0  0  3  0  0  0  0  0  0
  183.8760  177.9200  139.9580 C   0  0  1  0  0  3  0  0  0  0  0  0
  185.9490  177.4910  138.6120 N   0  0  0  0  0  0  0  0  0  0  0  0
  187.1810  178.2680  138.4080 C   0  0  0  0  0  2  0  0  0  0  0  0
  185.6740  178.5500  143.2040 C   0  0  0  0  0  0  0  0  0  0  0  0
  188.1350  178.2040  139.6330 C   0  0  0  0  0  2  0  0  0  0  0  0
  179.9830  180.0640  135.8950 C   0  0  0  0  0  1  0  0  0  0  0  0
  181.6420  178.8510  137.1430 N   0  0  0  0  0  0  0  0  0  0  0  0
  181.5410  181.1480  137.4440 F   0  0  0  0  0  0  0  0  0  0  0  0
  181.1050  180.0000  136.8670 C   0  0  0  0  0  0  0  0  0  0  0  0
  185.7490  176.6530  137.4320 C   0  0  0  0  0  2  0  0  0  0  0  0
  186.7890  176.9890  136.3800 C   0  0  0  0  0  2  0  0  0  0  0  0
  187.5280  175.4650  135.7240 S   0  0  0  0  0  0  0  0  0  0  0  0
  190.4910  175.4350  138.3980 N   0  0  0  0  0  2  0  0  0  0  0  0
  188.4870  175.2210  137.1890 N   0  0  0  0  0  2  0  0  0  0  0  0
  190.5250  176.3600  136.1820 C   0  0  0  0  0  1  0  0  0  0  0  0
  189.8430  175.6560  137.3040 C   0  0  0  0  0  0  0  0  0  0  0  0
  1  6  2  0  0  0  0
  3 14  1  0  0  0  0
  4  7  2  0  0  0  0
  5 11  2  0  0  0  0
  6  2  1  0  0  0  0
  7 16  1  0  0  0  0
  8  5  1  6  0  0  0
  8 20  1  0  0  0  0
  9  1  1  6  0  0  0
  9 17  1  0  0  0  0
 10  8  1  0  0  0  0
 11 15  1  0  0  0  0
 12  3  1  0  0  0  0
 14 13  1  0  0  0  0
 15  4  1  0  0  0  0
 16 13  2  0  0  0  0
 17  2  1  6  0  0  0
 17 10  1  0  0  0  0
 18  9  1  0  0  0  0
 19 18  1  0  0  0  0
 19 21  1  0  0  0  0
 20  4  1  0  0  0  0
 20  3  2  0  0  0  0
 21 11  1  0  0  0  0
 22 25  1  0  0  0  0
 23  6  1  0  0  0  0
 25 23  2  0  0  0  0
 25 24  1  0  0  0  0
 26 18  1  0  0  0  0
 27 26  1  0  0  0  0
 28 27  1  0  0  0  0
 28 30  1  0  0  0  0
 30 32  1  0  0  0  0
 31 32  1  0  0  0  0
 32 29  2  0  0  0  0
M  END
>  <MODEL>
6

>  <REMARK>
 VINA RESULT:      -7.1      4.932      9.437
  Name = 
  5 active torsions:
  status: ('A' for Active; 'I' for Inactive)
    1  A    between atoms: S_5  and  N_15
    2  A    between atoms: S_5  and  C_18
    3  A    between atoms: C_9  and  N_10
    4  A    between atoms: C_13  and  C_18
    5  A    between atoms: C_13  and  N_29
                            x       y       z     vdW  Elec       q    Type
                         _______ _______ _______ _____ _____    ______ ____

>  <TORSDO>
F 5

$$$$
=
 OpenBabel10232407493D

 32 35  0  0  1  0  0  0  0  0999 V2000
  190.1810  177.6690  139.2930 N   0  0  0  0  0  0  0  0  0  0  0  0
  189.3490  176.3980  137.5080 C   0  0  0  0  0  2  0  0  0  0  0  0
  184.2280  177.2880  136.5190 C   0  0  0  0  0  0  0  0  0  0  0  0
  183.7790  177.6480  139.0230 C   0  0  0  0  0  0  0  0  0  0  0  0
  186.3450  178.7280  139.1140 N   0  0  0  0  0  0  0  0  0  0  0  0
  190.5020  176.9760  138.2520 C   0  0  0  0  0  0  0  0  0  0  0  0
  182.5020  177.3040  139.1470 C   0  0  0  0  0  3  0  0  0  0  0  0
  186.0470  177.8340  138.0630 C   0  0  1  0  0  3  0  0  0  0  0  0
  188.7340  177.7250  139.4280 C   0  0  1  0  0  3  0  0  0  0  0  0
  186.9310  176.9220  137.7570 N   0  0  0  0  0  2  0  0  0  0  0  0
  185.6710  178.6780  140.2060 C   0  0  0  0  0  0  0  0  0  0  0  0
  185.1940  177.3500  135.4700 N   0  0  0  0  0  1  0  0  0  0  0  0
  181.7110  176.6650  136.8590 C   0  0  0  0  0  3  0  0  0  0  0  0
  182.8970  176.9460  136.1230 N   0  0  0  0  0  0  0  0  0  0  0  0
  184.3940  178.1000  140.2090 O   0  0  0  0  0  0  0  0  0  0  0  0
  181.5460  176.8110  138.1630 C   0  0  0  0  0  3  0  0  0  0  0  0
  188.2010  176.6440  138.4690 C   0  0  1  0  0  3  0  0  0  0  0  0
  188.2370  177.5350  140.8140 N   0  0  0  0  0  0  0  0  0  0  0  0
  187.8960  178.8480  141.3840 C   0  0  0  0  0  2  0  0  0  0  0  0
  184.6180  177.5710  137.7820 C   0  0  1  0  0  3  0  0  0  0  0  0
  186.3620  179.0810  141.4710 C   0  0  0  0  0  2  0  0  0  0  0  0
  193.8590  175.5240  137.3300 C   0  0  0  0  0  1  0  0  0  0  0  0
  191.8580  176.7550  137.8430 N   0  0  0  0  0  0  0  0  0  0  0  0
  191.7950  174.4500  138.0960 F   0  0  0  0  0  0  0  0  0  0  0  0
  192.4440  175.5970  137.7730 C   0  0  0  0  0  0  0  0  0  0  0  0
  189.2230  176.9100  141.6910 C   0  0  0  0  0  2  0  0  0  0  0  0
  188.5540  176.4520  142.9740 C   0  0  0  0  0  2  0  0  0  0  0  0
  189.4740  177.0730  144.4120 S   0  0  0  0  0  0  0  0  0  0  0  0
  186.7060  178.1020  147.0960 N   0  0  0  0  0  2  0  0  0  0  0  0
  187.9990  177.6690  145.1820 N   0  0  0  0  0  2  0  0  0  0  0  0
  188.8750  177.1610  147.5140 C   0  0  0  0  0  1  0  0  0  0  0  0
  187.8130  177.6640  146.5990 C   0  0  0  0  0  0  0  0  0  0  0  0
  2  6  1  0  0  0  0
  4  7  2  0  0  0  0
  4 15  1  0  0  0  0
  5 11  2  0  0  0  0
  6  1  2  0  0  0  0
  8 10  1  1  0  0  0
  8  5  1  0  0  0  0
  9  1  1  1  0  0  0
  9 18  1  0  0  0  0
 10 17  1  0  0  0  0
 11 15  1  0  0  0  0
 11 21  1  0  0  0  0
 12  3  1  0  0  0  0
 13 16  2  0  0  0  0
 14  3  2  0  0  0  0
 14 13  1  0  0  0  0
 16  7  1  0  0  0  0
 17  2  1  6  0  0  0
 17  9  1  0  0  0  0
 18 19  1  0  0  0  0
 18 26  1  0  0  0  0
 19 21  1  0  0  0  0
 20  3  1  1  0  0  0
 20  8  1  0  0  0  0
 20  4  1  0  0  0  0
 22 25  1  0  0  0  0
 23  6  1  0  0  0  0
 25 23  2  0  0  0  0
 25 24  1  0  0  0  0
 26 27  1  0  0  0  0
 27 28  1  0  0  0  0
 28 30  1  0  0  0  0
 30 32  1  0  0  0  0
 32 29  2  0  0  0  0
 32 31  1  0  0  0  0
M  END
>  <MODEL>
7

>  <REMARK>
 VINA RESULT:      -7.0      3.627      5.757
  Name = 
  5 active torsions:
  status: ('A' for Active; 'I' for Inactive)
    1  A    between atoms: S_5  and  N_15
    2  A    between atoms: S_5  and  C_18
    3  A    between atoms: C_9  and  N_10
    4  A    between atoms: C_13  and  C_18
    5  A    between atoms: C_13  and  N_29
                            x       y       z     vdW  Elec       q    Type
                         _______ _______ _______ _____ _____    ______ ____

>  <TORSDO>
F 5

$$$$
=
 OpenBabel10232407493D

 32 35  0  0  1  0  0  0  0  0999 V2000
  187.0070  177.4850  143.6000 N   0  0  0  0  0  0  0  0  0  0  0  0
  185.0840  178.4140  144.5680 C   0  0  0  0  0  2  0  0  0  0  0  0
  181.2230  179.3380  141.0700 C   0  0  0  0  0  0  0  0  0  0  0  0
  182.9590  179.9090  139.2640 C   0  0  0  0  0  0  0  0  0  0  0  0
  184.5630  177.9940  140.4950 N   0  0  0  0  0  0  0  0  0  0  0  0
  186.3670  177.6720  144.7070 C   0  0  0  0  0  0  0  0  0  0  0  0
  182.2960  180.7410  138.4680 C   0  0  0  0  0  3  0  0  0  0  0  0
  183.5460  178.5930  141.2700 C   0  0  1  0  0  3  0  0  0  0  0  0
  186.2490  178.0360  142.4880 C   0  0  1  0  0  3  0  0  0  0  0  0
  183.8340  178.9630  142.4890 N   0  0  0  0  0  2  0  0  0  0  0  0
  185.0340  178.6090  139.4720 C   0  0  0  0  0  0  0  0  0  0  0  0
  180.9600  178.6110  142.2690 N   0  0  0  0  0  1  0  0  0  0  0  0
  179.9920  180.9570  139.4250 C   0  0  0  0  0  3  0  0  0  0  0  0
  180.1110  180.0400  140.5090 N   0  0  0  0  0  0  0  0  0  0  0  0
  184.2750  179.6120  138.8530 O   0  0  0  0  0  0  0  0  0  0  0  0
  180.9380  181.2640  138.5540 C   0  0  0  0  0  3  0  0  0  0  0  0
  185.1660  178.9180  143.1380 C   0  0  1  0  0  3  0  0  0  0  0  0
  187.0620  178.7900  141.5010 N   0  0  0  0  0  0  0  0  0  0  0  0
  187.3090  177.9330  140.3300 C   0  0  0  0  0  2  0  0  0  0  0  0
  182.4670  179.2980  140.5420 C   0  0  1  0  0  3  0  0  0  0  0  0
  186.4600  178.3490  139.0980 C   0  0  0  0  0  2  0  0  0  0  0  0
  188.3500  177.0230  147.8500 C   0  0  0  0  0  1  0  0  0  0  0  0
  186.8520  177.2240  145.9790 N   0  0  0  0  0  0  0  0  0  0  0  0
  188.8360  178.4220  145.8980 F   0  0  0  0  0  0  0  0  0  0  0  0
  187.9810  177.5710  146.5190 C   0  0  0  0  0  0  0  0  0  0  0  0
  188.3570  179.2060  142.0310 C   0  0  0  0  0  2  0  0  0  0  0  0
  189.3430  178.0560  141.9430 C   0  0  0  0  0  2  0  0  0  0  0  0
  190.7840  178.3890  142.9980 S   0  0  0  0  0  0  0  0  0  0  0  0
  191.9790  174.7430  144.0960 N   0  0  0  0  0  2  0  0  0  0  0  0
  191.2690  176.6890  142.9870 N   0  0  0  0  0  2  0  0  0  0  0  0
  191.5860  176.6440  145.5090 C   0  0  0  0  0  1  0  0  0  0  0  0
  191.6220  175.9800  144.1760 C   0  0  0  0  0  0  0  0  0  0  0  0
  1  6  2  0  0  0  0
  2  6  1  0  0  0  0
  3 12  1  0  0  0  0
  6 23  1  0  0  0  0
  7 16  1  0  0  0  0
  7  4  2  0  0  0  0
  8  5  1  6  0  0  0
  8 10  1  0  0  0  0
  9 17  1  0  0  0  0
  9  1  1  1  0  0  0
 10 17  1  0  0  0  0
 11  5  2  0  0  0  0
 13 14  1  0  0  0  0
 14  3  2  0  0  0  0
 15  4  1  0  0  0  0
 15 11  1  0  0  0  0
 16 13  2  0  0  0  0
 17  2  1  1  0  0  0
 18 26  1  0  0  0  0
 18  9  1  0  0  0  0
 19 18  1  0  0  0  0
 20  4  1  1  0  0  0
 20  3  1  0  0  0  0
 20  8  1  0  0  0  0
 21 11  1  0  0  0  0
 21 19  1  0  0  0  0
 23 25  2  0  0  0  0
 24 25  1  0  0  0  0
 25 22  1  0  0  0  0
 27 26  1  0  0  0  0
 27 28  1  0  0  0  0
 29 32  2  0  0  0  0
 30 28  1  0  0  0  0
 30 32  1  0  0  0  0
 32 31  1  0  0  0  0
M  END
>  <MODEL>
8

>  <REMARK>
 VINA RESULT:      -6.8      3.976      6.746
  Name = 
  5 active torsions:
  status: ('A' for Active; 'I' for Inactive)
    1  A    between atoms: S_5  and  N_15
    2  A    between atoms: S_5  and  C_18
    3  A    between atoms: C_9  and  N_10
    4  A    between atoms: C_13  and  C_18
    5  A    between atoms: C_13  and  N_29
                            x       y       z     vdW  Elec       q    Type
                         _______ _______ _______ _____ _____    ______ ____

>  <TORSDO>
F 5

$$$$
=
 OpenBabel10232407493D

 32 35  0  0  1  0  0  0  0  0999 V2000
  191.9050  177.0270  139.6210 N   0  0  0  0  0  0  0  0  0  0  0  0
  191.3750  176.0370  137.5640 C   0  0  0  0  0  2  0  0  0  0  0  0
  186.7090  177.6140  135.6290 C   0  0  0  0  0  0  0  0  0  0  0  0
  185.7510  177.7870  138.0060 C   0  0  0  0  0  0  0  0  0  0  0  0
  188.3230  178.5430  138.7630 N   0  0  0  0  0  0  0  0  0  0  0  0
  192.3820  176.4020  138.5970 C   0  0  0  0  0  0  0  0  0  0  0  0
  184.4510  177.5870  137.8170 C   0  0  0  0  0  3  0  0  0  0  0  0
  188.1830  177.7940  137.5750 C   0  0  1  0  0  3  0  0  0  0  0  0
  190.4760  177.2400  139.4540 C   0  0  1  0  0  3  0  0  0  0  0  0
  189.0220  176.8170  137.3580 N   0  0  0  0  0  2  0  0  0  0  0  0
  187.4210  178.4710  139.6750 C   0  0  0  0  0  0  0  0  0  0  0  0
  187.8860  177.6600  134.8220 N   0  0  0  0  0  1  0  0  0  0  0  0
  184.1320  177.2640  135.3550 C   0  0  0  0  0  3  0  0  0  0  0  0
  185.4740  177.4710  134.9240 N   0  0  0  0  0  0  0  0  0  0  0  0
  186.1260  178.0500  139.3400 O   0  0  0  0  0  0  0  0  0  0  0  0
  183.6960  177.3050  136.6020 C   0  0  0  0  0  3  0  0  0  0  0  0
  190.0690  176.3250  138.2830 C   0  0  1  0  0  3  0  0  0  0  0  0
  189.6670  176.9810  140.6720 N   0  0  0  0  0  0  0  0  0  0  0  0
  189.3350  178.2650  141.3070 C   0  0  0  0  0  2  0  0  0  0  0  0
  186.8340  177.7300  136.9700 C   0  0  1  0  0  3  0  0  0  0  0  0
  187.8490  178.6680  141.0950 C   0  0  0  0  0  2  0  0  0  0  0  0
  195.6940  174.6960  138.0010 C   0  0  0  0  0  1  0  0  0  0  0  0
  193.7680  176.0610  138.4600 N   0  0  0  0  0  0  0  0  0  0  0  0
  193.3970  173.8650  137.8130 F   0  0  0  0  0  0  0  0  0  0  0  0
  194.2260  174.9000  138.1010 C   0  0  0  0  0  0  0  0  0  0  0  0
  190.3700  176.1630  141.6570 C   0  0  0  0  0  2  0  0  0  0  0  0
  189.8470  176.4700  143.0470 C   0  0  0  0  0  2  0  0  0  0  0  0
  191.2270  176.8740  144.1580 S   0  0  0  0  0  0  0  0  0  0  0  0
  189.5330  177.2430  147.7520 N   0  0  0  0  0  2  0  0  0  0  0  0
  190.1300  177.2880  145.4800 N   0  0  0  0  0  2  0  0  0  0  0  0
  191.6110  176.1660  147.2140 C   0  0  0  0  0  1  0  0  0  0  0  0
  190.3830  176.9190  146.8360 C   0  0  0  0  0  0  0  0  0  0  0  0
  2  6  1  0  0  0  0
  4 15  1  0  0  0  0
  5 11  2  0  0  0  0
  6  1  2  0  0  0  0
  7  4  2  0  0  0  0
  8 10  1  1  0  0  0
  8  5  1  0  0  0  0
  9  1  1  1  0  0  0
  9 18  1  0  0  0  0
 10 17  1  0  0  0  0
 11 21  1  0  0  0  0
 12  3  1  0  0  0  0
 13 16  2  0  0  0  0
 14 13  1  0  0  0  0
 14  3  2  0  0  0  0
 15 11  1  0  0  0  0
 16  7  1  0  0  0  0
 17  2  1  6  0  0  0
 17  9  1  0  0  0  0
 18 19  1  0  0  0  0
 18 26  1  0  0  0  0
 20  3  1  1  0  0  0
 20  8  1  0  0  0  0
 20  4  1  0  0  0  0
 21 19  1  0  0  0  0
 22 25  1  0  0  0  0
 23  6  1  0  0  0  0
 24 25  1  0  0  0  0
 25 23  2  0  0  0  0
 26 27  1  0  0  0  0
 27 28  1  0  0  0  0
 28 30  1  0  0  0  0
 30 32  1  0  0  0  0
 32 31  1  0  0  0  0
 32 29  2  0  0  0  0
M  END
>  <MODEL>
9

>  <REMARK>
 VINA RESULT:      -6.8      3.178      5.137
  Name = 
  5 active torsions:
  status: ('A' for Active; 'I' for Inactive)
    1  A    between atoms: S_5  and  N_15
    2  A    between atoms: S_5  and  C_18
    3  A    between atoms: C_9  and  N_10
    4  A    between atoms: C_13  and  C_18
    5  A    between atoms: C_13  and  N_29
                            x       y       z     vdW  Elec       q    Type
                         _______ _______ _______ _____ _____    ______ ____

>  <TORSDO>
F 5

$$$$
