=
 OpenBabel10232411323D

 27 31  0  0  0  0  0  0  0  0999 V2000
  186.9650  177.9280  141.8880 C   0  0  0  0  0  3  0  0  0  0  0  0
  187.4570  177.7860  144.3490 C   0  0  0  0  0  0  0  0  0  0  0  0
  189.6040  177.2020  143.1570 C   0  0  0  0  0  3  0  0  0  0  0  0
  189.6960  177.1610  147.7910 N   0  0  0  0  0  0  0  0  0  0  0  0
  192.0280  176.4770  147.9730 N   0  0  0  0  0  1  0  0  0  0  0  0
  186.8680  177.9800  145.6300 C   0  0  0  0  0  3  0  0  0  0  0  0
  190.8000  176.8210  145.8380 C   0  0  0  0  0  0  0  0  0  0  0  0
  190.9140  177.2770  139.7450 C   0  0  0  0  0  3  0  0  0  0  0  0
  191.9160  176.4850  144.9040 C   0  0  0  0  0  1  0  0  0  0  0  0
  190.1550  178.0200  138.8330 O   0  0  0  0  0  0  0  0  0  0  0  0
  189.5000  177.2000  145.5310 C   0  0  0  0  0  0  0  0  0  0  0  0
  186.6140  178.0070  143.2310 C   0  0  0  0  0  0  0  0  0  0  0  0
  190.8680  176.8110  147.2190 C   0  0  0  0  0  0  0  0  0  0  0  0
  188.8800  177.3920  146.7440 C   0  0  0  0  0  0  0  0  0  0  0  0
  188.1380  177.6370  141.2140 C   0  0  0  0  0  0  0  0  0  0  0  0
  188.8340  177.3950  144.2990 C   0  0  0  0  0  0  0  0  0  0  0  0
  190.5870  176.9860  141.0110 C   0  0  0  0  0  3  0  0  0  0  0  0
  187.5610  177.7890  146.8270 C   0  0  0  0  0  3  0  0  0  0  0  0
  188.9340  178.6680  139.1430 C   0  0  0  0  0  2  0  0  0  0  0  0
  187.9740  177.6630  139.7340 C   0  0  0  0  0  2  0  0  0  0  0  0
  189.3700  177.3090  141.7970 C   0  0  0  0  0  0  0  0  0  0  0  0
  182.4900  179.0520  143.7880 C   0  0  0  0  0  3  0  0  0  0  0  0
  185.1820  178.3510  143.4250 C   0  0  0  0  0  0  0  0  0  0  0  0
  184.2920  178.3340  142.3400 C   0  0  0  0  0  3  0  0  0  0  0  0
  182.9510  178.6800  142.5220 C   0  0  0  0  0  3  0  0  0  0  0  0
  183.3720  179.0810  144.8720 C   0  0  0  0  0  3  0  0  0  0  0  0
  184.7140  178.7340  144.6910 C   0  0  0  0  0  3  0  0  0  0  0  0
  1 12  1  0  0  0  0
  2  6  1  0  0  0  0
  3 16  1  0  0  0  0
  6 18  2  0  0  0  0
  7 13  2  0  0  0  0
  8 17  2  0  0  0  0
  9  7  1  0  0  0  0
 10 19  1  0  0  0  0
 10  8  1  0  0  0  0
 11  7  1  0  0  0  0
 11 14  1  0  0  0  0
 12 23  1  0  0  0  0
 12  2  2  0  0  0  0
 13  4  1  0  0  0  0
 13  5  1  0  0  0  0
 14 18  1  0  0  0  0
 14  4  2  0  0  0  0
 15 21  1  0  0  0  0
 15  1  2  0  0  0  0
 16  2  1  0  0  0  0
 16 11  2  0  0  0  0
 17 21  1  0  0  0  0
 19 20  1  0  0  0  0
 20 15  1  0  0  0  0
 21  3  2  0  0  0  0
 22 26  1  0  0  0  0
 23 27  1  0  0  0  0
 24 25  1  0  0  0  0
 24 23  2  0  0  0  0
 25 22  2  0  0  0  0
 27 26  2  0  0  0  0
M  END
>  <MODEL>
1

>  <REMARK>
 VINA RESULT:     -12.1      0.000      0.000
  Name = 
  1 active torsions:
  status: ('A' for Active; 'I' for Inactive)
    1  A    between atoms: C_9  and  C_15
                            x       y       z     vdW  Elec       q    Type
                         _______ _______ _______ _____ _____    ______ ____

>  <TORSDO>
F 1

$$$$
=
 OpenBabel10232411323D

 27 31  0  0  0  0  0  0  0  0999 V2000
  189.8700  177.4380  142.8710 C   0  0  0  0  0  3  0  0  0  0  0  0
  187.7330  177.7430  144.1620 C   0  0  0  0  0  0  0  0  0  0  0  0
  187.1830  178.2210  141.7450 C   0  0  0  0  0  3  0  0  0  0  0  0
  183.7160  178.5790  144.8000 N   0  0  0  0  0  0  0  0  0  0  0  0
  182.0330  179.2490  143.1690 N   0  0  0  0  0  1  0  0  0  0  0  0
  187.1810  177.6440  145.4700 C   0  0  0  0  0  3  0  0  0  0  0  0
  184.4190  178.7720  142.6520 C   0  0  0  0  0  0  0  0  0  0  0  0
  188.8020  177.8980  138.4840 C   0  0  0  0  0  3  0  0  0  0  0  0
  184.3650  179.0310  141.1830 C   0  0  0  0  0  1  0  0  0  0  0  0
  189.9530  177.1030  138.4680 O   0  0  0  0  0  0  0  0  0  0  0  0
  185.5080  178.3870  143.4230 C   0  0  0  0  0  0  0  0  0  0  0  0
  189.1170  177.4550  144.0400 C   0  0  0  0  0  0  0  0  0  0  0  0
  183.3580  178.8760  143.5330 C   0  0  0  0  0  0  0  0  0  0  0  0
  185.0270  178.2850  144.7070 C   0  0  0  0  0  0  0  0  0  0  0  0
  189.5840  177.6690  141.5380 C   0  0  0  0  0  0  0  0  0  0  0  0
  186.8560  178.1150  143.0930 C   0  0  0  0  0  0  0  0  0  0  0  0
  188.1040  178.2780  139.5630 C   0  0  0  0  0  3  0  0  0  0  0  0
  185.8420  177.9090  145.7570 C   0  0  0  0  0  3  0  0  0  0  0  0
  190.5230  176.4910  139.6110 C   0  0  0  0  0  2  0  0  0  0  0  0
  190.7820  177.5430  140.6610 C   0  0  0  0  0  2  0  0  0  0  0  0
  188.3350  178.0230  141.0060 C   0  0  0  0  0  0  0  0  0  0  0  0
  191.4900  176.5880  147.5080 C   0  0  0  0  0  3  0  0  0  0  0  0
  189.9270  177.1410  145.2440 C   0  0  0  0  0  0  0  0  0  0  0  0
  189.4970  177.5430  146.5180 C   0  0  0  0  0  3  0  0  0  0  0  0
  190.2740  177.2650  147.6450 C   0  0  0  0  0  3  0  0  0  0  0  0
  191.9300  176.1920  146.2420 C   0  0  0  0  0  3  0  0  0  0  0  0
  191.1530  176.4700  145.1130 C   0  0  0  0  0  3  0  0  0  0  0  0
  1 12  1  0  0  0  0
  2  6  1  0  0  0  0
  3 16  1  0  0  0  0
  5 13  1  0  0  0  0
  6 18  2  0  0  0  0
  7 11  1  0  0  0  0
  7 13  2  0  0  0  0
  8 17  2  0  0  0  0
  9  7  1  0  0  0  0
 10  8  1  0  0  0  0
 10 19  1  0  0  0  0
 11 14  1  0  0  0  0
 12  2  2  0  0  0  0
 12 23  1  0  0  0  0
 13  4  1  0  0  0  0
 14  4  2  0  0  0  0
 14 18  1  0  0  0  0
 15  1  2  0  0  0  0
 16 11  2  0  0  0  0
 16  2  1  0  0  0  0
 17 21  1  0  0  0  0
 19 20  1  0  0  0  0
 20 15  1  0  0  0  0
 21 15  1  0  0  0  0
 21  3  2  0  0  0  0
 22 25  1  0  0  0  0
 23 24  1  0  0  0  0
 24 25  2  0  0  0  0
 26 22  2  0  0  0  0
 27 23  2  0  0  0  0
 27 26  1  0  0  0  0
M  END
>  <MODEL>
2

>  <REMARK>
 VINA RESULT:     -11.8      2.319      5.725
  Name = 
  1 active torsions:
  status: ('A' for Active; 'I' for Inactive)
    1  A    between atoms: C_9  and  C_15
                            x       y       z     vdW  Elec       q    Type
                         _______ _______ _______ _____ _____    ______ ____

>  <TORSDO>
F 1

$$$$
=
 OpenBabel10232411323D

 27 31  0  0  0  0  0  0  0  0999 V2000
  188.0980  177.3300  145.4890 C   0  0  0  0  0  3  0  0  0  0  0  0
  189.6070  177.3070  143.4770 C   0  0  0  0  0  0  0  0  0  0  0  0
  187.3040  177.9080  142.6360 C   0  0  0  0  0  3  0  0  0  0  0  0
  190.6930  177.6570  139.4840 N   0  0  0  0  0  0  0  0  0  0  0  0
  189.2750  178.1840  137.5730 N   0  0  0  0  0  1  0  0  0  0  0  0
  190.9620  177.1180  143.0860 C   0  0  0  0  0  3  0  0  0  0  0  0
  188.4950  178.0070  139.9280 C   0  0  0  0  0  0  0  0  0  0  0  0
  184.0520  178.8010  144.0480 C   0  0  0  0  0  3  0  0  0  0  0  0
  187.0530  178.3080  139.6890 C   0  0  0  0  0  1  0  0  0  0  0  0
  184.0660  179.1320  145.4080 O   0  0  0  0  0  0  0  0  0  0  0  0
  189.1320  177.7220  141.1290 C   0  0  0  0  0  0  0  0  0  0  0  0
  189.3250  177.1520  144.8590 C   0  0  0  0  0  0  0  0  0  0  0  0
  189.4840  177.9540  138.9620 C   0  0  0  0  0  0  0  0  0  0  0  0
  190.4530  177.5210  140.8030 C   0  0  0  0  0  0  0  0  0  0  0  0
  186.8340  177.6840  145.0530 C   0  0  0  0  0  0  0  0  0  0  0  0
  188.6570  177.6380  142.4580 C   0  0  0  0  0  0  0  0  0  0  0  0
  185.0760  178.3180  143.3300 C   0  0  0  0  0  3  0  0  0  0  0  0
  191.3970  177.2210  141.7640 C   0  0  0  0  0  3  0  0  0  0  0  0
  185.2150  179.0860  146.2350 C   0  0  0  0  0  2  0  0  0  0  0  0
  185.8310  177.7100  146.1540 C   0  0  0  0  0  2  0  0  0  0  0  0
  186.4600  177.9640  143.7310 C   0  0  0  0  0  0  0  0  0  0  0  0
  192.3860  175.9430  147.6110 C   0  0  0  0  0  3  0  0  0  0  0  0
  190.3960  176.7460  145.8030 C   0  0  0  0  0  0  0  0  0  0  0  0
  191.3660  175.8070  145.4190 C   0  0  0  0  0  3  0  0  0  0  0  0
  192.3590  175.4110  146.3180 C   0  0  0  0  0  3  0  0  0  0  0  0
  191.4180  176.8710  148.0050 C   0  0  0  0  0  3  0  0  0  0  0  0
  190.4240  177.2690  147.1050 C   0  0  0  0  0  3  0  0  0  0  0  0
  2 12  1  0  0  0  0
  3 21  1  0  0  0  0
  4 14  1  0  0  0  0
  5 13  1  0  0  0  0
  6  2  2  0  0  0  0
  7 11  2  0  0  0  0
  8 10  1  0  0  0  0
  9  7  1  0  0  0  0
 10 19  1  0  0  0  0
 11 16  1  0  0  0  0
 12  1  2  0  0  0  0
 12 23  1  0  0  0  0
 13  4  2  0  0  0  0
 13  7  1  0  0  0  0
 14 11  1  0  0  0  0
 14 18  2  0  0  0  0
 15  1  1  0  0  0  0
 15 20  1  0  0  0  0
 16  3  2  0  0  0  0
 16  2  1  0  0  0  0
 17 21  1  0  0  0  0
 17  8  2  0  0  0  0
 18  6  1  0  0  0  0
 20 19  1  0  0  0  0
 21 15  2  0  0  0  0
 22 26  1  0  0  0  0
 23 27  1  0  0  0  0
 24 23  2  0  0  0  0
 24 25  1  0  0  0  0
 25 22  2  0  0  0  0
 27 26  2  0  0  0  0
M  END
>  <MODEL>
3

>  <REMARK>
 VINA RESULT:     -11.5      3.239      6.945
  Name = 
  1 active torsions:
  status: ('A' for Active; 'I' for Inactive)
    1  A    between atoms: C_9  and  C_15
                            x       y       z     vdW  Elec       q    Type
                         _______ _______ _______ _____ _____    ______ ____

>  <TORSDO>
F 1

$$$$
=
 OpenBabel10232411323D

 27 31  0  0  0  0  0  0  0  0999 V2000
  186.3320  178.3400  141.1970 C   0  0  0  0  0  3  0  0  0  0  0  0
  187.9110  177.8280  143.0860 C   0  0  0  0  0  0  0  0  0  0  0  0
  185.6980  178.4190  144.1450 C   0  0  0  0  0  3  0  0  0  0  0  0
  189.1760  177.3350  147.0100 N   0  0  0  0  0  0  0  0  0  0  0  0
  187.9030  177.6700  149.0620 N   0  0  0  0  0  1  0  0  0  0  0  0
  189.2410  177.4030  143.3600 C   0  0  0  0  0  3  0  0  0  0  0  0
  187.0210  177.9990  146.7600 C   0  0  0  0  0  0  0  0  0  0  0  0
  182.2530  179.0100  143.0730 C   0  0  0  0  0  3  0  0  0  0  0  0
  185.6350  178.4130  147.1300 C   0  0  0  0  0  1  0  0  0  0  0  0
  181.9600  178.6040  141.7660 O   0  0  0  0  0  0  0  0  0  0  0  0
  187.5740  177.8630  145.4940 C   0  0  0  0  0  0  0  0  0  0  0  0
  187.5710  177.9840  141.7180 C   0  0  0  0  0  0  0  0  0  0  0  0
  188.0310  177.6680  147.6440 C   0  0  0  0  0  0  0  0  0  0  0  0
  188.8720  177.4610  145.7040 C   0  0  0  0  0  0  0  0  0  0  0  0
  185.1030  178.6420  141.7560 C   0  0  0  0  0  0  0  0  0  0  0  0
  187.0380  178.0510  144.1990 C   0  0  0  0  0  0  0  0  0  0  0  0
  183.4590  179.0240  143.6570 C   0  0  0  0  0  3  0  0  0  0  0  0
  189.7330  177.2170  144.6530 C   0  0  0  0  0  3  0  0  0  0  0  0
  182.9030  178.0510  140.8650 C   0  0  0  0  0  2  0  0  0  0  0  0
  184.0760  178.9920  140.7360 C   0  0  0  0  0  2  0  0  0  0  0  0
  184.7980  178.6700  143.1250 C   0  0  0  0  0  0  0  0  0  0  0  0
  190.5010  177.3440  138.6490 C   0  0  0  0  0  3  0  0  0  0  0  0
  188.5940  177.7780  140.6610 C   0  0  0  0  0  0  0  0  0  0  0  0
  188.4980  178.4550  139.4350 C   0  0  0  0  0  3  0  0  0  0  0  0
  189.4500  178.2410  138.4350 C   0  0  0  0  0  3  0  0  0  0  0  0
  190.5980  176.6580  139.8630 C   0  0  0  0  0  3  0  0  0  0  0  0
  189.6460  176.8720  140.8650 C   0  0  0  0  0  3  0  0  0  0  0  0
  1 12  2  0  0  0  0
  1 15  1  0  0  0  0
  2  6  2  0  0  0  0
  2 16  1  0  0  0  0
  3 16  2  0  0  0  0
  4 13  2  0  0  0  0
  6 18  1  0  0  0  0
  7  9  1  0  0  0  0
  7 13  1  0  0  0  0
  8 17  2  0  0  0  0
 10  8  1  0  0  0  0
 11 14  1  0  0  0  0
 11  7  2  0  0  0  0
 12  2  1  0  0  0  0
 13  5  1  0  0  0  0
 14  4  1  0  0  0  0
 15 21  2  0  0  0  0
 16 11  1  0  0  0  0
 18 14  2  0  0  0  0
 19 10  1  0  0  0  0
 20 19  1  0  0  0  0
 20 15  1  0  0  0  0
 21 17  1  0  0  0  0
 21  3  1  0  0  0  0
 22 26  1  0  0  0  0
 23 27  1  0  0  0  0
 23 12  1  0  0  0  0
 24 23  2  0  0  0  0
 25 22  2  0  0  0  0
 25 24  1  0  0  0  0
 26 27  2  0  0  0  0
M  END
>  <MODEL>
4

>  <REMARK>
 VINA RESULT:     -11.2      2.082      5.415
  Name = 
  1 active torsions:
  status: ('A' for Active; 'I' for Inactive)
    1  A    between atoms: C_9  and  C_15
                            x       y       z     vdW  Elec       q    Type
                         _______ _______ _______ _____ _____    ______ ____

>  <TORSDO>
F 1

$$$$
=
 OpenBabel10232411323D

 27 31  0  0  0  0  0  0  0  0999 V2000
  188.7070  177.8730  143.6100 C   0  0  0  0  0  3  0  0  0  0  0  0
  186.2310  178.2040  143.8940 C   0  0  0  0  0  0  0  0  0  0  0  0
  186.6930  178.3590  141.4180 C   0  0  0  0  0  3  0  0  0  0  0  0
  182.2900  178.8730  142.7690 N   0  0  0  0  0  0  0  0  0  0  0  0
  181.3990  179.2450  140.5310 N   0  0  0  0  0  1  0  0  0  0  0  0
  185.2010  178.2280  144.8760 C   0  0  0  0  0  3  0  0  0  0  0  0
  183.7950  178.8510  141.0710 C   0  0  0  0  0  0  0  0  0  0  0  0
  189.4860  177.7470  139.1400 C   0  0  0  0  0  3  0  0  0  0  0  0
  184.3330  178.9300  139.6810 C   0  0  0  0  0  1  0  0  0  0  0  0
  190.5520  177.0240  139.6880 O   0  0  0  0  0  0  0  0  0  0  0  0
  184.4840  178.6240  142.2550 C   0  0  0  0  0  0  0  0  0  0  0  0
  187.5480  177.9850  144.3710 C   0  0  0  0  0  0  0  0  0  0  0  0
  182.4680  178.9960  141.4370 C   0  0  0  0  0  0  0  0  0  0  0  0
  183.5300  178.6470  143.2440 C   0  0  0  0  0  0  0  0  0  0  0  0
  188.9790  177.9280  142.2550 C   0  0  0  0  0  0  0  0  0  0  0  0
  185.8530  178.3950  142.5260 C   0  0  0  0  0  0  0  0  0  0  0  0
  188.4120  178.2110  139.7930 C   0  0  0  0  0  3  0  0  0  0  0  0
  183.8570  178.4460  144.5700 C   0  0  0  0  0  3  0  0  0  0  0  0
  190.6190  176.5860  141.0330 C   0  0  0  0  0  2  0  0  0  0  0  0
  190.4280  177.7690  141.9510 C   0  0  0  0  0  2  0  0  0  0  0  0
  188.0470  178.1420  141.2300 C   0  0  0  0  0  0  0  0  0  0  0  0
  188.3370  177.6740  148.5770 C   0  0  0  0  0  3  0  0  0  0  0  0
  187.8100  177.8630  145.8270 C   0  0  0  0  0  0  0  0  0  0  0  0
  186.9210  178.4190  146.7600 C   0  0  0  0  0  3  0  0  0  0  0  0
  187.1820  178.3220  148.1290 C   0  0  0  0  0  3  0  0  0  0  0  0
  189.2330  177.1260  147.6550 C   0  0  0  0  0  3  0  0  0  0  0  0
  188.9720  177.2230  146.2840 C   0  0  0  0  0  3  0  0  0  0  0  0
  1 12  1  0  0  0  0
  2 12  2  0  0  0  0
  2  6  1  0  0  0  0
  3 16  1  0  0  0  0
  4 14  2  0  0  0  0
  5 13  1  0  0  0  0
  7 13  2  0  0  0  0
  7 11  1  0  0  0  0
  8 10  1  0  0  0  0
  8 17  2  0  0  0  0
  9  7  1  0  0  0  0
 10 19  1  0  0  0  0
 11 16  2  0  0  0  0
 11 14  1  0  0  0  0
 12 23  1  0  0  0  0
 13  4  1  0  0  0  0
 14 18  1  0  0  0  0
 15  1  2  0  0  0  0
 16  2  1  0  0  0  0
 17 21  1  0  0  0  0
 18  6  2  0  0  0  0
 19 20  1  0  0  0  0
 20 15  1  0  0  0  0
 21  3  2  0  0  0  0
 21 15  1  0  0  0  0
 23 27  2  0  0  0  0
 23 24  1  0  0  0  0
 24 25  2  0  0  0  0
 25 22  1  0  0  0  0
 26 22  2  0  0  0  0
 27 26  1  0  0  0  0
M  END
>  <MODEL>
5

>  <REMARK>
 VINA RESULT:     -11.2      3.021      5.865
  Name = 
  1 active torsions:
  status: ('A' for Active; 'I' for Inactive)
    1  A    between atoms: C_9  and  C_15
                            x       y       z     vdW  Elec       q    Type
                         _______ _______ _______ _____ _____    ______ ____

>  <TORSDO>
F 1

$$$$
=
 OpenBabel10232411323D

 27 31  0  0  0  0  0  0  0  0999 V2000
  187.1870  178.2610  141.3140 C   0  0  0  0  0  3  0  0  0  0  0  0
  189.3370  177.5130  142.3820 C   0  0  0  0  0  0  0  0  0  0  0  0
  187.7400  178.0210  144.2700 C   0  0  0  0  0  3  0  0  0  0  0  0
  191.9810  176.5630  145.4390 N   0  0  0  0  0  0  0  0  0  0  0  0
  191.6180  176.6890  147.8460 N   0  0  0  0  0  1  0  0  0  0  0  0
  190.6430  177.0370  142.0760 C   0  0  0  0  0  3  0  0  0  0  0  0
  189.9390  177.2880  146.1110 C   0  0  0  0  0  0  0  0  0  0  0  0
  184.1900  178.7880  144.6830 C   0  0  0  0  0  3  0  0  0  0  0  0
  188.8290  177.6820  147.0280 C   0  0  0  0  0  1  0  0  0  0  0  0
  183.3930  178.5350  143.5600 O   0  0  0  0  0  0  0  0  0  0  0  0
  189.9550  177.2850  144.7230 C   0  0  0  0  0  0  0  0  0  0  0  0
  188.5070  177.8270  141.2750 C   0  0  0  0  0  0  0  0  0  0  0  0
  191.1910  176.8430  146.4970 C   0  0  0  0  0  0  0  0  0  0  0  0
  191.2070  176.8390  144.3720 C   0  0  0  0  0  0  0  0  0  0  0  0
  186.2870  178.5200  142.3320 C   0  0  0  0  0  0  0  0  0  0  0  0
  188.9740  177.6260  143.7630 C   0  0  0  0  0  0  0  0  0  0  0  0
  185.5260  178.7160  144.7500 C   0  0  0  0  0  3  0  0  0  0  0  0
  191.5820  176.6990  143.0510 C   0  0  0  0  0  3  0  0  0  0  0  0
  183.8830  178.0710  142.3150 C   0  0  0  0  0  2  0  0  0  0  0  0
  184.9690  178.9990  141.8300 C   0  0  0  0  0  2  0  0  0  0  0  0
  186.5340  178.4000  143.7080 C   0  0  0  0  0  0  0  0  0  0  0  0
  189.9760  177.4980  137.2570 C   0  0  0  0  0  3  0  0  0  0  0  0
  189.0310  177.7220  139.8900 C   0  0  0  0  0  0  0  0  0  0  0  0
  188.8820  178.7890  138.9890 C   0  0  0  0  0  3  0  0  0  0  0  0
  189.3560  178.6780  137.6800 C   0  0  0  0  0  3  0  0  0  0  0  0
  190.1190  176.4280  138.1450 C   0  0  0  0  0  3  0  0  0  0  0  0
  189.6460  176.5380  139.4560 C   0  0  0  0  0  3  0  0  0  0  0  0
  1 15  1  0  0  0  0
  2 16  1  0  0  0  0
  4 13  2  0  0  0  0
  6  2  2  0  0  0  0
  6 18  1  0  0  0  0
  7 13  1  0  0  0  0
  7  9  1  0  0  0  0
  8 17  2  0  0  0  0
 10  8  1  0  0  0  0
 11  7  2  0  0  0  0
 12  1  2  0  0  0  0
 12  2  1  0  0  0  0
 13  5  1  0  0  0  0
 14 11  1  0  0  0  0
 14  4  1  0  0  0  0
 15 21  2  0  0  0  0
 16  3  2  0  0  0  0
 16 11  1  0  0  0  0
 18 14  2  0  0  0  0
 19 10  1  0  0  0  0
 20 19  1  0  0  0  0
 20 15  1  0  0  0  0
 21  3  1  0  0  0  0
 21 17  1  0  0  0  0
 22 25  2  0  0  0  0
 22 26  1  0  0  0  0
 23 12  1  0  0  0  0
 24 23  2  0  0  0  0
 25 24  1  0  0  0  0
 26 27  2  0  0  0  0
 27 23  1  0  0  0  0
M  END
>  <MODEL>
6

>  <REMARK>
 VINA RESULT:     -11.0      1.960      5.283
  Name = 
  1 active torsions:
  status: ('A' for Active; 'I' for Inactive)
    1  A    between atoms: C_9  and  C_15
                            x       y       z     vdW  Elec       q    Type
                         _______ _______ _______ _____ _____    ______ ____

>  <TORSDO>
F 1

$$$$
=
 OpenBabel10232411323D

 27 31  0  0  0  0  0  0  0  0999 V2000
  189.4220  177.3780  144.3550 C   0  0  0  0  0  3  0  0  0  0  0  0
  187.5260  178.0510  142.8460 C   0  0  0  0  0  0  0  0  0  0  0  0
  186.5900  177.9970  145.1900 C   0  0  0  0  0  3  0  0  0  0  0  0
  183.6680  179.1680  141.7880 N   0  0  0  0  0  0  0  0  0  0  0  0
  181.7230  179.4390  143.2320 N   0  0  0  0  0  1  0  0  0  0  0  0
  187.2120  178.3380  141.4890 C   0  0  0  0  0  3  0  0  0  0  0  0
  183.9920  178.7650  143.9980 C   0  0  0  0  0  0  0  0  0  0  0  0
  187.8550  177.6710  148.6050 C   0  0  0  0  0  3  0  0  0  0  0  0
  183.6840  178.6280  145.4520 C   0  0  0  0  0  1  0  0  0  0  0  0
  189.2380  177.8340  148.7440 O   0  0  0  0  0  0  0  0  0  0  0  0
  185.2010  178.5590  143.3460 C   0  0  0  0  0  0  0  0  0  0  0  0
  188.8630  177.6620  143.1130 C   0  0  0  0  0  0  0  0  0  0  0  0
  183.0950  179.1310  143.0100 C   0  0  0  0  0  0  0  0  0  0  0  0
  184.9480  178.8170  142.0190 C   0  0  0  0  0  0  0  0  0  0  0  0
  188.9370  177.3680  145.6500 C   0  0  0  0  0  0  0  0  0  0  0  0
  186.4800  178.1830  143.8160 C   0  0  0  0  0  0  0  0  0  0  0  0
  187.1660  177.6140  147.4570 C   0  0  0  0  0  3  0  0  0  0  0  0
  185.9390  178.7190  141.0620 C   0  0  0  0  0  3  0  0  0  0  0  0
  190.1340  178.0550  147.6700 C   0  0  0  0  0  2  0  0  0  0  0  0
  189.9640  176.9580  146.6470 C   0  0  0  0  0  2  0  0  0  0  0  0
  187.6250  177.6650  146.0470 C   0  0  0  0  0  0  0  0  0  0  0  0
  191.6650  177.2590  139.8890 C   0  0  0  0  0  3  0  0  0  0  0  0
  189.8360  177.5060  142.0020 C   0  0  0  0  0  0  0  0  0  0  0  0
  191.2110  177.6680  142.2320 C   0  0  0  0  0  3  0  0  0  0  0  0
  192.1220  177.5410  141.1800 C   0  0  0  0  0  3  0  0  0  0  0  0
  190.2970  177.1060  139.6500 C   0  0  0  0  0  3  0  0  0  0  0  0
  189.3840  177.2310  140.7030 C   0  0  0  0  0  3  0  0  0  0  0  0
  1 15  1  0  0  0  0
  2 12  1  0  0  0  0
  2 16  1  0  0  0  0
  3 21  1  0  0  0  0
  4 14  1  0  0  0  0
  4 13  2  0  0  0  0
  6  2  2  0  0  0  0
  7  9  1  0  0  0  0
  8 10  1  0  0  0  0
 11 16  1  0  0  0  0
 11  7  2  0  0  0  0
 12  1  2  0  0  0  0
 13  5  1  0  0  0  0
 13  7  1  0  0  0  0
 14 11  1  0  0  0  0
 15 21  2  0  0  0  0
 15 20  1  0  0  0  0
 16  3  2  0  0  0  0
 17  8  2  0  0  0  0
 18  6  1  0  0  0  0
 18 14  2  0  0  0  0
 19 10  1  0  0  0  0
 20 19  1  0  0  0  0
 21 17  1  0  0  0  0
 22 25  1  0  0  0  0
 23 24  1  0  0  0  0
 23 12  1  0  0  0  0
 25 24  2  0  0  0  0
 26 22  2  0  0  0  0
 26 27  1  0  0  0  0
 27 23  2  0  0  0  0
M  END
>  <MODEL>
7

>  <REMARK>
 VINA RESULT:     -10.9      3.451      7.132
  Name = 
  1 active torsions:
  status: ('A' for Active; 'I' for Inactive)
    1  A    between atoms: C_9  and  C_15
                            x       y       z     vdW  Elec       q    Type
                         _______ _______ _______ _____ _____    ______ ____

>  <TORSDO>
F 1

$$$$
=
 OpenBabel10232411323D

 27 31  0  0  0  0  0  0  0  0999 V2000
  189.7880  177.2150  142.2240 C   0  0  0  0  0  3  0  0  0  0  0  0
  187.4410  177.9890  141.7610 C   0  0  0  0  0  0  0  0  0  0  0  0
  187.6110  177.6760  144.2600 C   0  0  0  0  0  3  0  0  0  0  0  0
  183.5300  179.1100  142.5940 N   0  0  0  0  0  0  0  0  0  0  0  0
  182.4070  179.1860  144.7560 N   0  0  0  0  0  1  0  0  0  0  0  0
  186.5770  178.4030  140.7090 C   0  0  0  0  0  3  0  0  0  0  0  0
  184.7690  178.4950  144.3930 C   0  0  0  0  0  0  0  0  0  0  0  0
  190.2200  177.0390  146.7400 C   0  0  0  0  0  3  0  0  0  0  0  0
  185.1180  178.2050  145.8150 C   0  0  0  0  0  1  0  0  0  0  0  0
  191.5310  177.2220  146.2830 O   0  0  0  0  0  0  0  0  0  0  0  0
  185.5720  178.3860  143.2650 C   0  0  0  0  0  0  0  0  0  0  0  0
  188.7540  177.6090  141.3820 C   0  0  0  0  0  0  0  0  0  0  0  0
  183.5410  178.9360  143.9330 C   0  0  0  0  0  0  0  0  0  0  0  0
  184.7760  178.7690  142.2120 C   0  0  0  0  0  0  0  0  0  0  0  0
  189.9110  177.0620  143.5930 C   0  0  0  0  0  0  0  0  0  0  0  0
  186.9210  177.9960  143.0950 C   0  0  0  0  0  0  0  0  0  0  0  0
  189.1010  177.0810  146.0030 C   0  0  0  0  0  3  0  0  0  0  0  0
  185.2530  178.7940  140.9160 C   0  0  0  0  0  3  0  0  0  0  0  0
  191.8780  177.5720  144.9550 C   0  0  0  0  0  2  0  0  0  0  0  0
  191.2600  176.5790  144.0020 C   0  0  0  0  0  2  0  0  0  0  0  0
  188.9070  177.2850  144.5470 C   0  0  0  0  0  0  0  0  0  0  0  0
  189.9330  177.5790  137.2570 C   0  0  0  0  0  3  0  0  0  0  0  0
  189.1470  177.5890  139.9510 C   0  0  0  0  0  0  0  0  0  0  0  0
  189.8320  176.4870  139.4160 C   0  0  0  0  0  3  0  0  0  0  0  0
  190.2200  176.4810  138.0730 C   0  0  0  0  0  3  0  0  0  0  0  0
  189.2600  178.6850  137.7850 C   0  0  0  0  0  3  0  0  0  0  0  0
  188.8710  178.6910  139.1280 C   0  0  0  0  0  3  0  0  0  0  0  0
  1 15  1  0  0  0  0
  2 16  1  0  0  0  0
  3 21  1  0  0  0  0
  4 13  2  0  0  0  0
  6 18  1  0  0  0  0
  6  2  2  0  0  0  0
  7  9  1  0  0  0  0
 10  8  1  0  0  0  0
 11  7  2  0  0  0  0
 12  2  1  0  0  0  0
 12  1  2  0  0  0  0
 13  7  1  0  0  0  0
 13  5  1  0  0  0  0
 14  4  1  0  0  0  0
 14 11  1  0  0  0  0
 15 20  1  0  0  0  0
 15 21  2  0  0  0  0
 16 11  1  0  0  0  0
 16  3  2  0  0  0  0
 17  8  2  0  0  0  0
 18 14  2  0  0  0  0
 19 10  1  0  0  0  0
 20 19  1  0  0  0  0
 21 17  1  0  0  0  0
 22 26  2  0  0  0  0
 22 25  1  0  0  0  0
 23 12  1  0  0  0  0
 24 23  1  0  0  0  0
 25 24  2  0  0  0  0
 26 27  1  0  0  0  0
 27 23  2  0  0  0  0
M  END
>  <MODEL>
8

>  <REMARK>
 VINA RESULT:     -10.8      3.074      6.406
  Name = 
  1 active torsions:
  status: ('A' for Active; 'I' for Inactive)
    1  A    between atoms: C_9  and  C_15
                            x       y       z     vdW  Elec       q    Type
                         _______ _______ _______ _____ _____    ______ ____

>  <TORSDO>
F 1

$$$$
=
 OpenBabel10232411323D

 27 31  0  0  0  0  0  0  0  0999 V2000
  186.1560  178.1210  144.8630 C   0  0  0  0  0  3  0  0  0  0  0  0
  188.2950  177.8790  143.5640 C   0  0  0  0  0  0  0  0  0  0  0  0
  186.4390  178.0370  141.8610 C   0  0  0  0  0  3  0  0  0  0  0  0
  190.7520  177.5670  140.2310 N   0  0  0  0  0  0  0  0  0  0  0  0
  190.1130  177.5450  137.8790 N   0  0  0  0  0  1  0  0  0  0  0  0
  189.7050  177.7740  143.7230 C   0  0  0  0  0  3  0  0  0  0  0  0
  188.5330  177.7420  139.7900 C   0  0  0  0  0  0  0  0  0  0  0  0
  182.8660  178.8100  141.8120 C   0  0  0  0  0  3  0  0  0  0  0  0
  187.2680  177.8240  139.0010 C   0  0  0  0  0  1  0  0  0  0  0  0
  182.3690  179.3980  142.9810 O   0  0  0  0  0  0  0  0  0  0  0  0
  188.6970  177.7720  141.1680 C   0  0  0  0  0  0  0  0  0  0  0  0
  187.5330  177.9650  144.7580 C   0  0  0  0  0  0  0  0  0  0  0  0
  189.8070  177.6160  139.2670 C   0  0  0  0  0  0  0  0  0  0  0  0
  190.0510  177.6640  141.3770 C   0  0  0  0  0  0  0  0  0  0  0  0
  185.1260  178.2360  143.9470 C   0  0  0  0  0  0  0  0  0  0  0  0
  187.7720  177.8940  142.2310 C   0  0  0  0  0  0  0  0  0  0  0  0
  184.0970  178.3160  141.6240 C   0  0  0  0  0  3  0  0  0  0  0  0
  190.5900  177.6670  142.6490 C   0  0  0  0  0  3  0  0  0  0  0  0
  183.1370  179.6460  144.1450 C   0  0  0  0  0  2  0  0  0  0  0  0
  183.7900  178.3610  144.5930 C   0  0  0  0  0  2  0  0  0  0  0  0
  185.2510  178.2090  142.5500 C   0  0  0  0  0  0  0  0  0  0  0  0
  189.4290  177.6640  148.5950 C   0  0  0  0  0  3  0  0  0  0  0  0
  188.1990  177.8760  146.0820 C   0  0  0  0  0  0  0  0  0  0  0  0
  189.4650  177.2820  146.2040 C   0  0  0  0  0  3  0  0  0  0  0  0
  190.0780  177.1800  147.4560 C   0  0  0  0  0  3  0  0  0  0  0  0
  188.1640  178.2480  148.4830 C   0  0  0  0  0  3  0  0  0  0  0  0
  187.5490  178.3510  147.2310 C   0  0  0  0  0  3  0  0  0  0  0  0
  2  6  1  0  0  0  0
  2 12  2  0  0  0  0
  3 16  1  0  0  0  0
  3 21  2  0  0  0  0
  4 14  2  0  0  0  0
  5 13  1  0  0  0  0
  7 11  1  0  0  0  0
  8 10  1  0  0  0  0
  9  7  1  0  0  0  0
 10 19  1  0  0  0  0
 11 14  1  0  0  0  0
 11 16  2  0  0  0  0
 12  1  1  0  0  0  0
 12 23  1  0  0  0  0
 13  7  2  0  0  0  0
 13  4  1  0  0  0  0
 14 18  1  0  0  0  0
 15 20  1  0  0  0  0
 15  1  2  0  0  0  0
 16  2  1  0  0  0  0
 17  8  2  0  0  0  0
 17 21  1  0  0  0  0
 18  6  2  0  0  0  0
 19 20  1  0  0  0  0
 21 15  1  0  0  0  0
 23 24  2  0  0  0  0
 23 27  1  0  0  0  0
 24 25  1  0  0  0  0
 25 22  2  0  0  0  0
 26 22  1  0  0  0  0
 27 26  2  0  0  0  0
M  END
>  <MODEL>
9

>  <REMARK>
 VINA RESULT:     -10.7      3.103      6.220
  Name = 
  1 active torsions:
  status: ('A' for Active; 'I' for Inactive)
    1  A    between atoms: C_9  and  C_15
                            x       y       z     vdW  Elec       q    Type
                         _______ _______ _______ _____ _____    ______ ____

>  <TORSDO>
F 1

$$$$
