=
 OpenBabel10222422103D

 29 31  0  0  1  0  0  0  0  0999 V2000
  184.9070  179.2940  140.7710 C   0  0  0  0  0  3  0  0  0  0  0  0
  187.1090  178.4130  141.1070 N   0  0  0  0  0  0  0  0  0  0  0  0
  186.7600  178.4130  139.7370 C   0  0  0  0  0  0  0  0  0  0  0  0
  185.4630  178.8960  139.4860 N   0  0  0  0  0  0  0  0  0  0  0  0
  187.5440  178.0550  138.8180 O   0  0  0  0  0  0  0  0  0  0  0  0
  185.9780  178.9740  141.8420 C   0  0  2  0  0  3  0  0  0  0  0  0
  186.5020  177.6670  143.9080 C   0  0  0  0  0  3  0  0  0  0  0  0
  186.4930  178.1720  145.1550 C   0  0  0  0  0  0  0  0  0  0  0  0
  185.4390  177.9710  142.8770 C   0  0  1  0  0  3  0  0  0  0  0  0
  184.1810  178.4900  143.5360 C   0  0  0  0  0  0  0  0  0  0  0  0
  183.0770  178.4130  142.9370 O   0  0  0  0  0  0  0  0  0  0  0  0
  185.3390  178.9810  145.6110 C   0  0  0  0  0  3  0  0  0  0  0  0
  184.2460  179.1190  144.8610 C   0  0  0  0  0  3  0  0  0  0  0  0
  187.6100  177.8880  146.0860 C   0  0  0  0  0  0  0  0  0  0  0  0
  188.8540  177.4580  145.6000 C   0  0  0  0  0  3  0  0  0  0  0  0
  189.7360  177.3380  147.8010 C   0  0  0  0  0  3  0  0  0  0  0  0
  188.5190  177.7630  148.3350 C   0  0  0  0  0  3  0  0  0  0  0  0
  189.8770  177.1950  146.4570 N   0  0  0  0  0  0  0  0  0  0  0  0
  187.4570  178.0380  147.4730 C   0  0  0  0  0  3  0  0  0  0  0  0
  188.4850  178.5210  141.5810 C   0  0  0  0  0  2  0  0  0  0  0  0
  188.6070  176.2620  142.2200 O   0  0  0  0  0  0  0  0  0  0  0  0
  189.1380  177.1770  141.6110 C   0  0  0  0  0  0  0  0  0  0  0  0
  190.4320  176.9660  140.8830 C   0  0  2  0  0  3  0  0  0  0  0  0
  191.6460  177.2890  141.7390 C   0  0  0  0  0  1  0  0  0  0  0  0
  190.4860  177.6080  139.4940 C   0  0  0  0  0  2  0  0  0  0  0  0
  190.4820  176.9200  136.6900 O   0  0  0  0  0  0  0  0  0  0  0  0
  191.1760  176.5370  138.1830 P   0  0  0  0  0  0  0  0  0  0  0  0
  190.8570  175.0980  138.5150 O   0  0  0  0  0  1  0  0  0  0  0  0
  192.8540  176.7220  138.0880 O   0  0  0  0  0  1  0  0  0  0  0  0
  2 20  1  0  0  0  0
  2  6  1  0  0  0  0
  3  2  1  0  0  0  0
  4  3  1  0  0  0  0
  4  1  2  0  0  0  0
  5  3  2  0  0  0  0
  6  1  1  6  0  0  0
  6  9  1  0  0  0  0
  7  8  2  0  0  0  0
  8 12  1  0  0  0  0
  8 14  1  0  0  0  0
  9 10  1  0  0  0  0
  9  7  1  1  0  0  0
 10 13  1  0  0  0  0
 11 10  2  0  0  0  0
 13 12  2  0  0  0  0
 14 19  1  0  0  0  0
 15 14  2  0  0  0  0
 15 18  1  0  0  0  0
 16 17  1  0  0  0  0
 18 16  2  0  0  0  0
 19 17  2  0  0  0  0
 20 22  1  0  0  0  0
 22 21  2  0  0  0  0
 23 22  1  0  0  0  0
 23 24  1  1  0  0  0
 25 23  1  0  0  0  0
 26 27  2  0  0  0  0
 27 28  1  0  0  0  0
 27 25  1  0  0  0  0
 29 27  1  0  0  0  0
M  END
>  <MODEL>
1

>  <REMARK>
 VINA RESULT:      -9.0      0.000      0.000
  Name = 
  7 active torsions:
  status: ('A' for Active; 'I' for Inactive)
    1  A    between atoms: C_2  and  C_10
    2  A    between atoms: C_3  and  C_8
    3  A    between atoms: C_3  and  C_24
    4  A    between atoms: P_7  and  C_8
    5  A    between atoms: N_9  and  C_18
    6  A    between atoms: C_18  and  C_24
    7  A    between atoms: C_19  and  C_29
                            x       y       z     vdW  Elec       q    Type
                         _______ _______ _______ _____ _____    ______ ____

>  <TORSDO>
F 7

$$$$
=
 OpenBabel10222422103D

 29 31  0  0  1  0  0  0  0  0999 V2000
  184.8830  179.4550  142.4140 C   0  0  0  0  0  3  0  0  0  0  0  0
  187.0170  178.5330  141.8320 N   0  0  0  0  0  0  0  0  0  0  0  0
  186.2000  178.7000  140.6890 C   0  0  0  0  0  0  0  0  0  0  0  0
  184.9240  179.2140  140.9800 N   0  0  0  0  0  0  0  0  0  0  0  0
  186.5860  178.4540  139.5160 O   0  0  0  0  0  0  0  0  0  0  0  0
  186.2510  179.0040  142.9840 C   0  0  2  0  0  3  0  0  0  0  0  0
  187.4220  177.3720  144.4720 C   0  0  0  0  0  3  0  0  0  0  0  0
  187.9780  177.6800  145.6570 C   0  0  0  0  0  0  0  0  0  0  0  0
  186.0720  177.8840  144.0240 C   0  0  1  0  0  3  0  0  0  0  0  0
  185.2580  178.3620  145.2040 C   0  0  0  0  0  0  0  0  0  0  0  0
  184.0040  178.4350  145.1190 O   0  0  0  0  0  0  0  0  0  0  0  0
  187.2070  178.4690  146.6460 C   0  0  0  0  0  3  0  0  0  0  0  0
  185.9260  178.7770  146.4440 C   0  0  0  0  0  3  0  0  0  0  0  0
  189.3380  177.1990  145.9950 C   0  0  0  0  0  0  0  0  0  0  0  0
  189.6990  176.9560  147.3290 C   0  0  0  0  0  3  0  0  0  0  0  0
  191.8850  176.2980  146.6760 C   0  0  0  0  0  3  0  0  0  0  0  0
  191.5760  176.5240  145.3340 C   0  0  0  0  0  3  0  0  0  0  0  0
  190.9490  176.5170  147.6370 N   0  0  0  0  0  0  0  0  0  0  0  0
  190.2990  176.9750  144.9970 C   0  0  0  0  0  3  0  0  0  0  0  0
  188.4740  178.5790  141.7860 C   0  0  0  0  0  2  0  0  0  0  0  0
  188.5220  176.2430  142.0510 O   0  0  0  0  0  0  0  0  0  0  0  0
  189.0350  177.2180  141.5250 C   0  0  0  0  0  0  0  0  0  0  0  0
  190.2140  177.0650  140.6120 C   0  0  2  0  0  3  0  0  0  0  0  0
  191.5170  177.5130  141.2560 C   0  0  0  0  0  1  0  0  0  0  0  0
  190.0050  177.6450  139.2100 C   0  0  0  0  0  2  0  0  0  0  0  0
  190.6450  174.9980  138.2500 O   0  0  0  0  0  1  0  0  0  0  0  0
  189.7670  176.3980  137.8950 P   0  0  0  0  0  0  0  0  0  0  0  0
  190.2680  176.9690  136.5890 O   0  0  0  0  0  0  0  0  0  0  0  0
  188.1280  176.0110  137.7350 O   0  0  0  0  0  1  0  0  0  0  0  0
  2  6  1  0  0  0  0
  3  4  1  0  0  0  0
  3  2  1  0  0  0  0
  4  1  2  0  0  0  0
  5  3  2  0  0  0  0
  6  1  1  6  0  0  0
  6  9  1  0  0  0  0
  7  8  2  0  0  0  0
  8 14  1  0  0  0  0
  8 12  1  0  0  0  0
  9  7  1  1  0  0  0
  9 10  1  0  0  0  0
 10 13  1  0  0  0  0
 11 10  2  0  0  0  0
 13 12  2  0  0  0  0
 14 15  1  0  0  0  0
 15 18  2  0  0  0  0
 16 18  1  0  0  0  0
 17 16  2  0  0  0  0
 19 17  1  0  0  0  0
 19 14  2  0  0  0  0
 20  2  1  0  0  0  0
 22 20  1  0  0  0  0
 22 21  2  0  0  0  0
 23 24  1  1  0  0  0
 23 22  1  0  0  0  0
 25 23  1  0  0  0  0
 27 26  1  0  0  0  0
 27 25  1  0  0  0  0
 28 27  2  0  0  0  0
 29 27  1  0  0  0  0
M  END
>  <MODEL>
2

>  <REMARK>
 VINA RESULT:      -8.7      1.310      2.100
  Name = 
  7 active torsions:
  status: ('A' for Active; 'I' for Inactive)
    1  A    between atoms: C_2  and  C_10
    2  A    between atoms: C_3  and  C_8
    3  A    between atoms: C_3  and  C_24
    4  A    between atoms: P_7  and  C_8
    5  A    between atoms: N_9  and  C_18
    6  A    between atoms: C_18  and  C_24
    7  A    between atoms: C_19  and  C_29
                            x       y       z     vdW  Elec       q    Type
                         _______ _______ _______ _____ _____    ______ ____

>  <TORSDO>
F 7

$$$$
=
 OpenBabel10222422103D

 29 31  0  0  1  0  0  0  0  0999 V2000
  187.4860  177.2160  146.7010 C   0  0  0  0  0  3  0  0  0  0  0  0
  188.3040  177.1840  144.4500 N   0  0  0  0  0  0  0  0  0  0  0  0
  189.3470  176.9620  145.3790 C   0  0  0  0  0  0  0  0  0  0  0  0
  188.9250  176.9970  146.7200 N   0  0  0  0  0  0  0  0  0  0  0  0
  190.5360  176.7140  145.0450 O   0  0  0  0  0  0  0  0  0  0  0  0
  187.0710  177.3470  145.2150 C   0  0  2  0  0  3  0  0  0  0  0  0
  185.9420  178.7890  143.5130 C   0  0  0  0  0  3  0  0  0  0  0  0
  184.6490  178.6860  143.1600 C   0  0  0  0  0  0  0  0  0  0  0  0
  186.4270  178.7180  144.9430 C   0  0  1  0  0  3  0  0  0  0  0  0
  185.2970  178.9920  145.9090 C   0  0  0  0  0  0  0  0  0  0  0  0
  185.5470  179.3800  147.0790 O   0  0  0  0  0  0  0  0  0  0  0  0
  183.6070  178.6120  144.2100 C   0  0  0  0  0  3  0  0  0  0  0  0
  183.9050  178.7700  145.4990 C   0  0  0  0  0  3  0  0  0  0  0  0
  184.2580  178.6900  141.7310 C   0  0  0  0  0  0  0  0  0  0  0  0
  185.1640  179.1080  140.7450 C   0  0  0  0  0  3  0  0  0  0  0  0
  183.5660  178.7190  139.0330 C   0  0  0  0  0  3  0  0  0  0  0  0
  182.6280  178.2940  139.9740 C   0  0  0  0  0  3  0  0  0  0  0  0
  184.8030  179.1140  139.4330 N   0  0  0  0  0  0  0  0  0  0  0  0
  182.9790  178.2800  141.3240 C   0  0  0  0  0  3  0  0  0  0  0  0
  188.3210  176.6590  143.0890 C   0  0  0  0  0  2  0  0  0  0  0  0
  189.4120  178.6830  142.5950 O   0  0  0  0  0  0  0  0  0  0  0  0
  188.9760  177.6290  142.1590 C   0  0  0  0  0  0  0  0  0  0  0  0
  189.0980  177.2910  140.7030 C   0  0  2  0  0  3  0  0  0  0  0  0
  190.4580  176.7110  140.3480 C   0  0  0  0  0  1  0  0  0  0  0  0
  188.6550  178.4110  139.7570 C   0  0  0  0  0  2  0  0  0  0  0  0
  187.8840  176.2990  137.9450 O   0  0  0  0  0  1  0  0  0  0  0  0
  188.4290  177.8970  138.0180 P   0  0  0  0  0  0  0  0  0  0  0  0
  189.7600  177.9910  137.3080 O   0  0  0  0  0  1  0  0  0  0  0  0
  187.3170  178.9080  137.2410 O   0  0  0  0  0  0  0  0  0  0  0  0
  1  4  2  0  0  0  0
  2  6  1  0  0  0  0
  2  3  1  0  0  0  0
  3  4  1  0  0  0  0
  5  3  2  0  0  0  0
  6  1  1  1  0  0  0
  8  7  2  0  0  0  0
  8 12  1  0  0  0  0
  9  7  1  6  0  0  0
  9  6  1  0  0  0  0
  9 10  1  0  0  0  0
 10 11  2  0  0  0  0
 12 13  2  0  0  0  0
 13 10  1  0  0  0  0
 14  8  1  0  0  0  0
 15 14  2  0  0  0  0
 16 18  2  0  0  0  0
 16 17  1  0  0  0  0
 17 19  2  0  0  0  0
 18 15  1  0  0  0  0
 19 14  1  0  0  0  0
 20  2  1  0  0  0  0
 22 21  2  0  0  0  0
 22 20  1  0  0  0  0
 23 24  1  6  0  0  0
 23 22  1  0  0  0  0
 25 23  1  0  0  0  0
 26 27  1  0  0  0  0
 27 25  1  0  0  0  0
 28 27  1  0  0  0  0
 29 27  2  0  0  0  0
M  END
>  <MODEL>
3

>  <REMARK>
 VINA RESULT:      -8.6      1.934      5.262
  Name = 
  7 active torsions:
  status: ('A' for Active; 'I' for Inactive)
    1  A    between atoms: C_2  and  C_10
    2  A    between atoms: C_3  and  C_8
    3  A    between atoms: C_3  and  C_24
    4  A    between atoms: P_7  and  C_8
    5  A    between atoms: N_9  and  C_18
    6  A    between atoms: C_18  and  C_24
    7  A    between atoms: C_19  and  C_29
                            x       y       z     vdW  Elec       q    Type
                         _______ _______ _______ _____ _____    ______ ____

>  <TORSDO>
F 7

$$$$
=
 OpenBabel10222422103D

 29 31  0  0  1  0  0  0  0  0999 V2000
  184.8270  179.2130  140.1110 C   0  0  0  0  0  3  0  0  0  0  0  0
  186.9170  178.5300  141.0620 N   0  0  0  0  0  0  0  0  0  0  0  0
  186.9310  178.4120  139.6530 C   0  0  0  0  0  0  0  0  0  0  0  0
  185.7160  178.7750  139.0450 N   0  0  0  0  0  0  0  0  0  0  0  0
  187.9430  178.0560  138.9940 O   0  0  0  0  0  0  0  0  0  0  0  0
  185.6050  179.0490  141.4400 C   0  0  2  0  0  3  0  0  0  0  0  0
  185.6800  177.8900  143.6550 C   0  0  0  0  0  3  0  0  0  0  0  0
  185.3600  178.4640  144.8280 C   0  0  0  0  0  0  0  0  0  0  0  0
  184.8780  178.0780  142.3870 C   0  0  1  0  0  3  0  0  0  0  0  0
  183.4810  178.5640  142.7000 C   0  0  0  0  0  0  0  0  0  0  0  0
  182.5520  178.3940  141.8690 O   0  0  0  0  0  0  0  0  0  0  0  0
  184.1000  179.2320  144.9490 C   0  0  0  0  0  3  0  0  0  0  0  0
  183.2090  179.2700  143.9590 C   0  0  0  0  0  3  0  0  0  0  0  0
  186.2380  178.2930  146.0100 C   0  0  0  0  0  0  0  0  0  0  0  0
  186.1310  179.1570  147.1100 C   0  0  0  0  0  3  0  0  0  0  0  0
  187.8700  178.0110  148.2500 C   0  0  0  0  0  3  0  0  0  0  0  0
  188.0160  177.1250  147.1820 C   0  0  0  0  0  3  0  0  0  0  0  0
  186.9390  179.0000  148.1930 N   0  0  0  0  0  0  0  0  0  0  0  0
  187.1960  177.2690  146.0620 C   0  0  0  0  0  3  0  0  0  0  0  0
  188.1170  178.7750  141.8550 C   0  0  0  0  0  2  0  0  0  0  0  0
  188.2440  176.4950  142.4120 O   0  0  0  0  0  0  0  0  0  0  0  0
  188.8590  177.5010  142.0950 C   0  0  0  0  0  0  0  0  0  0  0  0
  190.3490  177.4690  141.9310 C   0  0  2  0  0  3  0  0  0  0  0  0
  190.7810  176.8860  140.5960 C   0  0  0  0  0  1  0  0  0  0  0  0
  191.1020  176.8690  143.1230 C   0  0  0  0  0  2  0  0  0  0  0  0
  191.8600  177.1330  145.8960 O   0  0  0  0  0  1  0  0  0  0  0  0
  191.2720  177.9850  144.5600 P   0  0  0  0  0  0  0  0  0  0  0  0
  189.9120  178.5480  144.9010 O   0  0  0  0  0  1  0  0  0  0  0  0
  192.3230  179.2600  144.1990 O   0  0  0  0  0  0  0  0  0  0  0  0
  2  6  1  0  0  0  0
  2 20  1  0  0  0  0
  3  2  1  0  0  0  0
  4  3  1  0  0  0  0
  4  1  2  0  0  0  0
  5  3  2  0  0  0  0
  6  1  1  6  0  0  0
  6  9  1  0  0  0  0
  7  8  2  0  0  0  0
  8 12  1  0  0  0  0
  8 14  1  0  0  0  0
  9 10  1  0  0  0  0
  9  7  1  1  0  0  0
 10 13  1  0  0  0  0
 11 10  2  0  0  0  0
 13 12  2  0  0  0  0
 14 19  2  0  0  0  0
 14 15  1  0  0  0  0
 15 18  2  0  0  0  0
 17 16  2  0  0  0  0
 18 16  1  0  0  0  0
 19 17  1  0  0  0  0
 20 22  1  0  0  0  0
 22 21  2  0  0  0  0
 23 24  1  6  0  0  0
 23 22  1  0  0  0  0
 23 25  1  0  0  0  0
 25 27  1  0  0  0  0
 27 28  1  0  0  0  0
 27 26  1  0  0  0  0
 29 27  2  0  0  0  0
M  END
>  <MODEL>
4

>  <REMARK>
 VINA RESULT:      -8.6      2.213      3.188
  Name = 
  7 active torsions:
  status: ('A' for Active; 'I' for Inactive)
    1  A    between atoms: C_2  and  C_10
    2  A    between atoms: C_3  and  C_8
    3  A    between atoms: C_3  and  C_24
    4  A    between atoms: P_7  and  C_8
    5  A    between atoms: N_9  and  C_18
    6  A    between atoms: C_18  and  C_24
    7  A    between atoms: C_19  and  C_29
                            x       y       z     vdW  Elec       q    Type
                         _______ _______ _______ _____ _____    ______ ____

>  <TORSDO>
F 7

$$$$
=
 OpenBabel10222422103D

 29 31  0  0  1  0  0  0  0  0999 V2000
  190.8590  176.5810  146.0010 C   0  0  0  0  0  3  0  0  0  0  0  0
  189.9280  176.9580  143.8260 N   0  0  0  0  0  0  0  0  0  0  0  0
  191.3310  176.7900  143.7620 C   0  0  0  0  0  0  0  0  0  0  0  0
  191.9320  176.5930  145.0180 N   0  0  0  0  0  0  0  0  0  0  0  0
  191.9820  176.7770  142.6840 O   0  0  0  0  0  0  0  0  0  0  0  0
  189.5400  176.8270  145.2280 C   0  0  2  0  0  3  0  0  0  0  0  0
  187.6080  178.3790  144.8960 C   0  0  0  0  0  3  0  0  0  0  0  0
  186.3540  178.1400  145.3200 C   0  0  0  0  0  0  0  0  0  0  0  0
  188.8380  178.1020  145.7290 C   0  0  1  0  0  3  0  0  0  0  0  0
  188.4840  177.9900  147.1940 C   0  0  0  0  0  0  0  0  0  0  0  0
  189.3650  178.1710  148.0740 O   0  0  0  0  0  0  0  0  0  0  0  0
  186.1250  177.6890  146.7120 C   0  0  0  0  0  3  0  0  0  0  0  0
  187.1180  177.6320  147.5980 C   0  0  0  0  0  3  0  0  0  0  0  0
  185.2010  178.3680  144.4170 C   0  0  0  0  0  0  0  0  0  0  0  0
  185.3270  178.1690  143.0350 C   0  0  0  0  0  3  0  0  0  0  0  0
  183.0620  178.7890  142.6840 C   0  0  0  0  0  3  0  0  0  0  0  0
  182.8850  179.0010  144.0510 C   0  0  0  0  0  3  0  0  0  0  0  0
  184.2680  178.3810  142.2070 N   0  0  0  0  0  0  0  0  0  0  0  0
  183.9590  178.7890  144.9160 C   0  0  0  0  0  3  0  0  0  0  0  0
  189.0320  176.6140  142.7280 C   0  0  0  0  0  2  0  0  0  0  0  0
  189.0290  178.8500  142.0000 O   0  0  0  0  0  0  0  0  0  0  0  0
  189.0600  177.6740  141.6740 C   0  0  0  0  0  0  0  0  0  0  0  0
  189.1380  177.2800  140.2290 C   0  0  2  0  0  3  0  0  0  0  0  0
  190.4230  176.5410  139.8910 C   0  0  0  0  0  1  0  0  0  0  0  0
  188.8170  178.4120  139.2490 C   0  0  0  0  0  2  0  0  0  0  0  0
  187.5220  179.0440  136.7470 O   0  0  0  0  0  0  0  0  0  0  0  0
  187.4100  178.0800  138.1310 P   0  0  0  0  0  0  0  0  0  0  0  0
  186.1270  178.4130  138.8550 O   0  0  0  0  0  1  0  0  0  0  0  0
  187.3830  176.4500  137.6810 O   0  0  0  0  0  1  0  0  0  0  0  0
  2  6  1  0  0  0  0
  3  2  1  0  0  0  0
  3  4  1  0  0  0  0
  4  1  2  0  0  0  0
  5  3  2  0  0  0  0
  6  9  1  0  0  0  0
  6  1  1  1  0  0  0
  7  8  2  0  0  0  0
  8 12  1  0  0  0  0
  9  7  1  6  0  0  0
  9 10  1  0  0  0  0
 10 13  1  0  0  0  0
 10 11  2  0  0  0  0
 12 13  2  0  0  0  0
 14 19  1  0  0  0  0
 14  8  1  0  0  0  0
 15 14  2  0  0  0  0
 16 17  1  0  0  0  0
 17 19  2  0  0  0  0
 18 16  2  0  0  0  0
 18 15  1  0  0  0  0
 20  2  1  0  0  0  0
 22 21  2  0  0  0  0
 22 20  1  0  0  0  0
 23 24  1  6  0  0  0
 23 22  1  0  0  0  0
 25 23  1  0  0  0  0
 26 27  2  0  0  0  0
 27 28  1  0  0  0  0
 27 25  1  0  0  0  0
 29 27  1  0  0  0  0
M  END
>  <MODEL>
5

>  <REMARK>
 VINA RESULT:      -8.3      2.333      5.093
  Name = 
  7 active torsions:
  status: ('A' for Active; 'I' for Inactive)
    1  A    between atoms: C_2  and  C_10
    2  A    between atoms: C_3  and  C_8
    3  A    between atoms: C_3  and  C_24
    4  A    between atoms: P_7  and  C_8
    5  A    between atoms: N_9  and  C_18
    6  A    between atoms: C_18  and  C_24
    7  A    between atoms: C_19  and  C_29
                            x       y       z     vdW  Elec       q    Type
                         _______ _______ _______ _____ _____    ______ ____

>  <TORSDO>
F 7

$$$$
=
 OpenBabel10222422103D

 29 31  0  0  1  0  0  0  0  0999 V2000
  188.5470  176.6920  147.2400 C   0  0  0  0  0  3  0  0  0  0  0  0
  189.2930  177.0990  145.0010 N   0  0  0  0  0  0  0  0  0  0  0  0
  190.3730  176.7580  145.8470 C   0  0  0  0  0  0  0  0  0  0  0  0
  189.9930  176.5350  147.1830 N   0  0  0  0  0  0  0  0  0  0  0  0
  191.5590  176.6240  145.4450 O   0  0  0  0  0  0  0  0  0  0  0  0
  188.0790  177.0690  145.8130 C   0  0  2  0  0  3  0  0  0  0  0  0
  186.3920  178.5130  144.6650 C   0  0  0  0  0  3  0  0  0  0  0  0
  185.0610  178.4050  144.8220 C   0  0  0  0  0  0  0  0  0  0  0  0
  187.3770  178.4390  145.8090 C   0  0  1  0  0  3  0  0  0  0  0  0
  186.6900  178.7040  147.1290 C   0  0  0  0  0  0  0  0  0  0  0  0
  187.3590  179.0890  148.1230 O   0  0  0  0  0  0  0  0  0  0  0  0
  184.4880  178.3230  146.1850 C   0  0  0  0  0  3  0  0  0  0  0  0
  185.2470  178.4780  147.2700 C   0  0  0  0  0  3  0  0  0  0  0  0
  184.1630  178.4130  143.6430 C   0  0  0  0  0  0  0  0  0  0  0  0
  182.8190  178.7950  143.7710 C   0  0  0  0  0  3  0  0  0  0  0  0
  182.4400  178.4390  141.4540 C   0  0  0  0  0  3  0  0  0  0  0  0
  183.7680  178.0520  141.2740 C   0  0  0  0  0  3  0  0  0  0  0  0
  181.9960  178.7990  142.6870 N   0  0  0  0  0  0  0  0  0  0  0  0
  184.6280  178.0410  142.3720 C   0  0  0  0  0  3  0  0  0  0  0  0
  189.2860  176.8280  143.5680 C   0  0  0  0  0  2  0  0  0  0  0  0
  190.4450  178.8590  143.3290 O   0  0  0  0  0  0  0  0  0  0  0  0
  189.7130  178.0370  142.8010 C   0  0  0  0  0  0  0  0  0  0  0  0
  189.2450  178.2220  141.3880 C   0  0  2  0  0  3  0  0  0  0  0  0
  187.7320  178.3250  141.2790 C   0  0  0  0  0  1  0  0  0  0  0  0
  189.8550  177.2350  140.3880 C   0  0  0  0  0  2  0  0  0  0  0  0
  188.1240  176.5500  138.1820 O   0  0  0  0  0  1  0  0  0  0  0  0
  189.4120  177.5430  138.6420 P   0  0  0  0  0  0  0  0  0  0  0  0
  190.6070  177.2250  137.7740 O   0  0  0  0  0  0  0  0  0  0  0  0
  188.9810  179.1630  138.4170 O   0  0  0  0  0  1  0  0  0  0  0  0
  2  6  1  0  0  0  0
  2  3  1  0  0  0  0
  3  4  1  0  0  0  0
  4  1  2  0  0  0  0
  5  3  2  0  0  0  0
  6  1  1  1  0  0  0
  7  8  2  0  0  0  0
  8 12  1  0  0  0  0
  9  7  1  6  0  0  0
  9  6  1  0  0  0  0
  9 10  1  0  0  0  0
 10 13  1  0  0  0  0
 10 11  2  0  0  0  0
 12 13  2  0  0  0  0
 14 15  1  0  0  0  0
 14  8  1  0  0  0  0
 16 18  1  0  0  0  0
 17 16  2  0  0  0  0
 17 19  1  0  0  0  0
 18 15  2  0  0  0  0
 19 14  2  0  0  0  0
 20  2  1  0  0  0  0
 22 21  2  0  0  0  0
 22 20  1  0  0  0  0
 23 24  1  1  0  0  0
 23 22  1  0  0  0  0
 25 23  1  0  0  0  0
 26 27  1  0  0  0  0
 27 25  1  0  0  0  0
 28 27  2  0  0  0  0
 29 27  1  0  0  0  0
M  END
>  <MODEL>
6

>  <REMARK>
 VINA RESULT:      -8.2      2.282      5.312
  Name = 
  7 active torsions:
  status: ('A' for Active; 'I' for Inactive)
    1  A    between atoms: C_2  and  C_10
    2  A    between atoms: C_3  and  C_8
    3  A    between atoms: C_3  and  C_24
    4  A    between atoms: P_7  and  C_8
    5  A    between atoms: N_9  and  C_18
    6  A    between atoms: C_18  and  C_24
    7  A    between atoms: C_19  and  C_29
                            x       y       z     vdW  Elec       q    Type
                         _______ _______ _______ _____ _____    ______ ____

>  <TORSDO>
F 7

$$$$
=
 OpenBabel10222422103D

 29 31  0  0  1  0  0  0  0  0999 V2000
  184.2290  179.9560  144.4940 C   0  0  0  0  0  3  0  0  0  0  0  0
  184.1570  178.3210  142.7440 N   0  0  0  0  0  0  0  0  0  0  0  0
  182.9530  179.0600  142.8060 C   0  0  0  0  0  0  0  0  0  0  0  0
  182.9320  180.0170  143.8370 N   0  0  0  0  0  0  0  0  0  0  0  0
  182.0010  178.9100  141.9960 O   0  0  0  0  0  0  0  0  0  0  0  0
  185.0380  178.8400  143.7870 C   0  0  2  0  0  3  0  0  0  0  0  0
  186.7850  177.1670  144.4180 C   0  0  0  0  0  3  0  0  0  0  0  0
  187.9150  177.4570  145.0870 C   0  0  0  0  0  0  0  0  0  0  0  0
  185.4320  177.7330  144.7810 C   0  0  1  0  0  3  0  0  0  0  0  0
  185.4260  178.2480  146.2020 C   0  0  0  0  0  0  0  0  0  0  0  0
  184.3400  178.3730  146.8250 O   0  0  0  0  0  0  0  0  0  0  0  0
  187.8490  178.2800  146.3160 C   0  0  0  0  0  3  0  0  0  0  0  0
  186.6830  178.6400  146.8510 C   0  0  0  0  0  3  0  0  0  0  0  0
  189.2180  176.9210  144.6250 C   0  0  0  0  0  0  0  0  0  0  0  0
  190.3770  177.1030  145.3940 C   0  0  0  0  0  3  0  0  0  0  0  0
  191.6870  175.9350  143.7940 C   0  0  0  0  0  3  0  0  0  0  0  0
  190.5640  175.7280  142.9930 C   0  0  0  0  0  3  0  0  0  0  0  0
  191.5730  176.6120  144.9670 N   0  0  0  0  0  0  0  0  0  0  0  0
  189.3290  176.2230  143.4130 C   0  0  0  0  0  3  0  0  0  0  0  0
  184.6640  177.7230  141.5140 C   0  0  0  0  0  2  0  0  0  0  0  0
  185.1210  179.7710  140.4540 O   0  0  0  0  0  0  0  0  0  0  0  0
  185.5540  178.6800  140.7910 C   0  0  0  0  0  0  0  0  0  0  0  0
  186.9740  178.2940  140.4970 C   0  0  2  0  0  3  0  0  0  0  0  0
  187.9660  178.9320  141.4560 C   0  0  0  0  0  1  0  0  0  0  0  0
  187.3760  178.4430  139.0270 C   0  0  0  0  0  2  0  0  0  0  0  0
  189.5850  176.7350  139.7610 O   0  0  0  0  0  1  0  0  0  0  0  0
  188.6440  177.2570  138.4570 P   0  0  0  0  0  0  0  0  0  0  0  0
  189.5390  177.9470  137.4550 O   0  0  0  0  0  0  0  0  0  0  0  0
  187.9160  175.9200  137.7180 O   0  0  0  0  0  1  0  0  0  0  0  0
  2  3  1  0  0  0  0
  2  6  1  0  0  0  0
  3  4  1  0  0  0  0
  4  1  2  0  0  0  0
  5  3  2  0  0  0  0
  6  1  1  1  0  0  0
  6  9  1  0  0  0  0
  7  8  2  0  0  0  0
  8 12  1  0  0  0  0
  9  7  1  6  0  0  0
  9 10  1  0  0  0  0
 10 11  2  0  0  0  0
 10 13  1  0  0  0  0
 12 13  2  0  0  0  0
 14  8  1  0  0  0  0
 14 15  1  0  0  0  0
 16 18  1  0  0  0  0
 17 19  1  0  0  0  0
 17 16  2  0  0  0  0
 18 15  2  0  0  0  0
 19 14  2  0  0  0  0
 20  2  1  0  0  0  0
 21 22  2  0  0  0  0
 22 20  1  0  0  0  0
 23 22  1  0  0  0  0
 23 24  1  1  0  0  0
 25 23  1  0  0  0  0
 27 25  1  0  0  0  0
 27 26  1  0  0  0  0
 28 27  2  0  0  0  0
 29 27  1  0  0  0  0
M  END
>  <MODEL>
7

>  <REMARK>
 VINA RESULT:      -8.1      2.114      3.812
  Name = 
  7 active torsions:
  status: ('A' for Active; 'I' for Inactive)
    1  A    between atoms: C_2  and  C_10
    2  A    between atoms: C_3  and  C_8
    3  A    between atoms: C_3  and  C_24
    4  A    between atoms: P_7  and  C_8
    5  A    between atoms: N_9  and  C_18
    6  A    between atoms: C_18  and  C_24
    7  A    between atoms: C_19  and  C_29
                            x       y       z     vdW  Elec       q    Type
                         _______ _______ _______ _____ _____    ______ ____

>  <TORSDO>
F 7

$$$$
=
 OpenBabel10222422103D

 29 31  0  0  1  0  0  0  0  0999 V2000
  184.1160  179.9130  144.5870 C   0  0  0  0  0  3  0  0  0  0  0  0
  184.0480  178.3530  142.7700 N   0  0  0  0  0  0  0  0  0  0  0  0
  182.8250  179.0510  142.8930 C   0  0  0  0  0  0  0  0  0  0  0  0
  182.8010  179.9630  143.9640 N   0  0  0  0  0  0  0  0  0  0  0  0
  181.8580  178.9080  142.0990 O   0  0  0  0  0  0  0  0  0  0  0  0
  184.9390  178.8540  143.8140 C   0  0  2  0  0  3  0  0  0  0  0  0
  186.7440  177.1990  144.3220 C   0  0  0  0  0  3  0  0  0  0  0  0
  187.8870  177.4900  144.9670 C   0  0  0  0  0  0  0  0  0  0  0  0
  185.3890  177.7170  144.7490 C   0  0  1  0  0  3  0  0  0  0  0  0
  185.4170  178.1740  146.1890 C   0  0  0  0  0  0  0  0  0  0  0  0
  184.3480  178.2470  146.8490 O   0  0  0  0  0  0  0  0  0  0  0  0
  187.8410  178.2610  146.2300 C   0  0  0  0  0  3  0  0  0  0  0  0
  186.6840  178.5710  146.8150 C   0  0  0  0  0  3  0  0  0  0  0  0
  189.1870  177.0050  144.4440 C   0  0  0  0  0  0  0  0  0  0  0  0
  189.2430  176.2420  143.2690 C   0  0  0  0  0  3  0  0  0  0  0  0
  191.6060  176.0700  143.4290 C   0  0  0  0  0  3  0  0  0  0  0  0
  191.6040  176.8250  144.6010 C   0  0  0  0  0  3  0  0  0  0  0  0
  190.4370  175.7950  142.7920 N   0  0  0  0  0  0  0  0  0  0  0  0
  190.3900  177.2920  145.1060 C   0  0  0  0  0  3  0  0  0  0  0  0
  184.5420  177.8230  141.5040 C   0  0  0  0  0  2  0  0  0  0  0  0
  186.1310  179.5380  141.2560 O   0  0  0  0  0  0  0  0  0  0  0  0
  185.2440  178.8890  140.7250 C   0  0  0  0  0  0  0  0  0  0  0  0
  184.8580  179.1390  139.2980 C   0  0  2  0  0  3  0  0  0  0  0  0
  183.4300  179.6400  139.1550 C   0  0  0  0  0  1  0  0  0  0  0  0
  185.1910  177.9890  138.3430 C   0  0  0  0  0  2  0  0  0  0  0  0
  187.3010  179.4030  136.9710 O   0  0  0  0  0  1  0  0  0  0  0  0
  186.9220  177.9570  137.7590 P   0  0  0  0  0  0  0  0  0  0  0  0
  187.0840  176.8130  136.7850 O   0  0  0  0  0  0  0  0  0  0  0  0
  187.9820  177.7300  139.0580 O   0  0  0  0  0  1  0  0  0  0  0  0
  2  3  1  0  0  0  0
  2  6  1  0  0  0  0
  3  4  1  0  0  0  0
  4  1  2  0  0  0  0
  5  3  2  0  0  0  0
  6  1  1  1  0  0  0
  6  9  1  0  0  0  0
  7  8  2  0  0  0  0
  8 12  1  0  0  0  0
  9  7  1  6  0  0  0
  9 10  1  0  0  0  0
 10 13  1  0  0  0  0
 10 11  2  0  0  0  0
 12 13  2  0  0  0  0
 14  8  1  0  0  0  0
 14 19  1  0  0  0  0
 15 14  2  0  0  0  0
 16 17  1  0  0  0  0
 17 19  2  0  0  0  0
 18 15  1  0  0  0  0
 18 16  2  0  0  0  0
 20  2  1  0  0  0  0
 22 21  2  0  0  0  0
 22 20  1  0  0  0  0
 23 24  1  1  0  0  0
 23 22  1  0  0  0  0
 25 23  1  0  0  0  0
 26 27  1  0  0  0  0
 27 25  1  0  0  0  0
 27 29  1  0  0  0  0
 28 27  2  0  0  0  0
M  END
>  <MODEL>
8

>  <REMARK>
 VINA RESULT:      -8.0      2.614      4.374
  Name = 
  7 active torsions:
  status: ('A' for Active; 'I' for Inactive)
    1  A    between atoms: C_2  and  C_10
    2  A    between atoms: C_3  and  C_8
    3  A    between atoms: C_3  and  C_24
    4  A    between atoms: P_7  and  C_8
    5  A    between atoms: N_9  and  C_18
    6  A    between atoms: C_18  and  C_24
    7  A    between atoms: C_19  and  C_29
                            x       y       z     vdW  Elec       q    Type
                         _______ _______ _______ _____ _____    ______ ____

>  <TORSDO>
F 7

$$$$
=
 OpenBabel10222422103D

 29 31  0  0  1  0  0  0  0  0999 V2000
  191.5770  176.3080  144.0930 C   0  0  0  0  0  3  0  0  0  0  0  0
  189.8970  177.0550  142.5570 N   0  0  0  0  0  0  0  0  0  0  0  0
  191.1620  176.9660  141.9310 C   0  0  0  0  0  0  0  0  0  0  0  0
  192.1920  176.5570  142.7980 N   0  0  0  0  0  0  0  0  0  0  0  0
  191.3510  177.1900  140.7060 O   0  0  0  0  0  0  0  0  0  0  0  0
  190.0720  176.6390  143.9460 C   0  0  2  0  0  3  0  0  0  0  0  0
  188.2270  178.1720  144.6520 C   0  0  0  0  0  3  0  0  0  0  0  0
  187.1950  177.8150  145.4370 C   0  0  0  0  0  0  0  0  0  0  0  0
  189.6570  177.7600  144.9160 C   0  0  1  0  0  3  0  0  0  0  0  0
  189.8390  177.3320  146.3540 C   0  0  0  0  0  0  0  0  0  0  0  0
  190.9830  177.3490  146.8780 O   0  0  0  0  0  0  0  0  0  0  0  0
  187.4510  177.0760  146.6940 C   0  0  0  0  0  3  0  0  0  0  0  0
  188.6890  176.8610  147.1350 C   0  0  0  0  0  3  0  0  0  0  0  0
  185.8100  178.1960  145.0720 C   0  0  0  0  0  0  0  0  0  0  0  0
  184.8550  178.4530  146.0660 C   0  0  0  0  0  3  0  0  0  0  0  0
  183.1940  178.9100  144.4320 C   0  0  0  0  0  3  0  0  0  0  0  0
  184.1070  178.6650  143.4050 C   0  0  0  0  0  3  0  0  0  0  0  0
  183.5820  178.8000  145.7290 N   0  0  0  0  0  0  0  0  0  0  0  0
  185.4160  178.3080  143.7300 C   0  0  0  0  0  3  0  0  0  0  0  0
  188.6380  176.8890  141.8390 C   0  0  0  0  0  2  0  0  0  0  0  0
  188.2250  179.1730  141.4670 O   0  0  0  0  0  0  0  0  0  0  0  0
  188.3720  178.0710  140.9640 C   0  0  0  0  0  0  0  0  0  0  0  0
  188.3000  177.8890  139.4770 C   0  0  2  0  0  3  0  0  0  0  0  0
  189.3540  178.6960  138.7350 C   0  0  0  0  0  1  0  0  0  0  0  0
  186.8950  178.0500  138.8890 C   0  0  0  0  0  2  0  0  0  0  0  0
  185.0420  176.4170  137.3950 O   0  0  0  0  0  1  0  0  0  0  0  0
  186.5900  177.0940  137.3620 P   0  0  0  0  0  0  0  0  0  0  0  0
  187.6080  175.9800  137.2760 O   0  0  0  0  0  1  0  0  0  0  0  0
  186.7420  178.0870  136.0010 O   0  0  0  0  0  0  0  0  0  0  0  0
  2  6  1  0  0  0  0
  3  2  1  0  0  0  0
  3  4  1  0  0  0  0
  4  1  2  0  0  0  0
  5  3  2  0  0  0  0
  6  1  1  6  0  0  0
  6  9  1  0  0  0  0
  7  8  2  0  0  0  0
  8 12  1  0  0  0  0
  9  7  1  1  0  0  0
  9 10  1  0  0  0  0
 10 11  2  0  0  0  0
 10 13  1  0  0  0  0
 12 13  2  0  0  0  0
 14  8  1  0  0  0  0
 14 15  1  0  0  0  0
 16 18  1  0  0  0  0
 17 19  1  0  0  0  0
 17 16  2  0  0  0  0
 18 15  2  0  0  0  0
 19 14  2  0  0  0  0
 20  2  1  0  0  0  0
 22 21  2  0  0  0  0
 22 20  1  0  0  0  0
 23 24  1  6  0  0  0
 23 22  1  0  0  0  0
 25 23  1  0  0  0  0
 27 26  1  0  0  0  0
 27 25  1  0  0  0  0
 28 27  1  0  0  0  0
 29 27  2  0  0  0  0
M  END
>  <MODEL>
9

>  <REMARK>
 VINA RESULT:      -8.0      2.563      5.049
  Name = 
  7 active torsions:
  status: ('A' for Active; 'I' for Inactive)
    1  A    between atoms: C_2  and  C_10
    2  A    between atoms: C_3  and  C_8
    3  A    between atoms: C_3  and  C_24
    4  A    between atoms: P_7  and  C_8
    5  A    between atoms: N_9  and  C_18
    6  A    between atoms: C_18  and  C_24
    7  A    between atoms: C_19  and  C_29
                            x       y       z     vdW  Elec       q    Type
                         _______ _______ _______ _____ _____    ______ ____

>  <TORSDO>
F 7

$$$$
