=
 OpenBabel10232408163D

 32 37  0  0  1  0  0  0  0  0999 V2000
  189.5640  176.9360  146.9950 C   0  0  0  0  0  3  0  0  0  0  0  0
  188.8260  177.9650  141.5090 C   0  0  0  0  0  0  0  0  0  0  0  0
  189.0510  177.7000  142.8710 C   0  0  0  0  0  0  0  0  0  0  0  0
  185.5130  178.3230  144.1770 C   0  0  0  0  0  0  0  0  0  0  0  0
  190.8260  176.5670  147.4600 C   0  0  0  0  0  3  0  0  0  0  0  0
  191.8670  176.4580  146.5930 N   0  0  0  0  0  0  0  0  0  0  0  0
  191.4100  177.2010  142.5290 O   0  0  0  0  0  1  0  0  0  0  0  0
  184.3410  178.6680  143.7290 N   0  0  0  0  0  2  0  0  0  0  0  0
  190.4680  177.0740  144.7480 C   0  0  0  0  0  0  0  0  0  0  0  0
  188.8630  178.2930  139.3540 C   0  0  0  0  0  0  0  0  0  0  0  0
  190.3120  177.3250  143.3770 C   0  0  0  0  0  0  0  0  0  0  0  0
  186.6600  178.2010  143.2480 C   0  0  0  0  0  0  0  0  0  0  0  0
  187.5900  178.3280  141.0410 C   0  0  0  0  0  0  0  0  0  0  0  0
  185.7400  178.0500  145.6090 C   0  0  0  0  0  3  0  0  0  0  0  0
  186.4880  178.4560  141.8740 C   0  0  0  0  0  3  0  0  0  0  0  0
  189.6830  177.9340  140.4230 C   0  0  0  0  0  3  0  0  0  0  0  0
  186.9480  177.6980  146.0530 C   0  0  0  0  0  3  0  0  0  0  0  0
  188.1050  177.5690  145.1350 C   0  0  0  0  0  0  0  0  0  0  0  0
  187.9390  177.8230  143.7540 C   0  0  1  0  0  3  0  0  0  0  0  0
  187.6250  178.5210  139.7490 O   0  0  0  0  0  0  0  0  0  0  0  0
  191.7150  176.7010  145.2640 C   0  0  0  0  0  3  0  0  0  0  0  0
  189.3700  177.1950  145.6310 C   0  0  0  0  0  0  0  0  0  0  0  0
  189.3000  178.4090  137.9600 C   0  0  0  0  0  0  0  0  0  0  0  0
  190.0410  177.3580  137.3470 N   0  0  0  0  0  1  0  0  0  0  0  0
  189.0200  179.4410  137.2960 O   0  0  0  0  0  0  0  0  0  0  0  0
  183.1510  178.8020  144.5620 C   0  0  0  0  0  2  0  0  0  0  0  0
  182.0880  179.6010  143.8280 C   0  0  0  0  0  2  0  0  0  0  0  0
  180.8350  178.2920  141.9900 C   0  0  2  0  0  3  0  0  0  0  0  0
  179.9820  179.4200  142.5330 C   0  0  0  0  0  2  0  0  0  0  0  0
  180.9210  178.6900  143.4710 C   0  0  2  0  0  3  0  0  0  0  0  0
  182.6350  177.7410  140.3730 C   0  0  0  0  0  1  0  0  0  0  0  0
  181.9300  178.8670  141.1010 C   0  0  0  0  0  2  0  0  0  0  0  0
  1  5  1  0  0  0  0
  2  3  1  0  0  0  0
  3 11  2  0  0  0  0
  4 14  2  0  0  0  0
  6  5  2  0  0  0  0
  7 11  1  0  0  0  0
  8  4  1  0  0  0  0
  8 26  1  0  0  0  0
  9 21  2  0  0  0  0
  9 22  1  0  0  0  0
 10 20  1  0  0  0  0
 10 16  2  0  0  0  0
 11  9  1  0  0  0  0
 12 19  1  0  0  0  0
 12  4  1  0  0  0  0
 13  2  2  0  0  0  0
 13 15  1  0  0  0  0
 14 17  1  0  0  0  0
 15 12  2  0  0  0  0
 16  2  1  0  0  0  0
 18 22  1  0  0  0  0
 18 17  2  0  0  0  0
 19  3  1  6  0  0  0
 19 18  1  0  0  0  0
 20 13  1  0  0  0  0
 21  6  1  0  0  0  0
 22  1  2  0  0  0  0
 23 10  1  0  0  0  0
 24 23  1  0  0  0  0
 25 23  2  0  0  0  0
 27 26  1  0  0  0  0
 28 32  1  6  0  0  0
 28 29  1  0  0  0  0
 28 30  1  0  0  0  0
 29 30  1  0  0  0  0
 30 27  1  6  0  0  0
 31 32  1  0  0  0  0
M  END
>  <MODEL>
1

>  <REMARK>
 VINA RESULT:     -10.8      0.000      0.000
  Name = 
  5 active torsions:
  status: ('A' for Active; 'I' for Inactive)
    1  A    between atoms: C_2  and  C_16
    2  A    between atoms: C_3  and  C_29
    3  A    between atoms: C_12  and  C_28
    4  A    between atoms: N_13  and  C_17
    5  A    between atoms: C_17  and  C_28
                            x       y       z     vdW  Elec       q    Type
                         _______ _______ _______ _____ _____    ______ ____

>  <TORSDO>
F 5

$$$$
=
 OpenBabel10232408163D

 32 37  0  0  1  0  0  0  0  0999 V2000
  189.3750  177.6210  146.4580 C   0  0  0  0  0  3  0  0  0  0  0  0
  184.4060  178.5650  143.9840 C   0  0  0  0  0  0  0  0  0  0  0  0
  185.6270  178.3310  144.6400 C   0  0  0  0  0  0  0  0  0  0  0  0
  187.8960  178.0920  141.5730 C   0  0  0  0  0  0  0  0  0  0  0  0
  189.4450  177.5470  147.8490 C   0  0  0  0  0  3  0  0  0  0  0  0
  188.3220  177.7010  148.5980 N   0  0  0  0  0  0  0  0  0  0  0  0
  184.6140  178.4010  146.8530 O   0  0  0  0  0  1  0  0  0  0  0  0
  187.8160  178.1640  140.2760 N   0  0  0  0  0  0  0  0  0  0  0  0
  186.9880  178.0140  146.6330 C   0  0  0  0  0  0  0  0  0  0  0  0
  182.3590  178.9380  143.3340 C   0  0  0  0  0  0  0  0  0  0  0  0
  185.7370  178.2490  146.0420 C   0  0  0  0  0  0  0  0  0  0  0  0
  186.6830  178.2560  142.4060 C   0  0  0  0  0  0  0  0  0  0  0  0
  184.3250  178.6410  142.6190 C   0  0  0  0  0  0  0  0  0  0  0  0
  189.1830  177.8430  142.2520 C   0  0  0  0  0  3  0  0  0  0  0  0
  185.4350  178.4920  141.7990 C   0  0  0  0  0  3  0  0  0  0  0  0
  183.1290  178.7560  144.4820 C   0  0  0  0  0  3  0  0  0  0  0  0
  189.2490  177.7710  143.5810 C   0  0  0  0  0  3  0  0  0  0  0  0
  188.0440  177.9360  144.4300 C   0  0  0  0  0  0  0  0  0  0  0  0
  186.7870  178.1740  143.8260 C   0  0  0  0  0  0  0  0  0  0  0  0
  183.0950  178.8640  142.2420 O   0  0  0  0  0  0  0  0  0  0  0  0
  187.1110  177.9310  148.0250 C   0  0  0  0  0  3  0  0  0  0  0  0
  188.1420  177.8550  145.8320 C   0  0  0  0  0  0  0  0  0  0  0  0
  180.9130  179.1800  143.3210 C   0  0  0  0  0  0  0  0  0  0  0  0
  180.0100  178.1810  143.7830 N   0  0  0  0  0  1  0  0  0  0  0  0
  180.4640  180.2780  142.9000 O   0  0  0  0  0  0  0  0  0  0  0  0
  188.9540  178.0280  139.3740 C   0  0  0  0  0  2  0  0  0  0  0  0
  188.5310  177.3150  138.1030 C   0  0  0  0  0  2  0  0  0  0  0  0
  186.6290  178.3180  136.6760 C   0  0  2  0  0  3  0  0  0  0  0  0
  187.6540  177.6220  135.8040 C   0  0  0  0  0  2  0  0  0  0  0  0
  188.1160  178.3400  137.0560 C   0  0  2  0  0  3  0  0  0  0  0  0
  184.6590  177.9620  138.1410 C   0  0  0  0  0  1  0  0  0  0  0  0
  185.7900  177.2760  137.4040 C   0  0  0  0  0  2  0  0  0  0  0  0
  1  5  1  0  0  0  0
  2 16  1  0  0  0  0
  2  3  1  0  0  0  0
  3 11  2  0  0  0  0
  4 14  1  0  0  0  0
  4 12  1  0  0  0  0
  5  6  2  0  0  0  0
  8  4  2  0  0  0  0
  9 21  2  0  0  0  0
 10 16  2  0  0  0  0
 11  9  1  0  0  0  0
 11  7  1  0  0  0  0
 12 19  1  0  0  0  0
 13  2  2  0  0  0  0
 14 17  2  0  0  0  0
 15 12  2  0  0  0  0
 15 13  1  0  0  0  0
 17 18  1  0  0  0  0
 18 22  1  0  0  0  0
 19 18  2  0  0  0  0
 19  3  1  0  0  0  0
 20 13  1  0  0  0  0
 20 10  1  0  0  0  0
 21  6  1  0  0  0  0
 22  1  2  0  0  0  0
 22  9  1  0  0  0  0
 23 10  1  0  0  0  0
 23 24  1  0  0  0  0
 25 23  2  0  0  0  0
 26  8  1  0  0  0  0
 27 26  1  0  0  0  0
 28 30  1  0  0  0  0
 28 32  1  1  0  0  0
 29 28  1  0  0  0  0
 29 30  1  0  0  0  0
 30 27  1  1  0  0  0
 32 31  1  0  0  0  0
M  END
>  <MODEL>
2

>  <REMARK>
 VINA RESULT:     -10.7      2.868      6.205
  Name = 
  5 active torsions:
  status: ('A' for Active; 'I' for Inactive)
    1  A    between atoms: C_2  and  C_16
    2  A    between atoms: C_3  and  C_29
    3  A    between atoms: C_12  and  C_28
    4  A    between atoms: N_13  and  C_17
    5  A    between atoms: C_17  and  C_28
                            x       y       z     vdW  Elec       q    Type
                         _______ _______ _______ _____ _____    ______ ____

>  <TORSDO>
F 5

$$$$
=
 OpenBabel10232408163D

 32 37  0  0  1  0  0  0  0  0999 V2000
  184.6970  178.7330  143.6990 C   0  0  0  0  0  3  0  0  0  0  0  0
  189.6600  177.1700  145.8500 C   0  0  0  0  0  0  0  0  0  0  0  0
  188.4050  177.5620  145.3530 C   0  0  0  0  0  0  0  0  0  0  0  0
  189.2340  177.5610  141.6210 C   0  0  0  0  0  0  0  0  0  0  0  0
  183.6260  178.9840  144.5570 C   0  0  0  0  0  3  0  0  0  0  0  0
  183.7830  178.8530  145.9000 N   0  0  0  0  0  0  0  0  0  0  0  0
  187.4120  177.7040  147.5720 O   0  0  0  0  0  1  0  0  0  0  0  0
  190.2410  177.3230  140.8320 N   0  0  0  0  0  0  0  0  0  0  0  0
  186.0760  178.2120  145.6260 C   0  0  0  0  0  0  0  0  0  0  0  0
  191.4330  176.5890  146.9780 C   0  0  0  0  0  0  0  0  0  0  0  0
  187.3010  177.8250  146.1880 C   0  0  0  0  0  0  0  0  0  0  0  0
  189.3860  177.4260  143.0880 C   0  0  0  0  0  0  0  0  0  0  0  0
  190.7190  176.9190  145.0170 C   0  0  0  0  0  0  0  0  0  0  0  0
  187.9210  177.9760  141.0890 C   0  0  0  0  0  3  0  0  0  0  0  0
  190.6220  177.0360  143.6370 C   0  0  0  0  0  3  0  0  0  0  0  0
  190.0990  176.9610  147.1460 C   0  0  0  0  0  3  0  0  0  0  0  0
  186.8990  178.2170  141.9100 C   0  0  0  0  0  3  0  0  0  0  0  0
  187.0340  178.0830  143.3810 C   0  0  0  0  0  0  0  0  0  0  0  0
  188.2730  177.6900  143.9390 C   0  0  0  0  0  0  0  0  0  0  0  0
  191.7740  176.5720  145.7040 O   0  0  0  0  0  0  0  0  0  0  0  0
  184.9710  178.4770  146.4450 C   0  0  0  0  0  3  0  0  0  0  0  0
  185.9370  178.3430  144.2250 C   0  0  0  0  0  0  0  0  0  0  0  0
  192.3560  176.2540  148.0670 C   0  0  0  0  0  0  0  0  0  0  0  0
  192.6680  177.2160  149.0680 N   0  0  0  0  0  1  0  0  0  0  0  0
  192.8760  175.1090  148.1200 O   0  0  0  0  0  0  0  0  0  0  0  0
  190.1860  177.4180  139.3780 C   0  0  0  0  0  2  0  0  0  0  0  0
  191.4290  176.7970  138.7660 C   0  0  0  0  0  2  0  0  0  0  0  0
  192.2490  174.6950  137.5130 C   0  0  2  0  0  3  0  0  0  0  0  0
  191.3790  175.5570  136.6200 C   0  0  0  0  0  2  0  0  0  0  0  0
  191.0650  175.4770  138.1000 C   0  0  2  0  0  3  0  0  0  0  0  0
  194.6530  174.2990  137.9820 C   0  0  0  0  0  1  0  0  0  0  0  0
  193.6100  175.3570  137.6860 C   0  0  0  0  0  2  0  0  0  0  0  0
  1 22  2  0  0  0  0
  1  5  1  0  0  0  0
  2 16  1  0  0  0  0
  3  2  1  0  0  0  0
  3 11  2  0  0  0  0
  4 12  1  0  0  0  0
  5  6  2  0  0  0  0
  6 21  1  0  0  0  0
  8  4  2  0  0  0  0
  9 11  1  0  0  0  0
  9 21  2  0  0  0  0
 10 16  2  0  0  0  0
 10 23  1  0  0  0  0
 11  7  1  0  0  0  0
 12 15  2  0  0  0  0
 12 19  1  0  0  0  0
 13 20  1  0  0  0  0
 13  2  2  0  0  0  0
 14  4  1  0  0  0  0
 14 17  2  0  0  0  0
 15 13  1  0  0  0  0
 17 18  1  0  0  0  0
 18 19  2  0  0  0  0
 18 22  1  0  0  0  0
 19  3  1  0  0  0  0
 20 10  1  0  0  0  0
 22  9  1  0  0  0  0
 23 25  2  0  0  0  0
 23 24  1  0  0  0  0
 26  8  1  0  0  0  0
 27 26  1  0  0  0  0
 28 32  1  1  0  0  0
 28 30  1  0  0  0  0
 29 28  1  0  0  0  0
 29 30  1  0  0  0  0
 30 27  1  1  0  0  0
 32 31  1  0  0  0  0
M  END
>  <MODEL>
3

>  <REMARK>
 VINA RESULT:     -10.6      2.883      8.114
  Name = 
  5 active torsions:
  status: ('A' for Active; 'I' for Inactive)
    1  A    between atoms: C_2  and  C_16
    2  A    between atoms: C_3  and  C_29
    3  A    between atoms: C_12  and  C_28
    4  A    between atoms: N_13  and  C_17
    5  A    between atoms: C_17  and  C_28
                            x       y       z     vdW  Elec       q    Type
                         _______ _______ _______ _____ _____    ______ ____

>  <TORSDO>
F 5

$$$$
=
 OpenBabel10232408163D

 32 37  0  0  1  0  0  0  0  0999 V2000
  187.6220  177.6570  147.4200 C   0  0  0  0  0  3  0  0  0  0  0  0
  187.9490  178.1210  141.8190 C   0  0  0  0  0  0  0  0  0  0  0  0
  187.9090  177.9970  143.2180 C   0  0  0  0  0  0  0  0  0  0  0  0
  184.1890  178.6880  143.7560 C   0  0  0  0  0  0  0  0  0  0  0  0
  188.7710  177.3570  148.1520 C   0  0  0  0  0  3  0  0  0  0  0  0
  189.9580  177.1800  147.5150 N   0  0  0  0  0  0  0  0  0  0  0  0
  190.2890  177.5050  143.3840 O   0  0  0  0  0  1  0  0  0  0  0  0
  183.1240  178.9660  143.0620 N   0  0  0  0  0  0  0  0  0  0  0  0
  188.9390  177.5850  145.3850 C   0  0  0  0  0  0  0  0  0  0  0  0
  188.3990  178.2330  139.6880 C   0  0  0  0  0  0  0  0  0  0  0  0
  189.0490  177.6960  143.9910 C   0  0  0  0  0  0  0  0  0  0  0  0
  185.4920  178.4930  143.0810 C   0  0  0  0  0  0  0  0  0  0  0  0
  186.8270  178.4140  141.0890 C   0  0  0  0  0  0  0  0  0  0  0  0
  184.1370  178.5620  145.2270 C   0  0  0  0  0  3  0  0  0  0  0  0
  185.5860  178.6070  141.6810 C   0  0  0  0  0  3  0  0  0  0  0  0
  188.9990  177.9960  140.9250 C   0  0  0  0  0  3  0  0  0  0  0  0
  185.2360  178.2770  145.9250 C   0  0  0  0  0  3  0  0  0  0  0  0
  186.5480  178.0760  145.2620 C   0  0  0  0  0  0  0  0  0  0  0  0
  186.6490  178.1880  143.8560 C   0  0  0  0  0  0  0  0  0  0  0  0
  187.1090  178.4780  139.8160 O   0  0  0  0  0  0  0  0  0  0  0  0
  190.0640  177.2870  146.1640 C   0  0  0  0  0  3  0  0  0  0  0  0
  187.6930  177.7750  146.0250 C   0  0  0  0  0  0  0  0  0  0  0  0
  189.0950  178.2150  138.3990 C   0  0  0  0  0  0  0  0  0  0  0  0
  188.9530  179.3010  137.4880 N   0  0  0  0  0  1  0  0  0  0  0  0
  189.8250  177.2370  138.0910 O   0  0  0  0  0  0  0  0  0  0  0  0
  181.7980  179.1630  143.6340 C   0  0  0  0  0  2  0  0  0  0  0  0
  180.7330  178.9290  142.5780 C   0  0  0  0  0  2  0  0  0  0  0  0
  180.9940  179.1630  140.0210 C   0  0  2  0  0  3  0  0  0  0  0  0
  180.3160  177.8560  140.3820 C   0  0  0  0  0  2  0  0  0  0  0  0
  181.3840  178.4120  141.3020 C   0  0  2  0  0  3  0  0  0  0  0  0
  180.3170  181.4110  139.2190 C   0  0  0  0  0  1  0  0  0  0  0  0
  180.0150  180.3130  140.2170 C   0  0  0  0  0  2  0  0  0  0  0  0
  1  5  1  0  0  0  0
  2  3  1  0  0  0  0
  3 19  1  0  0  0  0
  3 11  2  0  0  0  0
  4 14  1  0  0  0  0
  6  5  2  0  0  0  0
  7 11  1  0  0  0  0
  8 26  1  0  0  0  0
  8  4  2  0  0  0  0
  9 22  1  0  0  0  0
  9 21  2  0  0  0  0
 10 20  1  0  0  0  0
 10 16  2  0  0  0  0
 11  9  1  0  0  0  0
 12  4  1  0  0  0  0
 12 19  1  0  0  0  0
 13 15  1  0  0  0  0
 13  2  2  0  0  0  0
 14 17  2  0  0  0  0
 15 12  2  0  0  0  0
 16  2  1  0  0  0  0
 18 17  1  0  0  0  0
 18 22  1  0  0  0  0
 19 18  2  0  0  0  0
 20 13  1  0  0  0  0
 21  6  1  0  0  0  0
 22  1  2  0  0  0  0
 23 10  1  0  0  0  0
 24 23  1  0  0  0  0
 25 23  2  0  0  0  0
 27 26  1  0  0  0  0
 28 32  1  1  0  0  0
 28 29  1  0  0  0  0
 28 30  1  0  0  0  0
 29 30  1  0  0  0  0
 30 27  1  1  0  0  0
 31 32  1  0  0  0  0
M  END
>  <MODEL>
4

>  <REMARK>
 VINA RESULT:     -10.5      1.404      1.873
  Name = 
  5 active torsions:
  status: ('A' for Active; 'I' for Inactive)
    1  A    between atoms: C_2  and  C_16
    2  A    between atoms: C_3  and  C_29
    3  A    between atoms: C_12  and  C_28
    4  A    between atoms: N_13  and  C_17
    5  A    between atoms: C_17  and  C_28
                            x       y       z     vdW  Elec       q    Type
                         _______ _______ _______ _____ _____    ______ ____

>  <TORSDO>
F 5

$$$$
=
 OpenBabel10232408163D

 32 37  0  0  1  0  0  0  0  0999 V2000
  189.3580  177.6600  146.4400 C   0  0  0  0  0  3  0  0  0  0  0  0
  184.3750  178.6060  143.9960 C   0  0  0  0  0  0  0  0  0  0  0  0
  185.6000  178.3710  144.6440 C   0  0  0  0  0  0  0  0  0  0  0  0
  187.8560  178.1660  141.5660 C   0  0  0  0  0  0  0  0  0  0  0  0
  189.4350  177.5750  147.8310 C   0  0  0  0  0  3  0  0  0  0  0  0
  188.3140  177.7180  148.5860 N   0  0  0  0  0  0  0  0  0  0  0  0
  184.5960  178.4180  146.8630 O   0  0  0  0  0  1  0  0  0  0  0  0
  187.7710  178.2490  140.2700 N   0  0  0  0  0  0  0  0  0  0  0  0
  186.9700  178.0420  146.6290 C   0  0  0  0  0  0  0  0  0  0  0  0
  182.3240  178.9760  143.3580 C   0  0  0  0  0  0  0  0  0  0  0  0
  185.7170  178.2780  146.0450 C   0  0  0  0  0  0  0  0  0  0  0  0
  186.6460  178.3180  142.4050 C   0  0  0  0  0  0  0  0  0  0  0  0
  184.2880  178.6930  142.6310 C   0  0  0  0  0  0  0  0  0  0  0  0
  189.1470  177.9160  142.2370 C   0  0  0  0  0  3  0  0  0  0  0  0
  185.3950  178.5550  141.8060 C   0  0  0  0  0  3  0  0  0  0  0  0
  183.0990  178.7880  144.5010 C   0  0  0  0  0  3  0  0  0  0  0  0
  189.2190  177.8330  143.5660 C   0  0  0  0  0  3  0  0  0  0  0  0
  188.0170  177.9860  144.4200 C   0  0  0  0  0  0  0  0  0  0  0  0
  186.7570  178.2250  143.8240 C   0  0  0  0  0  0  0  0  0  0  0  0
  183.0550  178.9140  142.2620 O   0  0  0  0  0  0  0  0  0  0  0  0
  187.0990  177.9470  148.0200 C   0  0  0  0  0  3  0  0  0  0  0  0
  188.1220  177.8950  145.8220 C   0  0  0  0  0  0  0  0  0  0  0  0
  180.8770  179.2130  143.3530 C   0  0  0  0  0  0  0  0  0  0  0  0
  179.9840  178.2290  143.8650 N   0  0  0  0  0  1  0  0  0  0  0  0
  180.4180  180.2910  142.8950 O   0  0  0  0  0  0  0  0  0  0  0  0
  188.9050  178.1250  139.3620 C   0  0  0  0  0  2  0  0  0  0  0  0
  188.5920  177.1190  138.2690 C   0  0  0  0  0  2  0  0  0  0  0  0
  187.0260  177.0270  136.2190 C   0  0  2  0  0  3  0  0  0  0  0  0
  187.3160  178.4600  136.6190 C   0  0  0  0  0  2  0  0  0  0  0  0
  187.2090  177.4010  137.6970 C   0  0  2  0  0  3  0  0  0  0  0  0
  188.6360  177.2720  134.3470 C   0  0  0  0  0  1  0  0  0  0  0  0
  188.2550  176.4290  135.5460 C   0  0  0  0  0  2  0  0  0  0  0  0
  1  5  1  0  0  0  0
  2 16  1  0  0  0  0
  2  3  1  0  0  0  0
  3 11  2  0  0  0  0
  4 14  1  0  0  0  0
  4 12  1  0  0  0  0
  5  6  2  0  0  0  0
  8  4  2  0  0  0  0
  9 21  2  0  0  0  0
 10 16  2  0  0  0  0
 11  9  1  0  0  0  0
 11  7  1  0  0  0  0
 12 19  1  0  0  0  0
 13  2  2  0  0  0  0
 14 17  2  0  0  0  0
 15 12  2  0  0  0  0
 15 13  1  0  0  0  0
 17 18  1  0  0  0  0
 18 22  1  0  0  0  0
 19 18  2  0  0  0  0
 19  3  1  0  0  0  0
 20 13  1  0  0  0  0
 20 10  1  0  0  0  0
 21  6  1  0  0  0  0
 22  1  2  0  0  0  0
 22  9  1  0  0  0  0
 23 10  1  0  0  0  0
 23 24  1  0  0  0  0
 25 23  2  0  0  0  0
 26  8  1  0  0  0  0
 27 26  1  0  0  0  0
 28 32  1  6  0  0  0
 28 29  1  0  0  0  0
 28 30  1  0  0  0  0
 29 30  1  0  0  0  0
 30 27  1  6  0  0  0
 31 32  1  0  0  0  0
M  END
>  <MODEL>
5

>  <REMARK>
 VINA RESULT:     -10.5      2.909      6.429
  Name = 
  5 active torsions:
  status: ('A' for Active; 'I' for Inactive)
    1  A    between atoms: C_2  and  C_16
    2  A    between atoms: C_3  and  C_29
    3  A    between atoms: C_12  and  C_28
    4  A    between atoms: N_13  and  C_17
    5  A    between atoms: C_17  and  C_28
                            x       y       z     vdW  Elec       q    Type
                         _______ _______ _______ _____ _____    ______ ____

>  <TORSDO>
F 5

$$$$
=
 OpenBabel10232408163D

 32 37  0  0  1  0  0  0  0  0999 V2000
  184.4780  178.8510  143.6930 C   0  0  0  0  0  3  0  0  0  0  0  0
  189.5360  177.2420  145.5690 C   0  0  0  0  0  0  0  0  0  0  0  0
  188.2590  177.6440  145.1410 C   0  0  0  0  0  0  0  0  0  0  0  0
  188.9370  177.8230  141.3830 C   0  0  0  0  0  0  0  0  0  0  0  0
  183.4400  179.0520  144.6040 C   0  0  0  0  0  3  0  0  0  0  0  0
  183.6530  178.8610  145.9320 N   0  0  0  0  0  0  0  0  0  0  0  0
  187.3550  177.6740  147.4020 O   0  0  0  0  0  1  0  0  0  0  0  0
  189.9130  177.6320  140.5440 N   0  0  0  0  0  0  0  0  0  0  0  0
  185.9370  178.2570  145.5370 C   0  0  0  0  0  0  0  0  0  0  0  0
  191.3580  176.6280  146.5970 C   0  0  0  0  0  0  0  0  0  0  0  0
  187.1880  177.8570  146.0310 C   0  0  0  0  0  0  0  0  0  0  0  0
  189.1490  177.6220  142.8350 C   0  0  0  0  0  0  0  0  0  0  0  0
  190.5620  177.0410  144.6840 C   0  0  0  0  0  0  0  0  0  0  0  0
  187.6000  178.2480  140.9240 C   0  0  0  0  0  3  0  0  0  0  0  0
  190.4090  177.2200  143.3160 C   0  0  0  0  0  3  0  0  0  0  0  0
  190.0290  176.9790  146.8350 C   0  0  0  0  0  3  0  0  0  0  0  0
  186.6090  178.4410  141.7950 C   0  0  0  0  0  3  0  0  0  0  0  0
  186.8050  178.2400  143.2520 C   0  0  0  0  0  0  0  0  0  0  0  0
  188.0690  177.8360  143.7410 C   0  0  0  0  0  0  0  0  0  0  0  0
  191.6470  176.6730  145.3110 O   0  0  0  0  0  0  0  0  0  0  0  0
  184.8640  178.4720  146.4100 C   0  0  0  0  0  3  0  0  0  0  0  0
  185.7410  178.4510  144.1500 C   0  0  0  0  0  0  0  0  0  0  0  0
  192.3270  176.2530  147.6320 C   0  0  0  0  0  0  0  0  0  0  0  0
  192.5130  177.0780  148.7770 N   0  0  0  0  0  1  0  0  0  0  0  0
  192.9990  175.1970  147.5100 O   0  0  0  0  0  0  0  0  0  0  0  0
  189.7980  177.7930  139.1000 C   0  0  0  0  0  2  0  0  0  0  0  0
  189.7090  176.4340  138.4280 C   0  0  0  0  0  2  0  0  0  0  0  0
  188.1810  176.0070  136.3920 C   0  0  2  0  0  3  0  0  0  0  0  0
  187.9040  177.3640  137.0060 C   0  0  0  0  0  2  0  0  0  0  0  0
  188.2940  176.2130  137.9100 C   0  0  2  0  0  3  0  0  0  0  0  0
  189.5160  177.2590  134.7180 C   0  0  0  0  0  1  0  0  0  0  0  0
  189.5010  176.0530  135.6330 C   0  0  0  0  0  2  0  0  0  0  0  0
  1 22  2  0  0  0  0
  1  5  1  0  0  0  0
  2 16  1  0  0  0  0
  3  2  1  0  0  0  0
  3 11  2  0  0  0  0
  4 12  1  0  0  0  0
  5  6  2  0  0  0  0
  6 21  1  0  0  0  0
  8  4  2  0  0  0  0
  9 11  1  0  0  0  0
  9 21  2  0  0  0  0
 10 16  2  0  0  0  0
 10 23  1  0  0  0  0
 11  7  1  0  0  0  0
 12 15  2  0  0  0  0
 12 19  1  0  0  0  0
 13 20  1  0  0  0  0
 13  2  2  0  0  0  0
 14  4  1  0  0  0  0
 14 17  2  0  0  0  0
 15 13  1  0  0  0  0
 17 18  1  0  0  0  0
 18 19  2  0  0  0  0
 18 22  1  0  0  0  0
 19  3  1  0  0  0  0
 20 10  1  0  0  0  0
 22  9  1  0  0  0  0
 23 24  1  0  0  0  0
 25 23  2  0  0  0  0
 26  8  1  0  0  0  0
 27 26  1  0  0  0  0
 28 32  1  6  0  0  0
 28 29  1  0  0  0  0
 28 30  1  0  0  0  0
 29 30  1  0  0  0  0
 30 27  1  6  0  0  0
 31 32  1  0  0  0  0
M  END
>  <MODEL>
6

>  <REMARK>
 VINA RESULT:     -10.4      2.721      7.244
  Name = 
  5 active torsions:
  status: ('A' for Active; 'I' for Inactive)
    1  A    between atoms: C_2  and  C_16
    2  A    between atoms: C_3  and  C_29
    3  A    between atoms: C_12  and  C_28
    4  A    between atoms: N_13  and  C_17
    5  A    between atoms: C_17  and  C_28
                            x       y       z     vdW  Elec       q    Type
                         _______ _______ _______ _____ _____    ______ ____

>  <TORSDO>
F 5

$$$$
=
 OpenBabel10232408163D

 32 37  0  0  1  0  0  0  0  0999 V2000
  182.3310  178.7000  144.1680 C   0  0  0  0  0  3  0  0  0  0  0  0
  186.9320  178.3670  140.9400 C   0  0  0  0  0  0  0  0  0  0  0  0
  185.7600  178.4570  141.7110 C   0  0  0  0  0  0  0  0  0  0  0  0
  187.2990  177.9390  145.1710 C   0  0  0  0  0  0  0  0  0  0  0  0
  181.0900  178.9230  143.5710 C   0  0  0  0  0  3  0  0  0  0  0  0
  180.9950  179.0570  142.2230 N   0  0  0  0  0  0  0  0  0  0  0  0
  184.3400  178.8240  139.7660 O   0  0  0  0  0  1  0  0  0  0  0  0
  188.4640  177.7320  145.7140 N   0  0  0  0  0  2  0  0  0  0  0  0
  183.3590  178.7590  141.9720 C   0  0  0  0  0  0  0  0  0  0  0  0
  188.5080  178.2890  139.4350 C   0  0  0  0  0  0  0  0  0  0  0  0
  184.4890  178.6800  141.1450 C   0  0  0  0  0  0  0  0  0  0  0  0
  187.1760  178.0860  143.7030 C   0  0  0  0  0  0  0  0  0  0  0  0
  188.1570  178.1500  141.5140 C   0  0  0  0  0  0  0  0  0  0  0  0
  186.0740  178.0280  145.9890 C   0  0  0  0  0  3  0  0  0  0  0  0
  188.3190  178.0040  142.8850 C   0  0  0  0  0  3  0  0  0  0  0  0
  187.1310  178.4630  139.5730 C   0  0  0  0  0  3  0  0  0  0  0  0
  184.8880  178.2390  145.4180 C   0  0  0  0  0  3  0  0  0  0  0  0
  184.7480  178.3920  143.9490 C   0  0  0  0  0  0  0  0  0  0  0  0
  185.8930  178.3120  143.1230 C   0  0  2  0  0  3  0  0  0  0  0  0
  189.0920  178.1050  140.6040 O   0  0  0  0  0  0  0  0  0  0  0  0
  182.0910  178.9810  141.4210 C   0  0  0  0  0  3  0  0  0  0  0  0
  183.4830  178.6150  143.3730 C   0  0  0  0  0  0  0  0  0  0  0  0
  189.2330  178.3050  138.1620 C   0  0  0  0  0  0  0  0  0  0  0  0
  188.9540  179.3020  137.1850 N   0  0  0  0  0  1  0  0  0  0  0  0
  190.1110  177.4340  137.9280 O   0  0  0  0  0  0  0  0  0  0  0  0
  188.6870  177.5860  147.1480 C   0  0  0  0  0  2  0  0  0  0  0  0
  189.6260  176.4240  147.4150 C   0  0  0  0  0  2  0  0  0  0  0  0
  191.9350  176.6810  146.2900 C   0  0  2  0  0  3  0  0  0  0  0  0
  192.0150  175.7640  147.4940 C   0  0  0  0  0  2  0  0  0  0  0  0
  191.0560  176.9370  147.5230 C   0  0  2  0  0  3  0  0  0  0  0  0
  191.5750  176.6440  143.8360 C   0  0  0  0  0  1  0  0  0  0  0  0
  191.2460  175.9540  145.1430 C   0  0  0  0  0  2  0  0  0  0  0  0
  2 13  2  0  0  0  0
  2  3  1  0  0  0  0
  4  8  1  0  0  0  0
  4 14  2  0  0  0  0
  5  1  1  0  0  0  0
  6  5  2  0  0  0  0
  7 11  1  0  0  0  0
  8 26  1  0  0  0  0
  9 22  1  0  0  0  0
 10 16  2  0  0  0  0
 10 20  1  0  0  0  0
 11  3  2  0  0  0  0
 11  9  1  0  0  0  0
 12  4  1  0  0  0  0
 13 15  1  0  0  0  0
 15 12  2  0  0  0  0
 16  2  1  0  0  0  0
 17 14  1  0  0  0  0
 18 17  2  0  0  0  0
 19  3  1  6  0  0  0
 19 12  1  0  0  0  0
 19 18  1  0  0  0  0
 20 13  1  0  0  0  0
 21  9  2  0  0  0  0
 21  6  1  0  0  0  0
 22 18  1  0  0  0  0
 22  1  2  0  0  0  0
 23 10  1  0  0  0  0
 24 23  1  0  0  0  0
 25 23  2  0  0  0  0
 26 27  1  0  0  0  0
 28 32  1  6  0  0  0
 28 29  1  0  0  0  0
 28 30  1  0  0  0  0
 29 30  1  0  0  0  0
 30 27  1  6  0  0  0
 31 32  1  0  0  0  0
M  END
>  <MODEL>
7

>  <REMARK>
 VINA RESULT:     -10.1      1.564      6.859
  Name = 
  5 active torsions:
  status: ('A' for Active; 'I' for Inactive)
    1  A    between atoms: C_2  and  C_16
    2  A    between atoms: C_3  and  C_29
    3  A    between atoms: C_12  and  C_28
    4  A    between atoms: N_13  and  C_17
    5  A    between atoms: C_17  and  C_28
                            x       y       z     vdW  Elec       q    Type
                         _______ _______ _______ _____ _____    ______ ____

>  <TORSDO>
F 5

$$$$
=
 OpenBabel10232408163D

 32 37  0  0  1  0  0  0  0  0999 V2000
  191.6890  176.5140  145.2970 C   0  0  0  0  0  3  0  0  0  0  0  0
  186.4610  178.0650  143.9000 C   0  0  0  0  0  0  0  0  0  0  0  0
  187.7540  177.6770  144.2900 C   0  0  0  0  0  0  0  0  0  0  0  0
  189.3940  177.5760  140.8390 C   0  0  0  0  0  0  0  0  0  0  0  0
  192.0050  176.2970  146.6390 C   0  0  0  0  0  3  0  0  0  0  0  0
  191.0560  176.4590  147.5980 N   0  0  0  0  0  0  0  0  0  0  0  0
  187.1720  177.6010  146.6540 O   0  0  0  0  0  1  0  0  0  0  0  0
  189.0860  177.7820  139.5920 N   0  0  0  0  0  0  0  0  0  0  0  0
  189.4200  177.0630  145.9550 C   0  0  0  0  0  0  0  0  0  0  0  0
  184.3710  178.6510  143.6850 C   0  0  0  0  0  0  0  0  0  0  0  0
  188.1100  177.4490  145.6340 C   0  0  0  0  0  0  0  0  0  0  0  0
  188.3730  177.7450  141.8980 C   0  0  0  0  0  0  0  0  0  0  0  0
  186.1380  178.2820  142.5870 C   0  0  0  0  0  0  0  0  0  0  0  0
  190.7550  177.1650  141.2380 C   0  0  0  0  0  3  0  0  0  0  0  0
  187.0620  178.1330  141.5610 C   0  0  0  0  0  3  0  0  0  0  0  0
  185.3180  178.3000  144.6470 C   0  0  0  0  0  3  0  0  0  0  0  0
  191.0550  176.9570  142.5200 C   0  0  0  0  0  3  0  0  0  0  0  0
  190.0450  177.1260  143.5920 C   0  0  0  0  0  0  0  0  0  0  0  0
  188.7260  177.5160  143.2610 C   0  0  0  0  0  0  0  0  0  0  0  0
  184.8860  178.6320  142.4710 O   0  0  0  0  0  0  0  0  0  0  0  0
  189.7870  176.8330  147.2870 C   0  0  0  0  0  3  0  0  0  0  0  0
  190.3900  176.9000  144.9390 C   0  0  0  0  0  0  0  0  0  0  0  0
  182.9760  179.0000  143.9670 C   0  0  0  0  0  0  0  0  0  0  0  0
  182.0090  179.0070  142.9220 N   0  0  0  0  0  1  0  0  0  0  0  0
  182.6260  179.2960  145.1390 O   0  0  0  0  0  0  0  0  0  0  0  0
  190.0230  177.6520  138.4820 C   0  0  0  0  0  2  0  0  0  0  0  0
  189.2810  177.7330  137.1600 C   0  0  0  0  0  2  0  0  0  0  0  0
  186.7370  177.3190  137.0130 C   0  0  2  0  0  3  0  0  0  0  0  0
  187.1650  178.4210  136.0650 C   0  0  0  0  0  2  0  0  0  0  0  0
  187.8770  178.2750  137.3940 C   0  0  2  0  0  3  0  0  0  0  0  0
  186.1190  175.4350  135.5220 C   0  0  0  0  0  1  0  0  0  0  0  0
  187.1810  175.9720  136.4580 C   0  0  0  0  0  2  0  0  0  0  0  0
  1  5  1  0  0  0  0
  2  3  1  0  0  0  0
  2 16  1  0  0  0  0
  3 11  2  0  0  0  0
  4 14  1  0  0  0  0
  4 12  1  0  0  0  0
  5  6  2  0  0  0  0
  8  4  2  0  0  0  0
  9 21  2  0  0  0  0
 10 23  1  0  0  0  0
 10 16  2  0  0  0  0
 11  9  1  0  0  0  0
 11  7  1  0  0  0  0
 12 19  1  0  0  0  0
 13  2  2  0  0  0  0
 14 17  2  0  0  0  0
 15 12  2  0  0  0  0
 15 13  1  0  0  0  0
 17 18  1  0  0  0  0
 18 22  1  0  0  0  0
 19 18  2  0  0  0  0
 19  3  1  0  0  0  0
 20 13  1  0  0  0  0
 20 10  1  0  0  0  0
 21  6  1  0  0  0  0
 22  1  2  0  0  0  0
 22  9  1  0  0  0  0
 23 25  2  0  0  0  0
 24 23  1  0  0  0  0
 26  8  1  0  0  0  0
 27 26  1  0  0  0  0
 28 32  1  6  0  0  0
 28 30  1  0  0  0  0
 29 28  1  0  0  0  0
 29 30  1  0  0  0  0
 30 27  1  6  0  0  0
 31 32  1  0  0  0  0
M  END
>  <MODEL>
8

>  <REMARK>
 VINA RESULT:      -9.9      2.438      5.956
  Name = 
  5 active torsions:
  status: ('A' for Active; 'I' for Inactive)
    1  A    between atoms: C_2  and  C_16
    2  A    between atoms: C_3  and  C_29
    3  A    between atoms: C_12  and  C_28
    4  A    between atoms: N_13  and  C_17
    5  A    between atoms: C_17  and  C_28
                            x       y       z     vdW  Elec       q    Type
                         _______ _______ _______ _____ _____    ______ ____

>  <TORSDO>
F 5

$$$$
=
 OpenBabel10232408163D

 32 37  0  0  1  0  0  0  0  0999 V2000
  187.4170  177.6860  146.7580 C   0  0  0  0  0  3  0  0  0  0  0  0
  190.2750  177.4590  141.9120 C   0  0  0  0  0  0  0  0  0  0  0  0
  189.5970  177.5050  143.1430 C   0  0  0  0  0  0  0  0  0  0  0  0
  186.1320  178.4850  141.8610 C   0  0  0  0  0  0  0  0  0  0  0  0
  188.0750  177.4050  147.9560 C   0  0  0  0  0  3  0  0  0  0  0  0
  189.3940  177.0800  147.9500 N   0  0  0  0  0  0  0  0  0  0  0  0
  191.5790  176.8900  144.4180 O   0  0  0  0  0  1  0  0  0  0  0  0
  185.5310  178.7440  140.7370 N   0  0  0  0  0  0  0  0  0  0  0  0
  189.4920  177.2910  145.5650 C   0  0  0  0  0  0  0  0  0  0  0  0
  191.6420  177.2890  140.2230 C   0  0  0  0  0  0  0  0  0  0  0  0
  190.2270  177.2280  144.3720 C   0  0  0  0  0  0  0  0  0  0  0  0
  187.5700  178.1310  141.8750 C   0  0  0  0  0  0  0  0  0  0  0  0
  189.6400  177.7330  140.7300 C   0  0  0  0  0  0  0  0  0  0  0  0
  185.4120  178.5390  143.1490 C   0  0  0  0  0  3  0  0  0  0  0  0
  188.2950  178.0710  140.6700 C   0  0  0  0  0  3  0  0  0  0  0  0
  191.5930  177.1640  141.6110 C   0  0  0  0  0  3  0  0  0  0  0  0
  186.0420  178.2710  144.2930 C   0  0  0  0  0  3  0  0  0  0  0  0
  187.4800  177.9120  144.3230 C   0  0  0  0  0  0  0  0  0  0  0  0
  188.2140  177.8490  143.1150 C   0  0  0  0  0  0  0  0  0  0  0  0
  190.4680  177.6270  139.7260 O   0  0  0  0  0  0  0  0  0  0  0  0
  190.1070  177.0180  146.7930 C   0  0  0  0  0  3  0  0  0  0  0  0
  188.1200  177.6330  145.5460 C   0  0  0  0  0  0  0  0  0  0  0  0
  192.8370  177.0760  139.4010 C   0  0  0  0  0  0  0  0  0  0  0  0
  192.7190  176.5850  138.0700 N   0  0  0  0  0  1  0  0  0  0  0  0
  193.9770  177.3280  139.8720 O   0  0  0  0  0  0  0  0  0  0  0  0
  184.1190  179.0900  140.6210 C   0  0  0  0  0  2  0  0  0  0  0  0
  183.6970  179.0820  139.1620 C   0  0  0  0  0  2  0  0  0  0  0  0
  184.3620  177.0100  137.7750 C   0  0  2  0  0  3  0  0  0  0  0  0
  183.0860  177.6320  137.2470 C   0  0  0  0  0  2  0  0  0  0  0  0
  183.3580  177.6590  138.7370 C   0  0  2  0  0  3  0  0  0  0  0  0
  186.8070  177.0410  137.3490 C   0  0  0  0  0  1  0  0  0  0  0  0
  185.5490  177.8840  137.3910 C   0  0  0  0  0  2  0  0  0  0  0  0
  1  5  1  0  0  0  0
  2  3  1  0  0  0  0
  3 11  2  0  0  0  0
  4 12  1  0  0  0  0
  4 14  1  0  0  0  0
  6  5  2  0  0  0  0
  8  4  2  0  0  0  0
  9 21  2  0  0  0  0
 10 16  2  0  0  0  0
 11  7  1  0  0  0  0
 11  9  1  0  0  0  0
 12 19  1  0  0  0  0
 13  2  2  0  0  0  0
 14 17  2  0  0  0  0
 15 13  1  0  0  0  0
 15 12  2  0  0  0  0
 16  2  1  0  0  0  0
 17 18  1  0  0  0  0
 18 22  1  0  0  0  0
 19  3  1  0  0  0  0
 19 18  2  0  0  0  0
 20 10  1  0  0  0  0
 20 13  1  0  0  0  0
 21  6  1  0  0  0  0
 22  9  1  0  0  0  0
 22  1  2  0  0  0  0
 23 25  2  0  0  0  0
 23 10  1  0  0  0  0
 24 23  1  0  0  0  0
 26  8  1  0  0  0  0
 27 26  1  0  0  0  0
 28 32  1  6  0  0  0
 28 30  1  0  0  0  0
 29 28  1  0  0  0  0
 29 30  1  0  0  0  0
 30 27  1  6  0  0  0
 31 32  1  0  0  0  0
M  END
>  <MODEL>
9

>  <REMARK>
 VINA RESULT:      -9.8      2.201      3.360
  Name = 
  5 active torsions:
  status: ('A' for Active; 'I' for Inactive)
    1  A    between atoms: C_2  and  C_16
    2  A    between atoms: C_3  and  C_29
    3  A    between atoms: C_12  and  C_28
    4  A    between atoms: N_13  and  C_17
    5  A    between atoms: C_17  and  C_28
                            x       y       z     vdW  Elec       q    Type
                         _______ _______ _______ _____ _____    ______ ____

>  <TORSDO>
F 5

$$$$
