=
 OpenBabel10232408083D

 38 40  0  0  1  0  0  0  0  0999 V2000
  185.4070  178.5970  143.6790 C   0  0  0  0  0  2  0  0  0  0  0  0
  182.4320  178.8440  143.7240 C   0  0  0  0  0  0  0  0  0  0  0  0
  183.9270  178.9950  141.6670 C   0  0  0  0  0  3  0  0  0  0  0  0
  182.7500  178.8850  142.2950 C   0  0  0  0  0  0  0  0  0  0  0  0
  185.2570  179.2470  142.3150 C   0  0  0  0  0  2  0  0  0  0  0  0
  181.1540  178.7070  143.8750 N   0  0  0  0  0  0  0  0  0  0  0  0
  180.5270  178.6910  142.6200 N   0  0  0  0  0  0  0  0  0  0  0  0
  181.0900  178.7800  140.3040 N   0  0  0  0  0  2  0  0  0  0  0  0
  183.3840  178.6320  144.8600 C   0  0  0  0  0  2  0  0  0  0  0  0
  181.4240  178.7750  141.6960 C   0  0  0  0  0  0  0  0  0  0  0  0
  184.6310  179.3510  144.6500 N   0  0  0  0  0  0  0  0  0  0  0  0
  182.0600  178.9900  139.2390 C   0  0  1  0  0  3  0  0  0  0  0  0
  184.0390  177.3430  136.6900 C   0  0  0  0  0  3  0  0  0  0  0  0
  182.7800  177.7100  138.9450 C   0  0  0  0  0  3  0  0  0  0  0  0
  183.4100  177.5240  137.8160 C   0  0  0  0  0  0  0  0  0  0  0  0
  185.3590  176.8010  136.6890 N   0  0  0  0  0  2  0  0  0  0  0  0
  186.5210  177.5250  134.7850 O   0  0  0  0  0  1  0  0  0  0  0  0
  186.5120  177.5430  136.1830 C   0  0  2  0  0  3  0  0  0  0  0  0
  187.8490  177.0480  136.7710 C   0  0  0  0  0  0  0  0  0  0  0  0
  188.9440  177.0250  135.7170 C   0  0  0  0  0  1  0  0  0  0  0  0
  187.6840  175.6440  137.3300 C   0  0  0  0  0  1  0  0  0  0  0  0
  189.5740  177.3920  139.0520 O   0  0  0  0  0  1  0  0  0  0  0  0
  188.9070  179.4390  137.5700 O   0  0  0  0  0  0  0  0  0  0  0  0
  188.3690  178.1440  138.1330 P   0  0  0  0  0  0  0  0  0  0  0  0
  187.0430  178.4780  139.1280 O   0  0  0  0  0  1  0  0  0  0  0  0
  181.3990  179.4730  138.0730 O   0  0  0  0  0  0  0  0  0  0  0  0
  181.3620  180.8280  137.7400 C   0  0  0  0  0  0  0  0  0  0  0  0
  180.7040  181.2740  136.5560 N   0  0  0  0  0  1  0  0  0  0  0  0
  181.9230  181.6670  138.4900 O   0  0  0  0  0  0  0  0  0  0  0  0
  185.3330  179.2940  145.8610 N   0  0  0  0  0  2  0  0  0  0  0  0
  185.9850  178.0540  145.8920 N   0  0  0  0  0  2  0  0  0  0  0  0
  188.5850  178.0950  148.5890 C   0  0  0  0  0  3  0  0  0  0  0  0
  189.8260  177.5950  147.8970 C   0  0  0  0  0  2  0  0  0  0  0  0
  187.4120  178.2300  147.9640 C   0  0  0  0  0  3  0  0  0  0  0  0
  188.2830  177.4420  145.8250 C   0  0  0  0  0  3  0  0  0  0  0  0
  187.2480  177.8940  146.5350 C   0  0  0  0  0  0  0  0  0  0  0  0
  189.6040  177.2680  146.4460 C   0  0  0  0  0  0  0  0  0  0  0  0
  190.5620  176.8390  145.7540 O   0  0  0  0  0  0  0  0  0  0  0  0
  1 11  1  0  0  0  0
  2  6  2  0  0  0  0
  2  9  1  0  0  0  0
  3  4  2  0  0  0  0
  3  5  1  0  0  0  0
  4  2  1  0  0  0  0
  5  1  1  0  0  0  0
  7  6  1  0  0  0  0
  8 10  1  0  0  0  0
 10  4  1  0  0  0  0
 10  7  2  0  0  0  0
 11  9  1  0  0  0  0
 11 30  1  0  0  0  0
 12 14  1  6  0  0  0
 12  8  1  0  0  0  0
 13 15  2  0  0  0  0
 15 14  2  0  0  0  0
 16 13  1  0  0  0  0
 18 17  1  6  0  0  0
 18 16  1  0  0  0  0
 18 19  1  0  0  0  0
 19 21  1  0  0  0  0
 19 24  1  0  0  0  0
 20 19  1  0  0  0  0
 23 24  2  0  0  0  0
 24 22  1  0  0  0  0
 24 25  1  0  0  0  0
 26 12  1  0  0  0  0
 27 26  1  0  0  0  0
 27 29  2  0  0  0  0
 28 27  1  0  0  0  0
 30 31  1  0  0  0  0
 31 36  1  0  0  0  0
 33 32  1  0  0  0  0
 34 32  2  0  0  0  0
 35 37  1  0  0  0  0
 35 36  2  0  0  0  0
 36 34  1  0  0  0  0
 37 33  1  0  0  0  0
 38 37  2  0  0  0  0
M  END
>  <MODEL>
1

>  <REMARK>
 VINA RESULT:      -8.0      0.000      0.000
  Name = 
  11 active torsions:
  status: ('A' for Active; 'I' for Inactive)
    1  A    between atoms: C_2  and  O_4
    2  A    between atoms: C_2  and  C_15
    3  A    between atoms: C_2  and  N_20
    4  A    between atoms: O_4  and  C_7
    5  A    between atoms: C_13  and  N_17
    6  A    between atoms: N_17  and  C_33
    7  A    between atoms: N_19  and  C_23
    8  A    between atoms: N_19  and  N_37
    9  A    between atoms: C_21  and  P_29
   10  A    between atoms: C_21  and  C_33
   11  A    between atoms: N_31  and  N_37
                            x       y       z     vdW  Elec       q    Type
                         _______ _______ _______ _____ _____    ______ ____

>  <TORSDO>
F 11

$$$$
=
 OpenBabel10232408083D

 38 40  0  0  1  0  0  0  0  0999 V2000
  190.9640  177.0440  142.1560 C   0  0  0  0  0  2  0  0  0  0  0  0
  188.3900  178.2160  141.1960 C   0  0  0  0  0  0  0  0  0  0  0  0
  190.3450  177.4720  139.7410 C   0  0  0  0  0  3  0  0  0  0  0  0
  189.0830  177.8660  139.9540 C   0  0  0  0  0  0  0  0  0  0  0  0
  191.4420  177.4200  140.7640 C   0  0  0  0  0  2  0  0  0  0  0  0
  187.1620  178.5210  140.9300 N   0  0  0  0  0  0  0  0  0  0  0  0
  186.9440  178.4490  139.5460 N   0  0  0  0  0  0  0  0  0  0  0  0
  188.1170  177.8880  137.5460 N   0  0  0  0  0  2  0  0  0  0  0  0
  188.8480  177.9500  142.5960 C   0  0  0  0  0  2  0  0  0  0  0  0
  188.0280  178.0590  138.9650 C   0  0  0  0  0  0  0  0  0  0  0  0
  190.2770  178.1840  142.7420 N   0  0  0  0  0  0  0  0  0  0  0  0
  189.3510  177.5630  136.8450 C   0  0  1  0  0  3  0  0  0  0  0  0
  191.9740  175.1320  136.2640 C   0  0  0  0  0  3  0  0  0  0  0  0
  189.6950  176.1210  137.0580 C   0  0  0  0  0  3  0  0  0  0  0  0
  190.8350  175.6240  136.6600 C   0  0  0  0  0  0  0  0  0  0  0  0
  192.7370  174.3030  137.1390 N   0  0  0  0  0  2  0  0  0  0  0  0
  193.9720  176.1200  137.9600 O   0  0  0  0  0  1  0  0  0  0  0  0
  193.9980  174.7400  137.7340 C   0  0  2  0  0  3  0  0  0  0  0  0
  195.2290  174.3180  136.9070 C   0  0  0  0  0  0  0  0  0  0  0  0
  195.5920  175.3740  135.8740 C   0  0  0  0  0  1  0  0  0  0  0  0
  194.9490  173.0100  136.1870 C   0  0  0  0  0  1  0  0  0  0  0  0
  197.7400  175.3570  137.8640 O   0  0  0  0  0  1  0  0  0  0  0  0
  196.1870  173.9700  139.4440 O   0  0  0  0  0  1  0  0  0  0  0  0
  196.6580  174.0640  138.0110 P   0  0  0  0  0  0  0  0  0  0  0  0
  197.4500  172.6300  137.5900 O   0  0  0  0  0  0  0  0  0  0  0  0
  189.2040  177.8450  135.4560 O   0  0  0  0  0  0  0  0  0  0  0  0
  188.1260  177.3730  134.7060 C   0  0  0  0  0  0  0  0  0  0  0  0
  187.0500  178.2370  134.3460 N   0  0  0  0  0  1  0  0  0  0  0  0
  188.0990  176.1680  134.3480 O   0  0  0  0  0  0  0  0  0  0  0  0
  190.5470  178.1550  144.1170 N   0  0  0  0  0  2  0  0  0  0  0  0
  189.6210  177.2760  144.6930 N   0  0  0  0  0  2  0  0  0  0  0  0
  189.1670  177.8640  148.3640 C   0  0  0  0  0  3  0  0  0  0  0  0
  187.7010  178.1830  148.4970 C   0  0  0  0  0  2  0  0  0  0  0  0
  189.7450  177.5890  147.1920 C   0  0  0  0  0  3  0  0  0  0  0  0
  187.6720  177.8480  145.9310 C   0  0  0  0  0  3  0  0  0  0  0  0
  188.9780  177.5790  145.9300 C   0  0  0  0  0  0  0  0  0  0  0  0
  186.9680  178.1600  147.1840 C   0  0  0  0  0  0  0  0  0  0  0  0
  185.7370  178.4110  147.1560 O   0  0  0  0  0  0  0  0  0  0  0  0
  1 11  1  0  0  0  0
  2  9  1  0  0  0  0
  3  4  2  0  0  0  0
  3  5  1  0  0  0  0
  4  2  1  0  0  0  0
  5  1  1  0  0  0  0
  6  2  2  0  0  0  0
  7  6  1  0  0  0  0
  8 10  1  0  0  0  0
  9 11  1  0  0  0  0
 10  7  2  0  0  0  0
 10  4  1  0  0  0  0
 11 30  1  0  0  0  0
 12 14  1  6  0  0  0
 12  8  1  0  0  0  0
 13 15  2  0  0  0  0
 13 16  1  0  0  0  0
 15 14  2  0  0  0  0
 16 18  1  0  0  0  0
 18 17  1  6  0  0  0
 19 18  1  0  0  0  0
 19 24  1  0  0  0  0
 20 19  1  0  0  0  0
 21 19  1  0  0  0  0
 22 24  1  0  0  0  0
 24 23  1  0  0  0  0
 25 24  2  0  0  0  0
 26 12  1  0  0  0  0
 27 26  1  0  0  0  0
 28 27  1  0  0  0  0
 29 27  2  0  0  0  0
 30 31  1  0  0  0  0
 31 36  1  0  0  0  0
 32 33  1  0  0  0  0
 34 32  2  0  0  0  0
 35 37  1  0  0  0  0
 36 35  2  0  0  0  0
 36 34  1  0  0  0  0
 37 33  1  0  0  0  0
 38 37  2  0  0  0  0
M  END
>  <MODEL>
2

>  <REMARK>
 VINA RESULT:      -7.9      4.892      7.007
  Name = 
  11 active torsions:
  status: ('A' for Active; 'I' for Inactive)
    1  A    between atoms: C_2  and  O_4
    2  A    between atoms: C_2  and  C_15
    3  A    between atoms: C_2  and  N_20
    4  A    between atoms: O_4  and  C_7
    5  A    between atoms: C_13  and  N_17
    6  A    between atoms: N_17  and  C_33
    7  A    between atoms: N_19  and  C_23
    8  A    between atoms: N_19  and  N_37
    9  A    between atoms: C_21  and  P_29
   10  A    between atoms: C_21  and  C_33
   11  A    between atoms: N_31  and  N_37
                            x       y       z     vdW  Elec       q    Type
                         _______ _______ _______ _____ _____    ______ ____

>  <TORSDO>
F 11

$$$$
=
 OpenBabel10232408083D

 38 40  0  0  1  0  0  0  0  0999 V2000
  189.6060  177.5750  139.6670 C   0  0  0  0  0  2  0  0  0  0  0  0
  189.2760  176.8680  142.5500 C   0  0  0  0  0  0  0  0  0  0  0  0
  187.7390  178.3660  141.1780 C   0  0  0  0  0  3  0  0  0  0  0  0
  188.0660  177.6390  142.2530 C   0  0  0  0  0  0  0  0  0  0  0  0
  188.6360  178.6880  140.0180 C   0  0  0  0  0  2  0  0  0  0  0  0
  189.1500  176.3020  143.7060 N   0  0  0  0  0  0  0  0  0  0  0  0
  187.9220  176.6620  144.2800 N   0  0  0  0  0  0  0  0  0  0  0  0
  185.9780  177.9440  143.7610 N   0  0  0  0  0  2  0  0  0  0  0  0
  190.3550  176.4670  141.5920 C   0  0  0  0  0  2  0  0  0  0  0  0
  187.2740  177.4160  143.4570 C   0  0  0  0  0  0  0  0  0  0  0  0
  190.6670  177.5420  140.6620 N   0  0  0  0  0  0  0  0  0  0  0  0
  185.2680  178.8890  142.9110 C   0  0  1  0  0  3  0  0  0  0  0  0
  184.3640  178.9180  139.4030 C   0  0  0  0  0  3  0  0  0  0  0  0
  184.4550  178.1500  141.8940 C   0  0  0  0  0  3  0  0  0  0  0  0
  184.4080  178.5330  140.6470 C   0  0  0  0  0  0  0  0  0  0  0  0
  184.5220  177.9630  138.3550 N   0  0  0  0  0  2  0  0  0  0  0  0
  186.4750  178.9140  137.4740 O   0  0  0  0  0  1  0  0  0  0  0  0
  185.8090  177.7080  137.7120 C   0  0  2  0  0  3  0  0  0  0  0  0
  185.6820  176.8610  136.4300 C   0  0  0  0  0  0  0  0  0  0  0  0
  186.2600  177.5870  135.2250 C   0  0  0  0  0  1  0  0  0  0  0  0
  184.2200  176.5500  136.1540 C   0  0  0  0  0  1  0  0  0  0  0  0
  186.9960  174.6510  135.1320 O   0  0  0  0  0  0  0  0  0  0  0  0
  187.8190  175.5030  137.4620 O   0  0  0  0  0  1  0  0  0  0  0  0
  186.5680  175.2810  136.6420 P   0  0  0  0  0  0  0  0  0  0  0  0
  185.5690  174.1750  137.4400 O   0  0  0  0  0  1  0  0  0  0  0  0
  184.4350  179.7240  143.7110 O   0  0  0  0  0  0  0  0  0  0  0  0
  183.5000  179.2080  144.6090 C   0  0  0  0  0  0  0  0  0  0  0  0
  182.1980  178.8260  144.1720 N   0  0  0  0  0  1  0  0  0  0  0  0
  183.8070  179.0860  145.8230 O   0  0  0  0  0  0  0  0  0  0  0  0
  191.8370  177.1620  139.9920 N   0  0  0  0  0  2  0  0  0  0  0  0
  191.4460  176.6780  138.7370 N   0  0  0  0  0  2  0  0  0  0  0  0
  192.3270  173.6630  136.6960 C   0  0  0  0  0  3  0  0  0  0  0  0
  193.8260  173.7450  136.5640 C   0  0  0  0  0  2  0  0  0  0  0  0
  191.6080  174.5700  137.3630 C   0  0  0  0  0  3  0  0  0  0  0  0
  193.5610  175.9000  137.9730 C   0  0  0  0  0  3  0  0  0  0  0  0
  192.2390  175.7290  138.0260 C   0  0  0  0  0  0  0  0  0  0  0  0
  194.4160  174.9430  137.2550 C   0  0  0  0  0  0  0  0  0  0  0  0
  195.6590  175.1290  137.2200 O   0  0  0  0  0  0  0  0  0  0  0  0
  1  5  1  0  0  0  0
  1 11  1  0  0  0  0
  2  6  2  0  0  0  0
  3  4  2  0  0  0  0
  4  2  1  0  0  0  0
  4 10  1  0  0  0  0
  5  3  1  0  0  0  0
  6  7  1  0  0  0  0
  9  2  1  0  0  0  0
 10  8  1  0  0  0  0
 10  7  2  0  0  0  0
 11  9  1  0  0  0  0
 12 14  1  6  0  0  0
 12 26  1  0  0  0  0
 12  8  1  0  0  0  0
 13 15  2  0  0  0  0
 15 14  2  0  0  0  0
 16 13  1  0  0  0  0
 18 17  1  6  0  0  0
 18 16  1  0  0  0  0
 19 24  1  0  0  0  0
 19 18  1  0  0  0  0
 20 19  1  0  0  0  0
 21 19  1  0  0  0  0
 22 24  2  0  0  0  0
 24 25  1  0  0  0  0
 24 23  1  0  0  0  0
 26 27  1  0  0  0  0
 27 29  2  0  0  0  0
 28 27  1  0  0  0  0
 30 11  1  0  0  0  0
 31 30  1  0  0  0  0
 32 34  2  0  0  0  0
 33 32  1  0  0  0  0
 33 37  1  0  0  0  0
 34 36  1  0  0  0  0
 35 36  2  0  0  0  0
 36 31  1  0  0  0  0
 37 35  1  0  0  0  0
 38 37  2  0  0  0  0
M  END
>  <MODEL>
3

>  <REMARK>
 VINA RESULT:      -7.8      4.005      7.134
  Name = 
  11 active torsions:
  status: ('A' for Active; 'I' for Inactive)
    1  A    between atoms: C_2  and  O_4
    2  A    between atoms: C_2  and  C_15
    3  A    between atoms: C_2  and  N_20
    4  A    between atoms: O_4  and  C_7
    5  A    between atoms: C_13  and  N_17
    6  A    between atoms: N_17  and  C_33
    7  A    between atoms: N_19  and  C_23
    8  A    between atoms: N_19  and  N_37
    9  A    between atoms: C_21  and  P_29
   10  A    between atoms: C_21  and  C_33
   11  A    between atoms: N_31  and  N_37
                            x       y       z     vdW  Elec       q    Type
                         _______ _______ _______ _____ _____    ______ ____

>  <TORSDO>
F 11

$$$$
=
 OpenBabel10232408083D

 38 40  0  0  1  0  0  0  0  0999 V2000
  189.4180  178.1110  142.8560 C   0  0  0  0  0  2  0  0  0  0  0  0
  191.6040  177.3380  140.9750 C   0  0  0  0  0  0  0  0  0  0  0  0
  189.1020  177.1650  140.5320 C   0  0  0  0  0  3  0  0  0  0  0  0
  190.3920  177.1500  140.1750 C   0  0  0  0  0  0  0  0  0  0  0  0
  188.5700  177.2540  141.9330 C   0  0  0  0  0  2  0  0  0  0  0  0
  192.6410  177.2610  140.2060 N   0  0  0  0  0  0  0  0  0  0  0  0
  192.2380  176.9820  138.8920 N   0  0  0  0  0  0  0  0  0  0  0  0
  190.2380  176.6630  137.6320 N   0  0  0  0  0  2  0  0  0  0  0  0
  191.6980  177.8810  142.3680 C   0  0  0  0  0  2  0  0  0  0  0  0
  190.9500  176.9300  138.8450 C   0  0  0  0  0  0  0  0  0  0  0  0
  190.6230  177.3770  143.2080 N   0  0  0  0  0  0  0  0  0  0  0  0
  188.7950  176.4810  137.5620 C   0  0  1  0  0  3  0  0  0  0  0  0
  185.5250  178.0150  137.8470 C   0  0  0  0  0  3  0  0  0  0  0  0
  188.1110  177.8140  137.5740 C   0  0  0  0  0  3  0  0  0  0  0  0
  186.8160  177.9160  137.7090 C   0  0  0  0  0  0  0  0  0  0  0  0
  184.9750  178.9590  138.7640 N   0  0  0  0  0  2  0  0  0  0  0  0
  183.3980  180.6830  138.9630 O   0  0  0  0  0  1  0  0  0  0  0  0
  183.5560  179.3060  138.7770 C   0  0  2  0  0  3  0  0  0  0  0  0
  182.7480  178.4930  139.8090 C   0  0  0  0  0  0  0  0  0  0  0  0
  181.6410  179.3300  140.4310 C   0  0  0  0  0  1  0  0  0  0  0  0
  183.6650  178.0000  140.9160 C   0  0  0  0  0  1  0  0  0  0  0  0
  183.0520  175.7170  139.1050 O   0  0  0  0  0  1  0  0  0  0  0  0
  180.6960  176.6910  139.6810 O   0  0  0  0  0  1  0  0  0  0  0  0
  182.0010  177.0390  139.0020 P   0  0  0  0  0  0  0  0  0  0  0  0
  181.7060  177.3850  137.3740 O   0  0  0  0  0  0  0  0  0  0  0  0
  188.4580  175.7540  136.3840 O   0  0  0  0  0  0  0  0  0  0  0  0
  187.7030  174.5800  136.4190 C   0  0  0  0  0  0  0  0  0  0  0  0
  187.9030  173.5520  135.4510 N   0  0  0  0  0  1  0  0  0  0  0  0
  186.8310  174.4280  137.3120 O   0  0  0  0  0  0  0  0  0  0  0  0
  190.9440  177.7340  144.5240 N   0  0  0  0  0  2  0  0  0  0  0  0
  190.2540  176.8500  145.3640 N   0  0  0  0  0  2  0  0  0  0  0  0
  188.7990  178.0540  148.5990 C   0  0  0  0  0  3  0  0  0  0  0  0
  187.3440  178.2710  148.2790 C   0  0  0  0  0  2  0  0  0  0  0  0
  189.6830  177.6190  147.6960 C   0  0  0  0  0  3  0  0  0  0  0  0
  188.0250  177.4760  145.9120 C   0  0  0  0  0  3  0  0  0  0  0  0
  189.2900  177.3180  146.3050 C   0  0  0  0  0  0  0  0  0  0  0  0
  186.9980  177.9510  146.8500 C   0  0  0  0  0  0  0  0  0  0  0  0
  185.8130  178.0910  146.4530 O   0  0  0  0  0  0  0  0  0  0  0  0
  1 11  1  0  0  0  0
  2  9  1  0  0  0  0
  3  5  1  0  0  0  0
  4  3  2  0  0  0  0
  4  2  1  0  0  0  0
  5  1  1  0  0  0  0
  6  2  2  0  0  0  0
  7  6  1  0  0  0  0
  8 10  1  0  0  0  0
  9 11  1  0  0  0  0
 10  7  2  0  0  0  0
 10  4  1  0  0  0  0
 11 30  1  0  0  0  0
 12 14  1  6  0  0  0
 12  8  1  0  0  0  0
 13 16  1  0  0  0  0
 14 15  2  0  0  0  0
 15 13  2  0  0  0  0
 16 18  1  0  0  0  0
 18 17  1  1  0  0  0
 18 19  1  0  0  0  0
 19 20  1  0  0  0  0
 19 21  1  0  0  0  0
 24 22  1  0  0  0  0
 24 23  1  0  0  0  0
 24 19  1  0  0  0  0
 25 24  2  0  0  0  0
 26 27  1  0  0  0  0
 26 12  1  0  0  0  0
 27 29  2  0  0  0  0
 28 27  1  0  0  0  0
 30 31  1  0  0  0  0
 31 36  1  0  0  0  0
 33 32  1  0  0  0  0
 34 32  2  0  0  0  0
 35 36  2  0  0  0  0
 35 37  1  0  0  0  0
 36 34  1  0  0  0  0
 37 33  1  0  0  0  0
 38 37  2  0  0  0  0
M  END
>  <MODEL>
4

>  <REMARK>
 VINA RESULT:      -7.6      3.696      6.885
  Name = 
  11 active torsions:
  status: ('A' for Active; 'I' for Inactive)
    1  A    between atoms: C_2  and  O_4
    2  A    between atoms: C_2  and  C_15
    3  A    between atoms: C_2  and  N_20
    4  A    between atoms: O_4  and  C_7
    5  A    between atoms: C_13  and  N_17
    6  A    between atoms: N_17  and  C_33
    7  A    between atoms: N_19  and  C_23
    8  A    between atoms: N_19  and  N_37
    9  A    between atoms: C_21  and  P_29
   10  A    between atoms: C_21  and  C_33
   11  A    between atoms: N_31  and  N_37
                            x       y       z     vdW  Elec       q    Type
                         _______ _______ _______ _____ _____    ______ ____

>  <TORSDO>
F 11

$$$$
=
 OpenBabel10232408083D

 38 40  0  0  1  0  0  0  0  0999 V2000
  183.8050  179.1570  142.4400 C   0  0  0  0  0  2  0  0  0  0  0  0
  184.8520  178.7780  145.2110 C   0  0  0  0  0  0  0  0  0  0  0  0
  185.9380  177.9480  143.0620 C   0  0  0  0  0  3  0  0  0  0  0  0
  185.9150  178.2200  144.3720 C   0  0  0  0  0  0  0  0  0  0  0  0
  184.7740  178.0330  142.1170 C   0  0  0  0  0  2  0  0  0  0  0  0
  185.2790  178.8890  146.4270 N   0  0  0  0  0  0  0  0  0  0  0  0
  186.5900  178.3970  146.5160 N   0  0  0  0  0  0  0  0  0  0  0  0
  188.2850  177.4730  145.1150 N   0  0  0  0  0  2  0  0  0  0  0  0
  183.5970  179.4560  144.7550 C   0  0  0  0  0  2  0  0  0  0  0  0
  186.9830  178.0210  145.3460 C   0  0  0  0  0  0  0  0  0  0  0  0
  183.0170  178.7820  143.6040 N   0  0  0  0  0  0  0  0  0  0  0  0
  188.7220  176.9320  143.8350 C   0  0  1  0  0  3  0  0  0  0  0  0
  189.1430  177.6660  140.3130 C   0  0  0  0  0  3  0  0  0  0  0  0
  189.0390  178.0500  142.8910 C   0  0  0  0  0  3  0  0  0  0  0  0
  189.0930  177.8590  141.6000 C   0  0  0  0  0  0  0  0  0  0  0  0
  188.4900  178.5750  139.4280 N   0  0  0  0  0  2  0  0  0  0  0  0
  188.9870  179.7770  137.4770 O   0  0  0  0  0  1  0  0  0  0  0  0
  188.6550  178.5150  137.9780 C   0  0  2  0  0  3  0  0  0  0  0  0
  187.4290  177.9170  137.2590 C   0  0  0  0  0  0  0  0  0  0  0  0
  187.1360  178.6510  135.9590 C   0  0  0  0  0  1  0  0  0  0  0  0
  186.2040  178.0090  138.1550 C   0  0  0  0  0  1  0  0  0  0  0  0
  189.1250  175.6280  137.6770 O   0  0  0  0  0  1  0  0  0  0  0  0
  186.5490  175.3300  137.3420 O   0  0  0  0  0  1  0  0  0  0  0  0
  187.7280  176.1580  136.8830 P   0  0  0  0  0  0  0  0  0  0  0  0
  187.9310  175.9620  135.2170 O   0  0  0  0  0  0  0  0  0  0  0  0
  189.8610  176.0990  144.0290 O   0  0  0  0  0  0  0  0  0  0  0  0
  191.1530  176.6130  144.1550 C   0  0  0  0  0  0  0  0  0  0  0  0
  191.6020  177.1680  145.3890 N   0  0  0  0  0  1  0  0  0  0  0  0
  191.9290  176.5920  143.1660 O   0  0  0  0  0  0  0  0  0  0  0  0
  181.7410  179.3310  143.4210 N   0  0  0  0  0  2  0  0  0  0  0  0
  180.9840  178.3740  142.7320 N   0  0  0  0  0  2  0  0  0  0  0  0
  180.0390  180.0090  139.4970 C   0  0  0  0  0  3  0  0  0  0  0  0
  180.0460  178.8740  138.5060 C   0  0  0  0  0  2  0  0  0  0  0  0
  180.3300  179.8430  140.7900 C   0  0  0  0  0  3  0  0  0  0  0  0
  180.7200  177.4460  140.5570 C   0  0  0  0  0  3  0  0  0  0  0  0
  180.6830  178.5210  141.3460 C   0  0  0  0  0  0  0  0  0  0  0  0
  180.4130  177.5520  139.1230 C   0  0  0  0  0  0  0  0  0  0  0  0
  180.4560  176.5230  138.4030 O   0  0  0  0  0  0  0  0  0  0  0  0
  1 11  1  0  0  0  0
  2  6  2  0  0  0  0
  3  4  2  0  0  0  0
  4  2  1  0  0  0  0
  4 10  1  0  0  0  0
  5  1  1  0  0  0  0
  5  3  1  0  0  0  0
  6  7  1  0  0  0  0
  8 10  1  0  0  0  0
  9  2  1  0  0  0  0
 10  7  2  0  0  0  0
 11  9  1  0  0  0  0
 12 14  1  6  0  0  0
 12 26  1  0  0  0  0
 12  8  1  0  0  0  0
 13 15  2  0  0  0  0
 15 14  2  0  0  0  0
 16 13  1  0  0  0  0
 18 17  1  6  0  0  0
 18 16  1  0  0  0  0
 19 18  1  0  0  0  0
 19 21  1  0  0  0  0
 20 19  1  0  0  0  0
 24 19  1  0  0  0  0
 24 23  1  0  0  0  0
 24 22  1  0  0  0  0
 25 24  2  0  0  0  0
 26 27  1  0  0  0  0
 27 28  1  0  0  0  0
 29 27  2  0  0  0  0
 30 11  1  0  0  0  0
 31 30  1  0  0  0  0
 32 34  2  0  0  0  0
 33 37  1  0  0  0  0
 33 32  1  0  0  0  0
 34 36  1  0  0  0  0
 35 36  2  0  0  0  0
 36 31  1  0  0  0  0
 37 35  1  0  0  0  0
 38 37  2  0  0  0  0
M  END
>  <MODEL>
5

>  <REMARK>
 VINA RESULT:      -7.6      2.544      7.531
  Name = 
  11 active torsions:
  status: ('A' for Active; 'I' for Inactive)
    1  A    between atoms: C_2  and  O_4
    2  A    between atoms: C_2  and  C_15
    3  A    between atoms: C_2  and  N_20
    4  A    between atoms: O_4  and  C_7
    5  A    between atoms: C_13  and  N_17
    6  A    between atoms: N_17  and  C_33
    7  A    between atoms: N_19  and  C_23
    8  A    between atoms: N_19  and  N_37
    9  A    between atoms: C_21  and  P_29
   10  A    between atoms: C_21  and  C_33
   11  A    between atoms: N_31  and  N_37
                            x       y       z     vdW  Elec       q    Type
                         _______ _______ _______ _____ _____    ______ ____

>  <TORSDO>
F 11

$$$$
=
 OpenBabel10232408083D

 38 40  0  0  1  0  0  0  0  0999 V2000
  188.4620  177.9000  139.9730 C   0  0  0  0  0  2  0  0  0  0  0  0
  190.2960  176.7190  142.0130 C   0  0  0  0  0  0  0  0  0  0  0  0
  188.2460  178.1570  142.4800 C   0  0  0  0  0  3  0  0  0  0  0  0
  189.2420  177.3320  142.8240 C   0  0  0  0  0  0  0  0  0  0  0  0
  188.0410  178.7860  141.1320 C   0  0  0  0  0  2  0  0  0  0  0  0
  191.0350  175.9700  142.7650 N   0  0  0  0  0  0  0  0  0  0  0  0
  190.5910  176.0460  144.0930 N   0  0  0  0  0  0  0  0  0  0  0  0
  188.8690  177.0810  145.3790 N   0  0  0  0  0  2  0  0  0  0  0  0
  190.3600  176.6390  140.5190 C   0  0  0  0  0  2  0  0  0  0  0  0
  189.5520  176.8090  144.1510 C   0  0  0  0  0  0  0  0  0  0  0  0
  189.9150  177.8780  139.9000 N   0  0  0  0  0  0  0  0  0  0  0  0
  187.7670  178.0250  145.5020 C   0  0  1  0  0  3  0  0  0  0  0  0
  184.5370  178.7190  144.0150 C   0  0  0  0  0  3  0  0  0  0  0  0
  186.4820  177.3660  145.1060 C   0  0  0  0  0  3  0  0  0  0  0  0
  185.5070  178.0420  144.5600 C   0  0  0  0  0  0  0  0  0  0  0  0
  183.8750  178.2110  142.8580 N   0  0  0  0  0  2  0  0  0  0  0  0
  184.9690  179.7260  141.4420 O   0  0  0  0  0  1  0  0  0  0  0  0
  184.3530  178.4730  141.5020 C   0  0  2  0  0  3  0  0  0  0  0  0
  183.2480  178.3250  140.4370 C   0  0  0  0  0  0  0  0  0  0  0  0
  181.9690  179.0290  140.8630 C   0  0  0  0  0  1  0  0  0  0  0  0
  182.9400  176.8550  140.2070 C   0  0  0  0  0  1  0  0  0  0  0  0
  185.4730  178.7820  138.6660 O   0  0  0  0  0  1  0  0  0  0  0  0
  183.0720  178.3940  137.7100 O   0  0  0  0  0  0  0  0  0  0  0  0
  183.8120  179.0410  138.8580 P   0  0  0  0  0  0  0  0  0  0  0  0
  183.5080  180.7040  138.8500 O   0  0  0  0  0  1  0  0  0  0  0  0
  187.6930  178.5060  146.8410 O   0  0  0  0  0  0  0  0  0  0  0  0
  188.2970  177.8420  147.9100 C   0  0  0  0  0  0  0  0  0  0  0  0
  189.4140  178.4120  148.5890 N   0  0  0  0  0  1  0  0  0  0  0  0
  187.8550  176.7230  148.2760 O   0  0  0  0  0  0  0  0  0  0  0  0
  190.2500  177.7880  138.5420 N   0  0  0  0  0  2  0  0  0  0  0  0
  190.6580  176.4680  138.3130 N   0  0  0  0  0  2  0  0  0  0  0  0
  191.9680  175.5280  134.9310 C   0  0  0  0  0  3  0  0  0  0  0  0
  193.4600  175.4690  135.1280 C   0  0  0  0  0  2  0  0  0  0  0  0
  191.1190  175.8370  135.9150 C   0  0  0  0  0  3  0  0  0  0  0  0
  192.8910  176.1240  137.5670 C   0  0  0  0  0  3  0  0  0  0  0  0
  191.5890  176.1470  137.2800 C   0  0  0  0  0  0  0  0  0  0  0  0
  193.8850  175.7930  136.5350 C   0  0  0  0  0  0  0  0  0  0  0  0
  195.1060  175.7800  136.8320 O   0  0  0  0  0  0  0  0  0  0  0  0
  1  5  1  0  0  0  0
  2  6  2  0  0  0  0
  2  4  1  0  0  0  0
  3  4  2  0  0  0  0
  4 10  1  0  0  0  0
  5  3  1  0  0  0  0
  6  7  1  0  0  0  0
  7 10  2  0  0  0  0
  8 12  1  0  0  0  0
  9  2  1  0  0  0  0
 10  8  1  0  0  0  0
 11  1  1  0  0  0  0
 11  9  1  0  0  0  0
 12 14  1  1  0  0  0
 12 26  1  0  0  0  0
 13 15  2  0  0  0  0
 15 14  2  0  0  0  0
 16 13  1  0  0  0  0
 18 17  1  1  0  0  0
 18 16  1  0  0  0  0
 19 20  1  0  0  0  0
 19 18  1  0  0  0  0
 21 19  1  0  0  0  0
 22 24  1  0  0  0  0
 23 24  2  0  0  0  0
 24 19  1  0  0  0  0
 25 24  1  0  0  0  0
 26 27  1  0  0  0  0
 27 29  2  0  0  0  0
 27 28  1  0  0  0  0
 30 11  1  0  0  0  0
 31 30  1  0  0  0  0
 32 33  1  0  0  0  0
 32 34  2  0  0  0  0
 33 37  1  0  0  0  0
 34 36  1  0  0  0  0
 36 35  2  0  0  0  0
 36 31  1  0  0  0  0
 37 38  2  0  0  0  0
 37 35  1  0  0  0  0
M  END
>  <MODEL>
6

>  <REMARK>
 VINA RESULT:      -7.4      3.606      8.981
  Name = 
  11 active torsions:
  status: ('A' for Active; 'I' for Inactive)
    1  A    between atoms: C_2  and  O_4
    2  A    between atoms: C_2  and  C_15
    3  A    between atoms: C_2  and  N_20
    4  A    between atoms: O_4  and  C_7
    5  A    between atoms: C_13  and  N_17
    6  A    between atoms: N_17  and  C_33
    7  A    between atoms: N_19  and  C_23
    8  A    between atoms: N_19  and  N_37
    9  A    between atoms: C_21  and  P_29
   10  A    between atoms: C_21  and  C_33
   11  A    between atoms: N_31  and  N_37
                            x       y       z     vdW  Elec       q    Type
                         _______ _______ _______ _____ _____    ______ ____

>  <TORSDO>
F 11

$$$$
=
 OpenBabel10232408083D

 38 40  0  0  1  0  0  0  0  0999 V2000
  186.7040  178.6320  138.6490 C   0  0  0  0  0  2  0  0  0  0  0  0
  188.9620  177.6420  140.3340 C   0  0  0  0  0  0  0  0  0  0  0  0
  188.3600  176.8360  137.9930 C   0  0  0  0  0  3  0  0  0  0  0  0
  189.1560  176.9360  139.0650 C   0  0  0  0  0  0  0  0  0  0  0  0
  186.9510  177.3440  137.8840 C   0  0  0  0  0  2  0  0  0  0  0  0
  190.0080  177.4810  141.0770 N   0  0  0  0  0  0  0  0  0  0  0  0
  190.9340  176.6550  140.4230 N   0  0  0  0  0  0  0  0  0  0  0  0
  191.1980  175.5050  138.3500 N   0  0  0  0  0  2  0  0  0  0  0  0
  187.9270  178.6770  140.6470 C   0  0  0  0  0  2  0  0  0  0  0  0
  190.4740  176.3420  139.2580 C   0  0  0  0  0  0  0  0  0  0  0  0
  186.6370  178.3310  140.0710 N   0  0  0  0  0  0  0  0  0  0  0  0
  190.6630  175.0370  137.0780 C   0  0  1  0  0  3  0  0  0  0  0  0
  194.0750  176.1210  136.5220 C   0  0  0  0  0  3  0  0  0  0  0  0
  191.6910  175.2000  136.0010 C   0  0  0  0  0  3  0  0  0  0  0  0
  192.8850  175.6620  136.2600 C   0  0  0  0  0  0  0  0  0  0  0  0
  195.2260  175.4630  135.9940 N   0  0  0  0  0  2  0  0  0  0  0  0
  197.4520  175.7990  136.6490 O   0  0  0  0  0  1  0  0  0  0  0  0
  196.3220  174.9980  136.8410 C   0  0  2  0  0  3  0  0  0  0  0  0
  196.6390  173.5020  136.6430 C   0  0  0  0  0  0  0  0  0  0  0  0
  198.0750  173.1840  137.0310 C   0  0  0  0  0  1  0  0  0  0  0  0
  196.4310  173.1140  135.1890 C   0  0  0  0  0  1  0  0  0  0  0  0
  193.9840  172.4330  136.9580 O   0  0  0  0  0  0  0  0  0  0  0  0
  196.0650  171.0880  137.7890 O   0  0  0  0  0  1  0  0  0  0  0  0
  195.5190  172.4920  137.6670 P   0  0  0  0  0  0  0  0  0  0  0  0
  195.3900  173.1750  139.2080 O   0  0  0  0  0  1  0  0  0  0  0  0
  190.2700  173.6720  137.1950 O   0  0  0  0  0  0  0  0  0  0  0  0
  189.0720  173.1900  136.6660 C   0  0  0  0  0  0  0  0  0  0  0  0
  189.0650  172.1110  135.7340 N   0  0  0  0  0  1  0  0  0  0  0  0
  187.9840  173.7180  137.0120 O   0  0  0  0  0  0  0  0  0  0  0  0
  185.7020  179.2140  140.6270 N   0  0  0  0  0  2  0  0  0  0  0  0
  184.8310  178.4420  141.4070 N   0  0  0  0  0  2  0  0  0  0  0  0
  183.5940  179.1690  144.8680 C   0  0  0  0  0  3  0  0  0  0  0  0
  184.7520  178.7840  145.7510 C   0  0  0  0  0  2  0  0  0  0  0  0
  183.6300  179.0580  143.5370 C   0  0  0  0  0  3  0  0  0  0  0  0
  185.9030  178.1730  143.5150 C   0  0  0  0  0  3  0  0  0  0  0  0
  184.8200  178.5440  142.8300 C   0  0  0  0  0  0  0  0  0  0  0  0
  185.9370  178.2670  144.9810 C   0  0  0  0  0  0  0  0  0  0  0  0
  186.9710  177.9100  145.6010 O   0  0  0  0  0  0  0  0  0  0  0  0
  1 11  1  0  0  0  0
  2  9  1  0  0  0  0
  2  6  2  0  0  0  0
  3  4  2  0  0  0  0
  4 10  1  0  0  0  0
  4  2  1  0  0  0  0
  5  3  1  0  0  0  0
  5  1  1  0  0  0  0
  7  6  1  0  0  0  0
  8 10  1  0  0  0  0
 10  7  2  0  0  0  0
 11 30  1  0  0  0  0
 11  9  1  0  0  0  0
 12 14  1  6  0  0  0
 12 26  1  0  0  0  0
 12  8  1  0  0  0  0
 14 15  2  0  0  0  0
 15 13  2  0  0  0  0
 16 13  1  0  0  0  0
 16 18  1  0  0  0  0
 18 17  1  6  0  0  0
 19 18  1  0  0  0  0
 19 20  1  0  0  0  0
 19 24  1  0  0  0  0
 21 19  1  0  0  0  0
 22 24  2  0  0  0  0
 24 23  1  0  0  0  0
 24 25  1  0  0  0  0
 27 29  2  0  0  0  0
 27 26  1  0  0  0  0
 28 27  1  0  0  0  0
 30 31  1  0  0  0  0
 31 36  1  0  0  0  0
 32 33  1  0  0  0  0
 34 32  2  0  0  0  0
 35 37  1  0  0  0  0
 36 35  2  0  0  0  0
 36 34  1  0  0  0  0
 37 38  2  0  0  0  0
 37 33  1  0  0  0  0
M  END
>  <MODEL>
7

>  <REMARK>
 VINA RESULT:      -7.4      5.460      8.478
  Name = 
  11 active torsions:
  status: ('A' for Active; 'I' for Inactive)
    1  A    between atoms: C_2  and  O_4
    2  A    between atoms: C_2  and  C_15
    3  A    between atoms: C_2  and  N_20
    4  A    between atoms: O_4  and  C_7
    5  A    between atoms: C_13  and  N_17
    6  A    between atoms: N_17  and  C_33
    7  A    between atoms: N_19  and  C_23
    8  A    between atoms: N_19  and  N_37
    9  A    between atoms: C_21  and  P_29
   10  A    between atoms: C_21  and  C_33
   11  A    between atoms: N_31  and  N_37
                            x       y       z     vdW  Elec       q    Type
                         _______ _______ _______ _____ _____    ______ ____

>  <TORSDO>
F 11

$$$$
=
 OpenBabel10232408083D

 38 40  0  0  1  0  0  0  0  0999 V2000
  189.5480  176.8110  141.3650 C   0  0  0  0  0  2  0  0  0  0  0  0
  188.8430  178.2480  138.8440 C   0  0  0  0  0  0  0  0  0  0  0  0
  190.6240  176.4450  139.1060 C   0  0  0  0  0  3  0  0  0  0  0  0
  189.8240  177.2540  138.4010 C   0  0  0  0  0  0  0  0  0  0  0  0
  190.8080  176.4590  140.5960 C   0  0  0  0  0  2  0  0  0  0  0  0
  188.2810  178.7850  137.8100 N   0  0  0  0  0  0  0  0  0  0  0  0
  188.8410  178.2570  136.6370 N   0  0  0  0  0  0  0  0  0  0  0  0
  190.4620  176.6420  135.9620 N   0  0  0  0  0  2  0  0  0  0  0  0
  188.2790  178.4140  140.2200 C   0  0  0  0  0  2  0  0  0  0  0  0
  189.7180  177.3640  136.9500 C   0  0  0  0  0  0  0  0  0  0  0  0
  189.3020  178.2400  141.2400 N   0  0  0  0  0  0  0  0  0  0  0  0
  191.5390  175.7140  136.2760 C   0  0  1  0  0  3  0  0  0  0  0  0
  188.9630  173.1770  136.5040 C   0  0  0  0  0  3  0  0  0  0  0  0
  191.1860  174.3410  135.7940 C   0  0  0  0  0  3  0  0  0  0  0  0
  190.0740  173.7560  136.1490 C   0  0  0  0  0  0  0  0  0  0  0  0
  188.1490  172.5330  135.5260 N   0  0  0  0  0  2  0  0  0  0  0  0
  187.4110  170.3070  135.4950 O   0  0  0  0  0  1  0  0  0  0  0  0
  187.0750  171.6080  135.8820 C   0  0  2  0  0  3  0  0  0  0  0  0
  185.7040  172.0370  135.3230 C   0  0  0  0  0  0  0  0  0  0  0  0
  185.0600  170.9200  134.5160 C   0  0  0  0  0  1  0  0  0  0  0  0
  185.8640  173.2540  134.4270 C   0  0  0  0  0  1  0  0  0  0  0  0
  183.7110  173.8750  136.2960 O   0  0  0  0  0  0  0  0  0  0  0  0
  183.6280  171.3500  136.9660 O   0  0  0  0  0  1  0  0  0  0  0  0
  184.5890  172.4850  136.6950 P   0  0  0  0  0  0  0  0  0  0  0  0
  185.5000  172.7880  138.0880 O   0  0  0  0  0  1  0  0  0  0  0  0
  192.7510  176.1620  135.6760 O   0  0  0  0  0  0  0  0  0  0  0  0
  193.8650  176.5370  136.4270 C   0  0  0  0  0  0  0  0  0  0  0  0
  193.8750  176.3930  137.8450 N   0  0  0  0  0  1  0  0  0  0  0  0
  194.8730  177.0160  135.8460 O   0  0  0  0  0  0  0  0  0  0  0  0
  188.7350  178.6600  142.4500 N   0  0  0  0  0  2  0  0  0  0  0  0
  188.4970  177.5060  143.2080 N   0  0  0  0  0  2  0  0  0  0  0  0
  188.9830  177.3940  146.9210 C   0  0  0  0  0  3  0  0  0  0  0  0
  187.6160  177.7080  147.4700 C   0  0  0  0  0  2  0  0  0  0  0  0
  189.2410  177.3360  145.6110 C   0  0  0  0  0  3  0  0  0  0  0  0
  186.9460  177.8680  144.9760 C   0  0  0  0  0  3  0  0  0  0  0  0
  188.1930  177.5800  144.6000 C   0  0  0  0  0  0  0  0  0  0  0  0
  186.5880  177.9490  146.3990 C   0  0  0  0  0  0  0  0  0  0  0  0
  185.4050  178.2230  146.7260 O   0  0  0  0  0  0  0  0  0  0  0  0
  2  9  1  0  0  0  0
  3  5  1  0  0  0  0
  4  2  1  0  0  0  0
  4  3  2  0  0  0  0
  5  1  1  0  0  0  0
  6  2  2  0  0  0  0
  7 10  2  0  0  0  0
  7  6  1  0  0  0  0
  8 12  1  0  0  0  0
  8 10  1  0  0  0  0
  9 11  1  0  0  0  0
 10  4  1  0  0  0  0
 11  1  1  0  0  0  0
 11 30  1  0  0  0  0
 12 14  1  6  0  0  0
 14 15  2  0  0  0  0
 15 13  2  0  0  0  0
 16 18  1  0  0  0  0
 16 13  1  0  0  0  0
 18 17  1  6  0  0  0
 19 18  1  0  0  0  0
 19 24  1  0  0  0  0
 20 19  1  0  0  0  0
 21 19  1  0  0  0  0
 22 24  2  0  0  0  0
 24 23  1  0  0  0  0
 24 25  1  0  0  0  0
 26 12  1  0  0  0  0
 26 27  1  0  0  0  0
 27 28  1  0  0  0  0
 29 27  2  0  0  0  0
 30 31  1  0  0  0  0
 31 36  1  0  0  0  0
 32 33  1  0  0  0  0
 34 32  2  0  0  0  0
 35 37  1  0  0  0  0
 36 35  2  0  0  0  0
 36 34  1  0  0  0  0
 37 38  2  0  0  0  0
 37 33  1  0  0  0  0
M  END
>  <MODEL>
8

>  <REMARK>
 VINA RESULT:      -7.3      5.053      7.799
  Name = 
  11 active torsions:
  status: ('A' for Active; 'I' for Inactive)
    1  A    between atoms: C_2  and  O_4
    2  A    between atoms: C_2  and  C_15
    3  A    between atoms: C_2  and  N_20
    4  A    between atoms: O_4  and  C_7
    5  A    between atoms: C_13  and  N_17
    6  A    between atoms: N_17  and  C_33
    7  A    between atoms: N_19  and  C_23
    8  A    between atoms: N_19  and  N_37
    9  A    between atoms: C_21  and  P_29
   10  A    between atoms: C_21  and  C_33
   11  A    between atoms: N_31  and  N_37
                            x       y       z     vdW  Elec       q    Type
                         _______ _______ _______ _____ _____    ______ ____

>  <TORSDO>
F 11

$$$$
=
 OpenBabel10232408083D

 38 40  0  0  1  0  0  0  0  0999 V2000
  187.9330  178.1170  137.9230 C   0  0  0  0  0  2  0  0  0  0  0  0
  188.3180  175.2930  137.0310 C   0  0  0  0  0  0  0  0  0  0  0  0
  190.1310  177.0710  137.2360 C   0  0  0  0  0  3  0  0  0  0  0  0
  189.6850  175.8190  137.0790 C   0  0  0  0  0  0  0  0  0  0  0  0
  189.2910  178.3150  137.2720 C   0  0  0  0  0  2  0  0  0  0  0  0
  188.3580  174.0090  136.8830 N   0  0  0  0  0  0  0  0  0  0  0  0
  189.6910  173.5850  136.7780 N   0  0  0  0  0  0  0  0  0  0  0  0
  191.8980  174.4870  136.8420 N   0  0  0  0  0  2  0  0  0  0  0  0
  187.0600  175.9990  137.4320 C   0  0  0  0  0  2  0  0  0  0  0  0
  190.4720  174.6040  136.9040 C   0  0  0  0  0  0  0  0  0  0  0  0
  187.0710  177.3900  137.0050 N   0  0  0  0  0  0  0  0  0  0  0  0
  192.8060  175.6260  136.8630 C   0  0  1  0  0  3  0  0  0  0  0  0
  192.4640  177.6180  139.8700 C   0  0  0  0  0  3  0  0  0  0  0  0
  193.3760  175.7990  138.2370 C   0  0  0  0  0  3  0  0  0  0  0  0
  192.9210  176.7100  139.0560 C   0  0  0  0  0  0  0  0  0  0  0  0
  192.1790  177.2810  141.2270 N   0  0  0  0  0  2  0  0  0  0  0  0
  189.8850  177.6480  140.9080 O   0  0  0  0  0  1  0  0  0  0  0  0
  190.8280  176.9780  141.6930 C   0  0  2  0  0  3  0  0  0  0  0  0
  190.6320  177.2680  143.1950 C   0  0  0  0  0  0  0  0  0  0  0  0
  190.9520  178.7170  143.5270 C   0  0  0  0  0  1  0  0  0  0  0  0
  191.5390  176.3700  144.0210 C   0  0  0  0  0  1  0  0  0  0  0  0
  187.8920  178.1490  143.0920 O   0  0  0  0  0  1  0  0  0  0  0  0
  188.4690  175.6000  143.0900 O   0  0  0  0  0  0  0  0  0  0  0  0
  188.9060  176.9250  143.6720 P   0  0  0  0  0  0  0  0  0  0  0  0
  188.7870  176.8600  145.3570 O   0  0  0  0  0  1  0  0  0  0  0  0
  193.8460  175.4290  135.9090 O   0  0  0  0  0  0  0  0  0  0  0  0
  195.0060  176.2060  135.8950 C   0  0  0  0  0  0  0  0  0  0  0  0
  194.9610  177.5820  135.5220 N   0  0  0  0  0  1  0  0  0  0  0  0
  196.1060  175.6840  136.2080 O   0  0  0  0  0  0  0  0  0  0  0  0
  185.7720  177.8770  137.1990 N   0  0  0  0  0  2  0  0  0  0  0  0
  185.8230  178.7360  138.3050 N   0  0  0  0  0  2  0  0  0  0  0  0
  182.6200  178.0280  140.1140 C   0  0  0  0  0  3  0  0  0  0  0  0
  182.9300  178.3850  141.5440 C   0  0  0  0  0  2  0  0  0  0  0  0
  183.5170  178.1380  139.1290 C   0  0  0  0  0  3  0  0  0  0  0  0
  185.2710  178.9670  140.6080 C   0  0  0  0  0  3  0  0  0  0  0  0
  184.8890  178.6230  139.3770 C   0  0  0  0  0  0  0  0  0  0  0  0
  184.3390  178.8720  141.7410 C   0  0  0  0  0  0  0  0  0  0  0  0
  184.7260  179.2020  142.8910 O   0  0  0  0  0  0  0  0  0  0  0  0
  2  4  1  0  0  0  0
  2  9  1  0  0  0  0
  3  5  1  0  0  0  0
  4  3  2  0  0  0  0
  5  1  1  0  0  0  0
  6  2  2  0  0  0  0
  7  6  1  0  0  0  0
  7 10  2  0  0  0  0
  8 12  1  0  0  0  0
  8 10  1  0  0  0  0
 10  4  1  0  0  0  0
 11 30  1  0  0  0  0
 11  9  1  0  0  0  0
 11  1  1  0  0  0  0
 12 14  1  1  0  0  0
 13 16  1  0  0  0  0
 14 15  2  0  0  0  0
 15 13  2  0  0  0  0
 16 18  1  0  0  0  0
 18 17  1  6  0  0  0
 18 19  1  0  0  0  0
 19 20  1  0  0  0  0
 19 24  1  0  0  0  0
 19 21  1  0  0  0  0
 22 24  1  0  0  0  0
 23 24  2  0  0  0  0
 24 25  1  0  0  0  0
 26 12  1  0  0  0  0
 27 26  1  0  0  0  0
 27 29  2  0  0  0  0
 28 27  1  0  0  0  0
 30 31  1  0  0  0  0
 31 36  1  0  0  0  0
 32 33  1  0  0  0  0
 33 37  1  0  0  0  0
 34 36  1  0  0  0  0
 34 32  2  0  0  0  0
 35 37  1  0  0  0  0
 36 35  2  0  0  0  0
 37 38  2  0  0  0  0
M  END
>  <MODEL>
9

>  <REMARK>
 VINA RESULT:      -7.3      4.278      9.426
  Name = 
  11 active torsions:
  status: ('A' for Active; 'I' for Inactive)
    1  A    between atoms: C_2  and  O_4
    2  A    between atoms: C_2  and  C_15
    3  A    between atoms: C_2  and  N_20
    4  A    between atoms: O_4  and  C_7
    5  A    between atoms: C_13  and  N_17
    6  A    between atoms: N_17  and  C_33
    7  A    between atoms: N_19  and  C_23
    8  A    between atoms: N_19  and  N_37
    9  A    between atoms: C_21  and  P_29
   10  A    between atoms: C_21  and  C_33
   11  A    between atoms: N_31  and  N_37
                            x       y       z     vdW  Elec       q    Type
                         _______ _______ _______ _____ _____    ______ ____

>  <TORSDO>
F 11

$$$$
