=
 OpenBabel10232409433D

 35 39  0  0  1  0  0  0  0  0999 V2000
  189.0120  177.1130  138.4250 C   0  0  0  0  0  0  0  0  0  0  0  0
  187.7530  177.1470  138.4710 O   0  0  0  0  0  0  0  0  0  0  0  0
  190.8470  177.2880  141.3290 C   0  0  0  0  0  3  0  0  0  0  0  0
  191.2030  176.5240  137.9170 N   0  0  0  0  0  0  0  0  0  0  0  0
  189.8430  176.4930  137.3360 C   0  0  2  0  0  3  0  0  0  0  0  0
  189.8530  177.5690  139.4610 N   0  0  0  0  0  0  0  0  0  0  0  0
  191.7910  176.9830  140.3400 C   0  0  0  0  0  3  0  0  0  0  0  0
  191.0790  177.1950  139.1740 C   0  0  0  0  0  0  0  0  0  0  0  0
  189.6520  177.5820  140.7610 N   0  0  0  0  0  0  0  0  0  0  0  0
  193.4780  171.4330  136.1170 C   0  0  0  0  0  1  0  0  0  0  0  0
  193.7620  177.2420  137.5930 O   0  0  0  0  0  1  0  0  0  0  0  0
  194.7020  175.0480  137.2670 C   0  0  1  0  0  0  0  0  0  0  0  0
  194.9830  175.1070  138.6400 O   0  0  0  0  0  1  0  0  0  0  0  0
  195.1030  172.7070  137.8790 O   0  0  0  0  0  1  0  0  0  0  0  0
  194.3950  176.6890  135.0240 C   0  0  0  0  0  2  0  0  0  0  0  0
  194.5850  173.5300  136.8690 C   0  0  1  0  0  3  0  0  0  0  0  0
  192.1870  175.4600  137.6980 C   0  0  2  0  0  3  0  0  0  0  0  0
  193.4690  175.9930  137.0180 C   0  0  1  0  0  0  0  0  0  0  0  0
  195.5570  175.7210  135.2180 C   0  0  0  0  0  2  0  0  0  0  0  0
  193.2900  172.9330  136.2710 C   0  0  0  0  0  0  0  0  0  0  0  0
  193.2370  176.1630  135.6310 O   0  0  0  0  0  0  0  0  0  0  0  0
  192.1940  173.1140  137.1510 O   0  0  0  0  0  0  0  0  0  0  0  0
  193.0680  173.4280  134.8380 C   0  0  0  0  0  1  0  0  0  0  0  0
  191.5400  174.3310  136.9080 C   0  0  0  0  0  2  0  0  0  0  0  0
  195.8340  175.5850  136.5960 O   0  0  0  0  0  0  0  0  0  0  0  0
  189.7950  177.3560  136.0850 C   0  0  0  0  0  2  0  0  0  0  0  0
  189.3680  176.3370  134.6410 S   0  0  0  0  0  0  0  0  0  0  0  0
  187.1110  178.3690  134.5380 O   0  0  0  0  0  1  0  0  0  0  0  0
  188.1820  173.8280  135.8810 O   0  0  0  0  0  1  0  0  0  0  0  0
  187.2770  174.8740  135.7550 C   0  0  0  0  0  0  0  0  0  0  0  0
  186.7420  177.1450  135.0830 C   0  0  0  0  0  0  0  0  0  0  0  0
  185.9600  174.6990  136.1890 C   0  0  0  0  0  3  0  0  0  0  0  0
  185.0350  175.7370  136.0690 C   0  0  0  0  0  3  0  0  0  0  0  0
  187.6770  176.1030  135.2030 C   0  0  0  0  0  0  0  0  0  0  0  0
  185.4260  176.9580  135.5150 C   0  0  0  0  0  3  0  0  0  0  0  0
  1  2  2  0  0  0  0
  1  6  1  0  0  0  0
  4  8  1  0  0  0  0
  5 26  1  6  0  0  0
  5  4  1  0  0  0  0
  5  1  1  0  0  0  0
  6  9  1  0  0  0  0
  7  3  1  0  0  0  0
  8  6  1  0  0  0  0
  8  7  2  0  0  0  0
  9  3  2  0  0  0  0
 10 20  1  0  0  0  0
 12 13  1  1  0  0  0
 15 19  1  0  0  0  0
 15 21  1  0  0  0  0
 16 12  1  0  0  0  0
 16 14  1  1  0  0  0
 17 24  1  6  0  0  0
 17  4  1  0  0  0  0
 18 12  1  0  0  0  0
 18 11  1  1  0  0  0
 18 17  1  0  0  0  0
 19 25  1  0  0  0  0
 20 16  1  0  0  0  0
 20 22  1  0  0  0  0
 21 18  1  0  0  0  0
 23 20  1  0  0  0  0
 24 22  1  0  0  0  0
 25 12  1  0  0  0  0
 27 34  1  0  0  0  0
 27 26  1  0  0  0  0
 28 31  1  0  0  0  0
 30 29  1  0  0  0  0
 30 32  1  0  0  0  0
 31 34  1  0  0  0  0
 31 35  2  0  0  0  0
 33 32  2  0  0  0  0
 34 30  2  0  0  0  0
 35 33  1  0  0  0  0
M  END
>  <MODEL>
1

>  <REMARK>
 VINA RESULT:      -6.0      0.000      0.000
  Name = 
  4 active torsions:
  status: ('A' for Active; 'I' for Inactive)
    1  A    between atoms: C_4  and  C_16
    2  A    between atoms: C_4  and  S_21
    3  A    between atoms: N_15  and  C_17
    4  A    between atoms: S_21  and  C_30
                            x       y       z     vdW  Elec       q    Type
                         _______ _______ _______ _____ _____    ______ ____

>  <TORSDO>
F 4

$$$$
=
 OpenBabel10232409433D

 35 39  0  0  1  0  0  0  0  0999 V2000
  192.6270  177.1350  139.5160 C   0  0  0  0  0  0  0  0  0  0  0  0
  193.7160  177.7620  139.6190 O   0  0  0  0  0  0  0  0  0  0  0  0
  190.0930  177.7050  141.7700 C   0  0  0  0  0  3  0  0  0  0  0  0
  190.6910  176.1670  138.6670 N   0  0  0  0  0  0  0  0  0  0  0  0
  192.0610  176.5420  138.2560 C   0  0  2  0  0  3  0  0  0  0  0  0
  191.7010  176.9820  140.5680 N   0  0  0  0  0  0  0  0  0  0  0  0
  189.5060  176.8990  140.7850 C   0  0  0  0  0  3  0  0  0  0  0  0
  190.6020  176.4690  140.0630 C   0  0  0  0  0  0  0  0  0  0  0  0
  191.4300  177.7870  141.5720 N   0  0  0  0  0  0  0  0  0  0  0  0
  186.9940  178.4140  134.7160 C   0  0  0  0  0  1  0  0  0  0  0  0
  189.7500  173.9130  137.5700 O   0  0  0  0  0  1  0  0  0  0  0  0
  187.9610  174.8750  136.2740 C   0  0  1  0  0  0  0  0  0  0  0  0
  187.1580  174.5360  137.3720 O   0  0  0  0  0  1  0  0  0  0  0  0
  185.9490  176.2440  135.9670 O   0  0  0  0  0  1  0  0  0  0  0  0
  190.2740  174.0710  134.9230 C   0  0  0  0  0  2  0  0  0  0  0  0
  187.2730  176.0820  135.5350 C   0  0  1  0  0  3  0  0  0  0  0  0
  189.5330  176.2750  137.7740 C   0  0  2  0  0  3  0  0  0  0  0  0
  189.4240  175.0600  136.8250 C   0  0  1  0  0  0  0  0  0  0  0  0
  188.8660  173.9560  134.3470 C   0  0  0  0  0  2  0  0  0  0  0  0
  187.9750  177.4490  135.3590 C   0  0  0  0  0  0  0  0  0  0  0  0
  190.3490  175.2010  135.7610 O   0  0  0  0  0  0  0  0  0  0  0  0
  188.3230  178.0060  136.6150 O   0  0  0  0  0  0  0  0  0  0  0  0
  189.1200  177.3520  134.3460 C   0  0  0  0  0  1  0  0  0  0  0  0
  189.6030  177.5950  137.0190 C   0  0  0  0  0  2  0  0  0  0  0  0
  187.9410  173.7600  135.3940 O   0  0  0  0  0  0  0  0  0  0  0  0
  192.8430  175.2970  137.8650 C   0  0  0  0  0  2  0  0  0  0  0  0
  194.0500  175.7010  136.5680 S   0  0  0  0  0  0  0  0  0  0  0  0
  193.6870  173.1730  134.9210 O   0  0  0  0  0  1  0  0  0  0  0  0
  196.1860  175.0580  138.6320 O   0  0  0  0  0  1  0  0  0  0  0  0
  195.8900  174.0000  137.7820 C   0  0  0  0  0  0  0  0  0  0  0  0
  194.6410  173.0580  135.9260 C   0  0  0  0  0  0  0  0  0  0  0  0
  196.5630  172.7850  137.9380 C   0  0  0  0  0  3  0  0  0  0  0  0
  196.2830  171.7110  137.0920 C   0  0  0  0  0  3  0  0  0  0  0  0
  194.9200  174.1420  136.7760 C   0  0  0  0  0  0  0  0  0  0  0  0
  195.3230  171.8490  136.0860 C   0  0  0  0  0  3  0  0  0  0  0  0
  1  2  2  0  0  0  0
  1  6  1  0  0  0  0
  4  8  1  0  0  0  0
  5 26  1  1  0  0  0
  5  4  1  0  0  0  0
  5  1  1  0  0  0  0
  6  9  1  0  0  0  0
  7  3  1  0  0  0  0
  8  6  1  0  0  0  0
  8  7  2  0  0  0  0
  9  3  2  0  0  0  0
 10 20  1  0  0  0  0
 12 18  1  0  0  0  0
 12 13  1  1  0  0  0
 15 21  1  0  0  0  0
 16 14  1  1  0  0  0
 16 12  1  0  0  0  0
 17 24  1  6  0  0  0
 17  4  1  0  0  0  0
 18 11  1  1  0  0  0
 18 17  1  0  0  0  0
 19 15  1  0  0  0  0
 19 25  1  0  0  0  0
 20 16  1  0  0  0  0
 20 22  1  0  0  0  0
 21 18  1  0  0  0  0
 22 24  1  0  0  0  0
 23 20  1  0  0  0  0
 25 12  1  0  0  0  0
 27 34  1  0  0  0  0
 27 26  1  0  0  0  0
 28 31  1  0  0  0  0
 30 32  1  0  0  0  0
 30 29  1  0  0  0  0
 31 35  2  0  0  0  0
 31 34  1  0  0  0  0
 33 32  2  0  0  0  0
 34 30  2  0  0  0  0
 35 33  1  0  0  0  0
M  END
>  <MODEL>
2

>  <REMARK>
 VINA RESULT:      -5.9      1.951      6.688
  Name = 
  4 active torsions:
  status: ('A' for Active; 'I' for Inactive)
    1  A    between atoms: C_4  and  C_16
    2  A    between atoms: C_4  and  S_21
    3  A    between atoms: N_15  and  C_17
    4  A    between atoms: S_21  and  C_30
                            x       y       z     vdW  Elec       q    Type
                         _______ _______ _______ _____ _____    ______ ____

>  <TORSDO>
F 4

$$$$
=
 OpenBabel10232409433D

 35 39  0  0  1  0  0  0  0  0999 V2000
  192.5440  177.1290  139.5680 C   0  0  0  0  0  0  0  0  0  0  0  0
  193.6310  177.7560  139.6860 O   0  0  0  0  0  0  0  0  0  0  0  0
  189.9840  177.6830  141.7970 C   0  0  0  0  0  3  0  0  0  0  0  0
  190.6180  176.1650  138.6920 N   0  0  0  0  0  0  0  0  0  0  0  0
  191.9920  176.5430  138.2970 C   0  0  2  0  0  3  0  0  0  0  0  0
  191.6070  176.9680  140.6090 N   0  0  0  0  0  0  0  0  0  0  0  0
  189.4100  176.8820  140.8010 C   0  0  0  0  0  3  0  0  0  0  0  0
  190.5140  176.4570  140.0880 C   0  0  0  0  0  0  0  0  0  0  0  0
  191.3240  177.7670  141.6150 N   0  0  0  0  0  0  0  0  0  0  0  0
  186.9670  178.4290  134.7070 C   0  0  0  0  0  1  0  0  0  0  0  0
  189.6840  173.9150  137.5780 O   0  0  0  0  0  1  0  0  0  0  0  0
  187.9120  174.8840  136.2660 C   0  0  1  0  0  0  0  0  0  0  0  0
  187.0960  174.5440  137.3550 O   0  0  0  0  0  1  0  0  0  0  0  0
  185.9050  176.2580  135.9420 O   0  0  0  0  0  1  0  0  0  0  0  0
  190.2370  174.0790  134.9370 C   0  0  0  0  0  2  0  0  0  0  0  0
  187.2330  176.0940  135.5230 C   0  0  1  0  0  3  0  0  0  0  0  0
  189.4700  176.2770  137.7870 C   0  0  2  0  0  3  0  0  0  0  0  0
  189.3680  175.0650  136.8330 C   0  0  1  0  0  0  0  0  0  0  0  0
  188.8350  173.9680  134.3460 C   0  0  0  0  0  2  0  0  0  0  0  0
  187.9390  177.4600  135.3590 C   0  0  0  0  0  0  0  0  0  0  0  0
  190.3050  175.2070  135.7800 O   0  0  0  0  0  0  0  0  0  0  0  0
  188.2750  178.0130  136.6190 O   0  0  0  0  0  0  0  0  0  0  0  0
  189.0950  177.3640  134.3570 C   0  0  0  0  0  1  0  0  0  0  0  0
  189.5500  177.5990  137.0350 C   0  0  0  0  0  2  0  0  0  0  0  0
  187.8980  173.7710  135.3830 O   0  0  0  0  0  0  0  0  0  0  0  0
  192.7800  175.3020  137.9080 C   0  0  0  0  0  2  0  0  0  0  0  0
  193.9580  175.7010  136.5830 S   0  0  0  0  0  0  0  0  0  0  0  0
  196.0470  175.0420  138.6890 O   0  0  0  0  0  1  0  0  0  0  0  0
  193.6550  173.1950  134.8890 O   0  0  0  0  0  1  0  0  0  0  0  0
  194.5830  173.0710  135.9150 C   0  0  0  0  0  0  0  0  0  0  0  0
  195.7780  173.9950  137.8150 C   0  0  0  0  0  0  0  0  0  0  0  0
  195.2710  171.8650  136.0770 C   0  0  0  0  0  3  0  0  0  0  0  0
  196.2050  171.7190  137.1030 C   0  0  0  0  0  3  0  0  0  0  0  0
  194.8380  174.1470  136.7830 C   0  0  0  0  0  0  0  0  0  0  0  0
  196.4570  172.7830  137.9720 C   0  0  0  0  0  3  0  0  0  0  0  0
  1  2  2  0  0  0  0
  1  6  1  0  0  0  0
  4  8  1  0  0  0  0
  5 26  1  1  0  0  0
  5  4  1  0  0  0  0
  5  1  1  0  0  0  0
  6  9  1  0  0  0  0
  7  3  1  0  0  0  0
  8  6  1  0  0  0  0
  8  7  2  0  0  0  0
  9  3  2  0  0  0  0
 10 20  1  0  0  0  0
 12 18  1  0  0  0  0
 12 13  1  1  0  0  0
 15 21  1  0  0  0  0
 16 14  1  1  0  0  0
 16 12  1  0  0  0  0
 17 24  1  6  0  0  0
 17  4  1  0  0  0  0
 18 11  1  1  0  0  0
 18 17  1  0  0  0  0
 19 15  1  0  0  0  0
 19 25  1  0  0  0  0
 20 16  1  0  0  0  0
 20 22  1  0  0  0  0
 21 18  1  0  0  0  0
 22 24  1  0  0  0  0
 23 20  1  0  0  0  0
 25 12  1  0  0  0  0
 27 34  1  0  0  0  0
 27 26  1  0  0  0  0
 29 30  1  0  0  0  0
 30 32  2  0  0  0  0
 30 34  1  0  0  0  0
 31 35  1  0  0  0  0
 31 28  1  0  0  0  0
 32 33  1  0  0  0  0
 33 35  2  0  0  0  0
 34 31  2  0  0  0  0
M  END
>  <MODEL>
3

>  <REMARK>
 VINA RESULT:      -5.9      1.937      6.672
  Name = 
  4 active torsions:
  status: ('A' for Active; 'I' for Inactive)
    1  A    between atoms: C_4  and  C_16
    2  A    between atoms: C_4  and  S_21
    3  A    between atoms: N_15  and  C_17
    4  A    between atoms: S_21  and  C_30
                            x       y       z     vdW  Elec       q    Type
                         _______ _______ _______ _____ _____    ______ ____

>  <TORSDO>
F 4

$$$$
=
 OpenBabel10232409433D

 35 39  0  0  1  0  0  0  0  0999 V2000
  189.9880  177.3040  137.3620 C   0  0  0  0  0  0  0  0  0  0  0  0
  189.6750  178.5180  137.4930 O   0  0  0  0  0  0  0  0  0  0  0  0
  189.5110  175.7190  134.3480 C   0  0  0  0  0  3  0  0  0  0  0  0
  191.1390  175.2860  137.4320 N   0  0  0  0  0  0  0  0  0  0  0  0
  191.0180  176.5620  138.1680 C   0  0  2  0  0  3  0  0  0  0  0  0
  189.4860  176.4640  136.3470 N   0  0  0  0  0  0  0  0  0  0  0  0
  190.2430  174.8000  135.1110 C   0  0  0  0  0  3  0  0  0  0  0  0
  190.1730  175.3440  136.3790 C   0  0  0  0  0  0  0  0  0  0  0  0
  189.1150  176.7590  135.1200 N   0  0  0  0  0  0  0  0  0  0  0  0
  194.9750  171.2120  135.6920 C   0  0  0  0  0  1  0  0  0  0  0  0
  193.3900  176.7360  137.4170 O   0  0  0  0  0  1  0  0  0  0  0  0
  194.9630  174.9380  137.1090 C   0  0  1  0  0  0  0  0  0  0  0  0
  195.0860  174.9800  138.5060 O   0  0  0  0  0  1  0  0  0  0  0  0
  195.9800  172.7770  137.6690 O   0  0  0  0  0  1  0  0  0  0  0  0
  194.3930  176.5710  134.9120 C   0  0  0  0  0  2  0  0  0  0  0  0
  195.3380  173.4830  136.6420 C   0  0  1  0  0  3  0  0  0  0  0  0
  192.4100  174.5710  137.2800 C   0  0  2  0  0  3  0  0  0  0  0  0
  193.5340  175.4990  136.7650 C   0  0  1  0  0  0  0  0  0  0  0  0
  195.7660  175.9710  135.1940 C   0  0  0  0  0  2  0  0  0  0  0  0
  194.3390  172.5780  135.8830 C   0  0  0  0  0  0  0  0  0  0  0  0
  193.3920  175.6910  135.3680 O   0  0  0  0  0  0  0  0  0  0  0  0
  193.1620  172.3720  136.6450 O   0  0  0  0  0  0  0  0  0  0  0  0
  194.1140  173.0860  134.4550 C   0  0  0  0  0  1  0  0  0  0  0  0
  192.2020  173.3610  136.3800 C   0  0  0  0  0  2  0  0  0  0  0  0
  195.9420  175.8250  136.5870 O   0  0  0  0  0  0  0  0  0  0  0  0
  190.4950  176.3020  139.5730 C   0  0  0  0  0  2  0  0  0  0  0  0
  191.1240  177.5660  140.7160 S   0  0  0  0  0  0  0  0  0  0  0  0
  188.3670  178.7900  140.3510 O   0  0  0  0  0  1  0  0  0  0  0  0
  191.0060  175.9890  143.3120 O   0  0  0  0  0  1  0  0  0  0  0  0
  189.8140  176.6240  142.9850 C   0  0  0  0  0  0  0  0  0  0  0  0
  188.4950  178.0230  141.5040 C   0  0  0  0  0  0  0  0  0  0  0  0
  188.7120  176.4950  143.8340 C   0  0  0  0  0  3  0  0  0  0  0  0
  187.5050  177.1210  143.5220 C   0  0  0  0  0  3  0  0  0  0  0  0
  189.7120  177.3950  141.8150 C   0  0  0  0  0  0  0  0  0  0  0  0
  187.3960  177.8840  142.3570 C   0  0  0  0  0  3  0  0  0  0  0  0
  1  2  2  0  0  0  0
  1  5  1  0  0  0  0
  3  7  1  0  0  0  0
  3  9  2  0  0  0  0
  4  5  1  0  0  0  0
  5 26  1  1  0  0  0
  6  8  1  0  0  0  0
  6  1  1  0  0  0  0
  7  8  2  0  0  0  0
  8  4  1  0  0  0  0
  9  6  1  0  0  0  0
 10 20  1  0  0  0  0
 12 13  1  1  0  0  0
 15 19  1  0  0  0  0
 15 21  1  0  0  0  0
 16 12  1  0  0  0  0
 16 14  1  1  0  0  0
 17 24  1  6  0  0  0
 17  4  1  0  0  0  0
 18 12  1  0  0  0  0
 18 17  1  0  0  0  0
 18 11  1  1  0  0  0
 19 25  1  0  0  0  0
 20 16  1  0  0  0  0
 20 22  1  0  0  0  0
 21 18  1  0  0  0  0
 23 20  1  0  0  0  0
 24 22  1  0  0  0  0
 25 12  1  0  0  0  0
 26 27  1  0  0  0  0
 27 34  1  0  0  0  0
 28 31  1  0  0  0  0
 30 29  1  0  0  0  0
 30 32  1  0  0  0  0
 31 34  1  0  0  0  0
 31 35  2  0  0  0  0
 33 32  2  0  0  0  0
 34 30  2  0  0  0  0
 35 33  1  0  0  0  0
M  END
>  <MODEL>
4

>  <REMARK>
 VINA RESULT:      -5.7      2.534      4.368
  Name = 
  4 active torsions:
  status: ('A' for Active; 'I' for Inactive)
    1  A    between atoms: C_4  and  C_16
    2  A    between atoms: C_4  and  S_21
    3  A    between atoms: N_15  and  C_17
    4  A    between atoms: S_21  and  C_30
                            x       y       z     vdW  Elec       q    Type
                         _______ _______ _______ _____ _____    ______ ____

>  <TORSDO>
F 4

$$$$
=
 OpenBabel10232409433D

 35 39  0  0  1  0  0  0  0  0999 V2000
  190.0510  176.1270  138.0400 C   0  0  0  0  0  0  0  0  0  0  0  0
  190.8830  175.7700  138.9160 O   0  0  0  0  0  0  0  0  0  0  0  0
  190.7340  175.6190  134.7080 C   0  0  0  0  0  3  0  0  0  0  0  0
  188.0810  176.4650  136.8520 N   0  0  0  0  0  0  0  0  0  0  0  0
  188.5680  176.2810  138.2360 C   0  0  2  0  0  3  0  0  0  0  0  0
  190.3730  176.3400  136.6840 N   0  0  0  0  0  0  0  0  0  0  0  0
  189.3970  176.0370  134.7280 C   0  0  0  0  0  3  0  0  0  0  0  0
  189.2470  176.4920  136.0240 C   0  0  0  0  0  0  0  0  0  0  0  0
  191.2860  175.7580  135.9370 N   0  0  0  0  0  0  0  0  0  0  0  0
  183.5900  172.7570  136.2060 C   0  0  0  0  0  1  0  0  0  0  0  0
  186.1130  178.2000  136.3150 O   0  0  0  0  0  1  0  0  0  0  0  0
  184.4210  176.6170  135.6560 C   0  0  1  0  0  0  0  0  0  0  0  0
  184.8570  176.8900  134.3520 O   0  0  0  0  0  1  0  0  0  0  0  0
  183.5530  174.7340  134.3460 O   0  0  0  0  0  1  0  0  0  0  0  0
  184.2020  177.7950  138.1830 C   0  0  0  0  0  2  0  0  0  0  0  0
  183.7910  175.1750  135.6560 C   0  0  1  0  0  3  0  0  0  0  0  0
  186.8040  175.9230  136.3770 C   0  0  2  0  0  3  0  0  0  0  0  0
  185.6380  176.9100  136.6100 C   0  0  1  0  0  0  0  0  0  0  0  0
  183.0090  177.4460  137.2990 C   0  0  0  0  0  2  0  0  0  0  0  0
  184.3460  174.0330  136.5370 C   0  0  0  0  0  0  0  0  0  0  0  0
  185.2360  176.8630  137.9680 O   0  0  0  0  0  0  0  0  0  0  0  0
  185.7100  173.7810  136.2430 O   0  0  0  0  0  0  0  0  0  0  0  0
  184.0310  174.2780  138.0170 C   0  0  0  0  0  1  0  0  0  0  0  0
  186.5570  174.5720  137.0340 C   0  0  0  0  0  2  0  0  0  0  0  0
  183.3820  177.5430  135.9410 O   0  0  0  0  0  0  0  0  0  0  0  0
  188.2750  177.5270  139.0580 C   0  0  0  0  0  2  0  0  0  0  0  0
  189.6950  177.9210  140.1210 S   0  0  0  0  0  0  0  0  0  0  0  0
  190.4600  175.8430  142.2010 O   0  0  0  0  0  1  0  0  0  0  0  0
  187.0990  179.1680  141.0940 O   0  0  0  0  0  1  0  0  0  0  0  0
  187.6000  178.1830  141.9360 C   0  0  0  0  0  0  0  0  0  0  0  0
  189.2820  176.5220  142.4900 C   0  0  0  0  0  0  0  0  0  0  0  0
  186.9040  177.8590  143.1040 C   0  0  0  0  0  3  0  0  0  0  0  0
  187.3930  176.8750  143.9650 C   0  0  0  0  0  3  0  0  0  0  0  0
  188.7930  177.5110  141.6200 C   0  0  0  0  0  0  0  0  0  0  0  0
  188.5810  176.2080  143.6580 C   0  0  0  0  0  3  0  0  0  0  0  0
  1  5  1  0  0  0  0
  1  2  2  0  0  0  0
  3  7  1  0  0  0  0
  3  9  2  0  0  0  0
  4  5  1  0  0  0  0
  5 26  1  1  0  0  0
  6  1  1  0  0  0  0
  7  8  2  0  0  0  0
  8  6  1  0  0  0  0
  8  4  1  0  0  0  0
  9  6  1  0  0  0  0
 10 20  1  0  0  0  0
 12 13  1  6  0  0  0
 12 25  1  0  0  0  0
 12 18  1  0  0  0  0
 16 14  1  6  0  0  0
 16 12  1  0  0  0  0
 16 20  1  0  0  0  0
 17 18  1  0  0  0  0
 17  4  1  1  0  0  0
 17 24  1  0  0  0  0
 18 11  1  6  0  0  0
 18 21  1  0  0  0  0
 19 15  1  0  0  0  0
 20 23  1  0  0  0  0
 21 15  1  0  0  0  0
 22 20  1  0  0  0  0
 22 24  1  0  0  0  0
 25 19  1  0  0  0  0
 26 27  1  0  0  0  0
 27 34  1  0  0  0  0
 28 31  1  0  0  0  0
 29 30  1  0  0  0  0
 30 32  1  0  0  0  0
 31 35  2  0  0  0  0
 32 33  2  0  0  0  0
 34 30  2  0  0  0  0
 34 31  1  0  0  0  0
 35 33  1  0  0  0  0
M  END
>  <MODEL>
5

>  <REMARK>
 VINA RESULT:      -5.7      3.335      7.951
  Name = 
  4 active torsions:
  status: ('A' for Active; 'I' for Inactive)
    1  A    between atoms: C_4  and  C_16
    2  A    between atoms: C_4  and  S_21
    3  A    between atoms: N_15  and  C_17
    4  A    between atoms: S_21  and  C_30
                            x       y       z     vdW  Elec       q    Type
                         _______ _______ _______ _____ _____    ______ ____

>  <TORSDO>
F 4

$$$$
=
 OpenBabel10232409433D

 35 39  0  0  1  0  0  0  0  0999 V2000
  182.8690  178.7730  139.8630 C   0  0  0  0  0  0  0  0  0  0  0  0
  181.7370  178.8690  140.4090 O   0  0  0  0  0  0  0  0  0  0  0  0
  185.7180  178.8060  141.7880 C   0  0  0  0  0  3  0  0  0  0  0  0
  184.6390  178.0820  138.5230 N   0  0  0  0  0  0  0  0  0  0  0  0
  183.1610  178.1300  138.5350 C   0  0  2  0  0  3  0  0  0  0  0  0
  184.0770  179.1680  140.4730 N   0  0  0  0  0  0  0  0  0  0  0  0
  186.1700  178.4700  140.5050 C   0  0  0  0  0  3  0  0  0  0  0  0
  185.0650  178.7370  139.7210 C   0  0  0  0  0  0  0  0  0  0  0  0
  184.4140  179.1690  141.7440 N   0  0  0  0  0  0  0  0  0  0  0  0
  185.7280  172.9340  135.9440 C   0  0  0  0  0  1  0  0  0  0  0  0
  186.9180  178.6690  137.2460 O   0  0  0  0  0  1  0  0  0  0  0  0
  187.5230  176.4390  136.5650 C   0  0  1  0  0  0  0  0  0  0  0  0
  188.3110  176.4380  137.7250 O   0  0  0  0  0  1  0  0  0  0  0  0
  187.9800  174.0610  136.9570 O   0  0  0  0  0  1  0  0  0  0  0  0
  186.4820  178.1640  134.6260 C   0  0  0  0  0  2  0  0  0  0  0  0
  187.1670  174.9430  136.2300 C   0  0  1  0  0  3  0  0  0  0  0  0
  185.3960  176.9730  137.9340 C   0  0  2  0  0  3  0  0  0  0  0  0
  186.3490  177.4570  136.8170 C   0  0  1  0  0  0  0  0  0  0  0  0
  187.5670  177.1290  134.3510 C   0  0  0  0  0  2  0  0  0  0  0  0
  185.7070  174.4360  136.1710 C   0  0  0  0  0  0  0  0  0  0  0  0
  185.6150  177.6840  135.6280 O   0  0  0  0  0  0  0  0  0  0  0  0
  185.0450  174.6490  137.4060 O   0  0  0  0  0  0  0  0  0  0  0  0
  184.9840  174.9880  134.9380 C   0  0  0  0  0  1  0  0  0  0  0  0
  184.4260  175.9070  137.4430 C   0  0  0  0  0  2  0  0  0  0  0  0
  188.3410  176.9340  135.5150 O   0  0  0  0  0  0  0  0  0  0  0  0
  182.6620  179.0150  137.4030 C   0  0  0  0  0  2  0  0  0  0  0  0
  180.8460  179.0120  137.3640 S   0  0  0  0  0  0  0  0  0  0  0  0
  180.8150  181.6450  138.8800 O   0  0  0  0  0  1  0  0  0  0  0  0
  180.7390  179.7400  134.4150 O   0  0  0  0  0  1  0  0  0  0  0  0
  180.7330  180.8380  135.2650 C   0  0  0  0  0  0  0  0  0  0  0  0
  180.7720  181.7900  137.4980 C   0  0  0  0  0  0  0  0  0  0  0  0
  180.6790  182.1260  134.7240 C   0  0  0  0  0  3  0  0  0  0  0  0
  180.6750  183.2420  135.5610 C   0  0  0  0  0  3  0  0  0  0  0  0
  180.7750  180.6640  136.6590 C   0  0  0  0  0  0  0  0  0  0  0  0
  180.7230  183.0740  136.9470 C   0  0  0  0  0  3  0  0  0  0  0  0
  1  2  2  0  0  0  0
  1  6  1  0  0  0  0
  4  5  1  0  0  0  0
  4  8  1  0  0  0  0
  5 26  1  6  0  0  0
  5  1  1  0  0  0  0
  6  9  1  0  0  0  0
  7  3  1  0  0  0  0
  8  6  1  0  0  0  0
  8  7  2  0  0  0  0
  9  3  2  0  0  0  0
 10 20  1  0  0  0  0
 12 18  1  0  0  0  0
 12 13  1  1  0  0  0
 15 21  1  0  0  0  0
 16 12  1  0  0  0  0
 16 14  1  1  0  0  0
 17 24  1  6  0  0  0
 17  4  1  0  0  0  0
 18 11  1  1  0  0  0
 18 17  1  0  0  0  0
 19 15  1  0  0  0  0
 19 25  1  0  0  0  0
 20 16  1  0  0  0  0
 20 22  1  0  0  0  0
 21 18  1  0  0  0  0
 22 24  1  0  0  0  0
 23 20  1  0  0  0  0
 25 12  1  0  0  0  0
 27 26  1  0  0  0  0
 29 30  1  0  0  0  0
 30 34  1  0  0  0  0
 31 28  1  0  0  0  0
 32 30  2  0  0  0  0
 32 33  1  0  0  0  0
 33 35  2  0  0  0  0
 34 27  1  0  0  0  0
 34 31  2  0  0  0  0
 35 31  1  0  0  0  0
M  END
>  <MODEL>
6

>  <REMARK>
 VINA RESULT:      -5.2      5.270      7.557
  Name = 
  4 active torsions:
  status: ('A' for Active; 'I' for Inactive)
    1  A    between atoms: C_4  and  C_16
    2  A    between atoms: C_4  and  S_21
    3  A    between atoms: N_15  and  C_17
    4  A    between atoms: S_21  and  C_30
                            x       y       z     vdW  Elec       q    Type
                         _______ _______ _______ _____ _____    ______ ____

>  <TORSDO>
F 4

$$$$
=
 OpenBabel10232409433D

 35 39  0  0  1  0  0  0  0  0999 V2000
  183.5370  179.4260  138.8290 C   0  0  0  0  0  0  0  0  0  0  0  0
  183.4470  180.6610  139.0650 O   0  0  0  0  0  0  0  0  0  0  0  0
  181.8430  178.0540  136.1690 C   0  0  0  0  0  3  0  0  0  0  0  0
  184.3720  177.2840  138.4840 N   0  0  0  0  0  0  0  0  0  0  0  0
  184.6790  178.5300  139.2210 C   0  0  2  0  0  3  0  0  0  0  0  0
  182.6100  178.7010  138.0530 N   0  0  0  0  0  0  0  0  0  0  0  0
  182.6710  177.0190  136.6250 C   0  0  0  0  0  3  0  0  0  0  0  0
  183.1160  177.5070  137.8380 C   0  0  0  0  0  0  0  0  0  0  0  0
  181.8760  179.0950  137.0350 N   0  0  0  0  0  0  0  0  0  0  0  0
  186.8320  172.7190  135.7570 C   0  0  0  0  0  1  0  0  0  0  0  0
  186.4890  178.4880  137.3700 O   0  0  0  0  0  1  0  0  0  0  0  0
  187.6630  176.5180  136.6320 C   0  0  1  0  0  0  0  0  0  0  0  0
  188.3720  176.6480  137.8350 O   0  0  0  0  0  1  0  0  0  0  0  0
  188.6820  174.3090  136.9480 O   0  0  0  0  0  1  0  0  0  0  0  0
  186.3150  178.0390  134.7100 C   0  0  0  0  0  2  0  0  0  0  0  0
  187.7090  175.0020  136.2130 C   0  0  1  0  0  3  0  0  0  0  0  0
  185.4090  176.4320  137.8940 C   0  0  2  0  0  3  0  0  0  0  0  0
  186.2620  177.1980  136.8580 C   0  0  1  0  0  0  0  0  0  0  0  0
  187.6370  177.3210  134.4560 C   0  0  0  0  0  2  0  0  0  0  0  0
  186.4260  174.1540  136.0460 C   0  0  0  0  0  0  0  0  0  0  0  0
  185.5500  177.3030  135.6370 O   0  0  0  0  0  0  0  0  0  0  0  0
  185.6760  174.1270  137.2480 O   0  0  0  0  0  0  0  0  0  0  0  0
  185.6470  174.5780  134.7970 C   0  0  0  0  0  1  0  0  0  0  0  0
  184.7600  175.1890  137.3020 C   0  0  0  0  0  2  0  0  0  0  0  0
  188.3800  177.2590  135.6540 O   0  0  0  0  0  0  0  0  0  0  0  0
  184.6480  178.2670  140.7180 C   0  0  0  0  0  2  0  0  0  0  0  0
  185.6070  179.5390  141.5940 S   0  0  0  0  0  0  0  0  0  0  0  0
  188.1670  178.7880  140.1400 O   0  0  0  0  0  1  0  0  0  0  0  0
  185.5720  177.8820  144.1420 O   0  0  0  0  0  1  0  0  0  0  0  0
  186.6880  177.6630  143.3450 C   0  0  0  0  0  0  0  0  0  0  0  0
  187.9860  178.1170  141.3440 C   0  0  0  0  0  0  0  0  0  0  0  0
  187.6570  176.7430  143.7560 C   0  0  0  0  0  3  0  0  0  0  0  0
  188.7870  176.5120  142.9720 C   0  0  0  0  0  3  0  0  0  0  0  0
  186.8470  178.3530  142.1310 C   0  0  0  0  0  0  0  0  0  0  0  0
  188.9520  177.1990  141.7670 C   0  0  0  0  0  3  0  0  0  0  0  0
  1  2  2  0  0  0  0
  1  5  1  0  0  0  0
  3  7  1  0  0  0  0
  3  9  2  0  0  0  0
  4  5  1  0  0  0  0
  5 26  1  1  0  0  0
  6  1  1  0  0  0  0
  7  8  2  0  0  0  0
  8  6  1  0  0  0  0
  8  4  1  0  0  0  0
  9  6  1  0  0  0  0
 10 20  1  0  0  0  0
 12 18  1  0  0  0  0
 12 13  1  1  0  0  0
 15 21  1  0  0  0  0
 16 12  1  0  0  0  0
 16 14  1  1  0  0  0
 17 24  1  6  0  0  0
 17  4  1  0  0  0  0
 18 11  1  1  0  0  0
 18 17  1  0  0  0  0
 19 15  1  0  0  0  0
 19 25  1  0  0  0  0
 20 16  1  0  0  0  0
 20 22  1  0  0  0  0
 21 18  1  0  0  0  0
 22 24  1  0  0  0  0
 23 20  1  0  0  0  0
 25 12  1  0  0  0  0
 26 27  1  0  0  0  0
 27 34  1  0  0  0  0
 28 31  1  0  0  0  0
 30 32  1  0  0  0  0
 30 29  1  0  0  0  0
 31 35  2  0  0  0  0
 31 34  1  0  0  0  0
 33 32  2  0  0  0  0
 34 30  2  0  0  0  0
 35 33  1  0  0  0  0
M  END
>  <MODEL>
7

>  <REMARK>
 VINA RESULT:      -5.0      4.917      7.520
  Name = 
  4 active torsions:
  status: ('A' for Active; 'I' for Inactive)
    1  A    between atoms: C_4  and  C_16
    2  A    between atoms: C_4  and  S_21
    3  A    between atoms: N_15  and  C_17
    4  A    between atoms: S_21  and  C_30
                            x       y       z     vdW  Elec       q    Type
                         _______ _______ _______ _____ _____    ______ ____

>  <TORSDO>
F 4

$$$$
=
 OpenBabel10232409433D

 35 39  0  0  1  0  0  0  0  0999 V2000
  183.3640  175.1150  135.8930 C   0  0  0  0  0  0  0  0  0  0  0  0
  182.4160  175.1200  135.0630 O   0  0  0  0  0  0  0  0  0  0  0  0
  184.3810  172.1630  137.3330 C   0  0  0  0  0  3  0  0  0  0  0  0
  185.4040  175.5010  136.9390 N   0  0  0  0  0  0  0  0  0  0  0  0
  184.4710  176.1300  135.9790 C   0  0  2  0  0  3  0  0  0  0  0  0
  183.5970  174.0810  136.8220 N   0  0  0  0  0  0  0  0  0  0  0  0
  185.3500  173.0930  137.7290 C   0  0  0  0  0  3  0  0  0  0  0  0
  184.7690  174.2960  137.3750 C   0  0  0  0  0  0  0  0  0  0  0  0
  183.3480  172.7930  136.7230 N   0  0  0  0  0  0  0  0  0  0  0  0
  190.7500  175.3650  134.5430 C   0  0  0  0  0  1  0  0  0  0  0  0
  186.6330  177.3600  138.4250 O   0  0  0  0  0  1  0  0  0  0  0  0
  188.8910  176.9610  137.6870 C   0  0  1  0  0  0  0  0  0  0  0  0
  188.9840  176.1540  138.8310 O   0  0  0  0  0  1  0  0  0  0  0  0
  190.8530  175.5550  137.2490 O   0  0  0  0  0  1  0  0  0  0  0  0
  187.5700  179.2220  136.7050 C   0  0  0  0  0  2  0  0  0  0  0  0
  189.9380  176.4270  136.6410 C   0  0  1  0  0  3  0  0  0  0  0  0
  186.8610  175.6130  136.8240 C   0  0  2  0  0  3  0  0  0  0  0  0
  187.3700  176.9980  137.2840 C   0  0  1  0  0  0  0  0  0  0  0  0
  189.0620  179.1760  137.0210 C   0  0  0  0  0  2  0  0  0  0  0  0
  189.5180  175.9110  135.2450 C   0  0  0  0  0  0  0  0  0  0  0  0
  187.1430  177.9540  136.2630 O   0  0  0  0  0  0  0  0  0  0  0  0
  188.6050  174.8330  135.3550 O   0  0  0  0  0  0  0  0  0  0  0  0
  189.0620  177.0670  134.3470 C   0  0  0  0  0  1  0  0  0  0  0  0
  187.2790  175.2900  135.3960 C   0  0  0  0  0  2  0  0  0  0  0  0
  189.2940  178.2670  138.0750 O   0  0  0  0  0  0  0  0  0  0  0  0
  183.9420  177.4360  136.5510 C   0  0  0  0  0  2  0  0  0  0  0  0
  183.4410  177.2000  138.2820 S   0  0  0  0  0  0  0  0  0  0  0  0
  184.4650  179.8750  139.2970 O   0  0  0  0  0  1  0  0  0  0  0  0
  180.5930  177.6950  137.3420 O   0  0  0  0  0  1  0  0  0  0  0  0
  181.2230  178.8260  137.8440 C   0  0  0  0  0  0  0  0  0  0  0  0
  183.1600  179.9160  138.8210 C   0  0  0  0  0  0  0  0  0  0  0  0
  180.5310  180.0400  137.8770 C   0  0  0  0  0  3  0  0  0  0  0  0
  181.1470  181.1890  138.3750 C   0  0  0  0  0  3  0  0  0  0  0  0
  182.5430  178.7570  138.3210 C   0  0  0  0  0  0  0  0  0  0  0  0
  182.4610  181.1270  138.8450 C   0  0  0  0  0  3  0  0  0  0  0  0
  1  5  1  0  0  0  0
  1  6  1  0  0  0  0
  2  1  2  0  0  0  0
  3  7  1  0  0  0  0
  4  8  1  0  0  0  0
  5 26  1  1  0  0  0
  5  4  1  0  0  0  0
  6  8  1  0  0  0  0
  8  7  2  0  0  0  0
  9  6  1  0  0  0  0
  9  3  2  0  0  0  0
 10 20  1  0  0  0  0
 12 25  1  0  0  0  0
 12 13  1  1  0  0  0
 15 19  1  0  0  0  0
 16 14  1  1  0  0  0
 16 12  1  0  0  0  0
 17 24  1  6  0  0  0
 17  4  1  0  0  0  0
 17 18  1  0  0  0  0
 18 12  1  0  0  0  0
 18 11  1  1  0  0  0
 19 25  1  0  0  0  0
 20 22  1  0  0  0  0
 20 16  1  0  0  0  0
 21 15  1  0  0  0  0
 21 18  1  0  0  0  0
 22 24  1  0  0  0  0
 23 20  1  0  0  0  0
 26 27  1  0  0  0  0
 27 34  1  0  0  0  0
 29 30  1  0  0  0  0
 30 32  2  0  0  0  0
 30 34  1  0  0  0  0
 31 35  1  0  0  0  0
 31 28  1  0  0  0  0
 32 33  1  0  0  0  0
 33 35  2  0  0  0  0
 34 31  2  0  0  0  0
M  END
>  <MODEL>
8

>  <REMARK>
 VINA RESULT:      -5.0      4.084      6.628
  Name = 
  4 active torsions:
  status: ('A' for Active; 'I' for Inactive)
    1  A    between atoms: C_4  and  C_16
    2  A    between atoms: C_4  and  S_21
    3  A    between atoms: N_15  and  C_17
    4  A    between atoms: S_21  and  C_30
                            x       y       z     vdW  Elec       q    Type
                         _______ _______ _______ _____ _____    ______ ____

>  <TORSDO>
F 4

$$$$
=
 OpenBabel10232409433D

 35 39  0  0  1  0  0  0  0  0999 V2000
  187.9630  176.9570  137.6840 C   0  0  0  0  0  0  0  0  0  0  0  0
  188.9560  176.2850  138.0740 O   0  0  0  0  0  0  0  0  0  0  0  0
  187.1390  177.0360  134.3460 C   0  0  0  0  0  3  0  0  0  0  0  0
  185.8370  177.8780  137.5000 N   0  0  0  0  0  0  0  0  0  0  0  0
  186.7640  177.3290  138.5120 C   0  0  2  0  0  3  0  0  0  0  0  0
  187.7710  177.3850  136.3540 N   0  0  0  0  0  0  0  0  0  0  0  0
  186.0660  177.6710  134.9840 C   0  0  0  0  0  3  0  0  0  0  0  0
  186.5530  177.8670  136.2610 C   0  0  0  0  0  0  0  0  0  0  0  0
  188.1440  176.8170  135.2280 N   0  0  0  0  0  0  0  0  0  0  0  0
  180.6770  175.1180  137.8040 C   0  0  0  0  0  1  0  0  0  0  0  0
  184.3740  179.7510  138.7350 O   0  0  0  0  0  1  0  0  0  0  0  0
  182.2050  178.7420  138.4560 C   0  0  1  0  0  0  0  0  0  0  0  0
  182.1060  179.5740  137.3320 O   0  0  0  0  0  1  0  0  0  0  0  0
  180.3930  177.7360  137.1440 O   0  0  0  0  0  1  0  0  0  0  0  0
  183.3990  178.6050  140.9810 C   0  0  0  0  0  2  0  0  0  0  0  0
  181.2700  177.4990  138.2120 C   0  0  1  0  0  3  0  0  0  0  0  0
  184.3850  177.6810  137.5580 C   0  0  2  0  0  3  0  0  0  0  0  0
  183.7400  178.4970  138.7020 C   0  0  1  0  0  0  0  0  0  0  0  0
  181.9000  178.7670  140.7550 C   0  0  0  0  0  2  0  0  0  0  0  0
  181.8150  176.0530  138.1770 C   0  0  0  0  0  0  0  0  0  0  0  0
  183.9520  177.8370  139.9370 O   0  0  0  0  0  0  0  0  0  0  0  0
  182.8030  175.9060  137.1720 O   0  0  0  0  0  0  0  0  0  0  0  0
  182.2320  175.5890  139.5770 C   0  0  0  0  0  1  0  0  0  0  0  0
  184.0840  176.1930  137.6680 C   0  0  0  0  0  2  0  0  0  0  0  0
  181.6760  179.4730  139.5530 O   0  0  0  0  0  0  0  0  0  0  0  0
  187.1350  178.4090  139.5160 C   0  0  0  0  0  2  0  0  0  0  0  0
  188.9080  178.3190  139.9030 S   0  0  0  0  0  0  0  0  0  0  0  0
  186.7020  179.1410  141.8240 O   0  0  0  0  0  1  0  0  0  0  0  0
  190.4850  176.1400  141.3190 O   0  0  0  0  0  1  0  0  0  0  0  0
  189.4230  176.6390  142.0620 C   0  0  0  0  0  0  0  0  0  0  0  0
  187.5310  178.1390  142.3140 C   0  0  0  0  0  0  0  0  0  0  0  0
  189.1780  176.1260  143.3390 C   0  0  0  0  0  3  0  0  0  0  0  0
  188.1140  176.6110  144.1010 C   0  0  0  0  0  3  0  0  0  0  0  0
  188.6010  177.6540  141.5440 C   0  0  0  0  0  0  0  0  0  0  0  0
  187.2910  177.6160  143.5880 C   0  0  0  0  0  3  0  0  0  0  0  0
  1  2  2  0  0  0  0
  1  5  1  0  0  0  0
  3  7  1  0  0  0  0
  3  9  2  0  0  0  0
  4  5  1  0  0  0  0
  5 26  1  1  0  0  0
  6  1  1  0  0  0  0
  7  8  2  0  0  0  0
  8  6  1  0  0  0  0
  8  4  1  0  0  0  0
  9  6  1  0  0  0  0
 10 20  1  0  0  0  0
 12 13  1  6  0  0  0
 12 18  1  0  0  0  0
 12 25  1  0  0  0  0
 16 14  1  6  0  0  0
 16 12  1  0  0  0  0
 17  4  1  1  0  0  0
 17 24  1  0  0  0  0
 17 18  1  0  0  0  0
 18 11  1  1  0  0  0
 18 21  1  0  0  0  0
 19 15  1  0  0  0  0
 20 16  1  0  0  0  0
 20 23  1  0  0  0  0
 21 15  1  0  0  0  0
 22 24  1  0  0  0  0
 22 20  1  0  0  0  0
 25 19  1  0  0  0  0
 26 27  1  0  0  0  0
 27 34  1  0  0  0  0
 28 31  1  0  0  0  0
 29 30  1  0  0  0  0
 30 32  1  0  0  0  0
 31 35  2  0  0  0  0
 32 33  2  0  0  0  0
 34 30  2  0  0  0  0
 34 31  1  0  0  0  0
 35 33  1  0  0  0  0
M  END
>  <MODEL>
9

>  <REMARK>
 VINA RESULT:      -5.0      4.828      9.488
  Name = 
  4 active torsions:
  status: ('A' for Active; 'I' for Inactive)
    1  A    between atoms: C_4  and  C_16
    2  A    between atoms: C_4  and  S_21
    3  A    between atoms: N_15  and  C_17
    4  A    between atoms: S_21  and  C_30
                            x       y       z     vdW  Elec       q    Type
                         _______ _______ _______ _____ _____    ______ ____

>  <TORSDO>
F 4

$$$$
