=
 OpenBabel10232409553D

 34 36  0  0  1  0  0  0  0  0999 V2000
  190.4310  176.3370  138.4730 C   0  0  2  0  0  3  0  0  0  0  0  0
  191.3810  174.3520  137.8250 O   0  0  0  0  0  0  0  0  0  0  0  0
  193.2230  175.1570  136.6280 C   0  0  0  0  0  2  0  0  0  0  0  0
  193.6480  176.8230  138.2430 O   0  0  0  0  0  1  0  0  0  0  0  0
  192.5440  173.9320  137.1640 C   0  0  0  0  0  2  0  0  0  0  0  0
  191.6820  175.5700  138.3660 N   0  0  0  0  0  0  0  0  0  0  0  0
  192.6390  176.2340  137.4820 C   0  0  2  0  0  3  0  0  0  0  0  0
  190.0190  177.0070  137.1600 C   0  0  0  0  0  2  0  0  0  0  0  0
  188.8270  176.2820  136.5680 C   0  0  0  0  0  2  0  0  0  0  0  0
  187.6700  176.4490  137.4360 N   0  0  0  0  0  0  0  0  0  0  0  0
  186.5880  175.6290  136.9090 C   0  0  0  0  0  2  0  0  0  0  0  0
  186.1600  173.2760  137.4030 C   0  0  0  0  0  2  0  0  0  0  0  0
  186.9910  174.1940  136.9220 C   0  0  0  0  0  3  0  0  0  0  0  0
  187.2680  177.8640  137.4790 C   0  0  0  0  0  2  0  0  0  0  0  0
  185.9620  178.1220  138.2370 C   0  0  0  0  0  2  0  0  0  0  0  0
  185.5410  179.5480  141.7440 N   0  0  0  0  0  1  0  0  0  0  0  0
  183.9970  178.8750  140.1470 O   0  0  0  0  0  0  0  0  0  0  0  0
  186.2470  178.6650  139.5550 N   0  0  0  0  0  2  0  0  0  0  0  0
  185.2060  179.0220  140.4650 C   0  0  0  0  0  0  0  0  0  0  0  0
  190.5020  177.3420  139.6210 C   0  0  0  0  0  2  0  0  0  0  0  0
  189.5000  176.9900  140.7080 C   0  0  0  0  0  2  0  0  0  0  0  0
  190.2240  176.6210  141.9920 C   0  0  0  0  0  2  0  0  0  0  0  0
  189.5170  177.2340  145.7700 C   0  0  0  0  0  3  0  0  0  0  0  0
  188.2370  177.4170  145.9950 C   0  0  2  0  0  3  0  0  0  0  0  0
  187.0860  177.4220  145.0750 C   0  0  0  0  0  0  0  0  0  0  0  0
  189.3490  176.8820  143.1660 C   0  0  0  0  0  0  0  0  0  0  0  0
  187.3850  177.6930  147.1490 N   0  0  0  0  0  2  0  0  0  0  0  0
  188.0280  177.0060  142.9040 C   0  0  0  0  0  3  0  0  0  0  0  0
  186.2890  177.6680  146.2390 C   0  0  1  0  0  3  0  0  0  0  0  0
  190.0120  176.9870  144.4490 N   0  0  0  0  0  0  0  0  0  0  0  0
  186.9400  177.2600  143.8080 N   0  0  0  0  0  0  0  0  0  0  0  0
  185.6380  179.0430  146.1560 C   0  0  0  0  0  2  0  0  0  0  0  0
  183.6840  178.7250  144.7260 C   0  0  0  0  0  2  0  0  0  0  0  0
  184.1680  178.9050  145.9490 C   0  0  0  0  0  3  0  0  0  0  0  0
  1  8  1  6  0  0  0
  1 20  1  0  0  0  0
  2  6  1  0  0  0  0
  3  5  1  0  0  0  0
  3  7  1  0  0  0  0
  5  2  1  0  0  0  0
  6  1  1  0  0  0  0
  7  4  1  1  0  0  0
  7  6  1  0  0  0  0
  9  8  1  0  0  0  0
  9 10  1  0  0  0  0
 10 14  1  0  0  0  0
 11 13  1  0  0  0  0
 11 10  1  0  0  0  0
 13 12  2  0  0  0  0
 14 15  1  0  0  0  0
 15 18  1  0  0  0  0
 17 19  2  0  0  0  0
 18 19  1  0  0  0  0
 19 16  1  0  0  0  0
 20 21  1  0  0  0  0
 21 22  1  0  0  0  0
 22 26  1  0  0  0  0
 24 23  1  6  0  0  0
 24 27  1  0  0  0  0
 25 24  1  0  0  0  0
 25 29  1  0  0  0  0
 26 30  1  0  0  0  0
 28 26  2  0  0  0  0
 28 31  1  0  0  0  0
 29 32  1  6  0  0  0
 29 27  1  0  0  0  0
 30 23  2  0  0  0  0
 31 25  2  0  0  0  0
 33 34  2  0  0  0  0
 34 32  1  0  0  0  0
M  END
>  <MODEL>
1

>  <REMARK>
 VINA RESULT:      -6.9      0.000      0.000
  Name = 
  15 active torsions:
  status: ('A' for Active; 'I' for Inactive)
    1  A    between atoms: C_7  and  C_13
    2  A    between atoms: C_7  and  N_33
    3  A    between atoms: C_9  and  C_20
    4  A    between atoms: C_9  and  C_22
    5  A    between atoms: C_10  and  C_24
    6  A    between atoms: C_15  and  C_28
    7  A    between atoms: C_15  and  N_30
    8  A    between atoms: C_16  and  C_18
    9  A    between atoms: C_16  and  C_24
   10  A    between atoms: N_17  and  C_20
   11  A    between atoms: C_18  and  C_20
   12  A    between atoms: C_21  and  C_25
   13  A    between atoms: C_21  and  C_27
   14  A    between atoms: C_22  and  N_33
   15  A    between atoms: C_28  and  N_33
                            x       y       z     vdW  Elec       q    Type
                         _______ _______ _______ _____ _____    ______ ____

>  <TORSDO>
F 15

$$$$
=
 OpenBabel10232409553D

 34 36  0  0  1  0  0  0  0  0999 V2000
  189.2680  178.1190  141.7540 C   0  0  2  0  0  3  0  0  0  0  0  0
  190.4710  176.6730  140.4410 O   0  0  0  0  0  0  0  0  0  0  0  0
  189.2610  176.8350  138.4460 C   0  0  0  0  0  2  0  0  0  0  0  0
  189.0390  179.1730  138.6760 O   0  0  0  0  0  1  0  0  0  0  0  0
  190.4810  176.2600  139.1010 C   0  0  0  0  0  2  0  0  0  0  0  0
  189.9040  177.9150  140.4430 N   0  0  0  0  0  0  0  0  0  0  0  0
  188.9200  177.9640  139.3620 C   0  0  2  0  0  3  0  0  0  0  0  0
  190.0960  177.5690  142.9180 C   0  0  0  0  0  2  0  0  0  0  0  0
  190.1660  178.6000  144.0270 C   0  0  0  0  0  2  0  0  0  0  0  0
  190.0430  177.9400  145.3200 N   0  0  0  0  0  0  0  0  0  0  0  0
  191.1700  177.0290  145.4680 C   0  0  0  0  0  2  0  0  0  0  0  0
  191.9900  176.2860  147.6450 C   0  0  0  0  0  2  0  0  0  0  0  0
  191.0260  176.2510  146.7320 C   0  0  0  0  0  3  0  0  0  0  0  0
  188.7730  177.2020  145.3930 C   0  0  0  0  0  2  0  0  0  0  0  0
  187.7840  177.7590  146.4220 C   0  0  0  0  0  2  0  0  0  0  0  0
  184.2280  178.9260  145.7130 N   0  0  0  0  0  1  0  0  0  0  0  0
  185.7670  179.5410  147.3370 O   0  0  0  0  0  0  0  0  0  0  0  0
  186.4660  177.9050  145.8240 N   0  0  0  0  0  2  0  0  0  0  0  0
  185.5010  178.8220  146.3380 C   0  0  0  0  0  0  0  0  0  0  0  0
  187.8450  177.5670  141.7630 C   0  0  0  0  0  2  0  0  0  0  0  0
  186.8390  178.6760  142.0240 C   0  0  0  0  0  2  0  0  0  0  0  0
  185.4870  178.0840  142.3910 C   0  0  0  0  0  2  0  0  0  0  0  0
  181.8300  178.5150  141.1290 C   0  0  0  0  0  3  0  0  0  0  0  0
  181.7860  179.2160  140.0210 C   0  0  0  0  0  0  0  0  0  0  0  0
  182.8600  179.8330  139.2230 C   0  0  0  0  0  0  0  0  0  0  0  0
  184.4440  178.5700  141.4490 C   0  0  0  0  0  0  0  0  0  0  0  0
  180.7550  179.7070  139.1100 N   0  0  0  0  0  2  0  0  0  0  0  0
  184.8870  179.2930  140.3960 C   0  0  0  0  0  3  0  0  0  0  0  0
  181.8160  180.2720  138.3460 C   0  0  1  0  0  3  0  0  0  0  0  0
  183.0760  178.2250  141.7750 N   0  0  0  0  0  2  0  0  0  0  0  0
  184.1400  179.8960  139.3260 N   0  0  0  0  0  0  0  0  0  0  0  0
  181.7230  181.7920  138.3520 C   0  0  0  0  0  2  0  0  0  0  0  0
  181.0030  183.5110  136.7730 C   0  0  0  0  0  2  0  0  0  0  0  0
  180.8920  182.2600  137.2060 C   0  0  0  0  0  3  0  0  0  0  0  0
  1 20  1  6  0  0  0
  1  8  1  0  0  0  0
  2  6  1  0  0  0  0
  3  5  1  0  0  0  0
  3  7  1  0  0  0  0
  5  2  1  0  0  0  0
  6  1  1  0  0  0  0
  7  4  1  6  0  0  0
  7  6  1  0  0  0  0
  8  9  1  0  0  0  0
  9 10  1  0  0  0  0
 10 14  1  0  0  0  0
 10 11  1  0  0  0  0
 11 13  1  0  0  0  0
 13 12  2  0  0  0  0
 14 15  1  0  0  0  0
 16 19  1  0  0  0  0
 18 19  1  0  0  0  0
 18 15  1  0  0  0  0
 19 17  2  0  0  0  0
 20 21  1  0  0  0  0
 21 22  1  0  0  0  0
 23 30  1  0  0  0  0
 24 23  2  0  0  0  0
 25 31  2  0  0  0  0
 25 24  1  0  0  0  0
 26 30  1  0  0  0  0
 26 22  1  0  0  0  0
 27 24  1  0  0  0  0
 28 26  2  0  0  0  0
 29 32  1  1  0  0  0
 29 27  1  0  0  0  0
 29 25  1  0  0  0  0
 31 28  1  0  0  0  0
 33 34  2  0  0  0  0
 34 32  1  0  0  0  0
M  END
>  <MODEL>
2

>  <REMARK>
 VINA RESULT:      -6.9      3.341      7.324
  Name = 
  15 active torsions:
  status: ('A' for Active; 'I' for Inactive)
    1  A    between atoms: C_7  and  C_13
    2  A    between atoms: C_7  and  N_33
    3  A    between atoms: C_9  and  C_20
    4  A    between atoms: C_9  and  C_22
    5  A    between atoms: C_10  and  C_24
    6  A    between atoms: C_15  and  C_28
    7  A    between atoms: C_15  and  N_30
    8  A    between atoms: C_16  and  C_18
    9  A    between atoms: C_16  and  C_24
   10  A    between atoms: N_17  and  C_20
   11  A    between atoms: C_18  and  C_20
   12  A    between atoms: C_21  and  C_25
   13  A    between atoms: C_21  and  C_27
   14  A    between atoms: C_22  and  N_33
   15  A    between atoms: C_28  and  N_33
                            x       y       z     vdW  Elec       q    Type
                         _______ _______ _______ _____ _____    ______ ____

>  <TORSDO>
F 15

$$$$
=
 OpenBabel10232409553D

 34 36  0  0  1  0  0  0  0  0999 V2000
  186.0820  177.9470  137.5530 C   0  0  2  0  0  3  0  0  0  0  0  0
  186.9920  177.5280  135.4900 O   0  0  0  0  0  0  0  0  0  0  0  0
  187.7330  175.3330  135.8120 C   0  0  0  0  0  2  0  0  0  0  0  0
  185.7650  174.7530  136.9750 O   0  0  0  0  0  1  0  0  0  0  0  0
  187.5610  176.4390  134.8140 C   0  0  0  0  0  2  0  0  0  0  0  0
  186.1740  176.9890  136.4410 N   0  0  0  0  0  0  0  0  0  0  0  0
  186.7630  175.7220  136.8770 C   0  0  2  0  0  3  0  0  0  0  0  0
  187.0910  177.6730  138.6720 C   0  0  0  0  0  2  0  0  0  0  0  0
  188.3900  178.3980  138.3790 C   0  0  0  0  0  2  0  0  0  0  0  0
  189.3140  178.2170  139.4900 N   0  0  0  0  0  0  0  0  0  0  0  0
  189.9290  176.9040  139.3530 C   0  0  0  0  0  2  0  0  0  0  0  0
  191.2130  175.6860  137.6690 C   0  0  0  0  0  2  0  0  0  0  0  0
  190.7190  176.8450  138.0900 C   0  0  0  0  0  3  0  0  0  0  0  0
  188.5960  178.3170  140.7690 C   0  0  0  0  0  2  0  0  0  0  0  0
  189.1610  177.4250  141.8780 C   0  0  0  0  0  2  0  0  0  0  0  0
  191.8320  178.9170  144.1470 N   0  0  0  0  0  1  0  0  0  0  0  0
  191.9230  177.2580  142.5280 O   0  0  0  0  0  0  0  0  0  0  0  0
  189.8320  178.2360  142.8820 N   0  0  0  0  0  2  0  0  0  0  0  0
  191.2260  178.0970  143.1560 C   0  0  0  0  0  0  0  0  0  0  0  0
  184.6540  178.0280  138.0890 C   0  0  0  0  0  2  0  0  0  0  0  0
  184.5580  179.0450  139.2130 C   0  0  0  0  0  2  0  0  0  0  0  0
  183.3680  178.7320  140.1050 C   0  0  0  0  0  2  0  0  0  0  0  0
  182.7040  178.8920  143.9370 C   0  0  0  0  0  3  0  0  0  0  0  0
  183.8250  178.8640  144.6190 C   0  0  2  0  0  3  0  0  0  0  0  0
  185.2270  178.7870  144.1710 C   0  0  0  0  0  0  0  0  0  0  0  0
  183.7760  178.7680  141.5350 C   0  0  0  0  0  0  0  0  0  0  0  0
  184.2190  178.8810  146.0250 N   0  0  0  0  0  2  0  0  0  0  0  0
  185.1060  178.7110  141.7720 C   0  0  0  0  0  3  0  0  0  0  0  0
  185.5650  178.8300  145.5620 C   0  0  1  0  0  3  0  0  0  0  0  0
  182.7040  178.8470  142.5050 N   0  0  0  0  0  0  0  0  0  0  0  0
  185.8080  178.7240  143.0260 N   0  0  0  0  0  0  0  0  0  0  0  0
  186.2240  177.5240  145.9890 C   0  0  0  0  0  2  0  0  0  0  0  0
  188.6470  177.5790  146.2880 C   0  0  0  0  0  2  0  0  0  0  0  0
  187.4430  177.8040  146.8000 C   0  0  0  0  0  3  0  0  0  0  0  0
  1 20  1  1  0  0  0
  1  8  1  0  0  0  0
  2  6  1  0  0  0  0
  3  7  1  0  0  0  0
  5  2  1  0  0  0  0
  5  3  1  0  0  0  0
  6  7  1  0  0  0  0
  6  1  1  0  0  0  0
  7  4  1  6  0  0  0
  9  8  1  0  0  0  0
  9 10  1  0  0  0  0
 10 14  1  0  0  0  0
 11 10  1  0  0  0  0
 12 13  2  0  0  0  0
 13 11  1  0  0  0  0
 14 15  1  0  0  0  0
 15 18  1  0  0  0  0
 17 19  2  0  0  0  0
 18 19  1  0  0  0  0
 19 16  1  0  0  0  0
 20 21  1  0  0  0  0
 21 22  1  0  0  0  0
 22 26  1  0  0  0  0
 24 23  1  1  0  0  0
 24 27  1  0  0  0  0
 25 24  1  0  0  0  0
 25 29  1  0  0  0  0
 26 28  2  0  0  0  0
 26 30  1  0  0  0  0
 28 31  1  0  0  0  0
 29 32  1  1  0  0  0
 29 27  1  0  0  0  0
 30 23  2  0  0  0  0
 31 25  2  0  0  0  0
 32 34  1  0  0  0  0
 33 34  2  0  0  0  0
M  END
>  <MODEL>
3

>  <REMARK>
 VINA RESULT:      -6.6      2.281      5.331
  Name = 
  15 active torsions:
  status: ('A' for Active; 'I' for Inactive)
    1  A    between atoms: C_7  and  C_13
    2  A    between atoms: C_7  and  N_33
    3  A    between atoms: C_9  and  C_20
    4  A    between atoms: C_9  and  C_22
    5  A    between atoms: C_10  and  C_24
    6  A    between atoms: C_15  and  C_28
    7  A    between atoms: C_15  and  N_30
    8  A    between atoms: C_16  and  C_18
    9  A    between atoms: C_16  and  C_24
   10  A    between atoms: N_17  and  C_20
   11  A    between atoms: C_18  and  C_20
   12  A    between atoms: C_21  and  C_25
   13  A    between atoms: C_21  and  C_27
   14  A    between atoms: C_22  and  N_33
   15  A    between atoms: C_28  and  N_33
                            x       y       z     vdW  Elec       q    Type
                         _______ _______ _______ _____ _____    ______ ____

>  <TORSDO>
F 15

$$$$
=
 OpenBabel10232409553D

 34 36  0  0  1  0  0  0  0  0999 V2000
  190.8000  176.7380  138.6730 C   0  0  2  0  0  3  0  0  0  0  0  0
  190.7830  174.6210  137.7900 O   0  0  0  0  0  0  0  0  0  0  0  0
  192.6980  174.7270  136.4500 C   0  0  0  0  0  2  0  0  0  0  0  0
  193.8990  175.8870  138.1160 O   0  0  0  0  0  1  0  0  0  0  0  0
  191.6120  173.8360  136.9750 C   0  0  0  0  0  2  0  0  0  0  0  0
  191.6040  175.5430  138.3750 N   0  0  0  0  0  0  0  0  0  0  0  0
  192.6830  175.8490  137.4350 C   0  0  2  0  0  3  0  0  0  0  0  0
  190.2880  176.7760  140.1150 C   0  0  0  0  0  2  0  0  0  0  0  0
  191.2510  177.5660  140.9790 C   0  0  0  0  0  2  0  0  0  0  0  0
  191.1810  177.0900  142.3540 N   0  0  0  0  0  0  0  0  0  0  0  0
  190.0900  176.1290  142.4420 C   0  0  0  0  0  2  0  0  0  0  0  0
  187.8330  176.1540  143.3730 C   0  0  0  0  0  2  0  0  0  0  0  0
  189.0830  176.5970  143.4360 C   0  0  0  0  0  3  0  0  0  0  0  0
  190.9470  178.2170  143.2700 C   0  0  0  0  0  2  0  0  0  0  0  0
  192.0100  178.3670  144.3630 C   0  0  0  0  0  2  0  0  0  0  0  0
  190.9440  176.3880  147.4380 N   0  0  0  0  0  1  0  0  0  0  0  0
  192.0450  175.7600  145.4950 O   0  0  0  0  0  0  0  0  0  0  0  0
  191.4510  178.0130  145.6580 N   0  0  0  0  0  2  0  0  0  0  0  0
  191.5050  176.6790  146.1640 C   0  0  0  0  0  0  0  0  0  0  0  0
  189.6640  176.8980  137.6660 C   0  0  0  0  0  2  0  0  0  0  0  0
  188.8450  178.1420  137.9710 C   0  0  0  0  0  2  0  0  0  0  0  0
  187.3670  177.8650  137.7520 C   0  0  0  0  0  2  0  0  0  0  0  0
  184.1010  178.4880  139.7760 C   0  0  0  0  0  3  0  0  0  0  0  0
  184.3630  178.8130  141.0200 C   0  0  2  0  0  3  0  0  0  0  0  0
  185.6460  178.9710  141.7280 C   0  0  0  0  0  0  0  0  0  0  0  0
  186.5940  178.2170  138.9730 C   0  0  0  0  0  0  0  0  0  0  0  0
  183.5980  179.1390  142.2210 N   0  0  0  0  0  2  0  0  0  0  0  0
  187.3250  178.4890  140.0780 C   0  0  0  0  0  3  0  0  0  0  0  0
  184.8540  179.3080  142.8730 C   0  0  1  0  0  3  0  0  0  0  0  0
  185.1530  178.2160  138.8420 N   0  0  0  0  0  0  0  0  0  0  0  0
  186.8820  178.8540  141.3960 N   0  0  0  0  0  0  0  0  0  0  0  0
  185.0290  178.2620  143.9660 C   0  0  0  0  0  2  0  0  0  0  0  0
  186.2430  178.4060  146.0800 C   0  0  0  0  0  2  0  0  0  0  0  0
  185.3290  178.9240  145.2670 C   0  0  0  0  0  3  0  0  0  0  0  0
  1 20  1  6  0  0  0
  1  8  1  0  0  0  0
  2  6  1  0  0  0  0
  3  5  1  0  0  0  0
  3  7  1  0  0  0  0
  5  2  1  0  0  0  0
  6  1  1  0  0  0  0
  7  4  1  1  0  0  0
  7  6  1  0  0  0  0
  8  9  1  0  0  0  0
  9 10  1  0  0  0  0
 10 11  1  0  0  0  0
 10 14  1  0  0  0  0
 11 13  1  0  0  0  0
 12 13  2  0  0  0  0
 14 15  1  0  0  0  0
 15 18  1  0  0  0  0
 17 19  2  0  0  0  0
 18 19  1  0  0  0  0
 19 16  1  0  0  0  0
 20 21  1  0  0  0  0
 22 21  1  0  0  0  0
 22 26  1  0  0  0  0
 24 23  1  1  0  0  0
 24 25  1  0  0  0  0
 24 27  1  0  0  0  0
 25 29  1  0  0  0  0
 26 28  2  0  0  0  0
 27 29  1  0  0  0  0
 28 31  1  0  0  0  0
 29 32  1  1  0  0  0
 30 26  1  0  0  0  0
 30 23  2  0  0  0  0
 31 25  2  0  0  0  0
 32 34  1  0  0  0  0
 34 33  2  0  0  0  0
M  END
>  <MODEL>
4

>  <REMARK>
 VINA RESULT:      -6.6      2.335      5.418
  Name = 
  15 active torsions:
  status: ('A' for Active; 'I' for Inactive)
    1  A    between atoms: C_7  and  C_13
    2  A    between atoms: C_7  and  N_33
    3  A    between atoms: C_9  and  C_20
    4  A    between atoms: C_9  and  C_22
    5  A    between atoms: C_10  and  C_24
    6  A    between atoms: C_15  and  C_28
    7  A    between atoms: C_15  and  N_30
    8  A    between atoms: C_16  and  C_18
    9  A    between atoms: C_16  and  C_24
   10  A    between atoms: N_17  and  C_20
   11  A    between atoms: C_18  and  C_20
   12  A    between atoms: C_21  and  C_25
   13  A    between atoms: C_21  and  C_27
   14  A    between atoms: C_22  and  N_33
   15  A    between atoms: C_28  and  N_33
                            x       y       z     vdW  Elec       q    Type
                         _______ _______ _______ _____ _____    ______ ____

>  <TORSDO>
F 15

$$$$
=
 OpenBabel10232409553D

 34 36  0  0  1  0  0  0  0  0999 V2000
  183.7980  179.2170  139.9910 C   0  0  2  0  0  3  0  0  0  0  0  0
  182.3420  178.8200  138.2640 O   0  0  0  0  0  0  0  0  0  0  0  0
  181.1580  177.0040  139.1430 C   0  0  0  0  0  2  0  0  0  0  0  0
  181.0630  177.9960  141.2810 O   0  0  0  0  0  1  0  0  0  0  0  0
  181.2470  177.9820  138.0090 C   0  0  0  0  0  2  0  0  0  0  0  0
  182.3990  178.9520  139.6220 N   0  0  0  0  0  0  0  0  0  0  0  0
  181.9190  177.7060  140.2180 C   0  0  2  0  0  3  0  0  0  0  0  0
  184.7520  179.2020  138.7940 C   0  0  0  0  0  2  0  0  0  0  0  0
  185.8230  178.1510  139.0060 C   0  0  0  0  0  2  0  0  0  0  0  0
  187.0370  178.5370  138.3010 N   0  0  0  0  0  0  0  0  0  0  0  0
  186.9070  178.1100  136.9140 C   0  0  0  0  0  2  0  0  0  0  0  0
  187.7140  176.2690  135.5280 C   0  0  0  0  0  2  0  0  0  0  0  0
  187.8340  176.9730  136.6480 C   0  0  0  0  0  3  0  0  0  0  0  0
  188.2090  177.9060  138.9250 C   0  0  0  0  0  2  0  0  0  0  0  0
  188.4760  178.3630  140.3630 C   0  0  0  0  0  2  0  0  0  0  0  0
  190.2120  175.7330  142.5030 N   0  0  0  0  0  1  0  0  0  0  0  0
  191.0250  177.5630  141.3310 O   0  0  0  0  0  0  0  0  0  0  0  0
  188.7190  177.2120  141.2180 N   0  0  0  0  0  2  0  0  0  0  0  0
  190.0300  176.8690  141.6660 C   0  0  0  0  0  0  0  0  0  0  0  0
  184.2620  178.2680  141.0940 C   0  0  0  0  0  2  0  0  0  0  0  0
  184.7860  179.0470  142.2890 C   0  0  0  0  0  2  0  0  0  0  0  0
  184.2380  178.4610  143.5800 C   0  0  0  0  0  2  0  0  0  0  0  0
  185.6770  178.7330  147.1870 C   0  0  0  0  0  3  0  0  0  0  0  0
  186.9510  178.4190  147.2180 C   0  0  2  0  0  3  0  0  0  0  0  0
  187.8710  178.0010  146.1450 C   0  0  0  0  0  0  0  0  0  0  0  0
  185.3150  178.3780  144.6020 C   0  0  0  0  0  0  0  0  0  0  0  0
  188.0000  178.3190  148.2300 N   0  0  0  0  0  2  0  0  0  0  0  0
  186.5290  177.9890  144.1520 C   0  0  0  0  0  3  0  0  0  0  0  0
  188.8720  177.9420  147.1680 C   0  0  1  0  0  3  0  0  0  0  0  0
  184.9370  178.7080  145.9600 N   0  0  0  0  0  0  0  0  0  0  0  0
  187.7560  177.8110  144.8790 N   0  0  0  0  0  0  0  0  0  0  0  0
  189.3500  176.5080  147.3590 C   0  0  0  0  0  2  0  0  0  0  0  0
  191.3930  176.7860  146.0510 C   0  0  0  0  0  2  0  0  0  0  0  0
  190.8300  176.4340  147.2010 C   0  0  0  0  0  3  0  0  0  0  0  0
  1  8  1  6  0  0  0
  1 20  1  0  0  0  0
  2  6  1  0  0  0  0
  3  7  1  0  0  0  0
  5  2  1  0  0  0  0
  5  3  1  0  0  0  0
  6  1  1  0  0  0  0
  6  7  1  0  0  0  0
  7  4  1  1  0  0  0
  8  9  1  0  0  0  0
 10 14  1  0  0  0  0
 10  9  1  0  0  0  0
 11 10  1  0  0  0  0
 12 13  2  0  0  0  0
 13 11  1  0  0  0  0
 14 15  1  0  0  0  0
 15 18  1  0  0  0  0
 17 19  2  0  0  0  0
 18 19  1  0  0  0  0
 19 16  1  0  0  0  0
 20 21  1  0  0  0  0
 21 22  1  0  0  0  0
 22 26  1  0  0  0  0
 24 23  1  1  0  0  0
 24 27  1  0  0  0  0
 25 29  1  0  0  0  0
 25 24  1  0  0  0  0
 26 30  1  0  0  0  0
 28 26  2  0  0  0  0
 28 31  1  0  0  0  0
 29 32  1  1  0  0  0
 29 27  1  0  0  0  0
 30 23  2  0  0  0  0
 31 25  2  0  0  0  0
 33 34  2  0  0  0  0
 34 32  1  0  0  0  0
M  END
>  <MODEL>
5

>  <REMARK>
 VINA RESULT:      -6.5      2.734      6.477
  Name = 
  15 active torsions:
  status: ('A' for Active; 'I' for Inactive)
    1  A    between atoms: C_7  and  C_13
    2  A    between atoms: C_7  and  N_33
    3  A    between atoms: C_9  and  C_20
    4  A    between atoms: C_9  and  C_22
    5  A    between atoms: C_10  and  C_24
    6  A    between atoms: C_15  and  C_28
    7  A    between atoms: C_15  and  N_30
    8  A    between atoms: C_16  and  C_18
    9  A    between atoms: C_16  and  C_24
   10  A    between atoms: N_17  and  C_20
   11  A    between atoms: C_18  and  C_20
   12  A    between atoms: C_21  and  C_25
   13  A    between atoms: C_21  and  C_27
   14  A    between atoms: C_22  and  N_33
   15  A    between atoms: C_28  and  N_33
                            x       y       z     vdW  Elec       q    Type
                         _______ _______ _______ _____ _____    ______ ____

>  <TORSDO>
F 15

$$$$
=
 OpenBabel10232409553D

 34 36  0  0  1  0  0  0  0  0999 V2000
  188.3610  177.5760  143.5190 C   0  0  2  0  0  3  0  0  0  0  0  0
  187.7840  178.0210  145.6940 O   0  0  0  0  0  0  0  0  0  0  0  0
  189.5060  176.8980  146.8080 C   0  0  0  0  0  2  0  0  0  0  0  0
  191.1160  177.6630  145.2630 O   0  0  0  0  0  1  0  0  0  0  0  0
  188.3220  177.8020  146.9700 C   0  0  0  0  0  2  0  0  0  0  0  0
  188.8470  178.0140  144.8370 N   0  0  0  0  0  0  0  0  0  0  0  0
  189.8490  177.0900  145.3680 C   0  0  2  0  0  3  0  0  0  0  0  0
  186.8390  177.6540  143.3810 C   0  0  0  0  0  2  0  0  0  0  0  0
  186.4740  178.6440  142.2920 C   0  0  0  0  0  2  0  0  0  0  0  0
  185.1400  179.1750  142.5390 N   0  0  0  0  0  0  0  0  0  0  0  0
  185.0960  179.6620  143.9110 C   0  0  0  0  0  2  0  0  0  0  0  0
  184.0960  178.8110  145.9700 C   0  0  0  0  0  2  0  0  0  0  0  0
  184.0030  178.9750  144.6550 C   0  0  0  0  0  3  0  0  0  0  0  0
  184.1300  178.1250  142.3330 C   0  0  0  0  0  2  0  0  0  0  0  0
  183.2250  178.3550  141.1190 C   0  0  0  0  0  2  0  0  0  0  0  0
  185.1560  178.2830  137.8370 N   0  0  0  0  0  1  0  0  0  0  0  0
  184.5460  180.0280  139.2400 O   0  0  0  0  0  0  0  0  0  0  0  0
  183.8810  177.8910  139.9080 N   0  0  0  0  0  2  0  0  0  0  0  0
  184.5270  178.7910  139.0070 C   0  0  0  0  0  0  0  0  0  0  0  0
  188.8890  176.1850  143.1760 C   0  0  0  0  0  2  0  0  0  0  0  0
  190.0890  176.2780  142.2480 C   0  0  0  0  0  2  0  0  0  0  0  0
  190.0100  177.5450  141.4120 C   0  0  0  0  0  2  0  0  0  0  0  0
  190.9580  175.7110  138.1120 C   0  0  0  0  0  3  0  0  0  0  0  0
  190.1320  176.0180  137.1400 C   0  0  0  0  0  0  0  0  0  0  0  0
  188.9590  176.9100  137.1130 C   0  0  0  0  0  0  0  0  0  0  0  0
  189.8420  177.2000  139.9750 C   0  0  0  0  0  0  0  0  0  0  0  0
  189.9600  175.6610  135.7340 N   0  0  0  0  0  2  0  0  0  0  0  0
  188.7970  177.7840  139.3450 C   0  0  0  0  0  3  0  0  0  0  0  0
  188.8450  176.5480  135.7320 C   0  0  1  0  0  3  0  0  0  0  0  0
  190.8050  176.2730  139.4210 N   0  0  0  0  0  2  0  0  0  0  0  0
  188.3700  177.6550  137.9790 N   0  0  0  0  0  0  0  0  0  0  0  0
  187.5540  175.7770  135.4900 C   0  0  0  0  0  2  0  0  0  0  0  0
  186.1280  177.5030  134.5120 C   0  0  0  0  0  2  0  0  0  0  0  0
  186.8060  176.3730  134.3460 C   0  0  0  0  0  3  0  0  0  0  0  0
  1 20  1  1  0  0  0
  1  6  1  0  0  0  0
  2  5  1  0  0  0  0
  3  5  1  0  0  0  0
  6  7  1  0  0  0  0
  6  2  1  0  0  0  0
  7  4  1  1  0  0  0
  7  3  1  0  0  0  0
  8  1  1  0  0  0  0
  9 10  1  0  0  0  0
  9  8  1  0  0  0  0
 10 11  1  0  0  0  0
 11 13  1  0  0  0  0
 13 12  2  0  0  0  0
 14 10  1  0  0  0  0
 15 14  1  0  0  0  0
 16 19  1  0  0  0  0
 18 15  1  0  0  0  0
 19 17  2  0  0  0  0
 19 18  1  0  0  0  0
 21 20  1  0  0  0  0
 22 21  1  0  0  0  0
 23 30  1  0  0  0  0
 24 23  2  0  0  0  0
 25 24  1  0  0  0  0
 25 31  2  0  0  0  0
 26 22  1  0  0  0  0
 27 24  1  0  0  0  0
 28 26  2  0  0  0  0
 29 32  1  1  0  0  0
 29 27  1  0  0  0  0
 29 25  1  0  0  0  0
 30 26  1  0  0  0  0
 31 28  1  0  0  0  0
 34 33  2  0  0  0  0
 34 32  1  0  0  0  0
M  END
>  <MODEL>
6

>  <REMARK>
 VINA RESULT:      -6.5      2.513      7.669
  Name = 
  15 active torsions:
  status: ('A' for Active; 'I' for Inactive)
    1  A    between atoms: C_7  and  C_13
    2  A    between atoms: C_7  and  N_33
    3  A    between atoms: C_9  and  C_20
    4  A    between atoms: C_9  and  C_22
    5  A    between atoms: C_10  and  C_24
    6  A    between atoms: C_15  and  C_28
    7  A    between atoms: C_15  and  N_30
    8  A    between atoms: C_16  and  C_18
    9  A    between atoms: C_16  and  C_24
   10  A    between atoms: N_17  and  C_20
   11  A    between atoms: C_18  and  C_20
   12  A    between atoms: C_21  and  C_25
   13  A    between atoms: C_21  and  C_27
   14  A    between atoms: C_22  and  N_33
   15  A    between atoms: C_28  and  N_33
                            x       y       z     vdW  Elec       q    Type
                         _______ _______ _______ _____ _____    ______ ____

>  <TORSDO>
F 15

$$$$
=
 OpenBabel10232409553D

 34 36  0  0  1  0  0  0  0  0999 V2000
  184.2370  178.3840  137.9200 C   0  0  2  0  0  3  0  0  0  0  0  0
  183.3900  177.3690  136.0460 O   0  0  0  0  0  0  0  0  0  0  0  0
  183.4730  175.1320  136.7250 C   0  0  0  0  0  2  0  0  0  0  0  0
  182.7010  175.6750  138.8880 O   0  0  0  0  0  1  0  0  0  0  0  0
  183.0210  176.0750  135.6500 C   0  0  0  0  0  2  0  0  0  0  0  0
  183.2890  177.3830  137.4080 N   0  0  0  0  0  0  0  0  0  0  0  0
  183.6140  176.0440  137.8990 C   0  0  2  0  0  3  0  0  0  0  0  0
  185.6120  177.8000  138.2530 C   0  0  0  0  0  2  0  0  0  0  0  0
  186.6530  178.3760  137.3130 C   0  0  0  0  0  2  0  0  0  0  0  0
  187.8440  178.7450  138.0670 N   0  0  0  0  0  0  0  0  0  0  0  0
  188.9290  178.9580  137.1190 C   0  0  0  0  0  2  0  0  0  0  0  0
  189.5330  177.0680  135.6950 C   0  0  0  0  0  2  0  0  0  0  0  0
  189.6430  177.6720  136.8730 C   0  0  0  0  0  3  0  0  0  0  0  0
  188.1930  177.6790  139.0170 C   0  0  0  0  0  2  0  0  0  0  0  0
  188.5270  178.1790  140.4260 C   0  0  0  0  0  2  0  0  0  0  0  0
  190.0100  176.1410  143.2820 N   0  0  0  0  0  1  0  0  0  0  0  0
  189.9480  178.4240  142.8750 O   0  0  0  0  0  0  0  0  0  0  0  0
  188.9290  177.0670  141.2720 N   0  0  0  0  0  2  0  0  0  0  0  0
  189.6430  177.2650  142.4920 C   0  0  0  0  0  0  0  0  0  0  0  0
  183.6440  179.1420  139.1060 C   0  0  0  0  0  2  0  0  0  0  0  0
  184.4730  178.9140  140.3600 C   0  0  0  0  0  2  0  0  0  0  0  0
  183.6340  178.2360  141.4290 C   0  0  0  0  0  2  0  0  0  0  0  0
  183.7340  178.8800  145.2670 C   0  0  0  0  0  3  0  0  0  0  0  0
  184.9470  178.7340  145.7450 C   0  0  2  0  0  3  0  0  0  0  0  0
  186.2130  178.3810  145.0790 C   0  0  0  0  0  0  0  0  0  0  0  0
  184.3040  178.3450  142.7520 C   0  0  0  0  0  0  0  0  0  0  0  0
  185.5970  178.8230  147.0510 N   0  0  0  0  0  2  0  0  0  0  0  0
  185.6330  178.0910  142.7650 C   0  0  0  0  0  3  0  0  0  0  0  0
  186.8100  178.5040  146.3750 C   0  0  1  0  0  3  0  0  0  0  0  0
  183.4580  178.6960  143.8730 N   0  0  0  0  0  0  0  0  0  0  0  0
  186.5530  178.1100  143.8690 N   0  0  0  0  0  0  0  0  0  0  0  0
  187.3400  177.1550  146.8450 C   0  0  0  0  0  2  0  0  0  0  0  0
  188.9610  178.4410  148.1420 C   0  0  0  0  0  2  0  0  0  0  0  0
  188.6750  177.3230  147.4860 C   0  0  0  0  0  3  0  0  0  0  0  0
  1  8  1  1  0  0  0
  1 20  1  0  0  0  0
  2  6  1  0  0  0  0
  3  7  1  0  0  0  0
  5  2  1  0  0  0  0
  5  3  1  0  0  0  0
  6  7  1  0  0  0  0
  6  1  1  0  0  0  0
  7  4  1  1  0  0  0
  9 10  1  0  0  0  0
  9  8  1  0  0  0  0
 10 14  1  0  0  0  0
 11 10  1  0  0  0  0
 12 13  2  0  0  0  0
 13 11  1  0  0  0  0
 14 15  1  0  0  0  0
 15 18  1  0  0  0  0
 18 19  1  0  0  0  0
 19 17  2  0  0  0  0
 19 16  1  0  0  0  0
 20 21  1  0  0  0  0
 21 22  1  0  0  0  0
 22 26  1  0  0  0  0
 24 23  1  1  0  0  0
 24 27  1  0  0  0  0
 25 24  1  0  0  0  0
 25 29  1  0  0  0  0
 26 28  2  0  0  0  0
 26 30  1  0  0  0  0
 28 31  1  0  0  0  0
 29 32  1  1  0  0  0
 29 27  1  0  0  0  0
 30 23  2  0  0  0  0
 31 25  2  0  0  0  0
 32 34  1  0  0  0  0
 34 33  2  0  0  0  0
M  END
>  <MODEL>
7

>  <REMARK>
 VINA RESULT:      -6.4      2.725      5.834
  Name = 
  15 active torsions:
  status: ('A' for Active; 'I' for Inactive)
    1  A    between atoms: C_7  and  C_13
    2  A    between atoms: C_7  and  N_33
    3  A    between atoms: C_9  and  C_20
    4  A    between atoms: C_9  and  C_22
    5  A    between atoms: C_10  and  C_24
    6  A    between atoms: C_15  and  C_28
    7  A    between atoms: C_15  and  N_30
    8  A    between atoms: C_16  and  C_18
    9  A    between atoms: C_16  and  C_24
   10  A    between atoms: N_17  and  C_20
   11  A    between atoms: C_18  and  C_20
   12  A    between atoms: C_21  and  C_25
   13  A    between atoms: C_21  and  C_27
   14  A    between atoms: C_22  and  N_33
   15  A    between atoms: C_28  and  N_33
                            x       y       z     vdW  Elec       q    Type
                         _______ _______ _______ _____ _____    ______ ____

>  <TORSDO>
F 15

$$$$
=
 OpenBabel10232409553D

 34 36  0  0  1  0  0  0  0  0999 V2000
  188.4390  177.7570  143.1230 C   0  0  2  0  0  3  0  0  0  0  0  0
  190.0790  176.2920  143.7730 O   0  0  0  0  0  0  0  0  0  0  0  0
  191.9780  177.5540  143.2540 C   0  0  0  0  0  2  0  0  0  0  0  0
  190.9980  179.5270  144.0990 O   0  0  0  0  0  1  0  0  0  0  0  0
  191.4770  176.2910  143.8870 C   0  0  0  0  0  2  0  0  0  0  0  0
  189.7000  177.6000  143.8630 N   0  0  0  0  0  0  0  0  0  0  0  0
  190.7630  178.4200  143.2820 C   0  0  2  0  0  3  0  0  0  0  0  0
  187.2460  177.0920  143.8140 C   0  0  0  0  0  2  0  0  0  0  0  0
  187.3650  177.2630  145.3160 C   0  0  0  0  0  2  0  0  0  0  0  0
  186.5230  178.3690  145.7520 N   0  0  0  0  0  0  0  0  0  0  0  0
  186.7730  178.5930  147.1690 C   0  0  0  0  0  2  0  0  0  0  0  0
  188.6780  178.0320  148.5910 C   0  0  0  0  0  2  0  0  0  0  0  0
  187.8200  177.6480  147.6520 C   0  0  0  0  0  3  0  0  0  0  0  0
  185.1060  178.0480  145.5240 C   0  0  0  0  0  2  0  0  0  0  0  0
  184.3620  179.0720  144.6610 C   0  0  0  0  0  2  0  0  0  0  0  0
  183.9490  178.1550  140.9870 N   0  0  0  0  0  1  0  0  0  0  0  0
  185.3470  179.6640  142.0610 O   0  0  0  0  0  0  0  0  0  0  0  0
  183.8970  178.4490  143.4320 N   0  0  0  0  0  2  0  0  0  0  0  0
  184.4390  178.7970  142.1580 C   0  0  0  0  0  0  0  0  0  0  0  0
  188.5900  177.2830  141.6790 C   0  0  0  0  0  2  0  0  0  0  0  0
  188.0660  178.3300  140.7100 C   0  0  0  0  0  2  0  0  0  0  0  0
  189.0550  178.5380  139.5750 C   0  0  0  0  0  2  0  0  0  0  0  0
  190.9560  175.4840  138.0870 C   0  0  0  0  0  3  0  0  0  0  0  0
  190.1660  174.7440  137.3460 C   0  0  0  0  0  0  0  0  0  0  0  0
  188.7390  174.8890  137.0100 C   0  0  0  0  0  0  0  0  0  0  0  0
  189.1700  177.2970  138.7630 C   0  0  0  0  0  0  0  0  0  0  0  0
  190.2790  173.5140  136.5660 N   0  0  0  0  0  2  0  0  0  0  0  0
  188.0370  176.8860  138.1480 C   0  0  0  0  0  3  0  0  0  0  0  0
  188.9040  173.6940  136.2390 C   0  0  1  0  0  3  0  0  0  0  0  0
  190.4720  176.6670  138.7340 N   0  0  0  0  0  2  0  0  0  0  0  0
  187.8220  175.7410  137.3060 N   0  0  0  0  0  0  0  0  0  0  0  0
  188.0680  172.5640  136.8250 C   0  0  0  0  0  2  0  0  0  0  0  0
  187.8110  170.5400  135.4810 C   0  0  0  0  0  2  0  0  0  0  0  0
  187.4200  171.7840  135.7310 C   0  0  0  0  0  3  0  0  0  0  0  0
  1 20  1  6  0  0  0
  1  8  1  0  0  0  0
  1  6  1  0  0  0  0
  2  6  1  0  0  0  0
  2  5  1  0  0  0  0
  3  7  1  0  0  0  0
  3  5  1  0  0  0  0
  7  6  1  0  0  0  0
  7  4  1  1  0  0  0
  8  9  1  0  0  0  0
  9 10  1  0  0  0  0
 10 11  1  0  0  0  0
 11 13  1  0  0  0  0
 13 12  2  0  0  0  0
 14 10  1  0  0  0  0
 15 14  1  0  0  0  0
 16 19  1  0  0  0  0
 17 19  2  0  0  0  0
 18 15  1  0  0  0  0
 19 18  1  0  0  0  0
 21 20  1  0  0  0  0
 22 21  1  0  0  0  0
 23 30  1  0  0  0  0
 24 23  2  0  0  0  0
 25 31  2  0  0  0  0
 25 24  1  0  0  0  0
 26 22  1  0  0  0  0
 27 24  1  0  0  0  0
 28 26  2  0  0  0  0
 29 27  1  0  0  0  0
 29 32  1  1  0  0  0
 29 25  1  0  0  0  0
 30 26  1  0  0  0  0
 31 28  1  0  0  0  0
 33 34  2  0  0  0  0
 34 32  1  0  0  0  0
M  END
>  <MODEL>
8

>  <REMARK>
 VINA RESULT:      -6.3      2.481      7.951
  Name = 
  15 active torsions:
  status: ('A' for Active; 'I' for Inactive)
    1  A    between atoms: C_7  and  C_13
    2  A    between atoms: C_7  and  N_33
    3  A    between atoms: C_9  and  C_20
    4  A    between atoms: C_9  and  C_22
    5  A    between atoms: C_10  and  C_24
    6  A    between atoms: C_15  and  C_28
    7  A    between atoms: C_15  and  N_30
    8  A    between atoms: C_16  and  C_18
    9  A    between atoms: C_16  and  C_24
   10  A    between atoms: N_17  and  C_20
   11  A    between atoms: C_18  and  C_20
   12  A    between atoms: C_21  and  C_25
   13  A    between atoms: C_21  and  C_27
   14  A    between atoms: C_22  and  N_33
   15  A    between atoms: C_28  and  N_33
                            x       y       z     vdW  Elec       q    Type
                         _______ _______ _______ _____ _____    ______ ____

>  <TORSDO>
F 15

$$$$
=
 OpenBabel10232409553D

 34 36  0  0  1  0  0  0  0  0999 V2000
  188.9150  178.2680  138.3410 C   0  0  2  0  0  3  0  0  0  0  0  0
  188.2760  178.0270  136.1510 O   0  0  0  0  0  0  0  0  0  0  0  0
  186.0440  177.3940  136.4470 C   0  0  0  0  0  2  0  0  0  0  0  0
  185.7370  178.9820  138.1650 O   0  0  0  0  0  1  0  0  0  0  0  0
  187.0950  177.7610  135.4430 C   0  0  0  0  0  2  0  0  0  0  0  0
  187.8820  178.5740  137.3380 N   0  0  0  0  0  0  0  0  0  0  0  0
  186.5950  177.9830  137.7040 C   0  0  2  0  0  3  0  0  0  0  0  0
  190.0940  177.4760  137.7710 C   0  0  0  0  0  2  0  0  0  0  0  0
  190.3520  176.2540  138.6310 C   0  0  0  0  0  2  0  0  0  0  0  0
  191.7870  176.0370  138.7570 N   0  0  0  0  0  0  0  0  0  0  0  0
  192.4000  177.3010  139.1430 C   0  0  0  0  0  2  0  0  0  0  0  0
  191.8100  177.5360  141.5010 C   0  0  0  0  0  2  0  0  0  0  0  0
  192.7430  177.2730  140.5930 C   0  0  0  0  0  3  0  0  0  0  0  0
  192.3420  175.5650  137.4800 C   0  0  0  0  0  2  0  0  0  0  0  0
  193.3510  174.4200  137.6200 C   0  0  0  0  0  2  0  0  0  0  0  0
  197.0410  174.8160  138.4740 N   0  0  0  0  0  1  0  0  0  0  0  0
  195.5070  173.1460  138.9640 O   0  0  0  0  0  0  0  0  0  0  0  0
  194.7010  174.9500  137.7180 N   0  0  0  0  0  2  0  0  0  0  0  0
  195.7370  174.2540  138.4110 C   0  0  0  0  0  0  0  0  0  0  0  0
  188.3060  177.5770  139.5590 C   0  0  0  0  0  2  0  0  0  0  0  0
  188.3030  178.5080  140.7610 C   0  0  0  0  0  2  0  0  0  0  0  0
  187.0910  178.2340  141.6350 C   0  0  0  0  0  2  0  0  0  0  0  0
  186.4630  177.6480  145.4320 C   0  0  0  0  0  3  0  0  0  0  0  0
  187.5910  177.6030  146.1020 C   0  0  2  0  0  3  0  0  0  0  0  0
  188.9880  177.7350  145.6530 C   0  0  0  0  0  0  0  0  0  0  0  0
  187.5120  178.0530  143.0500 C   0  0  0  0  0  0  0  0  0  0  0  0
  187.9990  177.4050  147.4910 N   0  0  0  0  0  2  0  0  0  0  0  0
  188.8450  178.0770  143.2790 C   0  0  0  0  0  3  0  0  0  0  0  0
  189.3390  177.5610  147.0310 C   0  0  1  0  0  3  0  0  0  0  0  0
  186.4500  177.8590  144.0150 N   0  0  0  0  0  0  0  0  0  0  0  0
  189.5590  177.9310  144.5180 N   0  0  0  0  0  0  0  0  0  0  0  0
  190.1180  176.2660  147.2210 C   0  0  0  0  0  2  0  0  0  0  0  0
  192.3900  175.6030  147.8260 C   0  0  0  0  0  2  0  0  0  0  0  0
  191.5650  176.5630  147.4240 C   0  0  0  0  0  3  0  0  0  0  0  0
  1  8  1  6  0  0  0
  1 20  1  0  0  0  0
  2  6  1  0  0  0  0
  3  7  1  0  0  0  0
  5  2  1  0  0  0  0
  5  3  1  0  0  0  0
  6  7  1  0  0  0  0
  6  1  1  0  0  0  0
  7  4  1  6  0  0  0
  8  9  1  0  0  0  0
  9 10  1  0  0  0  0
 10 11  1  0  0  0  0
 11 13  1  0  0  0  0
 13 12  2  0  0  0  0
 14 15  1  0  0  0  0
 14 10  1  0  0  0  0
 15 18  1  0  0  0  0
 18 19  1  0  0  0  0
 19 16  1  0  0  0  0
 19 17  2  0  0  0  0
 20 21  1  0  0  0  0
 21 22  1  0  0  0  0
 22 26  1  0  0  0  0
 24 23  1  6  0  0  0
 24 27  1  0  0  0  0
 25 24  1  0  0  0  0
 25 29  1  0  0  0  0
 26 28  2  0  0  0  0
 26 30  1  0  0  0  0
 28 31  1  0  0  0  0
 29 32  1  6  0  0  0
 29 27  1  0  0  0  0
 30 23  2  0  0  0  0
 31 25  2  0  0  0  0
 32 34  1  0  0  0  0
 34 33  2  0  0  0  0
M  END
>  <MODEL>
9

>  <REMARK>
 VINA RESULT:      -6.3      2.282      6.363
  Name = 
  15 active torsions:
  status: ('A' for Active; 'I' for Inactive)
    1  A    between atoms: C_7  and  C_13
    2  A    between atoms: C_7  and  N_33
    3  A    between atoms: C_9  and  C_20
    4  A    between atoms: C_9  and  C_22
    5  A    between atoms: C_10  and  C_24
    6  A    between atoms: C_15  and  C_28
    7  A    between atoms: C_15  and  N_30
    8  A    between atoms: C_16  and  C_18
    9  A    between atoms: C_16  and  C_24
   10  A    between atoms: N_17  and  C_20
   11  A    between atoms: C_18  and  C_20
   12  A    between atoms: C_21  and  C_25
   13  A    between atoms: C_21  and  C_27
   14  A    between atoms: C_22  and  N_33
   15  A    between atoms: C_28  and  N_33
                            x       y       z     vdW  Elec       q    Type
                         _______ _______ _______ _____ _____    ______ ____

>  <TORSDO>
F 15

$$$$
