=
 OpenBabel10222422133D

 70 76  0  0  1  0  0  0  0  0999 V2000
  189.6610  174.7220  136.2820 C   0  0  0  0  0  2  0  0  0  0  0  0
  187.9220  173.2200  135.2840 C   0  0  0  0  0  0  0  0  0  0  0  0
  190.2180  172.3030  135.7140 C   0  0  0  0  0  2  0  0  0  0  0  0
  189.2760  173.4280  135.7090 N   0  0  0  0  0  0  0  0  0  0  0  0
  192.0750  173.9090  136.4220 C   0  0  2  0  0  3  0  0  0  0  0  0
  186.9590  174.2660  135.4320 N   0  0  0  0  0  2  0  0  0  0  0  0
  191.6370  172.8020  135.4490 C   0  0  0  0  0  2  0  0  0  0  0  0
  190.8950  174.5720  137.1660 C   0  0  1  0  0  3  0  0  0  0  0  0
  187.5760  172.1110  134.7930 O   0  0  0  0  0  0  0  0  0  0  0  0
  183.2610  175.3630  135.9320 C   0  0  1  0  0  3  0  0  0  0  0  0
  184.7250  175.1940  135.7680 C   0  0  2  0  0  0  0  0  0  0  0  0
  182.9550  176.6450  136.7190 C   0  0  0  0  0  2  0  0  0  0  0  0
  185.4370  173.6140  137.4280 O   0  0  0  0  0  1  0  0  0  0  0  0
  184.1730  177.0020  134.3460 C   0  0  0  0  0  2  0  0  0  0  0  0
  182.2100  177.6370  135.8290 C   0  0  0  0  0  2  0  0  0  0  0  0
  185.5520  174.0920  135.0790 C   0  0  2  0  0  3  0  0  0  0  0  0
  183.8620  175.5930  134.6190 N   0  0  2  0  0  0  0  0  0  0  0  0
  182.9290  177.8760  134.4970 C   0  0  0  0  0  2  0  0  0  0  0  0
  184.7060  173.7270  136.2390 C   0  0  2  0  0  3  0  0  0  0  0  0
  192.9210  174.9250  135.6690 C   0  0  0  0  0  2  0  0  0  0  0  0
  193.8930  174.2350  134.8380 N   0  0  0  0  0  2  0  0  0  0  0  0
  197.2590  172.2990  137.0530 O   0  0  0  0  0  1  0  0  0  0  0  0
  194.6380  173.3390  135.7050 C   0  0  2  0  0  3  0  0  0  0  0  0
  196.1990  174.4210  137.1790 N   0  0  0  0  0  0  0  0  0  0  0  0
  194.8110  173.9870  137.0710 C   0  0  0  0  0  2  0  0  0  0  0  0
  196.0440  173.1730  135.1660 C   0  0  1  0  0  3  0  0  0  0  0  0
  196.9540  173.4740  136.3490 C   0  0  0  0  0  0  0  0  0  0  0  0
  198.1310  174.0690  135.8980 O   0  0  0  0  0  1  0  0  0  0  0  0
  196.5920  174.3660  138.5850 C   0  0  0  0  0  2  0  0  0  0  0  0
  197.5880  175.3150  138.8270 O   0  0  0  0  0  0  0  0  0  0  0  0
  198.1630  174.9170  140.0370 C   0  0  0  0  0  2  0  0  0  0  0  0
  198.2470  175.5180  142.3460 O   0  0  0  0  0  1  0  0  0  0  0  0
  197.4690  175.6210  141.1920 C   0  0  0  0  0  2  0  0  0  0  0  0
  196.2650  171.7920  134.5520 C   0  0  0  0  0  2  0  0  0  0  0  0
  194.9920  170.9560  134.5950 C   0  0  0  0  0  2  0  0  0  0  0  0
  195.3070  169.4870  134.3460 C   0  0  0  0  0  2  0  0  0  0  0  0
  195.9880  168.8650  135.5530 C   0  0  0  0  0  2  0  0  0  0  0  0
  194.9580  168.5760  136.6320 C   0  0  0  0  0  2  0  0  0  0  0  0
  194.3950  169.8810  137.1580 C   0  0  0  0  0  1  0  0  0  0  0  0
  191.2560  175.8300  137.7320 O   0  0  0  0  0  0  0  0  0  0  0  0
  191.1870  176.7300  139.9640 C   0  0  0  0  0  3  0  0  0  0  0  0
  190.4980  177.3370  141.0180 C   0  0  0  0  0  0  0  0  0  0  0  0
  190.5320  176.4320  138.7650 C   0  0  0  0  0  0  0  0  0  0  0  0
  188.4780  177.3620  139.6700 C   0  0  0  0  0  3  0  0  0  0  0  0
  189.1730  176.7520  138.6200 C   0  0  0  0  0  3  0  0  0  0  0  0
  189.1360  177.6500  140.8660 C   0  0  0  0  0  3  0  0  0  0  0  0
  190.9480  178.7090  142.9910 C   0  0  0  0  0  3  0  0  0  0  0  0
  191.2250  177.6400  142.2580 C   0  0  0  0  0  3  0  0  0  0  0  0
  191.7120  178.9980  144.2350 C   0  0  0  0  0  2  0  0  0  0  0  0
  189.4910  178.2770  145.1580 C   0  0  0  0  0  2  0  0  0  0  0  0
  189.6320  176.7590  147.2210 C   0  0  0  0  0  2  0  0  0  0  0  0
  191.5130  177.0860  145.6750 O   0  0  0  0  0  0  0  0  0  0  0  0
  191.1570  176.8030  147.0080 C   0  0  2  0  0  3  0  0  0  0  0  0
  190.9990  178.3630  145.4120 C   0  0  1  0  0  3  0  0  0  0  0  0
  191.7660  175.4870  147.4350 C   0  0  0  0  0  1  0  0  0  0  0  0
  188.8500  177.1270  145.9530 C   0  0  1  0  0  3  0  0  0  0  0  0
  187.4320  177.4460  146.2980 C   0  0  0  0  0  0  0  0  0  0  0  0
  186.9590  178.7920  146.2140 N   0  0  0  0  0  2  0  0  0  0  0  0
  186.6690  176.5280  146.7040 O   0  0  0  0  0  0  0  0  0  0  0  0
  185.7380  179.1520  146.6780 O   0  0  0  0  0  0  0  0  0  0  0  0
  184.8430  178.7400  145.6870 C   0  0  0  0  0  2  0  0  0  0  0  0
  185.3840  179.0940  144.3020 C   0  0  0  0  0  2  0  0  0  0  0  0
  183.1410  179.3190  143.1520 C   0  0  0  0  0  1  0  0  0  0  0  0
  184.4860  178.6150  143.1590 C   0  0  1  0  0  3  0  0  0  0  0  0
  185.2970  178.7650  141.5370 S   0  0  0  0  0  0  0  0  0  0  0  0
  183.7120  178.8860  140.6640 C   0  0  1  0  0  3  0  0  0  0  0  0
  183.8820  179.6410  139.5190 F   0  0  0  0  0  0  0  0  0  0  0  0
  183.2200  177.5030  140.2800 C   0  0  0  0  0  2  0  0  0  0  0  0
  180.5090  177.8850  141.4140 O   0  0  0  0  0  0  0  0  0  0  0  0
  181.3610  177.4820  140.1800 P   0  0  0  0  0  0  0  0  0  0  0  0
  1  8  1  0  0  0  0
  2  6  1  0  0  0  0
  2  4  1  0  0  0  0
  4  3  1  0  0  0  0
  4  1  1  0  0  0  0
  5 20  1  6  0  0  0
  5  8  1  0  0  0  0
  7  3  1  0  0  0  0
  7  5  1  0  0  0  0
  8 40  1  6  0  0  0
  9  2  2  0  0  0  0
 10 12  1  1  0  0  0
 11 10  1  0  0  0  0
 11 19  1  0  0  0  0
 14 18  1  0  0  0  0
 14 17  1  0  0  0  0
 15 12  1  0  0  0  0
 16  6  1  0  0  0  0
 16 11  1  0  0  0  0
 16 19  1  0  0  0  0
 17 11  1  0  0  0  0
 17 10  1  0  0  0  0
 18 15  1  0  0  0  0
 19 13  1  0  0  0  0
 21 20  1  0  0  0  0
 21 23  1  0  0  0  0
 23 25  1  0  0  0  0
 24 29  1  0  0  0  0
 25 24  1  0  0  0  0
 26 23  1  0  0  0  0
 26 27  1  0  0  0  0
 27 22  1  0  0  0  0
 27 24  1  0  0  0  0
 28 27  1  0  0  0  0
 29 30  1  0  0  0  0
 30 31  1  0  0  0  0
 31 33  1  0  0  0  0
 33 32  1  0  0  0  0
 34 35  1  0  0  0  0
 34 26  1  0  0  0  0
 36 35  1  0  0  0  0
 36 37  1  0  0  0  0
 37 38  1  0  0  0  0
 38 39  1  0  0  0  0
 40 43  1  0  0  0  0
 41 42  1  0  0  0  0
 42 48  1  0  0  0  0
 43 41  2  0  0  0  0
 44 46  1  0  0  0  0
 45 43  1  0  0  0  0
 45 44  2  0  0  0  0
 46 42  2  0  0  0  0
 47 49  1  0  0  0  0
 48 47  2  0  0  0  0
 49 54  1  0  0  0  0
 50 54  1  0  0  0  0
 50 56  1  0  0  0  0
 52 53  1  0  0  0  0
 53 51  1  0  0  0  0
 53 55  1  0  0  0  0
 54 52  1  0  0  0  0
 56 57  1  0  0  0  0
 56 51  1  0  0  0  0
 57 59  2  0  0  0  0
 58 57  1  0  0  0  0
 58 60  1  0  0  0  0
 61 60  1  0  0  0  0
 62 61  1  0  0  0  0
 63 64  1  0  0  0  0
 64 62  1  0  0  0  0
 65 64  1  0  0  0  0
 66 65  1  0  0  0  0
 67 66  1  0  0  0  0
 68 66  1  0  0  0  0
 70 68  1  0  0  0  0
 70 69  2  0  0  0  0
M  END
>  <MODEL>
1

>  <REMARK>
 VINA RESULT:      -6.2      0.000      0.000
  Name = 
  27 active torsions:
  status: ('A' for Active; 'I' for Inactive)
    1  A    between atoms: C_5  and  N_32
    2  A    between atoms: C_5  and  O_36
    3  A    between atoms: C_9  and  C_16
    4  A    between atoms: C_10  and  C_11
    5  A    between atoms: C_10  and  S_64
    6  A    between atoms: C_11  and  P_55
    7  A    between atoms: C_14  and  C_23
    8  A    between atoms: C_15  and  C_23
    9  A    between atoms: C_15  and  C_57
   10  A    between atoms: C_16  and  O_36
   11  A    between atoms: C_18  and  C_19
   12  A    between atoms: C_19  and  C_41
   13  A    between atoms: C_20  and  C_65
   14  A    between atoms: N_25  and  O_62
   15  A    between atoms: C_29  and  C_63
   16  A    between atoms: C_30  and  N_31
   17  A    between atoms: N_31  and  C_54
   18  A    between atoms: O_33  and  C_39
   19  A    between atoms: O_33  and  C_58
   20  A    between atoms: C_42  and  C_43
   21  A    between atoms: C_42  and  C_57
   22  A    between atoms: C_45  and  C_54
   23  A    between atoms: N_46  and  C_56
   24  A    between atoms: C_52  and  C_60
   25  A    between atoms: C_52  and  C_61
   26  A    between atoms: C_60  and  S_64
   27  A    between atoms: C_61  and  O_62
                            x       y       z     vdW  Elec       q    Type
                         _______ _______ _______ _____ _____    ______ ____

>  <TORSDO>
F 27

$$$$
=
 OpenBabel10222422133D

 70 76  0  0  1  0  0  0  0  0999 V2000
  190.2530  174.8460  136.1040 C   0  0  0  0  0  2  0  0  0  0  0  0
  191.5920  172.7700  135.6830 C   0  0  0  0  0  0  0  0  0  0  0  0
  189.4210  173.0830  134.4640 C   0  0  0  0  0  2  0  0  0  0  0  0
  190.4010  173.5370  135.4560 N   0  0  0  0  0  0  0  0  0  0  0  0
  187.9020  175.0270  135.1290 C   0  0  2  0  0  3  0  0  0  0  0  0
  192.6260  173.2880  136.5230 N   0  0  0  0  0  2  0  0  0  0  0  0
  188.0150  173.5150  134.8760 C   0  0  0  0  0  2  0  0  0  0  0  0
  189.2690  175.7180  135.3300 C   0  0  1  0  0  3  0  0  0  0  0  0
  191.7350  171.6460  135.1300 O   0  0  0  0  0  0  0  0  0  0  0  0
  196.4980  173.4580  136.8380 C   0  0  1  0  0  3  0  0  0  0  0  0
  195.0240  173.6180  136.8410 C   0  0  2  0  0  0  0  0  0  0  0  0
  197.1870  174.8250  136.9540 C   0  0  0  0  0  2  0  0  0  0  0  0
  194.3030  173.4900  134.5560 O   0  0  0  0  0  1  0  0  0  0  0  0
  195.6780  174.1000  139.0620 C   0  0  0  0  0  2  0  0  0  0  0  0
  197.9530  174.9120  138.2720 C   0  0  0  0  0  2  0  0  0  0  0  0
  193.8870  172.5840  136.7390 C   0  0  2  0  0  3  0  0  0  0  0  0
  195.7420  173.0630  138.0250 N   0  0  2  0  0  0  0  0  0  0  0  0
  197.0800  174.5450  139.4780 C   0  0  0  0  0  2  0  0  0  0  0  0
  194.8280  172.7230  135.6020 C   0  0  2  0  0  3  0  0  0  0  0  0
  186.9620  175.2650  136.3010 C   0  0  0  0  0  2  0  0  0  0  0  0
  186.0000  174.1790  136.3870 N   0  0  0  0  0  2  0  0  0  0  0  0
  181.6360  174.7220  135.5820 O   0  0  0  0  0  1  0  0  0  0  0  0
  184.7520  174.6670  135.8280 C   0  0  2  0  0  3  0  0  0  0  0  0
  183.0420  175.1620  137.4450 N   0  0  0  0  0  0  0  0  0  0  0  0
  184.1780  175.7430  136.7390 C   0  0  0  0  0  2  0  0  0  0  0  0
  183.7260  173.5530  135.8400 C   0  0  1  0  0  3  0  0  0  0  0  0
  182.5060  174.1520  136.5250 C   0  0  0  0  0  0  0  0  0  0  0  0
  181.8350  173.1620  137.2420 O   0  0  0  0  0  1  0  0  0  0  0  0
  182.0810  176.2240  137.7290 C   0  0  0  0  0  2  0  0  0  0  0  0
  182.6860  177.1960  138.5310 O   0  0  0  0  0  0  0  0  0  0  0  0
  182.3310  178.4090  137.9360 C   0  0  0  0  0  2  0  0  0  0  0  0
  179.9820  178.7400  137.6660 O   0  0  0  0  0  1  0  0  0  0  0  0
  181.1150  178.2100  137.0460 C   0  0  0  0  0  2  0  0  0  0  0  0
  183.4470  173.0140  134.4380 C   0  0  0  0  0  2  0  0  0  0  0  0
  183.7420  171.5220  134.3470 C   0  0  0  0  0  2  0  0  0  0  0  0
  182.5690  170.7100  134.8780 C   0  0  0  0  0  2  0  0  0  0  0  0
  182.6320  169.2760  134.3820 C   0  0  0  0  0  2  0  0  0  0  0  0
  183.6770  168.5040  135.1710 C   0  0  0  0  0  2  0  0  0  0  0  0
  183.5960  168.8920  136.6340 C   0  0  0  0  0  1  0  0  0  0  0  0
  189.1400  176.9930  135.9550 O   0  0  0  0  0  0  0  0  0  0  0  0
  188.1100  177.9080  137.9280 C   0  0  0  0  0  3  0  0  0  0  0  0
  188.0710  178.0950  139.3140 C   0  0  0  0  0  0  0  0  0  0  0  0
  189.1370  177.1620  137.3420 C   0  0  0  0  0  0  0  0  0  0  0  0
  190.0980  176.7770  139.5390 C   0  0  0  0  0  3  0  0  0  0  0  0
  190.1330  176.5950  138.1530 C   0  0  0  0  0  3  0  0  0  0  0  0
  189.0740  177.5280  140.1180 C   0  0  0  0  0  3  0  0  0  0  0  0
  185.7210  178.7530  139.4650 C   0  0  0  0  0  3  0  0  0  0  0  0
  186.9700  178.8780  139.8910 C   0  0  0  0  0  3  0  0  0  0  0  0
  184.6290  179.5710  140.0590 C   0  0  0  0  0  2  0  0  0  0  0  0
  185.0870  179.3980  142.5220 C   0  0  0  0  0  2  0  0  0  0  0  0
  183.2120  178.2970  143.8850 C   0  0  0  0  0  2  0  0  0  0  0  0
  182.8550  179.2440  141.6460 O   0  0  0  0  0  0  0  0  0  0  0  0
  182.4260  178.2620  142.5610 C   0  0  2  0  0  3  0  0  0  0  0  0
  184.1940  178.9380  141.3670 C   0  0  1  0  0  3  0  0  0  0  0  0
  180.9510  178.4310  142.8430 C   0  0  0  0  0  1  0  0  0  0  0  0
  184.3460  179.3320  143.8690 C   0  0  1  0  0  3  0  0  0  0  0  0
  185.2990  179.0670  144.9870 C   0  0  0  0  0  0  0  0  0  0  0  0
  185.9740  177.8090  145.0720 N   0  0  0  0  0  2  0  0  0  0  0  0
  185.4720  179.9420  145.8780 O   0  0  0  0  0  0  0  0  0  0  0  0
  186.7120  177.4640  146.1550 O   0  0  0  0  0  0  0  0  0  0  0  0
  187.8770  176.9010  145.6300 C   0  0  0  0  0  2  0  0  0  0  0  0
  189.0420  177.8820  145.7470 C   0  0  0  0  0  2  0  0  0  0  0  0
  189.6490  176.2880  147.6170 C   0  0  0  0  0  1  0  0  0  0  0  0
  190.1220  177.4290  146.7330 C   0  0  1  0  0  3  0  0  0  0  0  0
  191.6780  176.9920  145.8980 S   0  0  0  0  0  0  0  0  0  0  0  0
  191.2370  177.9290  144.4090 C   0  0  1  0  0  3  0  0  0  0  0  0
  191.9020  179.1410  144.4210 F   0  0  0  0  0  0  0  0  0  0  0  0
  191.6380  177.1550  143.1670 C   0  0  0  0  0  2  0  0  0  0  0  0
  189.0300  175.7490  143.1520 O   0  0  0  0  0  0  0  0  0  0  0  0
  190.5690  175.6440  142.9730 P   0  0  0  0  0  0  0  0  0  0  0  0
  2  6  1  0  0  0  0
  3  7  1  0  0  0  0
  3  4  1  0  0  0  0
  4  2  1  0  0  0  0
  4  1  1  0  0  0  0
  5  8  1  0  0  0  0
  5 20  1  1  0  0  0
  6 16  1  0  0  0  0
  7  5  1  0  0  0  0
  8 40  1  1  0  0  0
  8  1  1  0  0  0  0
  9  2  2  0  0  0  0
 10 11  1  0  0  0  0
 10 12  1  1  0  0  0
 10 17  1  0  0  0  0
 11 17  1  0  0  0  0
 12 15  1  0  0  0  0
 13 19  1  0  0  0  0
 14 18  1  0  0  0  0
 15 18  1  0  0  0  0
 16 11  1  0  0  0  0
 17 14  1  0  0  0  0
 19 16  1  0  0  0  0
 19 11  1  0  0  0  0
 20 21  1  0  0  0  0
 22 27  1  0  0  0  0
 23 26  1  0  0  0  0
 23 21  1  0  0  0  0
 23 25  1  0  0  0  0
 24 29  1  0  0  0  0
 25 24  1  0  0  0  0
 26 27  1  0  0  0  0
 27 28  1  0  0  0  0
 27 24  1  0  0  0  0
 29 30  1  0  0  0  0
 31 30  1  0  0  0  0
 33 32  1  0  0  0  0
 33 31  1  0  0  0  0
 34 26  1  0  0  0  0
 35 34  1  0  0  0  0
 35 36  1  0  0  0  0
 37 36  1  0  0  0  0
 37 38  1  0  0  0  0
 38 39  1  0  0  0  0
 40 43  1  0  0  0  0
 41 42  1  0  0  0  0
 42 48  1  0  0  0  0
 42 46  2  0  0  0  0
 43 41  2  0  0  0  0
 43 45  1  0  0  0  0
 44 46  1  0  0  0  0
 45 44  2  0  0  0  0
 47 48  2  0  0  0  0
 47 49  1  0  0  0  0
 49 54  1  0  0  0  0
 50 56  1  0  0  0  0
 52 53  1  0  0  0  0
 53 55  1  0  0  0  0
 53 51  1  0  0  0  0
 54 52  1  0  0  0  0
 54 50  1  0  0  0  0
 56 51  1  0  0  0  0
 56 57  1  0  0  0  0
 57 58  1  0  0  0  0
 57 59  2  0  0  0  0
 58 60  1  0  0  0  0
 61 62  1  0  0  0  0
 61 60  1  0  0  0  0
 62 64  1  0  0  0  0
 64 63  1  0  0  0  0
 65 64  1  0  0  0  0
 66 67  1  0  0  0  0
 66 65  1  0  0  0  0
 68 66  1  0  0  0  0
 70 69  2  0  0  0  0
 70 68  1  0  0  0  0
M  END
>  <MODEL>
2

>  <REMARK>
 VINA RESULT:      -5.3      2.985      9.754
  Name = 
  27 active torsions:
  status: ('A' for Active; 'I' for Inactive)
    1  A    between atoms: C_5  and  N_32
    2  A    between atoms: C_5  and  O_36
    3  A    between atoms: C_9  and  C_16
    4  A    between atoms: C_10  and  C_11
    5  A    between atoms: C_10  and  S_64
    6  A    between atoms: C_11  and  P_55
    7  A    between atoms: C_14  and  C_23
    8  A    between atoms: C_15  and  C_23
    9  A    between atoms: C_15  and  C_57
   10  A    between atoms: C_16  and  O_36
   11  A    between atoms: C_18  and  C_19
   12  A    between atoms: C_19  and  C_41
   13  A    between atoms: C_20  and  C_65
   14  A    between atoms: N_25  and  O_62
   15  A    between atoms: C_29  and  C_63
   16  A    between atoms: C_30  and  N_31
   17  A    between atoms: N_31  and  C_54
   18  A    between atoms: O_33  and  C_39
   19  A    between atoms: O_33  and  C_58
   20  A    between atoms: C_42  and  C_43
   21  A    between atoms: C_42  and  C_57
   22  A    between atoms: C_45  and  C_54
   23  A    between atoms: N_46  and  C_56
   24  A    between atoms: C_52  and  C_60
   25  A    between atoms: C_52  and  C_61
   26  A    between atoms: C_60  and  S_64
   27  A    between atoms: C_61  and  O_62
                            x       y       z     vdW  Elec       q    Type
                         _______ _______ _______ _____ _____    ______ ____

>  <TORSDO>
F 27

$$$$
=
 OpenBabel10222422133D

 70 76  0  0  1  0  0  0  0  0999 V2000
  191.0590  174.6260  135.6290 C   0  0  0  0  0  2  0  0  0  0  0  0
  192.8340  172.9030  135.2290 C   0  0  0  0  0  0  0  0  0  0  0  0
  190.4970  172.4470  134.4360 C   0  0  0  0  0  2  0  0  0  0  0  0
  191.4570  173.3000  135.1450 N   0  0  0  0  0  0  0  0  0  0  0  0
  188.6260  174.0440  135.1280 C   0  0  2  0  0  3  0  0  0  0  0  0
  193.8040  173.8030  135.7700 N   0  0  0  0  0  2  0  0  0  0  0  0
  189.1080  172.5860  135.0590 C   0  0  0  0  0  2  0  0  0  0  0  0
  189.7640  175.0750  134.9590 C   0  0  1  0  0  3  0  0  0  0  0  0
  193.1910  171.7680  134.8120 O   0  0  0  0  0  0  0  0  0  0  0  0
  196.6440  171.5780  137.2220 C   0  0  1  0  0  3  0  0  0  0  0  0
  195.4220  172.2110  136.6690 C   0  0  2  0  0  0  0  0  0  0  0  0
  196.2800  170.3150  138.0150 C   0  0  0  0  0  2  0  0  0  0  0  0
  194.8560  174.0300  138.1290 O   0  0  0  0  0  1  0  0  0  0  0  0
  195.7030  170.2440  135.3870 C   0  0  0  0  0  2  0  0  0  0  0  0
  196.8640  169.0830  137.3260 C   0  0  0  0  0  2  0  0  0  0  0  0
  195.2280  173.4820  135.8220 C   0  0  2  0  0  3  0  0  0  0  0  0
  196.3800  171.4830  135.7870 N   0  0  2  0  0  0  0  0  0  0  0  0
  196.4950  169.0180  135.8410 C   0  0  0  0  0  2  0  0  0  0  0  0
  195.8000  173.6140  137.1820 C   0  0  2  0  0  3  0  0  0  0  0  0
  187.8530  174.2510  136.4210 C   0  0  0  0  0  2  0  0  0  0  0  0
  186.9790  173.1140  136.6580 N   0  0  0  0  0  2  0  0  0  0  0  0
  182.6330  173.2980  135.6240 O   0  0  0  0  0  1  0  0  0  0  0  0
  185.7420  173.3680  135.9400 C   0  0  2  0  0  3  0  0  0  0  0  0
  183.9920  174.3620  137.2560 N   0  0  0  0  0  0  0  0  0  0  0  0
  185.1420  174.6820  136.4180 C   0  0  0  0  0  2  0  0  0  0  0  0
  184.7210  172.3120  136.3080 C   0  0  1  0  0  3  0  0  0  0  0  0
  183.4820  173.0930  136.7220 C   0  0  0  0  0  0  0  0  0  0  0  0
  182.7990  172.3970  137.7190 O   0  0  0  0  0  1  0  0  0  0  0  0
  183.0200  175.4460  137.1410 C   0  0  0  0  0  2  0  0  0  0  0  0
  183.5980  176.5190  136.4570 O   0  0  0  0  0  0  0  0  0  0  0  0
  182.5110  177.2680  136.0000 C   0  0  0  0  0  2  0  0  0  0  0  0
  180.1270  177.1310  135.9950 O   0  0  0  0  0  1  0  0  0  0  0  0
  181.2900  176.3710  135.8630 C   0  0  0  0  0  2  0  0  0  0  0  0
  184.4780  171.3260  135.1670 C   0  0  0  0  0  2  0  0  0  0  0  0
  183.6870  170.1120  135.6400 C   0  0  0  0  0  2  0  0  0  0  0  0
  184.1250  168.8610  134.8910 C   0  0  0  0  0  2  0  0  0  0  0  0
  185.4780  168.3770  135.3840 C   0  0  0  0  0  2  0  0  0  0  0  0
  186.5440  168.6840  134.3460 C   0  0  0  0  0  2  0  0  0  0  0  0
  187.8800  168.8790  135.0330 C   0  0  0  0  0  1  0  0  0  0  0  0
  189.3890  176.3700  135.4220 O   0  0  0  0  0  0  0  0  0  0  0  0
  188.2030  177.5120  137.1780 C   0  0  0  0  0  3  0  0  0  0  0  0
  188.0330  177.8420  138.5260 C   0  0  0  0  0  0  0  0  0  0  0  0
  189.2550  176.6820  136.7780 C   0  0  0  0  0  0  0  0  0  0  0  0
  189.9770  176.5010  139.0900 C   0  0  0  0  0  3  0  0  0  0  0  0
  190.1430  176.1760  137.7400 C   0  0  0  0  0  3  0  0  0  0  0  0
  188.9290  177.3350  139.4820 C   0  0  0  0  0  3  0  0  0  0  0  0
  185.6590  178.4250  138.5740 C   0  0  0  0  0  3  0  0  0  0  0  0
  186.9100  178.7100  138.9060 C   0  0  0  0  0  3  0  0  0  0  0  0
  184.5430  179.3300  138.9600 C   0  0  0  0  0  2  0  0  0  0  0  0
  184.7840  178.9150  141.4250 C   0  0  0  0  0  2  0  0  0  0  0  0
  182.5980  178.3230  142.6290 C   0  0  0  0  0  2  0  0  0  0  0  0
  182.6550  179.4400  140.4420 O   0  0  0  0  0  0  0  0  0  0  0  0
  181.9150  178.5750  141.2710 C   0  0  2  0  0  3  0  0  0  0  0  0
  183.8700  178.7830  140.2030 C   0  0  1  0  0  3  0  0  0  0  0  0
  180.5310  179.1400  141.4980 C   0  0  0  0  0  1  0  0  0  0  0  0
  183.9730  178.9950  142.7300 C   0  0  1  0  0  3  0  0  0  0  0  0
  184.7460  178.4180  143.8710 C   0  0  0  0  0  0  0  0  0  0  0  0
  185.9190  177.6390  143.6220 N   0  0  0  0  0  2  0  0  0  0  0  0
  184.3320  178.5840  145.0490 O   0  0  0  0  0  0  0  0  0  0  0  0
  186.5480  176.9580  144.6090 O   0  0  0  0  0  0  0  0  0  0  0  0
  187.2320  177.9340  145.3370 C   0  0  0  0  0  2  0  0  0  0  0  0
  188.1440  177.2830  146.3750 C   0  0  0  0  0  2  0  0  0  0  0  0
  189.7050  178.1220  148.1810 C   0  0  0  0  0  1  0  0  0  0  0  0
  189.3900  178.1120  146.6960 C   0  0  1  0  0  3  0  0  0  0  0  0
  190.8400  177.5780  145.7360 S   0  0  0  0  0  0  0  0  0  0  0  0
  190.4800  178.7420  144.3920 C   0  0  1  0  0  3  0  0  0  0  0  0
  191.6280  179.4450  144.0800 F   0  0  0  0  0  0  0  0  0  0  0  0
  190.0090  177.9890  143.1610 C   0  0  0  0  0  2  0  0  0  0  0  0
  190.0870  175.0410  142.8750 O   0  0  0  0  0  0  0  0  0  0  0  0
  190.8950  176.3580  143.0220 P   0  0  0  0  0  0  0  0  0  0  0  0
  2  6  1  0  0  0  0
  3  7  1  0  0  0  0
  3  4  1  0  0  0  0
  4  2  1  0  0  0  0
  4  1  1  0  0  0  0
  5 20  1  1  0  0  0
  6 16  1  0  0  0  0
  7  5  1  0  0  0  0
  8  5  1  0  0  0  0
  8 40  1  1  0  0  0
  8  1  1  0  0  0  0
  9  2  2  0  0  0  0
 10 12  1  1  0  0  0
 11 19  1  0  0  0  0
 11 10  1  0  0  0  0
 14 17  1  0  0  0  0
 14 18  1  0  0  0  0
 15 12  1  0  0  0  0
 16 11  1  0  0  0  0
 16 19  1  0  0  0  0
 17 11  1  0  0  0  0
 17 10  1  0  0  0  0
 18 15  1  0  0  0  0
 19 13  1  0  0  0  0
 20 21  1  0  0  0  0
 22 27  1  0  0  0  0
 23 26  1  0  0  0  0
 23 25  1  0  0  0  0
 23 21  1  0  0  0  0
 25 24  1  0  0  0  0
 26 27  1  0  0  0  0
 27 24  1  0  0  0  0
 27 28  1  0  0  0  0
 29 24  1  0  0  0  0
 30 29  1  0  0  0  0
 31 30  1  0  0  0  0
 33 32  1  0  0  0  0
 33 31  1  0  0  0  0
 34 35  1  0  0  0  0
 34 26  1  0  0  0  0
 36 37  1  0  0  0  0
 36 35  1  0  0  0  0
 38 39  1  0  0  0  0
 38 37  1  0  0  0  0
 40 43  1  0  0  0  0
 41 42  1  0  0  0  0
 42 48  1  0  0  0  0
 42 46  2  0  0  0  0
 43 41  2  0  0  0  0
 43 45  1  0  0  0  0
 44 46  1  0  0  0  0
 45 44  2  0  0  0  0
 47 48  2  0  0  0  0
 47 49  1  0  0  0  0
 49 54  1  0  0  0  0
 50 56  1  0  0  0  0
 51 56  1  0  0  0  0
 52 53  1  0  0  0  0
 53 55  1  0  0  0  0
 53 51  1  0  0  0  0
 54 52  1  0  0  0  0
 54 50  1  0  0  0  0
 56 57  1  0  0  0  0
 57 59  2  0  0  0  0
 58 57  1  0  0  0  0
 58 60  1  0  0  0  0
 60 61  1  0  0  0  0
 61 62  1  0  0  0  0
 62 64  1  0  0  0  0
 64 63  1  0  0  0  0
 65 64  1  0  0  0  0
 66 65  1  0  0  0  0
 67 66  1  0  0  0  0
 68 66  1  0  0  0  0
 69 70  2  0  0  0  0
 70 68  1  0  0  0  0
M  END
>  <MODEL>
3

>  <REMARK>
 VINA RESULT:      -5.3      2.971      9.620
  Name = 
  27 active torsions:
  status: ('A' for Active; 'I' for Inactive)
    1  A    between atoms: C_5  and  N_32
    2  A    between atoms: C_5  and  O_36
    3  A    between atoms: C_9  and  C_16
    4  A    between atoms: C_10  and  C_11
    5  A    between atoms: C_10  and  S_64
    6  A    between atoms: C_11  and  P_55
    7  A    between atoms: C_14  and  C_23
    8  A    between atoms: C_15  and  C_23
    9  A    between atoms: C_15  and  C_57
   10  A    between atoms: C_16  and  O_36
   11  A    between atoms: C_18  and  C_19
   12  A    between atoms: C_19  and  C_41
   13  A    between atoms: C_20  and  C_65
   14  A    between atoms: N_25  and  O_62
   15  A    between atoms: C_29  and  C_63
   16  A    between atoms: C_30  and  N_31
   17  A    between atoms: N_31  and  C_54
   18  A    between atoms: O_33  and  C_39
   19  A    between atoms: O_33  and  C_58
   20  A    between atoms: C_42  and  C_43
   21  A    between atoms: C_42  and  C_57
   22  A    between atoms: C_45  and  C_54
   23  A    between atoms: N_46  and  C_56
   24  A    between atoms: C_52  and  C_60
   25  A    between atoms: C_52  and  C_61
   26  A    between atoms: C_60  and  S_64
   27  A    between atoms: C_61  and  O_62
                            x       y       z     vdW  Elec       q    Type
                         _______ _______ _______ _____ _____    ______ ____

>  <TORSDO>
F 27

$$$$
=
 OpenBabel10222422133D

 70 76  0  0  1  0  0  0  0  0999 V2000
  187.7420  176.5700  137.0590 C   0  0  0  0  0  2  0  0  0  0  0  0
  185.6780  177.9660  137.3270 C   0  0  0  0  0  0  0  0  0  0  0  0
  187.8800  178.8930  138.0960 C   0  0  0  0  0  2  0  0  0  0  0  0
  187.0860  177.7910  137.5420 N   0  0  0  0  0  0  0  0  0  0  0  0
  189.9220  177.3560  138.1260 C   0  0  2  0  0  3  0  0  0  0  0  0
  184.9300  176.9620  136.6370 N   0  0  0  0  0  2  0  0  0  0  0  0
  189.0450  178.3420  138.9160 C   0  0  0  0  0  2  0  0  0  0  0  0
  189.2340  176.8090  136.8560 C   0  0  1  0  0  3  0  0  0  0  0  0
  185.1020  179.0110  137.7330 O   0  0  0  0  0  0  0  0  0  0  0  0
  181.2360  176.4340  137.7310 C   0  0  1  0  0  3  0  0  0  0  0  0
  182.6880  176.6870  137.5620 C   0  0  2  0  0  0  0  0  0  0  0  0
  180.9300  176.0160  139.1760 C   0  0  0  0  0  2  0  0  0  0  0  0
  183.6230  174.7240  136.5440 O   0  0  0  0  0  1  0  0  0  0  0  0
  181.9190  178.5010  138.8690 C   0  0  0  0  0  2  0  0  0  0  0  0
  180.0590  177.0740  139.8500 C   0  0  0  0  0  2  0  0  0  0  0  0
  183.5100  177.1130  136.3310 C   0  0  2  0  0  3  0  0  0  0  0  0
  181.7080  177.8110  137.5910 N   0  0  2  0  0  0  0  0  0  0  0  0
  180.6470  178.4830  139.7160 C   0  0  0  0  0  2  0  0  0  0  0  0
  182.7880  175.8190  136.2920 C   0  0  2  0  0  3  0  0  0  0  0  0
  190.3770  176.2420  139.0570 C   0  0  0  0  0  2  0  0  0  0  0  0
  189.4960  176.1760  140.2110 N   0  0  0  0  0  2  0  0  0  0  0  0
  189.7490  178.8670  143.7720 O   0  0  0  0  0  1  0  0  0  0  0  0
  189.8270  177.3010  141.0680 C   0  0  2  0  0  3  0  0  0  0  0  0
  190.5960  176.7060  143.2680 N   0  0  0  0  0  0  0  0  0  0  0  0
  191.0500  176.9540  141.9040 C   0  0  0  0  0  2  0  0  0  0  0  0
  188.7120  177.5130  142.0710 C   0  0  1  0  0  3  0  0  0  0  0  0
  189.4060  177.5510  143.4250 C   0  0  0  0  0  0  0  0  0  0  0  0
  188.5650  177.0140  144.3990 O   0  0  0  0  0  1  0  0  0  0  0  0
  191.6680  177.0760  144.1870 C   0  0  0  0  0  2  0  0  0  0  0  0
  191.9420  176.0020  145.0390 O   0  0  0  0  0  0  0  0  0  0  0  0
  191.5490  176.4500  146.3020 C   0  0  0  0  0  2  0  0  0  0  0  0
  193.3320  175.7220  147.7150 O   0  0  0  0  0  1  0  0  0  0  0  0
  192.0060  175.4610  147.3640 C   0  0  0  0  0  2  0  0  0  0  0  0
  187.8920  178.7650  141.7600 C   0  0  0  0  0  2  0  0  0  0  0  0
  186.3990  178.4620  141.7480 C   0  0  0  0  0  2  0  0  0  0  0  0
  185.8990  178.1730  143.1570 C   0  0  0  0  0  2  0  0  0  0  0  0
  184.8190  179.1610  143.5640 C   0  0  0  0  0  2  0  0  0  0  0  0
  184.4200  178.9190  145.0100 C   0  0  0  0  0  2  0  0  0  0  0  0
  185.6570  178.6390  145.8370 C   0  0  0  0  0  1  0  0  0  0  0  0
  189.8640  175.6250  136.3730 O   0  0  0  0  0  0  0  0  0  0  0  0
  192.1350  174.9740  136.8380 C   0  0  0  0  0  3  0  0  0  0  0  0
  193.4860  174.9080  136.4840 C   0  0  0  0  0  0  0  0  0  0  0  0
  191.2070  175.5820  135.9870 C   0  0  0  0  0  0  0  0  0  0  0  0
  192.9880  176.0620  134.4070 C   0  0  0  0  0  3  0  0  0  0  0  0
  191.6390  176.1260  134.7670 C   0  0  0  0  0  3  0  0  0  0  0  0
  193.9100  175.4580  135.2630 C   0  0  0  0  0  3  0  0  0  0  0  0
  194.9620  174.8910  138.4330 C   0  0  0  0  0  3  0  0  0  0  0  0
  194.4270  174.2520  137.4030 C   0  0  0  0  0  3  0  0  0  0  0  0
  195.9240  174.2050  139.3380 C   0  0  0  0  0  2  0  0  0  0  0  0
  196.3870  172.8000  137.3090 C   0  0  0  0  0  2  0  0  0  0  0  0
  198.8510  172.7230  136.6010 C   0  0  0  0  0  2  0  0  0  0  0  0
  197.9360  174.4790  138.0550 O   0  0  0  0  0  0  0  0  0  0  0  0
  199.0910  173.7380  137.7340 C   0  0  2  0  0  3  0  0  0  0  0  0
  196.9990  173.5380  138.5030 C   0  0  1  0  0  3  0  0  0  0  0  0
  200.2110  174.6760  137.3450 C   0  0  0  0  0  1  0  0  0  0  0  0
  197.3860  172.6830  136.1450 C   0  0  1  0  0  3  0  0  0  0  0  0
  197.1290  171.4480  135.3470 C   0  0  0  0  0  0  0  0  0  0  0  0
  197.8490  170.2460  135.6320 N   0  0  0  0  0  2  0  0  0  0  0  0
  196.3060  171.4840  134.3930 O   0  0  0  0  0  0  0  0  0  0  0  0
  197.7730  169.1580  134.8290 O   0  0  0  0  0  0  0  0  0  0  0  0
  196.5550  168.5560  135.1560 C   0  0  0  0  0  2  0  0  0  0  0  0
  195.9940  169.1580  136.4440 C   0  0  0  0  0  2  0  0  0  0  0  0
  194.1050  168.4430  137.9690 C   0  0  0  0  0  1  0  0  0  0  0  0
  194.4830  168.9680  136.5950 C   0  0  1  0  0  3  0  0  0  0  0  0
  193.5560  170.4850  136.2100 S   0  0  0  0  0  0  0  0  0  0  0  0
  192.6850  169.7000  134.8270 C   0  0  1  0  0  3  0  0  0  0  0  0
  192.4790  168.3640  135.1190 F   0  0  0  0  0  0  0  0  0  0  0  0
  191.3430  170.3730  134.6040 C   0  0  0  0  0  2  0  0  0  0  0  0
  188.5180  169.5150  134.3560 O   0  0  0  0  0  0  0  0  0  0  0  0
  189.9620  169.1370  134.7820 P   0  0  0  0  0  0  0  0  0  0  0  0
  1  4  1  0  0  0  0
  2  4  1  0  0  0  0
  2  9  2  0  0  0  0
  3  7  1  0  0  0  0
  4  3  1  0  0  0  0
  5  7  1  0  0  0  0
  5 20  1  1  0  0  0
  6  2  1  0  0  0  0
  8 40  1  1  0  0  0
  8  1  1  0  0  0  0
  8  5  1  0  0  0  0
 10 12  1  1  0  0  0
 11 17  1  0  0  0  0
 11 10  1  0  0  0  0
 12 15  1  0  0  0  0
 14 18  1  0  0  0  0
 16  6  1  0  0  0  0
 16 11  1  0  0  0  0
 17 10  1  0  0  0  0
 17 14  1  0  0  0  0
 18 15  1  0  0  0  0
 19 16  1  0  0  0  0
 19 13  1  0  0  0  0
 19 11  1  0  0  0  0
 20 21  1  0  0  0  0
 21 23  1  0  0  0  0
 23 25  1  0  0  0  0
 23 26  1  0  0  0  0
 24 27  1  0  0  0  0
 24 29  1  0  0  0  0
 25 24  1  0  0  0  0
 26 27  1  0  0  0  0
 27 22  1  0  0  0  0
 27 28  1  0  0  0  0
 29 30  1  0  0  0  0
 30 31  1  0  0  0  0
 31 33  1  0  0  0  0
 33 32  1  0  0  0  0
 34 26  1  0  0  0  0
 35 34  1  0  0  0  0
 35 36  1  0  0  0  0
 36 37  1  0  0  0  0
 37 38  1  0  0  0  0
 38 39  1  0  0  0  0
 42 41  1  0  0  0  0
 42 48  1  0  0  0  0
 43 40  1  0  0  0  0
 43 41  2  0  0  0  0
 44 45  2  0  0  0  0
 44 46  1  0  0  0  0
 45 43  1  0  0  0  0
 46 42  2  0  0  0  0
 47 49  1  0  0  0  0
 48 47  2  0  0  0  0
 50 54  1  0  0  0  0
 51 53  1  0  0  0  0
 52 54  1  0  0  0  0
 53 52  1  0  0  0  0
 54 49  1  0  0  0  0
 55 53  1  0  0  0  0
 56 51  1  0  0  0  0
 56 50  1  0  0  0  0
 57 58  1  0  0  0  0
 57 56  1  0  0  0  0
 59 57  2  0  0  0  0
 60 61  1  0  0  0  0
 60 58  1  0  0  0  0
 61 62  1  0  0  0  0
 62 64  1  0  0  0  0
 64 63  1  0  0  0  0
 65 64  1  0  0  0  0
 66 67  1  0  0  0  0
 66 65  1  0  0  0  0
 68 70  1  0  0  0  0
 68 66  1  0  0  0  0
 69 70  2  0  0  0  0
M  END
>  <MODEL>
4

>  <REMARK>
 VINA RESULT:      -4.8      3.704     10.598
  Name = 
  27 active torsions:
  status: ('A' for Active; 'I' for Inactive)
    1  A    between atoms: C_5  and  N_32
    2  A    between atoms: C_5  and  O_36
    3  A    between atoms: C_9  and  C_16
    4  A    between atoms: C_10  and  C_11
    5  A    between atoms: C_10  and  S_64
    6  A    between atoms: C_11  and  P_55
    7  A    between atoms: C_14  and  C_23
    8  A    between atoms: C_15  and  C_23
    9  A    between atoms: C_15  and  C_57
   10  A    between atoms: C_16  and  O_36
   11  A    between atoms: C_18  and  C_19
   12  A    between atoms: C_19  and  C_41
   13  A    between atoms: C_20  and  C_65
   14  A    between atoms: N_25  and  O_62
   15  A    between atoms: C_29  and  C_63
   16  A    between atoms: C_30  and  N_31
   17  A    between atoms: N_31  and  C_54
   18  A    between atoms: O_33  and  C_39
   19  A    between atoms: O_33  and  C_58
   20  A    between atoms: C_42  and  C_43
   21  A    between atoms: C_42  and  C_57
   22  A    between atoms: C_45  and  C_54
   23  A    between atoms: N_46  and  C_56
   24  A    between atoms: C_52  and  C_60
   25  A    between atoms: C_52  and  C_61
   26  A    between atoms: C_60  and  S_64
   27  A    between atoms: C_61  and  O_62
                            x       y       z     vdW  Elec       q    Type
                         _______ _______ _______ _____ _____    ______ ____

>  <TORSDO>
F 27

$$$$
=
 OpenBabel10222422133D

 70 76  0  0  1  0  0  0  0  0999 V2000
  183.6410  176.9000  138.6120 C   0  0  0  0  0  2  0  0  0  0  0  0
  181.3520  175.8870  138.5100 C   0  0  0  0  0  0  0  0  0  0  0  0
  181.6600  178.0750  139.7000 C   0  0  0  0  0  2  0  0  0  0  0  0
  182.2220  176.9240  138.9850 N   0  0  0  0  0  0  0  0  0  0  0  0
  184.0320  178.9440  140.0880 C   0  0  2  0  0  3  0  0  0  0  0  0
  181.8670  174.8500  137.6720 N   0  0  0  0  0  2  0  0  0  0  0  0
  182.6690  178.6080  140.7150 C   0  0  0  0  0  2  0  0  0  0  0  0
  184.2420  178.2990  138.7000 C   0  0  1  0  0  3  0  0  0  0  0  0
  180.1290  175.8970  138.8190 O   0  0  0  0  0  0  0  0  0  0  0  0
  181.4450  171.9590  135.1050 C   0  0  1  0  0  3  0  0  0  0  0  0
  181.8470  172.9770  136.1060 C   0  0  2  0  0  0  0  0  0  0  0  0
  182.6740  171.4390  134.3460 C   0  0  0  0  0  2  0  0  0  0  0  0
  181.3960  175.1260  135.1370 O   0  0  0  0  0  1  0  0  0  0  0  0
  182.6390  170.9310  136.9890 C   0  0  0  0  0  2  0  0  0  0  0  0
  182.8880  169.9590  134.6550 C   0  0  0  0  0  2  0  0  0  0  0  0
  181.0180  173.8050  137.1060 C   0  0  2  0  0  3  0  0  0  0  0  0
  181.4230  171.6090  136.5250 N   0  0  2  0  0  0  0  0  0  0  0  0
  182.9150  169.6770  136.1610 C   0  0  0  0  0  2  0  0  0  0  0  0
  180.7720  173.9850  135.6550 C   0  0  2  0  0  3  0  0  0  0  0  0
  185.1350  178.5700  141.0660 C   0  0  0  0  0  2  0  0  0  0  0  0
  184.8210  179.0970  142.3840 N   0  0  0  0  0  2  0  0  0  0  0  0
  188.6200  177.8320  144.3730 O   0  0  0  0  0  1  0  0  0  0  0  0
  186.0630  179.1360  143.1360 C   0  0  2  0  0  3  0  0  0  0  0  0
  187.9050  177.9780  142.1130 N   0  0  0  0  0  0  0  0  0  0  0  0
  187.2330  179.2710  142.1720 C   0  0  0  0  0  2  0  0  0  0  0  0
  186.2740  177.8050  143.8280 C   0  0  1  0  0  3  0  0  0  0  0  0
  187.6800  177.3780  143.4340 C   0  0  0  0  0  0  0  0  0  0  0  0
  187.7420  175.9880  143.3430 O   0  0  0  0  0  1  0  0  0  0  0  0
  189.3210  178.2060  141.8360 C   0  0  0  0  0  2  0  0  0  0  0  0
  189.5680  178.0030  140.4760 O   0  0  0  0  0  0  0  0  0  0  0  0
  189.9490  176.6610  140.3870 C   0  0  0  0  0  2  0  0  0  0  0  0
  190.7140  177.2780  138.2110 O   0  0  0  0  0  1  0  0  0  0  0  0
  190.0810  176.2600  138.9260 C   0  0  0  0  0  2  0  0  0  0  0  0
  186.0570  177.9030  145.3370 C   0  0  0  0  0  2  0  0  0  0  0  0
  187.2280  177.3060  146.1070 C   0  0  0  0  0  2  0  0  0  0  0  0
  187.1190  177.6350  147.5890 C   0  0  0  0  0  2  0  0  0  0  0  0
  188.1280  178.6990  147.9860 C   0  0  0  0  0  2  0  0  0  0  0  0
  189.3490  178.0440  148.6080 C   0  0  0  0  0  2  0  0  0  0  0  0
  190.0440  177.1820  147.5740 C   0  0  0  0  0  1  0  0  0  0  0  0
  185.6170  178.2730  138.3220 O   0  0  0  0  0  0  0  0  0  0  0  0
  186.1040  176.4170  136.8690 C   0  0  0  0  0  3  0  0  0  0  0  0
  186.5320  175.9050  135.6400 C   0  0  0  0  0  0  0  0  0  0  0  0
  186.0540  177.7980  137.0830 C   0  0  0  0  0  0  0  0  0  0  0  0
  186.8600  178.1670  134.8210 C   0  0  0  0  0  3  0  0  0  0  0  0
  186.4330  178.6740  136.0530 C   0  0  0  0  0  3  0  0  0  0  0  0
  186.9130  176.7880  134.6160 C   0  0  0  0  0  3  0  0  0  0  0  0
  186.0530  173.6140  136.3500 C   0  0  0  0  0  3  0  0  0  0  0  0
  186.5610  174.4480  135.4530 C   0  0  0  0  0  3  0  0  0  0  0  0
  186.1110  172.1420  136.1400 C   0  0  0  0  0  2  0  0  0  0  0  0
  188.5290  172.7120  135.7790 C   0  0  0  0  0  2  0  0  0  0  0  0
  189.8510  170.9680  134.4390 C   0  0  0  0  0  2  0  0  0  0  0  0
  187.7230  170.4600  135.5560 O   0  0  0  0  0  0  0  0  0  0  0  0
  188.5580  170.1310  134.4700 C   0  0  2  0  0  3  0  0  0  0  0  0
  187.3690  171.8020  135.3660 C   0  0  1  0  0  3  0  0  0  0  0  0
  188.9070  168.6620  134.5150 C   0  0  0  0  0  1  0  0  0  0  0  0
  189.8900  172.0330  135.5440 C   0  0  1  0  0  3  0  0  0  0  0  0
  190.9450  173.0470  135.2440 C   0  0  0  0  0  0  0  0  0  0  0  0
  192.2220  172.9640  135.8810 N   0  0  0  0  0  2  0  0  0  0  0  0
  190.6870  174.0000  134.4600 O   0  0  0  0  0  0  0  0  0  0  0  0
  193.1420  173.9520  135.7710 O   0  0  0  0  0  0  0  0  0  0  0  0
  194.3710  173.3200  135.9770 C   0  0  0  0  0  2  0  0  0  0  0  0
  195.1210  173.1700  134.6540 C   0  0  0  0  0  2  0  0  0  0  0  0
  197.0720  172.7000  136.1950 C   0  0  0  0  0  1  0  0  0  0  0  0
  196.4930  172.5090  134.8050 C   0  0  1  0  0  3  0  0  0  0  0  0
  196.4630  170.7460  134.3570 S   0  0  0  0  0  0  0  0  0  0  0  0
  194.8970  170.4680  135.2290 C   0  0  1  0  0  3  0  0  0  0  0  0
  194.1390  169.5550  134.5210 F   0  0  0  0  0  0  0  0  0  0  0  0
  195.1640  169.9210  136.6190 C   0  0  0  0  0  2  0  0  0  0  0  0
  197.3780  168.3700  137.8320 O   0  0  0  0  0  0  0  0  0  0  0  0
  196.5250  168.6530  136.5660 P   0  0  0  0  0  0  0  0  0  0  0  0
  1  8  1  0  0  0  0
  1  4  1  0  0  0  0
  2  9  2  0  0  0  0
  2  4  1  0  0  0  0
  3  7  1  0  0  0  0
  4  3  1  0  0  0  0
  5  7  1  0  0  0  0
  5 20  1  1  0  0  0
  6  2  1  0  0  0  0
  8 40  1  1  0  0  0
  8  5  1  0  0  0  0
 10 12  1  6  0  0  0
 10 11  1  0  0  0  0
 10 17  1  0  0  0  0
 11 17  1  0  0  0  0
 11 16  1  0  0  0  0
 12 15  1  0  0  0  0
 13 19  1  0  0  0  0
 15 18  1  0  0  0  0
 16  6  1  0  0  0  0
 17 14  1  0  0  0  0
 18 14  1  0  0  0  0
 19 11  1  0  0  0  0
 19 16  1  0  0  0  0
 20 21  1  0  0  0  0
 21 23  1  0  0  0  0
 23 26  1  0  0  0  0
 24 25  1  0  0  0  0
 24 27  1  0  0  0  0
 25 23  1  0  0  0  0
 26 34  1  0  0  0  0
 27 26  1  0  0  0  0
 27 22  1  0  0  0  0
 28 27  1  0  0  0  0
 29 24  1  0  0  0  0
 30 29  1  0  0  0  0
 31 30  1  0  0  0  0
 32 33  1  0  0  0  0
 33 31  1  0  0  0  0
 34 35  1  0  0  0  0
 35 36  1  0  0  0  0
 36 37  1  0  0  0  0
 37 38  1  0  0  0  0
 39 38  1  0  0  0  0
 41 43  1  0  0  0  0
 42 41  2  0  0  0  0
 43 40  1  0  0  0  0
 44 45  1  0  0  0  0
 45 43  2  0  0  0  0
 46 44  2  0  0  0  0
 46 42  1  0  0  0  0
 48 42  1  0  0  0  0
 48 47  2  0  0  0  0
 49 47  1  0  0  0  0
 51 53  1  0  0  0  0
 51 56  1  0  0  0  0
 53 55  1  0  0  0  0
 53 52  1  0  0  0  0
 54 52  1  0  0  0  0
 54 50  1  0  0  0  0
 54 49  1  0  0  0  0
 56 50  1  0  0  0  0
 57 56  1  0  0  0  0
 57 58  1  0  0  0  0
 59 57  2  0  0  0  0
 60 58  1  0  0  0  0
 60 61  1  0  0  0  0
 62 64  1  0  0  0  0
 62 61  1  0  0  0  0
 64 63  1  0  0  0  0
 65 64  1  0  0  0  0
 65 66  1  0  0  0  0
 66 68  1  0  0  0  0
 67 66  1  0  0  0  0
 70 68  1  0  0  0  0
 70 69  2  0  0  0  0
M  END
>  <MODEL>
5

>  <REMARK>
 VINA RESULT:      -4.3      4.349     11.544
  Name = 
  27 active torsions:
  status: ('A' for Active; 'I' for Inactive)
    1  A    between atoms: C_5  and  N_32
    2  A    between atoms: C_5  and  O_36
    3  A    between atoms: C_9  and  C_16
    4  A    between atoms: C_10  and  C_11
    5  A    between atoms: C_10  and  S_64
    6  A    between atoms: C_11  and  P_55
    7  A    between atoms: C_14  and  C_23
    8  A    between atoms: C_15  and  C_23
    9  A    between atoms: C_15  and  C_57
   10  A    between atoms: C_16  and  O_36
   11  A    between atoms: C_18  and  C_19
   12  A    between atoms: C_19  and  C_41
   13  A    between atoms: C_20  and  C_65
   14  A    between atoms: N_25  and  O_62
   15  A    between atoms: C_29  and  C_63
   16  A    between atoms: C_30  and  N_31
   17  A    between atoms: N_31  and  C_54
   18  A    between atoms: O_33  and  C_39
   19  A    between atoms: O_33  and  C_58
   20  A    between atoms: C_42  and  C_43
   21  A    between atoms: C_42  and  C_57
   22  A    between atoms: C_45  and  C_54
   23  A    between atoms: N_46  and  C_56
   24  A    between atoms: C_52  and  C_60
   25  A    between atoms: C_52  and  C_61
   26  A    between atoms: C_60  and  S_64
   27  A    between atoms: C_61  and  O_62
                            x       y       z     vdW  Elec       q    Type
                         _______ _______ _______ _____ _____    ______ ____

>  <TORSDO>
F 27

$$$$
=
 OpenBabel10222422133D

 70 76  0  0  1  0  0  0  0  0999 V2000
  189.6380  177.5880  139.4280 C   0  0  0  0  0  2  0  0  0  0  0  0
  191.2870  175.9900  138.4270 C   0  0  0  0  0  0  0  0  0  0  0  0
  190.3790  175.5210  140.7190 C   0  0  0  0  0  2  0  0  0  0  0  0
  190.4790  176.3910  139.5420 N   0  0  0  0  0  0  0  0  0  0  0  0
  188.9580  177.3050  141.8710 C   0  0  2  0  0  3  0  0  0  0  0  0
  191.2580  176.7470  137.2140 N   0  0  0  0  0  2  0  0  0  0  0  0
  190.1660  176.3600  141.9780 C   0  0  0  0  0  2  0  0  0  0  0  0
  188.4800  177.5260  140.4190 C   0  0  1  0  0  3  0  0  0  0  0  0
  192.0120  174.9610  138.5080 O   0  0  0  0  0  0  0  0  0  0  0  0
  194.0360  174.5270  135.6400 C   0  0  1  0  0  3  0  0  0  0  0  0
  192.9250  175.1670  136.3840 C   0  0  2  0  0  0  0  0  0  0  0  0
  194.6360  173.3760  136.4600 C   0  0  0  0  0  2  0  0  0  0  0  0
  193.8130  177.1590  137.3870 O   0  0  0  0  0  1  0  0  0  0  0  0
  192.0650  173.0640  135.7290 C   0  0  0  0  0  2  0  0  0  0  0  0
  194.3930  172.0480  135.7470 C   0  0  0  0  0  2  0  0  0  0  0  0
  192.0080  176.3520  136.0250 C   0  0  2  0  0  3  0  0  0  0  0  0
  192.6600  174.2980  135.2010 N   0  0  2  0  0  0  0  0  0  0  0  0
  192.9200  171.8490  135.3730 C   0  0  0  0  0  2  0  0  0  0  0  0
  193.4650  176.5930  136.1550 C   0  0  2  0  0  3  0  0  0  0  0  0
  189.2900  178.6150  142.5690 C   0  0  0  0  0  2  0  0  0  0  0  0
  190.6170  178.5360  143.1560 N   0  0  0  0  0  2  0  0  0  0  0  0
  189.7850  177.7260  147.4730 O   0  0  0  0  0  1  0  0  0  0  0  0
  190.4650  178.7190  144.5880 C   0  0  2  0  0  3  0  0  0  0  0  0
  191.4440  176.9890  145.9410 N   0  0  0  0  0  0  0  0  0  0  0  0
  191.7340  178.2630  145.2930 C   0  0  0  0  0  2  0  0  0  0  0  0
  189.3770  177.7980  145.1000 C   0  0  1  0  0  3  0  0  0  0  0  0
  190.0130  177.0510  146.2640 C   0  0  0  0  0  0  0  0  0  0  0  0
  189.4860  175.7620  146.3400 O   0  0  0  0  0  1  0  0  0  0  0  0
  192.2810  176.8760  147.1330 C   0  0  0  0  0  2  0  0  0  0  0  0
  191.9490  175.7090  147.8260 O   0  0  0  0  0  0  0  0  0  0  0  0
  192.8990  175.6270  148.8470 C   0  0  0  0  0  2  0  0  0  0  0  0
  194.1910  176.9560  150.3520 O   0  0  0  0  0  1  0  0  0  0  0  0
  193.3610  177.0240  149.2320 C   0  0  0  0  0  2  0  0  0  0  0  0
  188.1080  178.5600  145.4740 C   0  0  0  0  0  2  0  0  0  0  0  0
  187.0770  177.6420  146.1190 C   0  0  0  0  0  2  0  0  0  0  0  0
  186.4310  178.3200  147.3190 C   0  0  0  0  0  2  0  0  0  0  0  0
  185.0620  178.8730  146.9590 C   0  0  0  0  0  2  0  0  0  0  0  0
  184.5110  178.1360  145.7510 C   0  0  0  0  0  2  0  0  0  0  0  0
  183.4100  178.9590  145.1140 C   0  0  0  0  0  1  0  0  0  0  0  0
  187.6570  178.6840  140.2940 O   0  0  0  0  0  0  0  0  0  0  0  0
  185.3660  178.1020  139.8420 C   0  0  0  0  0  3  0  0  0  0  0  0
  184.0120  178.0980  140.1920 C   0  0  0  0  0  0  0  0  0  0  0  0
  186.3130  178.7040  140.6760 C   0  0  0  0  0  0  0  0  0  0  0  0
  184.5470  179.3030  142.2310 C   0  0  0  0  0  3  0  0  0  0  0  0
  185.8990  179.3060  141.8750 C   0  0  0  0  0  3  0  0  0  0  0  0
  183.6050  178.7060  141.3920 C   0  0  0  0  0  3  0  0  0  0  0  0
  182.1150  176.6220  139.7430 C   0  0  0  0  0  3  0  0  0  0  0  0
  183.0500  177.4470  139.2930 C   0  0  0  0  0  3  0  0  0  0  0  0
  181.1640  175.9650  138.8060 C   0  0  0  0  0  2  0  0  0  0  0  0
  181.7090  174.1300  137.1820 C   0  0  0  0  0  2  0  0  0  0  0  0
  182.7190  174.9290  134.9640 C   0  0  0  0  0  2  0  0  0  0  0  0
  181.4550  176.4080  136.4630 O   0  0  0  0  0  0  0  0  0  0  0  0
  182.4810  176.3540  135.5000 C   0  0  2  0  0  3  0  0  0  0  0  0
  181.8960  175.6100  137.5270 C   0  0  1  0  0  3  0  0  0  0  0  0
  182.1570  177.2800  134.3500 C   0  0  0  0  0  1  0  0  0  0  0  0
  181.8490  173.8810  135.6700 C   0  0  1  0  0  3  0  0  0  0  0  0
  182.3780  172.5100  135.4040 C   0  0  0  0  0  0  0  0  0  0  0  0
  183.2930  171.9040  136.3210 N   0  0  0  0  0  2  0  0  0  0  0  0
  182.0470  171.9090  134.3470 O   0  0  0  0  0  0  0  0  0  0  0  0
  183.9260  170.7400  136.0350 O   0  0  0  0  0  0  0  0  0  0  0  0
  185.0700  171.1190  135.3290 C   0  0  0  0  0  2  0  0  0  0  0  0
  185.8210  172.2160  136.0810 C   0  0  0  0  0  2  0  0  0  0  0  0
  187.7820  170.7970  135.3440 C   0  0  0  0  0  1  0  0  0  0  0  0
  187.3160  171.9300  136.2410 C   0  0  1  0  0  3  0  0  0  0  0  0
  188.3340  173.4150  135.9810 S   0  0  0  0  0  0  0  0  0  0  0  0
  186.9670  174.5260  136.4120 C   0  0  1  0  0  3  0  0  0  0  0  0
  187.4240  175.4870  137.2940 F   0  0  0  0  0  0  0  0  0  0  0  0
  186.4360  175.2090  135.1650 C   0  0  0  0  0  2  0  0  0  0  0  0
  185.6290  177.7300  136.4960 O   0  0  0  0  0  0  0  0  0  0  0  0
  186.4680  177.0580  135.3760 P   0  0  0  0  0  0  0  0  0  0  0  0
  1  4  1  0  0  0  0
  1  8  1  0  0  0  0
  2  9  2  0  0  0  0
  2  4  1  0  0  0  0
  3  7  1  0  0  0  0
  4  3  1  0  0  0  0
  5  7  1  0  0  0  0
  5 20  1  6  0  0  0
  6  2  1  0  0  0  0
  8 40  1  1  0  0  0
  8  5  1  0  0  0  0
 10 11  1  0  0  0  0
 10 12  1  1  0  0  0
 15 12  1  0  0  0  0
 16 19  1  0  0  0  0
 16 11  1  0  0  0  0
 16  6  1  0  0  0  0
 17 10  1  0  0  0  0
 17 14  1  0  0  0  0
 17 11  1  0  0  0  0
 18 14  1  0  0  0  0
 18 15  1  0  0  0  0
 19 11  1  0  0  0  0
 19 13  1  0  0  0  0
 20 21  1  0  0  0  0
 21 23  1  0  0  0  0
 23 26  1  0  0  0  0
 23 25  1  0  0  0  0
 24 27  1  0  0  0  0
 24 29  1  0  0  0  0
 25 24  1  0  0  0  0
 26 34  1  0  0  0  0
 26 27  1  0  0  0  0
 27 28  1  0  0  0  0
 27 22  1  0  0  0  0
 29 30  1  0  0  0  0
 30 31  1  0  0  0  0
 31 33  1  0  0  0  0
 33 32  1  0  0  0  0
 34 35  1  0  0  0  0
 35 36  1  0  0  0  0
 37 36  1  0  0  0  0
 38 37  1  0  0  0  0
 39 38  1  0  0  0  0
 40 43  1  0  0  0  0
 41 42  2  0  0  0  0
 41 43  1  0  0  0  0
 42 46  1  0  0  0  0
 43 45  2  0  0  0  0
 45 44  1  0  0  0  0
 46 44  2  0  0  0  0
 48 47  2  0  0  0  0
 48 42  1  0  0  0  0
 49 47  1  0  0  0  0
 50 54  1  0  0  0  0
 51 53  1  0  0  0  0
 51 56  1  0  0  0  0
 52 54  1  0  0  0  0
 53 52  1  0  0  0  0
 54 49  1  0  0  0  0
 55 53  1  0  0  0  0
 56 50  1  0  0  0  0
 57 56  1  0  0  0  0
 57 58  1  0  0  0  0
 59 57  2  0  0  0  0
 60 58  1  0  0  0  0
 61 60  1  0  0  0  0
 61 62  1  0  0  0  0
 62 64  1  0  0  0  0
 63 64  1  0  0  0  0
 65 64  1  0  0  0  0
 65 66  1  0  0  0  0
 66 67  1  0  0  0  0
 68 70  1  0  0  0  0
 68 66  1  0  0  0  0
 70 69  2  0  0  0  0
M  END
>  <MODEL>
6

>  <REMARK>
 VINA RESULT:      -3.6      3.100     10.767
  Name = 
  27 active torsions:
  status: ('A' for Active; 'I' for Inactive)
    1  A    between atoms: C_5  and  N_32
    2  A    between atoms: C_5  and  O_36
    3  A    between atoms: C_9  and  C_16
    4  A    between atoms: C_10  and  C_11
    5  A    between atoms: C_10  and  S_64
    6  A    between atoms: C_11  and  P_55
    7  A    between atoms: C_14  and  C_23
    8  A    between atoms: C_15  and  C_23
    9  A    between atoms: C_15  and  C_57
   10  A    between atoms: C_16  and  O_36
   11  A    between atoms: C_18  and  C_19
   12  A    between atoms: C_19  and  C_41
   13  A    between atoms: C_20  and  C_65
   14  A    between atoms: N_25  and  O_62
   15  A    between atoms: C_29  and  C_63
   16  A    between atoms: C_30  and  N_31
   17  A    between atoms: N_31  and  C_54
   18  A    between atoms: O_33  and  C_39
   19  A    between atoms: O_33  and  C_58
   20  A    between atoms: C_42  and  C_43
   21  A    between atoms: C_42  and  C_57
   22  A    between atoms: C_45  and  C_54
   23  A    between atoms: N_46  and  C_56
   24  A    between atoms: C_52  and  C_60
   25  A    between atoms: C_52  and  C_61
   26  A    between atoms: C_60  and  S_64
   27  A    between atoms: C_61  and  O_62
                            x       y       z     vdW  Elec       q    Type
                         _______ _______ _______ _____ _____    ______ ____

>  <TORSDO>
F 27

$$$$
