=
 OpenBabel10232411403D

 52 56  0  0  1  0  0  0  0  0999 V2000
  186.8530  177.4650  137.4160 C   0  0  1  0  0  3  0  0  0  0  0  0
  188.1330  175.7360  134.8550 C   0  0  0  0  0  2  0  0  0  0  0  0
  187.9490  176.7610  138.1270 N   0  0  0  0  0  0  0  0  0  0  0  0
  187.2550  178.7910  136.7370 C   0  0  0  0  0  1  0  0  0  0  0  0
  186.2410  176.4620  136.4310 C   0  0  2  0  0  3  0  0  0  0  0  0
  189.5690  174.9260  137.3490 C   0  0  0  0  0  3  0  0  0  0  0  0
  187.3300  175.4430  136.1320 C   0  0  2  0  0  3  0  0  0  0  0  0
  188.1650  175.4880  137.4060 C   0  0  2  0  0  3  0  0  0  0  0  0
  190.4930  176.4240  135.5040 C   0  0  0  0  0  2  0  0  0  0  0  0
  190.5720  175.3230  136.5550 C   0  0  0  0  0  0  0  0  0  0  0  0
  189.1070  176.8890  135.0430 C   0  0  0  0  0  2  0  0  0  0  0  0
  191.1000  172.6810  135.2390 C   0  0  0  0  0  1  0  0  0  0  0  0
  194.2900  173.3550  137.0430 C   0  0  0  0  0  0  0  0  0  0  0  0
  193.3150  172.7730  136.2910 N   0  0  0  0  0  0  0  0  0  0  0  0
  194.0490  174.6060  137.6230 C   0  0  0  0  0  3  0  0  0  0  0  0
  192.8470  175.2100  137.4390 N   0  0  0  0  0  0  0  0  0  0  0  0
  195.5490  172.6880  137.2190 N   0  0  0  0  0  0  0  0  0  0  0  0
  191.8600  174.6220  136.7040 C   0  0  0  0  0  0  0  0  0  0  0  0
  192.1090  173.3660  136.1070 C   0  0  0  0  0  0  0  0  0  0  0  0
  195.7880  171.5270  136.5660 O   0  0  0  0  0  1  0  0  0  0  0  0
  196.5320  173.1440  138.1920 C   0  0  0  0  0  2  0  0  0  0  0  0
  197.8470  173.5040  137.5250 C   0  0  0  0  0  2  0  0  0  0  0  0
  197.6280  174.4470  136.3550 C   0  0  0  0  0  2  0  0  0  0  0  0
  197.6080  175.7730  136.7930 O   0  0  0  0  0  1  0  0  0  0  0  0
  189.1790  177.5490  138.3030 C   0  0  0  0  0  2  0  0  0  0  0  0
  190.1150  176.3630  140.7590 O   0  0  0  0  0  0  0  0  0  0  0  0
  189.6010  177.5140  140.8060 C   0  0  0  0  0  0  0  0  0  0  0  0
  189.1930  178.1850  139.6130 N   0  0  0  0  0  2  0  0  0  0  0  0
  189.3940  178.1680  142.1320 C   0  0  0  0  0  2  0  0  0  0  0  0
  188.6170  177.3030  143.0850 C   0  0  0  0  0  0  0  0  0  0  0  0
  187.4630  176.9740  142.8530 O   0  0  0  0  0  0  0  0  0  0  0  0
  188.6320  177.2260  145.4570 O   0  0  0  0  0  1  0  0  0  0  0  0
  189.3080  176.7890  144.3110 C   0  0  2  0  0  3  0  0  0  0  0  0
  191.6930  176.0820  144.1660 C   0  0  0  0  0  2  0  0  0  0  0  0
  191.4560  176.6610  145.5540 C   0  0  0  0  0  2  0  0  0  0  0  0
  190.7550  177.2710  144.3480 C   0  0  0  0  0  3  0  0  0  0  0  0
  185.5020  177.0360  135.2230 C   0  0  0  0  0  2  0  0  0  0  0  0
  184.0760  176.5340  135.2160 C   0  0  0  0  0  2  0  0  0  0  0  0
  181.1410  176.7010  137.1350 C   0  0  2  0  0  3  0  0  0  0  0  0
  182.2280  175.9390  136.6340 O   0  0  0  0  0  0  0  0  0  0  0  0
  180.6250  177.5230  136.1310 O   0  0  0  0  0  1  0  0  0  0  0  0
  182.9250  178.0320  138.2730 C   0  0  2  0  0  3  0  0  0  0  0  0
  183.3150  178.0320  136.9270 O   0  0  0  0  0  0  0  0  0  0  0  0
  181.4880  177.5310  138.3830 C   0  0  2  0  0  3  0  0  0  0  0  0
  183.4520  176.6710  136.5900 C   0  0  2  0  0  3  0  0  0  0  0  0
  181.3430  176.6860  139.6370 C   0  0  0  0  0  2  0  0  0  0  0  0
  182.5420  176.0340  139.9170 O   0  0  0  0  0  1  0  0  0  0  0  0
  183.0550  179.4270  138.8610 C   0  0  0  0  0  2  0  0  0  0  0  0
  184.9040  179.1790  140.5670 C   0  0  0  0  0  0  0  0  0  0  0  0
  184.0320  178.5880  141.4830 O   0  0  0  0  0  1  0  0  0  0  0  0
  184.4240  179.6540  139.3120 N   0  0  0  0  0  2  0  0  0  0  0  0
  186.1180  179.3270  140.8600 O   0  0  0  0  0  0  0  0  0  0  0  0
  1  4  1  6  0  0  0
  1  3  1  0  0  0  0
  2 11  1  0  0  0  0
  3 25  1  0  0  0  0
  5 37  1  6  0  0  0
  5  1  1  0  0  0  0
  7  2  1  6  0  0  0
  7  5  1  0  0  0  0
  7  8  1  0  0  0  0
  8  6  1  6  0  0  0
  8  3  1  0  0  0  0
  9 10  1  0  0  0  0
 10 18  1  0  0  0  0
 10  6  2  0  0  0  0
 11  9  1  0  0  0  0
 12 19  1  0  0  0  0
 13 17  1  0  0  0  0
 13 15  1  0  0  0  0
 14 13  2  0  0  0  0
 16 15  2  0  0  0  0
 17 21  1  0  0  0  0
 18 16  1  0  0  0  0
 19 14  1  0  0  0  0
 19 18  2  0  0  0  0
 20 17  1  0  0  0  0
 22 21  1  0  0  0  0
 23 24  1  0  0  0  0
 23 22  1  0  0  0  0
 25 28  1  0  0  0  0
 26 27  2  0  0  0  0
 27 29  1  0  0  0  0
 28 27  1  0  0  0  0
 29 30  1  0  0  0  0
 30 33  1  0  0  0  0
 31 30  2  0  0  0  0
 33 36  1  0  0  0  0
 33 32  1  1  0  0  0
 34 36  1  0  0  0  0
 34 35  1  0  0  0  0
 36 35  1  0  0  0  0
 38 37  1  0  0  0  0
 39 41  1  6  0  0  0
 39 44  1  0  0  0  0
 40 39  1  0  0  0  0
 42 44  1  0  0  0  0
 42 48  1  6  0  0  0
 43 42  1  0  0  0  0
 44 46  1  1  0  0  0
 45 38  1  6  0  0  0
 45 40  1  0  0  0  0
 45 43  1  0  0  0  0
 46 47  1  0  0  0  0
 48 51  1  0  0  0  0
 49 52  2  0  0  0  0
 49 50  1  0  0  0  0
 51 49  1  0  0  0  0
M  END
>  <MODEL>
1

>  <REMARK>
 VINA RESULT:      -7.0      0.000      0.000
  Name = 
  16 active torsions:
  status: ('A' for Active; 'I' for Inactive)
    1  A    between atoms: C_1  and  C_24
    2  A    between atoms: C_1  and  C_47
    3  A    between atoms: C_10  and  C_17
    4  A    between atoms: N_12  and  C_32
    5  A    between atoms: C_13  and  C_24
    6  A    between atoms: C_13  and  C_42
    7  A    between atoms: C_15  and  C_43
    8  A    between atoms: C_17  and  C_29
    9  A    between atoms: C_21  and  C_48
   10  A    between atoms: C_22  and  C_49
   11  A    between atoms: C_29  and  N_36
   12  A    between atoms: C_32  and  N_51
   13  A    between atoms: C_34  and  C_44
   14  A    between atoms: C_34  and  C_49
   15  A    between atoms: C_37  and  C_39
   16  A    between atoms: N_38  and  C_48
                            x       y       z     vdW  Elec       q    Type
                         _______ _______ _______ _____ _____    ______ ____

>  <TORSDO>
F 16

$$$$
=
 OpenBabel10232411403D

 52 56  0  0  1  0  0  0  0  0999 V2000
  186.9250  177.4200  137.3690 C   0  0  1  0  0  3  0  0  0  0  0  0
  188.3180  175.7340  134.8390 C   0  0  0  0  0  2  0  0  0  0  0  0
  187.9870  176.7030  138.1160 N   0  0  0  0  0  0  0  0  0  0  0  0
  187.3580  178.7570  136.7320 C   0  0  0  0  0  1  0  0  0  0  0  0
  186.3580  176.4350  136.3400 C   0  0  2  0  0  3  0  0  0  0  0  0
  189.6390  174.8790  137.3810 C   0  0  0  0  0  3  0  0  0  0  0  0
  187.4580  175.4210  136.0720 C   0  0  2  0  0  3  0  0  0  0  0  0
  188.2350  175.4410  137.3840 C   0  0  2  0  0  3  0  0  0  0  0  0
  190.6470  176.4080  135.6050 C   0  0  0  0  0  2  0  0  0  0  0  0
  190.6780  175.2880  136.6400 C   0  0  0  0  0  0  0  0  0  0  0  0
  189.2830  176.8820  135.0910 C   0  0  0  0  0  2  0  0  0  0  0  0
  192.8940  176.4530  138.2890 C   0  0  0  0  0  1  0  0  0  0  0  0
  194.3370  173.2160  137.1380 C   0  0  0  0  0  0  0  0  0  0  0  0
  194.1700  174.4350  137.7220 N   0  0  0  0  0  0  0  0  0  0  0  0
  193.2840  172.6630  136.4000 C   0  0  0  0  0  3  0  0  0  0  0  0
  192.1230  173.3540  136.2690 N   0  0  0  0  0  0  0  0  0  0  0  0
  195.5790  172.5140  137.2960 N   0  0  0  0  0  0  0  0  0  0  0  0
  191.9570  174.5830  136.8340 C   0  0  0  0  0  0  0  0  0  0  0  0
  193.0160  175.1360  137.5900 C   0  0  0  0  0  0  0  0  0  0  0  0
  196.5430  173.0300  138.0950 O   0  0  0  0  0  1  0  0  0  0  0  0
  195.8990  171.3290  136.5110 C   0  0  0  0  0  2  0  0  0  0  0  0
  196.3250  170.1740  137.3990 C   0  0  0  0  0  2  0  0  0  0  0  0
  195.1820  169.7160  138.2880 C   0  0  0  0  0  2  0  0  0  0  0  0
  194.1450  169.1840  137.5170 O   0  0  0  0  0  1  0  0  0  0  0  0
  189.2090  177.4860  138.3620 C   0  0  0  0  0  2  0  0  0  0  0  0
  190.3170  176.1600  140.6700 O   0  0  0  0  0  0  0  0  0  0  0  0
  189.7180  177.2580  140.8380 C   0  0  0  0  0  0  0  0  0  0  0  0
  189.2190  178.0000  139.7240 N   0  0  0  0  0  2  0  0  0  0  0  0
  189.5080  177.7700  142.2240 C   0  0  0  0  0  2  0  0  0  0  0  0
  190.7820  177.8170  143.0200 C   0  0  0  0  0  0  0  0  0  0  0  0
  191.7580  178.4390  142.6270 O   0  0  0  0  0  0  0  0  0  0  0  0
  191.3690  175.8540  144.2170 O   0  0  0  0  0  1  0  0  0  0  0  0
  190.8190  177.1350  144.3530 C   0  0  2  0  0  3  0  0  0  0  0  0
  189.1790  178.1980  145.8980 C   0  0  0  0  0  2  0  0  0  0  0  0
  189.5130  176.8170  146.4430 C   0  0  0  0  0  2  0  0  0  0  0  0
  189.4140  177.0360  144.9390 C   0  0  0  0  0  3  0  0  0  0  0  0
  185.6740  177.0310  135.1100 C   0  0  0  0  0  2  0  0  0  0  0  0
  184.2210  176.6140  135.0860 C   0  0  0  0  0  2  0  0  0  0  0  0
  181.3150  176.5900  137.0570 C   0  0  2  0  0  3  0  0  0  0  0  0
  182.4370  175.8990  136.5300 O   0  0  0  0  0  0  0  0  0  0  0  0
  180.7330  177.3890  136.0690 O   0  0  0  0  0  1  0  0  0  0  0  0
  183.0370  178.0160  138.1750 C   0  0  2  0  0  3  0  0  0  0  0  0
  183.4030  178.0510  136.8230 O   0  0  0  0  0  0  0  0  0  0  0  0
  181.6340  177.4290  138.3060 C   0  0  2  0  0  3  0  0  0  0  0  0
  183.6140  176.7030  136.4710 C   0  0  2  0  0  3  0  0  0  0  0  0
  181.5620  176.5670  139.5550 C   0  0  0  0  0  2  0  0  0  0  0  0
  182.7310  175.8220  139.6900 O   0  0  0  0  0  1  0  0  0  0  0  0
  183.0940  179.4120  138.7740 C   0  0  0  0  0  2  0  0  0  0  0  0
  184.8890  179.1380  140.5330 C   0  0  0  0  0  0  0  0  0  0  0  0
  184.0170  178.4350  141.3680 O   0  0  0  0  0  1  0  0  0  0  0  0
  184.4300  179.6780  139.2970 N   0  0  0  0  0  2  0  0  0  0  0  0
  186.0800  179.3280  140.8860 O   0  0  0  0  0  0  0  0  0  0  0  0
  1  4  1  6  0  0  0
  1  3  1  0  0  0  0
  2 11  1  0  0  0  0
  3 25  1  0  0  0  0
  5 37  1  6  0  0  0
  5  1  1  0  0  0  0
  7  2  1  6  0  0  0
  7  5  1  0  0  0  0
  7  8  1  0  0  0  0
  8  6  1  6  0  0  0
  8  3  1  0  0  0  0
  9 10  1  0  0  0  0
 10 18  1  0  0  0  0
 10  6  2  0  0  0  0
 11  9  1  0  0  0  0
 13 17  1  0  0  0  0
 13 14  1  0  0  0  0
 15 13  2  0  0  0  0
 16 15  1  0  0  0  0
 16 18  2  0  0  0  0
 17 20  1  0  0  0  0
 18 19  1  0  0  0  0
 19 14  2  0  0  0  0
 19 12  1  0  0  0  0
 21 17  1  0  0  0  0
 21 22  1  0  0  0  0
 22 23  1  0  0  0  0
 24 23  1  0  0  0  0
 25 28  1  0  0  0  0
 26 27  2  0  0  0  0
 27 29  1  0  0  0  0
 28 27  1  0  0  0  0
 29 30  1  0  0  0  0
 30 33  1  0  0  0  0
 31 30  2  0  0  0  0
 33 32  1  6  0  0  0
 33 36  1  0  0  0  0
 34 35  1  0  0  0  0
 36 34  1  0  0  0  0
 36 35  1  0  0  0  0
 38 37  1  0  0  0  0
 39 41  1  6  0  0  0
 39 44  1  0  0  0  0
 40 39  1  0  0  0  0
 42 44  1  0  0  0  0
 42 48  1  6  0  0  0
 43 42  1  0  0  0  0
 44 46  1  1  0  0  0
 45 38  1  6  0  0  0
 45 40  1  0  0  0  0
 45 43  1  0  0  0  0
 46 47  1  0  0  0  0
 48 51  1  0  0  0  0
 49 52  2  0  0  0  0
 49 50  1  0  0  0  0
 51 49  1  0  0  0  0
M  END
>  <MODEL>
2

>  <REMARK>
 VINA RESULT:      -6.7      1.322      2.074
  Name = 
  16 active torsions:
  status: ('A' for Active; 'I' for Inactive)
    1  A    between atoms: C_1  and  C_24
    2  A    between atoms: C_1  and  C_47
    3  A    between atoms: C_10  and  C_17
    4  A    between atoms: N_12  and  C_32
    5  A    between atoms: C_13  and  C_24
    6  A    between atoms: C_13  and  C_42
    7  A    between atoms: C_15  and  C_43
    8  A    between atoms: C_17  and  C_29
    9  A    between atoms: C_21  and  C_48
   10  A    between atoms: C_22  and  C_49
   11  A    between atoms: C_29  and  N_36
   12  A    between atoms: C_32  and  N_51
   13  A    between atoms: C_34  and  C_44
   14  A    between atoms: C_34  and  C_49
   15  A    between atoms: C_37  and  C_39
   16  A    between atoms: N_38  and  C_48
                            x       y       z     vdW  Elec       q    Type
                         _______ _______ _______ _____ _____    ______ ____

>  <TORSDO>
F 16

$$$$
=
 OpenBabel10232411403D

 52 56  0  0  1  0  0  0  0  0999 V2000
  190.9010  176.8180  137.6840 C   0  0  1  0  0  3  0  0  0  0  0  0
  188.8650  175.6150  135.3180 C   0  0  0  0  0  2  0  0  0  0  0  0
  189.6910  177.6260  137.9760 N   0  0  0  0  0  0  0  0  0  0  0  0
  190.9460  175.4340  138.3640 C   0  0  0  0  0  1  0  0  0  0  0  0
  191.0210  176.7260  136.1580 C   0  0  2  0  0  3  0  0  0  0  0  0
  187.4570  177.8440  136.7270 C   0  0  0  0  0  3  0  0  0  0  0  0
  189.6170  176.9230  135.6090 C   0  0  2  0  0  3  0  0  0  0  0  0
  188.9680  177.7750  136.6940 C   0  0  2  0  0  3  0  0  0  0  0  0
  186.9790  175.3540  137.0020 C   0  0  0  0  0  2  0  0  0  0  0  0
  186.5990  176.8250  136.8710 C   0  0  0  0  0  0  0  0  0  0  0  0
  188.3930  174.9310  136.5910 C   0  0  0  0  0  2  0  0  0  0  0  0
  184.8680  176.5080  134.4430 C   0  0  0  0  0  1  0  0  0  0  0  0
  182.4840  177.8170  136.9900 C   0  0  0  0  0  0  0  0  0  0  0  0
  183.0330  177.3630  135.8290 N   0  0  0  0  0  0  0  0  0  0  0  0
  183.2910  177.9270  138.1290 C   0  0  0  0  0  3  0  0  0  0  0  0
  184.6040  177.5930  138.0540 N   0  0  0  0  0  0  0  0  0  0  0  0
  181.0910  178.1640  137.0320 N   0  0  0  0  0  0  0  0  0  0  0  0
  185.1630  177.1560  136.8890 C   0  0  0  0  0  0  0  0  0  0  0  0
  184.3460  177.0330  135.7430 C   0  0  0  0  0  0  0  0  0  0  0  0
  180.3160  177.9550  135.9430 O   0  0  0  0  0  1  0  0  0  0  0  0
  180.5090  178.8700  138.1660 C   0  0  0  0  0  2  0  0  0  0  0  0
  180.5210  180.3720  137.9500 C   0  0  0  0  0  2  0  0  0  0  0  0
  180.3830  181.1160  139.2660 C   0  0  0  0  0  2  0  0  0  0  0  0
  180.6310  180.2590  140.3410 O   0  0  0  0  0  1  0  0  0  0  0  0
  188.8480  177.1080  139.0660 C   0  0  0  0  0  2  0  0  0  0  0  0
  190.2140  176.2160  141.4430 O   0  0  0  0  0  0  0  0  0  0  0  0
  189.6730  177.3560  141.4530 C   0  0  0  0  0  0  0  0  0  0  0  0
  189.0520  177.8840  140.2810 N   0  0  0  0  0  2  0  0  0  0  0  0
  189.6620  178.1470  142.7180 C   0  0  0  0  0  2  0  0  0  0  0  0
  189.7310  177.2770  143.9430 C   0  0  0  0  0  0  0  0  0  0  0  0
  190.8010  176.9580  144.4400 O   0  0  0  0  0  0  0  0  0  0  0  0
  187.5220  176.4750  143.6130 O   0  0  0  0  0  1  0  0  0  0  0  0
  188.4500  176.8530  144.5920 C   0  0  2  0  0  3  0  0  0  0  0  0
  187.7990  177.5510  146.8930 C   0  0  0  0  0  2  0  0  0  0  0  0
  186.5460  177.5520  146.0290 C   0  0  0  0  0  2  0  0  0  0  0  0
  187.8790  177.9890  145.4350 C   0  0  0  0  0  3  0  0  0  0  0  0
  191.8090  175.5470  135.5920 C   0  0  0  0  0  2  0  0  0  0  0  0
  193.2330  175.9740  135.3150 C   0  0  0  0  0  2  0  0  0  0  0  0
  194.5700  174.3080  138.1020 C   0  0  2  0  0  3  0  0  0  0  0  0
  193.6710  174.3190  137.0030 O   0  0  0  0  0  0  0  0  0  0  0  0
  194.5560  175.5450  138.7490 O   0  0  0  0  0  1  0  0  0  0  0  0
  196.3320  174.4690  136.3360 C   0  0  2  0  0  3  0  0  0  0  0  0
  195.4740  175.5390  136.0500 O   0  0  0  0  0  0  0  0  0  0  0  0
  196.0080  173.9170  137.7210 C   0  0  2  0  0  3  0  0  0  0  0  0
  194.2130  174.9460  135.8420 C   0  0  2  0  0  3  0  0  0  0  0  0
  196.1600  172.4050  137.7110 C   0  0  0  0  0  2  0  0  0  0  0  0
  195.2670  171.8280  138.6110 O   0  0  0  0  0  1  0  0  0  0  0  0
  197.7820  174.9190  136.2620 C   0  0  0  0  0  2  0  0  0  0  0  0
  199.2840  174.6170  138.2730 C   0  0  0  0  0  0  0  0  0  0  0  0
  199.7990  173.4260  137.7570 O   0  0  0  0  0  0  0  0  0  0  0  0
  198.2500  175.3170  137.5860 N   0  0  0  0  0  2  0  0  0  0  0  0
  199.7070  175.0620  139.3710 O   0  0  0  0  0  1  0  0  0  0  0  0
  1  3  1  0  0  0  0
  1  4  1  1  0  0  0
  2 11  1  0  0  0  0
  3 25  1  0  0  0  0
  5 37  1  1  0  0  0
  5  1  1  0  0  0  0
  6 10  2  0  0  0  0
  7  2  1  1  0  0  0
  7  5  1  0  0  0  0
  7  8  1  0  0  0  0
  8  6  1  1  0  0  0
  8  3  1  0  0  0  0
 10 18  1  0  0  0  0
 10  9  1  0  0  0  0
 11  9  1  0  0  0  0
 12 19  1  0  0  0  0
 13 17  1  0  0  0  0
 13 15  1  0  0  0  0
 14 13  2  0  0  0  0
 16 15  2  0  0  0  0
 17 21  1  0  0  0  0
 18 16  1  0  0  0  0
 19 14  1  0  0  0  0
 19 18  2  0  0  0  0
 20 17  1  0  0  0  0
 22 21  1  0  0  0  0
 22 23  1  0  0  0  0
 23 24  1  0  0  0  0
 25 28  1  0  0  0  0
 26 27  2  0  0  0  0
 27 29  1  0  0  0  0
 28 27  1  0  0  0  0
 29 30  1  0  0  0  0
 30 31  2  0  0  0  0
 30 33  1  0  0  0  0
 33 32  1  6  0  0  0
 33 36  1  0  0  0  0
 35 34  1  0  0  0  0
 36 35  1  0  0  0  0
 36 34  1  0  0  0  0
 38 37  1  0  0  0  0
 39 41  1  6  0  0  0
 40 39  1  0  0  0  0
 42 48  1  1  0  0  0
 42 44  1  0  0  0  0
 43 42  1  0  0  0  0
 44 46  1  6  0  0  0
 44 39  1  0  0  0  0
 45 38  1  1  0  0  0
 45 43  1  0  0  0  0
 45 40  1  0  0  0  0
 46 47  1  0  0  0  0
 48 51  1  0  0  0  0
 49 52  1  0  0  0  0
 50 49  2  0  0  0  0
 51 49  1  0  0  0  0
M  END
>  <MODEL>
3

>  <REMARK>
 VINA RESULT:      -6.7      2.165     10.445
  Name = 
  16 active torsions:
  status: ('A' for Active; 'I' for Inactive)
    1  A    between atoms: C_1  and  C_24
    2  A    between atoms: C_1  and  C_47
    3  A    between atoms: C_10  and  C_17
    4  A    between atoms: N_12  and  C_32
    5  A    between atoms: C_13  and  C_24
    6  A    between atoms: C_13  and  C_42
    7  A    between atoms: C_15  and  C_43
    8  A    between atoms: C_17  and  C_29
    9  A    between atoms: C_21  and  C_48
   10  A    between atoms: C_22  and  C_49
   11  A    between atoms: C_29  and  N_36
   12  A    between atoms: C_32  and  N_51
   13  A    between atoms: C_34  and  C_44
   14  A    between atoms: C_34  and  C_49
   15  A    between atoms: C_37  and  C_39
   16  A    between atoms: N_38  and  C_48
                            x       y       z     vdW  Elec       q    Type
                         _______ _______ _______ _____ _____    ______ ____

>  <TORSDO>
F 16

$$$$
=
 OpenBabel10232411403D

 52 56  0  0  1  0  0  0  0  0999 V2000
  191.5770  175.3510  134.7490 C   0  0  1  0  0  3  0  0  0  0  0  0
  193.1320  174.8110  137.6600 C   0  0  0  0  0  2  0  0  0  0  0  0
  190.4710  175.6900  135.6780 N   0  0  0  0  0  0  0  0  0  0  0  0
  192.5470  176.5080  134.4320 C   0  0  0  0  0  1  0  0  0  0  0  0
  192.2930  174.1270  135.3330 C   0  0  2  0  0  3  0  0  0  0  0  0
  190.2720  175.4710  138.2290 C   0  0  0  0  0  3  0  0  0  0  0  0
  192.0220  174.1510  136.8290 C   0  0  2  0  0  3  0  0  0  0  0  0
  190.6860  174.8830  136.8980 C   0  0  2  0  0  3  0  0  0  0  0  0
  192.2710  177.0150  138.5880 C   0  0  0  0  0  2  0  0  0  0  0  0
  190.9300  176.3880  138.9530 C   0  0  0  0  0  0  0  0  0  0  0  0
  193.1280  176.3250  137.5220 C   0  0  0  0  0  2  0  0  0  0  0  0
  192.5540  176.9700  141.4040 C   0  0  0  0  0  1  0  0  0  0  0  0
  189.0670  177.5920  142.5600 C   0  0  0  0  0  0  0  0  0  0  0  0
  190.4210  177.4520  142.5170 N   0  0  0  0  0  0  0  0  0  0  0  0
  188.3190  177.3540  141.4010 C   0  0  0  0  0  3  0  0  0  0  0  0
  188.9520  176.9760  140.2610 N   0  0  0  0  0  0  0  0  0  0  0  0
  188.4300  177.9900  143.7830 N   0  0  0  0  0  0  0  0  0  0  0  0
  190.3050  176.8150  140.2170 C   0  0  0  0  0  0  0  0  0  0  0  0
  191.0620  177.0690  141.3840 C   0  0  0  0  0  0  0  0  0  0  0  0
  189.1870  178.3070  144.8590 O   0  0  0  0  0  1  0  0  0  0  0  0
  186.9840  177.9290  143.9530 C   0  0  0  0  0  2  0  0  0  0  0  0
  186.5970  177.9560  145.4210 C   0  0  0  0  0  2  0  0  0  0  0  0
  185.5680  179.0380  145.6960 C   0  0  0  0  0  2  0  0  0  0  0  0
  184.7050  178.6420  146.7220 O   0  0  0  0  0  1  0  0  0  0  0  0
  190.3080  177.1280  135.9490 C   0  0  0  0  0  2  0  0  0  0  0  0
  188.9760  179.2070  137.4370 O   0  0  0  0  0  0  0  0  0  0  0  0
  188.2920  178.5060  136.6410 C   0  0  0  0  0  0  0  0  0  0  0  0
  188.9110  177.5160  135.8190 N   0  0  0  0  0  2  0  0  0  0  0  0
  186.8140  178.7010  136.5820 C   0  0  0  0  0  2  0  0  0  0  0  0
  186.1040  178.0780  137.7530 C   0  0  0  0  0  0  0  0  0  0  0  0
  186.1780  178.5590  138.8740 O   0  0  0  0  0  0  0  0  0  0  0  0
  186.0200  175.8190  137.0320 O   0  0  0  0  0  1  0  0  0  0  0  0
  185.2390  176.8790  137.5100 C   0  0  2  0  0  3  0  0  0  0  0  0
  182.7960  177.2630  137.2160 C   0  0  0  0  0  2  0  0  0  0  0  0
  183.1800  176.0330  136.4060 C   0  0  0  0  0  2  0  0  0  0  0  0
  184.1430  177.2090  136.5020 C   0  0  0  0  0  3  0  0  0  0  0  0
  193.7440  173.9040  134.9120 C   0  0  0  0  0  2  0  0  0  0  0  0
  194.0740  172.4300  134.9890 C   0  0  0  0  0  2  0  0  0  0  0  0
  196.2080  171.1840  137.4830 C   0  0  2  0  0  3  0  0  0  0  0  0
  195.5750  171.0150  136.2240 O   0  0  0  0  0  0  0  0  0  0  0  0
  195.3080  171.7160  138.4090 O   0  0  0  0  0  1  0  0  0  0  0  0
  197.3090  173.1410  136.3840 C   0  0  2  0  0  3  0  0  0  0  0  0
  195.9420  173.3630  136.1690 O   0  0  0  0  0  0  0  0  0  0  0  0
  197.4860  172.0390  137.4250 C   0  0  2  0  0  3  0  0  0  0  0  0
  195.4960  172.2240  135.4700 C   0  0  2  0  0  3  0  0  0  0  0  0
  198.6810  171.1790  137.0510 C   0  0  0  0  0  2  0  0  0  0  0  0
  198.8870  171.2170  135.6740 O   0  0  0  0  0  1  0  0  0  0  0  0
  197.9880  174.4230  136.8370 C   0  0  0  0  0  2  0  0  0  0  0  0
  198.2960  175.2380  139.2100 C   0  0  0  0  0  0  0  0  0  0  0  0
  199.6830  175.1080  139.1150 O   0  0  0  0  0  0  0  0  0  0  0  0
  197.4550  174.8410  138.1290 N   0  0  0  0  0  2  0  0  0  0  0  0
  197.7770  175.6750  140.2680 O   0  0  0  0  0  1  0  0  0  0  0  0
  1  4  1  1  0  0  0
  1  5  1  0  0  0  0
  1  3  1  0  0  0  0
  3 25  1  0  0  0  0
  3  8  1  0  0  0  0
  5 37  1  1  0  0  0
  5  7  1  0  0  0  0
  6 10  2  0  0  0  0
  7  8  1  0  0  0  0
  7  2  1  1  0  0  0
  8  6  1  1  0  0  0
  9 10  1  0  0  0  0
 10 18  1  0  0  0  0
 11  2  1  0  0  0  0
 11  9  1  0  0  0  0
 13 17  1  0  0  0  0
 14 13  1  0  0  0  0
 15 13  2  0  0  0  0
 16 15  1  0  0  0  0
 17 21  1  0  0  0  0
 17 20  1  0  0  0  0
 18 16  2  0  0  0  0
 18 19  1  0  0  0  0
 19 12  1  0  0  0  0
 19 14  2  0  0  0  0
 21 22  1  0  0  0  0
 22 23  1  0  0  0  0
 23 24  1  0  0  0  0
 27 26  2  0  0  0  0
 28 25  1  0  0  0  0
 28 27  1  0  0  0  0
 29 27  1  0  0  0  0
 29 30  1  0  0  0  0
 30 31  2  0  0  0  0
 33 32  1  6  0  0  0
 33 30  1  0  0  0  0
 35 36  1  0  0  0  0
 35 34  1  0  0  0  0
 36 34  1  0  0  0  0
 36 33  1  0  0  0  0
 37 38  1  0  0  0  0
 39 41  1  1  0  0  0
 40 39  1  0  0  0  0
 42 48  1  1  0  0  0
 42 44  1  0  0  0  0
 43 42  1  0  0  0  0
 44 46  1  6  0  0  0
 44 39  1  0  0  0  0
 45 38  1  1  0  0  0
 45 43  1  0  0  0  0
 45 40  1  0  0  0  0
 47 46  1  0  0  0  0
 48 51  1  0  0  0  0
 49 52  1  0  0  0  0
 50 49  2  0  0  0  0
 51 49  1  0  0  0  0
M  END
>  <MODEL>
4

>  <REMARK>
 VINA RESULT:      -6.1      2.532     10.664
  Name = 
  16 active torsions:
  status: ('A' for Active; 'I' for Inactive)
    1  A    between atoms: C_1  and  C_24
    2  A    between atoms: C_1  and  C_47
    3  A    between atoms: C_10  and  C_17
    4  A    between atoms: N_12  and  C_32
    5  A    between atoms: C_13  and  C_24
    6  A    between atoms: C_13  and  C_42
    7  A    between atoms: C_15  and  C_43
    8  A    between atoms: C_17  and  C_29
    9  A    between atoms: C_21  and  C_48
   10  A    between atoms: C_22  and  C_49
   11  A    between atoms: C_29  and  N_36
   12  A    between atoms: C_32  and  N_51
   13  A    between atoms: C_34  and  C_44
   14  A    between atoms: C_34  and  C_49
   15  A    between atoms: C_37  and  C_39
   16  A    between atoms: N_38  and  C_48
                            x       y       z     vdW  Elec       q    Type
                         _______ _______ _______ _____ _____    ______ ____

>  <TORSDO>
F 16

$$$$
=
 OpenBabel10232411403D

 52 56  0  0  1  0  0  0  0  0999 V2000
  188.9850  176.2530  135.7760 C   0  0  1  0  0  3  0  0  0  0  0  0
  191.4420  176.2210  138.0450 C   0  0  0  0  0  2  0  0  0  0  0  0
  188.1670  176.2330  137.0130 N   0  0  0  0  0  0  0  0  0  0  0  0
  189.4260  177.6550  135.3020 C   0  0  0  0  0  1  0  0  0  0  0  0
  190.1730  175.3120  136.0080 C   0  0  2  0  0  3  0  0  0  0  0  0
  188.8320  175.9620  139.4800 C   0  0  0  0  0  3  0  0  0  0  0  0
  190.3780  175.2500  137.5130 C   0  0  2  0  0  3  0  0  0  0  0  0
  188.9740  175.5310  138.0360 C   0  0  2  0  0  3  0  0  0  0  0  0
  190.2960  178.0490  139.3880 C   0  0  0  0  0  2  0  0  0  0  0  0
  189.3780  177.0370  140.0650 C   0  0  0  0  0  0  0  0  0  0  0  0
  190.9500  177.6590  138.0580 C   0  0  0  0  0  2  0  0  0  0  0  0
  191.5400  177.3040  142.1250 C   0  0  0  0  0  1  0  0  0  0  0  0
  188.4290  177.6250  144.1490 C   0  0  0  0  0  0  0  0  0  0  0  0
  189.7330  177.5400  143.7680 N   0  0  0  0  0  0  0  0  0  0  0  0
  187.4260  177.5360  143.1760 C   0  0  0  0  0  3  0  0  0  0  0  0
  187.7690  177.3550  141.8750 N   0  0  0  0  0  0  0  0  0  0  0  0
  188.1020  177.8150  145.5350 N   0  0  0  0  0  0  0  0  0  0  0  0
  189.0730  177.2500  141.4910 C   0  0  0  0  0  0  0  0  0  0  0  0
  190.0850  177.3530  142.4710 C   0  0  0  0  0  0  0  0  0  0  0  0
  189.0930  177.9940  146.4380 O   0  0  0  0  0  1  0  0  0  0  0  0
  186.7380  177.6780  146.0280 C   0  0  0  0  0  2  0  0  0  0  0  0
  185.9980  179.0030  145.9870 C   0  0  0  0  0  2  0  0  0  0  0  0
  184.5000  178.7900  145.8560 C   0  0  0  0  0  2  0  0  0  0  0  0
  184.1480  178.5980  144.5180 O   0  0  0  0  0  1  0  0  0  0  0  0
  187.6790  177.5490  137.4560 C   0  0  0  0  0  2  0  0  0  0  0  0
  185.8090  178.8130  139.2490 O   0  0  0  0  0  0  0  0  0  0  0  0
  185.3570  178.2240  138.2290 C   0  0  0  0  0  0  0  0  0  0  0  0
  186.2390  177.6490  137.2630 N   0  0  0  0  0  2  0  0  0  0  0  0
  183.8810  178.1060  138.0470 C   0  0  0  0  0  2  0  0  0  0  0  0
  183.1940  177.5520  139.2650 C   0  0  0  0  0  0  0  0  0  0  0  0
  183.0830  176.3480  139.4430 O   0  0  0  0  0  0  0  0  0  0  0  0
  183.5910  178.5520  141.3800 O   0  0  0  0  0  1  0  0  0  0  0  0
  182.6960  178.5100  140.3030 C   0  0  2  0  0  3  0  0  0  0  0  0
  180.4120  179.3180  140.8820 C   0  0  0  0  0  2  0  0  0  0  0  0
  181.0430  178.7450  142.1430 C   0  0  0  0  0  2  0  0  0  0  0  0
  181.3140  178.0920  140.7940 C   0  0  0  0  0  3  0  0  0  0  0  0
  191.4240  175.5500  135.1640 C   0  0  0  0  0  2  0  0  0  0  0  0
  192.2950  174.3130  135.1870 C   0  0  0  0  0  2  0  0  0  0  0  0
  195.6920  173.4780  134.8940 C   0  0  2  0  0  3  0  0  0  0  0  0
  194.5780  174.2310  134.4390 O   0  0  0  0  0  0  0  0  0  0  0  0
  195.3090  172.1600  135.1560 O   0  0  0  0  0  1  0  0  0  0  0  0
  195.3520  174.7360  137.0270 C   0  0  2  0  0  3  0  0  0  0  0  0
  194.0940  174.1760  136.7660 O   0  0  0  0  0  0  0  0  0  0  0  0
  196.3930  174.0870  136.1200 C   0  0  2  0  0  3  0  0  0  0  0  0
  193.7320  174.6750  135.4990 C   0  0  2  0  0  3  0  0  0  0  0  0
  197.4050  175.1330  135.6850 C   0  0  0  0  0  2  0  0  0  0  0  0
  196.8670  176.4100  135.8310 O   0  0  0  0  0  1  0  0  0  0  0  0
  195.7200  174.5480  138.4900 C   0  0  0  0  0  2  0  0  0  0  0  0
  197.8120  175.1350  139.7820 C   0  0  0  0  0  0  0  0  0  0  0  0
  197.0720  175.8350  140.7370 O   0  0  0  0  0  1  0  0  0  0  0  0
  197.1710  174.5610  138.6450 N   0  0  0  0  0  2  0  0  0  0  0  0
  199.0600  175.0350  139.9030 O   0  0  0  0  0  0  0  0  0  0  0  0
  1  4  1  1  0  0  0
  1  5  1  0  0  0  0
  1  3  1  0  0  0  0
  2 11  1  0  0  0  0
  3 25  1  0  0  0  0
  3  8  1  0  0  0  0
  5 37  1  6  0  0  0
  5  7  1  0  0  0  0
  6 10  2  0  0  0  0
  7  8  1  0  0  0  0
  7  2  1  1  0  0  0
  8  6  1  1  0  0  0
  9 10  1  0  0  0  0
 10 18  1  0  0  0  0
 11  9  1  0  0  0  0
 12 19  1  0  0  0  0
 13 17  1  0  0  0  0
 14 13  1  0  0  0  0
 15 13  2  0  0  0  0
 16 15  1  0  0  0  0
 17 21  1  0  0  0  0
 17 20  1  0  0  0  0
 18 16  2  0  0  0  0
 18 19  1  0  0  0  0
 19 14  2  0  0  0  0
 22 21  1  0  0  0  0
 23 22  1  0  0  0  0
 24 23  1  0  0  0  0
 27 26  2  0  0  0  0
 28 25  1  0  0  0  0
 28 27  1  0  0  0  0
 29 27  1  0  0  0  0
 29 30  1  0  0  0  0
 30 31  2  0  0  0  0
 30 33  1  0  0  0  0
 33 36  1  0  0  0  0
 33 32  1  1  0  0  0
 34 35  1  0  0  0  0
 36 34  1  0  0  0  0
 36 35  1  0  0  0  0
 37 38  1  0  0  0  0
 39 41  1  1  0  0  0
 39 44  1  0  0  0  0
 40 39  1  0  0  0  0
 40 45  1  0  0  0  0
 42 48  1  1  0  0  0
 43 42  1  0  0  0  0
 44 46  1  6  0  0  0
 44 42  1  0  0  0  0
 45 38  1  6  0  0  0
 45 43  1  0  0  0  0
 46 47  1  0  0  0  0
 48 51  1  0  0  0  0
 49 52  2  0  0  0  0
 49 50  1  0  0  0  0
 51 49  1  0  0  0  0
M  END
>  <MODEL>
5

>  <REMARK>
 VINA RESULT:      -5.3      2.376     10.178
  Name = 
  16 active torsions:
  status: ('A' for Active; 'I' for Inactive)
    1  A    between atoms: C_1  and  C_24
    2  A    between atoms: C_1  and  C_47
    3  A    between atoms: C_10  and  C_17
    4  A    between atoms: N_12  and  C_32
    5  A    between atoms: C_13  and  C_24
    6  A    between atoms: C_13  and  C_42
    7  A    between atoms: C_15  and  C_43
    8  A    between atoms: C_17  and  C_29
    9  A    between atoms: C_21  and  C_48
   10  A    between atoms: C_22  and  C_49
   11  A    between atoms: C_29  and  N_36
   12  A    between atoms: C_32  and  N_51
   13  A    between atoms: C_34  and  C_44
   14  A    between atoms: C_34  and  C_49
   15  A    between atoms: C_37  and  C_39
   16  A    between atoms: N_38  and  C_48
                            x       y       z     vdW  Elec       q    Type
                         _______ _______ _______ _____ _____    ______ ____

>  <TORSDO>
F 16

$$$$
=
 OpenBabel10232411403D

 52 56  0  0  1  0  0  0  0  0999 V2000
  190.6050  177.1170  138.3090 C   0  0  1  0  0  3  0  0  0  0  0  0
  188.8210  175.7120  135.8540 C   0  0  0  0  0  2  0  0  0  0  0  0
  189.3650  177.9240  138.4230 N   0  0  0  0  0  0  0  0  0  0  0  0
  190.5970  175.7870  139.0910 C   0  0  0  0  0  1  0  0  0  0  0  0
  190.8740  176.9170  136.8130 C   0  0  2  0  0  3  0  0  0  0  0  0
  187.2610  178.0140  136.9520 C   0  0  0  0  0  3  0  0  0  0  0  0
  189.5280  177.0500  136.1180 C   0  0  2  0  0  3  0  0  0  0  0  0
  188.7690  177.9680  137.0700 C   0  0  2  0  0  3  0  0  0  0  0  0
  186.7820  175.5430  137.3620 C   0  0  0  0  0  2  0  0  0  0  0  0
  186.4030  176.9940  137.0870 C   0  0  0  0  0  0  0  0  0  0  0  0
  188.2330  175.1140  137.1230 C   0  0  0  0  0  2  0  0  0  0  0  0
  184.9480  176.5880  134.4970 C   0  0  0  0  0  1  0  0  0  0  0  0
  182.2860  177.9220  136.7370 C   0  0  0  0  0  0  0  0  0  0  0  0
  182.9630  177.4480  135.6550 N   0  0  0  0  0  0  0  0  0  0  0  0
  182.9640  178.0740  137.9530 C   0  0  0  0  0  3  0  0  0  0  0  0
  184.2830  177.7590  138.0280 N   0  0  0  0  0  0  0  0  0  0  0  0
  180.8930  178.2470  136.6210 N   0  0  0  0  0  0  0  0  0  0  0  0
  184.9690  177.3030  136.9430 C   0  0  0  0  0  0  0  0  0  0  0  0
  184.2820  177.1370  135.7190 C   0  0  0  0  0  0  0  0  0  0  0  0
  180.2420  177.9980  135.4610 O   0  0  0  0  0  1  0  0  0  0  0  0
  180.1820  178.9710  137.6670 C   0  0  0  0  0  2  0  0  0  0  0  0
  180.3620  180.4710  137.5220 C   0  0  0  0  0  2  0  0  0  0  0  0
  179.9880  181.1940  138.8050 C   0  0  0  0  0  2  0  0  0  0  0  0
  180.6210  180.6030  139.9010 O   0  0  0  0  0  1  0  0  0  0  0  0
  188.4250  177.4730  139.4610 C   0  0  0  0  0  2  0  0  0  0  0  0
  188.8870  176.3440  142.0740 O   0  0  0  0  0  0  0  0  0  0  0  0
  188.7810  177.5970  141.9720 C   0  0  0  0  0  0  0  0  0  0  0  0
  188.6320  178.2190  140.6950 N   0  0  0  0  0  2  0  0  0  0  0  0
  188.7860  178.4330  143.2080 C   0  0  0  0  0  2  0  0  0  0  0  0
  190.1390  178.4870  143.8620 C   0  0  0  0  0  0  0  0  0  0  0  0
  191.1080  178.9610  143.2870 O   0  0  0  0  0  0  0  0  0  0  0  0
  191.4200  177.2130  145.4000 O   0  0  0  0  0  1  0  0  0  0  0  0
  190.2700  178.0040  145.2740 C   0  0  2  0  0  3  0  0  0  0  0  0
  188.3480  177.8780  146.8530 C   0  0  0  0  0  2  0  0  0  0  0  0
  189.2330  176.6620  147.0900 C   0  0  0  0  0  2  0  0  0  0  0  0
  189.0400  177.1980  145.6770 C   0  0  0  0  0  3  0  0  0  0  0  0
  191.7250  175.7120  136.4140 C   0  0  0  0  0  2  0  0  0  0  0  0
  192.6390  175.3360  137.5580 C   0  0  0  0  0  2  0  0  0  0  0  0
  195.0410  175.0550  135.0130 C   0  0  2  0  0  3  0  0  0  0  0  0
  194.1690  175.8690  135.7820 O   0  0  0  0  0  0  0  0  0  0  0  0
  194.3970  173.8710  134.6440 O   0  0  0  0  0  1  0  0  0  0  0  0
  196.1370  174.5910  137.2110 C   0  0  2  0  0  3  0  0  0  0  0  0
  194.7900  174.2820  137.4380 O   0  0  0  0  0  0  0  0  0  0  0  0
  196.3760  174.7440  135.7120 C   0  0  2  0  0  3  0  0  0  0  0  0
  194.0920  175.4710  137.1500 C   0  0  2  0  0  3  0  0  0  0  0  0
  197.3730  175.8650  135.4710 C   0  0  0  0  0  2  0  0  0  0  0  0
  198.6740  175.3870  135.6100 O   0  0  0  0  0  1  0  0  0  0  0  0
  197.0330  173.5090  137.7910 C   0  0  0  0  0  2  0  0  0  0  0  0
  196.2350  171.1780  137.2220 C   0  0  0  0  0  0  0  0  0  0  0  0
  195.5480  171.0770  138.4340 O   0  0  0  0  0  1  0  0  0  0  0  0
  197.0190  172.3320  136.9280 N   0  0  0  0  0  2  0  0  0  0  0  0
  196.1940  170.2330  136.3950 O   0  0  0  0  0  0  0  0  0  0  0  0
  1  3  1  0  0  0  0
  1  4  1  1  0  0  0
  2 11  1  0  0  0  0
  3 25  1  0  0  0  0
  5 37  1  1  0  0  0
  5  1  1  0  0  0  0
  6 10  2  0  0  0  0
  7  2  1  1  0  0  0
  7  5  1  0  0  0  0
  7  8  1  0  0  0  0
  8  6  1  1  0  0  0
  8  3  1  0  0  0  0
 10  9  1  0  0  0  0
 11  9  1  0  0  0  0
 12 19  1  0  0  0  0
 13 15  1  0  0  0  0
 14 19  1  0  0  0  0
 14 13  2  0  0  0  0
 15 16  2  0  0  0  0
 17 13  1  0  0  0  0
 17 21  1  0  0  0  0
 18 10  1  0  0  0  0
 18 16  1  0  0  0  0
 19 18  2  0  0  0  0
 20 17  1  0  0  0  0
 22 21  1  0  0  0  0
 22 23  1  0  0  0  0
 23 24  1  0  0  0  0
 25 28  1  0  0  0  0
 27 26  2  0  0  0  0
 27 29  1  0  0  0  0
 28 27  1  0  0  0  0
 29 30  1  0  0  0  0
 30 33  1  0  0  0  0
 31 30  2  0  0  0  0
 33 32  1  6  0  0  0
 33 36  1  0  0  0  0
 34 35  1  0  0  0  0
 36 34  1  0  0  0  0
 36 35  1  0  0  0  0
 37 38  1  0  0  0  0
 39 41  1  1  0  0  0
 39 44  1  0  0  0  0
 39 40  1  0  0  0  0
 40 45  1  0  0  0  0
 42 43  1  0  0  0  0
 42 48  1  6  0  0  0
 44 46  1  1  0  0  0
 44 42  1  0  0  0  0
 45 43  1  0  0  0  0
 45 38  1  6  0  0  0
 46 47  1  0  0  0  0
 49 50  1  0  0  0  0
 51 49  1  0  0  0  0
 51 48  1  0  0  0  0
 52 49  2  0  0  0  0
M  END
>  <MODEL>
6

>  <REMARK>
 VINA RESULT:      -5.1      2.148     10.516
  Name = 
  16 active torsions:
  status: ('A' for Active; 'I' for Inactive)
    1  A    between atoms: C_1  and  C_24
    2  A    between atoms: C_1  and  C_47
    3  A    between atoms: C_10  and  C_17
    4  A    between atoms: N_12  and  C_32
    5  A    between atoms: C_13  and  C_24
    6  A    between atoms: C_13  and  C_42
    7  A    between atoms: C_15  and  C_43
    8  A    between atoms: C_17  and  C_29
    9  A    between atoms: C_21  and  C_48
   10  A    between atoms: C_22  and  C_49
   11  A    between atoms: C_29  and  N_36
   12  A    between atoms: C_32  and  N_51
   13  A    between atoms: C_34  and  C_44
   14  A    between atoms: C_34  and  C_49
   15  A    between atoms: C_37  and  C_39
   16  A    between atoms: N_38  and  C_48
                            x       y       z     vdW  Elec       q    Type
                         _______ _______ _______ _____ _____    ______ ____

>  <TORSDO>
F 16

$$$$
=
 OpenBabel10232411403D

 52 56  0  0  1  0  0  0  0  0999 V2000
  191.3200  176.5590  137.4060 C   0  0  1  0  0  3  0  0  0  0  0  0
  189.5040  174.8380  135.1860 C   0  0  0  0  0  2  0  0  0  0  0  0
  189.9610  176.9750  137.8340 N   0  0  0  0  0  0  0  0  0  0  0  0
  191.8300  175.2420  138.0270 C   0  0  0  0  0  1  0  0  0  0  0  0
  191.3150  176.5220  135.8730 C   0  0  2  0  0  3  0  0  0  0  0  0
  187.6510  176.5430  136.7970 C   0  0  0  0  0  3  0  0  0  0  0  0
  189.8680  176.3050  135.4590 C   0  0  2  0  0  3  0  0  0  0  0  0
  189.1070  176.9200  136.6280 C   0  0  2  0  0  3  0  0  0  0  0  0
  187.9450  174.0190  137.0190 C   0  0  0  0  0  2  0  0  0  0  0  0
  187.1440  175.3160  136.9780 C   0  0  0  0  0  0  0  0  0  0  0  0
  189.3750  174.0320  136.4700 C   0  0  0  0  0  2  0  0  0  0  0  0
  185.6490  172.8090  136.2930 C   0  0  0  0  0  1  0  0  0  0  0  0
  182.9400  175.0980  137.4360 C   0  0  0  0  0  0  0  0  0  0  0  0
  183.6210  174.0200  136.9570 N   0  0  0  0  0  0  0  0  0  0  0  0
  183.6500  176.2520  137.7890 C   0  0  0  0  0  3  0  0  0  0  0  0
  184.9980  176.2820  137.6350 N   0  0  0  0  0  0  0  0  0  0  0  0
  181.5130  175.0320  137.5850 N   0  0  0  0  0  0  0  0  0  0  0  0
  185.6830  175.2130  137.1360 C   0  0  0  0  0  0  0  0  0  0  0  0
  184.9670  174.0440  136.7930 C   0  0  0  0  0  0  0  0  0  0  0  0
  180.8670  173.8710  137.3280 O   0  0  0  0  0  1  0  0  0  0  0  0
  180.7140  176.2170  137.8670 C   0  0  0  0  0  2  0  0  0  0  0  0
  180.0850  176.1460  139.2460 C   0  0  0  0  0  2  0  0  0  0  0  0
  180.9290  176.8840  140.2710 C   0  0  0  0  0  2  0  0  0  0  0  0
  181.7270  177.8450  139.6460 O   0  0  0  0  0  1  0  0  0  0  0  0
  189.4130  176.2220  138.9740 C   0  0  0  0  0  2  0  0  0  0  0  0
  191.1130  177.1460  141.1120 O   0  0  0  0  0  0  0  0  0  0  0  0
  189.8990  177.4900  141.1190 C   0  0  0  0  0  0  0  0  0  0  0  0
  189.0280  177.1300  140.0460 N   0  0  0  0  0  2  0  0  0  0  0  0
  189.3650  178.2600  142.2810 C   0  0  0  0  0  2  0  0  0  0  0  0
  189.0820  177.3850  143.4710 C   0  0  0  0  0  0  0  0  0  0  0  0
  188.7920  176.2050  143.3410 O   0  0  0  0  0  0  0  0  0  0  0  0
  190.4570  178.6340  144.9480 O   0  0  0  0  0  1  0  0  0  0  0  0
  189.2270  177.9720  144.8410 C   0  0  2  0  0  3  0  0  0  0  0  0
  188.2770  177.3700  147.0640 C   0  0  0  0  0  2  0  0  0  0  0  0
  189.7940  177.3670  147.1830 C   0  0  0  0  0  2  0  0  0  0  0  0
  189.1330  176.8790  145.9010 C   0  0  0  0  0  3  0  0  0  0  0  0
  192.3540  175.6310  135.1960 C   0  0  0  0  0  2  0  0  0  0  0  0
  193.7080  176.3000  135.2470 C   0  0  0  0  0  2  0  0  0  0  0  0
  194.5740  172.9160  135.6020 C   0  0  2  0  0  3  0  0  0  0  0  0
  194.4450  174.0610  134.7730 O   0  0  0  0  0  0  0  0  0  0  0  0
  193.4650  172.8030  136.4440 O   0  0  0  0  0  1  0  0  0  0  0  0
  196.2420  174.3090  136.8370 C   0  0  2  0  0  3  0  0  0  0  0  0
  195.0960  175.1140  136.8020 O   0  0  0  0  0  0  0  0  0  0  0  0
  195.8750  172.8880  136.4210 C   0  0  2  0  0  3  0  0  0  0  0  0
  194.8070  175.2740  135.4330 C   0  0  2  0  0  3  0  0  0  0  0  0
  197.0060  172.2950  135.5980 C   0  0  0  0  0  2  0  0  0  0  0  0
  196.5920  171.1060  135.0010 O   0  0  0  0  0  1  0  0  0  0  0  0
  196.8550  174.3220  138.2280 C   0  0  0  0  0  2  0  0  0  0  0  0
  199.0130  175.0370  139.3340 C   0  0  0  0  0  0  0  0  0  0  0  0
  198.4510  174.8970  140.6060 O   0  0  0  0  0  1  0  0  0  0  0  0
  198.2230  174.8260  138.1660 N   0  0  0  0  0  2  0  0  0  0  0  0
  200.2140  175.3860  139.2130 O   0  0  0  0  0  0  0  0  0  0  0  0
  1  3  1  0  0  0  0
  1  4  1  1  0  0  0
  2 11  1  0  0  0  0
  3 25  1  0  0  0  0
  5 37  1  1  0  0  0
  5  1  1  0  0  0  0
  6 10  2  0  0  0  0
  7  2  1  1  0  0  0
  7  5  1  0  0  0  0
  7  8  1  0  0  0  0
  8  6  1  1  0  0  0
  8  3  1  0  0  0  0
 10  9  1  0  0  0  0
 10 18  1  0  0  0  0
 11  9  1  0  0  0  0
 12 19  1  0  0  0  0
 13 17  1  0  0  0  0
 13 15  1  0  0  0  0
 14 13  2  0  0  0  0
 16 15  2  0  0  0  0
 17 21  1  0  0  0  0
 18 16  1  0  0  0  0
 19 14  1  0  0  0  0
 19 18  2  0  0  0  0
 20 17  1  0  0  0  0
 21 22  1  0  0  0  0
 22 23  1  0  0  0  0
 24 23  1  0  0  0  0
 25 28  1  0  0  0  0
 26 27  2  0  0  0  0
 27 29  1  0  0  0  0
 28 27  1  0  0  0  0
 29 30  1  0  0  0  0
 30 33  1  0  0  0  0
 31 30  2  0  0  0  0
 33 32  1  6  0  0  0
 33 36  1  0  0  0  0
 34 35  1  0  0  0  0
 36 34  1  0  0  0  0
 36 35  1  0  0  0  0
 37 38  1  0  0  0  0
 39 44  1  0  0  0  0
 39 41  1  1  0  0  0
 40 45  1  0  0  0  0
 40 39  1  0  0  0  0
 42 48  1  1  0  0  0
 43 42  1  0  0  0  0
 44 46  1  6  0  0  0
 44 42  1  0  0  0  0
 45 38  1  1  0  0  0
 45 43  1  0  0  0  0
 47 46  1  0  0  0  0
 49 50  1  0  0  0  0
 51 48  1  0  0  0  0
 51 49  1  0  0  0  0
 52 49  2  0  0  0  0
M  END
>  <MODEL>
7

>  <REMARK>
 VINA RESULT:      -5.0      2.338     10.096
  Name = 
  16 active torsions:
  status: ('A' for Active; 'I' for Inactive)
    1  A    between atoms: C_1  and  C_24
    2  A    between atoms: C_1  and  C_47
    3  A    between atoms: C_10  and  C_17
    4  A    between atoms: N_12  and  C_32
    5  A    between atoms: C_13  and  C_24
    6  A    between atoms: C_13  and  C_42
    7  A    between atoms: C_15  and  C_43
    8  A    between atoms: C_17  and  C_29
    9  A    between atoms: C_21  and  C_48
   10  A    between atoms: C_22  and  C_49
   11  A    between atoms: C_29  and  N_36
   12  A    between atoms: C_32  and  N_51
   13  A    between atoms: C_34  and  C_44
   14  A    between atoms: C_34  and  C_49
   15  A    between atoms: C_37  and  C_39
   16  A    between atoms: N_38  and  C_48
                            x       y       z     vdW  Elec       q    Type
                         _______ _______ _______ _____ _____    ______ ____

>  <TORSDO>
F 16

$$$$
=
 OpenBabel10232411403D

 52 56  0  0  1  0  0  0  0  0999 V2000
  187.6480  176.0870  136.0740 C   0  0  1  0  0  3  0  0  0  0  0  0
  190.2700  177.2390  137.8020 C   0  0  0  0  0  2  0  0  0  0  0  0
  188.7440  175.4880  135.2730 N   0  0  0  0  0  0  0  0  0  0  0  0
  187.1960  175.2560  137.2930 C   0  0  0  0  0  1  0  0  0  0  0  0
  188.0970  177.5010  136.4610 C   0  0  2  0  0  3  0  0  0  0  0  0
  191.2930  175.7900  135.3950 C   0  0  0  0  0  3  0  0  0  0  0  0
  189.6170  177.4870  136.4330 C   0  0  2  0  0  3  0  0  0  0  0  0
  189.9060  176.3940  135.4090 C   0  0  2  0  0  3  0  0  0  0  0  0
  191.3490  174.9380  137.7990 C   0  0  0  0  0  2  0  0  0  0  0  0
  191.9140  175.1560  136.3990 C   0  0  0  0  0  0  0  0  0  0  0  0
  190.1520  175.7880  138.2390 C   0  0  0  0  0  2  0  0  0  0  0  0
  192.3600  172.4570  135.1720 C   0  0  0  0  0  1  0  0  0  0  0  0
  195.8300  173.7210  135.6680 C   0  0  0  0  0  0  0  0  0  0  0  0
  194.7590  172.9400  135.3560 N   0  0  0  0  0  0  0  0  0  0  0  0
  195.6120  174.9940  136.2060 C   0  0  0  0  0  3  0  0  0  0  0  0
  194.3420  175.4230  136.4200 N   0  0  0  0  0  0  0  0  0  0  0  0
  197.1600  173.2350  135.4300 N   0  0  0  0  0  0  0  0  0  0  0  0
  193.2660  174.6380  136.1280 C   0  0  0  0  0  0  0  0  0  0  0  0
  193.4860  173.3570  135.5720 C   0  0  0  0  0  0  0  0  0  0  0  0
  197.3360  172.0400  134.8190 O   0  0  0  0  0  1  0  0  0  0  0  0
  198.3340  173.9190  135.9550 C   0  0  0  0  0  2  0  0  0  0  0  0
  198.7970  173.3030  137.2620 C   0  0  0  0  0  2  0  0  0  0  0  0
  200.1700  173.8210  137.6560 C   0  0  0  0  0  2  0  0  0  0  0  0
  200.0540  175.0110  138.3790 O   0  0  0  0  0  1  0  0  0  0  0  0
  189.0560  174.0870  135.5980 C   0  0  0  0  0  2  0  0  0  0  0  0
  187.7030  171.9600  136.9970 O   0  0  0  0  0  0  0  0  0  0  0  0
  187.4670  172.1140  135.7670 C   0  0  0  0  0  0  0  0  0  0  0  0
  188.0460  173.1980  135.0400 N   0  0  0  0  0  2  0  0  0  0  0  0
  186.5940  171.1300  135.0620 C   0  0  0  0  0  2  0  0  0  0  0  0
  185.1490  171.5470  135.0530 C   0  0  0  0  0  0  0  0  0  0  0  0
  184.8200  172.7060  134.8510 O   0  0  0  0  0  0  0  0  0  0  0  0
  183.6730  170.4700  136.5680 O   0  0  0  0  0  1  0  0  0  0  0  0
  184.0990  170.4930  135.2330 C   0  0  2  0  0  3  0  0  0  0  0  0
  183.4880  168.1620  134.6020 C   0  0  0  0  0  2  0  0  0  0  0  0
  184.2660  168.1080  135.9100 C   0  0  0  0  0  2  0  0  0  0  0  0
  184.6470  169.1240  134.8420 C   0  0  0  0  0  3  0  0  0  0  0  0
  187.4490  178.1220  137.6970 C   0  0  0  0  0  2  0  0  0  0  0  0
  186.0020  178.4470  137.4030 C   0  0  0  0  0  2  0  0  0  0  0  0
  183.1480  179.4300  139.1960 C   0  0  2  0  0  3  0  0  0  0  0  0
  183.7810  178.5090  138.3200 O   0  0  0  0  0  0  0  0  0  0  0  0
  183.4660  180.7400  138.8310 O   0  0  0  0  0  1  0  0  0  0  0  0
  184.9120  178.7140  140.8160 C   0  0  2  0  0  3  0  0  0  0  0  0
  185.6380  179.0990  139.6810 O   0  0  0  0  0  0  0  0  0  0  0  0
  183.4700  179.1940  140.6810 C   0  0  2  0  0  3  0  0  0  0  0  0
  185.1510  178.2790  138.6450 C   0  0  2  0  0  3  0  0  0  0  0  0
  182.5340  178.1490  141.2660 C   0  0  0  0  0  2  0  0  0  0  0  0
  181.2090  178.5020  141.0180 O   0  0  0  0  0  1  0  0  0  0  0  0
  185.5530  179.2820  142.0720 C   0  0  0  0  0  2  0  0  0  0  0  0
  186.0990  178.0400  144.2050 C   0  0  0  0  0  0  0  0  0  0  0  0
  185.3760  178.9590  144.9690 O   0  0  0  0  0  1  0  0  0  0  0  0
  186.2480  178.2260  142.8000 N   0  0  0  0  0  2  0  0  0  0  0  0
  186.6520  177.0580  144.7600 O   0  0  0  0  0  0  0  0  0  0  0  0
  1  5  1  0  0  0  0
  1  4  1  1  0  0  0
  2 11  1  0  0  0  0
  3  8  1  0  0  0  0
  3 25  1  0  0  0  0
  3  1  1  0  0  0  0
  5 37  1  1  0  0  0
  6 10  2  0  0  0  0
  7  5  1  0  0  0  0
  7  2  1  1  0  0  0
  8  6  1  1  0  0  0
  8  7  1  0  0  0  0
  9 11  1  0  0  0  0
 10  9  1  0  0  0  0
 12 19  1  0  0  0  0
 13 15  1  0  0  0  0
 14 19  1  0  0  0  0
 14 13  2  0  0  0  0
 15 16  2  0  0  0  0
 17 13  1  0  0  0  0
 17 21  1  0  0  0  0
 18 10  1  0  0  0  0
 18 16  1  0  0  0  0
 19 18  2  0  0  0  0
 20 17  1  0  0  0  0
 21 22  1  0  0  0  0
 22 23  1  0  0  0  0
 23 24  1  0  0  0  0
 27 26  2  0  0  0  0
 28 25  1  0  0  0  0
 28 27  1  0  0  0  0
 29 27  1  0  0  0  0
 30 29  1  0  0  0  0
 30 33  1  0  0  0  0
 31 30  2  0  0  0  0
 33 32  1  1  0  0  0
 34 36  1  0  0  0  0
 34 35  1  0  0  0  0
 36 33  1  0  0  0  0
 36 35  1  0  0  0  0
 38 37  1  0  0  0  0
 39 41  1  6  0  0  0
 39 44  1  0  0  0  0
 40 45  1  0  0  0  0
 40 39  1  0  0  0  0
 42 48  1  1  0  0  0
 43 42  1  0  0  0  0
 44 42  1  0  0  0  0
 44 46  1  6  0  0  0
 45 38  1  6  0  0  0
 45 43  1  0  0  0  0
 47 46  1  0  0  0  0
 48 51  1  0  0  0  0
 49 52  2  0  0  0  0
 49 50  1  0  0  0  0
 51 49  1  0  0  0  0
M  END
>  <MODEL>
8

>  <REMARK>
 VINA RESULT:      -4.9      3.241      5.854
  Name = 
  16 active torsions:
  status: ('A' for Active; 'I' for Inactive)
    1  A    between atoms: C_1  and  C_24
    2  A    between atoms: C_1  and  C_47
    3  A    between atoms: C_10  and  C_17
    4  A    between atoms: N_12  and  C_32
    5  A    between atoms: C_13  and  C_24
    6  A    between atoms: C_13  and  C_42
    7  A    between atoms: C_15  and  C_43
    8  A    between atoms: C_17  and  C_29
    9  A    between atoms: C_21  and  C_48
   10  A    between atoms: C_22  and  C_49
   11  A    between atoms: C_29  and  N_36
   12  A    between atoms: C_32  and  N_51
   13  A    between atoms: C_34  and  C_44
   14  A    between atoms: C_34  and  C_49
   15  A    between atoms: C_37  and  C_39
   16  A    between atoms: N_38  and  C_48
                            x       y       z     vdW  Elec       q    Type
                         _______ _______ _______ _____ _____    ______ ____

>  <TORSDO>
F 16

$$$$
=
 OpenBabel10232411403D

 52 56  0  0  1  0  0  0  0  0999 V2000
  187.3430  176.2900  135.9980 C   0  0  1  0  0  3  0  0  0  0  0  0
  189.7340  177.6520  137.9000 C   0  0  0  0  0  2  0  0  0  0  0  0
  188.5350  175.6890  135.3510 N   0  0  0  0  0  0  0  0  0  0  0  0
  186.7970  175.5180  137.2170 C   0  0  0  0  0  1  0  0  0  0  0  0
  187.7010  177.7430  136.3350 C   0  0  2  0  0  3  0  0  0  0  0  0
  191.0460  176.1010  135.7080 C   0  0  0  0  0  3  0  0  0  0  0  0
  189.2160  177.7880  136.4600 C   0  0  2  0  0  3  0  0  0  0  0  0
  189.6450  176.6480  135.5430 C   0  0  2  0  0  3  0  0  0  0  0  0
  190.8850  175.4010  138.1550 C   0  0  0  0  0  2  0  0  0  0  0  0
  191.5820  175.5550  136.8080 C   0  0  0  0  0  0  0  0  0  0  0  0
  189.6210  176.2270  138.4170 C   0  0  0  0  0  2  0  0  0  0  0  0
  193.7510  176.6010  138.5950 C   0  0  0  0  0  1  0  0  0  0  0  0
  195.5610  174.1500  136.4500 C   0  0  0  0  0  0  0  0  0  0  0  0
  195.2650  175.1010  137.3780 N   0  0  0  0  0  0  0  0  0  0  0  0
  194.5360  173.6400  135.6440 C   0  0  0  0  0  3  0  0  0  0  0  0
  193.2700  174.1100  135.7930 N   0  0  0  0  0  0  0  0  0  0  0  0
  196.9100  173.6780  136.3180 N   0  0  0  0  0  0  0  0  0  0  0  0
  192.9720  175.0770  136.7070 C   0  0  0  0  0  0  0  0  0  0  0  0
  194.0050  175.5820  137.5290 C   0  0  0  0  0  0  0  0  0  0  0  0
  197.8600  174.1180  137.1750 O   0  0  0  0  0  1  0  0  0  0  0  0
  197.3270  172.8440  135.1980 C   0  0  0  0  0  2  0  0  0  0  0  0
  198.1860  171.6820  135.6620 C   0  0  0  0  0  2  0  0  0  0  0  0
  197.3510  170.4280  135.8590 C   0  0  0  0  0  2  0  0  0  0  0  0
  196.5800  170.5310  137.0200 O   0  0  0  0  0  1  0  0  0  0  0  0
  188.8600  174.3240  135.7960 C   0  0  0  0  0  2  0  0  0  0  0  0
  187.8520  171.9420  137.0710 O   0  0  0  0  0  0  0  0  0  0  0  0
  187.5300  172.1620  135.8710 C   0  0  0  0  0  0  0  0  0  0  0  0
  187.9330  173.3640  135.2120 N   0  0  0  0  0  2  0  0  0  0  0  0
  186.7410  171.1380  135.1260 C   0  0  0  0  0  2  0  0  0  0  0  0
  185.2860  171.1450  135.5040 C   0  0  0  0  0  0  0  0  0  0  0  0
  184.5820  170.1580  135.3510 O   0  0  0  0  0  0  0  0  0  0  0  0
  184.0840  172.0430  137.3430 O   0  0  0  0  0  1  0  0  0  0  0  0
  184.7170  172.3770  136.1390 C   0  0  2  0  0  3  0  0  0  0  0  0
  184.2660  174.4040  134.7640 C   0  0  0  0  0  2  0  0  0  0  0  0
  183.2010  174.3240  135.8490 C   0  0  0  0  0  2  0  0  0  0  0  0
  183.7210  173.0480  135.1990 C   0  0  0  0  0  3  0  0  0  0  0  0
  186.9090  178.4120  137.4570 C   0  0  0  0  0  2  0  0  0  0  0  0
  185.4320  178.1680  137.2510 C   0  0  0  0  0  2  0  0  0  0  0  0
  182.9200  179.5320  139.2900 C   0  0  2  0  0  3  0  0  0  0  0  0
  183.3430  178.5210  138.3890 O   0  0  0  0  0  0  0  0  0  0  0  0
  183.3510  180.7850  138.8470 O   0  0  0  0  0  1  0  0  0  0  0  0
  184.7490  178.6460  140.7460 C   0  0  2  0  0  3  0  0  0  0  0  0
  185.3910  178.9130  139.5300 O   0  0  0  0  0  0  0  0  0  0  0  0
  183.3680  179.2940  140.7430 C   0  0  2  0  0  3  0  0  0  0  0  0
  184.7030  178.1340  138.5790 C   0  0  2  0  0  3  0  0  0  0  0  0
  182.3820  178.3850  141.4570 C   0  0  0  0  0  2  0  0  0  0  0  0
  182.2240  178.7960  142.7790 O   0  0  0  0  0  1  0  0  0  0  0  0
  185.5820  179.1610  141.9080 C   0  0  0  0  0  2  0  0  0  0  0  0
  187.5400  177.6550  142.4440 C   0  0  0  0  0  0  0  0  0  0  0  0
  188.3210  178.2530  141.4520 O   0  0  0  0  0  0  0  0  0  0  0  0
  186.1810  178.0430  142.6290 N   0  0  0  0  0  2  0  0  0  0  0  0
  188.0250  176.7420  143.1600 O   0  0  0  0  0  1  0  0  0  0  0  0
  1  5  1  0  0  0  0
  1  4  1  1  0  0  0
  2 11  1  0  0  0  0
  3  8  1  0  0  0  0
  3 25  1  0  0  0  0
  3  1  1  0  0  0  0
  5  7  1  0  0  0  0
  5 37  1  1  0  0  0
  6 10  2  0  0  0  0
  7  2  1  1  0  0  0
  8  6  1  1  0  0  0
  8  7  1  0  0  0  0
  9 11  1  0  0  0  0
 10  9  1  0  0  0  0
 13 14  1  0  0  0  0
 14 19  2  0  0  0  0
 15 16  1  0  0  0  0
 15 13  2  0  0  0  0
 16 18  2  0  0  0  0
 17 13  1  0  0  0  0
 17 20  1  0  0  0  0
 18 10  1  0  0  0  0
 18 19  1  0  0  0  0
 19 12  1  0  0  0  0
 21 22  1  0  0  0  0
 21 17  1  0  0  0  0
 22 23  1  0  0  0  0
 23 24  1  0  0  0  0
 27 26  2  0  0  0  0
 28 25  1  0  0  0  0
 28 27  1  0  0  0  0
 29 30  1  0  0  0  0
 29 27  1  0  0  0  0
 30 33  1  0  0  0  0
 31 30  2  0  0  0  0
 33 32  1  1  0  0  0
 34 36  1  0  0  0  0
 34 35  1  0  0  0  0
 36 35  1  0  0  0  0
 36 33  1  0  0  0  0
 38 37  1  0  0  0  0
 39 41  1  6  0  0  0
 39 44  1  0  0  0  0
 40 45  1  0  0  0  0
 40 39  1  0  0  0  0
 42 48  1  1  0  0  0
 43 42  1  0  0  0  0
 44 42  1  0  0  0  0
 44 46  1  6  0  0  0
 45 38  1  6  0  0  0
 45 43  1  0  0  0  0
 46 47  1  0  0  0  0
 48 51  1  0  0  0  0
 49 51  1  0  0  0  0
 49 52  1  0  0  0  0
 50 49  2  0  0  0  0
M  END
>  <MODEL>
9

>  <REMARK>
 VINA RESULT:      -4.8      2.603      5.566
  Name = 
  16 active torsions:
  status: ('A' for Active; 'I' for Inactive)
    1  A    between atoms: C_1  and  C_24
    2  A    between atoms: C_1  and  C_47
    3  A    between atoms: C_10  and  C_17
    4  A    between atoms: N_12  and  C_32
    5  A    between atoms: C_13  and  C_24
    6  A    between atoms: C_13  and  C_42
    7  A    between atoms: C_15  and  C_43
    8  A    between atoms: C_17  and  C_29
    9  A    between atoms: C_21  and  C_48
   10  A    between atoms: C_22  and  C_49
   11  A    between atoms: C_29  and  N_36
   12  A    between atoms: C_32  and  N_51
   13  A    between atoms: C_34  and  C_44
   14  A    between atoms: C_34  and  C_49
   15  A    between atoms: C_37  and  C_39
   16  A    between atoms: N_38  and  C_48
                            x       y       z     vdW  Elec       q    Type
                         _______ _______ _______ _____ _____    ______ ____

>  <TORSDO>
F 16

$$$$
