=
 OpenBabel10232410033D

 28 32  0  0  1  0  0  0  0  0999 V2000
  188.7720  178.9810  139.8560 C   0  0  0  0  0  2  0  0  0  0  0  0
  184.0000  179.3290  140.2120 N   0  0  0  0  0  2  0  0  0  0  0  0
  188.7760  177.8180  145.9100 C   0  0  0  0  0  3  0  0  0  0  0  0
  187.4870  178.2460  140.2860 C   0  0  2  0  0  3  0  0  0  0  0  0
  185.2510  178.7060  140.5130 C   0  0  0  0  0  0  0  0  0  0  0  0
  188.0850  176.9810  142.3300 N   0  0  0  0  0  2  0  0  0  0  0  0
  191.7680  177.2960  141.6510 S   0  0  0  0  0  0  0  0  0  0  0  0
  190.8940  176.0090  142.6510 C   0  0  0  0  0  2  0  0  0  0  0  0
  185.5290  177.9160  142.1030 S   0  0  0  0  0  0  0  0  0  0  0  0
  189.9230  178.1060  140.0810 N   0  0  0  0  0  0  0  0  0  0  0  0
  188.7530  177.0570  143.6060 C   0  0  0  0  0  0  0  0  0  0  0  0
  190.2630  178.0880  141.4030 O   0  0  0  0  0  0  0  0  0  0  0  0
  190.0760  177.3170  146.0500 C   0  0  0  0  0  3  0  0  0  0  0  0
  190.6840  176.7080  144.9990 N   0  0  0  0  0  0  0  0  0  0  0  0
  190.0830  176.5950  143.7800 C   0  0  0  0  0  0  0  0  0  0  0  0
  188.1200  177.6820  144.6860 C   0  0  0  0  0  3  0  0  0  0  0  0
  186.2980  178.8930  139.7750 N   0  0  0  0  0  0  0  0  0  0  0  0
  187.3210  178.1170  141.8090 C   0  0  2  0  0  3  0  0  0  0  0  0
  191.1010  176.4340  138.7830 C   0  0  0  0  0  3  0  0  0  0  0  0
  189.8840  174.5530  137.6350 O   0  0  0  0  0  0  0  0  0  0  0  0
  192.3410  174.5020  137.6780 C   0  0  0  0  0  2  0  0  0  0  0  0
  191.0740  175.3110  137.7860 C   0  0  0  0  0  0  0  0  0  0  0  0
  188.8430  175.4790  137.4620 C   0  0  0  0  0  2  0  0  0  0  0  0
  188.6430  176.2740  138.7740 C   0  0  0  0  0  2  0  0  0  0  0  0
  189.9340  176.9210  139.2390 C   0  0  0  0  0  0  0  0  0  0  0  0
  191.9320  175.4410  136.5310 C   0  0  0  0  0  2  0  0  0  0  0  0
  183.7790  180.1020  139.0270 C   0  0  0  0  0  3  0  0  0  0  0  0
  182.5390  180.3950  138.6580 C   0  0  0  0  0  2  0  0  0  0  0  0
  1 10  1  0  0  0  0
  2  5  1  0  0  0  0
  3 13  1  0  0  0  0
  4  1  1  1  0  0  0
  4 18  1  0  0  0  0
  5  9  1  0  0  0  0
  6 11  1  0  0  0  0
  7  8  1  0  0  0  0
  8 15  1  0  0  0  0
 10 12  1  0  0  0  0
 11 15  2  0  0  0  0
 11 16  1  0  0  0  0
 12  7  1  0  0  0  0
 14 13  2  0  0  0  0
 15 14  1  0  0  0  0
 16  3  2  0  0  0  0
 17  4  1  0  0  0  0
 17  5  2  0  0  0  0
 18  9  1  6  0  0  0
 18  6  1  0  0  0  0
 19 25  2  0  0  0  0
 20 22  1  0  0  0  0
 21 22  1  0  0  0  0
 22 19  1  0  0  0  0
 23 20  1  0  0  0  0
 23 24  1  0  0  0  0
 24 25  1  0  0  0  0
 25 10  1  0  0  0  0
 26 21  1  0  0  0  0
 26 22  1  0  0  0  0
 27  2  1  0  0  0  0
 28 27  2  0  0  0  0
M  END
>  <MODEL>
1

>  <REMARK>
 VINA RESULT:      -6.6      0.000      0.000
  Name = 
  2 active torsions:
  status: ('A' for Active; 'I' for Inactive)
    1  A    between atoms: N_2  and  C_7
    2  A    between atoms: N_16  and  C_24
                            x       y       z     vdW  Elec       q    Type
                         _______ _______ _______ _____ _____    ______ ____

>  <TORSDO>
F 2

$$$$
=
 OpenBabel10232410033D

 28 32  0  0  1  0  0  0  0  0999 V2000
  187.6340  178.4440  137.1410 C   0  0  0  0  0  2  0  0  0  0  0  0
  187.3460  178.6450  141.9260 N   0  0  0  0  0  2  0  0  0  0  0  0
  193.4760  176.6400  137.9310 C   0  0  0  0  0  3  0  0  0  0  0  0
  187.8000  177.6390  138.4450 C   0  0  2  0  0  3  0  0  0  0  0  0
  187.7550  178.0220  140.7070 C   0  0  0  0  0  0  0  0  0  0  0  0
  189.7670  176.1760  138.0890 N   0  0  0  0  0  2  0  0  0  0  0  0
  189.6510  176.6440  134.3610 S   0  0  0  0  0  0  0  0  0  0  0  0
  190.3800  175.2380  135.3170 C   0  0  0  0  0  2  0  0  0  0  0  0
  189.2780  177.0730  140.6220 S   0  0  0  0  0  0  0  0  0  0  0  0
  187.9280  177.5760  136.0000 N   0  0  0  0  0  0  0  0  0  0  0  0
  191.1250  176.1300  137.6070 C   0  0  0  0  0  0  0  0  0  0  0  0
  189.2760  177.4250  135.8460 O   0  0  0  0  0  0  0  0  0  0  0  0
  193.7460  176.1560  136.6450 C   0  0  0  0  0  3  0  0  0  0  0  0
  192.7350  175.6770  135.8750 N   0  0  0  0  0  0  0  0  0  0  0  0
  191.4380  175.6820  136.2980 C   0  0  0  0  0  0  0  0  0  0  0  0
  192.1630  176.6220  138.4050 C   0  0  0  0  0  3  0  0  0  0  0  0
  187.1960  178.3100  139.5760 N   0  0  0  0  0  0  0  0  0  0  0  0
  189.2630  177.3440  138.8150 C   0  0  2  0  0  3  0  0  0  0  0  0
  187.1170  175.3600  136.5460 C   0  0  0  0  0  3  0  0  0  0  0  0
  185.0410  174.4130  135.4830 O   0  0  0  0  0  0  0  0  0  0  0  0
  186.0800  173.1690  137.3300 C   0  0  0  0  0  2  0  0  0  0  0  0
  186.2240  174.1940  136.2340 C   0  0  0  0  0  0  0  0  0  0  0  0
  185.4230  175.1450  134.3460 C   0  0  0  0  0  2  0  0  0  0  0  0
  185.8860  176.5560  134.7780 C   0  0  0  0  0  2  0  0  0  0  0  0
  186.9790  176.4880  135.8290 C   0  0  0  0  0  0  0  0  0  0  0  0
  186.8680  172.8220  136.0560 C   0  0  0  0  0  2  0  0  0  0  0  0
  186.2270  179.5360  142.0100 C   0  0  0  0  0  3  0  0  0  0  0  0
  185.0670  179.0880  142.4700 C   0  0  0  0  0  2  0  0  0  0  0  0
  2 27  1  0  0  0  0
  3 16  1  0  0  0  0
  4  1  1  6  0  0  0
  4 18  1  0  0  0  0
  4 17  1  0  0  0  0
  5  2  1  0  0  0  0
  7  8  1  0  0  0  0
  7 12  1  0  0  0  0
  8 15  1  0  0  0  0
  9  5  1  0  0  0  0
 10  1  1  0  0  0  0
 11  6  1  0  0  0  0
 11 16  2  0  0  0  0
 12 10  1  0  0  0  0
 13  3  2  0  0  0  0
 14 15  2  0  0  0  0
 14 13  1  0  0  0  0
 15 11  1  0  0  0  0
 17  5  2  0  0  0  0
 18  6  1  6  0  0  0
 18  9  1  0  0  0  0
 20 22  1  0  0  0  0
 22 19  1  0  0  0  0
 22 21  1  0  0  0  0
 23 24  1  0  0  0  0
 23 20  1  0  0  0  0
 24 25  1  0  0  0  0
 25 10  1  0  0  0  0
 25 19  2  0  0  0  0
 26 22  1  0  0  0  0
 26 21  1  0  0  0  0
 27 28  2  0  0  0  0
M  END
>  <MODEL>
2

>  <REMARK>
 VINA RESULT:      -6.3      3.235      5.808
  Name = 
  2 active torsions:
  status: ('A' for Active; 'I' for Inactive)
    1  A    between atoms: N_2  and  C_7
    2  A    between atoms: N_16  and  C_24
                            x       y       z     vdW  Elec       q    Type
                         _______ _______ _______ _____ _____    ______ ____

>  <TORSDO>
F 2

$$$$
=
 OpenBabel10232410033D

 28 32  0  0  1  0  0  0  0  0999 V2000
  188.1760  178.4430  138.9710 C   0  0  0  0  0  2  0  0  0  0  0  0
  189.2980  177.4050  143.5190 N   0  0  0  0  0  2  0  0  0  0  0  0
  193.8210  176.4460  137.5050 C   0  0  0  0  0  3  0  0  0  0  0  0
  188.6420  177.3270  139.9280 C   0  0  2  0  0  3  0  0  0  0  0  0
  189.2830  177.1140  142.1200 C   0  0  0  0  0  0  0  0  0  0  0  0
  190.2900  175.9890  138.6520 N   0  0  0  0  0  2  0  0  0  0  0  0
  189.1450  177.4040  135.3630 S   0  0  0  0  0  0  0  0  0  0  0  0
  189.9960  175.7930  135.6830 C   0  0  0  0  0  2  0  0  0  0  0  0
  190.6300  176.2060  141.3530 S   0  0  0  0  0  0  0  0  0  0  0  0
  188.0540  177.8960  137.6190 N   0  0  0  0  0  0  0  0  0  0  0  0
  191.4430  176.0570  137.7880 C   0  0  0  0  0  0  0  0  0  0  0  0
  189.2820  177.7770  137.0350 O   0  0  0  0  0  0  0  0  0  0  0  0
  193.6670  176.3070  136.1200 C   0  0  0  0  0  3  0  0  0  0  0  0
  192.4400  176.0520  135.5970 N   0  0  0  0  0  0  0  0  0  0  0  0
  191.3250  175.9590  136.3780 C   0  0  0  0  0  0  0  0  0  0  0  0
  192.7050  176.3170  138.3320 C   0  0  0  0  0  3  0  0  0  0  0  0
  188.4480  177.6890  141.3150 N   0  0  0  0  0  0  0  0  0  0  0  0
  190.1180  176.9340  139.7570 C   0  0  2  0  0  3  0  0  0  0  0  0
  187.3310  175.6030  137.3220 C   0  0  0  0  0  3  0  0  0  0  0  0
  184.8930  174.9810  137.2760 O   0  0  0  0  0  0  0  0  0  0  0  0
  186.5590  173.1750  137.3200 C   0  0  0  0  0  2  0  0  0  0  0  0
  186.2390  174.6170  137.0190 C   0  0  0  0  0  0  0  0  0  0  0  0
  184.6980  176.2330  136.6710 C   0  0  0  0  0  2  0  0  0  0  0  0
  185.5440  177.2960  137.4120 C   0  0  0  0  0  2  0  0  0  0  0  0
  187.0060  176.8970  137.4820 C   0  0  0  0  0  0  0  0  0  0  0  0
  186.4470  173.6470  135.8610 C   0  0  0  0  0  2  0  0  0  0  0  0
  188.3310  178.2530  144.1500 C   0  0  0  0  0  3  0  0  0  0  0  0
  187.4510  177.7300  144.9920 C   0  0  0  0  0  2  0  0  0  0  0  0
  2 27  1  0  0  0  0
  3 16  1  0  0  0  0
  4  1  1  6  0  0  0
  4 17  1  0  0  0  0
  5  2  1  0  0  0  0
  7  8  1  0  0  0  0
  7 12  1  0  0  0  0
  8 15  1  0  0  0  0
  9  5  1  0  0  0  0
 10  1  1  0  0  0  0
 11 16  2  0  0  0  0
 11  6  1  0  0  0  0
 12 10  1  0  0  0  0
 13  3  2  0  0  0  0
 14 13  1  0  0  0  0
 14 15  2  0  0  0  0
 15 11  1  0  0  0  0
 17  5  2  0  0  0  0
 18  6  1  6  0  0  0
 18  4  1  0  0  0  0
 18  9  1  0  0  0  0
 19 25  2  0  0  0  0
 22 20  1  0  0  0  0
 22 21  1  0  0  0  0
 22 19  1  0  0  0  0
 23 20  1  0  0  0  0
 23 24  1  0  0  0  0
 24 25  1  0  0  0  0
 25 10  1  0  0  0  0
 26 22  1  0  0  0  0
 26 21  1  0  0  0  0
 27 28  2  0  0  0  0
M  END
>  <MODEL>
3

>  <REMARK>
 VINA RESULT:      -6.2      2.860      6.061
  Name = 
  2 active torsions:
  status: ('A' for Active; 'I' for Inactive)
    1  A    between atoms: N_2  and  C_7
    2  A    between atoms: N_16  and  C_24
                            x       y       z     vdW  Elec       q    Type
                         _______ _______ _______ _____ _____    ______ ____

>  <TORSDO>
F 2

$$$$
=
 OpenBabel10232410033D

 28 32  0  0  1  0  0  0  0  0999 V2000
  188.4690  178.7340  138.3650 C   0  0  0  0  0  2  0  0  0  0  0  0
  184.0460  179.4800  140.0690 N   0  0  0  0  0  2  0  0  0  0  0  0
  190.3600  178.8680  144.2310 C   0  0  0  0  0  3  0  0  0  0  0  0
  187.3810  178.1970  139.3160 C   0  0  2  0  0  3  0  0  0  0  0  0
  185.3280  178.8490  140.1050 C   0  0  0  0  0  0  0  0  0  0  0  0
  188.5860  177.3500  141.3090 N   0  0  0  0  0  2  0  0  0  0  0  0
  191.8740  177.2580  139.4890 S   0  0  0  0  0  0  0  0  0  0  0  0
  191.3540  176.2740  140.9660 C   0  0  0  0  0  2  0  0  0  0  0  0
  186.0870  178.3930  141.6680 S   0  0  0  0  0  0  0  0  0  0  0  0
  189.6320  177.8480  138.4160 N   0  0  0  0  0  0  0  0  0  0  0  0
  189.6180  177.6450  142.2700 C   0  0  0  0  0  0  0  0  0  0  0  0
  190.3670  178.0840  139.5430 O   0  0  0  0  0  0  0  0  0  0  0  0
  191.6380  178.3180  144.0760 C   0  0  0  0  0  3  0  0  0  0  0  0
  191.8880  177.4620  143.0520 N   0  0  0  0  0  0  0  0  0  0  0  0
  190.9360  177.1380  142.1300 C   0  0  0  0  0  0  0  0  0  0  0  0
  189.3550  178.5250  143.3250 C   0  0  0  0  0  3  0  0  0  0  0  0
  186.0920  178.8040  139.0620 N   0  0  0  0  0  0  0  0  0  0  0  0
  187.6980  178.4020  140.8060 C   0  0  2  0  0  3  0  0  0  0  0  0
  190.3950  175.7810  137.4110 C   0  0  0  0  0  3  0  0  0  0  0  0
  188.8160  173.8790  136.9370 O   0  0  0  0  0  0  0  0  0  0  0  0
  191.2260  173.4980  136.6440 C   0  0  0  0  0  2  0  0  0  0  0  0
  190.0850  174.4780  136.7310 C   0  0  0  0  0  0  0  0  0  0  0  0
  187.8600  174.8780  136.6940 C   0  0  0  0  0  2  0  0  0  0  0  0
  187.9680  175.9660  137.7880 C   0  0  0  0  0  2  0  0  0  0  0  0
  189.3790  176.5150  137.8940 C   0  0  0  0  0  0  0  0  0  0  0  0
  190.7250  174.2040  135.3730 C   0  0  0  0  0  2  0  0  0  0  0  0
  183.4670  180.0020  138.8670 C   0  0  0  0  0  3  0  0  0  0  0  0
  182.1710  180.2840  138.8340 C   0  0  0  0  0  2  0  0  0  0  0  0
  1 10  1  0  0  0  0
  2  5  1  0  0  0  0
  4  1  1  6  0  0  0
  4 18  1  0  0  0  0
  5  9  1  0  0  0  0
  6 11  1  0  0  0  0
  7 12  1  0  0  0  0
  7  8  1  0  0  0  0
  8 15  1  0  0  0  0
 10 12  1  0  0  0  0
 11 16  1  0  0  0  0
 13  3  1  0  0  0  0
 14 13  2  0  0  0  0
 15 11  2  0  0  0  0
 15 14  1  0  0  0  0
 16  3  2  0  0  0  0
 17  4  1  0  0  0  0
 17  5  2  0  0  0  0
 18  6  1  1  0  0  0
 18  9  1  0  0  0  0
 19 25  2  0  0  0  0
 21 22  1  0  0  0  0
 22 20  1  0  0  0  0
 22 19  1  0  0  0  0
 23 20  1  0  0  0  0
 23 24  1  0  0  0  0
 24 25  1  0  0  0  0
 25 10  1  0  0  0  0
 26 21  1  0  0  0  0
 26 22  1  0  0  0  0
 27  2  1  0  0  0  0
 28 27  2  0  0  0  0
M  END
>  <MODEL>
4

>  <REMARK>
 VINA RESULT:      -6.0      1.526      1.619
  Name = 
  2 active torsions:
  status: ('A' for Active; 'I' for Inactive)
    1  A    between atoms: N_2  and  C_7
    2  A    between atoms: N_16  and  C_24
                            x       y       z     vdW  Elec       q    Type
                         _______ _______ _______ _____ _____    ______ ____

>  <TORSDO>
F 2

$$$$
=
 OpenBabel10232410033D

 28 32  0  0  1  0  0  0  0  0999 V2000
  186.7770  176.2800  143.8380 C   0  0  0  0  0  2  0  0  0  0  0  0
  183.1450  179.2990  142.9900 N   0  0  0  0  0  2  0  0  0  0  0  0
  188.8750  177.8070  138.2470 C   0  0  0  0  0  3  0  0  0  0  0  0
  186.4070  177.7330  143.4790 C   0  0  2  0  0  3  0  0  0  0  0  0
  184.5280  178.9390  142.9540 C   0  0  0  0  0  0  0  0  0  0  0  0
  188.1150  178.4790  141.8470 N   0  0  0  0  0  2  0  0  0  0  0  0
  190.4520  175.6790  142.7580 S   0  0  0  0  0  0  0  0  0  0  0  0
  190.8670  177.3200  142.0120 C   0  0  0  0  0  2  0  0  0  0  0  0
  185.5940  179.5040  141.6230 S   0  0  0  0  0  0  0  0  0  0  0  0
  188.2320  176.1620  143.9270 N   0  0  0  0  0  0  0  0  0  0  0  0
  188.8380  178.1160  140.6540 C   0  0  0  0  0  0  0  0  0  0  0  0
  188.7860  176.0950  142.6800 O   0  0  0  0  0  0  0  0  0  0  0  0
  190.1800  177.3080  138.3430 C   0  0  0  0  0  3  0  0  0  0  0  0
  190.7840  177.2190  139.5570 N   0  0  0  0  0  0  0  0  0  0  0  0
  190.1470  177.5710  140.7100 C   0  0  0  0  0  0  0  0  0  0  0  0
  188.2120  178.2120  139.4060 C   0  0  0  0  0  3  0  0  0  0  0  0
  185.0080  178.0110  143.7180 N   0  0  0  0  0  0  0  0  0  0  0  0
  186.7080  178.1110  142.0200 C   0  0  2  0  0  3  0  0  0  0  0  0
  188.2000  176.9660  146.2120 C   0  0  0  0  0  3  0  0  0  0  0  0
  190.0580  178.3870  147.1390 O   0  0  0  0  0  0  0  0  0  0  0  0
  188.3360  177.5600  148.6850 C   0  0  0  0  0  2  0  0  0  0  0  0
  188.7380  177.8860  147.2700 C   0  0  0  0  0  0  0  0  0  0  0  0
  190.1580  178.9110  145.8410 C   0  0  0  0  0  2  0  0  0  0  0  0
  190.0700  177.7550  144.8150 C   0  0  0  0  0  2  0  0  0  0  0  0
  188.8190  176.9220  145.0190 C   0  0  0  0  0  0  0  0  0  0  0  0
  187.7570  178.8040  147.9920 C   0  0  0  0  0  2  0  0  0  0  0  0
  182.2200  178.7530  143.9380 C   0  0  0  0  0  3  0  0  0  0  0  0
  180.9220  178.7600  143.6660 C   0  0  0  0  0  2  0  0  0  0  0  0
  1 10  1  0  0  0  0
  2 27  1  0  0  0  0
  3 13  2  0  0  0  0
  3 16  1  0  0  0  0
  4 17  1  0  0  0  0
  4  1  1  6  0  0  0
  5  2  1  0  0  0  0
  5 17  2  0  0  0  0
  6 18  1  0  0  0  0
  8  7  1  0  0  0  0
  9  5  1  0  0  0  0
 10 25  1  0  0  0  0
 11 15  1  0  0  0  0
 11  6  1  0  0  0  0
 12  7  1  0  0  0  0
 12 10  1  0  0  0  0
 13 14  1  0  0  0  0
 14 15  2  0  0  0  0
 15  8  1  0  0  0  0
 16 11  2  0  0  0  0
 18  9  1  1  0  0  0
 18  4  1  0  0  0  0
 19 22  1  0  0  0  0
 20 22  1  0  0  0  0
 22 26  1  0  0  0  0
 22 21  1  0  0  0  0
 23 20  1  0  0  0  0
 24 25  1  0  0  0  0
 24 23  1  0  0  0  0
 25 19  2  0  0  0  0
 26 21  1  0  0  0  0
 28 27  2  0  0  0  0
M  END
>  <MODEL>
5

>  <REMARK>
 VINA RESULT:      -5.9      2.508      6.285
  Name = 
  2 active torsions:
  status: ('A' for Active; 'I' for Inactive)
    1  A    between atoms: N_2  and  C_7
    2  A    between atoms: N_16  and  C_24
                            x       y       z     vdW  Elec       q    Type
                         _______ _______ _______ _____ _____    ______ ____

>  <TORSDO>
F 2

$$$$
=
 OpenBabel10232410033D

 28 32  0  0  1  0  0  0  0  0999 V2000
  186.9210  178.8030  138.6910 C   0  0  0  0  0  2  0  0  0  0  0  0
  185.9490  178.7850  143.3900 N   0  0  0  0  0  2  0  0  0  0  0  0
  192.7280  177.4480  140.2560 C   0  0  0  0  0  3  0  0  0  0  0  0
  186.9710  177.9620  139.9820 C   0  0  2  0  0  3  0  0  0  0  0  0
  186.5770  178.2470  142.2240 C   0  0  0  0  0  0  0  0  0  0  0  0
  189.0880  176.6790  139.8690 N   0  0  0  0  0  2  0  0  0  0  0  0
  189.4550  177.2870  136.1780 S   0  0  0  0  0  0  0  0  0  0  0  0
  190.1610  175.9070  137.1870 C   0  0  0  0  0  2  0  0  0  0  0  0
  188.1730  177.4290  142.3310 S   0  0  0  0  0  0  0  0  0  0  0  0
  187.4450  178.0080  137.5800 N   0  0  0  0  0  0  0  0  0  0  0  0
  190.4990  176.7630  139.5850 C   0  0  0  0  0  0  0  0  0  0  0  0
  188.8100  177.9730  137.6160 O   0  0  0  0  0  0  0  0  0  0  0  0
  193.2160  177.0400  139.0090 C   0  0  0  0  0  3  0  0  0  0  0  0
  192.3670  176.5130  138.0890 N   0  0  0  0  0  0  0  0  0  0  0  0
  191.0290  176.3950  138.3210 C   0  0  0  0  0  0  0  0  0  0  0  0
  191.3680  177.3040  140.5370 C   0  0  0  0  0  3  0  0  0  0  0  0
  186.1590  178.5340  141.0330 N   0  0  0  0  0  0  0  0  0  0  0  0
  188.3870  177.7710  140.5490 C   0  0  2  0  0  3  0  0  0  0  0  0
  187.1500  175.6190  137.3110 C   0  0  0  0  0  3  0  0  0  0  0  0
  184.9410  174.6300  136.6230 O   0  0  0  0  0  0  0  0  0  0  0  0
  186.7370  173.1060  137.3240 C   0  0  0  0  0  2  0  0  0  0  0  0
  186.3380  174.4630  136.8040 C   0  0  0  0  0  0  0  0  0  0  0  0
  184.7750  175.8020  135.8690 C   0  0  0  0  0  2  0  0  0  0  0  0
  185.2140  177.0210  136.7150 C   0  0  0  0  0  2  0  0  0  0  0  0
  186.6270  176.8550  137.2430 C   0  0  0  0  0  0  0  0  0  0  0  0
  187.0080  173.4740  135.8560 C   0  0  0  0  0  2  0  0  0  0  0  0
  184.7570  179.5770  143.3390 C   0  0  0  0  0  3  0  0  0  0  0  0
  183.6940  179.2070  144.0390 C   0  0  0  0  0  2  0  0  0  0  0  0
  3 16  1  0  0  0  0
  4  1  1  6  0  0  0
  4 18  1  0  0  0  0
  4 17  1  0  0  0  0
  5  9  1  0  0  0  0
  5  2  1  0  0  0  0
  7  8  1  0  0  0  0
  7 12  1  0  0  0  0
  8 15  1  0  0  0  0
 10 12  1  0  0  0  0
 10  1  1  0  0  0  0
 11  6  1  0  0  0  0
 11 16  2  0  0  0  0
 13  3  2  0  0  0  0
 14 15  2  0  0  0  0
 14 13  1  0  0  0  0
 15 11  1  0  0  0  0
 17  5  2  0  0  0  0
 18  6  1  6  0  0  0
 18  9  1  0  0  0  0
 20 22  1  0  0  0  0
 22 19  1  0  0  0  0
 22 21  1  0  0  0  0
 23 20  1  0  0  0  0
 23 24  1  0  0  0  0
 24 25  1  0  0  0  0
 25 19  2  0  0  0  0
 25 10  1  0  0  0  0
 26 22  1  0  0  0  0
 26 21  1  0  0  0  0
 27  2  1  0  0  0  0
 27 28  2  0  0  0  0
M  END
>  <MODEL>
6

>  <REMARK>
 VINA RESULT:      -5.7      2.910      4.652
  Name = 
  2 active torsions:
  status: ('A' for Active; 'I' for Inactive)
    1  A    between atoms: N_2  and  C_7
    2  A    between atoms: N_16  and  C_24
                            x       y       z     vdW  Elec       q    Type
                         _______ _______ _______ _____ _____    ______ ____

>  <TORSDO>
F 2

$$$$
=
 OpenBabel10232410033D

 28 32  0  0  1  0  0  0  0  0999 V2000
  191.8790  176.7930  137.7870 C   0  0  0  0  0  2  0  0  0  0  0  0
  192.8780  172.3610  136.2420 N   0  0  0  0  0  2  0  0  0  0  0  0
  186.4380  176.1610  134.9580 C   0  0  0  0  0  3  0  0  0  0  0  0
  191.4110  175.3240  137.7940 C   0  0  2  0  0  3  0  0  0  0  0  0
  192.0010  173.3380  136.8080 C   0  0  0  0  0  0  0  0  0  0  0  0
  188.9400  175.4010  137.6330 N   0  0  0  0  0  2  0  0  0  0  0  0
  188.8210  179.0230  138.6310 S   0  0  0  0  0  0  0  0  0  0  0  0
  187.4950  177.7450  138.7990 C   0  0  0  0  0  2  0  0  0  0  0  0
  190.2330  173.2820  136.4940 S   0  0  0  0  0  0  0  0  0  0  0  0
  190.9410  177.5990  138.5690 N   0  0  0  0  0  0  0  0  0  0  0  0
  187.8260  176.0020  136.9420 C   0  0  0  0  0  0  0  0  0  0  0  0
  189.8100  177.8560  137.8470 O   0  0  0  0  0  0  0  0  0  0  0  0
  185.7460  177.2290  135.5420 C   0  0  0  0  0  3  0  0  0  0  0  0
  186.0900  177.6610  136.7830 N   0  0  0  0  0  0  0  0  0  0  0  0
  187.1230  177.1100  137.4820 C   0  0  0  0  0  0  0  0  0  0  0  0
  187.4750  175.5510  135.6660 C   0  0  0  0  0  3  0  0  0  0  0  0
  192.4530  174.4220  137.3520 N   0  0  0  0  0  0  0  0  0  0  0  0
  190.1740  175.0580  136.9220 C   0  0  2  0  0  3  0  0  0  0  0  0
  189.7540  177.0650  140.6120 C   0  0  0  0  0  3  0  0  0  0  0  0
  190.9740  176.5820  142.7610 O   0  0  0  0  0  0  0  0  0  0  0  0
  188.5460  176.2050  142.6840 C   0  0  0  0  0  2  0  0  0  0  0  0
  189.7560  176.8930  142.1040 C   0  0  0  0  0  0  0  0  0  0  0  0
  191.9200  177.5140  142.3050 C   0  0  0  0  0  2  0  0  0  0  0  0
  192.2030  177.2640  140.8050 C   0  0  0  0  0  2  0  0  0  0  0  0
  190.9250  177.2740  139.9860 C   0  0  0  0  0  0  0  0  0  0  0  0
  188.7590  177.7080  142.9230 C   0  0  0  0  0  2  0  0  0  0  0  0
  194.3050  172.4470  136.3330 C   0  0  0  0  0  3  0  0  0  0  0  0
  194.9410  171.7900  137.2940 C   0  0  0  0  0  2  0  0  0  0  0  0
  1 10  1  0  0  0  0
  2 27  1  0  0  0  0
  2  5  1  0  0  0  0
  3 13  2  0  0  0  0
  3 16  1  0  0  0  0
  4  1  1  6  0  0  0
  5 17  2  0  0  0  0
  7  8  1  0  0  0  0
  9  5  1  0  0  0  0
 10 25  1  0  0  0  0
 11 15  1  0  0  0  0
 11  6  1  0  0  0  0
 12 10  1  0  0  0  0
 12  7  1  0  0  0  0
 13 14  1  0  0  0  0
 14 15  2  0  0  0  0
 15  8  1  0  0  0  0
 16 11  2  0  0  0  0
 17  4  1  0  0  0  0
 18  9  1  1  0  0  0
 18  6  1  0  0  0  0
 18  4  1  0  0  0  0
 19 22  1  0  0  0  0
 21 26  1  0  0  0  0
 22 21  1  0  0  0  0
 22 20  1  0  0  0  0
 22 26  1  0  0  0  0
 23 20  1  0  0  0  0
 24 23  1  0  0  0  0
 25 19  2  0  0  0  0
 25 24  1  0  0  0  0
 27 28  2  0  0  0  0
M  END
>  <MODEL>
7

>  <REMARK>
 VINA RESULT:      -5.6      3.185      7.796
  Name = 
  2 active torsions:
  status: ('A' for Active; 'I' for Inactive)
    1  A    between atoms: N_2  and  C_7
    2  A    between atoms: N_16  and  C_24
                            x       y       z     vdW  Elec       q    Type
                         _______ _______ _______ _____ _____    ______ ____

>  <TORSDO>
F 2

$$$$
=
 OpenBabel10232410033D

 28 32  0  0  1  0  0  0  0  0999 V2000
  191.3700  178.2540  142.9580 C   0  0  0  0  0  2  0  0  0  0  0  0
  191.4430  176.6530  138.4350 N   0  0  0  0  0  2  0  0  0  0  0  0
  185.2700  178.8260  142.2730 C   0  0  0  0  0  3  0  0  0  0  0  0
  190.8130  177.1900  141.9920 C   0  0  2  0  0  3  0  0  0  0  0  0
  190.8830  176.7130  139.7490 C   0  0  0  0  0  0  0  0  0  0  0  0
  188.4400  176.8740  142.6320 N   0  0  0  0  0  2  0  0  0  0  0  0
  188.9500  178.5120  145.9770 S   0  0  0  0  0  0  0  0  0  0  0  0
  187.6530  177.2880  145.4870 C   0  0  0  0  0  2  0  0  0  0  0  0
  189.1120  176.5580  140.0040 S   0  0  0  0  0  0  0  0  0  0  0  0
  190.8090  178.0340  144.2910 N   0  0  0  0  0  0  0  0  0  0  0  0
  187.2140  177.5530  142.9710 C   0  0  0  0  0  0  0  0  0  0  0  0
  189.5290  178.5060  144.3580 O   0  0  0  0  0  0  0  0  0  0  0  0
  184.8970  178.9710  143.6140 C   0  0  0  0  0  3  0  0  0  0  0  0
  185.6630  178.4220  144.5930 N   0  0  0  0  0  0  0  0  0  0  0  0
  186.8190  177.7530  144.3190 C   0  0  0  0  0  0  0  0  0  0  0  0
  186.4280  178.1140  141.9590 C   0  0  0  0  0  3  0  0  0  0  0  0
  191.5750  177.1210  140.7640 N   0  0  0  0  0  0  0  0  0  0  0  0
  189.3400  177.4060  141.6070 C   0  0  2  0  0  3  0  0  0  0  0  0
  191.3860  176.7190  146.2420 C   0  0  0  0  0  3  0  0  0  0  0  0
  192.0120  174.2880  146.0590 O   0  0  0  0  0  0  0  0  0  0  0  0
  191.6940  175.2480  148.2990 C   0  0  0  0  0  2  0  0  0  0  0  0
  191.9790  175.4740  146.8360 C   0  0  0  0  0  0  0  0  0  0  0  0
  192.5750  174.6390  144.8220 C   0  0  0  0  0  2  0  0  0  0  0  0
  191.6070  175.5810  144.0680 C   0  0  0  0  0  2  0  0  0  0  0  0
  191.2320  176.7880  144.9080 C   0  0  0  0  0  0  0  0  0  0  0  0
  193.1130  175.6280  147.8450 C   0  0  0  0  0  2  0  0  0  0  0  0
  192.8230  176.9230  138.1620 C   0  0  0  0  0  3  0  0  0  0  0  0
  193.4800  176.1640  137.2960 C   0  0  0  0  0  2  0  0  0  0  0  0
  1 10  1  0  0  0  0
  2  5  1  0  0  0  0
  3 13  1  0  0  0  0
  4  1  1  1  0  0  0
  5  9  1  0  0  0  0
  5 17  2  0  0  0  0
  6 11  1  0  0  0  0
  8  7  1  0  0  0  0
 10 12  1  0  0  0  0
 10 25  1  0  0  0  0
 11 15  2  0  0  0  0
 12  7  1  0  0  0  0
 13 14  2  0  0  0  0
 15 14  1  0  0  0  0
 15  8  1  0  0  0  0
 16  3  2  0  0  0  0
 16 11  1  0  0  0  0
 17  4  1  0  0  0  0
 18  9  1  6  0  0  0
 18  4  1  0  0  0  0
 18  6  1  0  0  0  0
 19 22  1  0  0  0  0
 20 22  1  0  0  0  0
 22 26  1  0  0  0  0
 22 21  1  0  0  0  0
 23 20  1  0  0  0  0
 24 23  1  0  0  0  0
 24 25  1  0  0  0  0
 25 19  2  0  0  0  0
 26 21  1  0  0  0  0
 27  2  1  0  0  0  0
 28 27  2  0  0  0  0
M  END
>  <MODEL>
8

>  <REMARK>
 VINA RESULT:      -5.5      2.942      6.578
  Name = 
  2 active torsions:
  status: ('A' for Active; 'I' for Inactive)
    1  A    between atoms: N_2  and  C_7
    2  A    between atoms: N_16  and  C_24
                            x       y       z     vdW  Elec       q    Type
                         _______ _______ _______ _____ _____    ______ ____

>  <TORSDO>
F 2

$$$$
=
 OpenBabel10232410033D

 28 32  0  0  1  0  0  0  0  0999 V2000
  183.8890  176.6910  135.7730 C   0  0  0  0  0  2  0  0  0  0  0  0
  188.6100  176.6320  136.6260 N   0  0  0  0  0  2  0  0  0  0  0  0
  184.2350  170.5440  135.4640 C   0  0  0  0  0  3  0  0  0  0  0  0
  184.9920  176.1440  136.7010 C   0  0  2  0  0  3  0  0  0  0  0  0
  187.2830  176.1330  136.8090 C   0  0  0  0  0  0  0  0  0  0  0  0
  184.3190  173.8260  137.2560 N   0  0  0  0  0  2  0  0  0  0  0  0
  180.7760  174.4080  136.1450 S   0  0  0  0  0  0  0  0  0  0  0  0
  181.4070  173.1550  137.3500 C   0  0  0  0  0  2  0  0  0  0  0  0
  186.9880  174.3860  137.1080 S   0  0  0  0  0  0  0  0  0  0  0  0
  182.5880  176.2070  136.2370 N   0  0  0  0  0  0  0  0  0  0  0  0
  183.8280  172.5830  136.7140 C   0  0  0  0  0  0  0  0  0  0  0  0
  182.3950  174.9090  135.8580 O   0  0  0  0  0  0  0  0  0  0  0  0
  182.8740  170.2280  135.5570 C   0  0  0  0  0  3  0  0  0  0  0  0
  182.0280  171.0670  136.2090 N   0  0  0  0  0  0  0  0  0  0  0  0
  182.4510  172.2430  136.7550 C   0  0  0  0  0  0  0  0  0  0  0  0
  184.7050  171.7210  136.0470 C   0  0  0  0  0  3  0  0  0  0  0  0
  186.2430  176.8500  136.5280 N   0  0  0  0  0  0  0  0  0  0  0  0
  185.2800  174.6460  136.5150 C   0  0  2  0  0  3  0  0  0  0  0  0
  181.5030  177.8720  137.6210 C   0  0  0  0  0  3  0  0  0  0  0  0
  181.4140  177.6520  140.1270 O   0  0  0  0  0  0  0  0  0  0  0  0
  180.1080  179.4420  139.0630 C   0  0  0  0  0  2  0  0  0  0  0  0
  181.2550  178.4670  138.9770 C   0  0  0  0  0  0  0  0  0  0  0  0
  182.6710  177.0380  140.0080 C   0  0  0  0  0  2  0  0  0  0  0  0
  182.6460  176.0480  138.8200 C   0  0  0  0  0  2  0  0  0  0  0  0
  182.1970  176.7240  137.5380 C   0  0  0  0  0  0  0  0  0  0  0  0
  181.5550  179.9490  139.1780 C   0  0  0  0  0  2  0  0  0  0  0  0
  188.8890  177.9810  136.2340 C   0  0  0  0  0  3  0  0  0  0  0  0
  189.0660  178.9100  137.1640 C   0  0  0  0  0  2  0  0  0  0  0  0
  1 10  1  0  0  0  0
  2  5  1  0  0  0  0
  3 13  2  0  0  0  0
  3 16  1  0  0  0  0
  4  1  1  6  0  0  0
  5  9  1  0  0  0  0
  7  8  1  0  0  0  0
 10 25  1  0  0  0  0
 11 15  1  0  0  0  0
 11  6  1  0  0  0  0
 12  7  1  0  0  0  0
 12 10  1  0  0  0  0
 13 14  1  0  0  0  0
 14 15  2  0  0  0  0
 15  8  1  0  0  0  0
 16 11  2  0  0  0  0
 17  4  1  0  0  0  0
 17  5  2  0  0  0  0
 18  4  1  0  0  0  0
 18  9  1  1  0  0  0
 18  6  1  0  0  0  0
 19 22  1  0  0  0  0
 21 26  1  0  0  0  0
 22 21  1  0  0  0  0
 22 26  1  0  0  0  0
 22 20  1  0  0  0  0
 23 20  1  0  0  0  0
 24 23  1  0  0  0  0
 25 19  2  0  0  0  0
 25 24  1  0  0  0  0
 27  2  1  0  0  0  0
 27 28  2  0  0  0  0
M  END
>  <MODEL>
9

>  <REMARK>
 VINA RESULT:      -5.4      5.627      9.442
  Name = 
  2 active torsions:
  status: ('A' for Active; 'I' for Inactive)
    1  A    between atoms: N_2  and  C_7
    2  A    between atoms: N_16  and  C_24
                            x       y       z     vdW  Elec       q    Type
                         _______ _______ _______ _____ _____    ______ ____

>  <TORSDO>
F 2

$$$$
