=
 OpenBabel10232408223D

 30 31  0  0  1  0  0  0  0  0999 V2000
  188.6460  176.5730  148.6390 O   0  0  0  0  0  0  0  0  0  0  0  0
  188.0220  178.1200  146.9950 N   0  0  0  0  0  0  0  0  0  0  0  0
  190.4040  177.0600  145.5470 C   0  0  2  0  0  3  0  0  0  0  0  0
  189.3180  175.6910  143.0930 O   0  0  0  0  0  1  0  0  0  0  0  0
  185.1210  179.0040  146.2350 C   0  0  0  0  0  2  0  0  0  0  0  0
  187.5890  177.2840  142.7720 C   0  0  0  0  0  2  0  0  0  0  0  0
  186.1190  176.9940  143.0760 C   0  0  0  0  0  2  0  0  0  0  0  0
  189.7380  176.4070  146.6280 O   0  0  0  0  0  0  0  0  0  0  0  0
  186.2180  179.7140  147.0430 C   0  0  0  0  0  2  0  0  0  0  0  0
  188.5450  176.6340  143.7760 C   0  0  2  0  0  3  0  0  0  0  0  0
  187.1190  178.7100  147.7060 C   0  0  0  0  0  3  0  0  0  0  0  0
  185.5220  178.0940  143.9120 C   0  0  0  0  0  0  0  0  0  0  0  0
  189.4540  177.6760  144.4840 C   0  0  2  0  0  3  0  0  0  0  0  0
  185.7110  178.0350  145.2420 C   0  0  0  0  0  3  0  0  0  0  0  0
  188.8250  177.0360  147.4770 C   0  0  0  0  0  0  0  0  0  0  0  0
  183.2400  179.0400  143.9010 C   0  0  0  0  0  3  0  0  0  0  0  0
  183.0120  178.7640  141.6510 C   0  0  0  0  0  3  0  0  0  0  0  0
  184.6060  179.1370  143.3090 C   0  0  2  0  0  3  0  0  0  0  0  0
  184.3070  178.9220  141.8590 C   0  0  0  0  0  0  0  0  0  0  0  0
  185.3110  178.9870  140.7590 C   0  0  0  0  0  1  0  0  0  0  0  0
  182.3410  178.8370  142.9440 C   0  0  0  0  0  3  0  0  0  0  0  0
  190.1460  178.5640  143.5250 N   0  0  0  0  0  0  0  0  0  0  0  0
  190.6590  179.7070  144.2800 C   0  0  0  0  0  2  0  0  0  0  0  0
  192.1770  179.6370  144.3560 C   0  0  0  0  0  1  0  0  0  0  0  0
  191.0580  177.8930  141.6420 C   0  0  0  0  0  1  0  0  0  0  0  0
  191.2510  177.9320  143.0310 O   0  0  0  0  0  0  0  0  0  0  0  0
  191.4600  176.1340  144.9420 C   0  0  0  0  0  2  0  0  0  0  0  0
  191.8130  175.0000  145.8890 C   0  0  0  0  0  3  0  0  0  0  0  0
  192.6280  175.5160  147.0630 C   0  0  0  0  0  1  0  0  0  0  0  0
  192.6160  173.9510  145.1440 C   0  0  0  0  0  1  0  0  0  0  0  0
  2 15  1  0  0  0  0
  2 11  2  0  0  0  0
  3 27  1  6  0  0  0
  3  8  1  0  0  0  0
  5  9  1  0  0  0  0
  6  7  1  0  0  0  0
  6 10  1  0  0  0  0
  7 12  1  0  0  0  0
  8 15  1  0  0  0  0
  9 11  1  0  0  0  0
 10  4  1  6  0  0  0
 10 13  1  0  0  0  0
 12 14  2  0  0  0  0
 13 22  1  6  0  0  0
 13  3  1  0  0  0  0
 14  5  1  0  0  0  0
 15  1  2  0  0  0  0
 17 19  2  0  0  0  0
 17 21  1  0  0  0  0
 18 16  1  0  0  0  0
 18 12  1  1  0  0  0
 19 18  1  0  0  0  0
 20 19  1  0  0  0  0
 21 16  2  0  0  0  0
 22 23  1  0  0  0  0
 23 24  1  0  0  0  0
 25 26  1  0  0  0  0
 26 22  1  0  0  0  0
 27 28  1  0  0  0  0
 28 29  1  0  0  0  0
 30 28  1  0  0  0  0
M  END
>  <MODEL>
1

>  <REMARK>
 VINA RESULT:      -6.0      0.000      0.000
  Name = 
  6 active torsions:
  status: ('A' for Active; 'I' for Inactive)
    1  A    between atoms: C_2  and  N_10
    2  A    between atoms: C_6  and  C_25
    3  A    between atoms: C_8  and  C_21
    4  A    between atoms: N_10  and  O_17
    5  A    between atoms: N_10  and  C_27
    6  A    between atoms: C_22  and  C_25
                            x       y       z     vdW  Elec       q    Type
                         _______ _______ _______ _____ _____    ______ ____

>  <TORSDO>
F 6

$$$$
=
 OpenBabel10232408223D

 30 31  0  0  1  0  0  0  0  0999 V2000
  184.8530  179.7910  139.5740 O   0  0  0  0  0  0  0  0  0  0  0  0
  186.3360  178.0710  139.0030 N   0  0  0  0  0  0  0  0  0  0  0  0
  183.9770  176.9470  137.5660 C   0  0  2  0  0  3  0  0  0  0  0  0
  184.6940  177.0290  134.6420 O   0  0  0  0  0  1  0  0  0  0  0  0
  189.4050  178.3240  138.4620 C   0  0  0  0  0  2  0  0  0  0  0  0
  186.9760  176.5050  135.0210 C   0  0  0  0  0  2  0  0  0  0  0  0
  188.1010  177.5340  134.8990 C   0  0  0  0  0  2  0  0  0  0  0  0
  184.1140  178.3030  137.9920 O   0  0  0  0  0  0  0  0  0  0  0  0
  188.6300  177.7850  139.6740 C   0  0  0  0  0  2  0  0  0  0  0  0
  185.6940  177.0920  135.6160 C   0  0  2  0  0  3  0  0  0  0  0  0
  187.2900  178.4550  139.7850 C   0  0  0  0  0  3  0  0  0  0  0  0
  188.9930  177.4930  136.1110 C   0  0  0  0  0  0  0  0  0  0  0  0
  185.2480  176.3490  136.9050 C   0  0  2  0  0  3  0  0  0  0  0  0
  188.6010  178.1890  137.1930 C   0  0  0  0  0  3  0  0  0  0  0  0
  185.0730  178.7410  138.9080 C   0  0  0  0  0  0  0  0  0  0  0  0
  190.8510  176.7480  134.6640 C   0  0  0  0  0  3  0  0  0  0  0  0
  190.7880  174.6230  135.4810 C   0  0  0  0  0  3  0  0  0  0  0  0
  190.3550  176.8350  136.0690 C   0  0  2  0  0  3  0  0  0  0  0  0
  190.3480  175.3910  136.4600 C   0  0  0  0  0  0  0  0  0  0  0  0
  190.0020  174.8740  137.8150 C   0  0  0  0  0  1  0  0  0  0  0  0
  191.1030  175.4840  134.3460 C   0  0  0  0  0  3  0  0  0  0  0  0
  185.1740  174.8840  136.7140 N   0  0  0  0  0  0  0  0  0  0  0  0
  186.3940  174.3070  137.2770 C   0  0  0  0  0  2  0  0  0  0  0  0
  186.9660  173.2720  136.3200 C   0  0  0  0  0  1  0  0  0  0  0  0
  183.6150  173.3360  136.6900 C   0  0  0  0  0  1  0  0  0  0  0  0
  184.1530  174.3750  137.4640 O   0  0  0  0  0  0  0  0  0  0  0  0
  182.7230  176.7890  136.7060 C   0  0  0  0  0  2  0  0  0  0  0  0
  181.8760  178.0500  136.7210 C   0  0  0  0  0  3  0  0  0  0  0  0
  180.6150  177.8380  137.5420 C   0  0  0  0  0  1  0  0  0  0  0  0
  181.4920  178.4180  135.3010 C   0  0  0  0  0  1  0  0  0  0  0  0
  2 11  2  0  0  0  0
  3 27  1  6  0  0  0
  3  8  1  0  0  0  0
  5  9  1  0  0  0  0
  6 10  1  0  0  0  0
  7  6  1  0  0  0  0
  7 12  1  0  0  0  0
  8 15  1  0  0  0  0
  9 11  1  0  0  0  0
 10  4  1  6  0  0  0
 10 13  1  0  0  0  0
 12 14  2  0  0  0  0
 13 22  1  6  0  0  0
 13  3  1  0  0  0  0
 14  5  1  0  0  0  0
 15  2  1  0  0  0  0
 15  1  2  0  0  0  0
 16 18  1  0  0  0  0
 17 19  2  0  0  0  0
 18 12  1  6  0  0  0
 18 19  1  0  0  0  0
 19 20  1  0  0  0  0
 21 16  2  0  0  0  0
 21 17  1  0  0  0  0
 22 23  1  0  0  0  0
 22 26  1  0  0  0  0
 24 23  1  0  0  0  0
 25 26  1  0  0  0  0
 27 28  1  0  0  0  0
 28 29  1  0  0  0  0
 30 28  1  0  0  0  0
M  END
>  <MODEL>
2

>  <REMARK>
 VINA RESULT:      -5.9      6.292     10.292
  Name = 
  6 active torsions:
  status: ('A' for Active; 'I' for Inactive)
    1  A    between atoms: C_2  and  N_10
    2  A    between atoms: C_6  and  C_25
    3  A    between atoms: C_8  and  C_21
    4  A    between atoms: N_10  and  O_17
    5  A    between atoms: N_10  and  C_27
    6  A    between atoms: C_22  and  C_25
                            x       y       z     vdW  Elec       q    Type
                         _______ _______ _______ _____ _____    ______ ____

>  <TORSDO>
F 6

$$$$
=
 OpenBabel10232408223D

 30 31  0  0  1  0  0  0  0  0999 V2000
  188.8180  172.3520  134.9790 O   0  0  0  0  0  0  0  0  0  0  0  0
  187.7690  173.5460  136.6980 N   0  0  0  0  0  0  0  0  0  0  0  0
  190.2010  175.2660  136.5550 C   0  0  2  0  0  3  0  0  0  0  0  0
  189.2370  177.9570  135.6050 O   0  0  0  0  0  1  0  0  0  0  0  0
  184.6990  173.9960  137.0860 C   0  0  0  0  0  2  0  0  0  0  0  0
  187.1990  177.8330  136.8140 C   0  0  0  0  0  2  0  0  0  0  0  0
  185.8470  177.5780  136.1480 C   0  0  0  0  0  2  0  0  0  0  0  0
  189.7670  174.3660  135.5360 O   0  0  0  0  0  0  0  0  0  0  0  0
  185.6860  173.0640  137.8050 C   0  0  0  0  0  2  0  0  0  0  0  0
  188.3410  177.0430  136.1680 C   0  0  2  0  0  3  0  0  0  0  0  0
  186.8200  172.6910  136.8920 C   0  0  0  0  0  3  0  0  0  0  0  0
  185.1020  176.4810  136.8630 C   0  0  0  0  0  0  0  0  0  0  0  0
  189.0680  176.1200  137.1840 C   0  0  2  0  0  3  0  0  0  0  0  0
  185.3980  175.2120  136.5320 C   0  0  0  0  0  3  0  0  0  0  0  0
  188.8110  173.3660  135.7320 C   0  0  0  0  0  0  0  0  0  0  0  0
  182.6670  176.8590  137.0350 C   0  0  0  0  0  3  0  0  0  0  0  0
  182.9350  178.8640  138.0820 C   0  0  0  0  0  3  0  0  0  0  0  0
  183.9490  176.7860  137.7940 C   0  0  2  0  0  3  0  0  0  0  0  0
  184.0000  178.1520  138.4020 C   0  0  0  0  0  0  0  0  0  0  0  0
  185.0520  178.6310  139.3440 C   0  0  0  0  0  1  0  0  0  0  0  0
  182.0960  178.0440  137.2160 C   0  0  0  0  0  3  0  0  0  0  0  0
  189.4900  176.8450  138.4030 N   0  0  0  0  0  0  0  0  0  0  0  0
  188.2950  177.0580  139.2200 C   0  0  0  0  0  2  0  0  0  0  0  0
  188.4740  178.2970  140.0840 C   0  0  0  0  0  1  0  0  0  0  0  0
  191.3420  176.8860  139.5830 C   0  0  0  0  0  1  0  0  0  0  0  0
  190.3030  176.0460  139.1520 O   0  0  0  0  0  0  0  0  0  0  0  0
  191.3760  176.1050  136.0510 C   0  0  0  0  0  2  0  0  0  0  0  0
  192.6630  175.2990  136.0230 C   0  0  0  0  0  3  0  0  0  0  0  0
  192.7580  174.3980  137.2420 C   0  0  0  0  0  1  0  0  0  0  0  0
  193.8500  176.2440  136.0050 C   0  0  0  0  0  1  0  0  0  0  0  0
  1 15  2  0  0  0  0
  2 11  2  0  0  0  0
  3 27  1  6  0  0  0
  3 13  1  0  0  0  0
  5  9  1  0  0  0  0
  7  6  1  0  0  0  0
  7 12  1  0  0  0  0
  8 15  1  0  0  0  0
  8  3  1  0  0  0  0
 10  4  1  1  0  0  0
 10  6  1  0  0  0  0
 10 13  1  0  0  0  0
 11  9  1  0  0  0  0
 13 22  1  1  0  0  0
 14 12  2  0  0  0  0
 14  5  1  0  0  0  0
 15  2  1  0  0  0  0
 16 21  2  0  0  0  0
 16 18  1  0  0  0  0
 17 19  2  0  0  0  0
 18 12  1  6  0  0  0
 18 19  1  0  0  0  0
 19 20  1  0  0  0  0
 21 17  1  0  0  0  0
 22 26  1  0  0  0  0
 22 23  1  0  0  0  0
 23 24  1  0  0  0  0
 26 25  1  0  0  0  0
 28 27  1  0  0  0  0
 28 29  1  0  0  0  0
 30 28  1  0  0  0  0
M  END
>  <MODEL>
3

>  <REMARK>
 VINA RESULT:      -5.6      5.713      8.413
  Name = 
  6 active torsions:
  status: ('A' for Active; 'I' for Inactive)
    1  A    between atoms: C_2  and  N_10
    2  A    between atoms: C_6  and  C_25
    3  A    between atoms: C_8  and  C_21
    4  A    between atoms: N_10  and  O_17
    5  A    between atoms: N_10  and  C_27
    6  A    between atoms: C_22  and  C_25
                            x       y       z     vdW  Elec       q    Type
                         _______ _______ _______ _____ _____    ______ ____

>  <TORSDO>
F 6

$$$$
=
 OpenBabel10232408223D

 30 31  0  0  1  0  0  0  0  0999 V2000
  188.4660  172.1890  136.2560 O   0  0  0  0  0  0  0  0  0  0  0  0
  186.7770  173.6460  136.9690 N   0  0  0  0  0  0  0  0  0  0  0  0
  188.9700  175.6670  136.9890 C   0  0  2  0  0  3  0  0  0  0  0  0
  188.2520  177.6620  134.8480 O   0  0  0  0  0  1  0  0  0  0  0  0
  183.7600  173.5880  136.1500 C   0  0  0  0  0  2  0  0  0  0  0  0
  185.9240  177.5410  135.2910 C   0  0  0  0  0  2  0  0  0  0  0  0
  184.9360  176.8250  134.3700 C   0  0  0  0  0  2  0  0  0  0  0  0
  189.0050  174.4190  136.2960 O   0  0  0  0  0  0  0  0  0  0  0  0
  184.4690  173.1500  137.4410 C   0  0  0  0  0  2  0  0  0  0  0  0
  187.2730  176.8240  135.3900 C   0  0  2  0  0  3  0  0  0  0  0  0
  185.8830  172.7310  137.1510 C   0  0  0  0  0  3  0  0  0  0  0  0
  184.0530  175.8950  135.1600 C   0  0  0  0  0  0  0  0  0  0  0  0
  187.6300  176.4400  136.8520 C   0  0  2  0  0  3  0  0  0  0  0  0
  184.5330  174.6710  135.4400 C   0  0  0  0  0  3  0  0  0  0  0  0
  188.1130  173.3700  136.5310 C   0  0  0  0  0  0  0  0  0  0  0  0
  182.0970  177.2600  134.5160 C   0  0  0  0  0  3  0  0  0  0  0  0
  181.9070  178.1770  136.5920 C   0  0  0  0  0  3  0  0  0  0  0  0
  182.6190  176.2530  135.4860 C   0  0  2  0  0  3  0  0  0  0  0  0
  182.4520  176.9880  136.7790 C   0  0  0  0  0  0  0  0  0  0  0  0
  182.7500  176.4260  138.1270 C   0  0  0  0  0  1  0  0  0  0  0  0
  181.6860  178.3460  135.1610 C   0  0  0  0  0  3  0  0  0  0  0  0
  187.5210  177.5880  137.7790 N   0  0  0  0  0  0  0  0  0  0  0  0
  186.2440  177.4630  138.4810 C   0  0  0  0  0  2  0  0  0  0  0  0
  185.5000  178.7890  138.4410 C   0  0  0  0  0  1  0  0  0  0  0  0
  188.9820  178.7880  138.8970 C   0  0  0  0  0  1  0  0  0  0  0  0
  188.4780  177.4880  138.7470 O   0  0  0  0  0  0  0  0  0  0  0  0
  190.1900  176.5100  136.6150 C   0  0  0  0  0  2  0  0  0  0  0  0
  191.4850  175.8130  136.9960 C   0  0  0  0  0  3  0  0  0  0  0  0
  192.1650  176.5380  138.1450 C   0  0  0  0  0  1  0  0  0  0  0  0
  192.4150  175.7880  135.7980 C   0  0  0  0  0  1  0  0  0  0  0  0
  1 15  2  0  0  0  0
  2 11  2  0  0  0  0
  3 27  1  6  0  0  0
  5  9  1  0  0  0  0
  6 10  1  0  0  0  0
  7 12  1  0  0  0  0
  7  6  1  0  0  0  0
  8 15  1  0  0  0  0
  8  3  1  0  0  0  0
 10  4  1  1  0  0  0
 10 13  1  0  0  0  0
 11  9  1  0  0  0  0
 12 14  2  0  0  0  0
 13  3  1  0  0  0  0
 13 22  1  1  0  0  0
 14  5  1  0  0  0  0
 15  2  1  0  0  0  0
 16 21  2  0  0  0  0
 16 18  1  0  0  0  0
 17 19  2  0  0  0  0
 18 12  1  6  0  0  0
 18 19  1  0  0  0  0
 19 20  1  0  0  0  0
 21 17  1  0  0  0  0
 22 23  1  0  0  0  0
 22 26  1  0  0  0  0
 24 23  1  0  0  0  0
 26 25  1  0  0  0  0
 27 28  1  0  0  0  0
 28 29  1  0  0  0  0
 30 28  1  0  0  0  0
M  END
>  <MODEL>
4

>  <REMARK>
 VINA RESULT:      -5.5      6.624      8.984
  Name = 
  6 active torsions:
  status: ('A' for Active; 'I' for Inactive)
    1  A    between atoms: C_2  and  N_10
    2  A    between atoms: C_6  and  C_25
    3  A    between atoms: C_8  and  C_21
    4  A    between atoms: N_10  and  O_17
    5  A    between atoms: N_10  and  C_27
    6  A    between atoms: C_22  and  C_25
                            x       y       z     vdW  Elec       q    Type
                         _______ _______ _______ _____ _____    ______ ____

>  <TORSDO>
F 6

$$$$
=
 OpenBabel10232408223D

 30 31  0  0  1  0  0  0  0  0999 V2000
  183.9900  180.4740  138.8390 O   0  0  0  0  0  0  0  0  0  0  0  0
  184.8910  178.6210  139.9520 N   0  0  0  0  0  0  0  0  0  0  0  0
  186.5250  178.3290  137.4750 C   0  0  2  0  0  3  0  0  0  0  0  0
  189.3740  178.8220  138.3220 O   0  0  0  0  0  1  0  0  0  0  0  0
  185.3650  178.3090  143.0270 C   0  0  0  0  0  2  0  0  0  0  0  0
  189.1030  177.7560  140.4240 C   0  0  0  0  0  2  0  0  0  0  0  0
  189.0170  178.5240  141.7440 C   0  0  0  0  0  2  0  0  0  0  0  0
  185.8390  179.5160  137.8750 O   0  0  0  0  0  0  0  0  0  0  0  0
  184.2860  177.7240  142.1030 C   0  0  0  0  0  2  0  0  0  0  0  0
  188.4050  178.4780  139.2690 C   0  0  2  0  0  3  0  0  0  0  0  0
  184.0460  178.6320  140.9300 C   0  0  0  0  0  3  0  0  0  0  0  0
  187.8350  178.0580  142.5530 C   0  0  0  0  0  0  0  0  0  0  0  0
  187.2900  177.6120  138.6210 C   0  0  2  0  0  3  0  0  0  0  0  0
  186.6370  178.5980  142.2690 C   0  0  0  0  0  3  0  0  0  0  0  0
  184.8520  179.5510  138.8630 C   0  0  0  0  0  0  0  0  0  0  0  0
  187.7370  177.8830  145.0160 C   0  0  0  0  0  3  0  0  0  0  0  0
  189.8580  177.0660  145.1570 C   0  0  0  0  0  3  0  0  0  0  0  0
  188.0050  177.1440  143.7470 C   0  0  2  0  0  3  0  0  0  0  0  0
  189.4130  176.6900  143.9730 C   0  0  0  0  0  0  0  0  0  0  0  0
  190.1920  175.8240  143.0420 C   0  0  0  0  0  1  0  0  0  0  0  0
  188.7980  177.8230  145.8120 C   0  0  0  0  0  3  0  0  0  0  0  0
  187.7700  176.2630  138.2480 N   0  0  0  0  0  0  0  0  0  0  0  0
  187.0460  175.8600  137.0430 C   0  0  0  0  0  2  0  0  0  0  0  0
  186.1500  174.6700  137.3520 C   0  0  0  0  0  1  0  0  0  0  0  0
  189.4660  174.9980  137.6580 C   0  0  0  0  0  1  0  0  0  0  0  0
  189.0810  176.3300  137.8770 O   0  0  0  0  0  0  0  0  0  0  0  0
  187.4020  178.6140  136.2550 C   0  0  0  0  0  2  0  0  0  0  0  0
  186.7250  178.1730  134.9690 C   0  0  0  0  0  3  0  0  0  0  0  0
  185.3070  177.7040  135.2440 C   0  0  0  0  0  1  0  0  0  0  0  0
  187.5160  177.0380  134.3460 C   0  0  0  0  0  1  0  0  0  0  0  0
  1 15  2  0  0  0  0
  2 11  2  0  0  0  0
  3 27  1  6  0  0  0
  3  8  1  0  0  0  0
  3 13  1  0  0  0  0
  6  7  1  0  0  0  0
  7 12  1  0  0  0  0
  8 15  1  0  0  0  0
  9  5  1  0  0  0  0
 10  4  1  6  0  0  0
 10  6  1  0  0  0  0
 11  9  1  0  0  0  0
 13 22  1  6  0  0  0
 13 10  1  0  0  0  0
 14 12  2  0  0  0  0
 14  5  1  0  0  0  0
 15  2  1  0  0  0  0
 16 21  2  0  0  0  0
 17 21  1  0  0  0  0
 18 12  1  6  0  0  0
 18 19  1  0  0  0  0
 18 16  1  0  0  0  0
 19 17  2  0  0  0  0
 20 19  1  0  0  0  0
 23 24  1  0  0  0  0
 23 22  1  0  0  0  0
 25 26  1  0  0  0  0
 26 22  1  0  0  0  0
 28 29  1  0  0  0  0
 28 27  1  0  0  0  0
 30 28  1  0  0  0  0
M  END
>  <MODEL>
5

>  <REMARK>
 VINA RESULT:      -5.4      4.286      7.795
  Name = 
  6 active torsions:
  status: ('A' for Active; 'I' for Inactive)
    1  A    between atoms: C_2  and  N_10
    2  A    between atoms: C_6  and  C_25
    3  A    between atoms: C_8  and  C_21
    4  A    between atoms: N_10  and  O_17
    5  A    between atoms: N_10  and  C_27
    6  A    between atoms: C_22  and  C_25
                            x       y       z     vdW  Elec       q    Type
                         _______ _______ _______ _____ _____    ______ ____

>  <TORSDO>
F 6

$$$$
=
 OpenBabel10232408223D

 30 31  0  0  1  0  0  0  0  0999 V2000
  187.4740  178.4590  139.7490 O   0  0  0  0  0  0  0  0  0  0  0  0
  186.1360  177.6530  138.0040 N   0  0  0  0  0  0  0  0  0  0  0  0
  188.6490  176.3130  137.1220 C   0  0  2  0  0  3  0  0  0  0  0  0
  188.1310  173.3580  137.3970 O   0  0  0  0  0  1  0  0  0  0  0  0
  183.1010  176.9110  138.1360 C   0  0  0  0  0  2  0  0  0  0  0  0
  185.8620  173.5300  136.7250 C   0  0  0  0  0  2  0  0  0  0  0  0
  184.6910  173.4030  137.6990 C   0  0  0  0  0  2  0  0  0  0  0  0
  188.4050  176.8270  138.4320 O   0  0  0  0  0  0  0  0  0  0  0  0
  183.8220  178.1330  137.5450 C   0  0  0  0  0  2  0  0  0  0  0  0
  187.0650  174.2590  137.3300 C   0  0  2  0  0  3  0  0  0  0  0  0
  185.1100  178.3910  138.2740 C   0  0  0  0  0  3  0  0  0  0  0  0
  183.7220  174.5410  137.5160 C   0  0  0  0  0  0  0  0  0  0  0  0
  187.4630  175.5180  136.5120 C   0  0  2  0  0  3  0  0  0  0  0  0
  183.9970  175.6970  138.1440 C   0  0  0  0  0  3  0  0  0  0  0  0
  187.3610  177.7010  138.7450 C   0  0  0  0  0  0  0  0  0  0  0  0
  181.9180  172.9490  136.9530 C   0  0  0  0  0  3  0  0  0  0  0  0
  182.1220  173.3310  134.7170 C   0  0  0  0  0  3  0  0  0  0  0  0
  182.4070  174.3510  136.7920 C   0  0  2  0  0  3  0  0  0  0  0  0
  182.5090  174.4490  135.3030 C   0  0  0  0  0  0  0  0  0  0  0  0
  182.8870  175.6800  134.5510 C   0  0  0  0  0  1  0  0  0  0  0  0
  181.7520  172.3850  135.7620 C   0  0  0  0  0  3  0  0  0  0  0  0
  187.6360  175.2230  135.0730 N   0  0  0  0  0  0  0  0  0  0  0  0
  187.4990  176.4870  134.3490 C   0  0  0  0  0  2  0  0  0  0  0  0
  186.1130  177.0680  134.5830 C   0  0  0  0  0  1  0  0  0  0  0  0
  188.7930  173.5030  134.3460 C   0  0  0  0  0  1  0  0  0  0  0  0
  188.9160  174.8100  134.8410 O   0  0  0  0  0  0  0  0  0  0  0  0
  189.9670  175.5360  137.1000 C   0  0  0  0  0  2  0  0  0  0  0  0
  191.1630  176.4680  137.1870 C   0  0  0  0  0  3  0  0  0  0  0  0
  192.2120  176.0920  136.1550 C   0  0  0  0  0  1  0  0  0  0  0  0
  191.7710  176.3800  138.5740 C   0  0  0  0  0  1  0  0  0  0  0  0
  2 11  2  0  0  0  0
  2 15  1  0  0  0  0
  3 27  1  1  0  0  0
  3  8  1  0  0  0  0
  5 14  1  0  0  0  0
  6 10  1  0  0  0  0
  6  7  1  0  0  0  0
  8 15  1  0  0  0  0
  9  5  1  0  0  0  0
  9 11  1  0  0  0  0
 10  4  1  6  0  0  0
 12  7  1  0  0  0  0
 12 14  2  0  0  0  0
 13 22  1  6  0  0  0
 13  3  1  0  0  0  0
 13 10  1  0  0  0  0
 15  1  2  0  0  0  0
 17 19  2  0  0  0  0
 17 21  1  0  0  0  0
 18 16  1  0  0  0  0
 18 12  1  1  0  0  0
 19 18  1  0  0  0  0
 20 19  1  0  0  0  0
 21 16  2  0  0  0  0
 23 24  1  0  0  0  0
 23 22  1  0  0  0  0
 25 26  1  0  0  0  0
 26 22  1  0  0  0  0
 27 28  1  0  0  0  0
 28 30  1  0  0  0  0
 29 28  1  0  0  0  0
M  END
>  <MODEL>
6

>  <REMARK>
 VINA RESULT:      -5.3      6.563      8.756
  Name = 
  6 active torsions:
  status: ('A' for Active; 'I' for Inactive)
    1  A    between atoms: C_2  and  N_10
    2  A    between atoms: C_6  and  C_25
    3  A    between atoms: C_8  and  C_21
    4  A    between atoms: N_10  and  O_17
    5  A    between atoms: N_10  and  C_27
    6  A    between atoms: C_22  and  C_25
                            x       y       z     vdW  Elec       q    Type
                         _______ _______ _______ _____ _____    ______ ____

>  <TORSDO>
F 6

$$$$
=
 OpenBabel10232408223D

 30 31  0  0  1  0  0  0  0  0999 V2000
  184.5220  180.1640  139.2700 O   0  0  0  0  0  0  0  0  0  0  0  0
  185.8080  178.2090  139.3840 N   0  0  0  0  0  0  0  0  0  0  0  0
  184.0480  177.3020  137.1540 C   0  0  2  0  0  3  0  0  0  0  0  0
  185.8530  177.0230  134.7590 O   0  0  0  0  0  1  0  0  0  0  0  0
  188.8410  177.9820  140.1090 C   0  0  0  0  0  2  0  0  0  0  0  0
  187.6870  176.2210  136.0330 C   0  0  0  0  0  2  0  0  0  0  0  0
  188.9210  177.0670  136.3430 C   0  0  0  0  0  2  0  0  0  0  0  0
  184.2280  178.6590  137.5630 O   0  0  0  0  0  0  0  0  0  0  0  0
  187.5770  177.6660  140.9240 C   0  0  0  0  0  2  0  0  0  0  0  0
  186.3880  177.0320  136.0500 C   0  0  2  0  0  3  0  0  0  0  0  0
  186.4290  178.5250  140.4720 C   0  0  0  0  0  3  0  0  0  0  0  0
  189.2490  177.0100  137.8120 C   0  0  0  0  0  0  0  0  0  0  0  0
  185.3600  176.4760  137.0730 C   0  0  2  0  0  3  0  0  0  0  0  0
  188.5860  177.8480  138.6290 C   0  0  0  0  0  3  0  0  0  0  0  0
  184.8100  179.0380  138.7750 C   0  0  0  0  0  0  0  0  0  0  0  0
  191.6380  176.9810  138.4400 C   0  0  0  0  0  3  0  0  0  0  0  0
  192.1000  175.2320  137.0560 C   0  0  0  0  0  3  0  0  0  0  0  0
  190.3920  176.1670  138.3350 C   0  0  2  0  0  3  0  0  0  0  0  0
  190.8330  175.0870  137.3990 C   0  0  0  0  0  0  0  0  0  0  0  0
  190.0000  173.9230  136.9820 C   0  0  0  0  0  1  0  0  0  0  0  0
  192.6050  176.4320  137.7140 C   0  0  0  0  0  3  0  0  0  0  0  0
  185.1270  175.0250  136.9060 N   0  0  0  0  0  0  0  0  0  0  0  0
  186.3390  174.3350  137.3460 C   0  0  0  0  0  2  0  0  0  0  0  0
  186.3740  172.9290  136.7650 C   0  0  0  0  0  1  0  0  0  0  0  0
  183.2660  173.8600  136.9750 C   0  0  0  0  0  1  0  0  0  0  0  0
  184.1460  174.6160  137.7630 O   0  0  0  0  0  0  0  0  0  0  0  0
  183.2220  177.2450  135.8680 C   0  0  0  0  0  2  0  0  0  0  0  0
  181.8880  177.9540  136.0330 C   0  0  0  0  0  3  0  0  0  0  0  0
  180.9400  177.1220  136.8800 C   0  0  0  0  0  1  0  0  0  0  0  0
  181.2680  178.1840  134.6670 C   0  0  0  0  0  1  0  0  0  0  0  0
  2 11  2  0  0  0  0
  3 27  1  6  0  0  0
  3  8  1  0  0  0  0
  5  9  1  0  0  0  0
  6 10  1  0  0  0  0
  6  7  1  0  0  0  0
  7 12  1  0  0  0  0
  8 15  1  0  0  0  0
 10  4  1  6  0  0  0
 10 13  1  0  0  0  0
 11  9  1  0  0  0  0
 12 14  2  0  0  0  0
 13 22  1  6  0  0  0
 13  3  1  0  0  0  0
 14  5  1  0  0  0  0
 15  1  2  0  0  0  0
 15  2  1  0  0  0  0
 17 19  2  0  0  0  0
 17 21  1  0  0  0  0
 18 12  1  6  0  0  0
 18 16  1  0  0  0  0
 19 18  1  0  0  0  0
 20 19  1  0  0  0  0
 21 16  2  0  0  0  0
 22 23  1  0  0  0  0
 22 26  1  0  0  0  0
 24 23  1  0  0  0  0
 25 26  1  0  0  0  0
 27 28  1  0  0  0  0
 28 29  1  0  0  0  0
 30 28  1  0  0  0  0
M  END
>  <MODEL>
7

>  <REMARK>
 VINA RESULT:      -5.1      5.919     10.001
  Name = 
  6 active torsions:
  status: ('A' for Active; 'I' for Inactive)
    1  A    between atoms: C_2  and  N_10
    2  A    between atoms: C_6  and  C_25
    3  A    between atoms: C_8  and  C_21
    4  A    between atoms: N_10  and  O_17
    5  A    between atoms: N_10  and  C_27
    6  A    between atoms: C_22  and  C_25
                            x       y       z     vdW  Elec       q    Type
                         _______ _______ _______ _____ _____    ______ ____

>  <TORSDO>
F 6

$$$$
=
 OpenBabel10232408223D

 30 31  0  0  1  0  0  0  0  0999 V2000
  182.4430  179.9070  139.1990 O   0  0  0  0  0  0  0  0  0  0  0  0
  183.9450  178.2440  139.8820 N   0  0  0  0  0  0  0  0  0  0  0  0
  183.8780  177.4530  137.0070 C   0  0  2  0  0  3  0  0  0  0  0  0
  186.6540  177.9710  135.9590 O   0  0  0  0  0  1  0  0  0  0  0  0
  186.1180  178.4620  142.1190 C   0  0  0  0  0  2  0  0  0  0  0  0
  187.7130  177.3060  137.9760 C   0  0  0  0  0  2  0  0  0  0  0  0
  188.3470  178.2970  138.9520 C   0  0  0  0  0  2  0  0  0  0  0  0
  183.4650  178.7190  137.5240 O   0  0  0  0  0  0  0  0  0  0  0  0
  184.7480  177.7680  142.1000 C   0  0  0  0  0  2  0  0  0  0  0  0
  186.4300  177.8400  137.3330 C   0  0  2  0  0  3  0  0  0  0  0  0
  183.8150  178.4630  141.1480 C   0  0  0  0  0  3  0  0  0  0  0  0
  187.8790  178.0310  140.3580 C   0  0  0  0  0  0  0  0  0  0  0  0
  185.2090  176.9190  137.6030 C   0  0  2  0  0  3  0  0  0  0  0  0
  186.7010  178.5610  140.7310 C   0  0  0  0  0  3  0  0  0  0  0  0
  183.2240  178.9690  138.8770 C   0  0  0  0  0  0  0  0  0  0  0  0
  188.9130  178.1690  142.5980 C   0  0  0  0  0  3  0  0  0  0  0  0
  191.0090  177.8180  141.7800 C   0  0  0  0  0  3  0  0  0  0  0  0
  188.7660  177.3360  141.3680 C   0  0  2  0  0  3  0  0  0  0  0  0
  190.1940  177.2060  140.9400 C   0  0  0  0  0  0  0  0  0  0  0  0
  190.6690  176.3980  139.7800 C   0  0  0  0  0  1  0  0  0  0  0  0
  190.1950  178.4280  142.8250 C   0  0  0  0  0  3  0  0  0  0  0  0
  185.4800  175.5070  137.2550 N   0  0  0  0  0  0  0  0  0  0  0  0
  184.3400  174.7170  137.7190 C   0  0  0  0  0  2  0  0  0  0  0  0
  184.7330  173.2510  137.8150 C   0  0  0  0  0  1  0  0  0  0  0  0
  186.6480  174.6200  135.6200 C   0  0  0  0  0  1  0  0  0  0  0  0
  185.4920  175.3640  135.8970 O   0  0  0  0  0  0  0  0  0  0  0  0
  183.8740  177.4820  135.4780 C   0  0  0  0  0  2  0  0  0  0  0  0
  182.4960  177.1700  134.9200 C   0  0  0  0  0  3  0  0  0  0  0  0
  181.7200  178.4500  134.6620 C   0  0  0  0  0  1  0  0  0  0  0  0
  181.7320  176.3130  135.9120 C   0  0  0  0  0  1  0  0  0  0  0  0
  2 11  2  0  0  0  0
  3 27  1  6  0  0  0
  3  8  1  0  0  0  0
  3 13  1  0  0  0  0
  6  7  1  0  0  0  0
  7 12  1  0  0  0  0
  8 15  1  0  0  0  0
  9  5  1  0  0  0  0
 10  4  1  6  0  0  0
 10 13  1  0  0  0  0
 10  6  1  0  0  0  0
 11  9  1  0  0  0  0
 12 14  2  0  0  0  0
 13 22  1  6  0  0  0
 14  5  1  0  0  0  0
 15  1  2  0  0  0  0
 15  2  1  0  0  0  0
 16 21  2  0  0  0  0
 17 21  1  0  0  0  0
 18 12  1  6  0  0  0
 18 16  1  0  0  0  0
 19 18  1  0  0  0  0
 19 17  2  0  0  0  0
 20 19  1  0  0  0  0
 22 23  1  0  0  0  0
 23 24  1  0  0  0  0
 25 26  1  0  0  0  0
 26 22  1  0  0  0  0
 28 27  1  0  0  0  0
 28 30  1  0  0  0  0
 29 28  1  0  0  0  0
M  END
>  <MODEL>
8

>  <REMARK>
 VINA RESULT:      -5.0      5.185      9.147
  Name = 
  6 active torsions:
  status: ('A' for Active; 'I' for Inactive)
    1  A    between atoms: C_2  and  N_10
    2  A    between atoms: C_6  and  C_25
    3  A    between atoms: C_8  and  C_21
    4  A    between atoms: N_10  and  O_17
    5  A    between atoms: N_10  and  C_27
    6  A    between atoms: C_22  and  C_25
                            x       y       z     vdW  Elec       q    Type
                         _______ _______ _______ _____ _____    ______ ____

>  <TORSDO>
F 6

$$$$
=
 OpenBabel10232408223D

 30 31  0  0  1  0  0  0  0  0999 V2000
  188.2110  178.8850  139.9490 O   0  0  0  0  0  0  0  0  0  0  0  0
  188.7920  176.9500  138.7640 N   0  0  0  0  0  0  0  0  0  0  0  0
  186.0140  177.1540  137.6980 C   0  0  2  0  0  3  0  0  0  0  0  0
  186.3150  177.7090  134.7520 O   0  0  0  0  0  1  0  0  0  0  0  0
  191.6050  176.2060  137.6210 C   0  0  0  0  0  2  0  0  0  0  0  0
  188.2240  176.3190  134.5220 C   0  0  0  0  0  2  0  0  0  0  0  0
  189.6400  176.8680  134.3460 C   0  0  0  0  0  2  0  0  0  0  0  0
  186.7370  178.2150  138.3230 O   0  0  0  0  0  0  0  0  0  0  0  0
  190.8440  175.6960  138.8540 C   0  0  0  0  0  2  0  0  0  0  0  0
  187.3740  177.1580  135.4800 C   0  0  2  0  0  3  0  0  0  0  0  0
  189.9130  176.7530  139.3760 C   0  0  0  0  0  3  0  0  0  0  0  0
  190.5910  176.2030  135.3060 C   0  0  0  0  0  0  0  0  0  0  0  0
  186.8410  176.3260  136.6780 C   0  0  2  0  0  3  0  0  0  0  0  0
  190.6560  176.6960  136.5550 C   0  0  0  0  0  3  0  0  0  0  0  0
  187.9030  178.0310  139.0710 C   0  0  0  0  0  0  0  0  0  0  0  0
  191.3170  173.8580  135.5890 C   0  0  0  0  0  3  0  0  0  0  0  0
  193.4820  174.4540  135.9720 C   0  0  0  0  0  3  0  0  0  0  0  0
  191.5560  175.1320  134.8480 C   0  0  2  0  0  3  0  0  0  0  0  0
  192.9840  175.4050  135.2020 C   0  0  0  0  0  0  0  0  0  0  0  0
  193.7950  176.5390  134.6720 C   0  0  0  0  0  1  0  0  0  0  0  0
  192.4250  173.4800  136.2160 C   0  0  0  0  0  3  0  0  0  0  0  0
  186.1600  175.0860  136.2440 N   0  0  0  0  0  0  0  0  0  0  0  0
  186.5820  174.0170  137.1490 C   0  0  0  0  0  2  0  0  0  0  0  0
  188.0690  173.7470  136.9720 C   0  0  0  0  0  1  0  0  0  0  0  0
  184.3870  173.9450  136.8600 C   0  0  0  0  0  1  0  0  0  0  0  0
  184.8150  175.2110  136.4340 O   0  0  0  0  0  0  0  0  0  0  0  0
  184.7010  177.6820  137.1180 C   0  0  0  0  0  2  0  0  0  0  0  0
  183.7330  178.0900  138.2160 C   0  0  0  0  0  3  0  0  0  0  0  0
  183.4910  176.9360  139.1730 C   0  0  0  0  0  1  0  0  0  0  0  0
  182.4140  178.5100  137.5950 C   0  0  0  0  0  1  0  0  0  0  0  0
  2 15  1  0  0  0  0
  2 11  2  0  0  0  0
  3 27  1  6  0  0  0
  3  8  1  0  0  0  0
  5  9  1  0  0  0  0
  6 10  1  0  0  0  0
  7  6  1  0  0  0  0
  7 12  1  0  0  0  0
  8 15  1  0  0  0  0
  9 11  1  0  0  0  0
 10  4  1  6  0  0  0
 10 13  1  0  0  0  0
 12 14  2  0  0  0  0
 13 22  1  6  0  0  0
 13  3  1  0  0  0  0
 14  5  1  0  0  0  0
 15  1  2  0  0  0  0
 16 21  2  0  0  0  0
 17 21  1  0  0  0  0
 18 19  1  0  0  0  0
 18 12  1  1  0  0  0
 18 16  1  0  0  0  0
 19 17  2  0  0  0  0
 20 19  1  0  0  0  0
 22 26  1  0  0  0  0
 22 23  1  0  0  0  0
 24 23  1  0  0  0  0
 26 25  1  0  0  0  0
 27 28  1  0  0  0  0
 28 29  1  0  0  0  0
 30 28  1  0  0  0  0
M  END
>  <MODEL>
9

>  <REMARK>
 VINA RESULT:      -4.6      6.092     10.321
  Name = 
  6 active torsions:
  status: ('A' for Active; 'I' for Inactive)
    1  A    between atoms: C_2  and  N_10
    2  A    between atoms: C_6  and  C_25
    3  A    between atoms: C_8  and  C_21
    4  A    between atoms: N_10  and  O_17
    5  A    between atoms: N_10  and  C_27
    6  A    between atoms: C_22  and  C_25
                            x       y       z     vdW  Elec       q    Type
                         _______ _______ _______ _____ _____    ______ ____

>  <TORSDO>
F 6

$$$$
