=
 OpenBabel10232409143D

 57 60  0  0  1  0  0  0  0  0999 V2000
  183.5120  178.7970  143.0390 C   0  0  0  0  0  3  0  0  0  0  0  0
  183.3690  178.3440  141.7940 C   0  0  0  0  0  0  0  0  0  0  0  0
  184.7430  178.6100  143.8090 C   0  0  0  0  0  3  0  0  0  0  0  0
  184.8750  179.1070  145.0250 C   0  0  0  0  0  3  0  0  0  0  0  0
  187.2440  178.1620  148.0340 S   0  0  0  0  0  0  0  0  0  0  0  0
  186.1370  178.8660  145.7780 C   0  0  2  0  0  3  0  0  0  0  0  0
  186.6730  177.4850  145.5130 C   0  0  0  0  0  2  0  0  0  0  0  0
  187.7730  177.2890  146.5250 C   0  0  1  0  0  3  0  0  0  0  0  0
  185.9220  179.0000  147.2060 N   0  0  0  0  0  2  0  0  0  0  0  0
  188.9950  177.9010  146.0330 N   0  0  0  0  0  2  0  0  0  0  0  0
  189.9290  176.8310  145.7270 C   0  0  2  0  0  3  0  0  0  0  0  0
  190.9140  176.7100  146.8460 C   0  0  0  0  0  0  0  0  0  0  0  0
  190.7800  177.4870  147.9960 O   0  0  0  0  0  1  0  0  0  0  0  0
  191.8220  175.8430  146.7790 O   0  0  0  0  0  0  0  0  0  0  0  0
  190.6270  177.1180  144.3890 C   0  0  1  0  0  3  0  0  0  0  0  0
  190.9430  175.8330  143.6210 C   0  0  0  0  0  2  0  0  0  0  0  0
  190.1710  175.7510  142.4600 O   0  0  0  0  0  1  0  0  0  0  0  0
  189.8300  177.9580  143.5990 O   0  0  0  0  0  0  0  0  0  0  0  0
  190.4530  179.2040  143.6560 C   0  0  0  0  0  2  0  0  0  0  0  0
  191.9130  179.0270  144.0260 C   0  0  0  0  0  1  0  0  0  0  0  0
  182.0820  178.4620  141.1720 N   0  0  0  0  0  2  0  0  0  0  0  0
  181.3360  179.7110  141.0410 C   0  0  2  0  0  3  0  0  0  0  0  0
  179.9820  179.5860  141.6990 C   0  0  0  0  0  1  0  0  0  0  0  0
  181.0720  179.1330  138.5980 C   0  0  0  0  0  0  0  0  0  0  0  0
  180.8790  177.0990  137.6840 N   0  0  0  0  0  0  0  0  0  0  0  0
  180.6030  177.8490  136.4770 C   0  0  0  0  0  2  0  0  0  0  0  0
  181.1760  180.0940  139.6490 N   0  0  0  0  0  2  0  0  0  0  0  0
  180.7590  179.6180  136.9100 S   0  0  0  0  0  0  0  0  0  0  0  0
  181.1010  177.8690  138.8220 N   0  0  0  0  0  0  0  0  0  0  0  0
  180.8500  175.6460  137.7350 C   0  0  0  0  0  2  0  0  0  0  0  0
  181.4410  175.0780  136.4890 C   0  0  0  0  0  0  0  0  0  0  0  0
  182.6730  175.2040  136.2610 O   0  0  0  0  0  1  0  0  0  0  0  0
  180.6250  174.4400  135.5630 O   0  0  0  0  0  0  0  0  0  0  0  0
  184.4990  177.6460  141.0860 C   0  0  0  0  0  2  0  0  0  0  0  0
  185.4610  178.7800  140.0830 S   0  0  0  0  0  0  0  0  0  0  0  0
  184.6070  179.9640  139.7430 O   0  0  0  0  0  0  0  0  0  0  0  0
  186.6520  179.2450  140.8660 O   0  0  0  0  0  0  0  0  0  0  0  0
  185.1760  177.8120  137.5250 C   0  0  0  0  0  3  0  0  0  0  0  0
  186.0420  178.0610  138.5920 C   0  0  0  0  0  0  0  0  0  0  0  0
  187.9070  177.2230  137.2690 C   0  0  0  0  0  0  0  0  0  0  0  0
  187.0250  176.9400  136.2140 C   0  0  0  0  0  0  0  0  0  0  0  0
  187.5990  176.2440  134.7070 Cl  0  0  0  0  0  0  0  0  0  0  0  0
  185.6650  177.2470  136.3420 C   0  0  0  0  0  3  0  0  0  0  0  0
  187.4040  177.7820  138.4540 C   0  0  0  0  0  3  0  0  0  0  0  0
  189.3090  176.9600  137.1270 N   0  0  0  0  0  2  0  0  0  0  0  0
  189.9980  175.9460  137.9180 C   0  0  0  0  0  2  0  0  0  0  0  0
  190.5400  173.9520  136.5600 C   0  0  0  0  0  2  0  0  0  0  0  0
  192.3130  174.9880  137.9650 C   0  0  0  0  0  2  0  0  0  0  0  0
  191.5750  173.2270  135.6990 C   0  0  1  0  0  3  0  0  0  0  0  0
  191.7020  173.8670  134.4810 F   0  0  0  0  0  0  0  0  0  0  0  0
  191.0810  175.2700  137.0970 C   0  0  2  0  0  3  0  0  0  0  0  0
  193.3330  174.2880  137.1830 N   0  0  0  0  0  0  0  0  0  0  0  0
  192.9040  173.1710  136.3790 C   0  0  0  0  0  0  0  0  0  0  0  0
  193.6510  172.0810  136.2500 C   0  0  0  0  0  2  0  0  0  0  0  0
  195.5600  174.3340  138.1130 C   0  0  0  0  0  2  0  0  0  0  0  0
  194.7000  174.7540  137.1890 C   0  0  0  0  0  0  0  0  0  0  0  0
  195.1100  175.8040  136.3110 N   0  0  0  0  0  1  0  0  0  0  0  0
  1  3  1  0  0  0  0
  2  1  2  0  0  0  0
  3  4  2  0  0  0  0
  6  4  1  6  0  0  0
  6  9  1  0  0  0  0
  7  6  1  0  0  0  0
  7  8  1  0  0  0  0
  8 10  1  6  0  0  0
  8  5  1  0  0  0  0
  9  5  1  0  0  0  0
 11 10  1  1  0  0  0
 11 12  1  0  0  0  0
 12 13  1  0  0  0  0
 14 12  2  0  0  0  0
 15 16  1  6  0  0  0
 15 11  1  0  0  0  0
 17 16  1  0  0  0  0
 18 19  1  0  0  0  0
 18 15  1  0  0  0  0
 19 20  1  0  0  0  0
 21  2  1  0  0  0  0
 22 21  1  0  0  0  0
 22 23  1  6  0  0  0
 24 29  2  0  0  0  0
 24 27  1  0  0  0  0
 25 30  1  0  0  0  0
 25 29  1  0  0  0  0
 26 28  1  0  0  0  0
 26 25  1  0  0  0  0
 27 22  1  0  0  0  0
 28 24  1  0  0  0  0
 31 30  1  0  0  0  0
 32 31  1  0  0  0  0
 33 31  2  0  0  0  0
 34  2  1  0  0  0  0
 35 37  2  0  0  0  0
 35 34  1  0  0  0  0
 36 35  2  0  0  0  0
 38 39  1  0  0  0  0
 39 35  1  0  0  0  0
 40 44  1  0  0  0  0
 41 43  1  0  0  0  0
 41 40  2  0  0  0  0
 42 41  1  0  0  0  0
 43 38  2  0  0  0  0
 44 39  2  0  0  0  0
 45 40  1  0  0  0  0
 45 46  1  0  0  0  0
 47 51  1  0  0  0  0
 49 50  1  6  0  0  0
 49 53  1  0  0  0  0
 49 47  1  0  0  0  0
 51 46  1  1  0  0  0
 51 48  1  0  0  0  0
 52 56  1  0  0  0  0
 52 48  1  0  0  0  0
 53 52  1  0  0  0  0
 54 53  2  0  0  0  0
 56 55  2  0  0  0  0
 57 56  1  0  0  0  0
M  END
>  <MODEL>
1

>  <REMARK>
 VINA RESULT:      -6.8      0.000      0.000
  Name = 
  21 active torsions:
  status: ('A' for Active; 'I' for Inactive)
    1  A    between atoms: C_1  and  O_28
    2  A    between atoms: C_3  and  C_30
    3  A    between atoms: S_4  and  C_12
    4  A    between atoms: S_4  and  C_17
    5  A    between atoms: C_9  and  C_25
    6  A    between atoms: N_11  and  C_41
    7  A    between atoms: CA_13  and  C_16
    8  A    between atoms: CA_13  and  C_30
    9  A    between atoms: CA_13  and  N_53
   10  A    between atoms: C_14  and  C_22
   11  A    between atoms: C_17  and  C_48
   12  A    between atoms: C_18  and  N_35
   13  A    between atoms: C_21  and  C_34
   14  A    between atoms: C_21  and  N_47
   15  A    between atoms: C_23  and  C_41
   16  A    between atoms: C_27  and  N_47
   17  A    between atoms: O_28  and  C_30
   18  A    between atoms: N_31  and  C_44
   19  A    between atoms: C_44  and  N_57
   20  A    between atoms: C_48  and  N_57
   21  A    between atoms: C_49  and  N_53
                            x       y       z     vdW  Elec       q    Type
                         _______ _______ _______ _____ _____    ______ ____

>  <TORSDO>
F 21

$$$$
=
 OpenBabel10232409143D

 57 60  0  0  1  0  0  0  0  0999 V2000
  189.2110  174.1630  137.2320 C   0  0  0  0  0  3  0  0  0  0  0  0
  190.0070  175.2320  137.2240 C   0  0  0  0  0  0  0  0  0  0  0  0
  187.8420  174.1960  136.7140 C   0  0  0  0  0  3  0  0  0  0  0  0
  187.0070  173.1940  136.9150 C   0  0  0  0  0  3  0  0  0  0  0  0
  183.6480  172.0880  135.1670 S   0  0  0  0  0  0  0  0  0  0  0  0
  185.6160  173.2880  136.3900 C   0  0  2  0  0  3  0  0  0  0  0  0
  184.6060  173.0310  137.4750 C   0  0  0  0  0  2  0  0  0  0  0  0
  183.2870  172.8920  136.7610 C   0  0  1  0  0  3  0  0  0  0  0  0
  185.3950  172.3230  135.3310 N   0  0  0  0  0  2  0  0  0  0  0  0
  182.7350  174.2110  136.5070 N   0  0  0  0  0  2  0  0  0  0  0  0
  181.8630  174.5450  137.6190 C   0  0  2  0  0  3  0  0  0  0  0  0
  180.6170  173.7210  137.5260 C   0  0  0  0  0  0  0  0  0  0  0  0
  180.1430  173.2910  136.2870 O   0  0  0  0  0  0  0  0  0  0  0  0
  180.0420  173.3490  138.5800 O   0  0  0  0  0  1  0  0  0  0  0  0
  181.5480  176.0480  137.6000 C   0  0  1  0  0  3  0  0  0  0  0  0
  181.9890  176.7420  138.8910 C   0  0  0  0  0  2  0  0  0  0  0  0
  182.5450  175.8190  139.7810 O   0  0  0  0  0  1  0  0  0  0  0  0
  182.1650  176.6570  136.5000 O   0  0  0  0  0  0  0  0  0  0  0  0
  182.3090  177.9950  136.8610 C   0  0  0  0  0  2  0  0  0  0  0  0
  181.3140  178.8410  136.0890 C   0  0  0  0  0  1  0  0  0  0  0  0
  191.2830  175.1330  137.8720 N   0  0  0  0  0  2  0  0  0  0  0  0
  192.5600  175.0060  137.1730 C   0  0  2  0  0  3  0  0  0  0  0  0
  192.4130  175.4290  135.7300 C   0  0  0  0  0  1  0  0  0  0  0  0
  194.4700  173.3610  137.2900 C   0  0  0  0  0  0  0  0  0  0  0  0
  196.6580  173.8080  137.4490 N   0  0  0  0  0  0  0  0  0  0  0  0
  196.7680  172.3770  137.6400 C   0  0  0  0  0  2  0  0  0  0  0  0
  193.0720  173.6490  137.2410 N   0  0  0  0  0  2  0  0  0  0  0  0
  195.0790  171.6950  137.4920 S   0  0  0  0  0  0  0  0  0  0  0  0
  195.3600  174.2860  137.2900 N   0  0  0  0  0  0  0  0  0  0  0  0
  197.8030  174.7020  137.4970 C   0  0  0  0  0  2  0  0  0  0  0  0
  198.1610  175.0010  138.9130 C   0  0  0  0  0  0  0  0  0  0  0  0
  199.3680  175.1510  139.2400 O   0  0  0  0  0  0  0  0  0  0  0  0
  197.1660  175.0790  139.8780 O   0  0  0  0  0  1  0  0  0  0  0  0
  189.5500  176.5370  136.6310 C   0  0  0  0  0  2  0  0  0  0  0  0
  188.9400  177.6650  137.8860 S   0  0  0  0  0  0  0  0  0  0  0  0
  189.1790  179.0710  137.4250 O   0  0  0  0  0  0  0  0  0  0  0  0
  187.4680  177.4530  138.0670 O   0  0  0  0  0  0  0  0  0  0  0  0
  191.0850  177.6600  139.6080 C   0  0  0  0  0  3  0  0  0  0  0  0
  189.7140  177.4470  139.4450 C   0  0  0  0  0  0  0  0  0  0  0  0
  189.5160  176.9400  141.8180 C   0  0  0  0  0  0  0  0  0  0  0  0
  190.9000  177.1180  141.9670 C   0  0  0  0  0  0  0  0  0  0  0  0
  191.6820  176.9270  143.5290 Cl  0  0  0  0  0  0  0  0  0  0  0  0
  191.6770  177.4890  140.8640 C   0  0  0  0  0  3  0  0  0  0  0  0
  188.9330  177.1050  140.5530 C   0  0  0  0  0  3  0  0  0  0  0  0
  188.7050  176.6100  142.9540 N   0  0  0  0  0  2  0  0  0  0  0  0
  187.2920  176.9640  143.0340 C   0  0  0  0  0  2  0  0  0  0  0  0
  185.7730  178.2840  144.4720 C   0  0  0  0  0  2  0  0  0  0  0  0
  188.0830  177.8030  145.2600 C   0  0  0  0  0  2  0  0  0  0  0  0
  185.3010  178.6010  145.8910 C   0  0  1  0  0  3  0  0  0  0  0  0
  184.5570  177.5460  146.3830 F   0  0  0  0  0  0  0  0  0  0  0  0
  186.8910  177.2500  144.4700 C   0  0  2  0  0  3  0  0  0  0  0  0
  187.6780  178.1280  146.6270 N   0  0  0  0  0  0  0  0  0  0  0  0
  186.4550  178.8720  146.7990 C   0  0  0  0  0  0  0  0  0  0  0  0
  186.3390  179.8110  147.7300 C   0  0  0  0  0  2  0  0  0  0  0  0
  187.9910  177.7440  148.9900 C   0  0  0  0  0  2  0  0  0  0  0  0
  188.4600  177.6600  147.7480 C   0  0  0  0  0  0  0  0  0  0  0  0
  189.8190  177.2590  147.5630 N   0  0  0  0  0  1  0  0  0  0  0  0
  2  1  2  0  0  0  0
  2 21  1  0  0  0  0
  3  4  2  0  0  0  0
  3  1  1  0  0  0  0
  5  9  1  0  0  0  0
  5  8  1  0  0  0  0
  6  4  1  1  0  0  0
  6  7  1  0  0  0  0
  8 10  1  6  0  0  0
  8  7  1  0  0  0  0
  9  6  1  0  0  0  0
 11 10  1  6  0  0  0
 12 11  1  0  0  0  0
 12 14  1  0  0  0  0
 13 12  2  0  0  0  0
 15 11  1  0  0  0  0
 15 16  1  1  0  0  0
 16 17  1  0  0  0  0
 18 19  1  0  0  0  0
 18 15  1  0  0  0  0
 20 19  1  0  0  0  0
 22 23  1  6  0  0  0
 22 27  1  0  0  0  0
 22 21  1  0  0  0  0
 24 29  2  0  0  0  0
 24 28  1  0  0  0  0
 25 30  1  0  0  0  0
 25 26  1  0  0  0  0
 27 24  1  0  0  0  0
 28 26  1  0  0  0  0
 29 25  1  0  0  0  0
 30 31  1  0  0  0  0
 31 32  2  0  0  0  0
 31 33  1  0  0  0  0
 34  2  1  0  0  0  0
 34 35  1  0  0  0  0
 35 37  2  0  0  0  0
 35 39  1  0  0  0  0
 36 35  2  0  0  0  0
 38 43  1  0  0  0  0
 39 38  2  0  0  0  0
 39 44  1  0  0  0  0
 40 41  1  0  0  0  0
 40 45  1  0  0  0  0
 41 42  1  0  0  0  0
 43 41  2  0  0  0  0
 44 40  2  0  0  0  0
 45 46  1  0  0  0  0
 47 49  1  0  0  0  0
 48 52  1  0  0  0  0
 49 50  1  1  0  0  0
 49 53  1  0  0  0  0
 51 46  1  6  0  0  0
 51 47  1  0  0  0  0
 51 48  1  0  0  0  0
 52 53  1  0  0  0  0
 52 56  1  0  0  0  0
 53 54  2  0  0  0  0
 56 55  2  0  0  0  0
 57 56  1  0  0  0  0
M  END
>  <MODEL>
2

>  <REMARK>
 VINA RESULT:      -6.8      4.420     11.836
  Name = 
  21 active torsions:
  status: ('A' for Active; 'I' for Inactive)
    1  A    between atoms: C_1  and  O_28
    2  A    between atoms: C_3  and  C_30
    3  A    between atoms: S_4  and  C_12
    4  A    between atoms: S_4  and  C_17
    5  A    between atoms: C_9  and  C_25
    6  A    between atoms: N_11  and  C_41
    7  A    between atoms: CA_13  and  C_16
    8  A    between atoms: CA_13  and  C_30
    9  A    between atoms: CA_13  and  N_53
   10  A    between atoms: C_14  and  C_22
   11  A    between atoms: C_17  and  C_48
   12  A    between atoms: C_18  and  N_35
   13  A    between atoms: C_21  and  C_34
   14  A    between atoms: C_21  and  N_47
   15  A    between atoms: C_23  and  C_41
   16  A    between atoms: C_27  and  N_47
   17  A    between atoms: O_28  and  C_30
   18  A    between atoms: N_31  and  C_44
   19  A    between atoms: C_44  and  N_57
   20  A    between atoms: C_48  and  N_57
   21  A    between atoms: C_49  and  N_53
                            x       y       z     vdW  Elec       q    Type
                         _______ _______ _______ _____ _____    ______ ____

>  <TORSDO>
F 21

$$$$
=
 OpenBabel10232409143D

 57 60  0  0  1  0  0  0  0  0999 V2000
  190.3960  177.4290  138.8450 C   0  0  0  0  0  3  0  0  0  0  0  0
  189.4810  177.1850  137.9070 C   0  0  0  0  0  0  0  0  0  0  0  0
  190.0760  177.4400  140.2740 C   0  0  0  0  0  3  0  0  0  0  0  0
  190.6610  176.6070  141.1150 C   0  0  0  0  0  3  0  0  0  0  0  0
  191.1360  177.2180  144.9830 S   0  0  0  0  0  0  0  0  0  0  0  0
  190.3210  176.6770  142.5630 C   0  0  2  0  0  3  0  0  0  0  0  0
  189.6420  177.9760  142.9020 C   0  0  0  0  0  2  0  0  0  0  0  0
  189.6050  178.0210  144.4070 C   0  0  1  0  0  3  0  0  0  0  0  0
  191.5140  176.5650  143.3810 N   0  0  0  0  0  2  0  0  0  0  0  0
  188.4670  177.2570  144.8850 N   0  0  0  0  0  2  0  0  0  0  0  0
  187.7200  178.1040  145.7990 C   0  0  2  0  0  3  0  0  0  0  0  0
  188.0320  177.6970  147.2040 C   0  0  0  0  0  0  0  0  0  0  0  0
  188.4790  176.4070  147.4860 O   0  0  0  0  0  0  0  0  0  0  0  0
  187.9640  178.5510  148.1250 O   0  0  0  0  0  1  0  0  0  0  0  0
  186.2180  177.9960  145.4990 C   0  0  1  0  0  3  0  0  0  0  0  0
  185.3640  178.3490  146.7190 C   0  0  0  0  0  2  0  0  0  0  0  0
  184.0760  178.7210  146.3260 O   0  0  0  0  0  1  0  0  0  0  0  0
  185.8790  178.8290  144.4250 O   0  0  0  0  0  0  0  0  0  0  0  0
  185.5920  177.9620  143.3720 C   0  0  0  0  0  2  0  0  0  0  0  0
  186.0860  178.5620  142.0690 C   0  0  0  0  0  1  0  0  0  0  0  0
  189.8640  177.3250  136.5320 N   0  0  0  0  0  2  0  0  0  0  0  0
  190.5240  176.2860  135.7460 C   0  0  2  0  0  3  0  0  0  0  0  0
  189.5070  175.5090  134.9430 C   0  0  0  0  0  1  0  0  0  0  0  0
  192.6580  175.0790  136.3480 C   0  0  0  0  0  0  0  0  0  0  0  0
  194.6630  175.2690  135.3710 N   0  0  0  0  0  0  0  0  0  0  0  0
  195.0970  174.4470  136.4800 C   0  0  0  0  0  2  0  0  0  0  0  0
  191.2830  175.3790  136.5910 N   0  0  0  0  0  2  0  0  0  0  0  0
  193.6060  174.0570  137.4620 S   0  0  0  0  0  0  0  0  0  0  0  0
  193.3120  175.6040  135.3750 N   0  0  0  0  0  0  0  0  0  0  0  0
  195.5750  175.7810  134.3620 C   0  0  0  0  0  2  0  0  0  0  0  0
  196.8900  176.1160  134.9820 C   0  0  0  0  0  0  0  0  0  0  0  0
  196.9950  177.1220  135.7310 O   0  0  0  0  0  1  0  0  0  0  0  0
  198.0060  175.3380  134.7030 O   0  0  0  0  0  0  0  0  0  0  0  0
  188.0580  176.8590  138.2750 C   0  0  0  0  0  2  0  0  0  0  0  0
  186.8830  177.7820  137.2820 S   0  0  0  0  0  0  0  0  0  0  0  0
  187.2910  179.2240  137.2700 O   0  0  0  0  0  0  0  0  0  0  0  0
  186.9030  177.2570  135.8780 O   0  0  0  0  0  0  0  0  0  0  0  0
  184.6570  178.7150  138.6000 C   0  0  0  0  0  3  0  0  0  0  0  0
  185.2370  177.6700  137.8780 C   0  0  0  0  0  0  0  0  0  0  0  0
  183.1530  176.4180  138.0240 C   0  0  0  0  0  0  0  0  0  0  0  0
  182.5880  177.4570  138.7820 C   0  0  0  0  0  0  0  0  0  0  0  0
  180.9330  177.3660  139.3620 Cl  0  0  0  0  0  0  0  0  0  0  0  0
  183.3390  178.6060  139.0560 C   0  0  0  0  0  3  0  0  0  0  0  0
  184.4790  176.5340  137.5780 C   0  0  0  0  0  3  0  0  0  0  0  0
  182.3750  175.2600  137.6940 N   0  0  0  0  0  2  0  0  0  0  0  0
  181.8070  175.0530  136.3660 C   0  0  0  0  0  2  0  0  0  0  0  0
  181.2820  172.6390  136.2550 C   0  0  0  0  0  2  0  0  0  0  0  0
  183.6610  173.3670  136.2880 C   0  0  0  0  0  2  0  0  0  0  0  0
  181.6580  171.2680  135.6920 C   0  0  1  0  0  3  0  0  0  0  0  0
  181.3470  171.2130  134.3470 F   0  0  0  0  0  0  0  0  0  0  0  0
  182.2520  173.7180  135.7950 C   0  0  2  0  0  3  0  0  0  0  0  0
  184.0630  172.0560  135.7780 N   0  0  0  0  0  0  0  0  0  0  0  0
  183.1100  170.9800  135.8870 C   0  0  0  0  0  0  0  0  0  0  0  0
  183.4910  169.7430  136.1810 C   0  0  0  0  0  2  0  0  0  0  0  0
  186.1610  172.9240  134.9600 C   0  0  0  0  0  2  0  0  0  0  0  0
  185.3500  171.8870  135.1440 C   0  0  0  0  0  0  0  0  0  0  0  0
  185.7030  170.6370  134.5490 N   0  0  0  0  0  1  0  0  0  0  0  0
  1  3  1  0  0  0  0
  2 34  1  0  0  0  0
  2  1  2  0  0  0  0
  3  4  2  0  0  0  0
  6  4  1  6  0  0  0
  6  7  1  0  0  0  0
  6  9  1  0  0  0  0
  7  8  1  0  0  0  0
  8 10  1  1  0  0  0
  8  5  1  0  0  0  0
  9  5  1  0  0  0  0
 11 10  1  6  0  0  0
 11 12  1  0  0  0  0
 12 13  2  0  0  0  0
 12 14  1  0  0  0  0
 15 11  1  0  0  0  0
 15 16  1  1  0  0  0
 17 16  1  0  0  0  0
 18 15  1  0  0  0  0
 19 18  1  0  0  0  0
 20 19  1  0  0  0  0
 21  2  1  0  0  0  0
 22 23  1  1  0  0  0
 22 21  1  0  0  0  0
 22 27  1  0  0  0  0
 24 27  1  0  0  0  0
 24 28  1  0  0  0  0
 25 29  1  0  0  0  0
 25 26  1  0  0  0  0
 26 28  1  0  0  0  0
 29 24  2  0  0  0  0
 30 31  1  0  0  0  0
 30 25  1  0  0  0  0
 31 32  1  0  0  0  0
 33 31  2  0  0  0  0
 35 39  1  0  0  0  0
 35 34  1  0  0  0  0
 36 35  2  0  0  0  0
 37 35  2  0  0  0  0
 38 43  1  0  0  0  0
 39 38  2  0  0  0  0
 40 41  1  0  0  0  0
 41 43  2  0  0  0  0
 41 42  1  0  0  0  0
 44 39  1  0  0  0  0
 44 40  2  0  0  0  0
 45 40  1  0  0  0  0
 46 45  1  0  0  0  0
 49 50  1  6  0  0  0
 49 53  1  0  0  0  0
 49 47  1  0  0  0  0
 51 47  1  0  0  0  0
 51 48  1  0  0  0  0
 51 46  1  1  0  0  0
 52 53  1  0  0  0  0
 52 48  1  0  0  0  0
 53 54  2  0  0  0  0
 55 56  2  0  0  0  0
 56 52  1  0  0  0  0
 57 56  1  0  0  0  0
M  END
>  <MODEL>
3

>  <REMARK>
 VINA RESULT:      -6.7      4.162      8.842
  Name = 
  21 active torsions:
  status: ('A' for Active; 'I' for Inactive)
    1  A    between atoms: C_1  and  O_28
    2  A    between atoms: C_3  and  C_30
    3  A    between atoms: S_4  and  C_12
    4  A    between atoms: S_4  and  C_17
    5  A    between atoms: C_9  and  C_25
    6  A    between atoms: N_11  and  C_41
    7  A    between atoms: CA_13  and  C_16
    8  A    between atoms: CA_13  and  C_30
    9  A    between atoms: CA_13  and  N_53
   10  A    between atoms: C_14  and  C_22
   11  A    between atoms: C_17  and  C_48
   12  A    between atoms: C_18  and  N_35
   13  A    between atoms: C_21  and  C_34
   14  A    between atoms: C_21  and  N_47
   15  A    between atoms: C_23  and  C_41
   16  A    between atoms: C_27  and  N_47
   17  A    between atoms: O_28  and  C_30
   18  A    between atoms: N_31  and  C_44
   19  A    between atoms: C_44  and  N_57
   20  A    between atoms: C_48  and  N_57
   21  A    between atoms: C_49  and  N_53
                            x       y       z     vdW  Elec       q    Type
                         _______ _______ _______ _____ _____    ______ ____

>  <TORSDO>
F 21

$$$$
=
 OpenBabel10232409143D

 57 60  0  0  1  0  0  0  0  0999 V2000
  190.2180  176.1200  135.5380 C   0  0  0  0  0  3  0  0  0  0  0  0
  189.6910  176.9090  136.4740 C   0  0  0  0  0  0  0  0  0  0  0  0
  191.5540  175.5360  135.6600 C   0  0  0  0  0  3  0  0  0  0  0  0
  191.7230  174.2690  135.9920 C   0  0  0  0  0  3  0  0  0  0  0  0
  195.1050  172.6140  134.8150 S   0  0  0  0  0  0  0  0  0  0  0  0
  193.1020  173.7150  136.0770 C   0  0  2  0  0  3  0  0  0  0  0  0
  194.1340  174.8070  135.9940 C   0  0  0  0  0  2  0  0  0  0  0  0
  195.4500  174.0940  135.8220 C   0  0  1  0  0  3  0  0  0  0  0  0
  193.3510  172.7760  134.9990 N   0  0  0  0  0  2  0  0  0  0  0  0
  195.9440  173.6720  137.1210 N   0  0  0  0  0  2  0  0  0  0  0  0
  197.2520  173.0730  136.9210 C   0  0  2  0  0  3  0  0  0  0  0  0
  197.1660  171.6080  137.2120 C   0  0  0  0  0  0  0  0  0  0  0  0
  196.2450  171.1230  138.1400 O   0  0  0  0  0  1  0  0  0  0  0  0
  197.8760  170.8040  136.5570 O   0  0  0  0  0  0  0  0  0  0  0  0
  198.2850  173.7680  137.8190 C   0  0  1  0  0  3  0  0  0  0  0  0
  199.5850  174.0690  137.0700 C   0  0  0  0  0  2  0  0  0  0  0  0
  199.3720  175.0350  136.0830 O   0  0  0  0  0  1  0  0  0  0  0  0
  197.7520  174.9550  138.3390 O   0  0  0  0  0  0  0  0  0  0  0  0
  198.4250  175.1560  139.5430 C   0  0  0  0  0  2  0  0  0  0  0  0
  197.4210  175.3760  140.6580 C   0  0  0  0  0  1  0  0  0  0  0  0
  188.4310  177.5370  136.2020 N   0  0  0  0  0  2  0  0  0  0  0  0
  187.2120  176.8220  135.8310 C   0  0  2  0  0  3  0  0  0  0  0  0
  186.9500  176.9640  134.3500 C   0  0  0  0  0  1  0  0  0  0  0  0
  184.8840  176.5120  136.7560 C   0  0  0  0  0  0  0  0  0  0  0  0
  183.5890  174.6900  136.6300 N   0  0  0  0  0  0  0  0  0  0  0  0
  182.7370  175.4360  137.5320 C   0  0  0  0  0  2  0  0  0  0  0  0
  186.0640  177.2970  136.5850 N   0  0  0  0  0  2  0  0  0  0  0  0
  183.5310  177.0630  137.7810 S   0  0  0  0  0  0  0  0  0  0  0  0
  184.7690  175.3310  136.2650 N   0  0  0  0  0  0  0  0  0  0  0  0
  183.2850  173.3380  136.1930 C   0  0  0  0  0  2  0  0  0  0  0  0
  184.1380  172.3570  136.9260 C   0  0  0  0  0  0  0  0  0  0  0  0
  184.1610  171.1510  136.5670 O   0  0  0  0  0  0  0  0  0  0  0  0
  184.8780  172.7700  138.0260 O   0  0  0  0  0  1  0  0  0  0  0  0
  190.4360  177.2090  137.7470 C   0  0  0  0  0  2  0  0  0  0  0  0
  189.3300  177.7250  139.0620 S   0  0  0  0  0  0  0  0  0  0  0  0
  188.9650  179.1630  138.8460 O   0  0  0  0  0  0  0  0  0  0  0  0
  188.0840  176.8930  139.0160 O   0  0  0  0  0  0  0  0  0  0  0  0
  191.3930  177.2890  140.8270 C   0  0  0  0  0  3  0  0  0  0  0  0
  190.0330  177.5600  140.6600 C   0  0  0  0  0  0  0  0  0  0  0  0
  189.7580  177.6470  143.0780 C   0  0  0  0  0  0  0  0  0  0  0  0
  191.1180  177.3370  143.2390 C   0  0  0  0  0  0  0  0  0  0  0  0
  191.8390  177.1940  144.8350 Cl  0  0  0  0  0  0  0  0  0  0  0  0
  191.9330  177.1710  142.1130 C   0  0  0  0  0  3  0  0  0  0  0  0
  189.2260  177.7540  141.7850 C   0  0  0  0  0  3  0  0  0  0  0  0
  188.9290  177.8690  144.2260 N   0  0  0  0  0  2  0  0  0  0  0  0
  187.6710  177.1600  144.4310 C   0  0  0  0  0  2  0  0  0  0  0  0
  185.6010  178.0980  145.4040 C   0  0  0  0  0  2  0  0  0  0  0  0
  185.6710  177.5660  142.9750 C   0  0  0  0  0  2  0  0  0  0  0  0
  184.3990  179.0250  145.2170 C   0  0  1  0  0  3  0  0  0  0  0  0
  184.8110  180.3430  145.2800 F   0  0  0  0  0  0  0  0  0  0  0  0
  186.4890  178.0750  144.1680 C   0  0  2  0  0  3  0  0  0  0  0  0
  184.5040  178.4210  142.7600 N   0  0  0  0  0  0  0  0  0  0  0  0
  183.7150  178.7720  143.9150 C   0  0  0  0  0  0  0  0  0  0  0  0
  182.3910  178.8500  143.8530 C   0  0  0  0  0  2  0  0  0  0  0  0
  182.9600  178.9390  140.9780 C   0  0  0  0  0  2  0  0  0  0  0  0
  184.2070  178.9270  141.4400 C   0  0  0  0  0  0  0  0  0  0  0  0
  185.2650  179.2650  140.5410 N   0  0  0  0  0  1  0  0  0  0  0  0
  1  3  1  0  0  0  0
  1  2  2  0  0  0  0
  2 34  1  0  0  0  0
  3  4  2  0  0  0  0
  5  9  1  0  0  0  0
  5  8  1  0  0  0  0
  6  4  1  6  0  0  0
  7  6  1  0  0  0  0
  8  7  1  0  0  0  0
  8 10  1  1  0  0  0
  9  6  1  0  0  0  0
 11 10  1  1  0  0  0
 11 12  1  0  0  0  0
 11 15  1  0  0  0  0
 12 13  1  0  0  0  0
 14 12  2  0  0  0  0
 15 16  1  6  0  0  0
 15 18  1  0  0  0  0
 17 16  1  0  0  0  0
 18 19  1  0  0  0  0
 19 20  1  0  0  0  0
 21  2  1  0  0  0  0
 22 23  1  6  0  0  0
 22 21  1  0  0  0  0
 22 27  1  0  0  0  0
 24 28  1  0  0  0  0
 25 26  1  0  0  0  0
 26 28  1  0  0  0  0
 27 24  1  0  0  0  0
 29 25  1  0  0  0  0
 29 24  2  0  0  0  0
 30 25  1  0  0  0  0
 30 31  1  0  0  0  0
 31 33  1  0  0  0  0
 32 31  2  0  0  0  0
 34 35  1  0  0  0  0
 35 39  1  0  0  0  0
 36 35  2  0  0  0  0
 37 35  2  0  0  0  0
 38 43  1  0  0  0  0
 39 38  2  0  0  0  0
 39 44  1  0  0  0  0
 40 41  1  0  0  0  0
 40 45  1  0  0  0  0
 41 42  1  0  0  0  0
 43 41  2  0  0  0  0
 44 40  2  0  0  0  0
 45 46  1  0  0  0  0
 48 51  1  0  0  0  0
 49 50  1  6  0  0  0
 49 47  1  0  0  0  0
 51 46  1  1  0  0  0
 51 47  1  0  0  0  0
 52 48  1  0  0  0  0
 52 53  1  0  0  0  0
 53 49  1  0  0  0  0
 54 53  2  0  0  0  0
 55 56  2  0  0  0  0
 56 52  1  0  0  0  0
 57 56  1  0  0  0  0
M  END
>  <MODEL>
4

>  <REMARK>
 VINA RESULT:      -6.7      4.605      9.859
  Name = 
  21 active torsions:
  status: ('A' for Active; 'I' for Inactive)
    1  A    between atoms: C_1  and  O_28
    2  A    between atoms: C_3  and  C_30
    3  A    between atoms: S_4  and  C_12
    4  A    between atoms: S_4  and  C_17
    5  A    between atoms: C_9  and  C_25
    6  A    between atoms: N_11  and  C_41
    7  A    between atoms: CA_13  and  C_16
    8  A    between atoms: CA_13  and  C_30
    9  A    between atoms: CA_13  and  N_53
   10  A    between atoms: C_14  and  C_22
   11  A    between atoms: C_17  and  C_48
   12  A    between atoms: C_18  and  N_35
   13  A    between atoms: C_21  and  C_34
   14  A    between atoms: C_21  and  N_47
   15  A    between atoms: C_23  and  C_41
   16  A    between atoms: C_27  and  N_47
   17  A    between atoms: O_28  and  C_30
   18  A    between atoms: N_31  and  C_44
   19  A    between atoms: C_44  and  N_57
   20  A    between atoms: C_48  and  N_57
   21  A    between atoms: C_49  and  N_53
                            x       y       z     vdW  Elec       q    Type
                         _______ _______ _______ _____ _____    ______ ____

>  <TORSDO>
F 21

$$$$
=
 OpenBabel10232409143D

 57 60  0  0  1  0  0  0  0  0999 V2000
  187.3580  178.0880  138.1790 C   0  0  0  0  0  3  0  0  0  0  0  0
  188.1830  177.9080  137.1470 C   0  0  0  0  0  0  0  0  0  0  0  0
  187.8290  178.1400  139.5640 C   0  0  0  0  0  3  0  0  0  0  0  0
  186.9920  178.3170  140.5690 C   0  0  0  0  0  3  0  0  0  0  0  0
  187.2020  177.5630  144.4350 S   0  0  0  0  0  0  0  0  0  0  0  0
  187.5180  178.3350  141.9620 C   0  0  2  0  0  3  0  0  0  0  0  0
  188.5730  177.2810  142.1590 C   0  0  0  0  0  2  0  0  0  0  0  0
  188.8120  177.2360  143.6460 C   0  0  1  0  0  3  0  0  0  0  0  0
  186.4560  178.0950  142.9200 N   0  0  0  0  0  2  0  0  0  0  0  0
  189.7390  178.2890  144.0180 N   0  0  0  0  0  2  0  0  0  0  0  0
  190.9350  177.6550  144.5470 C   0  0  2  0  0  3  0  0  0  0  0  0
  191.4800  176.7120  143.5210 C   0  0  0  0  0  0  0  0  0  0  0  0
  191.4780  175.3370  143.7520 O   0  0  0  0  0  1  0  0  0  0  0  0
  191.8680  177.1600  142.4130 O   0  0  0  0  0  0  0  0  0  0  0  0
  190.6030  176.9320  145.8590 C   0  0  1  0  0  3  0  0  0  0  0  0
  191.8550  176.3690  146.5360 C   0  0  0  0  0  2  0  0  0  0  0  0
  191.9630  176.8460  147.8450 O   0  0  0  0  0  1  0  0  0  0  0  0
  189.9410  177.8020  146.7360 O   0  0  0  0  0  0  0  0  0  0  0  0
  188.9380  177.0310  147.3210 C   0  0  0  0  0  2  0  0  0  0  0  0
  188.4470  177.7090  148.5870 C   0  0  0  0  0  1  0  0  0  0  0  0
  187.6110  177.7410  135.8420 N   0  0  0  0  0  2  0  0  0  0  0  0
  186.8670  176.5610  135.4080 C   0  0  2  0  0  3  0  0  0  0  0  0
  187.6420  175.8110  134.3500 C   0  0  0  0  0  1  0  0  0  0  0  0
  184.3650  176.7560  135.6760 C   0  0  0  0  0  0  0  0  0  0  0  0
  183.1420  176.3200  137.5000 N   0  0  0  0  0  0  0  0  0  0  0  0
  182.0690  176.8950  136.7160 C   0  0  0  0  0  2  0  0  0  0  0  0
  185.5530  176.9160  134.9010 N   0  0  0  0  0  2  0  0  0  0  0  0
  182.7740  177.3060  135.0810 S   0  0  0  0  0  0  0  0  0  0  0  0
  184.3870  176.3000  136.8760 N   0  0  0  0  0  0  0  0  0  0  0  0
  182.9650  175.8650  138.8690 C   0  0  0  0  0  2  0  0  0  0  0  0
  182.1410  176.8460  139.6330 C   0  0  0  0  0  0  0  0  0  0  0  0
  180.9470  176.5760  139.9230 O   0  0  0  0  0  0  0  0  0  0  0  0
  182.6820  178.0740  139.9920 O   0  0  0  0  0  1  0  0  0  0  0  0
  189.6690  177.7930  137.3500 C   0  0  0  0  0  2  0  0  0  0  0  0
  190.1540  176.1260  137.8050 S   0  0  0  0  0  0  0  0  0  0  0  0
  190.4900  176.1040  139.2650 O   0  0  0  0  0  0  0  0  0  0  0  0
  189.0100  175.1920  137.5520 O   0  0  0  0  0  0  0  0  0  0  0  0
  191.7020  175.8430  135.5490 C   0  0  0  0  0  3  0  0  0  0  0  0
  191.5400  175.5400  136.9030 C   0  0  0  0  0  0  0  0  0  0  0  0
  193.6530  174.3310  136.8800 C   0  0  0  0  0  0  0  0  0  0  0  0
  193.7920  174.6070  135.5100 C   0  0  0  0  0  0  0  0  0  0  0  0
  195.1880  174.0470  134.6030 Cl  0  0  0  0  0  0  0  0  0  0  0  0
  192.8210  175.3720  134.8530 C   0  0  0  0  0  3  0  0  0  0  0  0
  192.5230  174.8010  137.5660 C   0  0  0  0  0  3  0  0  0  0  0  0
  194.6680  173.5920  137.5720 N   0  0  0  0  0  2  0  0  0  0  0  0
  195.9530  174.1810  137.9340 C   0  0  0  0  0  2  0  0  0  0  0  0
  198.2150  173.7990  137.0110 C   0  0  0  0  0  2  0  0  0  0  0  0
  196.5740  171.9290  137.0230 C   0  0  0  0  0  2  0  0  0  0  0  0
  199.3900  172.8340  136.8470 C   0  0  1  0  0  3  0  0  0  0  0  0
  200.0550  172.6990  138.0510 F   0  0  0  0  0  0  0  0  0  0  0  0
  197.0700  173.1630  137.7870 C   0  0  2  0  0  3  0  0  0  0  0  0
  197.6690  170.9760  136.8370 N   0  0  0  0  0  0  0  0  0  0  0  0
  198.9300  171.4950  136.3720 C   0  0  0  0  0  0  0  0  0  0  0  0
  199.6830  170.8220  135.5100 C   0  0  0  0  0  2  0  0  0  0  0  0
  196.5800  168.8440  136.5270 C   0  0  0  0  0  2  0  0  0  0  0  0
  197.4820  169.5830  137.1680 C   0  0  0  0  0  0  0  0  0  0  0  0
  198.1390  169.0150  138.3030 N   0  0  0  0  0  1  0  0  0  0  0  0
  1  3  1  0  0  0  0
  2 34  1  0  0  0  0
  2  1  2  0  0  0  0
  3  4  2  0  0  0  0
  6  4  1  6  0  0  0
  6  7  1  0  0  0  0
  6  9  1  0  0  0  0
  7  8  1  0  0  0  0
  8 10  1  6  0  0  0
  8  5  1  0  0  0  0
  9  5  1  0  0  0  0
 10 11  1  0  0  0  0
 11 12  1  6  0  0  0
 11 15  1  0  0  0  0
 12 13  1  0  0  0  0
 14 12  2  0  0  0  0
 15 16  1  1  0  0  0
 15 18  1  0  0  0  0
 16 17  1  0  0  0  0
 18 19  1  0  0  0  0
 19 20  1  0  0  0  0
 21  2  1  0  0  0  0
 22 23  1  6  0  0  0
 22 21  1  0  0  0  0
 24 29  2  0  0  0  0
 25 30  1  0  0  0  0
 26 25  1  0  0  0  0
 27 22  1  0  0  0  0
 27 24  1  0  0  0  0
 28 24  1  0  0  0  0
 28 26  1  0  0  0  0
 29 25  1  0  0  0  0
 30 31  1  0  0  0  0
 31 32  2  0  0  0  0
 31 33  1  0  0  0  0
 34 35  1  0  0  0  0
 35 36  2  0  0  0  0
 37 35  2  0  0  0  0
 38 39  1  0  0  0  0
 39 44  2  0  0  0  0
 39 35  1  0  0  0  0
 40 44  1  0  0  0  0
 40 45  1  0  0  0  0
 41 40  2  0  0  0  0
 42 41  1  0  0  0  0
 43 41  1  0  0  0  0
 43 38  2  0  0  0  0
 45 46  1  0  0  0  0
 47 51  1  0  0  0  0
 48 51  1  0  0  0  0
 49 47  1  0  0  0  0
 49 50  1  1  0  0  0
 51 46  1  6  0  0  0
 52 48  1  0  0  0  0
 52 56  1  0  0  0  0
 53 52  1  0  0  0  0
 53 49  1  0  0  0  0
 54 53  2  0  0  0  0
 55 56  2  0  0  0  0
 56 57  1  0  0  0  0
M  END
>  <MODEL>
5

>  <REMARK>
 VINA RESULT:      -6.5      3.382      5.799
  Name = 
  21 active torsions:
  status: ('A' for Active; 'I' for Inactive)
    1  A    between atoms: C_1  and  O_28
    2  A    between atoms: C_3  and  C_30
    3  A    between atoms: S_4  and  C_12
    4  A    between atoms: S_4  and  C_17
    5  A    between atoms: C_9  and  C_25
    6  A    between atoms: N_11  and  C_41
    7  A    between atoms: CA_13  and  C_16
    8  A    between atoms: CA_13  and  C_30
    9  A    between atoms: CA_13  and  N_53
   10  A    between atoms: C_14  and  C_22
   11  A    between atoms: C_17  and  C_48
   12  A    between atoms: C_18  and  N_35
   13  A    between atoms: C_21  and  C_34
   14  A    between atoms: C_21  and  N_47
   15  A    between atoms: C_23  and  C_41
   16  A    between atoms: C_27  and  N_47
   17  A    between atoms: O_28  and  C_30
   18  A    between atoms: N_31  and  C_44
   19  A    between atoms: C_44  and  N_57
   20  A    between atoms: C_48  and  N_57
   21  A    between atoms: C_49  and  N_53
                            x       y       z     vdW  Elec       q    Type
                         _______ _______ _______ _____ _____    ______ ____

>  <TORSDO>
F 21

$$$$
=
 OpenBabel10232409143D

 57 60  0  0  1  0  0  0  0  0999 V2000
  188.8180  173.4060  134.4690 C   0  0  0  0  0  3  0  0  0  0  0  0
  189.6840  173.8120  135.3980 C   0  0  0  0  0  0  0  0  0  0  0  0
  187.3870  173.2590  134.7360 C   0  0  0  0  0  3  0  0  0  0  0  0
  186.8700  172.0970  135.0930 C   0  0  0  0  0  3  0  0  0  0  0  0
  183.4450  170.5550  136.2960 S   0  0  0  0  0  0  0  0  0  0  0  0
  185.4120  172.0050  135.3810 C   0  0  2  0  0  3  0  0  0  0  0  0
  185.0790  172.6280  136.7090 C   0  0  0  0  0  2  0  0  0  0  0  0
  183.6520  172.2300  136.9850 C   0  0  1  0  0  3  0  0  0  0  0  0
  184.9750  170.6230  135.4090 N   0  0  0  0  0  2  0  0  0  0  0  0
  182.7560  173.1360  136.2900 N   0  0  0  0  0  2  0  0  0  0  0  0
  182.0990  173.9580  137.2920 C   0  0  2  0  0  3  0  0  0  0  0  0
  180.7070  173.4510  137.5030 C   0  0  0  0  0  0  0  0  0  0  0  0
  180.1290  172.5700  136.5910 O   0  0  0  0  0  0  0  0  0  0  0  0
  180.0880  173.7620  138.5520 O   0  0  0  0  0  1  0  0  0  0  0  0
  182.1030  175.4270  136.8440 C   0  0  1  0  0  3  0  0  0  0  0  0
  180.7160  176.0630  136.9540 C   0  0  0  0  0  2  0  0  0  0  0  0
  180.7770  177.4300  136.6680 O   0  0  0  0  0  1  0  0  0  0  0  0
  183.0230  176.1610  137.6040 O   0  0  0  0  0  0  0  0  0  0  0  0
  182.7950  175.7700  138.9230 C   0  0  0  0  0  2  0  0  0  0  0  0
  182.9200  176.9720  139.8400 C   0  0  0  0  0  1  0  0  0  0  0  0
  191.0810  173.7990  135.0760 N   0  0  0  0  0  2  0  0  0  0  0  0
  192.1590  173.8380  136.0610 C   0  0  2  0  0  3  0  0  0  0  0  0
  193.1600  174.9110  135.7030 C   0  0  0  0  0  1  0  0  0  0  0  0
  194.1610  172.4250  136.6660 C   0  0  0  0  0  0  0  0  0  0  0  0
  196.0790  173.0950  137.6080 N   0  0  0  0  0  0  0  0  0  0  0  0
  196.3440  171.6740  137.6860 C   0  0  0  0  0  2  0  0  0  0  0  0
  192.8290  172.5530  136.1700 N   0  0  0  0  0  2  0  0  0  0  0  0
  194.9250  170.8300  136.9030 S   0  0  0  0  0  0  0  0  0  0  0  0
  194.8450  173.4380  137.0610 N   0  0  0  0  0  0  0  0  0  0  0  0
  196.9900  174.0990  138.1310 C   0  0  0  0  0  2  0  0  0  0  0  0
  196.4370  174.6920  139.3830 C   0  0  0  0  0  0  0  0  0  0  0  0
  195.2680  175.1600  139.3950 O   0  0  0  0  0  0  0  0  0  0  0  0
  197.2240  174.7600  140.5240 O   0  0  0  0  0  1  0  0  0  0  0  0
  189.2210  174.1880  136.7800 C   0  0  0  0  0  2  0  0  0  0  0  0
  189.1080  175.9670  136.9850 S   0  0  0  0  0  0  0  0  0  0  0  0
  189.8500  176.6280  135.8630 O   0  0  0  0  0  0  0  0  0  0  0  0
  187.6680  176.3810  136.9290 O   0  0  0  0  0  0  0  0  0  0  0  0
  191.1500  176.5160  138.7430 C   0  0  0  0  0  3  0  0  0  0  0  0
  189.7740  176.5300  138.5060 C   0  0  0  0  0  0  0  0  0  0  0  0
  189.4120  177.5270  140.6990 C   0  0  0  0  0  0  0  0  0  0  0  0
  190.7940  177.4740  140.9450 C   0  0  0  0  0  0  0  0  0  0  0  0
  191.4740  178.0590  142.4560 Cl  0  0  0  0  0  0  0  0  0  0  0  0
  191.6580  176.9800  139.9610 C   0  0  0  0  0  3  0  0  0  0  0  0
  188.9130  177.0510  139.4770 C   0  0  0  0  0  3  0  0  0  0  0  0
  188.5250  178.0790  141.6810 N   0  0  0  0  0  2  0  0  0  0  0  0
  187.7550  177.2440  142.5960 C   0  0  0  0  0  2  0  0  0  0  0  0
  189.0500  176.8650  144.6680 C   0  0  0  0  0  2  0  0  0  0  0  0
  186.6540  177.5150  144.8310 C   0  0  0  0  0  2  0  0  0  0  0  0
  189.3150  177.2910  146.1120 C   0  0  1  0  0  3  0  0  0  0  0  0
  189.9880  178.4980  146.1280 F   0  0  0  0  0  0  0  0  0  0  0  0
  187.9480  177.7010  144.0310 C   0  0  2  0  0  3  0  0  0  0  0  0
  186.8610  177.9060  146.2260 N   0  0  0  0  0  0  0  0  0  0  0  0
  188.0440  177.4120  146.8860 C   0  0  0  0  0  0  0  0  0  0  0  0
  188.0240  177.0380  148.1590 C   0  0  0  0  0  2  0  0  0  0  0  0
  186.3550  179.9110  147.4700 C   0  0  0  0  0  2  0  0  0  0  0  0
  185.9310  178.7990  146.8760 C   0  0  0  0  0  0  0  0  0  0  0  0
  184.5630  178.4210  147.0430 N   0  0  0  0  0  1  0  0  0  0  0  0
  1  3  1  0  0  0  0
  1  2  2  0  0  0  0
  2 34  1  0  0  0  0
  3  4  2  0  0  0  0
  5  8  1  0  0  0  0
  6  4  1  1  0  0  0
  6  9  1  0  0  0  0
  6  7  1  0  0  0  0
  7  8  1  0  0  0  0
  8 10  1  6  0  0  0
  9  5  1  0  0  0  0
 11 10  1  6  0  0  0
 11 12  1  0  0  0  0
 12 14  1  0  0  0  0
 13 12  2  0  0  0  0
 15 16  1  1  0  0  0
 15 11  1  0  0  0  0
 15 18  1  0  0  0  0
 17 16  1  0  0  0  0
 18 19  1  0  0  0  0
 19 20  1  0  0  0  0
 21  2  1  0  0  0  0
 21 22  1  0  0  0  0
 22 23  1  6  0  0  0
 22 27  1  0  0  0  0
 24 28  1  0  0  0  0
 24 29  2  0  0  0  0
 25 26  1  0  0  0  0
 25 30  1  0  0  0  0
 27 24  1  0  0  0  0
 28 26  1  0  0  0  0
 29 25  1  0  0  0  0
 30 31  1  0  0  0  0
 31 32  2  0  0  0  0
 31 33  1  0  0  0  0
 34 35  1  0  0  0  0
 35 39  1  0  0  0  0
 36 35  2  0  0  0  0
 37 35  2  0  0  0  0
 38 43  1  0  0  0  0
 39 38  2  0  0  0  0
 39 44  1  0  0  0  0
 40 41  1  0  0  0  0
 40 45  1  0  0  0  0
 41 42  1  0  0  0  0
 43 41  2  0  0  0  0
 44 40  2  0  0  0  0
 45 46  1  0  0  0  0
 47 49  1  0  0  0  0
 48 52  1  0  0  0  0
 49 50  1  6  0  0  0
 49 53  1  0  0  0  0
 51 46  1  6  0  0  0
 51 47  1  0  0  0  0
 51 48  1  0  0  0  0
 52 56  1  0  0  0  0
 52 53  1  0  0  0  0
 53 54  2  0  0  0  0
 56 57  1  0  0  0  0
 56 55  2  0  0  0  0
M  END
>  <MODEL>
6

>  <REMARK>
 VINA RESULT:      -6.3      4.540     11.860
  Name = 
  21 active torsions:
  status: ('A' for Active; 'I' for Inactive)
    1  A    between atoms: C_1  and  O_28
    2  A    between atoms: C_3  and  C_30
    3  A    between atoms: S_4  and  C_12
    4  A    between atoms: S_4  and  C_17
    5  A    between atoms: C_9  and  C_25
    6  A    between atoms: N_11  and  C_41
    7  A    between atoms: CA_13  and  C_16
    8  A    between atoms: CA_13  and  C_30
    9  A    between atoms: CA_13  and  N_53
   10  A    between atoms: C_14  and  C_22
   11  A    between atoms: C_17  and  C_48
   12  A    between atoms: C_18  and  N_35
   13  A    between atoms: C_21  and  C_34
   14  A    between atoms: C_21  and  N_47
   15  A    between atoms: C_23  and  C_41
   16  A    between atoms: C_27  and  N_47
   17  A    between atoms: O_28  and  C_30
   18  A    between atoms: N_31  and  C_44
   19  A    between atoms: C_44  and  N_57
   20  A    between atoms: C_48  and  N_57
   21  A    between atoms: C_49  and  N_53
                            x       y       z     vdW  Elec       q    Type
                         _______ _______ _______ _____ _____    ______ ____

>  <TORSDO>
F 21

$$$$
=
 OpenBabel10232409143D

 57 60  0  0  1  0  0  0  0  0999 V2000
  188.0430  178.1470  142.8120 C   0  0  0  0  0  3  0  0  0  0  0  0
  187.0310  178.0560  143.6750 C   0  0  0  0  0  0  0  0  0  0  0  0
  187.9530  177.6490  141.4390 C   0  0  0  0  0  3  0  0  0  0  0  0
  187.9540  178.4730  140.4070 C   0  0  0  0  0  3  0  0  0  0  0  0
  187.4640  178.3750  136.4950 S   0  0  0  0  0  0  0  0  0  0  0  0
  187.8900  177.9150  139.0280 C   0  0  2  0  0  3  0  0  0  0  0  0
  189.2570  177.8460  138.4040 C   0  0  0  0  0  2  0  0  0  0  0  0
  189.0110  177.5280  136.9520 C   0  0  1  0  0  3  0  0  0  0  0  0
  187.0460  178.7320  138.1770 N   0  0  0  0  0  2  0  0  0  0  0  0
  188.8260  176.0960  136.7970 N   0  0  0  0  0  2  0  0  0  0  0  0
  189.3920  175.7160  135.5140 C   0  0  2  0  0  3  0  0  0  0  0  0
  188.4060  174.8650  134.7790 C   0  0  0  0  0  0  0  0  0  0  0  0
  188.6220  173.4950  134.6320 O   0  0  0  0  0  1  0  0  0  0  0  0
  187.3370  175.3780  134.3610 O   0  0  0  0  0  0  0  0  0  0  0  0
  190.7220  174.9790  135.7310 C   0  0  1  0  0  3  0  0  0  0  0  0
  190.6530  174.0090  136.9120 C   0  0  0  0  0  2  0  0  0  0  0  0
  191.0410  174.6440  138.0950 O   0  0  0  0  0  1  0  0  0  0  0  0
  191.0850  174.2860  134.5690 O   0  0  0  0  0  0  0  0  0  0  0  0
  192.2250  173.5640  134.9210 C   0  0  0  0  0  2  0  0  0  0  0  0
  193.4270  174.4900  134.9390 C   0  0  0  0  0  1  0  0  0  0  0  0
  187.2600  178.4540  145.0340 N   0  0  0  0  0  2  0  0  0  0  0  0
  186.9180  177.6470  146.2030 C   0  0  2  0  0  3  0  0  0  0  0  0
  185.7950  178.2950  146.9790 C   0  0  0  0  0  1  0  0  0  0  0  0
  189.3390  177.0330  146.5690 C   0  0  0  0  0  0  0  0  0  0  0  0
  190.8750  176.5290  145.0210 N   0  0  0  0  0  0  0  0  0  0  0  0
  191.7830  176.5680  146.1470 C   0  0  0  0  0  2  0  0  0  0  0  0
  188.0680  177.4490  147.0690 N   0  0  0  0  0  2  0  0  0  0  0  0
  190.7690  176.9090  147.6290 S   0  0  0  0  0  0  0  0  0  0  0  0
  189.5480  176.8220  145.3190 N   0  0  0  0  0  0  0  0  0  0  0  0
  191.3160  176.2800  143.6580 C   0  0  0  0  0  2  0  0  0  0  0  0
  191.6020  177.5710  142.9680 C   0  0  0  0  0  0  0  0  0  0  0  0
  191.6730  178.6380  143.6310 O   0  0  0  0  0  1  0  0  0  0  0  0
  191.7520  177.6010  141.5870 O   0  0  0  0  0  0  0  0  0  0  0  0
  185.7080  177.4690  143.2630 C   0  0  0  0  0  2  0  0  0  0  0  0
  184.5500  178.7360  142.7370 S   0  0  0  0  0  0  0  0  0  0  0  0
  183.3640  178.7120  143.6540 O   0  0  0  0  0  0  0  0  0  0  0  0
  185.2110  180.0780  142.8270 O   0  0  0  0  0  0  0  0  0  0  0  0
  184.1030  179.5400  140.1460 C   0  0  0  0  0  3  0  0  0  0  0  0
  183.9890  178.5170  141.0900 C   0  0  0  0  0  0  0  0  0  0  0  0
  183.0260  177.0630  139.3910 C   0  0  0  0  0  0  0  0  0  0  0  0
  183.1080  178.1080  138.4570 C   0  0  0  0  0  0  0  0  0  0  0  0
  182.5730  177.8930  136.7970 Cl  0  0  0  0  0  0  0  0  0  0  0  0
  183.6570  179.3390  138.8350 C   0  0  0  0  0  3  0  0  0  0  0  0
  183.4680  177.2790  140.7050 C   0  0  0  0  0  3  0  0  0  0  0  0
  182.5120  175.7840  138.9980 N   0  0  0  0  0  2  0  0  0  0  0  0
  181.6110  175.6190  137.8630 C   0  0  0  0  0  2  0  0  0  0  0  0
  181.0330  173.3490  137.0700 C   0  0  0  0  0  2  0  0  0  0  0  0
  183.4210  173.9350  137.4510 C   0  0  0  0  0  2  0  0  0  0  0  0
  181.4130  172.1630  136.1830 C   0  0  1  0  0  3  0  0  0  0  0  0
  181.2010  172.4850  134.8560 F   0  0  0  0  0  0  0  0  0  0  0  0
  182.0620  174.4680  136.9820 C   0  0  2  0  0  3  0  0  0  0  0  0
  183.8250  172.7910  136.6320 N   0  0  0  0  0  0  0  0  0  0  0  0
  182.8390  171.7690  136.3850 C   0  0  0  0  0  0  0  0  0  0  0  0
  183.1640  170.4820  136.3570 C   0  0  0  0  0  2  0  0  0  0  0  0
  185.3220  172.5450  134.7550 C   0  0  0  0  0  2  0  0  0  0  0  0
  185.1500  172.7400  136.0590 C   0  0  0  0  0  0  0  0  0  0  0  0
  186.3020  172.7250  136.9040 N   0  0  0  0  0  1  0  0  0  0  0  0
  1  2  2  0  0  0  0
  2 21  1  0  0  0  0
  3  1  1  0  0  0  0
  4  3  2  0  0  0  0
  5  8  1  0  0  0  0
  5  9  1  0  0  0  0
  6  4  1  1  0  0  0
  7  6  1  0  0  0  0
  8 10  1  1  0  0  0
  8  7  1  0  0  0  0
  9  6  1  0  0  0  0
 11 12  1  1  0  0  0
 11 15  1  0  0  0  0
 11 10  1  0  0  0  0
 13 12  1  0  0  0  0
 14 12  2  0  0  0  0
 15 16  1  1  0  0  0
 16 17  1  0  0  0  0
 18 19  1  0  0  0  0
 18 15  1  0  0  0  0
 19 20  1  0  0  0  0
 21 22  1  0  0  0  0
 22 23  1  1  0  0  0
 22 27  1  0  0  0  0
 24 27  1  0  0  0  0
 24 28  1  0  0  0  0
 25 29  1  0  0  0  0
 25 26  1  0  0  0  0
 26 28  1  0  0  0  0
 29 24  2  0  0  0  0
 30 25  1  0  0  0  0
 31 32  1  0  0  0  0
 31 30  1  0  0  0  0
 33 31  2  0  0  0  0
 34  2  1  0  0  0  0
 35 37  2  0  0  0  0
 35 34  1  0  0  0  0
 35 36  2  0  0  0  0
 38 39  1  0  0  0  0
 39 35  1  0  0  0  0
 40 44  1  0  0  0  0
 41 43  1  0  0  0  0
 41 40  2  0  0  0  0
 42 41  1  0  0  0  0
 43 38  2  0  0  0  0
 44 39  2  0  0  0  0
 45 40  1  0  0  0  0
 46 45  1  0  0  0  0
 49 50  1  6  0  0  0
 49 53  1  0  0  0  0
 49 47  1  0  0  0  0
 51 47  1  0  0  0  0
 51 48  1  0  0  0  0
 51 46  1  1  0  0  0
 52 48  1  0  0  0  0
 53 52  1  0  0  0  0
 54 53  2  0  0  0  0
 55 56  2  0  0  0  0
 56 52  1  0  0  0  0
 56 57  1  0  0  0  0
M  END
>  <MODEL>
7

>  <REMARK>
 VINA RESULT:      -6.2      3.366      9.185
  Name = 
  21 active torsions:
  status: ('A' for Active; 'I' for Inactive)
    1  A    between atoms: C_1  and  O_28
    2  A    between atoms: C_3  and  C_30
    3  A    between atoms: S_4  and  C_12
    4  A    between atoms: S_4  and  C_17
    5  A    between atoms: C_9  and  C_25
    6  A    between atoms: N_11  and  C_41
    7  A    between atoms: CA_13  and  C_16
    8  A    between atoms: CA_13  and  C_30
    9  A    between atoms: CA_13  and  N_53
   10  A    between atoms: C_14  and  C_22
   11  A    between atoms: C_17  and  C_48
   12  A    between atoms: C_18  and  N_35
   13  A    between atoms: C_21  and  C_34
   14  A    between atoms: C_21  and  N_47
   15  A    between atoms: C_23  and  C_41
   16  A    between atoms: C_27  and  N_47
   17  A    between atoms: O_28  and  C_30
   18  A    between atoms: N_31  and  C_44
   19  A    between atoms: C_44  and  N_57
   20  A    between atoms: C_48  and  N_57
   21  A    between atoms: C_49  and  N_53
                            x       y       z     vdW  Elec       q    Type
                         _______ _______ _______ _____ _____    ______ ____

>  <TORSDO>
F 21

$$$$
=
 OpenBabel10232409143D

 57 60  0  0  1  0  0  0  0  0999 V2000
  191.9050  176.8370  137.8680 C   0  0  0  0  0  3  0  0  0  0  0  0
  190.6450  176.4620  138.0910 C   0  0  0  0  0  0  0  0  0  0  0  0
  192.9100  175.9310  137.3120 C   0  0  0  0  0  3  0  0  0  0  0  0
  193.8530  175.4020  138.0700 C   0  0  0  0  0  3  0  0  0  0  0  0
  197.3290  173.9920  136.8510 S   0  0  0  0  0  0  0  0  0  0  0  0
  194.8360  174.4630  137.4620 C   0  0  2  0  0  3  0  0  0  0  0  0
  195.2680  173.4120  138.4490 C   0  0  0  0  0  2  0  0  0  0  0  0
  196.4360  172.7180  137.7990 C   0  0  1  0  0  3  0  0  0  0  0  0
  196.0190  175.1710  137.0110 N   0  0  0  0  0  2  0  0  0  0  0  0
  195.9450  171.7070  136.8790 N   0  0  0  0  0  2  0  0  0  0  0  0
  196.1430  170.4110  137.5030 C   0  0  2  0  0  3  0  0  0  0  0  0
  197.4420  169.8370  137.0320 C   0  0  0  0  0  0  0  0  0  0  0  0
  198.6240  170.0960  137.7250 O   0  0  0  0  0  1  0  0  0  0  0  0
  197.4510  169.0500  136.0520 O   0  0  0  0  0  0  0  0  0  0  0  0
  194.9630  169.4870  137.1680 C   0  0  1  0  0  3  0  0  0  0  0  0
  194.5240  168.6580  138.3760 C   0  0  0  0  0  2  0  0  0  0  0  0
  194.9660  169.2460  139.5640 O   0  0  0  0  0  1  0  0  0  0  0  0
  193.8810  170.2390  136.6910 O   0  0  0  0  0  0  0  0  0  0  0  0
  193.0800  169.3250  136.0080 C   0  0  0  0  0  2  0  0  0  0  0  0
  193.9550  168.3570  135.2350 C   0  0  0  0  0  1  0  0  0  0  0  0
  189.7700  177.3820  138.7580 N   0  0  0  0  0  2  0  0  0  0  0  0
  189.8680  177.7420  140.1710 C   0  0  2  0  0  3  0  0  0  0  0  0
  190.9190  176.9010  140.8560 C   0  0  0  0  0  1  0  0  0  0  0  0
  188.4690  177.6530  142.2700 C   0  0  0  0  0  0  0  0  0  0  0  0
  189.1380  177.9980  144.3780 N   0  0  0  0  0  0  0  0  0  0  0  0
  187.7200  177.9330  144.6640 C   0  0  0  0  0  2  0  0  0  0  0  0
  188.5920  177.5890  140.8490 N   0  0  0  0  0  2  0  0  0  0  0  0
  186.8800  177.5810  143.0790 S   0  0  0  0  0  0  0  0  0  0  0  0
  189.4780  177.8650  143.0360 N   0  0  0  0  0  0  0  0  0  0  0  0
  190.1370  178.2630  145.4000 C   0  0  0  0  0  2  0  0  0  0  0  0
  190.6550  176.9800  145.9560 C   0  0  0  0  0  0  0  0  0  0  0  0
  190.2120  176.5430  147.0500 O   0  0  0  0  0  1  0  0  0  0  0  0
  191.6530  176.2860  145.2840 O   0  0  0  0  0  0  0  0  0  0  0  0
  190.1720  175.0780  137.7350 C   0  0  0  0  0  2  0  0  0  0  0  0
  189.1720  175.0770  136.2450 S   0  0  0  0  0  0  0  0  0  0  0  0
  188.7990  176.4910  135.9150 O   0  0  0  0  0  0  0  0  0  0  0  0
  189.9710  174.5050  135.1130 O   0  0  0  0  0  0  0  0  0  0  0  0
  187.7390  172.7370  136.4220 C   0  0  0  0  0  3  0  0  0  0  0  0
  187.7020  174.1320  136.4010 C   0  0  0  0  0  0  0  0  0  0  0  0
  185.2870  174.0690  136.7040 C   0  0  0  0  0  0  0  0  0  0  0  0
  185.3260  172.6650  136.6860 C   0  0  0  0  0  0  0  0  0  0  0  0
  183.8640  171.7090  136.8670 Cl  0  0  0  0  0  0  0  0  0  0  0  0
  186.5540  172.0050  136.5570 C   0  0  0  0  0  3  0  0  0  0  0  0
  186.4800  174.7920  136.5590 C   0  0  0  0  0  3  0  0  0  0  0  0
  184.0400  174.7520  136.8880 N   0  0  0  0  0  2  0  0  0  0  0  0
  183.7670  176.0540  136.2880 C   0  0  0  0  0  2  0  0  0  0  0  0
  182.1920  177.9390  136.5710 C   0  0  0  0  0  2  0  0  0  0  0  0
  184.2080  177.8080  138.0230 C   0  0  0  0  0  2  0  0  0  0  0  0
  181.4960  178.8960  137.5390 C   0  0  1  0  0  3  0  0  0  0  0  0
  180.5280  178.2170  138.2540 F   0  0  0  0  0  0  0  0  0  0  0  0
  183.1320  176.9890  137.3010 C   0  0  2  0  0  3  0  0  0  0  0  0
  183.5870  178.7460  138.9590 N   0  0  0  0  0  0  0  0  0  0  0  0
  182.4720  179.5220  138.4800 C   0  0  0  0  0  0  0  0  0  0  0  0
  182.3040  180.7910  138.8360 C   0  0  0  0  0  2  0  0  0  0  0  0
  183.3080  178.3940  141.3310 C   0  0  0  0  0  2  0  0  0  0  0  0
  184.0580  178.8300  140.3220 C   0  0  0  0  0  0  0  0  0  0  0  0
  185.2600  179.5380  140.6300 N   0  0  0  0  0  1  0  0  0  0  0  0
  1  2  2  0  0  0  0
  2 21  1  0  0  0  0
  3  1  1  0  0  0  0
  3  4  2  0  0  0  0
  5  9  1  0  0  0  0
  5  8  1  0  0  0  0
  6  4  1  1  0  0  0
  6  7  1  0  0  0  0
  8 10  1  6  0  0  0
  8  7  1  0  0  0  0
  9  6  1  0  0  0  0
 11 10  1  6  0  0  0
 12 11  1  0  0  0  0
 12 13  1  0  0  0  0
 14 12  2  0  0  0  0
 15 11  1  0  0  0  0
 15 16  1  1  0  0  0
 16 17  1  0  0  0  0
 18 15  1  0  0  0  0
 19 18  1  0  0  0  0
 20 19  1  0  0  0  0
 21 22  1  0  0  0  0
 22 27  1  0  0  0  0
 22 23  1  1  0  0  0
 24 29  2  0  0  0  0
 24 28  1  0  0  0  0
 25 26  1  0  0  0  0
 25 30  1  0  0  0  0
 27 24  1  0  0  0  0
 28 26  1  0  0  0  0
 29 25  1  0  0  0  0
 30 31  1  0  0  0  0
 31 32  1  0  0  0  0
 33 31  2  0  0  0  0
 34  2  1  0  0  0  0
 35 39  1  0  0  0  0
 35 34  1  0  0  0  0
 36 35  2  0  0  0  0
 37 35  2  0  0  0  0
 38 43  1  0  0  0  0
 39 38  2  0  0  0  0
 39 44  1  0  0  0  0
 40 45  1  0  0  0  0
 41 40  1  0  0  0  0
 41 42  1  0  0  0  0
 43 41  2  0  0  0  0
 44 40  2  0  0  0  0
 46 45  1  0  0  0  0
 47 51  1  0  0  0  0
 47 49  1  0  0  0  0
 48 52  1  0  0  0  0
 49 50  1  1  0  0  0
 49 53  1  0  0  0  0
 51 46  1  6  0  0  0
 51 48  1  0  0  0  0
 52 56  1  0  0  0  0
 53 54  2  0  0  0  0
 53 52  1  0  0  0  0
 56 57  1  0  0  0  0
 56 55  2  0  0  0  0
M  END
>  <MODEL>
8

>  <REMARK>
 VINA RESULT:      -6.2      4.662     10.677
  Name = 
  21 active torsions:
  status: ('A' for Active; 'I' for Inactive)
    1  A    between atoms: C_1  and  O_28
    2  A    between atoms: C_3  and  C_30
    3  A    between atoms: S_4  and  C_12
    4  A    between atoms: S_4  and  C_17
    5  A    between atoms: C_9  and  C_25
    6  A    between atoms: N_11  and  C_41
    7  A    between atoms: CA_13  and  C_16
    8  A    between atoms: CA_13  and  C_30
    9  A    between atoms: CA_13  and  N_53
   10  A    between atoms: C_14  and  C_22
   11  A    between atoms: C_17  and  C_48
   12  A    between atoms: C_18  and  N_35
   13  A    between atoms: C_21  and  C_34
   14  A    between atoms: C_21  and  N_47
   15  A    between atoms: C_23  and  C_41
   16  A    between atoms: C_27  and  N_47
   17  A    between atoms: O_28  and  C_30
   18  A    between atoms: N_31  and  C_44
   19  A    between atoms: C_44  and  N_57
   20  A    between atoms: C_48  and  N_57
   21  A    between atoms: C_49  and  N_53
                            x       y       z     vdW  Elec       q    Type
                         _______ _______ _______ _____ _____    ______ ____

>  <TORSDO>
F 21

$$$$
=
 OpenBabel10232409143D

 57 60  0  0  1  0  0  0  0  0999 V2000
  187.9530  178.1700  142.9680 C   0  0  0  0  0  3  0  0  0  0  0  0
  186.6860  178.1950  143.3830 C   0  0  0  0  0  0  0  0  0  0  0  0
  188.3570  177.5420  141.7080 C   0  0  0  0  0  3  0  0  0  0  0  0
  189.6250  177.4800  141.3470 C   0  0  0  0  0  3  0  0  0  0  0  0
  189.8310  176.8160  137.4640 S   0  0  0  0  0  0  0  0  0  0  0  0
  189.9870  176.8060  140.0700 C   0  0  2  0  0  3  0  0  0  0  0  0
  191.3660  177.2010  139.6170 C   0  0  0  0  0  2  0  0  0  0  0  0
  191.4870  176.6710  138.2120 C   0  0  1  0  0  3  0  0  0  0  0  0
  189.0510  177.1520  139.0170 N   0  0  0  0  0  2  0  0  0  0  0  0
  191.8600  175.2690  138.2550 N   0  0  0  0  0  2  0  0  0  0  0  0
  192.5170  174.9500  136.9990 C   0  0  2  0  0  3  0  0  0  0  0  0
  191.9520  173.6720  136.4650 C   0  0  0  0  0  0  0  0  0  0  0  0
  190.5720  173.4780  136.4050 O   0  0  0  0  0  1  0  0  0  0  0  0
  192.7270  172.8020  135.9940 O   0  0  0  0  0  0  0  0  0  0  0  0
  194.0340  174.8480  137.2170 C   0  0  1  0  0  3  0  0  0  0  0  0
  194.8190  175.5840  136.1290 C   0  0  0  0  0  2  0  0  0  0  0  0
  194.5800  176.9590  136.1930 O   0  0  0  0  0  1  0  0  0  0  0  0
  194.3760  175.3600  138.4760 O   0  0  0  0  0  0  0  0  0  0  0  0
  195.4290  174.5590  138.9160 C   0  0  0  0  0  2  0  0  0  0  0  0
  195.2150  173.1330  138.4450 C   0  0  0  0  0  1  0  0  0  0  0  0
  186.4110  178.7180  144.6890 N   0  0  0  0  0  2  0  0  0  0  0  0
  185.8260  177.9470  145.7840 C   0  0  2  0  0  3  0  0  0  0  0  0
  184.3880  178.3550  146.0050 C   0  0  0  0  0  1  0  0  0  0  0  0
  187.9530  177.7340  147.1250 C   0  0  0  0  0  0  0  0  0  0  0  0
  189.9580  177.0360  146.4150 N   0  0  0  0  0  0  0  0  0  0  0  0
  190.3900  177.4660  147.7280 C   0  0  0  0  0  2  0  0  0  0  0  0
  186.5810  178.1110  147.0140 N   0  0  0  0  0  2  0  0  0  0  0  0
  188.8970  178.0500  148.6070 S   0  0  0  0  0  0  0  0  0  0  0  0
  188.6090  177.2380  146.1380 N   0  0  0  0  0  0  0  0  0  0  0  0
  190.8730  176.5030  145.4180 C   0  0  0  0  0  2  0  0  0  0  0  0
  191.2760  177.5770  144.4650 C   0  0  0  0  0  0  0  0  0  0  0  0
  190.9510  178.7720  144.6890 O   0  0  0  0  0  1  0  0  0  0  0  0
  191.9790  177.2530  143.3120 O   0  0  0  0  0  0  0  0  0  0  0  0
  185.5820  177.6110  142.5440 C   0  0  0  0  0  2  0  0  0  0  0  0
  184.3690  178.8500  142.0800 S   0  0  0  0  0  0  0  0  0  0  0  0
  183.3150  178.9120  143.1430 O   0  0  0  0  0  0  0  0  0  0  0  0
  185.0410  180.1860  141.9780 O   0  0  0  0  0  0  0  0  0  0  0  0
  183.2630  179.5460  139.6600 C   0  0  0  0  0  3  0  0  0  0  0  0
  183.5940  178.5150  140.5420 C   0  0  0  0  0  0  0  0  0  0  0  0
  182.7530  176.8820  138.9430 C   0  0  0  0  0  0  0  0  0  0  0  0
  182.3870  177.9260  138.0780 C   0  0  0  0  0  0  0  0  0  0  0  0
  181.6340  177.6010  136.5240 Cl  0  0  0  0  0  0  0  0  0  0  0  0
  182.6540  179.2530  138.4350 C   0  0  0  0  0  3  0  0  0  0  0  0
  183.3540  177.1880  140.1730 C   0  0  0  0  0  3  0  0  0  0  0  0
  182.5300  175.5180  138.5630 N   0  0  0  0  0  2  0  0  0  0  0  0
  182.3000  175.1210  137.1780 C   0  0  0  0  0  2  0  0  0  0  0  0
  183.6780  173.0760  137.3590 C   0  0  0  0  0  2  0  0  0  0  0  0
  184.7760  175.2400  136.8110 C   0  0  0  0  0  2  0  0  0  0  0  0
  184.8690  172.2790  136.8270 C   0  0  1  0  0  3  0  0  0  0  0  0
  184.5590  171.7440  135.5910 F   0  0  0  0  0  0  0  0  0  0  0  0
  183.5110  174.3960  136.6190 C   0  0  2  0  0  3  0  0  0  0  0  0
  185.9480  174.5140  136.3200 N   0  0  0  0  0  0  0  0  0  0  0  0
  186.0880  173.1340  136.7140 C   0  0  0  0  0  0  0  0  0  0  0  0
  187.2730  172.6120  137.0040 C   0  0  0  0  0  2  0  0  0  0  0  0
  186.8880  176.4840  135.2890 C   0  0  0  0  0  2  0  0  0  0  0  0
  186.8840  175.1610  135.4300 C   0  0  0  0  0  0  0  0  0  0  0  0
  187.7060  174.3840  134.5570 N   0  0  0  0  0  1  0  0  0  0  0  0
  1  2  2  0  0  0  0
  2 21  1  0  0  0  0
  3  1  1  0  0  0  0
  4  3  2  0  0  0  0
  5  8  1  0  0  0  0
  5  9  1  0  0  0  0
  6  4  1  1  0  0  0
  7  6  1  0  0  0  0
  8 10  1  1  0  0  0
  8  7  1  0  0  0  0
  9  6  1  0  0  0  0
 11 12  1  1  0  0  0
 11 15  1  0  0  0  0
 11 10  1  0  0  0  0
 13 12  1  0  0  0  0
 14 12  2  0  0  0  0
 15 16  1  6  0  0  0
 15 18  1  0  0  0  0
 16 17  1  0  0  0  0
 18 19  1  0  0  0  0
 20 19  1  0  0  0  0
 21 22  1  0  0  0  0
 22 23  1  1  0  0  0
 22 27  1  0  0  0  0
 24 28  1  0  0  0  0
 25 26  1  0  0  0  0
 26 28  1  0  0  0  0
 27 24  1  0  0  0  0
 29 25  1  0  0  0  0
 29 24  2  0  0  0  0
 30 25  1  0  0  0  0
 31 32  1  0  0  0  0
 31 30  1  0  0  0  0
 33 31  2  0  0  0  0
 34  2  1  0  0  0  0
 35 34  1  0  0  0  0
 35 36  2  0  0  0  0
 37 35  2  0  0  0  0
 38 39  1  0  0  0  0
 39 35  1  0  0  0  0
 40 44  1  0  0  0  0
 41 43  1  0  0  0  0
 41 40  2  0  0  0  0
 42 41  1  0  0  0  0
 43 38  2  0  0  0  0
 44 39  2  0  0  0  0
 45 40  1  0  0  0  0
 46 45  1  0  0  0  0
 49 50  1  6  0  0  0
 49 47  1  0  0  0  0
 51 48  1  0  0  0  0
 51 46  1  1  0  0  0
 51 47  1  0  0  0  0
 52 53  1  0  0  0  0
 52 48  1  0  0  0  0
 53 49  1  0  0  0  0
 53 54  2  0  0  0  0
 55 56  2  0  0  0  0
 56 52  1  0  0  0  0
 57 56  1  0  0  0  0
M  END
>  <MODEL>
9

>  <REMARK>
 VINA RESULT:      -6.1      3.170      8.435
  Name = 
  21 active torsions:
  status: ('A' for Active; 'I' for Inactive)
    1  A    between atoms: C_1  and  O_28
    2  A    between atoms: C_3  and  C_30
    3  A    between atoms: S_4  and  C_12
    4  A    between atoms: S_4  and  C_17
    5  A    between atoms: C_9  and  C_25
    6  A    between atoms: N_11  and  C_41
    7  A    between atoms: CA_13  and  C_16
    8  A    between atoms: CA_13  and  C_30
    9  A    between atoms: CA_13  and  N_53
   10  A    between atoms: C_14  and  C_22
   11  A    between atoms: C_17  and  C_48
   12  A    between atoms: C_18  and  N_35
   13  A    between atoms: C_21  and  C_34
   14  A    between atoms: C_21  and  N_47
   15  A    between atoms: C_23  and  C_41
   16  A    between atoms: C_27  and  N_47
   17  A    between atoms: O_28  and  C_30
   18  A    between atoms: N_31  and  C_44
   19  A    between atoms: C_44  and  N_57
   20  A    between atoms: C_48  and  N_57
   21  A    between atoms: C_49  and  N_53
                            x       y       z     vdW  Elec       q    Type
                         _______ _______ _______ _____ _____    ______ ____

>  <TORSDO>
F 21

$$$$
