=
 OpenBabel10232409063D

 28 33  0  0  1  0  0  0  0  0999 V2000
  189.2000  177.8360  147.9290 C   0  0  0  0  0  3  0  0  0  0  0  0
  190.7320  176.7130  145.4320 C   0  0  0  0  0  3  0  0  0  0  0  0
  188.3020  177.5080  140.8130 C   0  0  0  0  0  3  0  0  0  0  0  0
  188.3230  177.9960  146.9460 C   0  0  0  0  0  3  0  0  0  0  0  0
  183.0850  179.7590  143.5190 O   0  0  0  0  0  0  0  0  0  0  0  0
  184.2720  178.3190  146.4780 C   0  0  0  0  0  3  0  0  0  0  0  0
  185.5150  179.1240  142.4940 C   0  0  0  0  0  3  0  0  0  0  0  0
  188.0670  177.4840  143.3380 C   0  0  2  0  0  3  0  0  0  0  0  0
  187.5870  177.7680  142.1080 C   0  0  0  0  0  0  0  0  0  0  0  0
  189.5550  177.0640  144.8960 C   0  0  0  0  0  0  0  0  0  0  0  0
  186.6200  178.9970  140.3970 N   0  0  0  0  0  0  0  0  0  0  0  0
  185.1840  178.8370  143.8970 C   0  0  0  0  0  0  0  0  0  0  0  0
  187.4870  177.8560  144.5530 C   0  0  0  0  0  0  0  0  0  0  0  0
  183.8820  179.1940  144.3160 C   0  0  0  0  0  0  0  0  0  0  0  0
  187.7080  178.3660  139.7780 N   0  0  0  0  0  0  0  0  0  0  0  0
  188.4640  177.6240  145.5310 C   0  0  0  0  0  0  0  0  0  0  0  0
  186.0660  178.2410  144.8350 C   0  0  0  0  0  0  0  0  0  0  0  0
  190.5410  177.2510  147.8640 C   0  0  0  0  0  3  0  0  0  0  0  0
  185.5680  177.9730  146.1200 C   0  0  0  0  0  2  0  0  0  0  0  0
  189.2860  176.9140  143.5740 N   0  0  0  0  0  0  0  0  0  0  0  0
  191.2220  176.7700  146.8170 C   0  0  0  0  0  0  0  0  0  0  0  0
  186.5180  178.6690  141.7620 C   0  0  0  0  0  0  0  0  0  0  0  0
  183.4650  178.9260  145.5780 N   0  0  0  0  0  0  0  0  0  0  0  0
  191.2020  177.3410  142.0460 C   0  0  0  0  0  2  0  0  0  0  0  0
  190.2000  176.3210  142.5790 C   0  0  0  0  0  3  0  0  0  0  0  0
  191.6310  176.3630  143.1060 C   0  0  0  0  0  2  0  0  0  0  0  0
  192.9510  175.7110  148.2620 C   0  0  0  0  0  1  0  0  0  0  0  0
  192.5100  176.2520  147.0190 O   0  0  0  0  0  0  0  0  0  0  0  0
  2 21  1  0  0  0  0
  3  9  2  0  0  0  0
  4  1  2  0  0  0  0
  5 14  2  0  0  0  0
  7 12  1  0  0  0  0
  8  9  1  6  0  0  0
  8 20  1  0  0  0  0
  8 13  1  0  0  0  0
 10  2  2  0  0  0  0
 10 16  1  0  0  0  0
 11 22  1  0  0  0  0
 12 14  1  0  0  0  0
 12 17  2  0  0  0  0
 13 17  1  0  0  0  0
 13 16  2  0  0  0  0
 14 23  1  0  0  0  0
 15 11  2  0  0  0  0
 15  3  1  0  0  0  0
 16  4  1  0  0  0  0
 17 19  1  0  0  0  0
 18  1  1  0  0  0  0
 19  6  1  0  0  0  0
 20 10  1  0  0  0  0
 21 28  1  0  0  0  0
 21 18  2  0  0  0  0
 22  9  1  0  0  0  0
 22  7  2  0  0  0  0
 23  6  2  0  0  0  0
 24 25  1  0  0  0  0
 24 26  1  0  0  0  0
 25 26  1  0  0  0  0
 25 20  1  0  0  0  0
 28 27  1  0  0  0  0
M  END
>  <MODEL>
1

>  <REMARK>
 VINA RESULT:     -11.1      0.000      0.000
  Name = 
  2 active torsions:
  status: ('A' for Active; 'I' for Inactive)
    1  A    between atoms: C_15  and  N_24
    2  A    between atoms: C_25  and  O_26
                            x       y       z     vdW  Elec       q    Type
                         _______ _______ _______ _____ _____    ______ ____

>  <TORSDO>
F 2

$$$$
=
 OpenBabel10232409063D

 28 33  0  0  0  0  0  0  0  0999 V2000
  191.0730  175.9460  143.0490 C   0  0  0  0  0  3  0  0  0  0  0  0
  190.3310  176.8890  145.9480 C   0  0  0  0  0  3  0  0  0  0  0  0
  185.4610  178.8680  146.4440 C   0  0  0  0  0  3  0  0  0  0  0  0
  189.9050  176.5500  142.8740 C   0  0  0  0  0  3  0  0  0  0  0  0
  184.3750  178.7420  140.2460 O   0  0  0  0  0  0  0  0  0  0  0  0
  187.8380  178.4130  139.8750 C   0  0  0  0  0  3  0  0  0  0  0  0
  184.8450  178.3900  142.8950 C   0  0  0  0  0  3  0  0  0  0  0  0
  187.3150  178.2150  144.8400 C   0  0  0  0  0  0  0  0  0  0  0  0
  186.0440  178.6030  145.0850 C   0  0  0  0  0  0  0  0  0  0  0  0
  189.2910  177.3460  145.2370 C   0  0  0  0  0  0  0  0  0  0  0  0
  183.7280  178.6050  144.9780 N   0  0  0  0  0  0  0  0  0  0  0  0
  185.9420  178.3490  141.9160 C   0  0  0  0  0  0  0  0  0  0  0  0
  187.8290  177.8180  143.6050 C   0  0  0  0  0  0  0  0  0  0  0  0
  185.5810  178.5640  140.5660 C   0  0  0  0  0  0  0  0  0  0  0  0
  183.9970  178.7810  146.3420 N   0  0  0  0  0  0  0  0  0  0  0  0
  189.0700  177.2260  143.8790 C   0  0  0  0  0  0  0  0  0  0  0  0
  187.3050  178.1120  142.2320 C   0  0  0  0  0  0  0  0  0  0  0  0
  191.8370  175.7880  144.2880 C   0  0  0  0  0  3  0  0  0  0  0  0
  188.2370  178.1740  141.1840 C   0  0  0  0  0  3  0  0  0  0  0  0
  188.2560  178.0110  145.8100 N   0  0  0  0  0  0  0  0  0  0  0  0
  191.5470  176.1720  145.5360 C   0  0  0  0  0  0  0  0  0  0  0  0
  184.9040  178.4980  144.2110 C   0  0  0  0  0  0  0  0  0  0  0  0
  186.5270  178.5940  139.5950 N   0  0  0  0  0  0  0  0  0  0  0  0
  187.8590  177.1330  148.1030 C   0  0  0  0  0  2  0  0  0  0  0  0
  188.1510  178.3570  147.2400 C   0  0  0  0  0  3  0  0  0  0  0  0
  189.2640  177.6640  148.0190 C   0  0  0  0  0  2  0  0  0  0  0  0
  192.0760  175.4100  147.8460 C   0  0  0  0  0  1  0  0  0  0  0  0
  192.4610  175.9020  146.5660 O   0  0  0  0  0  0  0  0  0  0  0  0
  1 18  1  0  0  0  0
  4  1  2  0  0  0  0
  4 16  1  0  0  0  0
  5 14  2  0  0  0  0
  6 19  1  0  0  0  0
  7 22  1  0  0  0  0
  8  9  2  0  0  0  0
  8 20  1  0  0  0  0
  9  3  1  0  0  0  0
 10 20  1  0  0  0  0
 10  2  2  0  0  0  0
 11 15  1  0  0  0  0
 12 17  1  0  0  0  0
 12  7  2  0  0  0  0
 13 16  2  0  0  0  0
 13  8  1  0  0  0  0
 14 12  1  0  0  0  0
 15  3  2  0  0  0  0
 16 10  1  0  0  0  0
 17 13  1  0  0  0  0
 18 21  2  0  0  0  0
 19 17  2  0  0  0  0
 20 25  1  0  0  0  0
 21  2  1  0  0  0  0
 21 28  1  0  0  0  0
 22 11  2  0  0  0  0
 22  9  1  0  0  0  0
 23  6  2  0  0  0  0
 23 14  1  0  0  0  0
 25 26  1  0  0  0  0
 25 24  1  0  0  0  0
 26 24  1  0  0  0  0
 28 27  1  0  0  0  0
M  END
>  <MODEL>
2

>  <REMARK>
 VINA RESULT:     -10.4      1.215      4.326
  Name = 
  2 active torsions:
  status: ('A' for Active; 'I' for Inactive)
    1  A    between atoms: C_15  and  N_24
    2  A    between atoms: C_25  and  O_26
                            x       y       z     vdW  Elec       q    Type
                         _______ _______ _______ _____ _____    ______ ____

>  <TORSDO>
F 2

$$$$
=
 OpenBabel10232409063D

 28 33  0  0  0  0  0  0  0  0999 V2000
  190.0630  177.8550  140.2320 C   0  0  0  0  0  3  0  0  0  0  0  0
  186.9800  178.2220  140.6870 C   0  0  0  0  0  3  0  0  0  0  0  0
  185.4950  178.3030  145.7530 C   0  0  0  0  0  3  0  0  0  0  0  0
  189.9320  177.6650  141.5380 C   0  0  0  0  0  2  0  0  0  0  0  0
  191.2270  176.7670  147.8470 O   0  0  0  0  0  0  0  0  0  0  0  0
  191.9050  175.7520  144.5690 C   0  0  0  0  0  3  0  0  0  0  0  0
  188.9260  177.7790  146.8250 C   0  0  0  0  0  3  0  0  0  0  0  0
  187.3360  177.7230  144.1080 C   0  0  0  0  0  0  0  0  0  0  0  0
  186.8890  177.8960  145.3710 C   0  0  0  0  0  0  0  0  0  0  0  0
  187.4090  177.9430  141.9260 C   0  0  0  0  0  0  0  0  0  0  0  0
  186.8450  178.6490  147.5630 N   0  0  0  0  0  0  0  0  0  0  0  0
  189.9180  177.1220  145.9610 C   0  0  0  0  0  0  0  0  0  0  0  0
  188.6610  177.4950  143.7300 C   0  0  0  0  0  0  0  0  0  0  0  0
  191.0690  176.6160  146.6060 C   0  0  0  0  0  0  0  0  0  0  0  0
  185.5300  178.8470  147.1180 N   0  0  0  0  0  0  0  0  0  0  0  0
  188.7000  177.6820  142.3410 C   0  0  0  0  0  0  0  0  0  0  0  0
  189.7950  176.9680  144.5560 C   0  0  0  0  0  0  0  0  0  0  0  0
  189.0180  178.1370  139.2450 C   0  0  0  0  0  3  0  0  0  0  0  0
  190.8030  176.2530  143.8880 C   0  0  0  0  0  2  0  0  0  0  0  0
  186.5690  177.8970  142.9910 N   0  0  0  0  0  0  0  0  0  0  0  0
  187.7010  178.3040  139.4080 C   0  0  0  0  0  0  0  0  0  0  0  0
  187.6680  178.0920  146.5670 C   0  0  0  0  0  0  0  0  0  0  0  0
  192.0180  175.9500  145.9020 N   0  0  0  0  0  0  0  0  0  0  0  0
  184.7250  179.5630  143.0840 C   0  0  0  0  0  2  0  0  0  0  0  0
  185.1080  178.0940  142.9350 C   0  0  0  0  0  3  0  0  0  0  0  0
  184.7500  178.9380  141.7160 C   0  0  0  0  0  2  0  0  0  0  0  0
  185.5950  178.0220  138.1110 C   0  0  0  0  0  1  0  0  0  0  0  0
  186.9010  178.5650  138.2850 O   0  0  0  0  0  0  0  0  0  0  0  0
  1  4  1  0  0  0  0
  2 10  1  0  0  0  0
  3 15  1  0  0  0  0
  4 16  1  0  0  0  0
  6 23  2  0  0  0  0
  8  9  1  0  0  0  0
  9  3  2  0  0  0  0
  9 22  1  0  0  0  0
 10 16  2  0  0  0  0
 10 20  1  0  0  0  0
 12 14  1  0  0  0  0
 12  7  1  0  0  0  0
 13  8  2  0  0  0  0
 13 17  1  0  0  0  0
 14  5  2  0  0  0  0
 15 11  2  0  0  0  0
 16 13  1  0  0  0  0
 17 12  2  0  0  0  0
 18 21  1  0  0  0  0
 18  1  2  0  0  0  0
 19 17  1  0  0  0  0
 19  6  1  0  0  0  0
 20  8  1  0  0  0  0
 21  2  2  0  0  0  0
 22  7  2  0  0  0  0
 22 11  1  0  0  0  0
 23 14  1  0  0  0  0
 25 20  1  0  0  0  0
 25 24  1  0  0  0  0
 26 25  1  0  0  0  0
 26 24  1  0  0  0  0
 27 28  1  0  0  0  0
 28 21  1  0  0  0  0
M  END
>  <MODEL>
3

>  <REMARK>
 VINA RESULT:     -10.4      2.166      6.874
  Name = 
  2 active torsions:
  status: ('A' for Active; 'I' for Inactive)
    1  A    between atoms: C_15  and  N_24
    2  A    between atoms: C_25  and  O_26
                            x       y       z     vdW  Elec       q    Type
                         _______ _______ _______ _____ _____    ______ ____

>  <TORSDO>
F 2

$$$$
=
 OpenBabel10232409063D

 28 33  0  0  0  0  0  0  0  0999 V2000
  185.2560  178.9880  146.1620 C   0  0  0  0  0  3  0  0  0  0  0  0
  188.0680  177.5980  146.2200 C   0  0  0  0  0  3  0  0  0  0  0  0
  190.3040  176.9460  141.4820 C   0  0  0  0  0  3  0  0  0  0  0  0
  185.5120  178.7840  144.8770 C   0  0  0  0  0  3  0  0  0  0  0  0
  185.1790  178.8800  138.3820 O   0  0  0  0  0  0  0  0  0  0  0  0
  183.4460  178.3440  141.3730 C   0  0  0  0  0  3  0  0  0  0  0  0
  187.4150  178.4300  139.8530 C   0  0  0  0  0  3  0  0  0  0  0  0
  188.1650  177.4480  142.7490 C   0  0  0  0  0  0  0  0  0  0  0  0
  188.8680  177.3700  141.5980 C   0  0  0  0  0  0  0  0  0  0  0  0
  187.8040  177.6270  144.9070 C   0  0  0  0  0  0  0  0  0  0  0  0
  189.7320  178.0180  139.5470 N   0  0  0  0  0  0  0  0  0  0  0  0
  186.0810  178.4140  140.4730 C   0  0  0  0  0  0  0  0  0  0  0  0
  186.8830  177.9830  142.8950 C   0  0  0  0  0  0  0  0  0  0  0  0
  184.9880  178.6420  139.6050 C   0  0  0  0  0  0  0  0  0  0  0  0
  190.8310  177.4470  140.2040 N   0  0  0  0  0  0  0  0  0  0  0  0
  186.6860  178.1330  144.2740 C   0  0  0  0  0  0  0  0  0  0  0  0
  185.8280  178.1890  141.8500 C   0  0  0  0  0  0  0  0  0  0  0  0
  186.0750  178.6250  147.3200 C   0  0  0  0  0  3  0  0  0  0  0  0
  184.4880  178.1380  142.2670 C   0  0  0  0  0  3  0  0  0  0  0  0
  188.6730  177.1460  143.9810 N   0  0  0  0  0  0  0  0  0  0  0  0
  187.2760  178.0380  147.3780 C   0  0  0  0  0  0  0  0  0  0  0  0
  188.5650  177.9900  140.3330 C   0  0  0  0  0  0  0  0  0  0  0  0
  183.7160  178.5980  140.0720 N   0  0  0  0  0  0  0  0  0  0  0  0
  191.0850  177.5220  144.4540 C   0  0  0  0  0  2  0  0  0  0  0  0
  189.9660  176.5010  144.2780 C   0  0  0  0  0  3  0  0  0  0  0  0
  190.4380  176.9130  145.6680 C   0  0  0  0  0  2  0  0  0  0  0  0
  189.1900  178.1650  148.9640 C   0  0  0  0  0  1  0  0  0  0  0  0
  187.8570  177.7900  148.6310 O   0  0  0  0  0  0  0  0  0  0  0  0
  1 18  1  0  0  0  0
  2 21  1  0  0  0  0
  3  9  1  0  0  0  0
  4  1  2  0  0  0  0
  5 14  2  0  0  0  0
  6 19  1  0  0  0  0
  7 22  1  0  0  0  0
  7 12  2  0  0  0  0
  8 13  1  0  0  0  0
  8 20  1  0  0  0  0
  9  8  2  0  0  0  0
 10  2  2  0  0  0  0
 11 15  1  0  0  0  0
 11 22  2  0  0  0  0
 12 17  1  0  0  0  0
 13 16  2  0  0  0  0
 14 23  1  0  0  0  0
 14 12  1  0  0  0  0
 15  3  2  0  0  0  0
 16  4  1  0  0  0  0
 16 10  1  0  0  0  0
 17 19  2  0  0  0  0
 17 13  1  0  0  0  0
 18 21  2  0  0  0  0
 20 25  1  0  0  0  0
 20 10  1  0  0  0  0
 21 28  1  0  0  0  0
 22  9  1  0  0  0  0
 23  6  2  0  0  0  0
 24 26  1  0  0  0  0
 25 24  1  0  0  0  0
 25 26  1  0  0  0  0
 28 27  1  0  0  0  0
M  END
>  <MODEL>
4

>  <REMARK>
 VINA RESULT:     -10.1      2.268      3.559
  Name = 
  2 active torsions:
  status: ('A' for Active; 'I' for Inactive)
    1  A    between atoms: C_15  and  N_24
    2  A    between atoms: C_25  and  O_26
                            x       y       z     vdW  Elec       q    Type
                         _______ _______ _______ _____ _____    ______ ____

>  <TORSDO>
F 2

$$$$
=
 OpenBabel10232409063D

 28 33  0  0  0  0  0  0  0  0999 V2000
  185.1280  179.1050  141.1310 C   0  0  0  0  0  3  0  0  0  0  0  0
  184.9470  178.3180  144.1630 C   0  0  0  0  0  3  0  0  0  0  0  0
  189.5660  177.0810  146.4000 C   0  0  0  0  0  3  0  0  0  0  0  0
  186.3550  178.6770  141.4000 C   0  0  0  0  0  3  0  0  0  0  0  0
  192.6920  177.2880  140.9420 O   0  0  0  0  0  0  0  0  0  0  0  0
  189.5560  177.1000  139.4010 C   0  0  0  0  0  3  0  0  0  0  0  0
  191.2960  177.6000  143.2470 C   0  0  0  0  0  3  0  0  0  0  0  0
  188.3070  177.4340  144.2270 C   0  0  0  0  0  0  0  0  0  0  0  0
  189.4560  177.2410  144.9110 C   0  0  0  0  0  0  0  0  0  0  0  0
  186.2190  178.0090  143.8760 C   0  0  0  0  0  0  0  0  0  0  0  0
  191.6460  177.5760  145.5950 N   0  0  0  0  0  0  0  0  0  0  0  0
  190.6080  177.4680  141.9540 C   0  0  0  0  0  0  0  0  0  0  0  0
  188.2020  177.7370  142.8680 C   0  0  0  0  0  0  0  0  0  0  0  0
  191.4370  177.2900  140.8230 C   0  0  0  0  0  0  0  0  0  0  0  0
  190.9500  177.3800  146.7960 N   0  0  0  0  0  0  0  0  0  0  0  0
  186.8750  178.1440  142.6680 C   0  0  0  0  0  0  0  0  0  0  0  0
  189.2010  177.5060  141.7750 C   0  0  0  0  0  0  0  0  0  0  0  0
  183.9710  179.1660  142.0260 C   0  0  0  0  0  3  0  0  0  0  0  0
  188.7030  177.2950  140.4790 C   0  0  0  0  0  3  0  0  0  0  0  0
  187.0720  177.5110  144.8060 N   0  0  0  0  0  0  0  0  0  0  0  0
  183.8620  178.8430  143.3200 C   0  0  0  0  0  0  0  0  0  0  0  0
  190.8030  177.5000  144.4700 C   0  0  0  0  0  0  0  0  0  0  0  0
  190.8960  177.1100  139.5930 N   0  0  0  0  0  0  0  0  0  0  0  0
  186.8970  178.4130  147.1170 C   0  0  0  0  0  2  0  0  0  0  0  0
  186.7230  177.2010  146.2060 C   0  0  0  0  0  3  0  0  0  0  0  0
  185.5230  178.0390  146.6330 C   0  0  0  0  0  2  0  0  0  0  0  0
  181.3910  179.1310  143.2590 C   0  0  0  0  0  1  0  0  0  0  0  0
  182.6230  178.9890  143.9600 O   0  0  0  0  0  0  0  0  0  0  0  0
  1  4  2  0  0  0  0
  1 18  1  0  0  0  0
  3 15  2  0  0  0  0
  4 16  1  0  0  0  0
  6 23  2  0  0  0  0
  6 19  1  0  0  0  0
  7 22  1  0  0  0  0
  8 20  1  0  0  0  0
  8  9  2  0  0  0  0
  9  3  1  0  0  0  0
 10  2  2  0  0  0  0
 10 20  1  0  0  0  0
 11 15  1  0  0  0  0
 12  7  2  0  0  0  0
 13  8  1  0  0  0  0
 14  5  2  0  0  0  0
 14 12  1  0  0  0  0
 16 13  2  0  0  0  0
 16 10  1  0  0  0  0
 17 12  1  0  0  0  0
 17 13  1  0  0  0  0
 18 21  2  0  0  0  0
 19 17  2  0  0  0  0
 20 25  1  0  0  0  0
 21 28  1  0  0  0  0
 21  2  1  0  0  0  0
 22  9  1  0  0  0  0
 22 11  2  0  0  0  0
 23 14  1  0  0  0  0
 25 26  1  0  0  0  0
 25 24  1  0  0  0  0
 26 24  1  0  0  0  0
 27 28  1  0  0  0  0
M  END
>  <MODEL>
5

>  <REMARK>
 VINA RESULT:      -9.9      2.231      7.082
  Name = 
  2 active torsions:
  status: ('A' for Active; 'I' for Inactive)
    1  A    between atoms: C_15  and  N_24
    2  A    between atoms: C_25  and  O_26
                            x       y       z     vdW  Elec       q    Type
                         _______ _______ _______ _____ _____    ______ ____

>  <TORSDO>
F 2

$$$$
=
 OpenBabel10232409063D

 28 33  0  0  0  0  0  0  0  0999 V2000
  183.5250  178.4290  142.4570 C   0  0  0  0  0  3  0  0  0  0  0  0
  185.8130  178.6010  140.3170 C   0  0  0  0  0  3  0  0  0  0  0  0
  190.6290  177.4330  142.1380 C   0  0  0  0  0  3  0  0  0  0  0  0
  184.6240  178.2730  143.1840 C   0  0  0  0  0  2  0  0  0  0  0  0
  188.6950  177.1010  148.1180 O   0  0  0  0  0  0  0  0  0  0  0  0
  185.8400  178.8190  147.0520 C   0  0  0  0  0  3  0  0  0  0  0  0
  189.3000  176.9130  145.4800 C   0  0  0  0  0  3  0  0  0  0  0  0
  188.2430  178.0490  142.7390 C   0  0  0  0  0  0  0  0  0  0  0  0
  189.4800  177.6310  143.0850 C   0  0  0  0  0  0  0  0  0  0  0  0
  186.5090  178.4310  141.4490 C   0  0  0  0  0  0  0  0  0  0  0  0
  191.1210  176.3270  144.0760 N   0  0  0  0  0  0  0  0  0  0  0  0
  188.0600  177.5630  145.9310 C   0  0  0  0  0  0  0  0  0  0  0  0
  187.1260  178.0920  143.5770 C   0  0  0  0  0  0  0  0  0  0  0  0
  187.8600  177.6190  147.3290 C   0  0  0  0  0  0  0  0  0  0  0  0
  191.6040  176.5380  142.7770 N   0  0  0  0  0  0  0  0  0  0  0  0
  186.0240  178.2920  142.7340 C   0  0  0  0  0  0  0  0  0  0  0  0
  187.0770  178.1210  145.0740 C   0  0  0  0  0  0  0  0  0  0  0  0
  183.4150  178.6550  141.0140 C   0  0  0  0  0  3  0  0  0  0  0  0
  185.9820  178.7660  145.6720 C   0  0  0  0  0  2  0  0  0  0  0  0
  187.8640  178.3540  141.4620 N   0  0  0  0  0  0  0  0  0  0  0  0
  184.3680  178.7280  140.0770 C   0  0  0  0  0  0  0  0  0  0  0  0
  189.8800  176.9540  144.2920 C   0  0  0  0  0  0  0  0  0  0  0  0
  186.7710  178.2410  147.8460 N   0  0  0  0  0  0  0  0  0  0  0  0
  189.0040  177.1450  139.6120 C   0  0  0  0  0  2  0  0  0  0  0  0
  188.7390  178.4900  140.2820 C   0  0  0  0  0  3  0  0  0  0  0  0
  187.9770  178.0760  139.0280 C   0  0  0  0  0  2  0  0  0  0  0  0
  182.8660  178.3550  138.1280 C   0  0  0  0  0  1  0  0  0  0  0  0
  183.9990  178.9600  138.7440 O   0  0  0  0  0  0  0  0  0  0  0  0
  1  4  1  0  0  0  0
  2 10  1  0  0  0  0
  3 15  2  0  0  0  0
  3  9  1  0  0  0  0
  6 23  2  0  0  0  0
  7 12  2  0  0  0  0
  8  9  2  0  0  0  0
  8 13  1  0  0  0  0
  9 22  1  0  0  0  0
 10 20  1  0  0  0  0
 10 16  2  0  0  0  0
 11 22  2  0  0  0  0
 12 14  1  0  0  0  0
 13 17  2  0  0  0  0
 14 23  1  0  0  0  0
 14  5  2  0  0  0  0
 15 11  1  0  0  0  0
 16  4  1  0  0  0  0
 16 13  1  0  0  0  0
 17 19  1  0  0  0  0
 17 12  1  0  0  0  0
 18  1  2  0  0  0  0
 19  6  1  0  0  0  0
 20  8  1  0  0  0  0
 21  2  2  0  0  0  0
 21 18  1  0  0  0  0
 22  7  1  0  0  0  0
 24 25  1  0  0  0  0
 25 20  1  0  0  0  0
 26 24  1  0  0  0  0
 26 25  1  0  0  0  0
 27 28  1  0  0  0  0
 28 21  1  0  0  0  0
M  END
>  <MODEL>
6

>  <REMARK>
 VINA RESULT:      -9.7      2.207      6.139
  Name = 
  2 active torsions:
  status: ('A' for Active; 'I' for Inactive)
    1  A    between atoms: C_15  and  N_24
    2  A    between atoms: C_25  and  O_26
                            x       y       z     vdW  Elec       q    Type
                         _______ _______ _______ _____ _____    ______ ____

>  <TORSDO>
F 2

$$$$
=
 OpenBabel10232409063D

 28 33  0  0  0  0  0  0  0  0999 V2000
  181.5840  178.5760  144.1020 C   0  0  0  0  0  3  0  0  0  0  0  0
  182.5750  179.1000  141.1710 C   0  0  0  0  0  3  0  0  0  0  0  0
  187.7120  178.1700  140.3820 C   0  0  0  0  0  3  0  0  0  0  0  0
  182.9010  178.4490  144.2070 C   0  0  0  0  0  2  0  0  0  0  0  0
  188.8600  177.2040  146.4940 O   0  0  0  0  0  0  0  0  0  0  0  0
  185.7890  178.7730  147.0850 C   0  0  0  0  0  3  0  0  0  0  0  0
  188.1450  177.2790  143.8770 C   0  0  0  0  0  3  0  0  0  0  0  0
  185.8800  178.5460  142.0950 C   0  0  0  0  0  0  0  0  0  0  0  0
  187.1450  178.1990  141.7720 C   0  0  0  0  0  0  0  0  0  0  0  0
  183.7300  178.8940  141.8180 C   0  0  0  0  0  0  0  0  0  0  0  0
  189.0990  176.9520  141.7290 N   0  0  0  0  0  0  0  0  0  0  0  0
  187.2490  177.7900  144.9250 C   0  0  0  0  0  0  0  0  0  0  0  0
  185.2940  178.4330  143.3570 C   0  0  0  0  0  0  0  0  0  0  0  0
  187.7350  177.7180  146.2510 C   0  0  0  0  0  0  0  0  0  0  0  0
  188.9010  177.3050  140.3860 N   0  0  0  0  0  0  0  0  0  0  0  0
  183.9180  178.6130  143.1570 C   0  0  0  0  0  0  0  0  0  0  0  0
  185.9600  178.3370  144.6960 C   0  0  0  0  0  0  0  0  0  0  0  0
  180.7960  178.9080  142.9140 C   0  0  0  0  0  3  0  0  0  0  0  0
  185.2610  178.8440  145.8030 C   0  0  0  0  0  2  0  0  0  0  0  0
  184.9310  178.9230  141.1860 N   0  0  0  0  0  0  0  0  0  0  0  0
  181.1860  179.1320  141.6530 C   0  0  0  0  0  0  0  0  0  0  0  0
  188.0900  177.4600  142.5690 C   0  0  0  0  0  0  0  0  0  0  0  0
  187.0030  178.2080  147.2820 N   0  0  0  0  0  0  0  0  0  0  0  0
  184.6100  178.1040  138.8600 C   0  0  0  0  0  2  0  0  0  0  0  0
  185.1360  179.2220  139.7560 C   0  0  0  0  0  3  0  0  0  0  0  0
  183.7850  179.3460  139.0590 C   0  0  0  0  0  2  0  0  0  0  0  0
  180.2610  180.6230  139.8890 C   0  0  0  0  0  1  0  0  0  0  0  0
  180.2220  179.4410  140.6830 O   0  0  0  0  0  0  0  0  0  0  0  0
  1  4  1  0  0  0  0
  2 21  2  0  0  0  0
  2 10  1  0  0  0  0
  3 15  2  0  0  0  0
  3  9  1  0  0  0  0
  6 23  2  0  0  0  0
  7 12  2  0  0  0  0
  8 13  1  0  0  0  0
  9  8  2  0  0  0  0
  9 22  1  0  0  0  0
 10 16  2  0  0  0  0
 11 22  2  0  0  0  0
 12 14  1  0  0  0  0
 13 17  2  0  0  0  0
 14  5  2  0  0  0  0
 14 23  1  0  0  0  0
 15 11  1  0  0  0  0
 16 13  1  0  0  0  0
 16  4  1  0  0  0  0
 17 12  1  0  0  0  0
 17 19  1  0  0  0  0
 18  1  2  0  0  0  0
 19  6  1  0  0  0  0
 20 10  1  0  0  0  0
 20  8  1  0  0  0  0
 21 18  1  0  0  0  0
 22  7  1  0  0  0  0
 24 26  1  0  0  0  0
 24 25  1  0  0  0  0
 25 20  1  0  0  0  0
 26 25  1  0  0  0  0
 27 28  1  0  0  0  0
 28 21  1  0  0  0  0
M  END
>  <MODEL>
7

>  <REMARK>
 VINA RESULT:      -9.6      2.541      6.921
  Name = 
  2 active torsions:
  status: ('A' for Active; 'I' for Inactive)
    1  A    between atoms: C_15  and  N_24
    2  A    between atoms: C_25  and  O_26
                            x       y       z     vdW  Elec       q    Type
                         _______ _______ _______ _____ _____    ______ ____

>  <TORSDO>
F 2

$$$$
=
 OpenBabel10232409063D

 28 33  0  0  0  0  0  0  0  0999 V2000
  184.5870  178.2400  146.3300 C   0  0  0  0  0  3  0  0  0  0  0  0
  184.5370  179.0100  143.2880 C   0  0  0  0  0  3  0  0  0  0  0  0
  188.8850  177.6770  140.6060 C   0  0  0  0  0  3  0  0  0  0  0  0
  185.8250  177.9720  145.9360 C   0  0  0  0  0  2  0  0  0  0  0  0
  191.9810  175.8800  145.7830 O   0  0  0  0  0  0  0  0  0  0  0  0
  189.5610  177.6630  147.5730 C   0  0  0  0  0  3  0  0  0  0  0  0
  190.4030  176.3360  143.6230 C   0  0  0  0  0  3  0  0  0  0  0  0
  187.8470  178.0250  142.8940 C   0  0  0  0  0  0  0  0  0  0  0  0
  188.8570  177.5960  142.1060 C   0  0  0  0  0  0  0  0  0  0  0  0
  185.8070  178.6150  143.4500 C   0  0  0  0  0  0  0  0  0  0  0  0
  190.4810  176.1760  141.2560 N   0  0  0  0  0  0  0  0  0  0  0  0
  190.0130  176.8050  144.9610 C   0  0  0  0  0  0  0  0  0  0  0  0
  187.7360  177.8210  144.2710 C   0  0  0  0  0  0  0  0  0  0  0  0
  190.9230  176.5270  146.0080 C   0  0  0  0  0  0  0  0  0  0  0  0
  189.8700  176.7050  140.1100 N   0  0  0  0  0  0  0  0  0  0  0  0
  186.4170  178.1590  144.6030 C   0  0  0  0  0  0  0  0  0  0  0  0
  188.8140  177.5010  145.2620 C   0  0  0  0  0  0  0  0  0  0  0  0
  183.4810  178.7890  145.5410 C   0  0  0  0  0  3  0  0  0  0  0  0
  188.6280  177.9380  146.5830 C   0  0  0  0  0  2  0  0  0  0  0  0
  186.6990  178.6000  142.4270 N   0  0  0  0  0  0  0  0  0  0  0  0
  183.4270  179.1210  144.2460 C   0  0  0  0  0  0  0  0  0  0  0  0
  189.9140  176.6770  142.4430 C   0  0  0  0  0  0  0  0  0  0  0  0
  190.6770  176.9610  147.2690 N   0  0  0  0  0  0  0  0  0  0  0  0
  185.6570  177.9930  140.2520 C   0  0  0  0  0  2  0  0  0  0  0  0
  186.4220  179.0460  141.0480 C   0  0  0  0  0  3  0  0  0  0  0  0
  184.9160  179.1630  140.8380 C   0  0  0  0  0  2  0  0  0  0  0  0
  181.4820  178.9920  142.6980 C   0  0  0  0  0  1  0  0  0  0  0  0
  182.2330  179.6380  143.7220 O   0  0  0  0  0  0  0  0  0  0  0  0
  2 10  1  0  0  0  0
  2 21  2  0  0  0  0
  3  9  1  0  0  0  0
  4  1  1  0  0  0  0
  5 14  2  0  0  0  0
  7 12  2  0  0  0  0
  8 13  1  0  0  0  0
  9 22  1  0  0  0  0
  9  8  2  0  0  0  0
 10 16  2  0  0  0  0
 11 22  2  0  0  0  0
 12 17  1  0  0  0  0
 12 14  1  0  0  0  0
 13 16  1  0  0  0  0
 13 17  2  0  0  0  0
 14 23  1  0  0  0  0
 15  3  2  0  0  0  0
 15 11  1  0  0  0  0
 16  4  1  0  0  0  0
 17 19  1  0  0  0  0
 18  1  2  0  0  0  0
 19  6  1  0  0  0  0
 20  8  1  0  0  0  0
 20 10  1  0  0  0  0
 21 18  1  0  0  0  0
 22  7  1  0  0  0  0
 23  6  2  0  0  0  0
 24 26  1  0  0  0  0
 24 25  1  0  0  0  0
 25 20  1  0  0  0  0
 26 25  1  0  0  0  0
 27 28  1  0  0  0  0
 28 21  1  0  0  0  0
M  END
>  <MODEL>
8

>  <REMARK>
 VINA RESULT:      -9.6      1.523      6.091
  Name = 
  2 active torsions:
  status: ('A' for Active; 'I' for Inactive)
    1  A    between atoms: C_15  and  N_24
    2  A    between atoms: C_25  and  O_26
                            x       y       z     vdW  Elec       q    Type
                         _______ _______ _______ _____ _____    ______ ____

>  <TORSDO>
F 2

$$$$
=
 OpenBabel10232409063D

 28 33  0  0  0  0  0  0  0  0999 V2000
  189.9110  176.5280  143.4090 C   0  0  0  0  0  3  0  0  0  0  0  0
  188.1580  177.7190  145.7220 C   0  0  0  0  0  3  0  0  0  0  0  0
  183.3590  179.3470  144.2390 C   0  0  0  0  0  3  0  0  0  0  0  0
  188.8590  177.0140  142.7630 C   0  0  0  0  0  3  0  0  0  0  0  0
  184.5400  178.4600  138.1210 O   0  0  0  0  0  0  0  0  0  0  0  0
  187.9200  178.3690  139.0190 C   0  0  0  0  0  3  0  0  0  0  0  0
  184.0560  178.4370  140.7910 C   0  0  0  0  0  3  0  0  0  0  0  0
  185.6830  178.6730  143.4770 C   0  0  0  0  0  0  0  0  0  0  0  0
  184.3940  178.9820  143.2130 C   0  0  0  0  0  0  0  0  0  0  0  0
  187.4210  178.0120  144.6420 C   0  0  0  0  0  0  0  0  0  0  0  0
  182.2670  178.7890  142.3110 N   0  0  0  0  0  0  0  0  0  0  0  0
  185.4290  178.3770  140.2670 C   0  0  0  0  0  0  0  0  0  0  0  0
  186.6150  178.1850  142.5580 C   0  0  0  0  0  0  0  0  0  0  0  0
  185.5600  178.4150  138.8590 C   0  0  0  0  0  0  0  0  0  0  0  0
  182.0300  179.1330  143.6490 N   0  0  0  0  0  0  0  0  0  0  0  0
  187.6990  177.7270  143.3200 C   0  0  0  0  0  0  0  0  0  0  0  0
  186.5990  178.2850  141.0630 C   0  0  0  0  0  0  0  0  0  0  0  0
  190.1930  176.5660  144.8450 C   0  0  0  0  0  3  0  0  0  0  0  0
  187.8390  178.3060  140.4040 C   0  0  0  0  0  3  0  0  0  0  0  0
  186.2270  178.6510  144.7300 N   0  0  0  0  0  0  0  0  0  0  0  0
  189.4660  177.0600  145.8540 C   0  0  0  0  0  0  0  0  0  0  0  0
  183.6410  178.6930  142.0200 C   0  0  0  0  0  0  0  0  0  0  0  0
  186.7860  178.4140  138.2810 N   0  0  0  0  0  0  0  0  0  0  0  0
  184.8560  178.0380  146.7120 C   0  0  0  0  0  2  0  0  0  0  0  0
  185.6110  179.1410  145.9770 C   0  0  0  0  0  3  0  0  0  0  0  0
  186.2330  178.4270  147.1730 C   0  0  0  0  0  2  0  0  0  0  0  0
  191.2860  176.5380  147.4690 C   0  0  0  0  0  1  0  0  0  0  0  0
  189.9660  176.9770  147.1620 O   0  0  0  0  0  0  0  0  0  0  0  0
  1 18  1  0  0  0  0
  2 21  1  0  0  0  0
  4 16  1  0  0  0  0
  4  1  2  0  0  0  0
  5 14  2  0  0  0  0
  6 19  1  0  0  0  0
  7 22  1  0  0  0  0
  8 20  1  0  0  0  0
  9  8  2  0  0  0  0
  9  3  1  0  0  0  0
 10 20  1  0  0  0  0
 10  2  2  0  0  0  0
 11 15  1  0  0  0  0
 12  7  2  0  0  0  0
 12 17  1  0  0  0  0
 13 16  2  0  0  0  0
 13  8  1  0  0  0  0
 14 12  1  0  0  0  0
 15  3  2  0  0  0  0
 16 10  1  0  0  0  0
 17 13  1  0  0  0  0
 18 21  2  0  0  0  0
 19 17  2  0  0  0  0
 20 25  1  0  0  0  0
 21 28  1  0  0  0  0
 22 11  2  0  0  0  0
 22  9  1  0  0  0  0
 23 14  1  0  0  0  0
 23  6  2  0  0  0  0
 24 26  1  0  0  0  0
 25 24  1  0  0  0  0
 25 26  1  0  0  0  0
 28 27  1  0  0  0  0
M  END
>  <MODEL>
9

>  <REMARK>
 VINA RESULT:      -9.5      1.967      4.877
  Name = 
  2 active torsions:
  status: ('A' for Active; 'I' for Inactive)
    1  A    between atoms: C_15  and  N_24
    2  A    between atoms: C_25  and  O_26
                            x       y       z     vdW  Elec       q    Type
                         _______ _______ _______ _____ _____    ______ ____

>  <TORSDO>
F 2

$$$$
