=
 OpenBabel10232411453D

 27 28  0  0  1  0  0  0  0  0999 V2000
  190.7090  177.2720  145.1030 C   0  0  0  0  0  2  0  0  0  0  0  0
  187.9500  177.8970  146.4240 C   0  0  0  0  0  0  0  0  0  0  0  0
  189.5980  176.7370  144.1970 C   0  0  1  0  0  3  0  0  0  0  0  0
  187.0960  178.1710  147.4010 C   0  0  0  0  0  2  0  0  0  0  0  0
  189.2040  177.5960  147.0940 C   0  0  0  0  0  0  0  0  0  0  0  0
  187.7810  178.1170  148.6560 N   0  0  0  0  0  0  0  0  0  0  0  0
  188.5520  177.7720  144.0490 N   0  0  0  0  0  0  0  0  0  0  0  0
  187.5240  177.5040  145.0470 C   0  0  0  0  0  2  0  0  0  0  0  0
  188.9910  177.7680  148.4840 N   0  0  0  0  0  0  0  0  0  0  0  0
  190.3840  177.2730  146.5660 C   0  0  0  0  0  2  0  0  0  0  0  0
  190.2090  176.2390  142.8680 C   0  0  2  0  0  3  0  0  0  0  0  0
  190.5010  174.8760  142.9570 O   0  0  0  0  0  1  0  0  0  0  0  0
  191.4560  177.0210  142.4630 C   0  0  0  0  0  2  0  0  0  0  0  0
  191.4540  177.2860  140.9970 C   0  0  0  0  0  0  0  0  0  0  0  0
  192.6210  177.6910  140.3640 O   0  0  0  0  0  1  0  0  0  0  0  0
  190.4030  177.1140  140.3270 O   0  0  0  0  0  0  0  0  0  0  0  0
  187.8500  177.6730  142.7720 C   0  0  0  0  0  2  0  0  0  0  0  0
  186.3840  177.9940  142.9760 C   0  0  0  0  0  2  0  0  0  0  0  0
  185.9110  178.9190  141.8720 C   0  0  0  0  0  2  0  0  0  0  0  0
  184.4690  179.0780  141.9510 N   0  0  0  0  0  0  0  0  0  0  0  0
  183.9170  178.5150  140.7270 C   0  0  0  0  0  2  0  0  0  0  0  0
  184.3050  180.2600  139.1450 O   0  0  0  0  0  1  0  0  0  0  0  0
  184.7200  178.9840  139.5270 C   0  0  0  0  0  2  0  0  0  0  0  0
  184.0190  178.2330  143.0460 C   0  0  0  0  0  2  0  0  0  0  0  0
  183.4890  179.2430  145.2620 O   0  0  0  0  0  1  0  0  0  0  0  0
  183.1180  179.0060  143.9450 C   0  0  0  0  0  0  0  0  0  0  0  0
  182.0050  179.4120  143.5230 O   0  0  0  0  0  0  0  0  0  0  0  0
  1 10  1  0  0  0  0
  2  5  2  0  0  0  0
  2  4  1  0  0  0  0
  3 11  1  6  0  0  0
  3  1  1  0  0  0  0
  4  6  1  0  0  0  0
  5  9  1  0  0  0  0
  7  3  1  0  0  0  0
  7  8  1  0  0  0  0
  8  2  1  0  0  0  0
  9  6  2  0  0  0  0
 10  5  1  0  0  0  0
 11 12  1  1  0  0  0
 13 11  1  0  0  0  0
 14 13  1  0  0  0  0
 15 14  1  0  0  0  0
 16 14  2  0  0  0  0
 17 18  1  0  0  0  0
 17  7  1  0  0  0  0
 19 20  1  0  0  0  0
 19 18  1  0  0  0  0
 20 24  1  0  0  0  0
 21 20  1  0  0  0  0
 22 23  1  0  0  0  0
 23 21  1  0  0  0  0
 24 26  1  0  0  0  0
 26 25  1  0  0  0  0
 27 26  2  0  0  0  0
M  END
>  <MODEL>
1

>  <REMARK>
 VINA RESULT:      -7.2      0.000      0.000
  Name = 
  11 active torsions:
  status: ('A' for Active; 'I' for Inactive)
    1  A    between atoms: C_1  and  C_4
    2  A    between atoms: C_1  and  C_22
    3  A    between atoms: C_6  and  C_15
    4  A    between atoms: C_6  and  N_20
    5  A    between atoms: C_7  and  C_14
    6  A    between atoms: C_7  and  C_27
    7  A    between atoms: C_9  and  C_22
    8  A    between atoms: C_14  and  N_20
    9  A    between atoms: N_17  and  C_27
   10  A    between atoms: C_18  and  C_19
   11  A    between atoms: C_19  and  N_20
                            x       y       z     vdW  Elec       q    Type
                         _______ _______ _______ _____ _____    ______ ____

>  <TORSDO>
F 11

$$$$
=
 OpenBabel10232411453D

 27 28  0  0  1  0  0  0  0  0999 V2000
  187.0080  178.3320  147.1410 C   0  0  0  0  0  2  0  0  0  0  0  0
  185.5720  178.3960  144.3690 C   0  0  0  0  0  0  0  0  0  0  0  0
  187.6470  177.2800  146.2320 C   0  0  1  0  0  3  0  0  0  0  0  0
  184.5950  178.6300  143.5040 C   0  0  0  0  0  3  0  0  0  0  0  0
  184.9900  178.6640  145.6740 C   0  0  0  0  0  0  0  0  0  0  0  0
  183.4410  179.0960  144.2080 N   0  0  0  0  0  0  0  0  0  0  0  0
  187.9100  177.8790  144.9060 N   0  0  0  0  0  0  0  0  0  0  0  0
  186.7720  177.5660  144.0490 C   0  0  0  0  0  2  0  0  0  0  0  0
  183.6590  179.1000  145.4600 N   0  0  0  0  0  0  0  0  0  0  0  0
  185.5550  178.5940  146.8780 C   0  0  0  0  0  3  0  0  0  0  0  0
  188.8890  176.6790  146.9280 C   0  0  2  0  0  3  0  0  0  0  0  0
  188.5520  176.2410  148.2110 O   0  0  0  0  0  1  0  0  0  0  0  0
  190.0580  177.6590  146.9950 C   0  0  0  0  0  2  0  0  0  0  0  0
  191.3500  176.9250  147.0870 C   0  0  0  0  0  0  0  0  0  0  0  0
  191.8020  176.1770  146.0080 O   0  0  0  0  0  0  0  0  0  0  0  0
  192.0500  177.0080  148.1300 O   0  0  0  0  0  1  0  0  0  0  0  0
  189.0480  177.2610  144.2330 C   0  0  0  0  0  2  0  0  0  0  0  0
  188.5650  176.5090  143.0100 C   0  0  0  0  0  2  0  0  0  0  0  0
  189.7400  176.2270  142.0940 C   0  0  0  0  0  2  0  0  0  0  0  0
  190.1220  177.4450  141.4010 N   0  0  0  0  0  0  0  0  0  0  0  0
  191.5770  177.4860  141.3920 C   0  0  0  0  0  2  0  0  0  0  0  0
  193.4910  177.3470  139.9740 O   0  0  0  0  0  1  0  0  0  0  0  0
  192.0970  177.2900  139.9800 C   0  0  0  0  0  2  0  0  0  0  0  0
  189.6950  177.2870  140.0200 C   0  0  0  0  0  2  0  0  0  0  0  0
  187.6030  178.5980  140.3600 O   0  0  0  0  0  1  0  0  0  0  0  0
  188.7740  178.3950  139.6430 C   0  0  0  0  0  0  0  0  0  0  0  0
  189.0400  179.1230  138.6520 O   0  0  0  0  0  0  0  0  0  0  0  0
  2  5  1  0  0  0  0
  3 11  1  1  0  0  0
  3  1  1  0  0  0  0
  4  6  1  0  0  0  0
  4  2  2  0  0  0  0
  5 10  2  0  0  0  0
  6  9  2  0  0  0  0
  7  3  1  0  0  0  0
  8  2  1  0  0  0  0
  8  7  1  0  0  0  0
  9  5  1  0  0  0  0
 10  1  1  0  0  0  0
 11 13  1  0  0  0  0
 11 12  1  1  0  0  0
 13 14  1  0  0  0  0
 14 16  1  0  0  0  0
 15 14  2  0  0  0  0
 17  7  1  0  0  0  0
 18 17  1  0  0  0  0
 19 18  1  0  0  0  0
 20 19  1  0  0  0  0
 21 20  1  0  0  0  0
 22 23  1  0  0  0  0
 23 21  1  0  0  0  0
 24 20  1  0  0  0  0
 26 24  1  0  0  0  0
 26 25  1  0  0  0  0
 27 26  2  0  0  0  0
M  END
>  <MODEL>
2

>  <REMARK>
 VINA RESULT:      -7.0      2.731      5.721
  Name = 
  11 active torsions:
  status: ('A' for Active; 'I' for Inactive)
    1  A    between atoms: C_1  and  C_4
    2  A    between atoms: C_1  and  C_22
    3  A    between atoms: C_6  and  C_15
    4  A    between atoms: C_6  and  N_20
    5  A    between atoms: C_7  and  C_14
    6  A    between atoms: C_7  and  C_27
    7  A    between atoms: C_9  and  C_22
    8  A    between atoms: C_14  and  N_20
    9  A    between atoms: N_17  and  C_27
   10  A    between atoms: C_18  and  C_19
   11  A    between atoms: C_19  and  N_20
                            x       y       z     vdW  Elec       q    Type
                         _______ _______ _______ _____ _____    ______ ____

>  <TORSDO>
F 11

$$$$
=
 OpenBabel10232411453D

 27 28  0  0  1  0  0  0  0  0999 V2000
  186.9960  178.4370  146.9460 C   0  0  0  0  0  2  0  0  0  0  0  0
  185.3950  178.3380  144.2680 C   0  0  0  0  0  0  0  0  0  0  0  0
  187.5670  177.3170  146.0740 C   0  0  1  0  0  3  0  0  0  0  0  0
  184.3690  178.5290  143.4490 C   0  0  0  0  0  3  0  0  0  0  0  0
  184.8960  178.7010  145.5850 C   0  0  0  0  0  0  0  0  0  0  0  0
  183.2650  179.0580  144.1890 N   0  0  0  0  0  0  0  0  0  0  0  0
  187.7550  177.8240  144.6960 N   0  0  0  0  0  0  0  0  0  0  0  0
  186.5640  177.4710  143.9330 C   0  0  0  0  0  2  0  0  0  0  0  0
  183.5600  179.1410  145.4230 N   0  0  0  0  0  0  0  0  0  0  0  0
  185.5330  178.7030  146.7550 C   0  0  0  0  0  3  0  0  0  0  0  0
  188.8430  176.7460  146.7330 C   0  0  2  0  0  3  0  0  0  0  0  0
  188.5910  176.4350  148.0710 O   0  0  0  0  0  1  0  0  0  0  0  0
  190.0350  177.6930  146.6260 C   0  0  0  0  0  2  0  0  0  0  0  0
  191.3140  176.9350  146.7120 C   0  0  0  0  0  0  0  0  0  0  0  0
  192.0090  176.8800  147.9130 O   0  0  0  0  0  1  0  0  0  0  0  0
  191.7510  176.3170  145.7060 O   0  0  0  0  0  0  0  0  0  0  0  0
  188.8440  177.1450  144.0000 C   0  0  0  0  0  2  0  0  0  0  0  0
  188.5450  177.1040  142.5150 C   0  0  0  0  0  2  0  0  0  0  0  0
  189.7940  176.6940  141.7600 C   0  0  0  0  0  2  0  0  0  0  0  0
  189.6140  176.9520  140.3420 N   0  0  0  0  0  0  0  0  0  0  0  0
  188.7420  178.1130  140.2330 C   0  0  0  0  0  2  0  0  0  0  0  0
  186.6460  178.5030  139.1610 O   0  0  0  0  0  1  0  0  0  0  0  0
  187.9470  178.0510  138.9410 C   0  0  0  0  0  2  0  0  0  0  0  0
  190.9140  177.3490  139.8250 C   0  0  0  0  0  2  0  0  0  0  0  0
  192.4920  176.6580  138.0230 O   0  0  0  0  0  0  0  0  0  0  0  0
  191.3570  176.3890  138.7770 C   0  0  0  0  0  0  0  0  0  0  0  0
  190.6830  175.3510  138.5480 O   0  0  0  0  0  1  0  0  0  0  0  0
  2  5  1  0  0  0  0
  3 11  1  1  0  0  0
  3  1  1  0  0  0  0
  4  6  1  0  0  0  0
  4  2  2  0  0  0  0
  5 10  2  0  0  0  0
  6  9  2  0  0  0  0
  7  3  1  0  0  0  0
  8  2  1  0  0  0  0
  8  7  1  0  0  0  0
  9  5  1  0  0  0  0
 10  1  1  0  0  0  0
 11 12  1  1  0  0  0
 13 14  1  0  0  0  0
 13 11  1  0  0  0  0
 14 15  1  0  0  0  0
 16 14  2  0  0  0  0
 17  7  1  0  0  0  0
 18 17  1  0  0  0  0
 19 18  1  0  0  0  0
 20 19  1  0  0  0  0
 21 20  1  0  0  0  0
 23 22  1  0  0  0  0
 23 21  1  0  0  0  0
 24 20  1  0  0  0  0
 25 26  2  0  0  0  0
 26 24  1  0  0  0  0
 27 26  1  0  0  0  0
M  END
>  <MODEL>
3

>  <REMARK>
 VINA RESULT:      -6.8      2.704      5.799
  Name = 
  11 active torsions:
  status: ('A' for Active; 'I' for Inactive)
    1  A    between atoms: C_1  and  C_4
    2  A    between atoms: C_1  and  C_22
    3  A    between atoms: C_6  and  C_15
    4  A    between atoms: C_6  and  N_20
    5  A    between atoms: C_7  and  C_14
    6  A    between atoms: C_7  and  C_27
    7  A    between atoms: C_9  and  C_22
    8  A    between atoms: C_14  and  N_20
    9  A    between atoms: N_17  and  C_27
   10  A    between atoms: C_18  and  C_19
   11  A    between atoms: C_19  and  N_20
                            x       y       z     vdW  Elec       q    Type
                         _______ _______ _______ _____ _____    ______ ____

>  <TORSDO>
F 11

$$$$
=
 OpenBabel10232411453D

 27 28  0  0  1  0  0  0  0  0999 V2000
  185.1780  178.3730  146.2590 C   0  0  0  0  0  2  0  0  0  0  0  0
  188.2110  177.7120  146.5900 C   0  0  0  0  0  0  0  0  0  0  0  0
  185.8730  178.5640  144.9090 C   0  0  1  0  0  3  0  0  0  0  0  0
  189.3650  177.5500  147.2240 C   0  0  0  0  0  3  0  0  0  0  0  0
  187.3200  178.3000  147.5770 C   0  0  0  0  0  0  0  0  0  0  0  0
  189.2160  177.9540  148.5880 N   0  0  0  0  0  0  0  0  0  0  0  0
  186.7490  177.4010  144.6460 N   0  0  0  0  0  0  0  0  0  0  0  0
  188.0890  177.7480  145.1020 C   0  0  0  0  0  2  0  0  0  0  0  0
  188.0440  178.4020  148.7900 N   0  0  0  0  0  0  0  0  0  0  0  0
  186.0390  178.6440  147.4550 C   0  0  0  0  0  3  0  0  0  0  0  0
  184.8160  178.8380  143.8160 C   0  0  2  0  0  3  0  0  0  0  0  0
  185.1160  180.0270  143.1480 O   0  0  0  0  0  1  0  0  0  0  0  0
  183.3940  178.8880  144.3710 C   0  0  0  0  0  2  0  0  0  0  0  0
  182.4020  178.9410  143.2620 C   0  0  0  0  0  0  0  0  0  0  0  0
  182.7790  178.5830  141.9750 O   0  0  0  0  0  0  0  0  0  0  0  0
  181.2120  179.2800  143.4960 O   0  0  0  0  0  1  0  0  0  0  0  0
  186.9100  177.1400  143.2180 C   0  0  0  0  0  2  0  0  0  0  0  0
  188.2630  176.5030  142.9710 C   0  0  0  0  0  2  0  0  0  0  0  0
  188.9390  177.1910  141.8020 C   0  0  0  0  0  2  0  0  0  0  0  0
  190.2780  176.6540  141.6280 N   0  0  0  0  0  0  0  0  0  0  0  0
  190.5710  176.7100  140.2030 C   0  0  0  0  0  2  0  0  0  0  0  0
  189.6890  178.0740  138.4550 O   0  0  0  0  0  1  0  0  0  0  0  0
  189.3370  177.1430  139.4320 C   0  0  0  0  0  2  0  0  0  0  0  0
  191.1860  177.5820  142.2840 C   0  0  0  0  0  2  0  0  0  0  0  0
  191.7910  175.6830  143.7800 O   0  0  0  0  0  0  0  0  0  0  0  0
  191.5840  177.0450  143.6150 C   0  0  0  0  0  0  0  0  0  0  0  0
  191.6970  177.8230  144.5980 O   0  0  0  0  0  1  0  0  0  0  0  0
  1 10  1  0  0  0  0
  2  4  2  0  0  0  0
  2  5  1  0  0  0  0
  3 11  1  6  0  0  0
  3  1  1  0  0  0  0
  4  6  1  0  0  0  0
  5  9  1  0  0  0  0
  6  9  2  0  0  0  0
  7  3  1  0  0  0  0
  7  8  1  0  0  0  0
  8  2  1  0  0  0  0
 10  5  2  0  0  0  0
 11 12  1  1  0  0  0
 11 13  1  0  0  0  0
 14 16  1  0  0  0  0
 14 13  1  0  0  0  0
 15 14  2  0  0  0  0
 17  7  1  0  0  0  0
 18 17  1  0  0  0  0
 19 18  1  0  0  0  0
 20 19  1  0  0  0  0
 20 24  1  0  0  0  0
 21 20  1  0  0  0  0
 22 23  1  0  0  0  0
 23 21  1  0  0  0  0
 24 26  1  0  0  0  0
 26 25  2  0  0  0  0
 26 27  1  0  0  0  0
M  END
>  <MODEL>
4

>  <REMARK>
 VINA RESULT:      -6.8      2.033      6.143
  Name = 
  11 active torsions:
  status: ('A' for Active; 'I' for Inactive)
    1  A    between atoms: C_1  and  C_4
    2  A    between atoms: C_1  and  C_22
    3  A    between atoms: C_6  and  C_15
    4  A    between atoms: C_6  and  N_20
    5  A    between atoms: C_7  and  C_14
    6  A    between atoms: C_7  and  C_27
    7  A    between atoms: C_9  and  C_22
    8  A    between atoms: C_14  and  N_20
    9  A    between atoms: N_17  and  C_27
   10  A    between atoms: C_18  and  C_19
   11  A    between atoms: C_19  and  N_20
                            x       y       z     vdW  Elec       q    Type
                         _______ _______ _______ _____ _____    ______ ____

>  <TORSDO>
F 11

$$$$
=
 OpenBabel10232411453D

 27 28  0  0  1  0  0  0  0  0999 V2000
  185.4430  178.1420  145.5160 C   0  0  0  0  0  2  0  0  0  0  0  0
  188.3900  177.6320  146.4130 C   0  0  0  0  0  0  0  0  0  0  0  0
  186.3640  178.3310  144.3080 C   0  0  1  0  0  3  0  0  0  0  0  0
  189.4140  177.5400  147.2500 C   0  0  0  0  0  2  0  0  0  0  0  0
  187.3100  178.2020  147.2020 C   0  0  0  0  0  0  0  0  0  0  0  0
  189.0030  177.9700  148.5510 N   0  0  0  0  0  0  0  0  0  0  0  0
  187.3210  177.2050  144.2470 N   0  0  0  0  0  0  0  0  0  0  0  0
  188.5400  177.6260  144.9270 C   0  0  0  0  0  2  0  0  0  0  0  0
  187.7960  178.3680  148.5220 N   0  0  0  0  0  0  0  0  0  0  0  0
  186.0600  178.4830  146.8390 C   0  0  0  0  0  2  0  0  0  0  0  0
  185.5140  178.5280  143.0330 C   0  0  2  0  0  3  0  0  0  0  0  0
  185.8390  179.7430  142.4250 O   0  0  0  0  0  1  0  0  0  0  0  0
  184.0140  178.4610  143.3100 C   0  0  0  0  0  2  0  0  0  0  0  0
  183.2510  178.3610  142.0350 C   0  0  0  0  0  0  0  0  0  0  0  0
  182.0240  178.9990  141.9080 O   0  0  0  0  0  1  0  0  0  0  0  0
  183.7320  177.7260  141.0600 O   0  0  0  0  0  0  0  0  0  0  0  0
  187.7510  176.9170  142.8820 C   0  0  0  0  0  2  0  0  0  0  0  0
  189.0890  177.5800  142.6230 C   0  0  0  0  0  2  0  0  0  0  0  0
  189.8590  176.7780  141.5930 C   0  0  0  0  0  2  0  0  0  0  0  0
  190.2670  177.6470  140.5020 N   0  0  0  0  0  0  0  0  0  0  0  0
  191.6340  177.2820  140.1610 C   0  0  0  0  0  2  0  0  0  0  0  0
  192.9320  176.6550  138.2590 O   0  0  0  0  0  1  0  0  0  0  0  0
  191.6640  176.5510  138.8310 C   0  0  0  0  0  2  0  0  0  0  0  0
  189.4380  177.2970  139.3610 C   0  0  0  0  0  2  0  0  0  0  0  0
  187.2730  178.5110  139.5830 O   0  0  0  0  0  1  0  0  0  0  0  0
  188.5390  178.4330  139.0180 C   0  0  0  0  0  0  0  0  0  0  0  0
  188.9120  179.3030  138.1890 O   0  0  0  0  0  0  0  0  0  0  0  0
  1 10  1  0  0  0  0
  2  5  2  0  0  0  0
  2  4  1  0  0  0  0
  3 11  1  6  0  0  0
  3  1  1  0  0  0  0
  4  6  1  0  0  0  0
  5  9  1  0  0  0  0
  7  3  1  0  0  0  0
  7  8  1  0  0  0  0
  8  2  1  0  0  0  0
  9  6  2  0  0  0  0
 10  5  1  0  0  0  0
 11 12  1  1  0  0  0
 11 13  1  0  0  0  0
 14 13  1  0  0  0  0
 15 14  1  0  0  0  0
 16 14  2  0  0  0  0
 17  7  1  0  0  0  0
 18 17  1  0  0  0  0
 19 18  1  0  0  0  0
 20 19  1  0  0  0  0
 21 20  1  0  0  0  0
 22 23  1  0  0  0  0
 23 21  1  0  0  0  0
 24 20  1  0  0  0  0
 26 24  1  0  0  0  0
 26 25  1  0  0  0  0
 27 26  2  0  0  0  0
M  END
>  <MODEL>
5

>  <REMARK>
 VINA RESULT:      -6.8      2.156      5.876
  Name = 
  11 active torsions:
  status: ('A' for Active; 'I' for Inactive)
    1  A    between atoms: C_1  and  C_4
    2  A    between atoms: C_1  and  C_22
    3  A    between atoms: C_6  and  C_15
    4  A    between atoms: C_6  and  N_20
    5  A    between atoms: C_7  and  C_14
    6  A    between atoms: C_7  and  C_27
    7  A    between atoms: C_9  and  C_22
    8  A    between atoms: C_14  and  N_20
    9  A    between atoms: N_17  and  C_27
   10  A    between atoms: C_18  and  C_19
   11  A    between atoms: C_19  and  N_20
                            x       y       z     vdW  Elec       q    Type
                         _______ _______ _______ _____ _____    ______ ____

>  <TORSDO>
F 11

$$$$
=
 OpenBabel10232411453D

 27 28  0  0  1  0  0  0  0  0999 V2000
  190.3130  177.5390  144.6220 C   0  0  0  0  0  2  0  0  0  0  0  0
  187.7450  177.8210  146.3760 C   0  0  0  0  0  0  0  0  0  0  0  0
  189.1750  176.7620  143.9560 C   0  0  1  0  0  3  0  0  0  0  0  0
  187.0310  178.0340  147.4730 C   0  0  0  0  0  2  0  0  0  0  0  0
  189.1260  177.7800  146.8280 C   0  0  0  0  0  0  0  0  0  0  0  0
  187.9130  178.1920  148.5880 N   0  0  0  0  0  0  0  0  0  0  0  0
  187.9570  177.6010  143.9420 N   0  0  0  0  0  0  0  0  0  0  0  0
  187.1710  177.2540  145.1190 C   0  0  0  0  0  2  0  0  0  0  0  0
  189.1200  178.0280  148.2230 N   0  0  0  0  0  0  0  0  0  0  0  0
  190.2390  177.6070  146.1180 C   0  0  0  0  0  2  0  0  0  0  0  0
  189.6330  176.2610  142.5680 C   0  0  2  0  0  3  0  0  0  0  0  0
  190.3360  175.0620  142.7010 O   0  0  0  0  0  1  0  0  0  0  0  0
  190.4780  177.2890  141.8200 C   0  0  0  0  0  2  0  0  0  0  0  0
  190.2400  177.1950  140.3530 C   0  0  0  0  0  0  0  0  0  0  0  0
  190.8190  176.1670  139.6210 O   0  0  0  0  0  0  0  0  0  0  0  0
  189.4880  178.0270  139.7820 O   0  0  0  0  0  1  0  0  0  0  0  0
  187.0810  177.2870  142.8170 C   0  0  0  0  0  2  0  0  0  0  0  0
  186.8770  178.5300  141.9740 C   0  0  0  0  0  2  0  0  0  0  0  0
  185.6000  179.2260  142.4020 C   0  0  0  0  0  2  0  0  0  0  0  0
  184.4790  178.3110  142.2770 N   0  0  0  0  0  0  0  0  0  0  0  0
  183.7080  178.4200  143.5070 C   0  0  0  0  0  2  0  0  0  0  0  0
  184.0780  179.1640  145.7450 O   0  0  0  0  0  1  0  0  0  0  0  0
  184.3060  179.4870  144.4060 C   0  0  0  0  0  2  0  0  0  0  0  0
  183.6410  178.8260  141.2060 C   0  0  0  0  0  2  0  0  0  0  0  0
  184.6100  178.2380  138.9860 O   0  0  0  0  0  0  0  0  0  0  0  0
  183.7320  177.9330  140.0170 C   0  0  0  0  0  0  0  0  0  0  0  0
  182.9850  176.9240  139.9310 O   0  0  0  0  0  1  0  0  0  0  0  0
  1 10  1  0  0  0  0
  2  5  2  0  0  0  0
  2  4  1  0  0  0  0
  3 11  1  6  0  0  0
  3  1  1  0  0  0  0
  4  6  1  0  0  0  0
  5  9  1  0  0  0  0
  7  3  1  0  0  0  0
  7  8  1  0  0  0  0
  8  2  1  0  0  0  0
  9  6  2  0  0  0  0
 10  5  1  0  0  0  0
 11 12  1  1  0  0  0
 13 11  1  0  0  0  0
 14 13  1  0  0  0  0
 15 14  2  0  0  0  0
 16 14  1  0  0  0  0
 17  7  1  0  0  0  0
 18 19  1  0  0  0  0
 18 17  1  0  0  0  0
 20 19  1  0  0  0  0
 20 21  1  0  0  0  0
 21 23  1  0  0  0  0
 23 22  1  0  0  0  0
 24 20  1  0  0  0  0
 25 26  2  0  0  0  0
 26 24  1  0  0  0  0
 27 26  1  0  0  0  0
M  END
>  <MODEL>
6

>  <REMARK>
 VINA RESULT:      -6.7      1.126      2.559
  Name = 
  11 active torsions:
  status: ('A' for Active; 'I' for Inactive)
    1  A    between atoms: C_1  and  C_4
    2  A    between atoms: C_1  and  C_22
    3  A    between atoms: C_6  and  C_15
    4  A    between atoms: C_6  and  N_20
    5  A    between atoms: C_7  and  C_14
    6  A    between atoms: C_7  and  C_27
    7  A    between atoms: C_9  and  C_22
    8  A    between atoms: C_14  and  N_20
    9  A    between atoms: N_17  and  C_27
   10  A    between atoms: C_18  and  C_19
   11  A    between atoms: C_19  and  N_20
                            x       y       z     vdW  Elec       q    Type
                         _______ _______ _______ _____ _____    ______ ____

>  <TORSDO>
F 11

$$$$
=
 OpenBabel10232411453D

 27 28  0  0  1  0  0  0  0  0999 V2000
  187.4600  177.4900  147.3040 C   0  0  0  0  0  2  0  0  0  0  0  0
  190.0630  176.9630  145.6630 C   0  0  0  0  0  0  0  0  0  0  0  0
  187.3810  178.2740  145.9930 C   0  0  1  0  0  3  0  0  0  0  0  0
  191.3300  176.6330  145.4530 C   0  0  0  0  0  3  0  0  0  0  0  0
  189.9250  177.0220  147.1090 C   0  0  0  0  0  0  0  0  0  0  0  0
  191.9780  176.4190  146.7100 N   0  0  0  0  0  0  0  0  0  0  0  0
  187.7800  177.3910  144.8750 N   0  0  0  0  0  0  0  0  0  0  0  0
  189.2000  177.6080  144.6290 C   0  0  0  0  0  2  0  0  0  0  0  0
  191.1750  176.6600  147.6670 N   0  0  0  0  0  0  0  0  0  0  0  0
  188.8460  177.2960  147.8410 C   0  0  0  0  0  3  0  0  0  0  0  0
  185.9780  178.9050  145.8500 C   0  0  2  0  0  3  0  0  0  0  0  0
  185.6080  179.5240  147.0460 O   0  0  0  0  0  1  0  0  0  0  0  0
  184.9160  177.8920  145.4300 C   0  0  0  0  0  2  0  0  0  0  0  0
  183.8420  178.5560  144.6400 C   0  0  0  0  0  0  0  0  0  0  0  0
  183.8230  178.4380  143.2570 O   0  0  0  0  0  0  0  0  0  0  0  0
  182.9330  179.1990  145.2280 O   0  0  0  0  0  1  0  0  0  0  0  0
  187.1350  177.7620  143.6180 C   0  0  0  0  0  2  0  0  0  0  0  0
  187.9870  177.2930  142.4560 C   0  0  0  0  0  2  0  0  0  0  0  0
  188.1070  178.4070  141.4360 C   0  0  0  0  0  2  0  0  0  0  0  0
  189.1670  178.0930  140.4930 N   0  0  0  0  0  0  0  0  0  0  0  0
  189.8590  176.9230  141.0120 C   0  0  0  0  0  2  0  0  0  0  0  0
  192.1020  177.3010  140.2870 O   0  0  0  0  0  1  0  0  0  0  0  0
  191.2770  177.2890  141.4120 C   0  0  0  0  0  2  0  0  0  0  0  0
  188.5150  177.6860  139.2580 C   0  0  0  0  0  2  0  0  0  0  0  0
  188.9160  179.5430  137.6450 O   0  0  0  0  0  1  0  0  0  0  0  0
  189.2330  178.2670  138.0900 C   0  0  0  0  0  0  0  0  0  0  0  0
  190.0990  177.5860  137.4830 O   0  0  0  0  0  0  0  0  0  0  0  0
  1 10  1  0  0  0  0
  2  5  1  0  0  0  0
  3 11  1  6  0  0  0
  3  1  1  0  0  0  0
  4  2  2  0  0  0  0
  4  6  1  0  0  0  0
  5  9  1  0  0  0  0
  5 10  2  0  0  0  0
  6  9  2  0  0  0  0
  7  3  1  0  0  0  0
  8  7  1  0  0  0  0
  8  2  1  0  0  0  0
 11 12  1  1  0  0  0
 13 11  1  0  0  0  0
 14 16  1  0  0  0  0
 14 13  1  0  0  0  0
 15 14  2  0  0  0  0
 17  7  1  0  0  0  0
 18 17  1  0  0  0  0
 19 18  1  0  0  0  0
 20 21  1  0  0  0  0
 20 19  1  0  0  0  0
 21 23  1  0  0  0  0
 22 23  1  0  0  0  0
 24 20  1  0  0  0  0
 25 26  1  0  0  0  0
 26 24  1  0  0  0  0
 27 26  2  0  0  0  0
M  END
>  <MODEL>
7

>  <REMARK>
 VINA RESULT:      -6.7      2.288      6.028
  Name = 
  11 active torsions:
  status: ('A' for Active; 'I' for Inactive)
    1  A    between atoms: C_1  and  C_4
    2  A    between atoms: C_1  and  C_22
    3  A    between atoms: C_6  and  C_15
    4  A    between atoms: C_6  and  N_20
    5  A    between atoms: C_7  and  C_14
    6  A    between atoms: C_7  and  C_27
    7  A    between atoms: C_9  and  C_22
    8  A    between atoms: C_14  and  N_20
    9  A    between atoms: N_17  and  C_27
   10  A    between atoms: C_18  and  C_19
   11  A    between atoms: C_19  and  N_20
                            x       y       z     vdW  Elec       q    Type
                         _______ _______ _______ _____ _____    ______ ____

>  <TORSDO>
F 11

$$$$
=
 OpenBabel10232411453D

 27 28  0  0  1  0  0  0  0  0999 V2000
  191.7730  177.1490  142.1340 C   0  0  0  0  0  2  0  0  0  0  0  0
  189.3620  177.3490  140.1610 C   0  0  0  0  0  0  0  0  0  0  0  0
  190.6360  177.9070  142.8230 C   0  0  1  0  0  3  0  0  0  0  0  0
  188.7380  177.3640  138.9910 C   0  0  0  0  0  3  0  0  0  0  0  0
  190.7780  177.3460  139.8310 C   0  0  0  0  0  0  0  0  0  0  0  0
  189.7050  177.3060  137.9380 N   0  0  0  0  0  0  0  0  0  0  0  0
  189.3670  177.1780  142.6080 N   0  0  0  0  0  0  0  0  0  0  0  0
  188.7170  177.7630  141.4420 C   0  0  0  0  0  2  0  0  0  0  0  0
  190.8820  177.3130  138.4190 N   0  0  0  0  0  0  0  0  0  0  0  0
  191.8320  177.3160  140.6460 C   0  0  0  0  0  3  0  0  0  0  0  0
  190.9990  178.1520  144.3050 C   0  0  2  0  0  3  0  0  0  0  0  0
  191.8950  179.2180  144.4070 O   0  0  0  0  0  1  0  0  0  0  0  0
  191.5750  176.9110  144.9820 C   0  0  0  0  0  2  0  0  0  0  0  0
  191.1740  176.8650  146.4160 C   0  0  0  0  0  0  0  0  0  0  0  0
  189.8310  176.7770  146.7580 O   0  0  0  0  0  0  0  0  0  0  0  0
  192.0520  176.8730  147.3170 O   0  0  0  0  0  1  0  0  0  0  0  0
  188.4160  177.3880  143.6950 C   0  0  0  0  0  2  0  0  0  0  0  0
  187.0280  177.5840  143.1210 C   0  0  0  0  0  2  0  0  0  0  0  0
  186.0210  177.6670  144.2510 C   0  0  0  0  0  2  0  0  0  0  0  0
  184.8260  178.3550  143.7920 N   0  0  0  0  0  0  0  0  0  0  0  0
  184.3550  179.1670  144.9040 C   0  0  0  0  0  2  0  0  0  0  0  0
  185.4430  179.4940  147.0030 O   0  0  0  0  0  1  0  0  0  0  0  0
  184.7800  178.5460  146.2220 C   0  0  0  0  0  2  0  0  0  0  0  0
  185.2530  179.2730  142.7480 C   0  0  0  0  0  2  0  0  0  0  0  0
  184.9010  179.6290  140.3070 O   0  0  0  0  0  0  0  0  0  0  0  0
  184.6250  178.8950  141.4520 C   0  0  0  0  0  0  0  0  0  0  0  0
  183.8140  177.9340  141.4030 O   0  0  0  0  0  1  0  0  0  0  0  0
  1  3  1  0  0  0  0
  2  8  1  0  0  0  0
  3 11  1  1  0  0  0
  4  2  2  0  0  0  0
  5  2  1  0  0  0  0
  5 10  2  0  0  0  0
  6  9  2  0  0  0  0
  6  4  1  0  0  0  0
  7  3  1  0  0  0  0
  7 17  1  0  0  0  0
  8  7  1  0  0  0  0
  9  5  1  0  0  0  0
 10  1  1  0  0  0  0
 11 12  1  6  0  0  0
 11 13  1  0  0  0  0
 13 14  1  0  0  0  0
 14 15  2  0  0  0  0
 14 16  1  0  0  0  0
 18 17  1  0  0  0  0
 18 19  1  0  0  0  0
 20 19  1  0  0  0  0
 20 21  1  0  0  0  0
 21 23  1  0  0  0  0
 23 22  1  0  0  0  0
 24 20  1  0  0  0  0
 25 26  2  0  0  0  0
 26 24  1  0  0  0  0
 27 26  1  0  0  0  0
M  END
>  <MODEL>
8

>  <REMARK>
 VINA RESULT:      -6.6      2.770      5.505
  Name = 
  11 active torsions:
  status: ('A' for Active; 'I' for Inactive)
    1  A    between atoms: C_1  and  C_4
    2  A    between atoms: C_1  and  C_22
    3  A    between atoms: C_6  and  C_15
    4  A    between atoms: C_6  and  N_20
    5  A    between atoms: C_7  and  C_14
    6  A    between atoms: C_7  and  C_27
    7  A    between atoms: C_9  and  C_22
    8  A    between atoms: C_14  and  N_20
    9  A    between atoms: N_17  and  C_27
   10  A    between atoms: C_18  and  C_19
   11  A    between atoms: C_19  and  N_20
                            x       y       z     vdW  Elec       q    Type
                         _______ _______ _______ _____ _____    ______ ____

>  <TORSDO>
F 11

$$$$
=
 OpenBabel10232411453D

 27 28  0  0  1  0  0  0  0  0999 V2000
  188.0420  177.7240  145.1500 C   0  0  0  0  0  2  0  0  0  0  0  0
  185.2910  178.7500  144.0850 C   0  0  0  0  0  0  0  0  0  0  0  0
  187.8860  177.2880  143.6910 C   0  0  1  0  0  3  0  0  0  0  0  0
  184.0370  179.1740  144.1500 C   0  0  0  0  0  3  0  0  0  0  0  0
  185.6150  178.3270  145.4380 C   0  0  0  0  0  0  0  0  0  0  0  0
  183.5800  179.0950  145.5040 N   0  0  0  0  0  0  0  0  0  0  0  0
  187.4100  178.4370  142.8900 N   0  0  0  0  0  0  0  0  0  0  0  0
  185.9580  178.3470  142.8110 C   0  0  0  0  0  2  0  0  0  0  0  0
  184.4810  178.5910  146.2450 N   0  0  0  0  0  0  0  0  0  0  0  0
  186.7580  177.8350  145.9150 C   0  0  0  0  0  3  0  0  0  0  0  0
  189.2050  176.6550  143.1950 C   0  0  2  0  0  3  0  0  0  0  0  0
  189.0260  175.2880  142.9730 O   0  0  0  0  0  1  0  0  0  0  0  0
  190.3670  176.8850  144.1580 C   0  0  0  0  0  2  0  0  0  0  0  0
  191.4140  177.7310  143.5220 C   0  0  0  0  0  0  0  0  0  0  0  0
  191.8350  177.4580  142.2270 O   0  0  0  0  0  0  0  0  0  0  0  0
  191.8960  178.7130  144.1450 O   0  0  0  0  0  1  0  0  0  0  0  0
  187.8520  178.3650  141.5000 C   0  0  0  0  0  2  0  0  0  0  0  0
  186.6510  178.4600  140.5820 C   0  0  0  0  0  2  0  0  0  0  0  0
  187.0940  178.2580  139.1470 C   0  0  0  0  0  2  0  0  0  0  0  0
  186.0110  178.6150  138.2460 N   0  0  0  0  0  0  0  0  0  0  0  0
  186.0930  177.7090  137.1100 C   0  0  0  0  0  2  0  0  0  0  0  0
  186.6430  175.3880  137.1810 O   0  0  0  0  0  1  0  0  0  0  0  0
  187.1720  176.6680  137.3480 C   0  0  0  0  0  2  0  0  0  0  0  0
  184.7730  178.3080  138.9450 C   0  0  0  0  0  2  0  0  0  0  0  0
  182.5290  179.1380  138.2470 O   0  0  0  0  0  0  0  0  0  0  0  0
  183.7930  179.4120  138.7500 C   0  0  0  0  0  0  0  0  0  0  0  0
  184.1250  180.5990  139.0050 O   0  0  0  0  0  1  0  0  0  0  0  0
  1 10  1  0  0  0  0
  2  4  2  0  0  0  0
  2  5  1  0  0  0  0
  3 11  1  6  0  0  0
  3  1  1  0  0  0  0
  4  6  1  0  0  0  0
  5 10  2  0  0  0  0
  5  9  1  0  0  0  0
  6  9  2  0  0  0  0
  7  3  1  0  0  0  0
  8  7  1  0  0  0  0
  8  2  1  0  0  0  0
 11 12  1  1  0  0  0
 11 13  1  0  0  0  0
 14 16  1  0  0  0  0
 14 13  1  0  0  0  0
 15 14  2  0  0  0  0
 17  7  1  0  0  0  0
 18 17  1  0  0  0  0
 19 18  1  0  0  0  0
 20 24  1  0  0  0  0
 20 19  1  0  0  0  0
 21 23  1  0  0  0  0
 21 20  1  0  0  0  0
 22 23  1  0  0  0  0
 25 26  2  0  0  0  0
 26 24  1  0  0  0  0
 26 27  1  0  0  0  0
M  END
>  <MODEL>
9

>  <REMARK>
 VINA RESULT:      -6.6      2.533      3.856
  Name = 
  11 active torsions:
  status: ('A' for Active; 'I' for Inactive)
    1  A    between atoms: C_1  and  C_4
    2  A    between atoms: C_1  and  C_22
    3  A    between atoms: C_6  and  C_15
    4  A    between atoms: C_6  and  N_20
    5  A    between atoms: C_7  and  C_14
    6  A    between atoms: C_7  and  C_27
    7  A    between atoms: C_9  and  C_22
    8  A    between atoms: C_14  and  N_20
    9  A    between atoms: N_17  and  C_27
   10  A    between atoms: C_18  and  C_19
   11  A    between atoms: C_19  and  N_20
                            x       y       z     vdW  Elec       q    Type
                         _______ _______ _______ _____ _____    ______ ____

>  <TORSDO>
F 11

$$$$
