=
 OpenBabel10232410463D

 35 39  0  0  1  0  0  0  0  0999 V2000
  190.0940  177.1990  142.3990 N   0  0  0  0  0  0  0  0  0  0  0  0
  190.9230  177.6300  144.7050 C   0  0  0  0  0  0  0  0  0  0  0  0
  192.0490  175.8580  145.9200 C   0  0  0  0  0  0  0  0  0  0  0  0
  191.8860  175.0000  144.8300 C   0  0  0  0  0  3  0  0  0  0  0  0
  191.5620  177.1650  145.8600 C   0  0  0  0  0  3  0  0  0  0  0  0
  191.2430  175.4540  143.6750 C   0  0  0  0  0  3  0  0  0  0  0  0
  190.7660  176.7690  143.5960 C   0  0  0  0  0  0  0  0  0  0  0  0
  192.7310  175.3760  147.1490 C   0  0  0  0  0  1  0  0  0  0  0  0
  190.3570  179.0110  144.7130 C   0  0  0  0  0  2  0  0  0  0  0  0
  191.2110  179.8760  144.0280 O   0  0  0  0  0  1  0  0  0  0  0  0
  185.9670  178.2310  142.4010 C   0  0  0  0  0  0  0  0  0  0  0  0
  188.6970  177.5580  142.3980 C   0  0  0  0  0  0  0  0  0  0  0  0
  187.7810  176.8260  143.1700 C   0  0  0  0  0  3  0  0  0  0  0  0
  186.8660  178.9620  141.6190 C   0  0  0  0  0  3  0  0  0  0  0  0
  186.4260  177.1620  143.1760 C   0  0  0  0  0  3  0  0  0  0  0  0
  188.2220  178.6240  141.6140 C   0  0  0  0  0  3  0  0  0  0  0  0
  184.5280  178.6100  142.4350 C   0  0  0  0  0  2  0  0  0  0  0  0
  184.0220  178.5850  143.8640 C   0  0  0  0  0  2  0  0  0  0  0  0
  184.6960  179.5500  144.6190 O   0  0  0  0  0  0  0  0  0  0  0  0
  185.5820  179.8780  146.7850 N   0  0  0  0  0  2  0  0  0  0  0  0
  185.0320  178.9170  145.8220 C   0  0  1  0  0  0  0  0  0  0  0  0
  184.0950  178.0840  146.4150 F   0  0  0  0  0  0  0  0  0  0  0  0
  186.4540  178.8570  146.1710 C   0  0  2  0  0  3  0  0  0  0  0  0
  187.9760  178.0940  147.9630 C   0  0  0  0  0  2  0  0  0  0  0  0
  188.0460  177.0890  146.8350 C   0  0  0  0  0  2  0  0  0  0  0  0
  186.7270  177.7530  147.1750 C   0  0  0  0  0  3  0  0  0  0  0  0
  190.8530  177.3880  141.2320 N   0  0  0  0  0  2  0  0  0  0  0  0
  190.3330  176.4800  140.2180 C   0  0  0  0  0  2  0  0  0  0  0  0
  190.7000  176.9880  138.8340 C   0  0  0  0  0  2  0  0  0  0  0  0
  189.5710  177.8200  138.2490 C   0  0  0  0  0  2  0  0  0  0  0  0
  188.2550  177.0550  138.2920 C   0  0  2  0  0  3  0  0  0  0  0  0
  186.8580  177.3770  136.6820 N   0  0  0  0  0  2  0  0  0  0  0  0
  187.4600  175.0480  137.0660 C   0  0  0  0  0  1  0  0  0  0  0  0
  187.9730  176.4710  136.9290 C   0  0  2  0  0  3  0  0  0  0  0  0
  187.0950  177.9790  137.9870 C   0  0  0  0  0  2  0  0  0  0  0  0
  1  7  1  0  0  0  0
  2  9  1  0  0  0  0
  2  5  1  0  0  0  0
  3  8  1  0  0  0  0
  4  3  1  0  0  0  0
  5  3  2  0  0  0  0
  6  4  2  0  0  0  0
  7  6  1  0  0  0  0
  7  2  2  0  0  0  0
 10  9  1  0  0  0  0
 11 17  1  0  0  0  0
 11 15  1  0  0  0  0
 12  1  1  0  0  0  0
 12 13  1  0  0  0  0
 13 15  2  0  0  0  0
 14 11  2  0  0  0  0
 16 14  1  0  0  0  0
 16 12  2  0  0  0  0
 17 18  1  0  0  0  0
 18 19  1  0  0  0  0
 19 21  1  0  0  0  0
 21 23  1  0  0  0  0
 21 22  1  1  0  0  0
 21 20  1  0  0  0  0
 23 20  1  0  0  0  0
 23 26  1  1  0  0  0
 25 26  1  0  0  0  0
 25 24  1  0  0  0  0
 26 24  1  0  0  0  0
 27  1  1  0  0  0  0
 28 27  1  0  0  0  0
 29 28  1  0  0  0  0
 30 29  1  0  0  0  0
 31 30  1  6  0  0  0
 32 34  1  0  0  0  0
 32 35  1  0  0  0  0
 34 33  1  1  0  0  0
 34 31  1  0  0  0  0
 35 31  1  0  0  0  0
M  END
>  <MODEL>
1

>  <REMARK>
 VINA RESULT:      -7.2      0.000      0.000
  Name = 
  13 active torsions:
  status: ('A' for Active; 'I' for Inactive)
    1  A    between atoms: C_1  and  C_20
    2  A    between atoms: C_3  and  C_8
    3  A    between atoms: C_3  and  C_28
    4  A    between atoms: C_4  and  C_7
    5  A    between atoms: N_5  and  C_11
    6  A    between atoms: N_5  and  N_31
    7  A    between atoms: C_11  and  C_30
    8  A    between atoms: C_15  and  O_17
    9  A    between atoms: O_17  and  C_28
   10  A    between atoms: C_20  and  C_30
   11  A    between atoms: C_21  and  N_31
   12  A    between atoms: C_23  and  C_29
   13  A    between atoms: N_31  and  C_32
                            x       y       z     vdW  Elec       q    Type
                         _______ _______ _______ _____ _____    ______ ____

>  <TORSDO>
F 13

$$$$
=
 OpenBabel10232410463D

 35 39  0  0  1  0  0  0  0  0999 V2000
  189.3910  177.6900  140.9310 N   0  0  0  0  0  0  0  0  0  0  0  0
  191.2820  177.0890  139.4290 C   0  0  0  0  0  0  0  0  0  0  0  0
  190.8310  175.9170  137.3530 C   0  0  0  0  0  0  0  0  0  0  0  0
  189.4640  175.9230  137.6410 C   0  0  0  0  0  3  0  0  0  0  0  0
  191.7360  176.4900  138.2490 C   0  0  0  0  0  3  0  0  0  0  0  0
  189.0020  176.5120  138.8200 C   0  0  0  0  0  3  0  0  0  0  0  0
  189.8980  177.1070  139.7180 C   0  0  0  0  0  0  0  0  0  0  0  0
  191.3240  175.2890  136.1000 C   0  0  0  0  0  1  0  0  0  0  0  0
  192.2900  177.6260  140.3880 C   0  0  0  0  0  2  0  0  0  0  0  0
  193.5730  177.2620  139.9780 O   0  0  0  0  0  1  0  0  0  0  0  0
  191.1590  176.8860  144.7170 C   0  0  0  0  0  0  0  0  0  0  0  0
  189.9850  177.4090  142.2160 C   0  0  0  0  0  0  0  0  0  0  0  0
  190.4260  178.4620  143.0330 C   0  0  0  0  0  3  0  0  0  0  0  0
  190.7350  175.8270  143.9080 C   0  0  0  0  0  3  0  0  0  0  0  0
  191.0050  178.2040  144.2770 C   0  0  0  0  0  3  0  0  0  0  0  0
  190.1550  176.0870  142.6630 C   0  0  0  0  0  3  0  0  0  0  0  0
  191.7450  176.6130  146.0570 C   0  0  0  0  0  2  0  0  0  0  0  0
  190.6400  176.2980  147.0470 C   0  0  0  0  0  2  0  0  0  0  0  0
  190.5320  177.3370  147.9770 O   0  0  0  0  0  0  0  0  0  0  0  0
  188.2570  176.9080  148.4520 N   0  0  0  0  0  2  0  0  0  0  0  0
  189.2260  177.8260  147.8430 C   0  0  1  0  0  0  0  0  0  0  0  0
  188.9740  179.1420  148.2010 F   0  0  0  0  0  0  0  0  0  0  0  0
  188.3120  177.0660  146.9860 C   0  0  2  0  0  3  0  0  0  0  0  0
  186.3690  177.1770  145.4640 C   0  0  0  0  0  2  0  0  0  0  0  0
  187.3380  178.2650  145.0590 C   0  0  0  0  0  2  0  0  0  0  0  0
  187.1510  177.9260  146.5230 C   0  0  0  0  0  3  0  0  0  0  0  0
  188.3700  178.6500  140.8410 N   0  0  0  0  0  2  0  0  0  0  0  0
  187.2530  178.1810  141.6500 C   0  0  0  0  0  2  0  0  0  0  0  0
  186.0750  179.1280  141.5020 C   0  0  0  0  0  2  0  0  0  0  0  0
  184.7760  178.4350  141.8780 C   0  0  0  0  0  2  0  0  0  0  0  0
  183.6770  178.7590  140.8750 C   0  0  2  0  0  3  0  0  0  0  0  0
  183.7150  177.7320  138.9800 N   0  0  0  0  0  2  0  0  0  0  0  0
  181.6210  177.5370  140.2110 C   0  0  0  0  0  1  0  0  0  0  0  0
  183.1370  177.4760  140.2940 C   0  0  2  0  0  3  0  0  0  0  0  0
  184.2640  178.9780  139.4980 C   0  0  0  0  0  2  0  0  0  0  0  0
  1 12  1  0  0  0  0
  2  7  1  0  0  0  0
  2  9  1  0  0  0  0
  3  4  2  0  0  0  0
  3  5  1  0  0  0  0
  4  6  1  0  0  0  0
  5  2  2  0  0  0  0
  6  7  2  0  0  0  0
  7  1  1  0  0  0  0
  8  3  1  0  0  0  0
 10  9  1  0  0  0  0
 11 17  1  0  0  0  0
 12 16  2  0  0  0  0
 12 13  1  0  0  0  0
 13 15  2  0  0  0  0
 14 11  2  0  0  0  0
 15 11  1  0  0  0  0
 16 14  1  0  0  0  0
 17 18  1  0  0  0  0
 18 19  1  0  0  0  0
 21 19  1  0  0  0  0
 21 22  1  1  0  0  0
 21 20  1  0  0  0  0
 23 26  1  1  0  0  0
 23 21  1  0  0  0  0
 23 20  1  0  0  0  0
 24 26  1  0  0  0  0
 25 24  1  0  0  0  0
 25 26  1  0  0  0  0
 27  1  1  0  0  0  0
 27 28  1  0  0  0  0
 29 28  1  0  0  0  0
 29 30  1  0  0  0  0
 31 30  1  1  0  0  0
 32 35  1  0  0  0  0
 32 34  1  0  0  0  0
 34 33  1  6  0  0  0
 34 31  1  0  0  0  0
 35 31  1  0  0  0  0
M  END
>  <MODEL>
2

>  <REMARK>
 VINA RESULT:      -7.1      2.425      5.508
  Name = 
  13 active torsions:
  status: ('A' for Active; 'I' for Inactive)
    1  A    between atoms: C_1  and  C_20
    2  A    between atoms: C_3  and  C_8
    3  A    between atoms: C_3  and  C_28
    4  A    between atoms: C_4  and  C_7
    5  A    between atoms: N_5  and  C_11
    6  A    between atoms: N_5  and  N_31
    7  A    between atoms: C_11  and  C_30
    8  A    between atoms: C_15  and  O_17
    9  A    between atoms: O_17  and  C_28
   10  A    between atoms: C_20  and  C_30
   11  A    between atoms: C_21  and  N_31
   12  A    between atoms: C_23  and  C_29
   13  A    between atoms: N_31  and  C_32
                            x       y       z     vdW  Elec       q    Type
                         _______ _______ _______ _____ _____    ______ ____

>  <TORSDO>
F 13

$$$$
=
 OpenBabel10232410463D

 35 39  0  0  1  0  0  0  0  0999 V2000
  189.1930  177.9280  141.0990 N   0  0  0  0  0  0  0  0  0  0  0  0
  189.0400  177.2870  138.6990 C   0  0  0  0  0  0  0  0  0  0  0  0
  191.0250  176.5060  137.5430 C   0  0  0  0  0  0  0  0  0  0  0  0
  191.7720  176.6600  138.7130 C   0  0  0  0  0  3  0  0  0  0  0  0
  189.6660  176.8270  137.5350 C   0  0  0  0  0  3  0  0  0  0  0  0
  191.1580  177.1270  139.8770 C   0  0  0  0  0  3  0  0  0  0  0  0
  189.7910  177.4340  139.8870 C   0  0  0  0  0  0  0  0  0  0  0  0
  191.6780  176.0120  136.3030 C   0  0  0  0  0  1  0  0  0  0  0  0
  187.6030  177.6830  138.6250 C   0  0  0  0  0  2  0  0  0  0  0  0
  187.4630  178.8000  137.8010 O   0  0  0  0  0  1  0  0  0  0  0  0
  190.8960  177.1630  144.9220 C   0  0  0  0  0  0  0  0  0  0  0  0
  189.7780  177.6750  142.3930 C   0  0  0  0  0  0  0  0  0  0  0  0
  189.6830  176.3990  142.9710 C   0  0  0  0  0  3  0  0  0  0  0  0
  190.9870  178.4410  144.3620 C   0  0  0  0  0  3  0  0  0  0  0  0
  190.2420  176.1420  144.2250 C   0  0  0  0  0  3  0  0  0  0  0  0
  190.4270  178.6960  143.1080 C   0  0  0  0  0  3  0  0  0  0  0  0
  191.5220  176.8790  146.2420 C   0  0  0  0  0  2  0  0  0  0  0  0
  190.4480  176.7540  147.3050 C   0  0  0  0  0  2  0  0  0  0  0  0
  189.9480  178.0200  147.6210 O   0  0  0  0  0  0  0  0  0  0  0  0
  188.1720  176.4660  147.5070 N   0  0  0  0  0  2  0  0  0  0  0  0
  188.5730  177.8420  147.8180 C   0  0  1  0  0  0  0  0  0  0  0  0
  188.0150  178.2770  149.0110 F   0  0  0  0  0  0  0  0  0  0  0  0
  187.7560  177.5770  146.6310 C   0  0  2  0  0  3  0  0  0  0  0  0
  185.6170  178.2020  145.5620 C   0  0  0  0  0  2  0  0  0  0  0  0
  186.0320  179.3390  146.4700 C   0  0  0  0  0  2  0  0  0  0  0  0
  186.2960  177.9060  146.8830 C   0  0  0  0  0  3  0  0  0  0  0  0
  188.0800  178.7790  141.0010 N   0  0  0  0  0  2  0  0  0  0  0  0
  187.0800  178.3050  141.9490 C   0  0  0  0  0  2  0  0  0  0  0  0
  185.8210  179.1470  141.8340 C   0  0  0  0  0  2  0  0  0  0  0  0
  184.5810  178.2910  142.0320 C   0  0  0  0  0  2  0  0  0  0  0  0
  183.5150  178.6310  140.9990 C   0  0  2  0  0  3  0  0  0  0  0  0
  183.8160  177.9310  138.9820 N   0  0  0  0  0  2  0  0  0  0  0  0
  181.6940  177.2820  139.9870 C   0  0  0  0  0  1  0  0  0  0  0  0
  183.1940  177.3990  140.1880 C   0  0  2  0  0  3  0  0  0  0  0  0
  184.1540  179.1380  139.7250 C   0  0  0  0  0  2  0  0  0  0  0  0
  1 12  1  0  0  0  0
  2  7  1  0  0  0  0
  3  4  2  0  0  0  0
  4  6  1  0  0  0  0
  5  3  1  0  0  0  0
  5  2  2  0  0  0  0
  6  7  2  0  0  0  0
  7  1  1  0  0  0  0
  8  3  1  0  0  0  0
  9  2  1  0  0  0  0
 10  9  1  0  0  0  0
 11 17  1  0  0  0  0
 12 13  2  0  0  0  0
 12 16  1  0  0  0  0
 13 15  1  0  0  0  0
 14 11  1  0  0  0  0
 15 11  2  0  0  0  0
 16 14  2  0  0  0  0
 17 18  1  0  0  0  0
 18 19  1  0  0  0  0
 19 21  1  0  0  0  0
 20 21  1  0  0  0  0
 21 22  1  1  0  0  0
 23 26  1  1  0  0  0
 23 20  1  0  0  0  0
 23 21  1  0  0  0  0
 24 25  1  0  0  0  0
 24 26  1  0  0  0  0
 25 26  1  0  0  0  0
 27  1  1  0  0  0  0
 27 28  1  0  0  0  0
 29 28  1  0  0  0  0
 29 30  1  0  0  0  0
 31 30  1  1  0  0  0
 32 35  1  0  0  0  0
 32 34  1  0  0  0  0
 34 33  1  6  0  0  0
 34 31  1  0  0  0  0
 35 31  1  0  0  0  0
M  END
>  <MODEL>
3

>  <REMARK>
 VINA RESULT:      -7.1      2.434      5.489
  Name = 
  13 active torsions:
  status: ('A' for Active; 'I' for Inactive)
    1  A    between atoms: C_1  and  C_20
    2  A    between atoms: C_3  and  C_8
    3  A    between atoms: C_3  and  C_28
    4  A    between atoms: C_4  and  C_7
    5  A    between atoms: N_5  and  C_11
    6  A    between atoms: N_5  and  N_31
    7  A    between atoms: C_11  and  C_30
    8  A    between atoms: C_15  and  O_17
    9  A    between atoms: O_17  and  C_28
   10  A    between atoms: C_20  and  C_30
   11  A    between atoms: C_21  and  N_31
   12  A    between atoms: C_23  and  C_29
   13  A    between atoms: N_31  and  C_32
                            x       y       z     vdW  Elec       q    Type
                         _______ _______ _______ _____ _____    ______ ____

>  <TORSDO>
F 13

$$$$
=
 OpenBabel10232410463D

 35 39  0  0  1  0  0  0  0  0999 V2000
  187.2840  178.3780  141.4840 N   0  0  0  0  0  0  0  0  0  0  0  0
  184.8720  178.7640  141.0050 C   0  0  0  0  0  0  0  0  0  0  0  0
  183.2850  178.8200  142.8400 C   0  0  0  0  0  0  0  0  0  0  0  0
  184.3210  178.5930  143.7490 C   0  0  0  0  0  3  0  0  0  0  0  0
  183.5600  178.8970  141.4720 C   0  0  0  0  0  3  0  0  0  0  0  0
  185.6340  178.4520  143.2910 C   0  0  0  0  0  3  0  0  0  0  0  0
  185.9240  178.5450  141.9230 C   0  0  0  0  0  0  0  0  0  0  0  0
  181.8890  178.9690  143.3250 C   0  0  0  0  0  1  0  0  0  0  0  0
  185.1080  178.7820  139.5320 C   0  0  0  0  0  2  0  0  0  0  0  0
  184.5840  179.9530  138.9840 O   0  0  0  0  0  1  0  0  0  0  0  0
  190.3670  177.0760  144.1100 C   0  0  0  0  0  0  0  0  0  0  0  0
  188.3230  177.9300  142.3790 C   0  0  0  0  0  0  0  0  0  0  0  0
  189.3470  178.8090  142.7640 C   0  0  0  0  0  3  0  0  0  0  0  0
  189.3590  176.1870  143.7250 C   0  0  0  0  0  3  0  0  0  0  0  0
  190.3610  178.3880  143.6270 C   0  0  0  0  0  3  0  0  0  0  0  0
  188.3460  176.6100  142.8620 C   0  0  0  0  0  3  0  0  0  0  0  0
  191.4280  176.6380  145.0580 C   0  0  0  0  0  2  0  0  0  0  0  0
  190.8930  176.6620  146.4760 C   0  0  0  0  0  2  0  0  0  0  0  0
  190.5750  177.9740  146.8370 O   0  0  0  0  0  0  0  0  0  0  0  0
  188.7900  176.5530  147.4530 N   0  0  0  0  0  2  0  0  0  0  0  0
  189.3980  177.8810  147.5900 C   0  0  1  0  0  0  0  0  0  0  0  0
  189.4270  178.2930  148.9150 F   0  0  0  0  0  0  0  0  0  0  0  0
  188.1420  177.7340  146.8520 C   0  0  2  0  0  3  0  0  0  0  0  0
  185.6790  177.9310  146.9100 C   0  0  0  0  0  2  0  0  0  0  0  0
  186.2590  179.3220  147.0400 C   0  0  0  0  0  2  0  0  0  0  0  0
  186.9530  178.1490  147.7000 C   0  0  0  0  0  3  0  0  0  0  0  0
  187.5740  178.5380  140.1180 N   0  0  0  0  0  2  0  0  0  0  0  0
  188.4550  177.4470  139.7250 C   0  0  0  0  0  2  0  0  0  0  0  0
  188.3990  177.2560  138.2190 C   0  0  0  0  0  2  0  0  0  0  0  0
  189.7910  177.0230  137.6540 C   0  0  0  0  0  2  0  0  0  0  0  0
  190.6890  176.3490  138.6830 C   0  0  2  0  0  3  0  0  0  0  0  0
  192.8110  176.3340  138.3020 N   0  0  0  0  0  2  0  0  0  0  0  0
  192.1630  177.2680  140.4560 C   0  0  0  0  0  1  0  0  0  0  0  0
  191.8770  177.2360  138.9650 C   0  0  2  0  0  3  0  0  0  0  0  0
  191.6940  175.4480  137.9990 C   0  0  0  0  0  2  0  0  0  0  0  0
  1  7  1  0  0  0  0
  1 12  1  0  0  0  0
  2  5  2  0  0  0  0
  2  7  1  0  0  0  0
  3  8  1  0  0  0  0
  3  4  2  0  0  0  0
  5  3  1  0  0  0  0
  6  4  1  0  0  0  0
  7  6  2  0  0  0  0
  9  2  1  0  0  0  0
 10  9  1  0  0  0  0
 11 17  1  0  0  0  0
 12 13  2  0  0  0  0
 12 16  1  0  0  0  0
 13 15  1  0  0  0  0
 14 11  1  0  0  0  0
 15 11  2  0  0  0  0
 16 14  2  0  0  0  0
 17 18  1  0  0  0  0
 18 19  1  0  0  0  0
 19 21  1  0  0  0  0
 20 21  1  0  0  0  0
 21 22  1  1  0  0  0
 23 20  1  0  0  0  0
 23 21  1  0  0  0  0
 23 26  1  1  0  0  0
 24 25  1  0  0  0  0
 24 26  1  0  0  0  0
 25 26  1  0  0  0  0
 27  1  1  0  0  0  0
 28 27  1  0  0  0  0
 29 28  1  0  0  0  0
 30 29  1  0  0  0  0
 31 30  1  6  0  0  0
 31 34  1  0  0  0  0
 32 34  1  0  0  0  0
 34 33  1  1  0  0  0
 35 32  1  0  0  0  0
 35 31  1  0  0  0  0
M  END
>  <MODEL>
4

>  <REMARK>
 VINA RESULT:      -7.0      2.295      5.705
  Name = 
  13 active torsions:
  status: ('A' for Active; 'I' for Inactive)
    1  A    between atoms: C_1  and  C_20
    2  A    between atoms: C_3  and  C_8
    3  A    between atoms: C_3  and  C_28
    4  A    between atoms: C_4  and  C_7
    5  A    between atoms: N_5  and  C_11
    6  A    between atoms: N_5  and  N_31
    7  A    between atoms: C_11  and  C_30
    8  A    between atoms: C_15  and  O_17
    9  A    between atoms: O_17  and  C_28
   10  A    between atoms: C_20  and  C_30
   11  A    between atoms: C_21  and  N_31
   12  A    between atoms: C_23  and  C_29
   13  A    between atoms: N_31  and  C_32
                            x       y       z     vdW  Elec       q    Type
                         _______ _______ _______ _____ _____    ______ ____

>  <TORSDO>
F 13

$$$$
=
 OpenBabel10232410463D

 35 39  0  0  1  0  0  0  0  0999 V2000
  184.3870  178.6020  139.8630 N   0  0  0  0  0  0  0  0  0  0  0  0
  182.2950  178.7950  138.5280 C   0  0  0  0  0  0  0  0  0  0  0  0
  181.2290  176.7850  137.6850 C   0  0  0  0  0  0  0  0  0  0  0  0
  182.2260  176.0040  138.2720 C   0  0  0  0  0  3  0  0  0  0  0  0
  181.2690  178.1760  137.8070 C   0  0  0  0  0  3  0  0  0  0  0  0
  183.2590  176.6130  138.9890 C   0  0  0  0  0  3  0  0  0  0  0  0
  183.3010  178.0060  139.1330 C   0  0  0  0  0  0  0  0  0  0  0  0
  180.1300  176.1390  136.9210 C   0  0  0  0  0  1  0  0  0  0  0  0
  182.3360  180.2850  138.5720 C   0  0  0  0  0  2  0  0  0  0  0  0
  181.1740  180.7730  139.1690 O   0  0  0  0  0  1  0  0  0  0  0  0
  184.4180  178.7300  144.1160 C   0  0  0  0  0  0  0  0  0  0  0  0
  184.4050  178.6390  141.3050 C   0  0  0  0  0  0  0  0  0  0  0  0
  183.2100  178.8150  142.0200 C   0  0  0  0  0  3  0  0  0  0  0  0
  185.6170  178.5660  143.4160 C   0  0  0  0  0  3  0  0  0  0  0  0
  183.2130  178.8560  143.4160 C   0  0  0  0  0  3  0  0  0  0  0  0
  185.6110  178.5250  142.0190 C   0  0  0  0  0  3  0  0  0  0  0  0
  184.4170  178.7380  145.6040 C   0  0  0  0  0  2  0  0  0  0  0  0
  185.7300  179.2950  146.1170 C   0  0  0  0  0  2  0  0  0  0  0  0
  186.1790  178.5250  147.1940 O   0  0  0  0  0  0  0  0  0  0  0  0
  188.0030  177.0960  147.6540 N   0  0  0  0  0  2  0  0  0  0  0  0
  187.0590  177.5850  146.6440 C   0  0  1  0  0  0  0  0  0  0  0  0
  186.5300  176.5440  145.8960 F   0  0  0  0  0  0  0  0  0  0  0  0
  188.4720  177.9630  146.5570 C   0  0  2  0  0  3  0  0  0  0  0  0
  190.3810  177.9130  144.9880 C   0  0  0  0  0  2  0  0  0  0  0  0
  189.1090  177.8100  144.1750 C   0  0  0  0  0  2  0  0  0  0  0  0
  189.2020  177.1260  145.5230 C   0  0  0  0  0  3  0  0  0  0  0  0
  185.5120  179.0480  139.1500 N   0  0  0  0  0  2  0  0  0  0  0  0
  185.7660  178.0880  138.0840 C   0  0  0  0  0  2  0  0  0  0  0  0
  187.0950  177.3910  138.3230 C   0  0  0  0  0  2  0  0  0  0  0  0
  188.0110  178.2570  139.1720 C   0  0  0  0  0  2  0  0  0  0  0  0
  189.4700  178.0340  138.7980 C   0  0  2  0  0  3  0  0  0  0  0  0
  190.3530  176.1320  139.2990 N   0  0  0  0  0  2  0  0  0  0  0  0
  190.5340  176.7590  136.9520 C   0  0  0  0  0  1  0  0  0  0  0  0
  189.6190  176.6730  138.1620 C   0  0  2  0  0  3  0  0  0  0  0  0
  190.2280  177.4260  139.9570 C   0  0  0  0  0  2  0  0  0  0  0  0
  1 12  1  0  0  0  0
  2  9  1  0  0  0  0
  2  7  1  0  0  0  0
  3  5  1  0  0  0  0
  3  4  2  0  0  0  0
  4  6  1  0  0  0  0
  5  2  2  0  0  0  0
  6  7  2  0  0  0  0
  7  1  1  0  0  0  0
  8  3  1  0  0  0  0
  9 10  1  0  0  0  0
 11 17  1  0  0  0  0
 12 16  1  0  0  0  0
 12 13  2  0  0  0  0
 13 15  1  0  0  0  0
 14 11  1  0  0  0  0
 15 11  2  0  0  0  0
 16 14  2  0  0  0  0
 17 18  1  0  0  0  0
 18 19  1  0  0  0  0
 21 22  1  6  0  0  0
 21 19  1  0  0  0  0
 21 20  1  0  0  0  0
 23 26  1  6  0  0  0
 23 21  1  0  0  0  0
 23 20  1  0  0  0  0
 24 26  1  0  0  0  0
 25 24  1  0  0  0  0
 25 26  1  0  0  0  0
 27  1  1  0  0  0  0
 28 29  1  0  0  0  0
 28 27  1  0  0  0  0
 29 30  1  0  0  0  0
 31 30  1  1  0  0  0
 31 35  1  0  0  0  0
 32 35  1  0  0  0  0
 34 33  1  6  0  0  0
 34 31  1  0  0  0  0
 34 32  1  0  0  0  0
M  END
>  <MODEL>
5

>  <REMARK>
 VINA RESULT:      -6.9      3.201      6.792
  Name = 
  13 active torsions:
  status: ('A' for Active; 'I' for Inactive)
    1  A    between atoms: C_1  and  C_20
    2  A    between atoms: C_3  and  C_8
    3  A    between atoms: C_3  and  C_28
    4  A    between atoms: C_4  and  C_7
    5  A    between atoms: N_5  and  C_11
    6  A    between atoms: N_5  and  N_31
    7  A    between atoms: C_11  and  C_30
    8  A    between atoms: C_15  and  O_17
    9  A    between atoms: O_17  and  C_28
   10  A    between atoms: C_20  and  C_30
   11  A    between atoms: C_21  and  N_31
   12  A    between atoms: C_23  and  C_29
   13  A    between atoms: N_31  and  C_32
                            x       y       z     vdW  Elec       q    Type
                         _______ _______ _______ _____ _____    ______ ____

>  <TORSDO>
F 13

$$$$
=
 OpenBabel10232410463D

 35 39  0  0  1  0  0  0  0  0999 V2000
  187.3150  178.4090  141.5160 N   0  0  0  0  0  0  0  0  0  0  0  0
  184.9280  178.7220  140.8840 C   0  0  0  0  0  0  0  0  0  0  0  0
  183.2330  178.7910  142.6170 C   0  0  0  0  0  0  0  0  0  0  0  0
  184.2170  178.6150  143.5930 C   0  0  0  0  0  3  0  0  0  0  0  0
  183.5880  178.8360  141.2680 C   0  0  0  0  0  3  0  0  0  0  0  0
  185.5570  178.4930  143.2190 C   0  0  0  0  0  3  0  0  0  0  0  0
  185.9270  178.5550  141.8690 C   0  0  0  0  0  0  0  0  0  0  0  0
  181.8060  178.9190  143.0150 C   0  0  0  0  0  1  0  0  0  0  0  0
  185.2520  178.7060  139.4270 C   0  0  0  0  0  2  0  0  0  0  0  0
  184.8040  179.8840  138.8300 O   0  0  0  0  0  1  0  0  0  0  0  0
  190.2430  177.1380  144.3290 C   0  0  0  0  0  0  0  0  0  0  0  0
  188.3010  177.9720  142.4740 C   0  0  0  0  0  0  0  0  0  0  0  0
  189.3010  178.8570  142.9080 C   0  0  0  0  0  3  0  0  0  0  0  0
  189.2590  176.2440  143.8970 C   0  0  0  0  0  3  0  0  0  0  0  0
  190.2640  178.4460  143.8320 C   0  0  0  0  0  3  0  0  0  0  0  0
  188.2970  176.6570  142.9720 C   0  0  0  0  0  3  0  0  0  0  0  0
  191.2480  176.7110  145.3400 C   0  0  0  0  0  2  0  0  0  0  0  0
  190.5890  176.5880  146.7000 C   0  0  0  0  0  2  0  0  0  0  0  0
  190.4550  177.8550  147.2750 O   0  0  0  0  0  0  0  0  0  0  0  0
  188.5220  176.5670  147.7090 N   0  0  0  0  0  2  0  0  0  0  0  0
  189.1890  177.8630  147.8740 C   0  0  1  0  0  0  0  0  0  0  0  0
  189.0770  178.3300  149.1750 F   0  0  0  0  0  0  0  0  0  0  0  0
  188.0280  177.7550  146.9870 C   0  0  2  0  0  3  0  0  0  0  0  0
  185.5800  178.0050  146.7640 C   0  0  0  0  0  2  0  0  0  0  0  0
  186.1840  179.3900  146.8210 C   0  0  0  0  0  2  0  0  0  0  0  0
  186.7710  178.2730  147.6600 C   0  0  0  0  0  3  0  0  0  0  0  0
  187.6890  178.5810  140.1730 N   0  0  0  0  0  2  0  0  0  0  0  0
  188.7370  177.6120  139.8820 C   0  0  0  0  0  2  0  0  0  0  0  0
  189.4290  177.9760  138.5800 C   0  0  0  0  0  2  0  0  0  0  0  0
  188.4490  178.6180  137.6110 C   0  0  0  0  0  2  0  0  0  0  0  0
  188.1450  177.6850  136.4470 C   0  0  2  0  0  3  0  0  0  0  0  0
  186.1760  176.8120  136.3520 N   0  0  0  0  0  2  0  0  0  0  0  0
  186.8630  178.0130  134.3470 C   0  0  0  0  0  1  0  0  0  0  0  0
  186.7980  178.0360  135.8640 C   0  0  2  0  0  3  0  0  0  0  0  0
  187.4540  176.4320  136.9390 C   0  0  0  0  0  2  0  0  0  0  0  0
  1  7  1  0  0  0  0
  1 12  1  0  0  0  0
  2  5  2  0  0  0  0
  2  7  1  0  0  0  0
  3  8  1  0  0  0  0
  3  4  2  0  0  0  0
  5  3  1  0  0  0  0
  6  4  1  0  0  0  0
  7  6  2  0  0  0  0
  9  2  1  0  0  0  0
 10  9  1  0  0  0  0
 11 17  1  0  0  0  0
 12 13  2  0  0  0  0
 12 16  1  0  0  0  0
 13 15  1  0  0  0  0
 14 11  1  0  0  0  0
 15 11  2  0  0  0  0
 16 14  2  0  0  0  0
 17 18  1  0  0  0  0
 18 19  1  0  0  0  0
 19 21  1  0  0  0  0
 20 21  1  0  0  0  0
 21 22  1  1  0  0  0
 23 26  1  1  0  0  0
 23 20  1  0  0  0  0
 23 21  1  0  0  0  0
 24 25  1  0  0  0  0
 24 26  1  0  0  0  0
 25 26  1  0  0  0  0
 27  1  1  0  0  0  0
 28 27  1  0  0  0  0
 29 28  1  0  0  0  0
 30 29  1  0  0  0  0
 31 35  1  0  0  0  0
 31 30  1  1  0  0  0
 32 35  1  0  0  0  0
 34 33  1  6  0  0  0
 34 32  1  0  0  0  0
 34 31  1  0  0  0  0
M  END
>  <MODEL>
6

>  <REMARK>
 VINA RESULT:      -6.9      2.283      5.442
  Name = 
  13 active torsions:
  status: ('A' for Active; 'I' for Inactive)
    1  A    between atoms: C_1  and  C_20
    2  A    between atoms: C_3  and  C_8
    3  A    between atoms: C_3  and  C_28
    4  A    between atoms: C_4  and  C_7
    5  A    between atoms: N_5  and  C_11
    6  A    between atoms: N_5  and  N_31
    7  A    between atoms: C_11  and  C_30
    8  A    between atoms: C_15  and  O_17
    9  A    between atoms: O_17  and  C_28
   10  A    between atoms: C_20  and  C_30
   11  A    between atoms: C_21  and  N_31
   12  A    between atoms: C_23  and  C_29
   13  A    between atoms: N_31  and  C_32
                            x       y       z     vdW  Elec       q    Type
                         _______ _______ _______ _____ _____    ______ ____

>  <TORSDO>
F 13

$$$$
=
 OpenBabel10232410463D

 35 39  0  0  1  0  0  0  0  0999 V2000
  189.1440  177.9110  140.6960 N   0  0  0  0  0  0  0  0  0  0  0  0
  189.9070  176.6260  138.7060 C   0  0  0  0  0  0  0  0  0  0  0  0
  192.2820  176.3160  138.3230 C   0  0  0  0  0  0  0  0  0  0  0  0
  192.5680  177.0410  139.4830 C   0  0  0  0  0  3  0  0  0  0  0  0
  190.9560  176.1180  137.9330 C   0  0  0  0  0  3  0  0  0  0  0  0
  191.5270  177.5590  140.2570 C   0  0  0  0  0  3  0  0  0  0  0  0
  190.1920  177.3500  139.8860 C   0  0  0  0  0  0  0  0  0  0  0  0
  193.3890  175.7670  137.4980 C   0  0  0  0  0  1  0  0  0  0  0  0
  188.5100  176.4500  138.2120 C   0  0  0  0  0  2  0  0  0  0  0  0
  188.3280  177.1760  137.0350 O   0  0  0  0  0  1  0  0  0  0  0  0
  189.0090  177.2910  144.9030 C   0  0  0  0  0  0  0  0  0  0  0  0
  189.0890  177.6990  142.1220 C   0  0  0  0  0  0  0  0  0  0  0  0
  189.8970  178.4610  142.9790 C   0  0  0  0  0  3  0  0  0  0  0  0
  188.2070  176.5170  144.0590 C   0  0  0  0  0  3  0  0  0  0  0  0
  189.8550  178.2640  144.3610 C   0  0  0  0  0  3  0  0  0  0  0  0
  188.2500  176.7160  142.6770 C   0  0  0  0  0  3  0  0  0  0  0  0
  188.9390  177.1050  146.3780 C   0  0  0  0  0  2  0  0  0  0  0  0
  188.1810  178.2570  147.0070 C   0  0  0  0  0  2  0  0  0  0  0  0
  186.9230  177.8170  147.4300 O   0  0  0  0  0  0  0  0  0  0  0  0
  184.6250  178.2790  147.1300 N   0  0  0  0  0  2  0  0  0  0  0  0
  186.0030  178.6970  146.8470 C   0  0  1  0  0  0  0  0  0  0  0  0
  186.1730  180.0590  147.0490 F   0  0  0  0  0  0  0  0  0  0  0  0
  185.1690  178.1720  145.7630 C   0  0  2  0  0  3  0  0  0  0  0  0
  183.6860  178.7060  143.8600 C   0  0  0  0  0  2  0  0  0  0  0  0
  185.0930  179.1110  143.4800 C   0  0  0  0  0  2  0  0  0  0  0  0
  184.6130  179.2930  144.9050 C   0  0  0  0  0  3  0  0  0  0  0  0
  188.2240  178.7870  140.0950 N   0  0  0  0  0  2  0  0  0  0  0  0
  186.9210  178.5340  140.6940 C   0  0  0  0  0  2  0  0  0  0  0  0
  185.8620  178.4470  139.6090 C   0  0  0  0  0  2  0  0  0  0  0  0
  184.6720  179.3290  139.9450 C   0  0  0  0  0  2  0  0  0  0  0  0
  183.3630  178.5870  139.7140 C   0  0  2  0  0  3  0  0  0  0  0  0
  182.8200  178.1240  137.6800 N   0  0  0  0  0  2  0  0  0  0  0  0
  182.8710  176.2110  139.1870 C   0  0  0  0  0  1  0  0  0  0  0  0
  183.5910  177.4670  138.7280 C   0  0  2  0  0  3  0  0  0  0  0  0
  182.5780  179.2330  138.5930 C   0  0  0  0  0  2  0  0  0  0  0  0
  1 12  1  0  0  0  0
  2  7  1  0  0  0  0
  3  4  2  0  0  0  0
  4  6  1  0  0  0  0
  5  3  1  0  0  0  0
  5  2  2  0  0  0  0
  7  6  2  0  0  0  0
  7  1  1  0  0  0  0
  8  3  1  0  0  0  0
  9  2  1  0  0  0  0
 10  9  1  0  0  0  0
 11 17  1  0  0  0  0
 12 16  2  0  0  0  0
 12 13  1  0  0  0  0
 13 15  2  0  0  0  0
 14 11  2  0  0  0  0
 15 11  1  0  0  0  0
 16 14  1  0  0  0  0
 17 18  1  0  0  0  0
 18 19  1  0  0  0  0
 21 22  1  1  0  0  0
 21 20  1  0  0  0  0
 21 19  1  0  0  0  0
 23 26  1  6  0  0  0
 23 21  1  0  0  0  0
 23 20  1  0  0  0  0
 24 26  1  0  0  0  0
 25 24  1  0  0  0  0
 25 26  1  0  0  0  0
 27 28  1  0  0  0  0
 27  1  1  0  0  0  0
 29 30  1  0  0  0  0
 29 28  1  0  0  0  0
 31 30  1  6  0  0  0
 32 35  1  0  0  0  0
 32 34  1  0  0  0  0
 34 33  1  1  0  0  0
 34 31  1  0  0  0  0
 35 31  1  0  0  0  0
M  END
>  <MODEL>
7

>  <REMARK>
 VINA RESULT:      -6.8      2.593      4.970
  Name = 
  13 active torsions:
  status: ('A' for Active; 'I' for Inactive)
    1  A    between atoms: C_1  and  C_20
    2  A    between atoms: C_3  and  C_8
    3  A    between atoms: C_3  and  C_28
    4  A    between atoms: C_4  and  C_7
    5  A    between atoms: N_5  and  C_11
    6  A    between atoms: N_5  and  N_31
    7  A    between atoms: C_11  and  C_30
    8  A    between atoms: C_15  and  O_17
    9  A    between atoms: O_17  and  C_28
   10  A    between atoms: C_20  and  C_30
   11  A    between atoms: C_21  and  N_31
   12  A    between atoms: C_23  and  C_29
   13  A    between atoms: N_31  and  C_32
                            x       y       z     vdW  Elec       q    Type
                         _______ _______ _______ _____ _____    ______ ____

>  <TORSDO>
F 13

$$$$
=
 OpenBabel10232410463D

 35 39  0  0  1  0  0  0  0  0999 V2000
  190.1620  177.3210  142.5040 N   0  0  0  0  0  0  0  0  0  0  0  0
  190.9740  177.6980  144.8260 C   0  0  0  0  0  0  0  0  0  0  0  0
  192.0640  175.8880  146.0180 C   0  0  0  0  0  0  0  0  0  0  0  0
  191.9000  175.0530  144.9110 C   0  0  0  0  0  3  0  0  0  0  0  0
  191.5950  177.2030  145.9780 C   0  0  0  0  0  3  0  0  0  0  0  0
  191.2750  175.5370  143.7580 C   0  0  0  0  0  3  0  0  0  0  0  0
  190.8160  176.8600  143.6990 C   0  0  0  0  0  0  0  0  0  0  0  0
  192.7260  175.3730  147.2450 C   0  0  0  0  0  1  0  0  0  0  0  0
  190.4270  179.0860  144.8540 C   0  0  0  0  0  2  0  0  0  0  0  0
  191.2400  179.9300  144.0980 O   0  0  0  0  0  1  0  0  0  0  0  0
  185.9830  178.1140  142.4090 C   0  0  0  0  0  0  0  0  0  0  0  0
  188.7470  177.6000  142.4710 C   0  0  0  0  0  0  0  0  0  0  0  0
  187.8580  176.8180  143.2240 C   0  0  0  0  0  3  0  0  0  0  0  0
  186.8570  178.8930  141.6440 C   0  0  0  0  0  3  0  0  0  0  0  0
  186.4850  177.0750  143.1990 C   0  0  0  0  0  3  0  0  0  0  0  0
  188.2300  178.6340  141.6720 C   0  0  0  0  0  3  0  0  0  0  0  0
  184.5250  178.4100  142.4090 C   0  0  0  0  0  2  0  0  0  0  0  0
  184.0230  178.5270  143.8340 C   0  0  0  0  0  2  0  0  0  0  0  0
  184.7960  179.4620  144.5300 O   0  0  0  0  0  0  0  0  0  0  0  0
  185.6060  179.8510  146.7150 N   0  0  0  0  0  2  0  0  0  0  0  0
  185.0900  178.8630  145.7610 C   0  0  1  0  0  0  0  0  0  0  0  0
  184.1320  178.0470  146.3440 F   0  0  0  0  0  0  0  0  0  0  0  0
  186.4990  178.8140  146.1610 C   0  0  2  0  0  3  0  0  0  0  0  0
  188.0250  178.0390  147.9440 C   0  0  0  0  0  2  0  0  0  0  0  0
  188.0040  176.9850  146.8590 C   0  0  0  0  0  2  0  0  0  0  0  0
  186.7370  177.7390  147.2050 C   0  0  0  0  0  3  0  0  0  0  0  0
  190.9500  177.6230  141.3800 N   0  0  0  0  0  2  0  0  0  0  0  0
  190.4750  176.7970  140.2770 C   0  0  0  0  0  2  0  0  0  0  0  0
  191.6080  176.5440  139.2980 C   0  0  0  0  0  2  0  0  0  0  0  0
  191.1290  175.7040  138.1260 C   0  0  0  0  0  2  0  0  0  0  0  0
  192.3040  175.0610  137.4030 C   0  0  2  0  0  3  0  0  0  0  0  0
  193.8390  176.3630  136.6290 N   0  0  0  0  0  2  0  0  0  0  0  0
  194.6400  174.6010  138.1090 C   0  0  0  0  0  1  0  0  0  0  0  0
  193.5910  175.6790  137.8920 C   0  0  2  0  0  3  0  0  0  0  0  0
  192.6000  175.7950  136.1130 C   0  0  0  0  0  2  0  0  0  0  0  0
  1  7  1  0  0  0  0
  2  9  1  0  0  0  0
  2  5  1  0  0  0  0
  3  8  1  0  0  0  0
  4  3  1  0  0  0  0
  5  3  2  0  0  0  0
  6  4  2  0  0  0  0
  7  6  1  0  0  0  0
  7  2  2  0  0  0  0
 10  9  1  0  0  0  0
 11 17  1  0  0  0  0
 11 15  1  0  0  0  0
 12  1  1  0  0  0  0
 12 13  1  0  0  0  0
 14 16  1  0  0  0  0
 14 11  2  0  0  0  0
 15 13  2  0  0  0  0
 16 12  2  0  0  0  0
 17 18  1  0  0  0  0
 18 19  1  0  0  0  0
 19 21  1  0  0  0  0
 21 23  1  0  0  0  0
 21 22  1  1  0  0  0
 21 20  1  0  0  0  0
 23 20  1  0  0  0  0
 23 26  1  1  0  0  0
 25 26  1  0  0  0  0
 25 24  1  0  0  0  0
 26 24  1  0  0  0  0
 27  1  1  0  0  0  0
 28 27  1  0  0  0  0
 29 28  1  0  0  0  0
 30 29  1  0  0  0  0
 31 34  1  0  0  0  0
 31 30  1  1  0  0  0
 32 34  1  0  0  0  0
 34 33  1  6  0  0  0
 35 32  1  0  0  0  0
 35 31  1  0  0  0  0
M  END
>  <MODEL>
8

>  <REMARK>
 VINA RESULT:      -6.8      1.664      2.415
  Name = 
  13 active torsions:
  status: ('A' for Active; 'I' for Inactive)
    1  A    between atoms: C_1  and  C_20
    2  A    between atoms: C_3  and  C_8
    3  A    between atoms: C_3  and  C_28
    4  A    between atoms: C_4  and  C_7
    5  A    between atoms: N_5  and  C_11
    6  A    between atoms: N_5  and  N_31
    7  A    between atoms: C_11  and  C_30
    8  A    between atoms: C_15  and  O_17
    9  A    between atoms: O_17  and  C_28
   10  A    between atoms: C_20  and  C_30
   11  A    between atoms: C_21  and  N_31
   12  A    between atoms: C_23  and  C_29
   13  A    between atoms: N_31  and  C_32
                            x       y       z     vdW  Elec       q    Type
                         _______ _______ _______ _____ _____    ______ ____

>  <TORSDO>
F 13

$$$$
=
 OpenBabel10232410463D

 35 39  0  0  1  0  0  0  0  0999 V2000
  190.3080  177.4080  141.7180 N   0  0  0  0  0  0  0  0  0  0  0  0
  191.1200  177.9870  143.9990 C   0  0  0  0  0  0  0  0  0  0  0  0
  191.8250  176.2170  145.5000 C   0  0  0  0  0  0  0  0  0  0  0  0
  191.5350  175.2640  144.5200 C   0  0  0  0  0  3  0  0  0  0  0  0
  191.6090  177.5720  145.2420 C   0  0  0  0  0  3  0  0  0  0  0  0
  191.0390  175.6690  143.2790 C   0  0  0  0  0  3  0  0  0  0  0  0
  190.8360  177.0270  143.0010 C   0  0  0  0  0  0  0  0  0  0  0  0
  192.3510  175.7880  146.8220 C   0  0  0  0  0  1  0  0  0  0  0  0
  190.8390  179.4380  143.7930 C   0  0  0  0  0  2  0  0  0  0  0  0
  191.5920  180.1970  144.6890 O   0  0  0  0  0  1  0  0  0  0  0  0
  192.3650  176.5280  138.0990 C   0  0  0  0  0  0  0  0  0  0  0  0
  191.0000  177.1020  140.4900 C   0  0  0  0  0  0  0  0  0  0  0  0
  192.3650  177.4000  140.3570 C   0  0  0  0  0  3  0  0  0  0  0  0
  191.0020  176.2360  138.2140 C   0  0  0  0  0  3  0  0  0  0  0  0
  193.0460  177.1120  139.1720 C   0  0  0  0  0  3  0  0  0  0  0  0
  190.3230  176.5250  139.4010 C   0  0  0  0  0  3  0  0  0  0  0  0
  193.0980  176.1880  136.8500 C   0  0  0  0  0  2  0  0  0  0  0  0
  194.3400  175.3850  137.1840 C   0  0  0  0  0  2  0  0  0  0  0  0
  194.0020  174.3270  138.0330 O   0  0  0  0  0  0  0  0  0  0  0  0
  196.0190  174.5500  139.2440 N   0  0  0  0  0  2  0  0  0  0  0  0
  195.2140  173.7040  138.3560 C   0  0  1  0  0  0  0  0  0  0  0  0
  195.1830  172.3890  138.7980 F   0  0  0  0  0  0  0  0  0  0  0  0
  196.4410  174.3230  137.8480 C   0  0  2  0  0  3  0  0  0  0  0  0
  198.5980  173.7650  136.7780 C   0  0  0  0  0  2  0  0  0  0  0  0
  197.6220  172.6530  136.4640 C   0  0  0  0  0  2  0  0  0  0  0  0
  197.5870  173.3290  137.8190 C   0  0  0  0  0  3  0  0  0  0  0  0
  189.0280  177.9840  141.6620 N   0  0  0  0  0  2  0  0  0  0  0  0
  188.0880  177.0210  142.2170 C   0  0  0  0  0  2  0  0  0  0  0  0
  187.2870  177.6660  143.3350 C   0  0  0  0  0  2  0  0  0  0  0  0
  187.5960  177.0060  144.6680 C   0  0  0  0  0  2  0  0  0  0  0  0
  187.8310  178.0510  145.7510 C   0  0  2  0  0  3  0  0  0  0  0  0
  186.6200  177.9380  147.5310 N   0  0  0  0  0  2  0  0  0  0  0  0
  189.0240  177.9490  147.9250 C   0  0  0  0  0  1  0  0  0  0  0  0
  187.8900  177.3700  147.0970 C   0  0  2  0  0  3  0  0  0  0  0  0
  186.5140  178.6100  146.2430 C   0  0  0  0  0  2  0  0  0  0  0  0
  1  7  1  0  0  0  0
  2  5  1  0  0  0  0
  3  8  1  0  0  0  0
  4  3  1  0  0  0  0
  5  3  2  0  0  0  0
  6  4  2  0  0  0  0
  7  6  1  0  0  0  0
  7  2  2  0  0  0  0
  9  2  1  0  0  0  0
  9 10  1  0  0  0  0
 11 14  2  0  0  0  0
 11 15  1  0  0  0  0
 12  1  1  0  0  0  0
 13 12  1  0  0  0  0
 14 16  1  0  0  0  0
 15 13  2  0  0  0  0
 16 12  2  0  0  0  0
 17 18  1  0  0  0  0
 17 11  1  0  0  0  0
 18 19  1  0  0  0  0
 19 21  1  0  0  0  0
 21 22  1  1  0  0  0
 21 20  1  0  0  0  0
 23 26  1  1  0  0  0
 23 21  1  0  0  0  0
 23 20  1  0  0  0  0
 24 26  1  0  0  0  0
 25 24  1  0  0  0  0
 25 26  1  0  0  0  0
 27  1  1  0  0  0  0
 27 28  1  0  0  0  0
 28 29  1  0  0  0  0
 29 30  1  0  0  0  0
 31 30  1  6  0  0  0
 31 35  1  0  0  0  0
 31 34  1  0  0  0  0
 34 32  1  0  0  0  0
 34 33  1  1  0  0  0
 35 32  1  0  0  0  0
M  END
>  <MODEL>
9

>  <REMARK>
 VINA RESULT:      -6.6      4.396      8.779
  Name = 
  13 active torsions:
  status: ('A' for Active; 'I' for Inactive)
    1  A    between atoms: C_1  and  C_20
    2  A    between atoms: C_3  and  C_8
    3  A    between atoms: C_3  and  C_28
    4  A    between atoms: C_4  and  C_7
    5  A    between atoms: N_5  and  C_11
    6  A    between atoms: N_5  and  N_31
    7  A    between atoms: C_11  and  C_30
    8  A    between atoms: C_15  and  O_17
    9  A    between atoms: O_17  and  C_28
   10  A    between atoms: C_20  and  C_30
   11  A    between atoms: C_21  and  N_31
   12  A    between atoms: C_23  and  C_29
   13  A    between atoms: N_31  and  C_32
                            x       y       z     vdW  Elec       q    Type
                         _______ _______ _______ _____ _____    ______ ____

>  <TORSDO>
F 13

$$$$
