=
 OpenBabel10232409333D

 33 37  0  0  1  0  0  0  0  0999 V2000
  187.6490  178.5450  139.9470 N   0  0  0  0  0  0  0  0  0  0  0  0
  188.8470  178.4040  137.9490 C   0  0  0  0  0  3  0  0  0  0  0  0
  190.2290  175.6790  135.8980 C   0  0  0  0  0  3  0  0  0  0  0  0
  188.7240  178.0940  139.3750 C   0  0  0  0  0  0  0  0  0  0  0  0
  189.9950  176.2240  134.6760 N   0  0  0  0  0  0  0  0  0  0  0  0
  189.1760  178.2200  135.6800 C   0  0  0  0  0  3  0  0  0  0  0  0
  190.3890  175.8150  138.1950 C   0  0  0  0  0  3  0  0  0  0  0  0
  190.1900  177.7370  141.4400 C   0  0  0  0  0  3  0  0  0  0  0  0
  187.1720  178.4070  141.2970 C   0  0  0  0  0  0  0  0  0  0  0  0
  189.7470  177.3330  140.1060 C   0  0  0  0  0  0  0  0  0  0  0  0
  189.4450  178.2390  142.4250 C   0  0  0  0  0  0  0  0  0  0  0  0
  189.3720  177.6840  136.9570 C   0  0  0  0  0  0  0  0  0  0  0  0
  189.9560  176.3920  137.0730 C   0  0  0  0  0  0  0  0  0  0  0  0
  187.9770  178.3150  142.3610 C   0  0  0  0  0  3  0  0  0  0  0  0
  190.4400  176.3390  139.5650 C   0  0  0  0  0  3  0  0  0  0  0  0
  189.4970  177.4790  134.5450 C   0  0  0  0  0  3  0  0  0  0  0  0
  184.8090  178.7170  140.4360 C   0  0  0  0  0  2  0  0  0  0  0  0
  185.1430  178.3960  142.7980 C   0  0  0  0  0  3  0  0  0  0  0  0
  185.7550  178.5120  141.5210 N   0  0  0  0  0  0  0  0  0  0  0  0
  183.1370  178.8140  141.1710 S   0  0  0  0  0  0  0  0  0  0  0  0
  183.8320  178.5190  142.7910 C   0  0  0  0  0  3  0  0  0  0  0  0
  190.9800  179.6000  143.6950 O   0  0  0  0  0  1  0  0  0  0  0  0
  190.0790  178.5870  143.6660 N   0  0  0  0  0  0  0  0  0  0  0  0
  189.9300  177.7590  144.8570 C   0  0  0  0  0  2  0  0  0  0  0  0
  191.4570  177.1030  146.8070 N   0  0  0  0  0  0  0  0  0  0  0  0
  191.4620  175.5910  143.4190 O   0  0  0  0  0  1  0  0  0  0  0  0
  191.6500  175.9500  144.7480 C   0  0  0  0  0  0  0  0  0  0  0  0
  191.2990  177.2620  145.3370 C   0  0  1  0  0  3  0  0  0  0  0  0
  190.1620  176.9270  147.4800 C   0  0  0  0  0  1  0  0  0  0  0  0
  192.2940  175.8850  146.9490 C   0  0  2  0  0  3  0  0  0  0  0  0
  192.6850  173.9010  145.3990 O   0  0  0  0  0  1  0  0  0  0  0  0
  192.2080  175.1830  145.6470 C   0  0  0  0  0  0  0  0  0  0  0  0
  191.8850  175.0460  147.9960 O   0  0  0  0  0  1  0  0  0  0  0  0
  1  9  1  0  0  0  0
  2  4  1  0  0  0  0
  3 13  1  0  0  0  0
  4  1  2  0  0  0  0
  4 10  1  0  0  0  0
  5  3  2  0  0  0  0
  6 12  1  0  0  0  0
  7 15  1  0  0  0  0
  8 11  2  0  0  0  0
  9 19  1  0  0  0  0
  9 14  2  0  0  0  0
 10  8  1  0  0  0  0
 11 23  1  0  0  0  0
 12 13  1  0  0  0  0
 12  2  2  0  0  0  0
 13  7  2  0  0  0  0
 14 11  1  0  0  0  0
 15 10  2  0  0  0  0
 16  5  1  0  0  0  0
 16  6  2  0  0  0  0
 17 20  1  0  0  0  0
 17 19  1  0  0  0  0
 19 18  1  0  0  0  0
 20 21  1  0  0  0  0
 21 18  2  0  0  0  0
 23 22  1  0  0  0  0
 23 24  1  0  0  0  0
 25 30  1  0  0  0  0
 25 29  1  0  0  0  0
 26 27  1  0  0  0  0
 27 28  1  0  0  0  0
 27 32  2  0  0  0  0
 28 24  1  1  0  0  0
 28 25  1  0  0  0  0
 30 33  1  1  0  0  0
 31 32  1  0  0  0  0
 32 30  1  0  0  0  0
M  END
>  <MODEL>
1

>  <REMARK>
 VINA RESULT:      -8.3      0.000      0.000
  Name = 
  4 active torsions:
  status: ('A' for Active; 'I' for Inactive)
    1  A    between atoms: N_13  and  C_19
    2  A    between atoms: N_14  and  C_23
    3  A    between atoms: N_14  and  C_25
    4  A    between atoms: C_15  and  C_23
                            x       y       z     vdW  Elec       q    Type
                         _______ _______ _______ _____ _____    ______ ____

>  <TORSDO>
F 4

$$$$
=
 OpenBabel10232409333D

 33 37  0  0  1  0  0  0  0  0999 V2000
  188.2400  178.1820  139.9460 N   0  0  0  0  0  0  0  0  0  0  0  0
  189.1680  178.6320  142.0410 C   0  0  0  0  0  3  0  0  0  0  0  0
  189.2170  176.9460  145.3120 C   0  0  0  0  0  3  0  0  0  0  0  0
  187.9980  178.3280  141.2140 C   0  0  0  0  0  0  0  0  0  0  0  0
  190.4840  177.2750  145.6750 N   0  0  0  0  0  0  0  0  0  0  0  0
  190.7450  178.5980  143.7150 C   0  0  0  0  0  3  0  0  0  0  0  0
  187.3510  177.1860  143.9780 C   0  0  0  0  0  3  0  0  0  0  0  0
  185.4860  178.8020  141.1180 C   0  0  0  0  0  3  0  0  0  0  0  0
  187.3680  177.8470  138.8530 C   0  0  0  0  0  0  0  0  0  0  0  0
  186.6460  178.2040  141.7790 C   0  0  0  0  0  0  0  0  0  0  0  0
  185.2460  178.8740  139.8080 C   0  0  0  0  0  0  0  0  0  0  0  0
  189.4570  178.2590  143.2890 C   0  0  0  0  0  0  0  0  0  0  0  0
  188.6510  177.4440  144.1300 C   0  0  0  0  0  0  0  0  0  0  0  0
  186.0770  178.1950  138.8020 C   0  0  0  0  0  3  0  0  0  0  0  0
  186.4020  177.6890  142.9770 C   0  0  0  0  0  3  0  0  0  0  0  0
  191.2450  178.1020  144.9170 C   0  0  0  0  0  3  0  0  0  0  0  0
  189.0070  177.8550  136.9210 C   0  0  0  0  0  2  0  0  0  0  0  0
  187.5900  175.9330  137.2210 C   0  0  0  0  0  3  0  0  0  0  0  0
  187.9530  177.2230  137.6970 N   0  0  0  0  0  0  0  0  0  0  0  0
  189.4300  176.7310  135.5420 S   0  0  0  0  0  0  0  0  0  0  0  0
  188.2440  175.5400  136.1500 C   0  0  0  0  0  3  0  0  0  0  0  0
  184.1060  180.7800  138.8640 O   0  0  0  0  0  1  0  0  0  0  0  0
  184.0440  179.5180  139.3580 N   0  0  0  0  0  0  0  0  0  0  0  0
  182.7300  178.9310  139.5930 C   0  0  0  0  0  2  0  0  0  0  0  0
  181.7980  176.5970  140.0910 N   0  0  0  0  0  0  0  0  0  0  0  0
  183.0440  177.8030  136.8100 O   0  0  0  0  0  1  0  0  0  0  0  0
  182.5010  177.1170  137.8900 C   0  0  0  0  0  0  0  0  0  0  0  0
  182.7610  177.4230  139.3150 C   0  0  1  0  0  3  0  0  0  0  0  0
  180.6540  177.3910  140.5640 C   0  0  0  0  0  1  0  0  0  0  0  0
  181.3550  175.5590  139.1250 C   0  0  2  0  0  3  0  0  0  0  0  0
  181.3180  175.5130  136.5790 O   0  0  0  0  0  1  0  0  0  0  0  0
  181.7180  176.0750  137.7850 C   0  0  0  0  0  0  0  0  0  0  0  0
  179.9820  175.2810  139.1970 O   0  0  0  0  0  1  0  0  0  0  0  0
  1  4  1  0  0  0  0
  2 12  1  0  0  0  0
  3  5  1  0  0  0  0
  4 10  1  0  0  0  0
  4  2  2  0  0  0  0
  6 16  1  0  0  0  0
  7 13  1  0  0  0  0
  8 10  2  0  0  0  0
  9  1  2  0  0  0  0
 10 15  1  0  0  0  0
 11  8  1  0  0  0  0
 12  6  2  0  0  0  0
 12 13  1  0  0  0  0
 13  3  2  0  0  0  0
 14  9  1  0  0  0  0
 14 11  2  0  0  0  0
 15  7  2  0  0  0  0
 16  5  2  0  0  0  0
 17 19  1  0  0  0  0
 18 19  1  0  0  0  0
 19  9  1  0  0  0  0
 20 21  1  0  0  0  0
 20 17  1  0  0  0  0
 21 18  2  0  0  0  0
 22 23  1  0  0  0  0
 23 24  1  0  0  0  0
 23 11  1  0  0  0  0
 25 29  1  0  0  0  0
 26 27  1  0  0  0  0
 27 28  1  0  0  0  0
 28 24  1  6  0  0  0
 28 25  1  0  0  0  0
 30 33  1  6  0  0  0
 30 25  1  0  0  0  0
 31 32  1  0  0  0  0
 32 27  2  0  0  0  0
 32 30  1  0  0  0  0
M  END
>  <MODEL>
2

>  <REMARK>
 VINA RESULT:      -7.9      4.686      8.767
  Name = 
  4 active torsions:
  status: ('A' for Active; 'I' for Inactive)
    1  A    between atoms: N_13  and  C_19
    2  A    between atoms: N_14  and  C_23
    3  A    between atoms: N_14  and  C_25
    4  A    between atoms: C_15  and  C_23
                            x       y       z     vdW  Elec       q    Type
                         _______ _______ _______ _____ _____    ______ ____

>  <TORSDO>
F 4

$$$$
=
 OpenBabel10232409333D

 33 37  0  0  1  0  0  0  0  0999 V2000
  189.9010  175.5290  137.4200 N   0  0  0  0  0  0  0  0  0  0  0  0
  187.6390  175.1790  136.9610 C   0  0  0  0  0  3  0  0  0  0  0  0
  184.8490  177.2550  135.7560 C   0  0  0  0  0  3  0  0  0  0  0  0
  188.6870  175.9160  137.6710 C   0  0  0  0  0  0  0  0  0  0  0  0
  184.2270  176.3140  134.9990 N   0  0  0  0  0  0  0  0  0  0  0  0
  185.7840  174.6600  135.7040 C   0  0  0  0  0  3  0  0  0  0  0  0
  186.3770  177.8980  137.3590 C   0  0  0  0  0  3  0  0  0  0  0  0
  189.0750  177.1290  139.8890 C   0  0  0  0  0  3  0  0  0  0  0  0
  191.1650  176.0290  137.8880 C   0  0  0  0  0  0  0  0  0  0  0  0
  188.3840  177.0110  138.6050 C   0  0  0  0  0  0  0  0  0  0  0  0
  190.3580  176.8750  140.1480 C   0  0  0  0  0  0  0  0  0  0  0  0
  186.4730  175.6040  136.4710 C   0  0  0  0  0  0  0  0  0  0  0  0
  185.9680  176.9320  136.5350 C   0  0  0  0  0  0  0  0  0  0  0  0
  191.3430  176.5760  139.0970 C   0  0  0  0  0  3  0  0  0  0  0  0
  187.3820  177.8620  138.4290 C   0  0  0  0  0  3  0  0  0  0  0  0
  184.6560  175.0280  134.9740 C   0  0  0  0  0  3  0  0  0  0  0  0
  193.6250  175.4860  137.6240 C   0  0  0  0  0  2  0  0  0  0  0  0
  192.3030  175.8350  135.6430 C   0  0  0  0  0  3  0  0  0  0  0  0
  192.3220  175.8030  137.0650 N   0  0  0  0  0  0  0  0  0  0  0  0
  194.7960  175.3060  136.2310 S   0  0  0  0  0  0  0  0  0  0  0  0
  193.4660  175.6000  135.0740 C   0  0  0  0  0  3  0  0  0  0  0  0
  192.0260  177.6710  141.6980 O   0  0  0  0  0  1  0  0  0  0  0  0
  190.8410  177.0440  141.4890 N   0  0  0  0  0  0  0  0  0  0  0  0
  190.1950  176.3920  142.6210 C   0  0  0  0  0  2  0  0  0  0  0  0
  188.5240  177.7430  144.0170 N   0  0  0  0  0  0  0  0  0  0  0  0
  191.7460  176.3430  145.2110 O   0  0  0  0  0  1  0  0  0  0  0  0
  190.5020  176.9380  145.0400 C   0  0  0  0  0  0  0  0  0  0  0  0
  189.9470  177.4020  143.7490 C   0  0  1  0  0  3  0  0  0  0  0  0
  187.6120  176.6880  143.5520 C   0  0  0  0  0  1  0  0  0  0  0  0
  188.4610  177.8800  145.4950 C   0  0  2  0  0  3  0  0  0  0  0  0
  189.9210  176.9320  147.3540 O   0  0  0  0  0  1  0  0  0  0  0  0
  189.6740  177.2080  146.0140 C   0  0  0  0  0  0  0  0  0  0  0  0
  187.3020  177.3230  146.0570 O   0  0  0  0  0  1  0  0  0  0  0  0
  1  4  2  0  0  0  0
  1  9  1  0  0  0  0
  2  4  1  0  0  0  0
  3 13  1  0  0  0  0
  4 10  1  0  0  0  0
  5  3  2  0  0  0  0
  6 12  1  0  0  0  0
  7 15  1  0  0  0  0
  8 11  2  0  0  0  0
  9 14  2  0  0  0  0
 10  8  1  0  0  0  0
 11 23  1  0  0  0  0
 12 13  1  0  0  0  0
 12  2  2  0  0  0  0
 13  7  2  0  0  0  0
 14 11  1  0  0  0  0
 15 10  2  0  0  0  0
 16  5  1  0  0  0  0
 16  6  2  0  0  0  0
 18 19  1  0  0  0  0
 19 17  1  0  0  0  0
 19  9  1  0  0  0  0
 20 17  1  0  0  0  0
 21 18  2  0  0  0  0
 21 20  1  0  0  0  0
 23 22  1  0  0  0  0
 23 24  1  0  0  0  0
 25 30  1  0  0  0  0
 27 26  1  0  0  0  0
 27 32  2  0  0  0  0
 28 24  1  6  0  0  0
 28 25  1  0  0  0  0
 28 27  1  0  0  0  0
 29 25  1  0  0  0  0
 30 32  1  0  0  0  0
 30 33  1  1  0  0  0
 32 31  1  0  0  0  0
M  END
>  <MODEL>
3

>  <REMARK>
 VINA RESULT:      -7.8      3.647      5.671
  Name = 
  4 active torsions:
  status: ('A' for Active; 'I' for Inactive)
    1  A    between atoms: N_13  and  C_19
    2  A    between atoms: N_14  and  C_23
    3  A    between atoms: N_14  and  C_25
    4  A    between atoms: C_15  and  C_23
                            x       y       z     vdW  Elec       q    Type
                         _______ _______ _______ _____ _____    ______ ____

>  <TORSDO>
F 4

$$$$
=
 OpenBabel10232409333D

 33 37  0  0  1  0  0  0  0  0999 V2000
  189.4520  176.8200  140.0250 N   0  0  0  0  0  0  0  0  0  0  0  0
  189.7600  175.6470  138.0300 C   0  0  0  0  0  3  0  0  0  0  0  0
  190.8360  176.5020  134.6160 C   0  0  0  0  0  3  0  0  0  0  0  0
  189.1350  176.7470  138.7680 C   0  0  0  0  0  0  0  0  0  0  0  0
  191.5300  175.3660  134.3460 N   0  0  0  0  0  0  0  0  0  0  0  0
  190.8860  174.4300  136.4360 C   0  0  0  0  0  3  0  0  0  0  0  0
  189.3470  177.7310  135.8780 C   0  0  0  0  0  3  0  0  0  0  0  0
  186.9740  178.1160  138.7920 C   0  0  0  0  0  3  0  0  0  0  0  0
  189.0760  177.7690  141.0380 C   0  0  0  0  0  0  0  0  0  0  0  0
  188.2090  177.6960  138.1300 C   0  0  0  0  0  0  0  0  0  0  0  0
  186.7910  178.3610  140.0900 C   0  0  0  0  0  0  0  0  0  0  0  0
  190.1850  175.5940  136.7670 C   0  0  0  0  0  0  0  0  0  0  0  0
  190.1210  176.6460  135.8130 C   0  0  0  0  0  0  0  0  0  0  0  0
  187.8940  178.3960  141.0620 C   0  0  0  0  0  3  0  0  0  0  0  0
  188.3420  178.1120  136.8780 C   0  0  0  0  0  3  0  0  0  0  0  0
  191.5510  174.3270  135.2170 C   0  0  0  0  0  3  0  0  0  0  0  0
  189.6860  178.8810  143.2310 C   0  0  0  0  0  2  0  0  0  0  0  0
  191.1710  177.2140  142.3320 C   0  0  0  0  0  3  0  0  0  0  0  0
  189.9650  177.9450  142.1540 N   0  0  0  0  0  0  0  0  0  0  0  0
  191.0790  178.7970  144.4120 S   0  0  0  0  0  0  0  0  0  0  0  0
  191.8430  177.5210  143.4210 C   0  0  0  0  0  3  0  0  0  0  0  0
  184.8780  179.8260  139.9770 O   0  0  0  0  0  1  0  0  0  0  0  0
  185.4870  178.7550  140.5440 N   0  0  0  0  0  0  0  0  0  0  0  0
  184.8780  178.1580  141.7270 C   0  0  0  0  0  2  0  0  0  0  0  0
  184.3890  179.5700  143.8080 N   0  0  0  0  0  0  0  0  0  0  0  0
  186.9100  176.8610  143.5440 O   0  0  0  0  0  1  0  0  0  0  0  0
  186.0400  177.8760  143.9210 C   0  0  0  0  0  0  0  0  0  0  0  0
  185.4000  178.8400  142.9970 C   0  0  1  0  0  3  0  0  0  0  0  0
  183.0280  179.0730  143.5610 C   0  0  0  0  0  1  0  0  0  0  0  0
  184.7990  179.3100  145.2120 C   0  0  2  0  0  3  0  0  0  0  0  0
  186.1720  177.4400  146.2630 O   0  0  0  0  0  1  0  0  0  0  0  0
  185.7060  178.1400  145.1570 C   0  0  0  0  0  0  0  0  0  0  0  0
  183.7180  179.0620  146.0710 O   0  0  0  0  0  1  0  0  0  0  0  0
  1  9  1  0  0  0  0
  2  4  1  0  0  0  0
  3 13  1  0  0  0  0
  4  1  2  0  0  0  0
  5  3  2  0  0  0  0
  5 16  1  0  0  0  0
  6 12  1  0  0  0  0
  7 15  1  0  0  0  0
  8 11  2  0  0  0  0
  9 14  2  0  0  0  0
  9 19  1  0  0  0  0
 10  4  1  0  0  0  0
 10  8  1  0  0  0  0
 11 23  1  0  0  0  0
 11 14  1  0  0  0  0
 12  2  2  0  0  0  0
 13  7  2  0  0  0  0
 13 12  1  0  0  0  0
 15 10  2  0  0  0  0
 16  6  2  0  0  0  0
 17 20  1  0  0  0  0
 18 21  2  0  0  0  0
 19 18  1  0  0  0  0
 19 17  1  0  0  0  0
 21 20  1  0  0  0  0
 22 23  1  0  0  0  0
 23 24  1  0  0  0  0
 25 30  1  0  0  0  0
 26 27  1  0  0  0  0
 27 32  2  0  0  0  0
 28 24  1  6  0  0  0
 28 25  1  0  0  0  0
 28 27  1  0  0  0  0
 29 25  1  0  0  0  0
 30 33  1  1  0  0  0
 32 30  1  0  0  0  0
 32 31  1  0  0  0  0
M  END
>  <MODEL>
4

>  <REMARK>
 VINA RESULT:      -7.6      3.125      5.436
  Name = 
  4 active torsions:
  status: ('A' for Active; 'I' for Inactive)
    1  A    between atoms: N_13  and  C_19
    2  A    between atoms: N_14  and  C_23
    3  A    between atoms: N_14  and  C_25
    4  A    between atoms: C_15  and  C_23
                            x       y       z     vdW  Elec       q    Type
                         _______ _______ _______ _____ _____    ______ ____

>  <TORSDO>
F 4

$$$$
=
 OpenBabel10232409333D

 33 37  0  0  1  0  0  0  0  0999 V2000
  188.8760  177.2670  140.7310 N   0  0  0  0  0  0  0  0  0  0  0  0
  188.4810  176.7450  142.9720 C   0  0  0  0  0  3  0  0  0  0  0  0
  188.6850  178.5570  146.1690 C   0  0  0  0  0  3  0  0  0  0  0  0
  189.3790  177.2450  141.9280 C   0  0  0  0  0  0  0  0  0  0  0  0
  187.6120  177.9880  146.7780 N   0  0  0  0  0  0  0  0  0  0  0  0
  187.2800  176.5360  144.9220 C   0  0  0  0  0  3  0  0  0  0  0  0
  190.2710  178.6460  144.4970 C   0  0  0  0  0  3  0  0  0  0  0  0
  191.8690  177.3090  141.3460 C   0  0  0  0  0  3  0  0  0  0  0  0
  189.4310  177.7200  139.4840 C   0  0  0  0  0  0  0  0  0  0  0  0
  190.7530  177.6830  142.2150 C   0  0  0  0  0  0  0  0  0  0  0  0
  191.8670  177.2180  140.0160 C   0  0  0  0  0  0  0  0  0  0  0  0
  188.3590  177.1160  144.2470 C   0  0  0  0  0  0  0  0  0  0  0  0
  189.1110  178.1270  144.9050 C   0  0  0  0  0  0  0  0  0  0  0  0
  190.7330  177.6510  139.1850 C   0  0  0  0  0  3  0  0  0  0  0  0
  191.1010  178.3020  143.3360 C   0  0  0  0  0  3  0  0  0  0  0  0
  186.9200  176.9790  146.1930 C   0  0  0  0  0  3  0  0  0  0  0  0
  188.9650  178.7730  137.2270 C   0  0  0  0  0  2  0  0  0  0  0  0
  187.1080  177.9610  138.5250 C   0  0  0  0  0  3  0  0  0  0  0  0
  188.5160  178.1420  138.4580 N   0  0  0  0  0  0  0  0  0  0  0  0
  187.4810  179.1610  136.2310 S   0  0  0  0  0  0  0  0  0  0  0  0
  186.4460  178.4140  137.4820 C   0  0  0  0  0  3  0  0  0  0  0  0
  194.2600  176.9130  139.9970 O   0  0  0  0  0  1  0  0  0  0  0  0
  193.0730  176.8200  139.3460 N   0  0  0  0  0  0  0  0  0  0  0  0
  193.0870  176.5020  137.9240 C   0  0  0  0  0  2  0  0  0  0  0  0
  192.1550  174.2200  137.2240 N   0  0  0  0  0  0  0  0  0  0  0  0
  195.6320  175.4130  136.7170 O   0  0  0  0  0  1  0  0  0  0  0  0
  194.4160  174.7400  136.7510 C   0  0  0  0  0  0  0  0  0  0  0  0
  193.3230  175.0010  137.7140 C   0  0  1  0  0  3  0  0  0  0  0  0
  191.1800  175.0730  136.5290 C   0  0  0  0  0  1  0  0  0  0  0  0
  192.7510  173.2320  136.2900 C   0  0  2  0  0  3  0  0  0  0  0  0
  194.9280  173.2390  134.9690 O   0  0  0  0  0  1  0  0  0  0  0  0
  194.0980  173.7510  135.9580 C   0  0  0  0  0  0  0  0  0  0  0  0
  191.9920  173.0370  135.1260 O   0  0  0  0  0  1  0  0  0  0  0  0
  1  4  1  0  0  0  0
  2 12  1  0  0  0  0
  3  5  1  0  0  0  0
  4 10  1  0  0  0  0
  4  2  2  0  0  0  0
  6 16  1  0  0  0  0
  7 13  1  0  0  0  0
  8 10  2  0  0  0  0
  9  1  2  0  0  0  0
 10 15  1  0  0  0  0
 11  8  1  0  0  0  0
 12 13  1  0  0  0  0
 12  6  2  0  0  0  0
 13  3  2  0  0  0  0
 14  9  1  0  0  0  0
 14 11  2  0  0  0  0
 15  7  2  0  0  0  0
 16  5  2  0  0  0  0
 17 19  1  0  0  0  0
 19 18  1  0  0  0  0
 19  9  1  0  0  0  0
 20 17  1  0  0  0  0
 20 21  1  0  0  0  0
 21 18  2  0  0  0  0
 23 22  1  0  0  0  0
 23 11  1  0  0  0  0
 24 23  1  0  0  0  0
 25 28  1  0  0  0  0
 26 27  1  0  0  0  0
 27 28  1  0  0  0  0
 28 24  1  6  0  0  0
 29 25  1  0  0  0  0
 30 33  1  6  0  0  0
 30 25  1  0  0  0  0
 31 32  1  0  0  0  0
 32 30  1  0  0  0  0
 32 27  2  0  0  0  0
M  END
>  <MODEL>
5

>  <REMARK>
 VINA RESULT:      -7.5      3.836      7.744
  Name = 
  4 active torsions:
  status: ('A' for Active; 'I' for Inactive)
    1  A    between atoms: N_13  and  C_19
    2  A    between atoms: N_14  and  C_23
    3  A    between atoms: N_14  and  C_25
    4  A    between atoms: C_15  and  C_23
                            x       y       z     vdW  Elec       q    Type
                         _______ _______ _______ _____ _____    ______ ____

>  <TORSDO>
F 4

$$$$
=
 OpenBabel10232409333D

 33 37  0  0  1  0  0  0  0  0999 V2000
  185.6930  178.9560  140.5980 N   0  0  0  0  0  0  0  0  0  0  0  0
  183.9240  179.7280  139.2840 C   0  0  0  0  0  3  0  0  0  0  0  0
  181.1830  178.1690  137.3860 C   0  0  0  0  0  3  0  0  0  0  0  0
  185.1160  178.8900  139.4360 C   0  0  0  0  0  0  0  0  0  0  0  0
  180.2270  179.1010  137.6340 N   0  0  0  0  0  0  0  0  0  0  0  0
  181.7940  180.4540  138.8070 C   0  0  0  0  0  3  0  0  0  0  0  0
  183.3740  177.4470  137.3760 C   0  0  0  0  0  3  0  0  0  0  0  0
  187.0550  177.9650  138.0480 C   0  0  0  0  0  3  0  0  0  0  0  0
  186.8380  178.2620  141.1220 C   0  0  0  0  0  0  0  0  0  0  0  0
  185.6250  178.0420  138.3490 C   0  0  0  0  0  0  0  0  0  0  0  0
  188.0680  177.9630  138.9150 C   0  0  0  0  0  0  0  0  0  0  0  0
  182.8000  179.5040  138.6000 C   0  0  0  0  0  0  0  0  0  0  0  0
  182.5000  178.3470  137.8310 C   0  0  0  0  0  0  0  0  0  0  0  0
  187.8760  177.8760  140.3710 C   0  0  0  0  0  3  0  0  0  0  0  0
  184.8380  177.4190  137.4810 C   0  0  0  0  0  3  0  0  0  0  0  0
  180.5090  180.2410  138.3120 C   0  0  0  0  0  3  0  0  0  0  0  0
  185.8010  178.3400  143.4320 C   0  0  0  0  0  2  0  0  0  0  0  0
  188.1010  177.6640  143.2230 C   0  0  0  0  0  3  0  0  0  0  0  0
  186.9290  178.1000  142.5480 N   0  0  0  0  0  0  0  0  0  0  0  0
  186.3660  178.0380  145.1450 S   0  0  0  0  0  0  0  0  0  0  0  0
  187.9800  177.5760  144.5310 C   0  0  0  0  0  3  0  0  0  0  0  0
  189.7310  178.5460  137.2670 O   0  0  0  0  0  1  0  0  0  0  0  0
  189.4110  177.8920  138.4120 N   0  0  0  0  0  0  0  0  0  0  0  0
  190.3940  176.9820  138.9860 C   0  0  0  0  0  2  0  0  0  0  0  0
  192.8220  176.9180  138.1680 N   0  0  0  0  0  0  0  0  0  0  0  0
  190.2650  174.2790  137.6460 O   0  0  0  0  0  1  0  0  0  0  0  0
  191.4010  175.0760  137.7210 C   0  0  0  0  0  0  0  0  0  0  0  0
  191.4040  176.5440  137.9180 C   0  0  1  0  0  3  0  0  0  0  0  0
  193.0820  177.1480  139.5970 C   0  0  0  0  0  1  0  0  0  0  0  0
  193.5940  175.7500  137.6740 C   0  0  2  0  0  3  0  0  0  0  0  0
  192.9560  173.3060  137.3450 O   0  0  0  0  0  1  0  0  0  0  0  0
  192.6230  174.6340  137.5820 C   0  0  0  0  0  0  0  0  0  0  0  0
  194.6730  175.4050  138.5000 O   0  0  0  0  0  1  0  0  0  0  0  0
  1  9  1  0  0  0  0
  2  4  1  0  0  0  0
  3  5  2  0  0  0  0
  3 13  1  0  0  0  0
  4  1  2  0  0  0  0
  5 16  1  0  0  0  0
  7 15  1  0  0  0  0
  7 13  2  0  0  0  0
  8 10  1  0  0  0  0
  8 11  2  0  0  0  0
  9 19  1  0  0  0  0
 10  4  1  0  0  0  0
 11 14  1  0  0  0  0
 12  6  1  0  0  0  0
 12  2  2  0  0  0  0
 13 12  1  0  0  0  0
 14  9  2  0  0  0  0
 15 10  2  0  0  0  0
 16  6  2  0  0  0  0
 17 20  1  0  0  0  0
 18 21  2  0  0  0  0
 19 18  1  0  0  0  0
 19 17  1  0  0  0  0
 21 20  1  0  0  0  0
 22 23  1  0  0  0  0
 23 11  1  0  0  0  0
 23 24  1  0  0  0  0
 25 29  1  0  0  0  0
 26 27  1  0  0  0  0
 27 28  1  0  0  0  0
 28 25  1  0  0  0  0
 28 24  1  1  0  0  0
 30 25  1  0  0  0  0
 30 33  1  1  0  0  0
 31 32  1  0  0  0  0
 32 30  1  0  0  0  0
 32 27  2  0  0  0  0
M  END
>  <MODEL>
6

>  <REMARK>
 VINA RESULT:      -7.5      3.861      6.660
  Name = 
  4 active torsions:
  status: ('A' for Active; 'I' for Inactive)
    1  A    between atoms: N_13  and  C_19
    2  A    between atoms: N_14  and  C_23
    3  A    between atoms: N_14  and  C_25
    4  A    between atoms: C_15  and  C_23
                            x       y       z     vdW  Elec       q    Type
                         _______ _______ _______ _____ _____    ______ ____

>  <TORSDO>
F 4

$$$$
=
 OpenBabel10232409333D

 33 37  0  0  1  0  0  0  0  0999 V2000
  183.9910  179.4970  140.8040 N   0  0  0  0  0  0  0  0  0  0  0  0
  182.8760  180.1060  138.8460 C   0  0  0  0  0  3  0  0  0  0  0  0
  181.0580  178.3210  136.1900 C   0  0  0  0  0  3  0  0  0  0  0  0
  183.9060  179.3140  139.5210 C   0  0  0  0  0  0  0  0  0  0  0  0
  180.0920  179.2490  135.9650 N   0  0  0  0  0  0  0  0  0  0  0  0
  181.1040  180.7370  137.5210 C   0  0  0  0  0  3  0  0  0  0  0  0
  183.0740  177.6530  137.0900 C   0  0  0  0  0  3  0  0  0  0  0  0
  186.2180  178.3140  139.0770 C   0  0  0  0  0  3  0  0  0  0  0  0
  184.8370  178.8800  141.7890 C   0  0  0  0  0  0  0  0  0  0  0  0
  184.7840  178.3840  138.7960 C   0  0  0  0  0  0  0  0  0  0  0  0
  186.8180  178.4130  140.2630 C   0  0  0  0  0  0  0  0  0  0  0  0
  182.1000  179.7970  137.8060 C   0  0  0  0  0  0  0  0  0  0  0  0
  182.1040  178.5690  137.0890 C   0  0  0  0  0  0  0  0  0  0  0  0
  186.0790  178.4520  141.5340 C   0  0  0  0  0  3  0  0  0  0  0  0
  184.3840  177.6680  137.7530 C   0  0  0  0  0  3  0  0  0  0  0  0
  180.1060  180.4510  136.5930 C   0  0  0  0  0  3  0  0  0  0  0  0
  185.2770  178.8650  144.2840 C   0  0  0  0  0  2  0  0  0  0  0  0
  182.9960  178.8270  143.5150 C   0  0  0  0  0  3  0  0  0  0  0  0
  184.3700  178.8470  143.1490 N   0  0  0  0  0  0  0  0  0  0  0  0
  184.2630  178.7880  145.8040 S   0  0  0  0  0  0  0  0  0  0  0  0
  182.7760  178.8020  144.8120 C   0  0  0  0  0  3  0  0  0  0  0  0
  188.9970  178.9370  139.3680 O   0  0  0  0  0  1  0  0  0  0  0  0
  188.2500  178.3290  140.3240 N   0  0  0  0  0  0  0  0  0  0  0  0
  188.9240  177.4490  141.2720 C   0  0  0  0  0  2  0  0  0  0  0  0
  188.4690  177.8780  143.7570 N   0  0  0  0  0  0  0  0  0  0  0  0
  191.7740  178.0360  142.0770 O   0  0  0  0  0  1  0  0  0  0  0  0
  190.6900  178.0160  142.9470 C   0  0  0  0  0  0  0  0  0  0  0  0
  189.2760  178.2140  142.5530 C   0  0  1  0  0  3  0  0  0  0  0  0
  187.8710  176.5380  143.6570 C   0  0  0  0  0  1  0  0  0  0  0  0
  189.4470  177.9360  144.8730 C   0  0  2  0  0  3  0  0  0  0  0  0
  191.9820  177.6950  144.9260 O   0  0  0  0  0  1  0  0  0  0  0  0
  190.7850  177.8640  144.2410 C   0  0  0  0  0  0  0  0  0  0  0  0
  189.2830  176.9070  145.8120 O   0  0  0  0  0  1  0  0  0  0  0  0
  1  9  1  0  0  0  0
  2  4  1  0  0  0  0
  3 13  1  0  0  0  0
  4  1  2  0  0  0  0
  5  3  2  0  0  0  0
  5 16  1  0  0  0  0
  6 12  1  0  0  0  0
  7 15  1  0  0  0  0
  8 11  2  0  0  0  0
  9 19  1  0  0  0  0
 10  8  1  0  0  0  0
 10  4  1  0  0  0  0
 11 23  1  0  0  0  0
 11 14  1  0  0  0  0
 12  2  2  0  0  0  0
 13  7  2  0  0  0  0
 13 12  1  0  0  0  0
 14  9  2  0  0  0  0
 15 10  2  0  0  0  0
 16  6  2  0  0  0  0
 17 20  1  0  0  0  0
 18 21  2  0  0  0  0
 19 18  1  0  0  0  0
 19 17  1  0  0  0  0
 21 20  1  0  0  0  0
 22 23  1  0  0  0  0
 23 24  1  0  0  0  0
 25 30  1  0  0  0  0
 26 27  1  0  0  0  0
 27 32  2  0  0  0  0
 28 24  1  6  0  0  0
 28 27  1  0  0  0  0
 28 25  1  0  0  0  0
 29 25  1  0  0  0  0
 30 33  1  1  0  0  0
 32 30  1  0  0  0  0
 32 31  1  0  0  0  0
M  END
>  <MODEL>
7

>  <REMARK>
 VINA RESULT:      -7.4      3.220      5.452
  Name = 
  4 active torsions:
  status: ('A' for Active; 'I' for Inactive)
    1  A    between atoms: N_13  and  C_19
    2  A    between atoms: N_14  and  C_23
    3  A    between atoms: N_14  and  C_25
    4  A    between atoms: C_15  and  C_23
                            x       y       z     vdW  Elec       q    Type
                         _______ _______ _______ _____ _____    ______ ____

>  <TORSDO>
F 4

$$$$
=
 OpenBabel10232409333D

 33 37  0  0  1  0  0  0  0  0999 V2000
  184.7290  177.9220  138.3320 N   0  0  0  0  0  0  0  0  0  0  0  0
  182.7250  177.6350  137.1680 C   0  0  0  0  0  3  0  0  0  0  0  0
  180.3000  179.8600  135.5200 C   0  0  0  0  0  3  0  0  0  0  0  0
  183.4750  178.2530  138.2640 C   0  0  0  0  0  0  0  0  0  0  0  0
  179.9820  179.0520  134.4750 N   0  0  0  0  0  0  0  0  0  0  0  0
  181.3550  177.3160  135.3490 C   0  0  0  0  0  3  0  0  0  0  0  0
  181.2500  180.2420  137.5870 C   0  0  0  0  0  3  0  0  0  0  0  0
  183.1230  179.0870  140.6570 C   0  0  0  0  0  3  0  0  0  0  0  0
  185.7680  178.3480  139.2290 C   0  0  0  0  0  0  0  0  0  0  0  0
  182.8490  179.1760  139.2230 C   0  0  0  0  0  0  0  0  0  0  0  0
  184.2860  178.8040  141.2450 C   0  0  0  0  0  0  0  0  0  0  0  0
  181.7330  178.1260  136.4240 C   0  0  0  0  0  0  0  0  0  0  0  0
  181.1570  179.4210  136.5390 C   0  0  0  0  0  0  0  0  0  0  0  0
  185.5520  178.6900  140.5040 C   0  0  0  0  0  3  0  0  0  0  0  0
  181.8960  180.0370  138.8890 C   0  0  0  0  0  3  0  0  0  0  0  0
  180.4720  177.7910  134.3820 C   0  0  0  0  0  3  0  0  0  0  0  0
  187.4650  178.2120  137.3520 C   0  0  0  0  0  2  0  0  0  0  0  0
  188.2610  178.2760  139.6230 C   0  0  0  0  0  3  0  0  0  0  0  0
  187.1270  178.2710  138.7640 N   0  0  0  0  0  0  0  0  0  0  0  0
  189.2850  178.0990  137.2220 S   0  0  0  0  0  0  0  0  0  0  0  0
  189.4190  178.2010  139.0020 C   0  0  0  0  0  3  0  0  0  0  0  0
  183.1980  178.5980  143.3880 O   0  0  0  0  0  1  0  0  0  0  0  0
  184.3440  178.7530  142.6790 N   0  0  0  0  0  0  0  0  0  0  0  0
  185.5710  179.0560  143.4050 C   0  0  0  0  0  2  0  0  0  0  0  0
  187.0780  177.1330  144.1780 N   0  0  0  0  0  0  0  0  0  0  0  0
  185.2300  179.4850  146.3740 O   0  0  0  0  0  1  0  0  0  0  0  0
  186.0350  178.5090  145.7990 C   0  0  0  0  0  0  0  0  0  0  0  0
  185.8670  177.9590  144.4340 C   0  0  1  0  0  3  0  0  0  0  0  0
  188.0460  177.8350  143.3220 C   0  0  0  0  0  1  0  0  0  0  0  0
  187.6450  176.8970  145.5300 C   0  0  2  0  0  3  0  0  0  0  0  0
  187.4120  178.1790  147.7180 O   0  0  0  0  0  1  0  0  0  0  0  0
  187.0250  177.9140  146.4100 C   0  0  0  0  0  0  0  0  0  0  0  0
  189.0440  176.9880  145.5720 O   0  0  0  0  0  1  0  0  0  0  0  0
  1  9  1  0  0  0  0
  2  4  1  0  0  0  0
  3 13  1  0  0  0  0
  4  1  2  0  0  0  0
  4 10  1  0  0  0  0
  5  3  2  0  0  0  0
  6 12  1  0  0  0  0
  7 15  1  0  0  0  0
  8 11  2  0  0  0  0
  9 14  2  0  0  0  0
 10  8  1  0  0  0  0
 11 23  1  0  0  0  0
 12 13  1  0  0  0  0
 12  2  2  0  0  0  0
 13  7  2  0  0  0  0
 14 11  1  0  0  0  0
 15 10  2  0  0  0  0
 16  5  1  0  0  0  0
 16  6  2  0  0  0  0
 17 19  1  0  0  0  0
 19  9  1  0  0  0  0
 19 18  1  0  0  0  0
 20 17  1  0  0  0  0
 20 21  1  0  0  0  0
 21 18  2  0  0  0  0
 23 22  1  0  0  0  0
 23 24  1  0  0  0  0
 25 28  1  0  0  0  0
 25 30  1  0  0  0  0
 27 26  1  0  0  0  0
 27 32  2  0  0  0  0
 28 24  1  6  0  0  0
 28 27  1  0  0  0  0
 29 25  1  0  0  0  0
 30 33  1  6  0  0  0
 30 32  1  0  0  0  0
 32 31  1  0  0  0  0
M  END
>  <MODEL>
8

>  <REMARK>
 VINA RESULT:      -7.4      4.309      6.755
  Name = 
  4 active torsions:
  status: ('A' for Active; 'I' for Inactive)
    1  A    between atoms: N_13  and  C_19
    2  A    between atoms: N_14  and  C_23
    3  A    between atoms: N_14  and  C_25
    4  A    between atoms: C_15  and  C_23
                            x       y       z     vdW  Elec       q    Type
                         _______ _______ _______ _____ _____    ______ ____

>  <TORSDO>
F 4

$$$$
=
 OpenBabel10232409333D

 33 37  0  0  1  0  0  0  0  0999 V2000
  191.3590  176.9620  139.9540 N   0  0  0  0  0  0  0  0  0  0  0  0
  191.1690  177.7490  142.1430 C   0  0  0  0  0  3  0  0  0  0  0  0
  189.2670  176.7630  145.1360 C   0  0  0  0  0  3  0  0  0  0  0  0
  190.5420  177.3810  140.8720 C   0  0  0  0  0  0  0  0  0  0  0  0
  190.2140  177.0520  146.0660 N   0  0  0  0  0  0  0  0  0  0  0  0
  191.6540  177.9240  144.3850 C   0  0  0  0  0  3  0  0  0  0  0  0
  188.4020  176.8810  143.0010 C   0  0  0  0  0  3  0  0  0  0  0  0
  188.5490  178.0320  139.4070 C   0  0  0  0  0  3  0  0  0  0  0  0
  191.1120  176.4850  138.6200 C   0  0  0  0  0  0  0  0  0  0  0  0
  189.0920  177.4870  140.6510 C   0  0  0  0  0  0  0  0  0  0  0  0
  189.0180  177.8570  138.1710 C   0  0  0  0  0  0  0  0  0  0  0  0
  190.7200  177.6130  143.3920 C   0  0  0  0  0  0  0  0  0  0  0  0
  189.4710  177.0550  143.7810 C   0  0  0  0  0  0  0  0  0  0  0  0
  190.1070  176.9220  137.8520 C   0  0  0  0  0  3  0  0  0  0  0  0
  188.1920  177.2470  141.5950 C   0  0  0  0  0  3  0  0  0  0  0  0
  191.3860  177.6420  145.7220 C   0  0  0  0  0  3  0  0  0  0  0  0
  191.6940  174.3830  137.3320 C   0  0  0  0  0  2  0  0  0  0  0  0
  193.4820  175.8190  138.0630 C   0  0  0  0  0  3  0  0  0  0  0  0
  192.0790  175.5940  138.0370 N   0  0  0  0  0  0  0  0  0  0  0  0
  193.2280  173.5510  136.7840 S   0  0  0  0  0  0  0  0  0  0  0  0
  194.1980  174.8860  137.4710 C   0  0  0  0  0  3  0  0  0  0  0  0
  188.2520  179.8470  137.0400 O   0  0  0  0  0  1  0  0  0  0  0  0
  188.3410  178.4930  137.0760 N   0  0  0  0  0  0  0  0  0  0  0  0
  187.5770  177.7250  136.1010 C   0  0  0  0  0  2  0  0  0  0  0  0
  185.7250  176.2340  137.0560 N   0  0  0  0  0  0  0  0  0  0  0  0
  188.6300  175.0990  135.0460 O   0  0  0  0  0  1  0  0  0  0  0  0
  187.4570  175.2500  135.7760 C   0  0  0  0  0  0  0  0  0  0  0  0
  187.1610  176.3730  136.6940 C   0  0  1  0  0  3  0  0  0  0  0  0
  184.8790  177.1740  136.3070 C   0  0  0  0  0  1  0  0  0  0  0  0
  185.3980  174.8300  136.6960 C   0  0  2  0  0  3  0  0  0  0  0  0
  186.4650  173.2050  135.0510 O   0  0  0  0  0  1  0  0  0  0  0  0
  186.4740  174.3880  135.7800 C   0  0  0  0  0  0  0  0  0  0  0  0
  184.1400  174.6880  136.0930 O   0  0  0  0  0  1  0  0  0  0  0  0
  1  4  1  0  0  0  0
  2 12  1  0  0  0  0
  3  5  1  0  0  0  0
  4  2  2  0  0  0  0
  6 16  1  0  0  0  0
  7 13  1  0  0  0  0
  8 10  2  0  0  0  0
  9  1  2  0  0  0  0
 10  4  1  0  0  0  0
 10 15  1  0  0  0  0
 11  8  1  0  0  0  0
 12 13  1  0  0  0  0
 12  6  2  0  0  0  0
 13  3  2  0  0  0  0
 14 11  2  0  0  0  0
 14  9  1  0  0  0  0
 15  7  2  0  0  0  0
 16  5  2  0  0  0  0
 17 19  1  0  0  0  0
 19 18  1  0  0  0  0
 19  9  1  0  0  0  0
 20 17  1  0  0  0  0
 20 21  1  0  0  0  0
 21 18  2  0  0  0  0
 22 23  1  0  0  0  0
 23 11  1  0  0  0  0
 24 23  1  0  0  0  0
 26 27  1  0  0  0  0
 27 32  2  0  0  0  0
 27 28  1  0  0  0  0
 28 24  1  6  0  0  0
 28 25  1  0  0  0  0
 29 25  1  0  0  0  0
 30 33  1  6  0  0  0
 30 25  1  0  0  0  0
 31 32  1  0  0  0  0
 32 30  1  0  0  0  0
M  END
>  <MODEL>
9

>  <REMARK>
 VINA RESULT:      -7.4      4.635      8.838
  Name = 
  4 active torsions:
  status: ('A' for Active; 'I' for Inactive)
    1  A    between atoms: N_13  and  C_19
    2  A    between atoms: N_14  and  C_23
    3  A    between atoms: N_14  and  C_25
    4  A    between atoms: C_15  and  C_23
                            x       y       z     vdW  Elec       q    Type
                         _______ _______ _______ _____ _____    ______ ____

>  <TORSDO>
F 4

$$$$
