=
 OpenBabel10232411583D

 61 68  0  0  1  0  0  0  0  0999 V2000
  192.5670  176.6580  139.7560 O   0  0  0  0  0  0  0  0  0  0  0  0
  189.0050  177.0160  139.2820 C   0  0  2  0  0  3  0  0  0  0  0  0
  188.5620  177.4830  140.7200 C   0  0  1  0  0  3  0  0  0  0  0  0
  190.4340  177.2670  138.7690 C   0  0  1  0  0  0  0  0  0  0  0  0
  191.4890  177.5450  139.9530 C   0  0  1  0  0  3  0  0  0  0  0  0
  191.0280  176.2100  137.8020 C   0  0  0  0  0  2  0  0  0  0  0  0
  190.0030  176.7490  145.0760 C   0  0  0  0  0  1  0  0  0  0  0  0
  190.5150  177.7400  143.9890 C   0  0  2  0  0  0  0  0  0  0  0  0
  192.4880  176.1660  138.3590 C   0  0  2  0  0  3  0  0  0  0  0  0
  189.2690  177.9380  143.0550 C   0  0  1  0  0  3  0  0  0  0  0  0
  189.6450  178.1590  141.5880 C   0  0  1  0  0  3  0  0  0  0  0  0
  187.2380  178.3280  140.8920 C   0  0  0  0  0  1  0  0  0  0  0  0
  191.0520  177.5520  141.4690 C   0  0  2  0  0  3  0  0  0  0  0  0
  191.6440  177.2040  142.9490 C   0  0  0  0  0  2  0  0  0  0  0  0
  189.2320  178.3460  138.6690 C   0  0  1  0  0  3  0  0  0  0  0  0
  187.0360  178.8640  136.9730 C   0  0  0  0  0  2  0  0  0  0  0  0
  188.1850  177.9370  136.3500 C   0  0  1  0  0  3  0  0  0  0  0  0
  188.0410  178.1490  137.9050 C   0  0  1  0  0  3  0  0  0  0  0  0
  187.9250  176.5160  135.9460 C   0  0  0  0  0  2  0  0  0  0  0  0
  187.3510  173.9590  137.1050 O   0  0  0  0  0  1  0  0  0  0  0  0
  186.0460  175.5520  135.6040 N   0  0  0  0  0  2  0  0  0  0  0  0
  186.9240  174.3400  135.9380 C   0  0  2  0  0  0  0  0  0  0  0  0
  186.9870  175.6770  136.6220 C   0  0  1  0  0  3  0  0  0  0  0  0
  185.7450  173.4600  135.9820 C   0  0  1  0  0  3  0  0  0  0  0  0
  185.6940  172.3240  135.1760 O   0  0  0  0  0  1  0  0  0  0  0  0
  184.8860  173.1870  137.2550 C   0  0  0  0  0  2  0  0  0  0  0  0
  182.5090  172.3300  136.9550 C   0  0  0  0  0  1  0  0  0  0  0  0
  184.0000  171.9580  137.0880 C   0  0  0  0  0  2  0  0  0  0  0  0
  187.8600  175.7000  142.8410 O   0  0  0  0  0  0  0  0  0  0  0  0
  187.9950  176.8990  143.2260 C   0  0  0  0  0  0  0  0  0  0  0  0
  186.8860  177.6680  143.2970 O   0  0  0  0  0  0  0  0  0  0  0  0
  186.6260  178.2980  145.8420 C   0  0  0  0  0  1  0  0  0  0  0  0
  186.0570  177.8160  144.5190 C   0  0  1  0  0  3  0  0  0  0  0  0
  184.8240  178.5380  144.1800 C   0  0  0  0  0  2  0  0  0  0  0  0
  184.5020  178.1440  142.8590 O   0  0  0  0  0  0  0  0  0  0  0  0
  183.3060  178.7080  142.4260 C   0  0  2  0  0  3  0  0  0  0  0  0
  182.2760  179.0550  143.5290 C   0  0  0  0  0  1  0  0  0  0  0  0
  182.7470  177.9520  141.2400 C   0  0  0  0  0  2  0  0  0  0  0  0
  183.7450  179.1910  139.5630 C   0  0  0  0  0  2  0  0  0  0  0  0
  181.5950  178.0830  139.1380 O   0  0  0  0  0  0  0  0  0  0  0  0
  182.1420  178.2880  137.9320 N   0  0  0  0  0  0  0  0  0  0  0  0
  182.3190  178.9050  140.0950 C   0  0  1  0  0  3  0  0  0  0  0  0
  183.5950  178.4880  138.1920 C   0  0  0  0  0  2  0  0  0  0  0  0
  182.4580  176.1100  136.1950 C   0  0  0  0  0  1  0  0  0  0  0  0
  180.5230  176.5320  138.0920 C   0  0  0  0  0  1  0  0  0  0  0  0
  181.5210  177.1900  137.0010 C   0  0  0  0  0  0  0  0  0  0  0  0
  181.2310  179.0020  135.1380 C   0  0  1  0  0  3  0  0  0  0  0  0
  180.5140  177.8910  135.9930 C   0  0  1  0  0  3  0  0  0  0  0  0
  180.7130  177.7110  134.4780 C   0  0  0  0  0  2  0  0  0  0  0  0
  180.3930  180.3180  135.2730 C   0  0  0  0  0  2  0  0  0  0  0  0
  180.7950  181.2670  136.2170 O   0  0  0  0  0  1  0  0  0  0  0  0
  191.0490  179.0450  144.6430 C   0  0  0  0  0  3  0  0  0  0  0  0
  192.2400  179.6320  144.2760 C   0  0  0  0  0  2  0  0  0  0  0  0
  193.2310  174.7840  138.0810 C   0  0  0  0  0  2  0  0  0  0  0  0
  195.0610  174.5950  137.5340 S   0  0  0  0  0  0  0  0  0  0  0  0
  195.9810  174.9800  138.8040 N   0  0  0  0  0  2  0  0  0  0  0  0
  199.3930  174.8660  140.2130 O   0  0  0  0  0  0  0  0  0  0  0  0
  198.1850  175.1310  140.0800 C   0  0  0  0  0  3  0  0  0  0  0  0
  197.4640  174.8070  138.8900 N   0  0  0  0  0  0  0  0  0  0  0  0
  198.1560  174.2310  137.6550 C   0  0  0  0  0  2  0  0  0  0  0  0
  198.4420  175.1240  136.5630 O   0  0  0  0  0  1  0  0  0  0  0  0
  1  5  1  0  0  0  0
  2  3  1  0  0  0  0
  3 12  1  0  0  0  0
  3 11  1  0  0  0  0
  4  2  1  0  0  0  0
  4  5  1  0  0  0  0
  5 13  1  0  0  0  0
  6  9  1  0  0  0  0
  6  4  1  0  0  0  0
  8 52  1  0  0  0  0
  8  7  1  0  0  0  0
  9  1  1  0  0  0  0
 10 30  1  0  0  0  0
 10  8  1  0  0  0  0
 11 10  1  0  0  0  0
 13 11  1  0  0  0  0
 13 14  1  0  0  0  0
 14  8  1  0  0  0  0
 15  4  1  0  0  0  0
 15  2  1  0  0  0  0
 16 18  1  0  0  0  0
 17 16  1  0  0  0  0
 17 18  1  0  0  0  0
 18 15  1  0  0  0  0
 19 17  1  0  0  0  0
 19 23  1  0  0  0  0
 21 22  1  0  0  0  0
 21 23  1  0  0  0  0
 22 24  1  0  0  0  0
 22 23  1  0  0  0  0
 22 20  1  0  0  0  0
 24 26  1  0  0  0  0
 25 24  1  0  0  0  0
 27 28  1  0  0  0  0
 28 26  1  0  0  0  0
 29 30  2  0  0  0  0
 30 31  1  0  0  0  0
 31 33  1  0  0  0  0
 33 32  1  0  0  0  0
 34 33  1  0  0  0  0
 35 34  1  0  0  0  0
 36 35  1  0  0  0  0
 36 37  1  0  0  0  0
 38 36  1  0  0  0  0
 39 42  1  0  0  0  0
 40 42  1  0  0  0  0
 41 43  1  0  0  0  0
 41 40  1  0  0  0  0
 42 38  1  0  0  0  0
 43 39  1  0  0  0  0
 44 46  1  0  0  0  0
 46 41  1  0  0  0  0
 46 45  1  0  0  0  0
 47 50  1  0  0  0  0
 47 48  1  0  0  0  0
 48 46  1  0  0  0  0
 49 47  1  0  0  0  0
 49 48  1  0  0  0  0
 50 51  1  0  0  0  0
 53 52  2  0  0  0  0
 54  9  1  0  0  0  0
 55 54  1  0  0  0  0
 55 56  1  0  0  0  0
 56 59  1  0  0  0  0
 58 57  2  0  0  0  0
 59 58  1  0  0  0  0
 60 59  1  0  0  0  0
 61 60  1  0  0  0  0
M  END
>  <MODEL>
1

>  <REMARK>
 VINA RESULT:      -6.7      0.000      0.000
  Name = 
  22 active torsions:
  status: ('A' for Active; 'I' for Inactive)
    1  A    between atoms: O_5  and  C_10
    2  A    between atoms: O_5  and  C_22
    3  A    between atoms: C_8  and  C_48
    4  A    between atoms: C_8  and  C_58
    5  A    between atoms: C_9  and  C_18
    6  A    between atoms: C_10  and  C_26
    7  A    between atoms: C_11  and  C_25
    8  A    between atoms: C_11  and  C_59
    9  A    between atoms: C_13  and  C_33
   10  A    between atoms: C_13  and  S_46
   11  A    between atoms: O_14  and  C_35
   12  A    between atoms: O_14  and  C_50
   13  A    between atoms: C_19  and  C_60
   14  A    between atoms: C_22  and  C_50
   15  A    between atoms: C_26  and  C_34
   16  A    between atoms: C_27  and  C_32
   17  A    between atoms: N_30  and  C_60
   18  A    between atoms: C_31  and  N_45
   19  A    between atoms: C_35  and  C_37
   20  A    between atoms: N_45  and  N_54
   21  A    between atoms: C_51  and  C_57
   22  A    between atoms: C_55  and  C_58
                            x       y       z     vdW  Elec       q    Type
                         _______ _______ _______ _____ _____    ______ ____

>  <TORSDO>
F 22

$$$$
=
 OpenBabel10232411583D

 61 68  0  0  1  0  0  0  0  0999 V2000
  192.3320  176.7320  139.3640 O   0  0  0  0  0  0  0  0  0  0  0  0
  188.7420  176.9330  139.0330 C   0  0  2  0  0  3  0  0  0  0  0  0
  188.3480  177.5120  140.4440 C   0  0  1  0  0  3  0  0  0  0  0  0
  190.1360  177.1830  138.4320 C   0  0  1  0  0  0  0  0  0  0  0  0
  191.2330  177.5980  139.5340 C   0  0  1  0  0  3  0  0  0  0  0  0
  190.7230  176.0620  137.5330 C   0  0  0  0  0  2  0  0  0  0  0  0
  190.0100  177.2160  144.7730 C   0  0  0  0  0  1  0  0  0  0  0  0
  190.4360  178.1220  143.5800 C   0  0  2  0  0  0  0  0  0  0  0  0
  192.2070  176.1140  138.0210 C   0  0  2  0  0  3  0  0  0  0  0  0
  189.1430  178.1960  142.6930 C   0  0  1  0  0  3  0  0  0  0  0  0
  189.4440  178.2970  141.1960 C   0  0  1  0  0  3  0  0  0  0  0  0
  187.0040  178.3270  140.6050 C   0  0  0  0  0  1  0  0  0  0  0  0
  190.8650  177.7270  141.0630 C   0  0  2  0  0  3  0  0  0  0  0  0
  191.5360  177.5310  142.5380 C   0  0  0  0  0  2  0  0  0  0  0  0
  188.8930  178.2090  138.2950 C   0  0  1  0  0  3  0  0  0  0  0  0
  186.8000  178.3190  136.4040 C   0  0  0  0  0  2  0  0  0  0  0  0
  187.7620  177.0420  136.2960 C   0  0  1  0  0  3  0  0  0  0  0  0
  187.6770  177.9080  137.6090 C   0  0  1  0  0  3  0  0  0  0  0  0
  187.2520  175.6460  136.5040 C   0  0  0  0  0  2  0  0  0  0  0  0
  185.8170  173.4170  135.4180 O   0  0  0  0  0  1  0  0  0  0  0  0
  188.2890  174.0040  135.6080 N   0  0  0  0  0  2  0  0  0  0  0  0
  186.9750  173.3210  136.0020 C   0  0  2  0  0  0  0  0  0  0  0  0
  187.1010  174.7090  135.4380 C   0  0  1  0  0  3  0  0  0  0  0  0
  187.3480  172.1060  135.2610 C   0  0  1  0  0  3  0  0  0  0  0  0
  188.6010  171.5260  135.4600 O   0  0  0  0  0  1  0  0  0  0  0  0
  186.3560  170.9770  134.8460 C   0  0  0  0  0  2  0  0  0  0  0  0
  185.9510  168.4670  134.7660 C   0  0  0  0  0  1  0  0  0  0  0  0
  186.9830  169.5940  134.9720 C   0  0  0  0  0  2  0  0  0  0  0  0
  187.8190  175.8980  142.7700 O   0  0  0  0  0  0  0  0  0  0  0  0
  187.9160  177.1370  143.0160 C   0  0  0  0  0  0  0  0  0  0  0  0
  186.7800  177.8680  143.0350 O   0  0  0  0  0  0  0  0  0  0  0  0
  186.4230  178.1510  145.6300 C   0  0  0  0  0  1  0  0  0  0  0  0
  185.8900  177.9870  144.2170 C   0  0  1  0  0  3  0  0  0  0  0  0
  184.8390  178.9720  143.9320 C   0  0  0  0  0  2  0  0  0  0  0  0
  184.0970  178.4370  142.8520 O   0  0  0  0  0  0  0  0  0  0  0  0
  182.7950  178.9270  142.8220 C   0  0  2  0  0  3  0  0  0  0  0  0
  181.9530  178.7020  144.1010 C   0  0  0  0  0  1  0  0  0  0  0  0
  182.1060  178.5610  141.5260 C   0  0  0  0  0  2  0  0  0  0  0  0
  183.8270  177.7460  140.2150 C   0  0  0  0  0  2  0  0  0  0  0  0
  181.9970  179.0060  139.1700 O   0  0  0  0  0  0  0  0  0  0  0  0
  182.5430  178.2780  138.1870 N   0  0  0  0  0  0  0  0  0  0  0  0
  182.9270  179.0040  140.2880 C   0  0  1  0  0  3  0  0  0  0  0  0
  183.2860  177.1870  138.8780 C   0  0  0  0  0  2  0  0  0  0  0  0
  179.9840  177.3530  137.5130 C   0  0  0  0  0  1  0  0  0  0  0  0
  181.2630  179.6320  136.6850 C   0  0  0  0  0  1  0  0  0  0  0  0
  181.4030  178.0820  137.1290 C   0  0  0  0  0  0  0  0  0  0  0  0
  180.9150  176.7200  134.9520 C   0  0  1  0  0  3  0  0  0  0  0  0
  182.0240  177.4090  135.8320 C   0  0  1  0  0  3  0  0  0  0  0  0
  181.6610  177.9660  134.4450 C   0  0  0  0  0  2  0  0  0  0  0  0
  181.3740  175.2480  134.6790 C   0  0  0  0  0  2  0  0  0  0  0  0
  180.9220  174.2410  135.5380 O   0  0  0  0  0  1  0  0  0  0  0  0
  190.9520  179.4960  144.0910 C   0  0  0  0  0  3  0  0  0  0  0  0
  192.2360  179.6880  144.5520 C   0  0  0  0  0  2  0  0  0  0  0  0
  192.9860  174.7370  137.8290 C   0  0  0  0  0  2  0  0  0  0  0  0
  194.6380  174.5160  136.8780 S   0  0  0  0  0  0  0  0  0  0  0  0
  195.6290  173.6700  137.8330 N   0  0  0  0  0  2  0  0  0  0  0  0
  198.1520  171.4320  136.3290 O   0  0  0  0  0  0  0  0  0  0  0  0
  197.0720  171.8440  136.7870 C   0  0  0  0  0  3  0  0  0  0  0  0
  196.9580  173.1140  137.4340 N   0  0  0  0  0  0  0  0  0  0  0  0
  198.1780  173.9890  137.7190 C   0  0  0  0  0  2  0  0  0  0  0  0
  197.9620  175.3920  137.9560 O   0  0  0  0  0  1  0  0  0  0  0  0
  1  5  1  0  0  0  0
  2  3  1  0  0  0  0
  3 12  1  0  0  0  0
  3 11  1  0  0  0  0
  4  2  1  0  0  0  0
  4  5  1  0  0  0  0
  5 13  1  0  0  0  0
  6  9  1  0  0  0  0
  6  4  1  0  0  0  0
  8 52  1  0  0  0  0
  8  7  1  0  0  0  0
  9  1  1  0  0  0  0
 10 30  1  0  0  0  0
 10  8  1  0  0  0  0
 11 10  1  0  0  0  0
 13 11  1  0  0  0  0
 13 14  1  0  0  0  0
 14  8  1  0  0  0  0
 15  4  1  0  0  0  0
 15  2  1  0  0  0  0
 16 18  1  0  0  0  0
 17 16  1  0  0  0  0
 17 19  1  0  0  0  0
 17 18  1  0  0  0  0
 18 15  1  0  0  0  0
 20 22  1  0  0  0  0
 21 22  1  0  0  0  0
 23 21  1  0  0  0  0
 23 22  1  0  0  0  0
 23 19  1  0  0  0  0
 24 25  1  0  0  0  0
 24 22  1  0  0  0  0
 26 28  1  0  0  0  0
 26 24  1  0  0  0  0
 27 28  1  0  0  0  0
 29 30  2  0  0  0  0
 30 31  1  0  0  0  0
 31 33  1  0  0  0  0
 33 32  1  0  0  0  0
 34 33  1  0  0  0  0
 35 34  1  0  0  0  0
 36 35  1  0  0  0  0
 36 37  1  0  0  0  0
 38 36  1  0  0  0  0
 39 42  1  0  0  0  0
 40 42  1  0  0  0  0
 41 43  1  0  0  0  0
 41 40  1  0  0  0  0
 42 38  1  0  0  0  0
 43 39  1  0  0  0  0
 45 46  1  0  0  0  0
 46 44  1  0  0  0  0
 46 41  1  0  0  0  0
 47 48  1  0  0  0  0
 48 46  1  0  0  0  0
 49 47  1  0  0  0  0
 49 48  1  0  0  0  0
 50 47  1  0  0  0  0
 50 51  1  0  0  0  0
 52 53  2  0  0  0  0
 54  9  1  0  0  0  0
 55 54  1  0  0  0  0
 55 56  1  0  0  0  0
 57 58  2  0  0  0  0
 58 59  1  0  0  0  0
 59 60  1  0  0  0  0
 59 56  1  0  0  0  0
 60 61  1  0  0  0  0
M  END
>  <MODEL>
2

>  <REMARK>
 VINA RESULT:      -4.8      1.607      2.146
  Name = 
  22 active torsions:
  status: ('A' for Active; 'I' for Inactive)
    1  A    between atoms: O_5  and  C_10
    2  A    between atoms: O_5  and  C_22
    3  A    between atoms: C_8  and  C_48
    4  A    between atoms: C_8  and  C_58
    5  A    between atoms: C_9  and  C_18
    6  A    between atoms: C_10  and  C_26
    7  A    between atoms: C_11  and  C_25
    8  A    between atoms: C_11  and  C_59
    9  A    between atoms: C_13  and  C_33
   10  A    between atoms: C_13  and  S_46
   11  A    between atoms: O_14  and  C_35
   12  A    between atoms: O_14  and  C_50
   13  A    between atoms: C_19  and  C_60
   14  A    between atoms: C_22  and  C_50
   15  A    between atoms: C_26  and  C_34
   16  A    between atoms: C_27  and  C_32
   17  A    between atoms: N_30  and  C_60
   18  A    between atoms: C_31  and  N_45
   19  A    between atoms: C_35  and  C_37
   20  A    between atoms: N_45  and  N_54
   21  A    between atoms: C_51  and  C_57
   22  A    between atoms: C_55  and  C_58
                            x       y       z     vdW  Elec       q    Type
                         _______ _______ _______ _____ _____    ______ ____

>  <TORSDO>
F 22

$$$$
=
 OpenBabel10232411583D

 61 68  0  0  1  0  0  0  0  0999 V2000
  186.1400  178.5730  139.8220 O   0  0  0  0  0  0  0  0  0  0  0  0
  189.2030  176.7320  140.3450 C   0  0  2  0  0  3  0  0  0  0  0  0
  189.5570  176.3240  138.8660 C   0  0  1  0  0  3  0  0  0  0  0  0
  188.3450  177.9750  140.6430 C   0  0  1  0  0  0  0  0  0  0  0  0
  187.4730  178.4580  139.3790 C   0  0  1  0  0  3  0  0  0  0  0  0
  187.4280  177.9110  141.8940 C   0  0  0  0  0  2  0  0  0  0  0  0
  187.1770  175.3200  135.0030 C   0  0  0  0  0  1  0  0  0  0  0  0
  187.5850  176.6910  135.6180 C   0  0  2  0  0  0  0  0  0  0  0  0
  186.1670  178.6220  141.3040 C   0  0  2  0  0  3  0  0  0  0  0  0
  188.8440  176.3440  136.4880 C   0  0  1  0  0  3  0  0  0  0  0  0
  188.9640  177.2070  137.7470 C   0  0  1  0  0  3  0  0  0  0  0  0
  191.0600  176.0320  138.4760 C   0  0  0  0  0  1  0  0  0  0  0  0
  187.5310  177.7030  137.9950 C   0  0  2  0  0  3  0  0  0  0  0  0
  186.5830  177.3570  136.7120 C   0  0  0  0  0  2  0  0  0  0  0  0
  189.9470  178.0120  140.4140 C   0  0  1  0  0  3  0  0  0  0  0  0
  192.3910  177.0110  141.4090 C   0  0  0  0  0  2  0  0  0  0  0  0
  191.7880  178.2690  142.1980 C   0  0  1  0  0  3  0  0  0  0  0  0
  190.8930  177.3660  141.2670 C   0  0  1  0  0  3  0  0  0  0  0  0
  191.3770  178.1790  143.6380 C   0  0  0  0  0  2  0  0  0  0  0  0
  188.6670  178.2800  144.5600 O   0  0  0  0  0  1  0  0  0  0  0  0
  190.7230  176.9500  145.2620 N   0  0  0  0  0  2  0  0  0  0  0  0
  189.6910  178.0800  145.3350 C   0  0  2  0  0  0  0  0  0  0  0  0
  190.2200  177.4640  144.0700 C   0  0  1  0  0  3  0  0  0  0  0  0
  188.9040  177.3390  146.3330 C   0  0  1  0  0  3  0  0  0  0  0  0
  189.5380  176.4460  147.1960 O   0  0  0  0  0  1  0  0  0  0  0  0
  187.6380  177.8910  147.0570 C   0  0  0  0  0  2  0  0  0  0  0  0
  185.5130  178.8300  146.0180 C   0  0  0  0  0  1  0  0  0  0  0  0
  186.3600  177.5700  146.2890 C   0  0  0  0  0  2  0  0  0  0  0  0
  188.8880  174.0340  137.7910 O   0  0  0  0  0  0  0  0  0  0  0  0
  189.1710  174.7520  136.7860 C   0  0  0  0  0  0  0  0  0  0  0  0
  190.2960  174.4600  136.0980 O   0  0  0  0  0  0  0  0  0  0  0  0
  190.6670  172.2560  134.7020 C   0  0  0  0  0  1  0  0  0  0  0  0
  190.8500  173.0890  135.9590 C   0  0  1  0  0  3  0  0  0  0  0  0
  192.2530  173.0910  136.3920 C   0  0  0  0  0  2  0  0  0  0  0  0
  192.9860  173.6340  135.3100 O   0  0  0  0  0  0  0  0  0  0  0  0
  193.8760  174.6190  135.7280 C   0  0  2  0  0  3  0  0  0  0  0  0
  193.4190  176.0830  135.5210 C   0  0  0  0  0  1  0  0  0  0  0  0
  195.2830  174.3120  135.2620 C   0  0  0  0  0  2  0  0  0  0  0  0
  195.6630  173.9510  137.5140 C   0  0  0  0  0  2  0  0  0  0  0  0
  197.5580  173.9850  135.9530 O   0  0  0  0  0  0  0  0  0  0  0  0
  197.9840  173.3030  137.0250 N   0  0  0  0  0  0  0  0  0  0  0  0
  196.3410  174.6850  136.3310 C   0  0  1  0  0  3  0  0  0  0  0  0
  196.7440  172.8640  137.7240 C   0  0  0  0  0  2  0  0  0  0  0  0
  199.6960  172.4760  134.9650 C   0  0  0  0  0  1  0  0  0  0  0  0
  200.2100  172.6840  137.6500 C   0  0  0  0  0  1  0  0  0  0  0  0
  199.1200  172.3610  136.4970 C   0  0  0  0  0  0  0  0  0  0  0  0
  198.1570  170.1280  135.5370 C   0  0  1  0  0  3  0  0  0  0  0  0
  198.7210  170.8580  136.8140 C   0  0  1  0  0  3  0  0  0  0  0  0
  199.5050  169.7120  136.1510 C   0  0  0  0  0  2  0  0  0  0  0  0
  196.7800  169.4920  135.9250 C   0  0  0  0  0  2  0  0  0  0  0  0
  195.6100  170.1230  135.4920 O   0  0  0  0  0  1  0  0  0  0  0  0
  187.8380  177.7420  134.5010 C   0  0  0  0  0  3  0  0  0  0  0  0
  187.0620  178.8700  134.3460 C   0  0  0  0  0  2  0  0  0  0  0  0
  184.8090  178.2020  142.0240 C   0  0  0  0  0  2  0  0  0  0  0  0
  183.1070  178.0000  141.1600 S   0  0  0  0  0  0  0  0  0  0  0  0
  182.9560  179.2200  140.1130 N   0  0  0  0  0  2  0  0  0  0  0  0
  180.8030  178.5110  137.1970 O   0  0  0  0  0  0  0  0  0  0  0  0
  181.7750  178.4890  137.9730 C   0  0  0  0  0  3  0  0  0  0  0  0
  181.8680  179.3660  139.0970 N   0  0  0  0  0  0  0  0  0  0  0  0
  180.8460  180.4730  139.3470 C   0  0  0  0  0  2  0  0  0  0  0  0
  180.1910  180.5130  140.6280 O   0  0  0  0  0  1  0  0  0  0  0  0
  1  9  1  0  0  0  0
  2 15  1  0  0  0  0
  2  4  1  0  0  0  0
  3  2  1  0  0  0  0
  4  6  1  0  0  0  0
  5  1  1  0  0  0  0
  5  4  1  0  0  0  0
  7  8  1  0  0  0  0
  8 10  1  0  0  0  0
  8 14  1  0  0  0  0
  9  6  1  0  0  0  0
  9 54  1  0  0  0  0
 10 30  1  0  0  0  0
 10 11  1  0  0  0  0
 11 13  1  0  0  0  0
 11  3  1  0  0  0  0
 12  3  1  0  0  0  0
 13  5  1  0  0  0  0
 14 13  1  0  0  0  0
 15  4  1  0  0  0  0
 15 18  1  0  0  0  0
 16 17  1  0  0  0  0
 17 19  1  0  0  0  0
 18 16  1  0  0  0  0
 18 17  1  0  0  0  0
 19 23  1  0  0  0  0
 20 22  1  0  0  0  0
 21 22  1  0  0  0  0
 22 24  1  0  0  0  0
 23 21  1  0  0  0  0
 23 22  1  0  0  0  0
 24 26  1  0  0  0  0
 24 25  1  0  0  0  0
 27 28  1  0  0  0  0
 28 26  1  0  0  0  0
 30 29  2  0  0  0  0
 31 30  1  0  0  0  0
 32 33  1  0  0  0  0
 33 31  1  0  0  0  0
 33 34  1  0  0  0  0
 35 36  1  0  0  0  0
 35 34  1  0  0  0  0
 37 36  1  0  0  0  0
 38 36  1  0  0  0  0
 38 42  1  0  0  0  0
 39 43  1  0  0  0  0
 40 42  1  0  0  0  0
 40 41  1  0  0  0  0
 41 43  1  0  0  0  0
 42 39  1  0  0  0  0
 44 46  1  0  0  0  0
 46 48  1  0  0  0  0
 46 41  1  0  0  0  0
 46 45  1  0  0  0  0
 47 50  1  0  0  0  0
 47 49  1  0  0  0  0
 47 48  1  0  0  0  0
 49 48  1  0  0  0  0
 51 50  1  0  0  0  0
 52  8  1  0  0  0  0
 53 52  2  0  0  0  0
 55 54  1  0  0  0  0
 56 55  1  0  0  0  0
 57 58  2  0  0  0  0
 58 59  1  0  0  0  0
 59 60  1  0  0  0  0
 59 56  1  0  0  0  0
 60 61  1  0  0  0  0
M  END
>  <MODEL>
3

>  <REMARK>
 VINA RESULT:      -4.7      3.237     12.514
  Name = 
  22 active torsions:
  status: ('A' for Active; 'I' for Inactive)
    1  A    between atoms: O_5  and  C_10
    2  A    between atoms: O_5  and  C_22
    3  A    between atoms: C_8  and  C_48
    4  A    between atoms: C_8  and  C_58
    5  A    between atoms: C_9  and  C_18
    6  A    between atoms: C_10  and  C_26
    7  A    between atoms: C_11  and  C_25
    8  A    between atoms: C_11  and  C_59
    9  A    between atoms: C_13  and  C_33
   10  A    between atoms: C_13  and  S_46
   11  A    between atoms: O_14  and  C_35
   12  A    between atoms: O_14  and  C_50
   13  A    between atoms: C_19  and  C_60
   14  A    between atoms: C_22  and  C_50
   15  A    between atoms: C_26  and  C_34
   16  A    between atoms: C_27  and  C_32
   17  A    between atoms: N_30  and  C_60
   18  A    between atoms: C_31  and  N_45
   19  A    between atoms: C_35  and  C_37
   20  A    between atoms: N_45  and  N_54
   21  A    between atoms: C_51  and  C_57
   22  A    between atoms: C_55  and  C_58
                            x       y       z     vdW  Elec       q    Type
                         _______ _______ _______ _____ _____    ______ ____

>  <TORSDO>
F 22

$$$$
=
 OpenBabel10232411583D

 61 68  0  0  1  0  0  0  0  0999 V2000
  185.0750  177.8100  136.1200 O   0  0  0  0  0  0  0  0  0  0  0  0
  183.3250  175.0100  137.5840 C   0  0  2  0  0  3  0  0  0  0  0  0
  182.0460  175.7290  138.1560 C   0  0  1  0  0  3  0  0  0  0  0  0
  184.1050  175.6010  136.3960 C   0  0  1  0  0  0  0  0  0  0  0  0
  183.8200  177.1690  136.1710 C   0  0  1  0  0  3  0  0  0  0  0  0
  185.6380  175.3590  136.3730 C   0  0  0  0  0  2  0  0  0  0  0  0
  181.0500  179.9230  139.8910 C   0  0  0  0  0  1  0  0  0  0  0  0
  181.1500  179.4300  138.4170 C   0  0  2  0  0  0  0  0  0  0  0  0
  186.0970  176.7650  135.8670 C   0  0  2  0  0  3  0  0  0  0  0  0
  180.8790  177.8880  138.5250 C   0  0  1  0  0  3  0  0  0  0  0  0
  181.6520  177.0660  137.4920 C   0  0  1  0  0  3  0  0  0  0  0  0
  180.7130  174.9040  138.3600 C   0  0  0  0  0  1  0  0  0  0  0  0
  182.8290  177.9730  137.1000 C   0  0  2  0  0  3  0  0  0  0  0  0
  182.6110  179.4740  137.7030 C   0  0  0  0  0  2  0  0  0  0  0  0
  182.8060  174.6490  136.2440 C   0  0  1  0  0  3  0  0  0  0  0  0
  181.8510  172.2450  137.3740 C   0  0  0  0  0  2  0  0  0  0  0  0
  181.9810  172.2530  135.7770 C   0  0  1  0  0  3  0  0  0  0  0  0
  182.7540  173.2890  136.6780 C   0  0  1  0  0  3  0  0  0  0  0  0
  182.9140  171.3260  135.0530 C   0  0  0  0  0  2  0  0  0  0  0  0
  185.4830  172.0850  136.0710 O   0  0  0  0  0  1  0  0  0  0  0  0
  184.6820  170.2730  134.4680 N   0  0  0  0  0  2  0  0  0  0  0  0
  185.2830  171.6240  134.8710 C   0  0  2  0  0  0  0  0  0  0  0  0
  184.1710  170.9160  135.5920 C   0  0  1  0  0  3  0  0  0  0  0  0
  186.6480  171.0860  134.7540 C   0  0  1  0  0  3  0  0  0  0  0  0
  187.6910  171.9170  134.3460 O   0  0  0  0  0  1  0  0  0  0  0  0
  187.2470  169.9740  135.6680 C   0  0  0  0  0  2  0  0  0  0  0  0
  189.3370  168.6280  135.1230 C   0  0  0  0  0  1  0  0  0  0  0  0
  187.8310  168.8240  134.8550 C   0  0  0  0  0  2  0  0  0  0  0  0
  180.0180  177.1650  140.9280 O   0  0  0  0  0  0  0  0  0  0  0  0
  180.9060  177.1950  140.0250 C   0  0  0  0  0  0  0  0  0  0  0  0
  182.2000  177.1780  140.4120 O   0  0  0  0  0  0  0  0  0  0  0  0
  182.4240  178.4180  142.7270 C   0  0  0  0  0  1  0  0  0  0  0  0
  182.8210  178.2140  141.2750 C   0  0  1  0  0  3  0  0  0  0  0  0
  184.2820  178.1480  141.1320 C   0  0  0  0  0  2  0  0  0  0  0  0
  184.7940  179.1680  141.9690 O   0  0  0  0  0  0  0  0  0  0  0  0
  186.0610  178.8560  142.4520 C   0  0  2  0  0  3  0  0  0  0  0  0
  187.1080  178.4290  141.3950 C   0  0  0  0  0  1  0  0  0  0  0  0
  185.9730  177.9610  143.6690 C   0  0  0  0  0  2  0  0  0  0  0  0
  186.5910  177.3120  145.8000 C   0  0  0  0  0  2  0  0  0  0  0  0
  188.1310  178.6660  144.4480 O   0  0  0  0  0  0  0  0  0  0  0  0
  188.8940  178.0560  145.3650 N   0  0  0  0  0  0  0  0  0  0  0  0
  186.7460  178.5460  144.8770 C   0  0  1  0  0  3  0  0  0  0  0  0
  188.0820  176.9020  145.8410 C   0  0  0  0  0  2  0  0  0  0  0  0
  191.1610  179.3150  144.2990 C   0  0  0  0  0  1  0  0  0  0  0  0
  191.0190  177.0910  145.8970 C   0  0  0  0  0  1  0  0  0  0  0  0
  190.3230  177.9710  144.7290 C   0  0  0  0  0  0  0  0  0  0  0  0
  191.5260  177.1210  142.5680 C   0  0  1  0  0  3  0  0  0  0  0  0
  190.2780  176.9500  143.5130 C   0  0  1  0  0  3  0  0  0  0  0  0
  191.3450  175.8470  143.4120 C   0  0  0  0  0  2  0  0  0  0  0  0
  190.9930  177.2900  141.1060 C   0  0  0  0  0  2  0  0  0  0  0  0
  190.3810  176.1930  140.4900 O   0  0  0  0  0  1  0  0  0  0  0  0
  180.1520  180.2030  137.5100 C   0  0  0  0  0  3  0  0  0  0  0  0
  180.4700  181.3930  136.8930 C   0  0  0  0  0  2  0  0  0  0  0  0
  187.5810  177.1430  136.3070 C   0  0  0  0  0  2  0  0  0  0  0  0
  189.1300  176.0380  136.0630 S   0  0  0  0  0  0  0  0  0  0  0  0
  190.2580  176.5630  137.0930 N   0  0  0  0  0  2  0  0  0  0  0  0
  192.8030  173.9040  137.4000 O   0  0  0  0  0  0  0  0  0  0  0  0
  191.6980  174.4670  137.3040 C   0  0  0  0  0  3  0  0  0  0  0  0
  191.5630  175.8880  137.3730 N   0  0  0  0  0  0  0  0  0  0  0  0
  192.7460  176.7990  137.6980 C   0  0  0  0  0  2  0  0  0  0  0  0
  193.5300  176.4980  138.8660 O   0  0  0  0  0  1  0  0  0  0  0  0
  1  5  1  0  0  0  0
  2  3  1  0  0  0  0
  3 12  1  0  0  0  0
  4  2  1  0  0  0  0
  5  4  1  0  0  0  0
  5 13  1  0  0  0  0
  6  4  1  0  0  0  0
  8 10  1  0  0  0  0
  8  7  1  0  0  0  0
  9  1  1  0  0  0  0
  9 54  1  0  0  0  0
  9  6  1  0  0  0  0
 10 30  1  0  0  0  0
 11  3  1  0  0  0  0
 11 10  1  0  0  0  0
 13 11  1  0  0  0  0
 13 14  1  0  0  0  0
 14  8  1  0  0  0  0
 15  4  1  0  0  0  0
 15 18  1  0  0  0  0
 15  2  1  0  0  0  0
 17 18  1  0  0  0  0
 17 16  1  0  0  0  0
 18 16  1  0  0  0  0
 19 23  1  0  0  0  0
 19 17  1  0  0  0  0
 21 22  1  0  0  0  0
 21 23  1  0  0  0  0
 22 23  1  0  0  0  0
 22 20  1  0  0  0  0
 24 22  1  0  0  0  0
 24 26  1  0  0  0  0
 25 24  1  0  0  0  0
 28 27  1  0  0  0  0
 28 26  1  0  0  0  0
 30 31  1  0  0  0  0
 30 29  2  0  0  0  0
 31 33  1  0  0  0  0
 33 32  1  0  0  0  0
 34 33  1  0  0  0  0
 34 35  1  0  0  0  0
 35 36  1  0  0  0  0
 36 38  1  0  0  0  0
 37 36  1  0  0  0  0
 38 42  1  0  0  0  0
 39 43  1  0  0  0  0
 40 42  1  0  0  0  0
 40 41  1  0  0  0  0
 41 43  1  0  0  0  0
 42 39  1  0  0  0  0
 44 46  1  0  0  0  0
 46 41  1  0  0  0  0
 46 45  1  0  0  0  0
 47 49  1  0  0  0  0
 47 48  1  0  0  0  0
 48 46  1  0  0  0  0
 49 48  1  0  0  0  0
 50 47  1  0  0  0  0
 51 50  1  0  0  0  0
 52  8  1  0  0  0  0
 53 52  2  0  0  0  0
 55 54  1  0  0  0  0
 55 56  1  0  0  0  0
 56 59  1  0  0  0  0
 58 59  1  0  0  0  0
 58 57  2  0  0  0  0
 59 60  1  0  0  0  0
 60 61  1  0  0  0  0
M  END
>  <MODEL>
4

>  <REMARK>
 VINA RESULT:      -4.5      2.910      8.226
  Name = 
  22 active torsions:
  status: ('A' for Active; 'I' for Inactive)
    1  A    between atoms: O_5  and  C_10
    2  A    between atoms: O_5  and  C_22
    3  A    between atoms: C_8  and  C_48
    4  A    between atoms: C_8  and  C_58
    5  A    between atoms: C_9  and  C_18
    6  A    between atoms: C_10  and  C_26
    7  A    between atoms: C_11  and  C_25
    8  A    between atoms: C_11  and  C_59
    9  A    between atoms: C_13  and  C_33
   10  A    between atoms: C_13  and  S_46
   11  A    between atoms: O_14  and  C_35
   12  A    between atoms: O_14  and  C_50
   13  A    between atoms: C_19  and  C_60
   14  A    between atoms: C_22  and  C_50
   15  A    between atoms: C_26  and  C_34
   16  A    between atoms: C_27  and  C_32
   17  A    between atoms: N_30  and  C_60
   18  A    between atoms: C_31  and  N_45
   19  A    between atoms: C_35  and  C_37
   20  A    between atoms: N_45  and  N_54
   21  A    between atoms: C_51  and  C_57
   22  A    between atoms: C_55  and  C_58
                            x       y       z     vdW  Elec       q    Type
                         _______ _______ _______ _____ _____    ______ ____

>  <TORSDO>
F 22

$$$$
=
 OpenBabel10232411583D

 61 68  0  0  1  0  0  0  0  0999 V2000
  187.8930  178.5820  141.1910 O   0  0  0  0  0  0  0  0  0  0  0  0
  187.7370  176.7400  138.0890 C   0  0  2  0  0  3  0  0  0  0  0  0
  186.2310  176.9670  137.6860 C   0  0  1  0  0  3  0  0  0  0  0  0
  188.4800  177.7420  138.9900 C   0  0  1  0  0  0  0  0  0  0  0  0
  187.4870  178.6780  139.8440 C   0  0  1  0  0  3  0  0  0  0  0  0
  189.5670  177.1640  139.9340 C   0  0  0  0  0  2  0  0  0  0  0  0
  182.2120  177.5620  139.9390 C   0  0  0  0  0  1  0  0  0  0  0  0
  183.3390  178.5770  139.5880 C   0  0  2  0  0  0  0  0  0  0  0  0
  189.2700  178.0310  141.2020 C   0  0  2  0  0  3  0  0  0  0  0  0
  184.0390  177.9310  138.3400 C   0  0  1  0  0  3  0  0  0  0  0  0
  185.5420  178.2160  138.2770 C   0  0  1  0  0  3  0  0  0  0  0  0
  185.8090  176.8830  136.1660 C   0  0  0  0  0  1  0  0  0  0  0  0
  185.9190  178.5450  139.7300 C   0  0  2  0  0  3  0  0  0  0  0  0
  184.5740  178.7280  140.6360 C   0  0  0  0  0  2  0  0  0  0  0  0
  188.3400  177.8960  137.3850 C   0  0  1  0  0  3  0  0  0  0  0  0
  189.5600  176.8850  135.0490 C   0  0  0  0  0  2  0  0  0  0  0  0
  190.4620  176.8420  136.3720 C   0  0  1  0  0  3  0  0  0  0  0  0
  188.8940  176.9780  136.4410 C   0  0  1  0  0  3  0  0  0  0  0  0
  190.9440  175.5490  136.9610 C   0  0  0  0  0  2  0  0  0  0  0  0
  193.7850  175.8470  136.7490 O   0  0  0  0  0  1  0  0  0  0  0  0
  192.2640  174.0180  137.6620 N   0  0  0  0  0  2  0  0  0  0  0  0
  193.1630  174.7120  136.6320 C   0  0  2  0  0  0  0  0  0  0  0  0
  192.2240  175.4070  137.5770 C   0  0  1  0  0  3  0  0  0  0  0  0
  194.3270  173.9260  137.0730 C   0  0  1  0  0  3  0  0  0  0  0  0
  194.2290  172.5400  137.1870 O   0  0  0  0  0  1  0  0  0  0  0  0
  195.8110  174.2800  136.7540 C   0  0  0  0  0  2  0  0  0  0  0  0
  198.0410  173.1630  137.2580 C   0  0  0  0  0  1  0  0  0  0  0  0
  196.7590  173.7900  137.8420 C   0  0  0  0  0  2  0  0  0  0  0  0
  184.4350  175.4260  137.5610 O   0  0  0  0  0  0  0  0  0  0  0  0
  183.6840  176.3590  137.9740 C   0  0  0  0  0  0  0  0  0  0  0  0
  182.3880  176.3420  137.5940 O   0  0  0  0  0  0  0  0  0  0  0  0
  182.7810  176.3080  134.9880 C   0  0  0  0  0  1  0  0  0  0  0  0
  181.9330  176.0270  136.2160 C   0  0  1  0  0  3  0  0  0  0  0  0
  181.3970  174.6600  136.1870 C   0  0  0  0  0  2  0  0  0  0  0  0
  182.5270  173.8080  136.1520 O   0  0  0  0  0  0  0  0  0  0  0  0
  182.2610  172.6190  135.4820 C   0  0  2  0  0  3  0  0  0  0  0  0
  181.2080  172.6940  134.3490 C   0  0  0  0  0  1  0  0  0  0  0  0
  182.0760  171.4750  136.4560 C   0  0  0  0  0  2  0  0  0  0  0  0
  183.4010  169.9810  135.2920 C   0  0  0  0  0  2  0  0  0  0  0  0
  184.4520  171.6710  136.7310 O   0  0  0  0  0  0  0  0  0  0  0  0
  185.3970  171.3030  135.8550 N   0  0  0  0  0  0  0  0  0  0  0  0
  183.3880  170.6810  136.6740 C   0  0  1  0  0  3  0  0  0  0  0  0
  184.6560  170.6850  134.7210 C   0  0  0  0  0  2  0  0  0  0  0  0
  186.2320  173.6470  134.5640 C   0  0  0  0  0  1  0  0  0  0  0  0
  186.1390  173.1010  137.2490 C   0  0  0  0  0  1  0  0  0  0  0  0
  186.3720  172.5260  135.7540 C   0  0  0  0  0  0  0  0  0  0  0  0
  188.9060  173.1590  135.6390 C   0  0  1  0  0  3  0  0  0  0  0  0
  187.8650  171.9910  135.8220 C   0  0  1  0  0  3  0  0  0  0  0  0
  188.7720  172.4260  136.9860 C   0  0  0  0  0  2  0  0  0  0  0  0
  189.8970  172.7360  134.5030 C   0  0  0  0  0  2  0  0  0  0  0  0
  191.2330  172.4970  134.8420 O   0  0  0  0  0  1  0  0  0  0  0  0
  182.7480  179.9930  139.3390 C   0  0  0  0  0  3  0  0  0  0  0  0
  182.1010  180.3380  138.1730 C   0  0  0  0  0  2  0  0  0  0  0  0
  189.7130  177.3330  142.5640 C   0  0  0  0  0  2  0  0  0  0  0  0
  189.5810  178.1170  144.3110 S   0  0  0  0  0  0  0  0  0  0  0  0
  188.3980  177.3450  145.0920 N   0  0  0  0  0  2  0  0  0  0  0  0
  188.8290  177.7040  148.7430 O   0  0  0  0  0  0  0  0  0  0  0  0
  189.0700  177.4390  147.5510 C   0  0  0  0  0  3  0  0  0  0  0  0
  188.0620  177.5040  146.5410 N   0  0  0  0  0  0  0  0  0  0  0  0
  186.5960  177.7760  146.8760 C   0  0  0  0  0  2  0  0  0  0  0  0
  186.1980  179.1400  147.1070 O   0  0  0  0  0  1  0  0  0  0  0  0
  1  9  1  0  0  0  0
  2  4  1  0  0  0  0
  3  2  1  0  0  0  0
  3 11  1  0  0  0  0
  4  5  1  0  0  0  0
  4  6  1  0  0  0  0
  5  1  1  0  0  0  0
  6  9  1  0  0  0  0
  8  7  1  0  0  0  0
  8 14  1  0  0  0  0
  9 54  1  0  0  0  0
 10  8  1  0  0  0  0
 11 10  1  0  0  0  0
 11 13  1  0  0  0  0
 12  3  1  0  0  0  0
 13  5  1  0  0  0  0
 13 14  1  0  0  0  0
 15  2  1  0  0  0  0
 15  4  1  0  0  0  0
 16 17  1  0  0  0  0
 16 18  1  0  0  0  0
 17 18  1  0  0  0  0
 17 19  1  0  0  0  0
 18 15  1  0  0  0  0
 19 23  1  0  0  0  0
 22 20  1  0  0  0  0
 22 24  1  0  0  0  0
 22 23  1  0  0  0  0
 22 21  1  0  0  0  0
 23 21  1  0  0  0  0
 24 25  1  0  0  0  0
 26 24  1  0  0  0  0
 26 28  1  0  0  0  0
 27 28  1  0  0  0  0
 29 30  2  0  0  0  0
 30 10  1  0  0  0  0
 31 30  1  0  0  0  0
 32 33  1  0  0  0  0
 33 31  1  0  0  0  0
 34 33  1  0  0  0  0
 35 34  1  0  0  0  0
 36 35  1  0  0  0  0
 36 38  1  0  0  0  0
 37 36  1  0  0  0  0
 38 42  1  0  0  0  0
 39 42  1  0  0  0  0
 41 40  1  0  0  0  0
 42 40  1  0  0  0  0
 43 39  1  0  0  0  0
 43 41  1  0  0  0  0
 44 46  1  0  0  0  0
 46 48  1  0  0  0  0
 46 41  1  0  0  0  0
 46 45  1  0  0  0  0
 47 48  1  0  0  0  0
 47 49  1  0  0  0  0
 48 49  1  0  0  0  0
 50 51  1  0  0  0  0
 50 47  1  0  0  0  0
 52  8  1  0  0  0  0
 53 52  2  0  0  0  0
 54 55  1  0  0  0  0
 55 56  1  0  0  0  0
 56 59  1  0  0  0  0
 58 57  2  0  0  0  0
 59 60  1  0  0  0  0
 59 58  1  0  0  0  0
 60 61  1  0  0  0  0
M  END
>  <MODEL>
5

>  <REMARK>
 VINA RESULT:      -4.4      3.182      8.781
  Name = 
  22 active torsions:
  status: ('A' for Active; 'I' for Inactive)
    1  A    between atoms: O_5  and  C_10
    2  A    between atoms: O_5  and  C_22
    3  A    between atoms: C_8  and  C_48
    4  A    between atoms: C_8  and  C_58
    5  A    between atoms: C_9  and  C_18
    6  A    between atoms: C_10  and  C_26
    7  A    between atoms: C_11  and  C_25
    8  A    between atoms: C_11  and  C_59
    9  A    between atoms: C_13  and  C_33
   10  A    between atoms: C_13  and  S_46
   11  A    between atoms: O_14  and  C_35
   12  A    between atoms: O_14  and  C_50
   13  A    between atoms: C_19  and  C_60
   14  A    between atoms: C_22  and  C_50
   15  A    between atoms: C_26  and  C_34
   16  A    between atoms: C_27  and  C_32
   17  A    between atoms: N_30  and  C_60
   18  A    between atoms: C_31  and  N_45
   19  A    between atoms: C_35  and  C_37
   20  A    between atoms: N_45  and  N_54
   21  A    between atoms: C_51  and  C_57
   22  A    between atoms: C_55  and  C_58
                            x       y       z     vdW  Elec       q    Type
                         _______ _______ _______ _____ _____    ______ ____

>  <TORSDO>
F 22

$$$$
=
 OpenBabel10232411583D

 61 68  0  0  1  0  0  0  0  0999 V2000
  188.9860  177.4640  142.7800 O   0  0  0  0  0  0  0  0  0  0  0  0
  187.5650  177.5270  139.4600 C   0  0  2  0  0  3  0  0  0  0  0  0
  186.1440  178.1360  139.7600 C   0  0  1  0  0  3  0  0  0  0  0  0
  188.7620  177.8070  140.3870 C   0  0  1  0  0  0  0  0  0  0  0  0
  188.3210  178.2950  141.8560 C   0  0  1  0  0  3  0  0  0  0  0  0
  189.8190  176.6800  140.5260 C   0  0  0  0  0  2  0  0  0  0  0  0
  183.1300  178.0360  143.2950 C   0  0  0  0  0  1  0  0  0  0  0  0
  184.3910  178.9180  143.0590 C   0  0  2  0  0  0  0  0  0  0  0  0
  190.1000  176.8000  142.0590 C   0  0  2  0  0  3  0  0  0  0  0  0
  184.5540  178.9180  141.4980 C   0  0  1  0  0  3  0  0  0  0  0  0
  186.0140  178.9830  141.0440 C   0  0  1  0  0  3  0  0  0  0  0  0
  185.3690  178.9070  138.6180 C   0  0  0  0  0  1  0  0  0  0  0  0
  186.8030  178.4590  142.2550 C   0  0  2  0  0  3  0  0  0  0  0  0
  185.8260  178.3340  143.5560 C   0  0  0  0  0  2  0  0  0  0  0  0
  188.2990  178.7840  139.1820 C   0  0  1  0  0  3  0  0  0  0  0  0
  188.6650  178.9370  136.3880 C   0  0  0  0  0  2  0  0  0  0  0  0
  189.6950  177.9880  137.1670 C   0  0  1  0  0  3  0  0  0  0  0  0
  188.3180  178.4170  137.8020 C   0  0  1  0  0  3  0  0  0  0  0  0
  189.7630  176.5120  136.9100 C   0  0  0  0  0  2  0  0  0  0  0  0
  192.1720  176.2790  138.4440 O   0  0  0  0  0  1  0  0  0  0  0  0
  191.5260  175.6460  136.0610 N   0  0  0  0  0  2  0  0  0  0  0  0
  192.1440  176.5120  137.1650 C   0  0  2  0  0  0  0  0  0  0  0  0
  190.8800  175.7090  137.2920 C   0  0  1  0  0  3  0  0  0  0  0  0
  193.4680  175.9120  136.9360 C   0  0  1  0  0  3  0  0  0  0  0  0
  194.5360  176.7140  136.5340 O   0  0  0  0  0  1  0  0  0  0  0  0
  194.0470  174.7040  137.7330 C   0  0  0  0  0  2  0  0  0  0  0  0
  196.1590  173.3330  138.1000 C   0  0  0  0  0  1  0  0  0  0  0  0
  195.3300  174.1710  137.1060 C   0  0  0  0  0  2  0  0  0  0  0  0
  184.0260  176.7360  140.0850 O   0  0  0  0  0  0  0  0  0  0  0  0
  183.6730  177.8270  140.6230 C   0  0  0  0  0  0  0  0  0  0  0  0
  182.6760  178.5260  140.0380 O   0  0  0  0  0  0  0  0  0  0  0  0
  180.1150  177.9580  140.2850 C   0  0  0  0  0  1  0  0  0  0  0  0
  181.4270  177.9130  139.5210 C   0  0  1  0  0  3  0  0  0  0  0  0
  181.2370  178.3160  138.1220 C   0  0  0  0  0  2  0  0  0  0  0  0
  181.3760  177.1300  137.3610 O   0  0  0  0  0  0  0  0  0  0  0  0
  182.0330  177.3590  136.1570 C   0  0  2  0  0  3  0  0  0  0  0  0
  181.4840  178.5180  135.2890 C   0  0  0  0  0  1  0  0  0  0  0  0
  182.2790  176.0620  135.4170 C   0  0  0  0  0  2  0  0  0  0  0  0
  184.3590  176.5850  136.2790 C   0  0  0  0  0  2  0  0  0  0  0  0
  184.0370  174.4630  135.0850 O   0  0  0  0  0  0  0  0  0  0  0  0
  185.1190  174.2850  135.8560 N   0  0  0  0  0  0  0  0  0  0  0  0
  183.7690  175.8910  135.0270 C   0  0  1  0  0  3  0  0  0  0  0  0
  185.0260  175.3370  136.9060 C   0  0  0  0  0  2  0  0  0  0  0  0
  186.3810  171.8160  135.4450 C   0  0  0  0  0  1  0  0  0  0  0  0
  185.2270  172.7990  137.7290 C   0  0  0  0  0  1  0  0  0  0  0  0
  185.2010  172.7410  136.1110 C   0  0  0  0  0  0  0  0  0  0  0  0
  183.7330  170.5810  136.2210 C   0  0  1  0  0  3  0  0  0  0  0  0
  183.7790  172.1010  135.8140 C   0  0  1  0  0  3  0  0  0  0  0  0
  182.9030  171.6260  136.9870 C   0  0  0  0  0  2  0  0  0  0  0  0
  183.2070  169.7750  134.9850 C   0  0  0  0  0  2  0  0  0  0  0  0
  181.9580  169.1540  135.0800 O   0  0  0  0  0  1  0  0  0  0  0  0
  184.2040  180.3260  143.6920 C   0  0  0  0  0  3  0  0  0  0  0  0
  184.8220  180.7070  144.8630 C   0  0  0  0  0  2  0  0  0  0  0  0
  190.6250  175.4460  142.7150 C   0  0  0  0  0  2  0  0  0  0  0  0
  191.5580  175.3080  144.3860 S   0  0  0  0  0  0  0  0  0  0  0  0
  190.8940  176.3820  145.3940 N   0  0  0  0  0  2  0  0  0  0  0  0
  192.7150  176.2020  148.6020 O   0  0  0  0  0  0  0  0  0  0  0  0
  192.3970  175.9910  147.4180 C   0  0  0  0  0  3  0  0  0  0  0  0
  191.1870  176.5010  146.8550 N   0  0  0  0  0  0  0  0  0  0  0  0
  190.1430  177.2280  147.7030 C   0  0  0  0  0  2  0  0  0  0  0  0
  188.9810  176.4900  148.1220 O   0  0  0  0  0  1  0  0  0  0  0  0
  2  3  1  0  0  0  0
  2  4  1  0  0  0  0
  3 11  1  0  0  0  0
  4  6  1  0  0  0  0
  4  5  1  0  0  0  0
  5 13  1  0  0  0  0
  5  1  1  0  0  0  0
  6  9  1  0  0  0  0
  8  7  1  0  0  0  0
  8 14  1  0  0  0  0
  8 52  1  0  0  0  0
  9 54  1  0  0  0  0
  9  1  1  0  0  0  0
 10  8  1  0  0  0  0
 11 10  1  0  0  0  0
 11 13  1  0  0  0  0
 12  3  1  0  0  0  0
 13 14  1  0  0  0  0
 15  2  1  0  0  0  0
 15  4  1  0  0  0  0
 16 17  1  0  0  0  0
 16 18  1  0  0  0  0
 17 18  1  0  0  0  0
 18 15  1  0  0  0  0
 19 17  1  0  0  0  0
 19 23  1  0  0  0  0
 21 22  1  0  0  0  0
 21 23  1  0  0  0  0
 22 23  1  0  0  0  0
 22 20  1  0  0  0  0
 24 22  1  0  0  0  0
 24 26  1  0  0  0  0
 25 24  1  0  0  0  0
 28 26  1  0  0  0  0
 28 27  1  0  0  0  0
 29 30  2  0  0  0  0
 30 10  1  0  0  0  0
 31 30  1  0  0  0  0
 33 31  1  0  0  0  0
 33 32  1  0  0  0  0
 34 33  1  0  0  0  0
 35 34  1  0  0  0  0
 36 35  1  0  0  0  0
 37 36  1  0  0  0  0
 38 36  1  0  0  0  0
 39 43  1  0  0  0  0
 40 41  1  0  0  0  0
 41 46  1  0  0  0  0
 41 43  1  0  0  0  0
 42 40  1  0  0  0  0
 42 38  1  0  0  0  0
 42 39  1  0  0  0  0
 44 46  1  0  0  0  0
 46 45  1  0  0  0  0
 47 49  1  0  0  0  0
 48 46  1  0  0  0  0
 48 47  1  0  0  0  0
 48 49  1  0  0  0  0
 50 51  1  0  0  0  0
 50 47  1  0  0  0  0
 52 53  2  0  0  0  0
 54 55  1  0  0  0  0
 55 56  1  0  0  0  0
 56 59  1  0  0  0  0
 58 57  2  0  0  0  0
 59 58  1  0  0  0  0
 59 60  1  0  0  0  0
 60 61  1  0  0  0  0
M  END
>  <MODEL>
6

>  <REMARK>
 VINA RESULT:      -4.2      2.948      7.086
  Name = 
  22 active torsions:
  status: ('A' for Active; 'I' for Inactive)
    1  A    between atoms: O_5  and  C_10
    2  A    between atoms: O_5  and  C_22
    3  A    between atoms: C_8  and  C_48
    4  A    between atoms: C_8  and  C_58
    5  A    between atoms: C_9  and  C_18
    6  A    between atoms: C_10  and  C_26
    7  A    between atoms: C_11  and  C_25
    8  A    between atoms: C_11  and  C_59
    9  A    between atoms: C_13  and  C_33
   10  A    between atoms: C_13  and  S_46
   11  A    between atoms: O_14  and  C_35
   12  A    between atoms: O_14  and  C_50
   13  A    between atoms: C_19  and  C_60
   14  A    between atoms: C_22  and  C_50
   15  A    between atoms: C_26  and  C_34
   16  A    between atoms: C_27  and  C_32
   17  A    between atoms: N_30  and  C_60
   18  A    between atoms: C_31  and  N_45
   19  A    between atoms: C_35  and  C_37
   20  A    between atoms: N_45  and  N_54
   21  A    between atoms: C_51  and  C_57
   22  A    between atoms: C_55  and  C_58
                            x       y       z     vdW  Elec       q    Type
                         _______ _______ _______ _____ _____    ______ ____

>  <TORSDO>
F 22

$$$$
=
 OpenBabel10232411583D

 61 68  0  0  1  0  0  0  0  0999 V2000
  188.6570  177.6740  142.6790 O   0  0  0  0  0  0  0  0  0  0  0  0
  187.2580  177.5600  139.3520 C   0  0  2  0  0  3  0  0  0  0  0  0
  185.7990  178.0840  139.6280 C   0  0  1  0  0  3  0  0  0  0  0  0
  188.4280  177.9390  140.2760 C   0  0  1  0  0  0  0  0  0  0  0  0
  187.9480  178.4370  141.7300 C   0  0  1  0  0  3  0  0  0  0  0  0
  189.5540  176.8860  140.4500 C   0  0  0  0  0  2  0  0  0  0  0  0
  182.7740  177.8850  143.1490 C   0  0  0  0  0  1  0  0  0  0  0  0
  183.9780  178.8390  142.8960 C   0  0  2  0  0  0  0  0  0  0  0  0
  189.8160  177.0640  141.9810 C   0  0  2  0  0  3  0  0  0  0  0  0
  184.1510  178.8090  141.3370 C   0  0  1  0  0  3  0  0  0  0  0  0
  185.6070  178.9540  140.8890 C   0  0  1  0  0  3  0  0  0  0  0  0
  184.9840  178.7750  138.4620 C   0  0  0  0  0  1  0  0  0  0  0  0
  186.4190  178.5140  142.1160 C   0  0  2  0  0  3  0  0  0  0  0  0
  185.4430  178.3610  143.4150 C   0  0  0  0  0  2  0  0  0  0  0  0
  187.9130  178.8530  139.0440 C   0  0  1  0  0  3  0  0  0  0  0  0
  188.1510  178.9850  136.2350 C   0  0  0  0  0  2  0  0  0  0  0  0
  189.3790  178.2970  137.0000 C   0  0  1  0  0  3  0  0  0  0  0  0
  187.9640  178.4520  137.6740 C   0  0  1  0  0  3  0  0  0  0  0  0
  189.7450  176.8590  136.7780 C   0  0  0  0  0  2  0  0  0  0  0  0
  191.9850  175.6940  135.4240 O   0  0  0  0  0  1  0  0  0  0  0  0
  190.8750  175.2820  137.6810 N   0  0  0  0  0  2  0  0  0  0  0  0
  191.1790  175.0300  136.2000 C   0  0  2  0  0  0  0  0  0  0  0  0
  191.0880  176.3810  136.8530 C   0  0  1  0  0  3  0  0  0  0  0  0
  192.1960  174.0260  136.5470 C   0  0  1  0  0  3  0  0  0  0  0  0
  192.1050  172.7340  136.0300 O   0  0  0  0  0  1  0  0  0  0  0  0
  193.7030  174.3360  136.8030 C   0  0  0  0  0  2  0  0  0  0  0  0
  195.3020  173.5210  138.6060 C   0  0  0  0  0  1  0  0  0  0  0  0
  194.4390  173.1360  137.3880 C   0  0  0  0  0  2  0  0  0  0  0  0
  183.7340  176.4980  140.1020 O   0  0  0  0  0  0  0  0  0  0  0  0
  183.3470  177.6420  140.4860 C   0  0  0  0  0  0  0  0  0  0  0  0
  182.4310  178.2850  139.7310 O   0  0  0  0  0  0  0  0  0  0  0  0
  180.0820  178.7580  140.8270 C   0  0  0  0  0  1  0  0  0  0  0  0
  180.9680  178.0470  139.8190 C   0  0  1  0  0  3  0  0  0  0  0  0
  180.3880  178.1060  138.4720 C   0  0  0  0  0  2  0  0  0  0  0  0
  181.4860  178.2450  137.5890 O   0  0  0  0  0  0  0  0  0  0  0  0
  181.4730  177.2790  136.5880 C   0  0  2  0  0  3  0  0  0  0  0  0
  181.1230  177.7760  135.1640 C   0  0  0  0  0  1  0  0  0  0  0  0
  180.7280  176.0410  137.0370 C   0  0  0  0  0  2  0  0  0  0  0  0
  181.1140  173.9400  136.1530 C   0  0  0  0  0  2  0  0  0  0  0  0
  183.0100  175.3080  136.9060 O   0  0  0  0  0  0  0  0  0  0  0  0
  183.5220  174.4240  136.0390 N   0  0  0  0  0  0  0  0  0  0  0  0
  181.6820  174.8430  137.2760 C   0  0  1  0  0  3  0  0  0  0  0  0
  182.3610  173.9470  135.2370 C   0  0  0  0  0  2  0  0  0  0  0  0
  184.7390  176.3210  134.3720 C   0  0  0  0  0  1  0  0  0  0  0  0
  185.4790  175.5120  136.8850 C   0  0  0  0  0  1  0  0  0  0  0  0
  184.8150  175.1010  135.4670 C   0  0  0  0  0  0  0  0  0  0  0  0
  186.3810  173.1180  136.1370 C   0  0  1  0  0  3  0  0  0  0  0  0
  185.7950  173.9660  134.9460 C   0  0  1  0  0  3  0  0  0  0  0  0
  185.4040  172.4890  135.1280 C   0  0  0  0  0  2  0  0  0  0  0  0
  187.9390  173.0990  135.9810 C   0  0  0  0  0  2  0  0  0  0  0  0
  188.7140  172.7700  137.0980 O   0  0  0  0  0  1  0  0  0  0  0  0
  183.6970  180.2480  143.4910 C   0  0  0  0  0  3  0  0  0  0  0  0
  184.2470  180.6820  144.6770 C   0  0  0  0  0  2  0  0  0  0  0  0
  190.4220  175.7640  142.6760 C   0  0  0  0  0  2  0  0  0  0  0  0
  191.5680  175.7570  144.2160 S   0  0  0  0  0  0  0  0  0  0  0  0
  190.7350  176.4130  145.4340 N   0  0  0  0  0  2  0  0  0  0  0  0
  192.8160  175.9530  148.4500 O   0  0  0  0  0  0  0  0  0  0  0  0
  192.3730  175.8150  147.2950 C   0  0  0  0  0  3  0  0  0  0  0  0
  191.1690  176.4520  146.8640 N   0  0  0  0  0  0  0  0  0  0  0  0
  190.2790  177.2380  147.8260 C   0  0  0  0  0  2  0  0  0  0  0  0
  189.1950  178.0050  147.2710 O   0  0  0  0  0  1  0  0  0  0  0  0
  2  3  1  0  0  0  0
  2  4  1  0  0  0  0
  3 11  1  0  0  0  0
  4  6  1  0  0  0  0
  4  5  1  0  0  0  0
  5 13  1  0  0  0  0
  5  1  1  0  0  0  0
  6  9  1  0  0  0  0
  8  7  1  0  0  0  0
  8 14  1  0  0  0  0
  8 52  1  0  0  0  0
  9 54  1  0  0  0  0
  9  1  1  0  0  0  0
 10  8  1  0  0  0  0
 11 10  1  0  0  0  0
 11 13  1  0  0  0  0
 12  3  1  0  0  0  0
 13 14  1  0  0  0  0
 15  2  1  0  0  0  0
 15  4  1  0  0  0  0
 16 17  1  0  0  0  0
 16 18  1  0  0  0  0
 17 18  1  0  0  0  0
 18 15  1  0  0  0  0
 19 23  1  0  0  0  0
 19 17  1  0  0  0  0
 20 22  1  0  0  0  0
 22 24  1  0  0  0  0
 22 23  1  0  0  0  0
 22 21  1  0  0  0  0
 23 21  1  0  0  0  0
 24 26  1  0  0  0  0
 25 24  1  0  0  0  0
 26 28  1  0  0  0  0
 28 27  1  0  0  0  0
 29 30  2  0  0  0  0
 30 10  1  0  0  0  0
 31 33  1  0  0  0  0
 31 30  1  0  0  0  0
 33 32  1  0  0  0  0
 34 33  1  0  0  0  0
 35 34  1  0  0  0  0
 36 38  1  0  0  0  0
 36 35  1  0  0  0  0
 37 36  1  0  0  0  0
 38 42  1  0  0  0  0
 39 42  1  0  0  0  0
 40 42  1  0  0  0  0
 41 40  1  0  0  0  0
 43 41  1  0  0  0  0
 43 39  1  0  0  0  0
 44 46  1  0  0  0  0
 46 41  1  0  0  0  0
 46 45  1  0  0  0  0
 48 49  1  0  0  0  0
 48 46  1  0  0  0  0
 48 47  1  0  0  0  0
 49 47  1  0  0  0  0
 50 47  1  0  0  0  0
 50 51  1  0  0  0  0
 52 53  2  0  0  0  0
 54 55  1  0  0  0  0
 55 56  1  0  0  0  0
 56 59  1  0  0  0  0
 58 57  2  0  0  0  0
 59 58  1  0  0  0  0
 59 60  1  0  0  0  0
 61 60  1  0  0  0  0
M  END
>  <MODEL>
7

>  <REMARK>
 VINA RESULT:      -4.0      2.995      6.838
  Name = 
  22 active torsions:
  status: ('A' for Active; 'I' for Inactive)
    1  A    between atoms: O_5  and  C_10
    2  A    between atoms: O_5  and  C_22
    3  A    between atoms: C_8  and  C_48
    4  A    between atoms: C_8  and  C_58
    5  A    between atoms: C_9  and  C_18
    6  A    between atoms: C_10  and  C_26
    7  A    between atoms: C_11  and  C_25
    8  A    between atoms: C_11  and  C_59
    9  A    between atoms: C_13  and  C_33
   10  A    between atoms: C_13  and  S_46
   11  A    between atoms: O_14  and  C_35
   12  A    between atoms: O_14  and  C_50
   13  A    between atoms: C_19  and  C_60
   14  A    between atoms: C_22  and  C_50
   15  A    between atoms: C_26  and  C_34
   16  A    between atoms: C_27  and  C_32
   17  A    between atoms: N_30  and  C_60
   18  A    between atoms: C_31  and  N_45
   19  A    between atoms: C_35  and  C_37
   20  A    between atoms: N_45  and  N_54
   21  A    between atoms: C_51  and  C_57
   22  A    between atoms: C_55  and  C_58
                            x       y       z     vdW  Elec       q    Type
                         _______ _______ _______ _____ _____    ______ ____

>  <TORSDO>
F 22

$$$$
