=
 OpenBabel10232411063D

 39 43  0  0  1  0  0  0  0  0999 V2000
  187.9630  178.2550  140.2840 C   0  0  0  0  0  3  0  0  0  0  0  0
  185.6760  178.5090  143.9880 O   0  0  0  0  0  0  0  0  0  0  0  0
  186.8850  178.1530  143.9980 C   0  0  0  0  0  0  0  0  0  0  0  0
  188.9000  177.4320  145.3170 C   0  0  0  0  0  0  0  0  0  0  0  0
  189.7640  177.5800  141.6790 C   0  0  0  0  0  0  0  0  0  0  0  0
  191.7570  176.9170  142.8060 C   0  0  0  0  0  3  0  0  0  0  0  0
  187.6710  178.0630  142.7360 C   0  0  0  0  0  0  0  0  0  0  0  0
  188.7720  177.1990  147.7320 C   0  0  0  0  0  3  0  0  0  0  0  0
  187.4290  177.5840  147.7030 C   0  0  0  0  0  3  0  0  0  0  0  0
  189.5030  177.1240  146.5460 C   0  0  0  0  0  3  0  0  0  0  0  0
  187.5400  177.8220  145.2880 C   0  0  0  0  0  0  0  0  0  0  0  0
  187.1440  178.3660  141.4340 C   0  0  0  0  0  0  0  0  0  0  0  0
  189.2890  177.8460  140.4410 C   0  0  0  0  0  0  0  0  0  0  0  0
  191.0420  176.9800  144.0260 C   0  0  0  0  0  3  0  0  0  0  0  0
  189.6680  177.3550  144.0540 C   0  0  0  0  0  0  0  0  0  0  0  0
  186.8170  177.8940  146.4870 C   0  0  0  0  0  3  0  0  0  0  0  0
  191.5100  177.2590  140.3180 O   0  0  0  0  0  0  0  0  0  0  0  0
  191.0650  177.2320  141.6350 C   0  0  0  0  0  0  0  0  0  0  0  0
  190.4180  177.6490  139.4540 C   0  0  1  0  0  3  0  0  0  0  0  0
  189.0220  177.6670  142.8380 C   0  0  0  0  0  0  0  0  0  0  0  0
  190.1010  176.5220  138.4650 C   0  0  1  0  0  3  0  0  0  0  0  0
  189.5510  177.0740  137.1590 C   0  0  0  0  0  1  0  0  0  0  0  0
  191.3270  175.6520  138.1900 C   0  0  0  0  0  2  0  0  0  0  0  0
  192.0350  176.1100  137.0040 N   0  0  0  0  0  2  0  0  0  0  0  0
  193.2940  176.4210  137.3930 O   0  0  0  0  0  0  0  0  0  0  0  0
  194.6020  173.9260  137.9850 C   0  0  0  0  0  1  0  0  0  0  0  0
  193.5830  174.5740  135.5450 O   0  0  0  0  0  0  0  0  0  0  0  0
  195.7400  175.8760  136.2360 O   0  0  0  0  0  1  0  0  0  0  0  0
  194.2720  175.2010  136.7360 P   0  0  1  0  0  0  0  0  0  0  0  0
  185.7230  178.7750  141.2260 C   0  0  0  0  0  2  0  0  0  0  0  0
  185.4580  178.9260  139.8030 N   0  0  0  0  0  2  0  0  0  0  0  0
  184.4230  179.8610  139.6700 N   0  0  0  0  0  2  0  0  0  0  0  0
  183.2550  179.5500  138.9110 C   0  0  0  0  0  3  0  0  0  0  0  0
  182.1640  179.0440  139.4830 C   0  0  0  0  0  3  0  0  0  0  0  0
  182.0740  178.7500  140.9450 C   0  0  0  0  0  2  0  0  0  0  0  0
  180.6300  178.8130  141.4100 C   0  0  0  0  0  2  0  0  0  0  0  0
  180.5590  179.4550  142.7490 C   0  0  0  0  0  0  0  0  0  0  0  0
  180.1470  180.6380  142.8590 O   0  0  0  0  0  0  0  0  0  0  0  0
  180.9750  178.7590  143.8760 O   0  0  0  0  0  1  0  0  0  0  0  0
  1 13  2  0  0  0  0
  1 12  1  0  0  0  0
  2  3  2  0  0  0  0
  3 11  1  0  0  0  0
  4 10  1  0  0  0  0
  5 20  1  0  0  0  0
  6 14  2  0  0  0  0
  7 20  1  0  0  0  0
  7  3  1  0  0  0  0
  9  8  1  0  0  0  0
 10  8  2  0  0  0  0
 11  4  2  0  0  0  0
 11 16  1  0  0  0  0
 12  7  2  0  0  0  0
 13  5  1  0  0  0  0
 14 15  1  0  0  0  0
 15  4  1  0  0  0  0
 16  9  2  0  0  0  0
 17 18  1  0  0  0  0
 18  5  2  0  0  0  0
 18  6  1  0  0  0  0
 19 21  1  6  0  0  0
 19 17  1  0  0  0  0
 19 13  1  0  0  0  0
 20 15  2  0  0  0  0
 21 22  1  6  0  0  0
 23 21  1  0  0  0  0
 24 25  1  0  0  0  0
 24 23  1  0  0  0  0
 27 29  2  0  0  0  0
 28 29  1  0  0  0  0
 29 25  1  0  0  0  0
 29 26  1  1  0  0  0
 30 12  1  0  0  0  0
 31 30  1  0  0  0  0
 32 31  1  0  0  0  0
 33 34  2  0  0  0  0
 33 32  1  0  0  0  0
 34 35  1  0  0  0  0
 35 36  1  0  0  0  0
 36 37  1  0  0  0  0
 37 38  2  0  0  0  0
 37 39  1  0  0  0  0
M  END
>  <MODEL>
1

>  <REMARK>
 VINA RESULT:      -9.2      0.000      0.000
  Name = 
  12 active torsions:
  status: ('A' for Active; 'I' for Inactive)
    1  A    between atoms: C_1  and  N_32
    2  A    between atoms: N_2  and  C_28
    3  A    between atoms: N_2  and  O_35
    4  A    between atoms: C_4  and  C_25
    5  A    between atoms: C_4  and  N_30
    6  A    between atoms: C_8  and  C_34
    7  A    between atoms: C_17  and  C_28
    8  A    between atoms: C_17  and  C_38
    9  A    between atoms: P_20  and  O_35
   10  A    between atoms: C_22  and  C_31
   11  A    between atoms: C_22  and  C_34
   12  A    between atoms: N_30  and  N_32
                            x       y       z     vdW  Elec       q    Type
                         _______ _______ _______ _____ _____    ______ ____

>  <TORSDO>
F 12

$$$$
=
 OpenBabel10232411063D

 39 43  0  0  1  0  0  0  0  0999 V2000
  187.6360  178.2750  140.5830 C   0  0  0  0  0  3  0  0  0  0  0  0
  185.6890  178.4060  144.4820 O   0  0  0  0  0  0  0  0  0  0  0  0
  186.9070  178.0970  144.3780 C   0  0  0  0  0  0  0  0  0  0  0  0
  189.0600  177.4430  145.4990 C   0  0  0  0  0  0  0  0  0  0  0  0
  189.5820  177.6580  141.8000 C   0  0  0  0  0  0  0  0  0  0  0  0
  191.6930  177.0620  142.7310 C   0  0  0  0  0  3  0  0  0  0  0  0
  187.5770  178.0500  143.0490 C   0  0  0  0  0  0  0  0  0  0  0  0
  189.1620  177.1830  147.9130 C   0  0  0  0  0  3  0  0  0  0  0  0
  187.8090  177.5160  148.0100 C   0  0  0  0  0  3  0  0  0  0  0  0
  189.7840  177.1470  146.6630 C   0  0  0  0  0  3  0  0  0  0  0  0
  187.6890  177.7790  145.5990 C   0  0  0  0  0  0  0  0  0  0  0  0
  186.9220  178.3440  141.8040 C   0  0  0  0  0  0  0  0  0  0  0  0
  188.9860  177.9170  140.6130 C   0  0  0  0  0  0  0  0  0  0  0  0
  191.0910  177.0870  144.0130 C   0  0  0  0  0  3  0  0  0  0  0  0
  189.7120  177.4080  144.1700 C   0  0  0  0  0  0  0  0  0  0  0  0
  187.0770  177.8130  146.8590 C   0  0  0  0  0  3  0  0  0  0  0  0
  191.2070  177.4170  140.2810 O   0  0  0  0  0  0  0  0  0  0  0  0
  190.8850  177.3610  141.6320 C   0  0  0  0  0  0  0  0  0  0  0  0
  190.0260  177.7720  139.5250 C   0  0  1  0  0  3  0  0  0  0  0  0
  188.9450  177.7050  143.0220 C   0  0  0  0  0  0  0  0  0  0  0  0
  189.6640  176.6430  138.5550 C   0  0  1  0  0  3  0  0  0  0  0  0
  189.0650  177.1940  137.2690 C   0  0  0  0  0  1  0  0  0  0  0  0
  190.8720  175.7650  138.2350 C   0  0  0  0  0  2  0  0  0  0  0  0
  191.5820  176.2600  137.0650 N   0  0  0  0  0  2  0  0  0  0  0  0
  192.8250  176.6030  137.4760 O   0  0  0  0  0  0  0  0  0  0  0  0
  193.0560  174.6590  135.3660 C   0  0  0  0  0  1  0  0  0  0  0  0
  195.1540  176.0650  136.3820 O   0  0  0  0  0  0  0  0  0  0  0  0
  194.1620  174.2380  137.9650 O   0  0  0  0  0  1  0  0  0  0  0  0
  193.8490  175.4290  136.8050 P   0  0  1  0  0  0  0  0  0  0  0  0
  185.4740  178.6980  141.7310 C   0  0  0  0  0  2  0  0  0  0  0  0
  185.2050  179.4180  140.4960 N   0  0  0  0  0  2  0  0  0  0  0  0
  183.8890  179.1210  140.1180 N   0  0  0  0  0  2  0  0  0  0  0  0
  183.2960  177.8710  140.4700 C   0  0  0  0  0  3  0  0  0  0  0  0
  182.9520  176.9770  139.5450 C   0  0  0  0  0  3  0  0  0  0  0  0
  183.1430  177.2050  138.0810 C   0  0  0  0  0  2  0  0  0  0  0  0
  184.1690  176.2350  137.5230 C   0  0  0  0  0  2  0  0  0  0  0  0
  185.2900  176.9880  136.9010 C   0  0  0  0  0  0  0  0  0  0  0  0
  185.7230  178.0360  137.4450 O   0  0  0  0  0  1  0  0  0  0  0  0
  185.8390  176.5540  135.7020 O   0  0  0  0  0  0  0  0  0  0  0  0
  1 13  2  0  0  0  0
  1 12  1  0  0  0  0
  3  2  2  0  0  0  0
  3 11  1  0  0  0  0
  4 11  2  0  0  0  0
  4 10  1  0  0  0  0
  5 20  1  0  0  0  0
  6 14  2  0  0  0  0
  7  3  1  0  0  0  0
  8  9  1  0  0  0  0
 10  8  2  0  0  0  0
 11 16  1  0  0  0  0
 12  7  2  0  0  0  0
 13  5  1  0  0  0  0
 14 15  1  0  0  0  0
 15  4  1  0  0  0  0
 16  9  2  0  0  0  0
 17 18  1  0  0  0  0
 18  5  2  0  0  0  0
 18  6  1  0  0  0  0
 19 21  1  6  0  0  0
 19 17  1  0  0  0  0
 19 13  1  0  0  0  0
 20  7  1  0  0  0  0
 20 15  2  0  0  0  0
 21 22  1  6  0  0  0
 23 21  1  0  0  0  0
 24 25  1  0  0  0  0
 24 23  1  0  0  0  0
 27 29  2  0  0  0  0
 29 26  1  6  0  0  0
 29 25  1  0  0  0  0
 29 28  1  0  0  0  0
 30 12  1  0  0  0  0
 31 30  1  0  0  0  0
 32 33  1  0  0  0  0
 32 31  1  0  0  0  0
 34 33  2  0  0  0  0
 35 34  1  0  0  0  0
 36 35  1  0  0  0  0
 37 38  1  0  0  0  0
 37 36  1  0  0  0  0
 39 37  2  0  0  0  0
M  END
>  <MODEL>
2

>  <REMARK>
 VINA RESULT:      -9.0      2.028      2.822
  Name = 
  12 active torsions:
  status: ('A' for Active; 'I' for Inactive)
    1  A    between atoms: C_1  and  N_32
    2  A    between atoms: N_2  and  C_28
    3  A    between atoms: N_2  and  O_35
    4  A    between atoms: C_4  and  C_25
    5  A    between atoms: C_4  and  N_30
    6  A    between atoms: C_8  and  C_34
    7  A    between atoms: C_17  and  C_28
    8  A    between atoms: C_17  and  C_38
    9  A    between atoms: P_20  and  O_35
   10  A    between atoms: C_22  and  C_31
   11  A    between atoms: C_22  and  C_34
   12  A    between atoms: N_30  and  N_32
                            x       y       z     vdW  Elec       q    Type
                         _______ _______ _______ _____ _____    ______ ____

>  <TORSDO>
F 12

$$$$
=
 OpenBabel10232411063D

 39 43  0  0  1  0  0  0  0  0999 V2000
  187.6850  178.2200  140.5410 C   0  0  0  0  0  3  0  0  0  0  0  0
  185.6620  178.3760  144.4010 O   0  0  0  0  0  0  0  0  0  0  0  0
  186.8870  178.0880  144.3250 C   0  0  0  0  0  0  0  0  0  0  0  0
  189.0300  177.4910  145.4960 C   0  0  0  0  0  0  0  0  0  0  0  0
  189.6180  177.6580  141.8040 C   0  0  0  0  0  0  0  0  0  0  0  0
  191.7210  177.1160  142.7850 C   0  0  0  0  0  3  0  0  0  0  0  0
  187.5830  178.0320  143.0090 C   0  0  0  0  0  0  0  0  0  0  0  0
  189.0900  177.2710  147.9150 C   0  0  0  0  0  3  0  0  0  0  0  0
  187.7300  177.5800  147.9820 C   0  0  0  0  0  3  0  0  0  0  0  0
  189.7370  177.2270  146.6790 C   0  0  0  0  0  3  0  0  0  0  0  0
  187.6520  177.8040  145.5650 C   0  0  0  0  0  0  0  0  0  0  0  0
  186.9460  178.2950  141.7480 C   0  0  0  0  0  0  0  0  0  0  0  0
  189.0400  177.8870  140.6030 C   0  0  0  0  0  0  0  0  0  0  0  0
  191.0940  177.1490  144.0540 C   0  0  0  0  0  3  0  0  0  0  0  0
  189.7070  177.4470  144.1800 C   0  0  0  0  0  0  0  0  0  0  0  0
  187.0140  177.8450  146.8130 C   0  0  0  0  0  3  0  0  0  0  0  0
  191.2750  177.4230  140.3210 O   0  0  0  0  0  0  0  0  0  0  0  0
  190.9290  177.3830  141.6660 C   0  0  0  0  0  0  0  0  0  0  0  0
  190.1030  177.7450  139.5370 C   0  0  1  0  0  3  0  0  0  0  0  0
  188.9580  177.7120  143.0140 C   0  0  0  0  0  0  0  0  0  0  0  0
  189.7800  176.5950  138.5780 C   0  0  1  0  0  3  0  0  0  0  0  0
  189.0900  177.1030  137.3210 C   0  0  0  0  0  1  0  0  0  0  0  0
  191.0320  175.8030  138.2040 C   0  0  0  0  0  2  0  0  0  0  0  0
  190.6980  174.4260  137.8720 N   0  0  0  0  0  2  0  0  0  0  0  0
  191.0760  174.2290  136.5870 O   0  0  0  0  0  0  0  0  0  0  0  0
  188.9310  174.4880  134.6850 C   0  0  0  0  0  1  0  0  0  0  0  0
  190.2850  172.1730  135.1530 O   0  0  0  0  0  0  0  0  0  0  0  0
  188.6850  172.9380  137.0710 O   0  0  0  0  0  1  0  0  0  0  0  0
  189.7790  173.4050  135.8680 P   0  0  1  0  0  0  0  0  0  0  0  0
  185.4940  178.6220  141.6420 C   0  0  0  0  0  2  0  0  0  0  0  0
  185.2590  179.4420  140.4640 N   0  0  0  0  0  2  0  0  0  0  0  0
  183.9580  179.1710  140.0210 N   0  0  0  0  0  2  0  0  0  0  0  0
  183.4530  177.8350  140.0170 C   0  0  0  0  0  3  0  0  0  0  0  0
  182.1680  177.5730  140.2440 C   0  0  0  0  0  3  0  0  0  0  0  0
  181.1590  178.6380  140.5300 C   0  0  0  0  0  2  0  0  0  0  0  0
  180.4410  178.3500  141.8360 C   0  0  0  0  0  2  0  0  0  0  0  0
  180.8540  179.3380  142.8680 C   0  0  0  0  0  0  0  0  0  0  0  0
  180.3090  180.4710  142.9080 O   0  0  0  0  0  0  0  0  0  0  0  0
  181.8640  179.0230  143.7670 O   0  0  0  0  0  1  0  0  0  0  0  0
  1 13  2  0  0  0  0
  1 12  1  0  0  0  0
  3  2  2  0  0  0  0
  3 11  1  0  0  0  0
  4 11  2  0  0  0  0
  4 10  1  0  0  0  0
  5 20  1  0  0  0  0
  6 14  2  0  0  0  0
  7 20  1  0  0  0  0
  7  3  1  0  0  0  0
  8  9  1  0  0  0  0
 10  8  2  0  0  0  0
 11 16  1  0  0  0  0
 12  7  2  0  0  0  0
 13  5  1  0  0  0  0
 14 15  1  0  0  0  0
 15  4  1  0  0  0  0
 16  9  2  0  0  0  0
 17 18  1  0  0  0  0
 18  5  2  0  0  0  0
 18  6  1  0  0  0  0
 19 21  1  6  0  0  0
 19 17  1  0  0  0  0
 19 13  1  0  0  0  0
 20 15  2  0  0  0  0
 21 22  1  6  0  0  0
 23 21  1  0  0  0  0
 24 23  1  0  0  0  0
 25 24  1  0  0  0  0
 27 29  2  0  0  0  0
 29 26  1  6  0  0  0
 29 25  1  0  0  0  0
 29 28  1  0  0  0  0
 30 12  1  0  0  0  0
 31 30  1  0  0  0  0
 32 31  1  0  0  0  0
 33 32  1  0  0  0  0
 33 34  2  0  0  0  0
 34 35  1  0  0  0  0
 35 36  1  0  0  0  0
 36 37  1  0  0  0  0
 37 38  2  0  0  0  0
 37 39  1  0  0  0  0
M  END
>  <MODEL>
3

>  <REMARK>
 VINA RESULT:      -8.9      1.664      2.105
  Name = 
  12 active torsions:
  status: ('A' for Active; 'I' for Inactive)
    1  A    between atoms: C_1  and  N_32
    2  A    between atoms: N_2  and  C_28
    3  A    between atoms: N_2  and  O_35
    4  A    between atoms: C_4  and  C_25
    5  A    between atoms: C_4  and  N_30
    6  A    between atoms: C_8  and  C_34
    7  A    between atoms: C_17  and  C_28
    8  A    between atoms: C_17  and  C_38
    9  A    between atoms: P_20  and  O_35
   10  A    between atoms: C_22  and  C_31
   11  A    between atoms: C_22  and  C_34
   12  A    between atoms: N_30  and  N_32
                            x       y       z     vdW  Elec       q    Type
                         _______ _______ _______ _____ _____    ______ ____

>  <TORSDO>
F 12

$$$$
=
 OpenBabel10232411063D

 39 43  0  0  1  0  0  0  0  0999 V2000
  187.6370  178.2710  140.5950 C   0  0  0  0  0  3  0  0  0  0  0  0
  185.6510  178.4460  144.4730 O   0  0  0  0  0  0  0  0  0  0  0  0
  186.8700  178.1350  144.3840 C   0  0  0  0  0  0  0  0  0  0  0  0
  189.0120  177.4950  145.5340 C   0  0  0  0  0  0  0  0  0  0  0  0
  189.5700  177.6690  141.8380 C   0  0  0  0  0  0  0  0  0  0  0  0
  191.6720  177.0830  142.7970 C   0  0  0  0  0  3  0  0  0  0  0  0
  187.5530  178.0740  143.0620 C   0  0  0  0  0  0  0  0  0  0  0  0
  189.0900  177.2610  147.9510 C   0  0  0  0  0  3  0  0  0  0  0  0
  187.7360  177.5950  148.0320 C   0  0  0  0  0  3  0  0  0  0  0  0
  189.7250  177.2110  146.7090 C   0  0  0  0  0  3  0  0  0  0  0  0
  187.6400  177.8320  145.6160 C   0  0  0  0  0  0  0  0  0  0  0  0
  186.9100  178.3540  141.8080 C   0  0  0  0  0  0  0  0  0  0  0  0
  188.9860  177.9140  140.6430 C   0  0  0  0  0  0  0  0  0  0  0  0
  191.0570  177.1220  144.0720 C   0  0  0  0  0  3  0  0  0  0  0  0
  189.6770  177.4440  144.2120 C   0  0  0  0  0  0  0  0  0  0  0  0
  187.0150  177.8790  146.8700 C   0  0  0  0  0  3  0  0  0  0  0  0
  191.2100  177.4110  140.3380 O   0  0  0  0  0  0  0  0  0  0  0  0
  190.8750  177.3700  141.6870 C   0  0  0  0  0  0  0  0  0  0  0  0
  190.0370  177.7570  139.5670 C   0  0  1  0  0  3  0  0  0  0  0  0
  188.9220  177.7290  143.0530 C   0  0  0  0  0  0  0  0  0  0  0  0
  189.6840  176.6180  138.6060 C   0  0  1  0  0  3  0  0  0  0  0  0
  188.9970  177.1450  137.3550 C   0  0  0  0  0  1  0  0  0  0  0  0
  190.9170  175.8020  138.2200 C   0  0  0  0  0  2  0  0  0  0  0  0
  191.6460  176.4420  137.1350 N   0  0  0  0  0  2  0  0  0  0  0  0
  192.9090  176.6500  137.5780 O   0  0  0  0  0  0  0  0  0  0  0  0
  194.9200  174.6380  137.1380 C   0  0  0  0  0  1  0  0  0  0  0  0
  193.0670  175.3760  135.2840 O   0  0  0  0  0  0  0  0  0  0  0  0
  194.9310  177.1420  135.7650 O   0  0  0  0  0  1  0  0  0  0  0  0
  193.9090  175.9520  136.3990 P   0  0  1  0  0  0  0  0  0  0  0  0
  185.4630  178.7080  141.7170 C   0  0  0  0  0  2  0  0  0  0  0  0
  185.2240  179.4950  140.5170 N   0  0  0  0  0  2  0  0  0  0  0  0
  184.0650  178.9900  139.9130 N   0  0  0  0  0  2  0  0  0  0  0  0
  183.2890  177.9800  140.5570 C   0  0  0  0  0  3  0  0  0  0  0  0
  182.8800  176.8930  139.9060 C   0  0  0  0  0  3  0  0  0  0  0  0
  183.1830  176.6440  138.4650 C   0  0  0  0  0  2  0  0  0  0  0  0
  183.1440  175.1570  138.1630 C   0  0  0  0  0  2  0  0  0  0  0  0
  184.3500  174.7670  137.3850 C   0  0  0  0  0  0  0  0  0  0  0  0
  185.2590  175.6100  137.1700 O   0  0  0  0  0  1  0  0  0  0  0  0
  184.4610  173.4830  136.8710 O   0  0  0  0  0  0  0  0  0  0  0  0
  1 13  2  0  0  0  0
  1 12  1  0  0  0  0
  3  2  2  0  0  0  0
  3 11  1  0  0  0  0
  4 11  2  0  0  0  0
  4 10  1  0  0  0  0
  5 20  1  0  0  0  0
  6 14  2  0  0  0  0
  7  3  1  0  0  0  0
  8  9  1  0  0  0  0
 10  8  2  0  0  0  0
 11 16  1  0  0  0  0
 12  7  2  0  0  0  0
 13  5  1  0  0  0  0
 14 15  1  0  0  0  0
 15  4  1  0  0  0  0
 16  9  2  0  0  0  0
 17 18  1  0  0  0  0
 18  5  2  0  0  0  0
 18  6  1  0  0  0  0
 19 21  1  6  0  0  0
 19 17  1  0  0  0  0
 19 13  1  0  0  0  0
 20  7  1  0  0  0  0
 20 15  2  0  0  0  0
 21 22  1  6  0  0  0
 23 21  1  0  0  0  0
 24 25  1  0  0  0  0
 24 23  1  0  0  0  0
 27 29  2  0  0  0  0
 28 29  1  0  0  0  0
 29 26  1  1  0  0  0
 29 25  1  0  0  0  0
 30 12  1  0  0  0  0
 31 30  1  0  0  0  0
 32 31  1  0  0  0  0
 32 33  1  0  0  0  0
 34 33  2  0  0  0  0
 35 34  1  0  0  0  0
 36 35  1  0  0  0  0
 37 36  1  0  0  0  0
 38 37  1  0  0  0  0
 39 37  2  0  0  0  0
M  END
>  <MODEL>
4

>  <REMARK>
 VINA RESULT:      -8.8      2.255      2.782
  Name = 
  12 active torsions:
  status: ('A' for Active; 'I' for Inactive)
    1  A    between atoms: C_1  and  N_32
    2  A    between atoms: N_2  and  C_28
    3  A    between atoms: N_2  and  O_35
    4  A    between atoms: C_4  and  C_25
    5  A    between atoms: C_4  and  N_30
    6  A    between atoms: C_8  and  C_34
    7  A    between atoms: C_17  and  C_28
    8  A    between atoms: C_17  and  C_38
    9  A    between atoms: P_20  and  O_35
   10  A    between atoms: C_22  and  C_31
   11  A    between atoms: C_22  and  C_34
   12  A    between atoms: N_30  and  N_32
                            x       y       z     vdW  Elec       q    Type
                         _______ _______ _______ _____ _____    ______ ____

>  <TORSDO>
F 12

$$$$
=
 OpenBabel10232411063D

 39 43  0  0  1  0  0  0  0  0999 V2000
  187.5850  178.3060  140.5920 C   0  0  0  0  0  3  0  0  0  0  0  0
  185.6460  178.4450  144.4960 O   0  0  0  0  0  0  0  0  0  0  0  0
  186.8620  178.1290  144.3890 C   0  0  0  0  0  0  0  0  0  0  0  0
  189.0140  177.4630  145.5050 C   0  0  0  0  0  0  0  0  0  0  0  0
  189.5290  177.6780  141.8040 C   0  0  0  0  0  0  0  0  0  0  0  0
  191.6390  177.0690  142.7310 C   0  0  0  0  0  3  0  0  0  0  0  0
  187.5290  178.0790  143.0580 C   0  0  0  0  0  0  0  0  0  0  0  0
  189.1190  177.2000  147.9180 C   0  0  0  0  0  3  0  0  0  0  0  0
  187.7680  177.5400  148.0190 C   0  0  0  0  0  3  0  0  0  0  0  0
  189.7390  177.1610  146.6670 C   0  0  0  0  0  3  0  0  0  0  0  0
  187.6450  177.8060  145.6070 C   0  0  0  0  0  0  0  0  0  0  0  0
  186.8730  178.3780  141.8150 C   0  0  0  0  0  0  0  0  0  0  0  0
  188.9320  177.9410  140.6200 C   0  0  0  0  0  0  0  0  0  0  0  0
  191.0390  177.0960  144.0140 C   0  0  0  0  0  3  0  0  0  0  0  0
  189.6630  177.4250  144.1740 C   0  0  0  0  0  0  0  0  0  0  0  0
  187.0350  177.8420  146.8690 C   0  0  0  0  0  3  0  0  0  0  0  0
  191.1490  177.4290  140.2820 O   0  0  0  0  0  0  0  0  0  0  0  0
  190.8300  177.3740  141.6340 C   0  0  0  0  0  0  0  0  0  0  0  0
  189.9690  177.7920  139.5290 C   0  0  1  0  0  3  0  0  0  0  0  0
  188.8950  177.7270  143.0280 C   0  0  0  0  0  0  0  0  0  0  0  0
  189.5980  176.6650  138.5590 C   0  0  1  0  0  3  0  0  0  0  0  0
  188.9850  177.2190  137.2810 C   0  0  0  0  0  1  0  0  0  0  0  0
  190.8050  175.7900  138.2230 C   0  0  0  0  0  2  0  0  0  0  0  0
  190.5600  175.0050  137.0220 N   0  0  0  0  0  2  0  0  0  0  0  0
  190.2230  173.7590  137.4290 O   0  0  0  0  0  0  0  0  0  0  0  0
  187.7560  172.3210  137.0620 C   0  0  0  0  0  1  0  0  0  0  0  0
  188.5910  174.3560  135.4570 O   0  0  0  0  0  1  0  0  0  0  0  0
  189.9320  172.1260  135.2230 O   0  0  0  0  0  0  0  0  0  0  0  0
  189.1300  173.1950  136.2610 P   0  0  1  0  0  0  0  0  0  0  0  0
  185.4270  178.7410  141.7450 C   0  0  0  0  0  2  0  0  0  0  0  0
  185.1580  179.4540  140.5060 N   0  0  0  0  0  2  0  0  0  0  0  0
  184.1750  178.7330  139.8160 N   0  0  0  0  0  2  0  0  0  0  0  0
  183.3720  177.7660  140.4920 C   0  0  0  0  0  3  0  0  0  0  0  0
  182.7410  176.7970  139.8320 C   0  0  0  0  0  3  0  0  0  0  0  0
  182.8090  176.6460  138.3470 C   0  0  0  0  0  2  0  0  0  0  0  0
  183.6490  175.4380  137.9750 C   0  0  0  0  0  2  0  0  0  0  0  0
  184.7520  175.8510  137.0660 C   0  0  0  0  0  0  0  0  0  0  0  0
  185.4270  174.9800  136.4590 O   0  0  0  0  0  0  0  0  0  0  0  0
  185.0570  177.1960  136.9100 O   0  0  0  0  0  1  0  0  0  0  0  0
  1 13  2  0  0  0  0
  1 12  1  0  0  0  0
  3  2  2  0  0  0  0
  3 11  1  0  0  0  0
  4 11  2  0  0  0  0
  4 10  1  0  0  0  0
  5 20  1  0  0  0  0
  6 14  2  0  0  0  0
  7  3  1  0  0  0  0
  8  9  1  0  0  0  0
 10  8  2  0  0  0  0
 11 16  1  0  0  0  0
 12  7  2  0  0  0  0
 13  5  1  0  0  0  0
 14 15  1  0  0  0  0
 15  4  1  0  0  0  0
 16  9  2  0  0  0  0
 17 18  1  0  0  0  0
 18  5  2  0  0  0  0
 18  6  1  0  0  0  0
 19 21  1  6  0  0  0
 19 17  1  0  0  0  0
 19 13  1  0  0  0  0
 20  7  1  0  0  0  0
 20 15  2  0  0  0  0
 21 22  1  6  0  0  0
 23 21  1  0  0  0  0
 24 25  1  0  0  0  0
 24 23  1  0  0  0  0
 27 29  1  0  0  0  0
 28 29  2  0  0  0  0
 29 26  1  1  0  0  0
 29 25  1  0  0  0  0
 30 12  1  0  0  0  0
 31 30  1  0  0  0  0
 32 33  1  0  0  0  0
 32 31  1  0  0  0  0
 34 33  2  0  0  0  0
 35 34  1  0  0  0  0
 36 35  1  0  0  0  0
 37 36  1  0  0  0  0
 38 37  2  0  0  0  0
 39 37  1  0  0  0  0
M  END
>  <MODEL>
5

>  <REMARK>
 VINA RESULT:      -8.7      2.714      3.462
  Name = 
  12 active torsions:
  status: ('A' for Active; 'I' for Inactive)
    1  A    between atoms: C_1  and  N_32
    2  A    between atoms: N_2  and  C_28
    3  A    between atoms: N_2  and  O_35
    4  A    between atoms: C_4  and  C_25
    5  A    between atoms: C_4  and  N_30
    6  A    between atoms: C_8  and  C_34
    7  A    between atoms: C_17  and  C_28
    8  A    between atoms: C_17  and  C_38
    9  A    between atoms: P_20  and  O_35
   10  A    between atoms: C_22  and  C_31
   11  A    between atoms: C_22  and  C_34
   12  A    between atoms: N_30  and  N_32
                            x       y       z     vdW  Elec       q    Type
                         _______ _______ _______ _____ _____    ______ ____

>  <TORSDO>
F 12

$$$$
=
 OpenBabel10232411063D

 39 43  0  0  1  0  0  0  0  0999 V2000
  186.8310  178.2480  141.1390 C   0  0  0  0  0  3  0  0  0  0  0  0
  186.8830  177.6240  145.4540 O   0  0  0  0  0  0  0  0  0  0  0  0
  187.9350  177.5020  144.7710 C   0  0  0  0  0  0  0  0  0  0  0  0
  190.4010  177.0200  144.6940 C   0  0  0  0  0  0  0  0  0  0  0  0
  189.1540  177.7610  141.2440 C   0  0  0  0  0  0  0  0  0  0  0  0
  191.4920  177.3530  141.0290 C   0  0  0  0  0  3  0  0  0  0  0  0
  187.9230  177.7130  143.2970 C   0  0  0  0  0  0  0  0  0  0  0  0
  191.6140  176.4800  146.7280 C   0  0  0  0  0  3  0  0  0  0  0  0
  190.4370  176.6070  147.4690 C   0  0  0  0  0  3  0  0  0  0  0  0
  191.5960  176.6850  145.3470 C   0  0  0  0  0  3  0  0  0  0  0  0
  189.2090  177.1480  145.4450 C   0  0  0  0  0  0  0  0  0  0  0  0
  186.7520  178.0650  142.5410 C   0  0  0  0  0  0  0  0  0  0  0  0
  188.0650  178.0790  140.5080 C   0  0  0  0  0  0  0  0  0  0  0  0
  191.5440  177.1350  142.4270 C   0  0  0  0  0  3  0  0  0  0  0  0
  190.3720  177.2400  143.2300 C   0  0  0  0  0  0  0  0  0  0  0  0
  189.2410  176.9390  146.8310 C   0  0  0  0  0  3  0  0  0  0  0  0
  189.9150  177.9370  139.1480 O   0  0  0  0  0  0  0  0  0  0  0  0
  190.2530  177.6710  140.4690 C   0  0  0  0  0  0  0  0  0  0  0  0
  188.4980  178.2160  139.0660 C   0  0  1  0  0  3  0  0  0  0  0  0
  189.1470  177.5680  142.6090 C   0  0  0  0  0  0  0  0  0  0  0  0
  187.8090  177.1770  138.1760 C   0  0  1  0  0  3  0  0  0  0  0  0
  186.4920  177.7070  137.6290 C   0  0  0  0  0  1  0  0  0  0  0  0
  188.7110  176.7300  137.0270 C   0  0  0  0  0  2  0  0  0  0  0  0
  188.1730  175.5470  136.3720 N   0  0  0  0  0  2  0  0  0  0  0  0
  187.8630  174.6630  137.3490 O   0  0  0  0  0  0  0  0  0  0  0  0
  185.7200  174.5690  135.4290 C   0  0  0  0  0  1  0  0  0  0  0  0
  187.3300  172.4560  136.0260 O   0  0  0  0  0  0  0  0  0  0  0  0
  185.6330  173.1300  137.8940 O   0  0  0  0  0  1  0  0  0  0  0  0
  186.6780  173.6560  136.6720 P   0  0  1  0  0  0  0  0  0  0  0  0
  185.4120  178.2220  143.1780 C   0  0  0  0  0  2  0  0  0  0  0  0
  184.9260  179.5790  142.9750 N   0  0  0  0  0  2  0  0  0  0  0  0
  184.0420  179.8660  144.0230 N   0  0  0  0  0  2  0  0  0  0  0  0
  183.2310  178.8380  144.5940 C   0  0  0  0  0  3  0  0  0  0  0  0
  181.9640  178.6610  144.2220 C   0  0  0  0  0  3  0  0  0  0  0  0
  181.2890  179.5160  143.1990 C   0  0  0  0  0  2  0  0  0  0  0  0
  180.7650  178.6630  142.0580 C   0  0  0  0  0  2  0  0  0  0  0  0
  181.6400  178.8220  140.8650 C   0  0  0  0  0  0  0  0  0  0  0  0
  181.2970  179.5930  139.9320 O   0  0  0  0  0  0  0  0  0  0  0  0
  182.8200  178.0980  140.7670 O   0  0  0  0  0  1  0  0  0  0  0  0
  1 12  1  0  0  0  0
  3 11  1  0  0  0  0
  3  2  2  0  0  0  0
  4 10  2  0  0  0  0
  4 11  1  0  0  0  0
  5 20  1  0  0  0  0
  6 14  2  0  0  0  0
  7  3  1  0  0  0  0
  8  9  2  0  0  0  0
 10  8  1  0  0  0  0
 11 16  2  0  0  0  0
 12 30  1  0  0  0  0
 12  7  2  0  0  0  0
 13  1  2  0  0  0  0
 13  5  1  0  0  0  0
 14 15  1  0  0  0  0
 15  4  1  0  0  0  0
 16  9  1  0  0  0  0
 17 18  1  0  0  0  0
 18  6  1  0  0  0  0
 18  5  2  0  0  0  0
 19 21  1  6  0  0  0
 19 17  1  0  0  0  0
 19 13  1  0  0  0  0
 20 15  2  0  0  0  0
 20  7  1  0  0  0  0
 21 22  1  6  0  0  0
 23 21  1  0  0  0  0
 24 23  1  0  0  0  0
 24 25  1  0  0  0  0
 27 29  2  0  0  0  0
 29 26  1  6  0  0  0
 29 25  1  0  0  0  0
 29 28  1  0  0  0  0
 31 30  1  0  0  0  0
 31 32  1  0  0  0  0
 32 33  1  0  0  0  0
 34 33  2  0  0  0  0
 35 34  1  0  0  0  0
 36 35  1  0  0  0  0
 37 36  1  0  0  0  0
 38 37  2  0  0  0  0
 39 37  1  0  0  0  0
M  END
>  <MODEL>
6

>  <REMARK>
 VINA RESULT:      -8.5      2.975      3.826
  Name = 
  12 active torsions:
  status: ('A' for Active; 'I' for Inactive)
    1  A    between atoms: C_1  and  N_32
    2  A    between atoms: N_2  and  C_28
    3  A    between atoms: N_2  and  O_35
    4  A    between atoms: C_4  and  C_25
    5  A    between atoms: C_4  and  N_30
    6  A    between atoms: C_8  and  C_34
    7  A    between atoms: C_17  and  C_28
    8  A    between atoms: C_17  and  C_38
    9  A    between atoms: P_20  and  O_35
   10  A    between atoms: C_22  and  C_31
   11  A    between atoms: C_22  and  C_34
   12  A    between atoms: N_30  and  N_32
                            x       y       z     vdW  Elec       q    Type
                         _______ _______ _______ _____ _____    ______ ____

>  <TORSDO>
F 12

$$$$
=
 OpenBabel10232411063D

 39 43  0  0  1  0  0  0  0  0999 V2000
  187.4730  178.2940  139.8650 C   0  0  0  0  0  3  0  0  0  0  0  0
  185.1340  178.6040  143.5320 O   0  0  0  0  0  0  0  0  0  0  0  0
  186.3450  178.2560  143.5660 C   0  0  0  0  0  0  0  0  0  0  0  0
  188.3460  177.5760  144.9260 C   0  0  0  0  0  0  0  0  0  0  0  0
  189.2590  177.6590  141.2980 C   0  0  0  0  0  0  0  0  0  0  0  0
  191.2410  177.0310  142.4630 C   0  0  0  0  0  3  0  0  0  0  0  0
  187.1480  178.1480  142.3170 C   0  0  0  0  0  0  0  0  0  0  0  0
  188.1870  177.3880  147.3430 C   0  0  0  0  0  3  0  0  0  0  0  0
  186.8430  177.7630  147.2880 C   0  0  0  0  0  3  0  0  0  0  0  0
  188.9350  177.2950  146.1680 C   0  0  0  0  0  3  0  0  0  0  0  0
  186.9850  177.9550  144.8710 C   0  0  0  0  0  0  0  0  0  0  0  0
  186.6370  178.4220  141.0020 C   0  0  0  0  0  0  0  0  0  0  0  0
  188.7990  177.8980  140.0480 C   0  0  0  0  0  0  0  0  0  0  0  0
  190.5090  177.1140  143.6730 C   0  0  0  0  0  3  0  0  0  0  0  0
  189.1320  177.4790  143.6740 C   0  0  0  0  0  0  0  0  0  0  0  0
  186.2450  178.0450  146.0580 C   0  0  0  0  0  3  0  0  0  0  0  0
  191.0250  177.3230  139.9670 O   0  0  0  0  0  0  0  0  0  0  0  0
  190.5630  177.3190  141.2770 C   0  0  0  0  0  0  0  0  0  0  0  0
  189.9420  177.6890  139.0810 C   0  0  1  0  0  3  0  0  0  0  0  0
  188.5000  177.7630  142.4440 C   0  0  0  0  0  0  0  0  0  0  0  0
  189.6470  176.5410  138.1090 C   0  0  1  0  0  3  0  0  0  0  0  0
  189.3770  177.0630  136.7060 C   0  0  0  0  0  1  0  0  0  0  0  0
  190.7850  175.5220  138.0780 C   0  0  0  0  0  2  0  0  0  0  0  0
  190.4830  174.4320  137.1620 N   0  0  0  0  0  2  0  0  0  0  0  0
  189.4430  173.7480  137.6940 O   0  0  0  0  0  0  0  0  0  0  0  0
  189.2520  173.8660  134.8240 C   0  0  0  0  0  1  0  0  0  0  0  0
  188.2300  171.8490  136.3410 O   0  0  0  0  0  0  0  0  0  0  0  0
  186.9720  174.1310  136.5240 O   0  0  0  0  0  1  0  0  0  0  0  0
  188.4610  173.3420  136.3720 P   0  0  1  0  0  0  0  0  0  0  0  0
  185.2170  178.8170  140.7670 C   0  0  0  0  0  2  0  0  0  0  0  0
  185.0800  179.3930  139.4380 N   0  0  0  0  0  2  0  0  0  0  0  0
  183.8740  180.1060  139.4160 N   0  0  0  0  0  2  0  0  0  0  0  0
  182.7910  179.6790  138.5890 C   0  0  0  0  0  3  0  0  0  0  0  0
  181.8780  180.5360  138.1370 C   0  0  0  0  0  3  0  0  0  0  0  0
  181.9000  181.9940  138.4600 C   0  0  0  0  0  2  0  0  0  0  0  0
  180.7670  182.7120  137.7470 C   0  0  0  0  0  2  0  0  0  0  0  0
  181.3210  183.7420  136.8290 C   0  0  0  0  0  0  0  0  0  0  0  0
  181.1130  183.6590  135.5910 O   0  0  0  0  0  0  0  0  0  0  0  0
  182.0950  184.7790  137.3320 O   0  0  0  0  0  1  0  0  0  0  0  0
  1 13  2  0  0  0  0
  1 12  1  0  0  0  0
  2  3  2  0  0  0  0
  3 11  1  0  0  0  0
  4 10  1  0  0  0  0
  5 20  1  0  0  0  0
  6 14  2  0  0  0  0
  7 20  1  0  0  0  0
  7  3  1  0  0  0  0
  9  8  1  0  0  0  0
 10  8  2  0  0  0  0
 11  4  2  0  0  0  0
 11 16  1  0  0  0  0
 12  7  2  0  0  0  0
 13  5  1  0  0  0  0
 14 15  1  0  0  0  0
 15  4  1  0  0  0  0
 16  9  2  0  0  0  0
 17 18  1  0  0  0  0
 18  5  2  0  0  0  0
 18  6  1  0  0  0  0
 19 21  1  6  0  0  0
 19 17  1  0  0  0  0
 19 13  1  0  0  0  0
 20 15  2  0  0  0  0
 21 22  1  6  0  0  0
 23 21  1  0  0  0  0
 24 25  1  0  0  0  0
 24 23  1  0  0  0  0
 27 29  2  0  0  0  0
 29 26  1  6  0  0  0
 29 28  1  0  0  0  0
 29 25  1  0  0  0  0
 30 12  1  0  0  0  0
 31 30  1  0  0  0  0
 32 31  1  0  0  0  0
 33 32  1  0  0  0  0
 34 35  1  0  0  0  0
 34 33  2  0  0  0  0
 36 35  1  0  0  0  0
 37 39  1  0  0  0  0
 37 36  1  0  0  0  0
 38 37  2  0  0  0  0
M  END
>  <MODEL>
7

>  <REMARK>
 VINA RESULT:      -8.4      2.964      3.502
  Name = 
  12 active torsions:
  status: ('A' for Active; 'I' for Inactive)
    1  A    between atoms: C_1  and  N_32
    2  A    between atoms: N_2  and  C_28
    3  A    between atoms: N_2  and  O_35
    4  A    between atoms: C_4  and  C_25
    5  A    between atoms: C_4  and  N_30
    6  A    between atoms: C_8  and  C_34
    7  A    between atoms: C_17  and  C_28
    8  A    between atoms: C_17  and  C_38
    9  A    between atoms: P_20  and  O_35
   10  A    between atoms: C_22  and  C_31
   11  A    between atoms: C_22  and  C_34
   12  A    between atoms: N_30  and  N_32
                            x       y       z     vdW  Elec       q    Type
                         _______ _______ _______ _____ _____    ______ ____

>  <TORSDO>
F 12

$$$$
=
 OpenBabel10232411063D

 39 43  0  0  1  0  0  0  0  0999 V2000
  186.7380  178.8040  143.1520 C   0  0  0  0  0  3  0  0  0  0  0  0
  185.4810  178.7340  138.9770 O   0  0  0  0  0  0  0  0  0  0  0  0
  184.6310  178.7390  139.9080 C   0  0  0  0  0  0  0  0  0  0  0  0
  182.2180  178.7440  140.6110 C   0  0  0  0  0  0  0  0  0  0  0  0
  184.4130  178.8000  143.6420 C   0  0  0  0  0  0  0  0  0  0  0  0
  182.1700  178.8350  144.4480 C   0  0  0  0  0  3  0  0  0  0  0  0
  185.0550  178.7620  141.3350 C   0  0  0  0  0  0  0  0  0  0  0  0
  180.4500  178.7050  138.9450 C   0  0  0  0  0  3  0  0  0  0  0  0
  181.4040  178.6880  137.9250 C   0  0  0  0  0  3  0  0  0  0  0  0
  180.8540  178.7330  140.2810 C   0  0  0  0  0  3  0  0  0  0  0  0
  183.1840  178.7260  139.5780 C   0  0  0  0  0  0  0  0  0  0  0  0
  186.4240  178.7830  141.7710 C   0  0  0  0  0  0  0  0  0  0  0  0
  185.6920  178.8060  144.0780 C   0  0  0  0  0  0  0  0  0  0  0  0
  181.7270  178.8040  143.1040 C   0  0  0  0  0  3  0  0  0  0  0  0
  182.6560  178.7740  142.0250 C   0  0  0  0  0  0  0  0  0  0  0  0
  182.7650  178.6990  138.2410 C   0  0  0  0  0  3  0  0  0  0  0  0
  184.2530  178.8650  145.8720 O   0  0  0  0  0  0  0  0  0  0  0  0
  183.5480  178.8330  144.6740 C   0  0  0  0  0  0  0  0  0  0  0  0
  185.6720  178.8480  145.5900 C   0  0  1  0  0  3  0  0  0  0  0  0
  184.0380  178.7770  142.3140 C   0  0  0  0  0  0  0  0  0  0  0  0
  186.3120  177.5920  146.1910 C   0  0  1  0  0  3  0  0  0  0  0  0
  186.5510  176.5330  145.1260 C   0  0  0  0  0  1  0  0  0  0  0  0
  187.6210  177.9160  146.9090 C   0  0  0  0  0  2  0  0  0  0  0  0
  188.7450  177.2440  146.2730 N   0  0  0  0  0  2  0  0  0  0  0  0
  189.4670  178.1980  145.6400 O   0  0  0  0  0  0  0  0  0  0  0  0
  191.7340  176.5170  146.2090 C   0  0  0  0  0  1  0  0  0  0  0  0
  190.2490  176.3600  143.9320 O   0  0  0  0  0  0  0  0  0  0  0  0
  191.7620  178.4790  144.1330 O   0  0  0  0  0  1  0  0  0  0  0  0
  190.7660  177.3690  144.9310 P   0  0  1  0  0  0  0  0  0  0  0  0
  187.5650  178.7500  140.8090 C   0  0  0  0  0  2  0  0  0  0  0  0
  188.7630  178.2760  141.4850 N   0  0  0  0  0  2  0  0  0  0  0  0
  189.3340  177.2850  140.6740 N   0  0  0  0  0  2  0  0  0  0  0  0
  190.7320  177.2960  140.3860 C   0  0  0  0  0  3  0  0  0  0  0  0
  191.2110  176.8290  139.2350 C   0  0  0  0  0  3  0  0  0  0  0  0
  190.3420  176.2500  138.1660 C   0  0  0  0  0  2  0  0  0  0  0  0
  190.1060  177.2700  137.0660 C   0  0  0  0  0  2  0  0  0  0  0  0
  188.8170  177.9750  137.2990 C   0  0  0  0  0  0  0  0  0  0  0  0
  188.8090  179.2140  137.5190 O   0  0  0  0  0  1  0  0  0  0  0  0
  187.6260  177.2620  137.3060 O   0  0  0  0  0  0  0  0  0  0  0  0
  1 13  1  0  0  0  0
  2  3  2  0  0  0  0
  3  7  1  0  0  0  0
  4 15  1  0  0  0  0
  5 13  2  0  0  0  0
  5 18  1  0  0  0  0
  6 18  2  0  0  0  0
  7 12  1  0  0  0  0
  7 20  2  0  0  0  0
  8 10  2  0  0  0  0
  9 16  2  0  0  0  0
  9  8  1  0  0  0  0
 10  4  1  0  0  0  0
 11  3  1  0  0  0  0
 11  4  2  0  0  0  0
 12  1  2  0  0  0  0
 13 19  1  0  0  0  0
 14  6  1  0  0  0  0
 15 20  1  0  0  0  0
 15 14  2  0  0  0  0
 16 11  1  0  0  0  0
 18 17  1  0  0  0  0
 19 17  1  0  0  0  0
 19 21  1  1  0  0  0
 20  5  1  0  0  0  0
 21 22  1  6  0  0  0
 21 23  1  0  0  0  0
 24 23  1  0  0  0  0
 25 24  1  0  0  0  0
 27 29  2  0  0  0  0
 28 29  1  0  0  0  0
 29 25  1  0  0  0  0
 29 26  1  1  0  0  0
 30 31  1  0  0  0  0
 30 12  1  0  0  0  0
 32 31  1  0  0  0  0
 33 32  1  0  0  0  0
 34 33  2  0  0  0  0
 35 34  1  0  0  0  0
 36 37  1  0  0  0  0
 36 35  1  0  0  0  0
 37 39  2  0  0  0  0
 37 38  1  0  0  0  0
M  END
>  <MODEL>
8

>  <REMARK>
 VINA RESULT:      -8.2      3.319      8.276
  Name = 
  12 active torsions:
  status: ('A' for Active; 'I' for Inactive)
    1  A    between atoms: C_1  and  N_32
    2  A    between atoms: N_2  and  C_28
    3  A    between atoms: N_2  and  O_35
    4  A    between atoms: C_4  and  C_25
    5  A    between atoms: C_4  and  N_30
    6  A    between atoms: C_8  and  C_34
    7  A    between atoms: C_17  and  C_28
    8  A    between atoms: C_17  and  C_38
    9  A    between atoms: P_20  and  O_35
   10  A    between atoms: C_22  and  C_31
   11  A    between atoms: C_22  and  C_34
   12  A    between atoms: N_30  and  N_32
                            x       y       z     vdW  Elec       q    Type
                         _______ _______ _______ _____ _____    ______ ____

>  <TORSDO>
F 12

$$$$
=
 OpenBabel10232411063D

 39 43  0  0  1  0  0  0  0  0999 V2000
  187.1480  178.4090  140.2240 C   0  0  0  0  0  3  0  0  0  0  0  0
  182.8690  178.9540  139.5830 O   0  0  0  0  0  0  0  0  0  0  0  0
  183.3330  178.7900  140.7440 C   0  0  0  0  0  0  0  0  0  0  0  0
  182.9180  178.6170  143.2170 C   0  0  0  0  0  0  0  0  0  0  0  0
  186.5790  178.2620  142.5260 C   0  0  0  0  0  0  0  0  0  0  0  0
  186.3340  178.1080  144.8920 C   0  0  0  0  0  3  0  0  0  0  0  0
  184.7930  178.6020  140.9680 C   0  0  0  0  0  0  0  0  0  0  0  0
  180.6620  178.7880  144.1020 C   0  0  0  0  0  3  0  0  0  0  0  0
  180.1620  178.9570  142.8090 C   0  0  0  0  0  3  0  0  0  0  0  0
  182.0330  178.6190  144.3050 C   0  0  0  0  0  3  0  0  0  0  0  0
  182.4120  178.7880  141.9070 C   0  0  0  0  0  0  0  0  0  0  0  0
  185.7760  178.5940  139.9200 C   0  0  0  0  0  0  0  0  0  0  0  0
  187.5230  178.2360  141.5580 C   0  0  0  0  0  0  0  0  0  0  0  0
  184.9390  178.2740  144.7200 C   0  0  0  0  0  3  0  0  0  0  0  0
  184.3740  178.4390  143.4230 C   0  0  0  0  0  0  0  0  0  0  0  0
  181.0330  178.9570  141.7170 C   0  0  0  0  0  3  0  0  0  0  0  0
  188.5090  177.9750  143.6200 O   0  0  0  0  0  0  0  0  0  0  0  0
  187.1320  178.1100  143.7460 C   0  0  0  0  0  0  0  0  0  0  0  0
  188.8680  178.0420  142.2200 C   0  0  1  0  0  3  0  0  0  0  0  0
  185.2300  178.4360  142.3000 C   0  0  0  0  0  0  0  0  0  0  0  0
  189.5200  176.7270  141.7810 C   0  0  1  0  0  3  0  0  0  0  0  0
  190.7750  176.9830  140.9590 C   0  0  0  0  0  1  0  0  0  0  0  0
  189.8510  175.8350  142.9760 C   0  0  0  0  0  2  0  0  0  0  0  0
  191.2100  176.0680  143.4410 N   0  0  0  0  0  2  0  0  0  0  0  0
  191.3090  175.5030  144.6670 O   0  0  0  0  0  0  0  0  0  0  0  0
  189.6550  176.8910  146.5710 C   0  0  0  0  0  1  0  0  0  0  0  0
  192.3560  176.6320  146.7970 O   0  0  0  0  0  1  0  0  0  0  0  0
  191.5430  178.2420  144.9080 O   0  0  0  0  0  0  0  0  0  0  0  0
  191.2740  176.8030  145.7550 P   0  0  1  0  0  0  0  0  0  0  0  0
  185.4080  178.7430  138.4820 C   0  0  0  0  0  2  0  0  0  0  0  0
  186.1960  177.8260  137.6740 N   0  0  0  0  0  2  0  0  0  0  0  0
  187.0100  178.6020  136.8380 N   0  0  0  0  0  2  0  0  0  0  0  0
  187.5890  178.0410  135.6600 C   0  0  0  0  0  3  0  0  0  0  0  0
  188.8270  177.5500  135.6560 C   0  0  0  0  0  3  0  0  0  0  0  0
  189.7080  177.5540  136.8620 C   0  0  0  0  0  2  0  0  0  0  0  0
  189.6670  176.2020  137.5530 C   0  0  0  0  0  2  0  0  0  0  0  0
  191.0440  175.6510  137.6650 C   0  0  0  0  0  0  0  0  0  0  0  0
  192.0330  176.4280  137.6800 O   0  0  0  0  0  0  0  0  0  0  0  0
  191.2410  174.2780  137.7200 O   0  0  0  0  0  1  0  0  0  0  0  0
  1 13  1  0  0  0  0
  2  3  2  0  0  0  0
  3  7  1  0  0  0  0
  3 11  1  0  0  0  0
  4 15  1  0  0  0  0
  4 10  1  0  0  0  0
  5 18  1  0  0  0  0
  7 20  2  0  0  0  0
  8 10  2  0  0  0  0
  9  8  1  0  0  0  0
 11  4  2  0  0  0  0
 12  1  2  0  0  0  0
 12  7  1  0  0  0  0
 13 19  1  0  0  0  0
 13  5  2  0  0  0  0
 14  6  1  0  0  0  0
 15 14  2  0  0  0  0
 16 11  1  0  0  0  0
 16  9  2  0  0  0  0
 17 18  1  0  0  0  0
 18  6  2  0  0  0  0
 19 21  1  6  0  0  0
 19 17  1  0  0  0  0
 20  5  1  0  0  0  0
 20 15  1  0  0  0  0
 21 22  1  1  0  0  0
 21 23  1  0  0  0  0
 23 24  1  0  0  0  0
 24 25  1  0  0  0  0
 25 29  1  0  0  0  0
 28 29  2  0  0  0  0
 29 26  1  1  0  0  0
 29 27  1  0  0  0  0
 30 12  1  0  0  0  0
 31 30  1  0  0  0  0
 32 31  1  0  0  0  0
 33 32  1  0  0  0  0
 34 33  2  0  0  0  0
 34 35  1  0  0  0  0
 35 36  1  0  0  0  0
 36 37  1  0  0  0  0
 37 38  2  0  0  0  0
 37 39  1  0  0  0  0
M  END
>  <MODEL>
9

>  <REMARK>
 VINA RESULT:      -8.1      2.944      7.162
  Name = 
  12 active torsions:
  status: ('A' for Active; 'I' for Inactive)
    1  A    between atoms: C_1  and  N_32
    2  A    between atoms: N_2  and  C_28
    3  A    between atoms: N_2  and  O_35
    4  A    between atoms: C_4  and  C_25
    5  A    between atoms: C_4  and  N_30
    6  A    between atoms: C_8  and  C_34
    7  A    between atoms: C_17  and  C_28
    8  A    between atoms: C_17  and  C_38
    9  A    between atoms: P_20  and  O_35
   10  A    between atoms: C_22  and  C_31
   11  A    between atoms: C_22  and  C_34
   12  A    between atoms: N_30  and  N_32
                            x       y       z     vdW  Elec       q    Type
                         _______ _______ _______ _____ _____    ______ ____

>  <TORSDO>
F 12

$$$$
