=
 OpenBabel10232412373D

 37 41  0  0  1  0  0  0  0  0999 V2000
  190.4360  176.7280  141.7290 C   0  0  0  0  0  0  0  0  0  0  0  0
  185.0310  178.4430  144.9930 C   0  0  0  0  0  3  0  0  0  0  0  0
  191.4200  176.6090  142.7050 C   0  0  0  0  0  3  0  0  0  0  0  0
  189.8900  177.2020  144.4210 C   0  0  0  0  0  0  0  0  0  0  0  0
  186.1170  178.2840  145.8550 C   0  0  0  0  0  3  0  0  0  0  0  0
  187.5530  177.7190  143.9620 C   0  0  0  0  0  0  0  0  0  0  0  0
  185.1860  178.2410  143.6160 C   0  0  0  0  0  0  0  0  0  0  0  0
  189.1400  177.1570  142.1050 C   0  0  0  0  0  0  0  0  0  0  0  0
  188.4100  177.7740  146.2090 N   0  0  0  0  0  0  0  0  0  0  0  0
  186.4440  177.8800  143.1160 C   0  0  0  0  0  3  0  0  0  0  0  0
  189.6510  177.4220  145.7850 C   0  0  0  0  0  0  0  0  0  0  0  0
  191.1350  176.8520  144.0070 N   0  0  0  0  0  0  0  0  0  0  0  0
  187.3710  177.9240  145.3520 C   0  0  0  0  0  0  0  0  0  0  0  0
  188.8390  177.3530  143.4810 C   0  0  0  0  0  0  0  0  0  0  0  0
  182.0650  178.8590  142.0560 N   0  0  0  0  0  0  0  0  0  0  0  0
  184.0700  178.2160  141.3960 C   0  0  0  0  0  3  0  0  0  0  0  0
  184.0710  178.4100  142.7290 N   0  0  0  0  0  0  0  0  0  0  0  0
  182.7850  178.5040  140.9710 C   0  0  0  0  0  3  0  0  0  0  0  0
  182.8650  178.7940  143.1050 N   0  0  0  0  0  0  0  0  0  0  0  0
  190.7150  177.2770  146.7300 N   0  0  0  0  0  2  0  0  0  0  0  0
  190.9430  176.0410  147.4590 C   0  0  0  0  0  2  0  0  0  0  0  0
  193.0760  176.1150  148.5240 O   0  0  0  0  0  1  0  0  0  0  0  0
  192.4090  175.6600  147.3870 C   0  0  0  0  0  2  0  0  0  0  0  0
  190.7830  176.3520  140.3880 N   0  0  0  0  0  2  0  0  0  0  0  0
  191.5840  177.1550  139.4740 C   0  0  0  0  0  2  0  0  0  0  0  0
  191.9710  176.3280  138.2580 C   0  0  0  0  0  2  0  0  0  0  0  0
  191.8480  174.1370  137.4360 C   0  0  0  0  0  2  0  0  0  0  0  0
  191.1100  175.1620  138.1590 N   0  0  0  0  0  0  0  0  0  0  0  0
  189.9990  175.5300  137.2910 C   0  0  0  0  0  2  0  0  0  0  0  0
  189.7510  174.3900  136.3220 C   0  0  2  0  0  3  0  0  0  0  0  0
  188.4150  173.7410  136.6260 C   0  0  0  0  0  1  0  0  0  0  0  0
  190.8590  173.3990  136.5670 C   0  0  0  0  0  2  0  0  0  0  0  0
  188.1710  177.4180  141.1300 O   0  0  0  0  0  0  0  0  0  0  0  0
  188.2830  178.5110  140.2220 C   0  0  0  0  0  2  0  0  0  0  0  0
  188.0520  178.0490  138.7910 C   0  0  0  0  0  3  0  0  0  0  0  0
  188.8370  178.9350  137.8490 C   0  0  0  0  0  1  0  0  0  0  0  0
  186.5800  178.1330  138.4410 C   0  0  0  0  0  1  0  0  0  0  0  0
  1  8  2  0  0  0  0
  1  3  1  0  0  0  0
  2  5  1  0  0  0  0
  3 12  2  0  0  0  0
  4 11  1  0  0  0  0
  6 13  1  0  0  0  0
  7  2  2  0  0  0  0
  8 14  1  0  0  0  0
 10  7  1  0  0  0  0
 10  6  2  0  0  0  0
 11  9  2  0  0  0  0
 11 20  1  0  0  0  0
 12  4  1  0  0  0  0
 13  5  2  0  0  0  0
 13  9  1  0  0  0  0
 14  6  1  0  0  0  0
 14  4  2  0  0  0  0
 15 19  2  0  0  0  0
 16 17  1  0  0  0  0
 17 19  1  0  0  0  0
 17  7  1  0  0  0  0
 18 16  2  0  0  0  0
 18 15  1  0  0  0  0
 20 21  1  0  0  0  0
 23 21  1  0  0  0  0
 23 22  1  0  0  0  0
 24  1  1  0  0  0  0
 25 24  1  0  0  0  0
 26 25  1  0  0  0  0
 27 28  1  0  0  0  0
 28 26  1  0  0  0  0
 29 28  1  0  0  0  0
 30 32  1  0  0  0  0
 30 31  1  1  0  0  0
 30 29  1  0  0  0  0
 32 27  1  0  0  0  0
 33  8  1  0  0  0  0
 34 33  1  0  0  0  0
 35 34  1  0  0  0  0
 36 35  1  0  0  0  0
 37 35  1  0  0  0  0
M  END
>  <MODEL>
1

>  <REMARK>
 VINA RESULT:      -8.4      0.000      0.000
  Name = 
  11 active torsions:
  status: ('A' for Active; 'I' for Inactive)
    1  A    between atoms: C_1  and  C_2
    2  A    between atoms: C_1  and  O_32
    3  A    between atoms: C_3  and  N_26
    4  A    between atoms: C_6  and  N_19
    5  A    between atoms: C_6  and  C_36
    6  A    between atoms: C_12  and  N_21
    7  A    between atoms: C_13  and  O_32
    8  A    between atoms: N_14  and  C_37
    9  A    between atoms: N_19  and  C_24
   10  A    between atoms: N_26  and  C_28
   11  A    between atoms: C_28  and  C_37
                            x       y       z     vdW  Elec       q    Type
                         _______ _______ _______ _____ _____    ______ ____

>  <TORSDO>
F 11

$$$$
=
 OpenBabel10232412373D

 37 41  0  0  1  0  0  0  0  0999 V2000
  186.2350  178.5110  140.6340 C   0  0  0  0  0  0  0  0  0  0  0  0
  187.1700  177.8710  147.0770 C   0  0  0  0  0  3  0  0  0  0  0  0
  184.9160  178.9350  140.5040 C   0  0  0  0  0  3  0  0  0  0  0  0
  184.5990  178.9000  142.8580 C   0  0  0  0  0  0  0  0  0  0  0  0
  185.8720  178.2980  146.7910 C   0  0  0  0  0  3  0  0  0  0  0  0
  186.3700  178.2510  144.4020 C   0  0  0  0  0  0  0  0  0  0  0  0
  188.0800  177.6330  146.0400 C   0  0  0  0  0  0  0  0  0  0  0  0
  186.7400  178.2140  141.9220 C   0  0  0  0  0  0  0  0  0  0  0  0
  184.2040  178.9070  145.2150 N   0  0  0  0  0  0  0  0  0  0  0  0
  187.6710  177.8270  144.7150 C   0  0  0  0  0  3  0  0  0  0  0  0
  183.7500  179.1160  143.9520 C   0  0  0  0  0  0  0  0  0  0  0  0
  184.1360  179.1100  141.5980 N   0  0  0  0  0  0  0  0  0  0  0  0
  185.4680  178.4900  145.4670 C   0  0  0  0  0  0  0  0  0  0  0  0
  185.9300  178.4560  143.0660 C   0  0  0  0  0  0  0  0  0  0  0  0
  191.5070  176.7310  146.0460 N   0  0  0  0  0  0  0  0  0  0  0  0
  189.8560  176.7070  147.5100 C   0  0  0  0  0  3  0  0  0  0  0  0
  189.4120  177.1890  146.3340 N   0  0  0  0  0  0  0  0  0  0  0  0
  191.1960  176.4160  147.3210 C   0  0  0  0  0  3  0  0  0  0  0  0
  190.4120  177.1960  145.4710 N   0  0  0  0  0  0  0  0  0  0  0  0
  182.4060  179.5560  143.7380 N   0  0  0  0  0  2  0  0  0  0  0  0
  181.2740  178.6450  143.7840 C   0  0  0  0  0  2  0  0  0  0  0  0
  180.1490  180.5370  142.8670 O   0  0  0  0  0  1  0  0  0  0  0  0
  180.1720  179.1430  142.8690 C   0  0  0  0  0  2  0  0  0  0  0  0
  187.0320  178.4500  139.4410 N   0  0  0  0  0  2  0  0  0  0  0  0
  186.6060  177.8660  138.1770 C   0  0  0  0  0  2  0  0  0  0  0  0
  187.2330  178.6200  137.0170 C   0  0  0  0  0  2  0  0  0  0  0  0
  187.5070  176.3660  136.4370 C   0  0  0  0  0  2  0  0  0  0  0  0
  188.0160  177.7090  136.2000 N   0  0  0  0  0  0  0  0  0  0  0  0
  189.3700  177.7140  136.7390 C   0  0  0  0  0  2  0  0  0  0  0  0
  189.8650  176.2820  136.8050 C   0  0  2  0  0  3  0  0  0  0  0  0
  190.9880  176.0820  135.8070 C   0  0  0  0  0  1  0  0  0  0  0  0
  188.6870  175.4270  136.4150 C   0  0  0  0  0  2  0  0  0  0  0  0
  188.0150  177.6550  142.0700 O   0  0  0  0  0  0  0  0  0  0  0  0
  189.2040  178.4020  141.8300 C   0  0  0  0  0  2  0  0  0  0  0  0
  190.4070  177.4790  141.7140 C   0  0  0  0  0  3  0  0  0  0  0  0
  190.7470  177.2850  140.2520 C   0  0  0  0  0  1  0  0  0  0  0  0
  190.0970  176.1300  142.3330 C   0  0  0  0  0  1  0  0  0  0  0  0
  1  8  1  0  0  0  0
  3  1  2  0  0  0  0
  3 12  1  0  0  0  0
  4 14  1  0  0  0  0
  4 11  1  0  0  0  0
  5  2  1  0  0  0  0
  6 10  2  0  0  0  0
  6 13  1  0  0  0  0
  7 17  1  0  0  0  0
  7  2  2  0  0  0  0
  8 33  1  0  0  0  0
  8 14  2  0  0  0  0
  9 13  1  0  0  0  0
 10  7  1  0  0  0  0
 11  9  2  0  0  0  0
 12  4  2  0  0  0  0
 13  5  2  0  0  0  0
 14  6  1  0  0  0  0
 15 18  1  0  0  0  0
 17 16  1  0  0  0  0
 18 16  2  0  0  0  0
 19 15  2  0  0  0  0
 19 17  1  0  0  0  0
 20 21  1  0  0  0  0
 20 11  1  0  0  0  0
 22 23  1  0  0  0  0
 23 21  1  0  0  0  0
 24  1  1  0  0  0  0
 25 24  1  0  0  0  0
 26 25  1  0  0  0  0
 28 27  1  0  0  0  0
 28 29  1  0  0  0  0
 28 26  1  0  0  0  0
 29 30  1  0  0  0  0
 30 31  1  6  0  0  0
 32 27  1  0  0  0  0
 32 30  1  0  0  0  0
 34 33  1  0  0  0  0
 35 34  1  0  0  0  0
 35 37  1  0  0  0  0
 36 35  1  0  0  0  0
M  END
>  <MODEL>
2

>  <REMARK>
 VINA RESULT:      -8.4      2.317      6.363
  Name = 
  11 active torsions:
  status: ('A' for Active; 'I' for Inactive)
    1  A    between atoms: C_1  and  C_2
    2  A    between atoms: C_1  and  O_32
    3  A    between atoms: C_3  and  N_26
    4  A    between atoms: C_6  and  N_19
    5  A    between atoms: C_6  and  C_36
    6  A    between atoms: C_12  and  N_21
    7  A    between atoms: C_13  and  O_32
    8  A    between atoms: N_14  and  C_37
    9  A    between atoms: N_19  and  C_24
   10  A    between atoms: N_26  and  C_28
   11  A    between atoms: C_28  and  C_37
                            x       y       z     vdW  Elec       q    Type
                         _______ _______ _______ _____ _____    ______ ____

>  <TORSDO>
F 11

$$$$
=
 OpenBabel10232412373D

 37 41  0  0  1  0  0  0  0  0999 V2000
  187.9110  178.3450  140.2180 C   0  0  0  0  0  0  0  0  0  0  0  0
  185.2460  178.3520  146.1920 C   0  0  0  0  0  3  0  0  0  0  0  0
  186.8390  178.5140  139.3480 C   0  0  0  0  0  3  0  0  0  0  0  0
  185.2960  178.5920  141.1520 C   0  0  0  0  0  0  0  0  0  0  0  0
  184.2760  178.5160  145.2030 C   0  0  0  0  0  3  0  0  0  0  0  0
  185.9980  178.3870  143.4770 C   0  0  0  0  0  0  0  0  0  0  0  0
  186.5940  178.2080  145.8440 C   0  0  0  0  0  0  0  0  0  0  0  0
  187.6620  178.2380  141.6070 C   0  0  0  0  0  0  0  0  0  0  0  0
  183.6810  178.6990  142.9100 N   0  0  0  0  0  0  0  0  0  0  0  0
  186.9560  178.2280  144.4910 C   0  0  0  0  0  3  0  0  0  0  0  0
  183.9700  178.7300  141.5840 C   0  0  0  0  0  0  0  0  0  0  0  0
  185.5740  178.6230  139.8220 N   0  0  0  0  0  0  0  0  0  0  0  0
  184.6410  178.5350  143.8530 C   0  0  0  0  0  0  0  0  0  0  0  0
  186.3380  178.4120  142.0970 C   0  0  0  0  0  0  0  0  0  0  0  0
  188.5120  178.0290  148.8190 N   0  0  0  0  0  0  0  0  0  0  0  0
  188.8440  177.5730  146.6850 C   0  0  0  0  0  3  0  0  0  0  0  0
  187.5910  178.0330  146.8610 N   0  0  0  0  0  0  0  0  0  0  0  0
  189.4290  177.5730  147.9400 C   0  0  0  0  0  3  0  0  0  0  0  0
  187.4100  178.3000  148.1420 N   0  0  0  0  0  0  0  0  0  0  0  0
  182.9210  178.9030  140.6270 N   0  0  0  0  0  2  0  0  0  0  0  0
  181.9100  177.8860  140.3900 C   0  0  0  0  0  2  0  0  0  0  0  0
  180.6310  179.7330  141.1910 O   0  0  0  0  0  1  0  0  0  0  0  0
  180.5600  178.3760  140.8770 C   0  0  0  0  0  2  0  0  0  0  0  0
  189.2300  178.3430  139.6510 N   0  0  0  0  0  2  0  0  0  0  0  0
  189.6400  177.5750  138.4840 C   0  0  0  0  0  2  0  0  0  0  0  0
  190.9100  176.7990  138.7900 C   0  0  0  0  0  2  0  0  0  0  0  0
  191.8660  174.9210  137.7650 C   0  0  0  0  0  2  0  0  0  0  0  0
  190.7070  175.3880  138.5120 N   0  0  0  0  0  0  0  0  0  0  0  0
  189.5840  175.2970  137.5890 C   0  0  0  0  0  2  0  0  0  0  0  0
  189.9380  174.2980  136.5030 C   0  0  2  0  0  3  0  0  0  0  0  0
  189.0590  173.0700  136.6300 C   0  0  0  0  0  1  0  0  0  0  0  0
  191.3740  173.9180  136.7510 C   0  0  0  0  0  2  0  0  0  0  0  0
  188.7030  177.9300  142.4910 O   0  0  0  0  0  0  0  0  0  0  0  0
  189.4260  176.7040  142.4150 C   0  0  0  0  0  2  0  0  0  0  0  0
  190.9010  176.9300  142.7070 C   0  0  0  0  0  3  0  0  0  0  0  0
  191.3850  175.8690  143.6710 C   0  0  0  0  0  1  0  0  0  0  0  0
  191.1120  178.2970  143.3280 C   0  0  0  0  0  1  0  0  0  0  0  0
  1  8  1  0  0  0  0
  3 12  1  0  0  0  0
  3  1  2  0  0  0  0
  4 11  1  0  0  0  0
  4 14  1  0  0  0  0
  5  2  2  0  0  0  0
  6 13  2  0  0  0  0
  6 10  1  0  0  0  0
  7  2  1  0  0  0  0
  7 17  1  0  0  0  0
  8 14  2  0  0  0  0
  8 33  1  0  0  0  0
  9 13  1  0  0  0  0
 10  7  2  0  0  0  0
 11  9  2  0  0  0  0
 12  4  2  0  0  0  0
 13  5  1  0  0  0  0
 14  6  1  0  0  0  0
 16 17  1  0  0  0  0
 16 18  2  0  0  0  0
 17 19  1  0  0  0  0
 18 15  1  0  0  0  0
 19 15  2  0  0  0  0
 20 11  1  0  0  0  0
 21 20  1  0  0  0  0
 21 23  1  0  0  0  0
 23 22  1  0  0  0  0
 24  1  1  0  0  0  0
 25 26  1  0  0  0  0
 25 24  1  0  0  0  0
 27 28  1  0  0  0  0
 28 26  1  0  0  0  0
 29 28  1  0  0  0  0
 30 31  1  1  0  0  0
 30 32  1  0  0  0  0
 30 29  1  0  0  0  0
 32 27  1  0  0  0  0
 34 33  1  0  0  0  0
 34 35  1  0  0  0  0
 35 37  1  0  0  0  0
 35 36  1  0  0  0  0
M  END
>  <MODEL>
3

>  <REMARK>
 VINA RESULT:      -8.4      1.990      6.067
  Name = 
  11 active torsions:
  status: ('A' for Active; 'I' for Inactive)
    1  A    between atoms: C_1  and  C_2
    2  A    between atoms: C_1  and  O_32
    3  A    between atoms: C_3  and  N_26
    4  A    between atoms: C_6  and  N_19
    5  A    between atoms: C_6  and  C_36
    6  A    between atoms: C_12  and  N_21
    7  A    between atoms: C_13  and  O_32
    8  A    between atoms: N_14  and  C_37
    9  A    between atoms: N_19  and  C_24
   10  A    between atoms: N_26  and  C_28
   11  A    between atoms: C_28  and  C_37
                            x       y       z     vdW  Elec       q    Type
                         _______ _______ _______ _____ _____    ______ ____

>  <TORSDO>
F 11

$$$$
=
 OpenBabel10232412373D

 37 41  0  0  1  0  0  0  0  0999 V2000
  187.6220  178.4020  140.2150 C   0  0  0  0  0  0  0  0  0  0  0  0
  185.1650  178.3770  146.2790 C   0  0  0  0  0  3  0  0  0  0  0  0
  186.5200  178.5750  139.3840 C   0  0  0  0  0  3  0  0  0  0  0  0
  185.0410  178.6450  141.2410 C   0  0  0  0  0  0  0  0  0  0  0  0
  184.1620  178.5470  145.3240 C   0  0  0  0  0  3  0  0  0  0  0  0
  185.8230  178.4260  143.5390 C   0  0  0  0  0  0  0  0  0  0  0  0
  186.5010  178.2340  145.8830 C   0  0  0  0  0  0  0  0  0  0  0  0
  187.4210  178.2860  141.6120 C   0  0  0  0  0  0  0  0  0  0  0  0
  183.4880  178.7430  143.0550 N   0  0  0  0  0  0  0  0  0  0  0  0
  186.8150  178.2620  144.5190 C   0  0  0  0  0  3  0  0  0  0  0  0
  183.7310  178.7810  141.7190 C   0  0  0  0  0  0  0  0  0  0  0  0
  185.2730  178.6830  139.9030 N   0  0  0  0  0  0  0  0  0  0  0  0
  184.4800  178.5740  143.9630 C   0  0  0  0  0  0  0  0  0  0  0  0
  186.1150  178.4590  142.1480 C   0  0  0  0  0  0  0  0  0  0  0  0
  188.5340  178.0770  148.7810 N   0  0  0  0  0  0  0  0  0  0  0  0
  188.7580  177.5370  146.6530 C   0  0  0  0  0  3  0  0  0  0  0  0
  187.5320  178.0530  146.8640 N   0  0  0  0  0  0  0  0  0  0  0  0
  189.3950  177.5550  147.8820 C   0  0  0  0  0  3  0  0  0  0  0  0
  187.4160  178.3700  148.1410 N   0  0  0  0  0  0  0  0  0  0  0  0
  182.6490  178.9600  140.8010 N   0  0  0  0  0  2  0  0  0  0  0  0
  181.6450  177.9340  140.5740 C   0  0  0  0  0  2  0  0  0  0  0  0
  182.7230  175.9960  139.6960 O   0  0  0  0  0  1  0  0  0  0  0  0
  181.9970  177.1310  139.3360 C   0  0  0  0  0  2  0  0  0  0  0  0
  188.9210  178.4020  139.6040 N   0  0  0  0  0  2  0  0  0  0  0  0
  189.1750  178.5450  138.1770 C   0  0  0  0  0  2  0  0  0  0  0  0
  189.6860  177.2330  137.6050 C   0  0  0  0  0  2  0  0  0  0  0  0
  188.0910  177.9690  136.0540 C   0  0  0  0  0  2  0  0  0  0  0  0
  188.8300  176.8020  136.5130 N   0  0  0  0  0  0  0  0  0  0  0  0
  187.8330  175.9070  137.0860 C   0  0  0  0  0  2  0  0  0  0  0  0
  186.4790  176.2660  136.5050 C   0  0  2  0  0  3  0  0  0  0  0  0
  185.9900  175.1430  135.6120 C   0  0  0  0  0  1  0  0  0  0  0  0
  186.7060  177.5040  135.6760 C   0  0  0  0  0  2  0  0  0  0  0  0
  188.4910  177.9730  142.4570 O   0  0  0  0  0  0  0  0  0  0  0  0
  189.3040  176.8200  142.2580 C   0  0  0  0  0  2  0  0  0  0  0  0
  190.7300  177.0790  142.7170 C   0  0  0  0  0  3  0  0  0  0  0  0
  191.1730  175.9550  143.6280 C   0  0  0  0  0  1  0  0  0  0  0  0
  190.8100  178.3910  143.4720 C   0  0  0  0  0  1  0  0  0  0  0  0
  1  8  1  0  0  0  0
  3 12  1  0  0  0  0
  3  1  2  0  0  0  0
  4 11  1  0  0  0  0
  4 14  1  0  0  0  0
  5  2  2  0  0  0  0
  6 13  2  0  0  0  0
  6 10  1  0  0  0  0
  7  2  1  0  0  0  0
  7 17  1  0  0  0  0
  8 14  2  0  0  0  0
  8 33  1  0  0  0  0
  9 13  1  0  0  0  0
 10  7  2  0  0  0  0
 11  9  2  0  0  0  0
 12  4  2  0  0  0  0
 13  5  1  0  0  0  0
 14  6  1  0  0  0  0
 16 17  1  0  0  0  0
 16 18  2  0  0  0  0
 17 19  1  0  0  0  0
 18 15  1  0  0  0  0
 19 15  2  0  0  0  0
 20 11  1  0  0  0  0
 21 20  1  0  0  0  0
 23 22  1  0  0  0  0
 23 21  1  0  0  0  0
 24  1  1  0  0  0  0
 25 24  1  0  0  0  0
 26 25  1  0  0  0  0
 27 28  1  0  0  0  0
 28 29  1  0  0  0  0
 28 26  1  0  0  0  0
 30 31  1  6  0  0  0
 30 29  1  0  0  0  0
 32 27  1  0  0  0  0
 32 30  1  0  0  0  0
 34 33  1  0  0  0  0
 34 35  1  0  0  0  0
 35 37  1  0  0  0  0
 35 36  1  0  0  0  0
M  END
>  <MODEL>
4

>  <REMARK>
 VINA RESULT:      -8.3      2.406      6.227
  Name = 
  11 active torsions:
  status: ('A' for Active; 'I' for Inactive)
    1  A    between atoms: C_1  and  C_2
    2  A    between atoms: C_1  and  O_32
    3  A    between atoms: C_3  and  N_26
    4  A    between atoms: C_6  and  N_19
    5  A    between atoms: C_6  and  C_36
    6  A    between atoms: C_12  and  N_21
    7  A    between atoms: C_13  and  O_32
    8  A    between atoms: N_14  and  C_37
    9  A    between atoms: N_19  and  C_24
   10  A    between atoms: N_26  and  C_28
   11  A    between atoms: C_28  and  C_37
                            x       y       z     vdW  Elec       q    Type
                         _______ _______ _______ _____ _____    ______ ____

>  <TORSDO>
F 11

$$$$
=
 OpenBabel10232412373D

 37 41  0  0  1  0  0  0  0  0999 V2000
  186.4710  178.4140  140.3970 C   0  0  0  0  0  0  0  0  0  0  0  0
  187.0040  177.7900  146.8870 C   0  0  0  0  0  3  0  0  0  0  0  0
  185.1490  178.7910  140.1810 C   0  0  0  0  0  3  0  0  0  0  0  0
  184.6810  178.7390  142.5090 C   0  0  0  0  0  0  0  0  0  0  0  0
  185.7140  178.1720  146.5170 C   0  0  0  0  0  3  0  0  0  0  0  0
  186.3680  178.1490  144.1650 C   0  0  0  0  0  0  0  0  0  0  0  0
  187.9880  177.5870  145.9120 C   0  0  0  0  0  0  0  0  0  0  0  0
  186.9010  178.1310  141.7150 C   0  0  0  0  0  0  0  0  0  0  0  0
  184.1320  178.7260  144.8350 N   0  0  0  0  0  0  0  0  0  0  0  0
  187.6600  177.7700  144.5630 C   0  0  0  0  0  3  0  0  0  0  0  0
  183.7550  178.9220  143.5450 C   0  0  0  0  0  0  0  0  0  0  0  0
  184.2930  178.9360  141.2220 N   0  0  0  0  0  0  0  0  0  0  0  0
  185.3910  178.3530  145.1690 C   0  0  0  0  0  0  0  0  0  0  0  0
  186.0100  178.3420  142.8040 C   0  0  0  0  0  0  0  0  0  0  0  0
  191.4410  176.8240  146.1490 N   0  0  0  0  0  0  0  0  0  0  0  0
  189.6900  176.6940  147.4870 C   0  0  0  0  0  3  0  0  0  0  0  0
  189.3130  177.1890  146.2920 N   0  0  0  0  0  0  0  0  0  0  0  0
  191.0510  176.4620  147.3900 C   0  0  0  0  0  3  0  0  0  0  0  0
  190.3720  177.2600  145.5060 N   0  0  0  0  0  0  0  0  0  0  0  0
  182.4130  179.3140  143.2430 N   0  0  0  0  0  2  0  0  0  0  0  0
  181.2660  178.7680  143.9500 C   0  0  0  0  0  2  0  0  0  0  0  0
  180.1270  180.6290  142.9870 O   0  0  0  0  0  1  0  0  0  0  0  0
  179.9820  179.2850  143.3300 C   0  0  0  0  0  2  0  0  0  0  0  0
  187.3460  178.3850  139.2590 N   0  0  0  0  0  2  0  0  0  0  0  0
  186.9710  177.9370  137.9250 C   0  0  0  0  0  2  0  0  0  0  0  0
  188.0960  177.1160  137.3160 C   0  0  0  0  0  2  0  0  0  0  0  0
  188.8770  174.9540  136.8610 C   0  0  0  0  0  2  0  0  0  0  0  0
  187.9220  175.7140  137.6540 N   0  0  0  0  0  0  0  0  0  0  0  0
  186.6070  175.3210  137.1650 C   0  0  0  0  0  2  0  0  0  0  0  0
  186.7340  173.9720  136.4840 C   0  0  2  0  0  3  0  0  0  0  0  0
  186.0020  172.9190  137.2910 C   0  0  0  0  0  1  0  0  0  0  0  0
  188.2080  173.6600  136.4680 C   0  0  0  0  0  2  0  0  0  0  0  0
  188.1820  177.6170  141.9470 O   0  0  0  0  0  0  0  0  0  0  0  0
  189.3590  178.3960  141.7530 C   0  0  0  0  0  2  0  0  0  0  0  0
  190.5640  177.5010  141.5090 C   0  0  0  0  0  3  0  0  0  0  0  0
  190.6230  177.1320  140.0430 C   0  0  0  0  0  1  0  0  0  0  0  0
  190.4550  176.2340  142.3350 C   0  0  0  0  0  1  0  0  0  0  0  0
  1  8  1  0  0  0  0
  3  1  2  0  0  0  0
  3 12  1  0  0  0  0
  4 14  1  0  0  0  0
  4 11  1  0  0  0  0
  5  2  1  0  0  0  0
  6 10  2  0  0  0  0
  6 13  1  0  0  0  0
  7 17  1  0  0  0  0
  7  2  2  0  0  0  0
  8 33  1  0  0  0  0
  8 14  2  0  0  0  0
  9 13  1  0  0  0  0
 10  7  1  0  0  0  0
 11  9  2  0  0  0  0
 12  4  2  0  0  0  0
 13  5  2  0  0  0  0
 14  6  1  0  0  0  0
 15 18  1  0  0  0  0
 17 16  1  0  0  0  0
 18 16  2  0  0  0  0
 19 15  2  0  0  0  0
 19 17  1  0  0  0  0
 20 11  1  0  0  0  0
 20 21  1  0  0  0  0
 22 23  1  0  0  0  0
 23 21  1  0  0  0  0
 24  1  1  0  0  0  0
 25 24  1  0  0  0  0
 26 28  1  0  0  0  0
 26 25  1  0  0  0  0
 27 28  1  0  0  0  0
 29 28  1  0  0  0  0
 30 29  1  0  0  0  0
 30 31  1  1  0  0  0
 32 30  1  0  0  0  0
 32 27  1  0  0  0  0
 34 33  1  0  0  0  0
 35 34  1  0  0  0  0
 35 37  1  0  0  0  0
 36 35  1  0  0  0  0
M  END
>  <MODEL>
5

>  <REMARK>
 VINA RESULT:      -8.2      2.264      6.262
  Name = 
  11 active torsions:
  status: ('A' for Active; 'I' for Inactive)
    1  A    between atoms: C_1  and  C_2
    2  A    between atoms: C_1  and  O_32
    3  A    between atoms: C_3  and  N_26
    4  A    between atoms: C_6  and  N_19
    5  A    between atoms: C_6  and  C_36
    6  A    between atoms: C_12  and  N_21
    7  A    between atoms: C_13  and  O_32
    8  A    between atoms: N_14  and  C_37
    9  A    between atoms: N_19  and  C_24
   10  A    between atoms: N_26  and  C_28
   11  A    between atoms: C_28  and  C_37
                            x       y       z     vdW  Elec       q    Type
                         _______ _______ _______ _____ _____    ______ ____

>  <TORSDO>
F 11

$$$$
=
 OpenBabel10232412373D

 37 41  0  0  1  0  0  0  0  0999 V2000
  185.7960  178.7870  140.9470 C   0  0  0  0  0  0  0  0  0  0  0  0
  191.4190  176.9230  143.7240 C   0  0  0  0  0  3  0  0  0  0  0  0
  186.0460  178.7570  139.5790 C   0  0  0  0  0  3  0  0  0  0  0  0
  188.2860  178.0510  139.9320 C   0  0  0  0  0  0  0  0  0  0  0  0
  191.5190  176.9390  142.3320 C   0  0  0  0  0  3  0  0  0  0  0  0
  189.2030  177.6910  142.1610 C   0  0  0  0  0  0  0  0  0  0  0  0
  190.2190  177.2840  144.3500 C   0  0  0  0  0  0  0  0  0  0  0  0
  186.8490  178.4940  141.8470 C   0  0  0  0  0  0  0  0  0  0  0  0
  190.5460  177.3230  140.2000 N   0  0  0  0  0  0  0  0  0  0  0  0
  189.1250  177.6610  143.5620 C   0  0  0  0  0  3  0  0  0  0  0  0
  189.5200  177.6770  139.3840 C   0  0  0  0  0  0  0  0  0  0  0  0
  187.2660  178.4040  139.1070 N   0  0  0  0  0  0  0  0  0  0  0  0
  190.4250  177.3180  141.5500 C   0  0  0  0  0  0  0  0  0  0  0  0
  188.1070  178.0690  141.3380 C   0  0  0  0  0  0  0  0  0  0  0  0
  190.6870  177.0240  147.8530 N   0  0  0  0  0  0  0  0  0  0  0  0
  189.0390  177.6160  146.5110 C   0  0  0  0  0  3  0  0  0  0  0  0
  190.1170  177.2730  145.7810 N   0  0  0  0  0  0  0  0  0  0  0  0
  189.4080  177.4550  147.8350 C   0  0  0  0  0  3  0  0  0  0  0  0
  191.0930  176.9230  146.6000 N   0  0  0  0  0  0  0  0  0  0  0  0
  189.6990  177.6670  137.9640 N   0  0  0  0  0  2  0  0  0  0  0  0
  189.5550  176.4570  137.1720 C   0  0  0  0  0  2  0  0  0  0  0  0
  190.8460  174.6780  138.0970 O   0  0  0  0  0  1  0  0  0  0  0  0
  190.8670  175.6970  137.1450 C   0  0  0  0  0  2  0  0  0  0  0  0
  184.4530  179.0670  141.3700 N   0  0  0  0  0  2  0  0  0  0  0  0
  183.3030  178.2050  141.1340 C   0  0  0  0  0  2  0  0  0  0  0  0
  182.4120  178.8080  140.0610 C   0  0  0  0  0  2  0  0  0  0  0  0
  182.5520  176.5170  139.5880 C   0  0  0  0  0  2  0  0  0  0  0  0
  182.0420  177.7880  139.0950 N   0  0  0  0  0  0  0  0  0  0  0  0
  182.7940  178.0650  137.8780 C   0  0  0  0  0  2  0  0  0  0  0  0
  183.3500  176.7570  137.3500 C   0  0  2  0  0  3  0  0  0  0  0  0
  182.6710  176.4020  136.0430 C   0  0  0  0  0  1  0  0  0  0  0  0
  183.0110  175.7210  138.3910 C   0  0  0  0  0  2  0  0  0  0  0  0
  186.6650  178.6510  143.2260 O   0  0  0  0  0  0  0  0  0  0  0  0
  185.6500  177.9520  143.9410 C   0  0  0  0  0  2  0  0  0  0  0  0
  184.9890  178.8610  144.9650 C   0  0  0  0  0  3  0  0  0  0  0  0
  185.3840  178.4150  146.3560 C   0  0  0  0  0  1  0  0  0  0  0  0
  183.4800  178.7930  144.8330 C   0  0  0  0  0  1  0  0  0  0  0  0
  1 24  1  0  0  0  0
  1  8  1  0  0  0  0
  2  7  1  0  0  0  0
  3  1  2  0  0  0  0
  4 14  1  0  0  0  0
  5  2  2  0  0  0  0
  6 10  1  0  0  0  0
  7 17  1  0  0  0  0
  8 33  1  0  0  0  0
  9 13  1  0  0  0  0
 10  7  2  0  0  0  0
 11  4  1  0  0  0  0
 11  9  2  0  0  0  0
 12  3  1  0  0  0  0
 12  4  2  0  0  0  0
 13  6  2  0  0  0  0
 13  5  1  0  0  0  0
 14  8  2  0  0  0  0
 14  6  1  0  0  0  0
 16 18  2  0  0  0  0
 17 16  1  0  0  0  0
 17 19  1  0  0  0  0
 18 15  1  0  0  0  0
 19 15  2  0  0  0  0
 20 11  1  0  0  0  0
 21 20  1  0  0  0  0
 23 21  1  0  0  0  0
 23 22  1  0  0  0  0
 25 24  1  0  0  0  0
 26 25  1  0  0  0  0
 28 27  1  0  0  0  0
 28 26  1  0  0  0  0
 29 28  1  0  0  0  0
 30 31  1  6  0  0  0
 30 29  1  0  0  0  0
 30 32  1  0  0  0  0
 32 27  1  0  0  0  0
 33 34  1  0  0  0  0
 34 35  1  0  0  0  0
 35 36  1  0  0  0  0
 37 35  1  0  0  0  0
M  END
>  <MODEL>
6

>  <REMARK>
 VINA RESULT:      -8.0      2.224      7.378
  Name = 
  11 active torsions:
  status: ('A' for Active; 'I' for Inactive)
    1  A    between atoms: C_1  and  C_2
    2  A    between atoms: C_1  and  O_32
    3  A    between atoms: C_3  and  N_26
    4  A    between atoms: C_6  and  N_19
    5  A    between atoms: C_6  and  C_36
    6  A    between atoms: C_12  and  N_21
    7  A    between atoms: C_13  and  O_32
    8  A    between atoms: N_14  and  C_37
    9  A    between atoms: N_19  and  C_24
   10  A    between atoms: N_26  and  C_28
   11  A    between atoms: C_28  and  C_37
                            x       y       z     vdW  Elec       q    Type
                         _______ _______ _______ _____ _____    ______ ____

>  <TORSDO>
F 11

$$$$
=
 OpenBabel10232412373D

 37 41  0  0  1  0  0  0  0  0999 V2000
  186.2240  178.6950  140.4280 C   0  0  0  0  0  0  0  0  0  0  0  0
  190.6630  176.8510  144.8660 C   0  0  0  0  0  3  0  0  0  0  0  0
  186.8350  178.4730  139.1980 C   0  0  0  0  0  3  0  0  0  0  0  0
  188.8130  177.6770  140.2440 C   0  0  0  0  0  0  0  0  0  0  0  0
  191.1420  176.6810  143.5660 C   0  0  0  0  0  3  0  0  0  0  0  0
  189.0450  177.5500  142.6660 C   0  0  0  0  0  0  0  0  0  0  0  0
  189.3790  177.3650  145.0840 C   0  0  0  0  0  0  0  0  0  0  0  0
  186.9560  178.4540  141.6150 C   0  0  0  0  0  0  0  0  0  0  0  0
  190.8320  176.8470  141.2170 N   0  0  0  0  0  0  0  0  0  0  0  0
  188.5840  177.7060  143.9830 C   0  0  0  0  0  3  0  0  0  0  0  0
  190.1080  177.1570  140.1110 C   0  0  0  0  0  0  0  0  0  0  0  0
  188.0970  177.9850  139.1310 N   0  0  0  0  0  0  0  0  0  0  0  0
  190.3460  177.0240  142.4700 C   0  0  0  0  0  0  0  0  0  0  0  0
  188.2590  177.8880  141.5320 C   0  0  0  0  0  0  0  0  0  0  0  0
  187.4910  177.8370  148.0460 N   0  0  0  0  0  0  0  0  0  0  0  0
  189.6250  177.5810  147.5470 C   0  0  0  0  0  3  0  0  0  0  0  0
  188.8890  177.5450  146.4200 N   0  0  0  0  0  0  0  0  0  0  0  0
  188.7270  177.7680  148.5830 C   0  0  0  0  0  3  0  0  0  0  0  0
  187.6160  177.7000  146.7380 N   0  0  0  0  0  0  0  0  0  0  0  0
  190.6670  176.9530  138.8100 N   0  0  0  0  0  2  0  0  0  0  0  0
  191.4350  175.7660  138.4720 C   0  0  0  0  0  2  0  0  0  0  0  0
  193.4900  176.8710  138.9630 O   0  0  0  0  0  1  0  0  0  0  0  0
  192.8100  176.1660  137.9710 C   0  0  0  0  0  2  0  0  0  0  0  0
  184.8510  179.1120  140.4200 N   0  0  0  0  0  2  0  0  0  0  0  0
  184.0110  179.2090  139.2340 C   0  0  0  0  0  2  0  0  0  0  0  0
  182.5890  178.7870  139.5670 C   0  0  0  0  0  2  0  0  0  0  0  0
  182.4860  176.4480  139.4860 C   0  0  0  0  0  2  0  0  0  0  0  0
  182.2000  177.6610  138.7360 N   0  0  0  0  0  0  0  0  0  0  0  0
  183.1100  177.6410  137.5980 C   0  0  0  0  0  2  0  0  0  0  0  0
  183.5490  176.2090  137.3610 C   0  0  2  0  0  3  0  0  0  0  0  0
  182.9780  175.7080  136.0500 C   0  0  0  0  0  1  0  0  0  0  0  0
  182.9680  175.4120  138.5000 C   0  0  0  0  0  2  0  0  0  0  0  0
  186.4190  178.7980  142.8600 O   0  0  0  0  0  0  0  0  0  0  0  0
  185.3350  178.0810  143.4440 C   0  0  0  0  0  2  0  0  0  0  0  0
  184.3640  179.0320  144.1260 C   0  0  0  0  0  3  0  0  0  0  0  0
  184.3950  178.7890  145.6190 C   0  0  0  0  0  1  0  0  0  0  0  0
  182.9550  178.8010  143.6160 C   0  0  0  0  0  1  0  0  0  0  0  0
  1  8  1  0  0  0  0
  2  7  1  0  0  0  0
  3  1  2  0  0  0  0
  4 14  1  0  0  0  0
  5  2  2  0  0  0  0
  6 10  1  0  0  0  0
  7 17  1  0  0  0  0
  8 33  1  0  0  0  0
  9 13  1  0  0  0  0
 10  7  2  0  0  0  0
 11  4  1  0  0  0  0
 11  9  2  0  0  0  0
 12  3  1  0  0  0  0
 12  4  2  0  0  0  0
 13  6  2  0  0  0  0
 13  5  1  0  0  0  0
 14  8  2  0  0  0  0
 14  6  1  0  0  0  0
 15 18  1  0  0  0  0
 16 18  2  0  0  0  0
 17 19  1  0  0  0  0
 17 16  1  0  0  0  0
 19 15  2  0  0  0  0
 20 11  1  0  0  0  0
 21 20  1  0  0  0  0
 23 21  1  0  0  0  0
 23 22  1  0  0  0  0
 24  1  1  0  0  0  0
 25 26  1  0  0  0  0
 25 24  1  0  0  0  0
 28 27  1  0  0  0  0
 28 26  1  0  0  0  0
 29 28  1  0  0  0  0
 30 31  1  6  0  0  0
 30 29  1  0  0  0  0
 30 32  1  0  0  0  0
 32 27  1  0  0  0  0
 33 34  1  0  0  0  0
 34 35  1  0  0  0  0
 35 36  1  0  0  0  0
 37 35  1  0  0  0  0
M  END
>  <MODEL>
7

>  <REMARK>
 VINA RESULT:      -8.0      2.485      6.789
  Name = 
  11 active torsions:
  status: ('A' for Active; 'I' for Inactive)
    1  A    between atoms: C_1  and  C_2
    2  A    between atoms: C_1  and  O_32
    3  A    between atoms: C_3  and  N_26
    4  A    between atoms: C_6  and  N_19
    5  A    between atoms: C_6  and  C_36
    6  A    between atoms: C_12  and  N_21
    7  A    between atoms: C_13  and  O_32
    8  A    between atoms: N_14  and  C_37
    9  A    between atoms: N_19  and  C_24
   10  A    between atoms: N_26  and  C_28
   11  A    between atoms: C_28  and  C_37
                            x       y       z     vdW  Elec       q    Type
                         _______ _______ _______ _____ _____    ______ ____

>  <TORSDO>
F 11

$$$$
=
 OpenBabel10232412373D

 37 41  0  0  1  0  0  0  0  0999 V2000
  190.2570  177.9530  142.1140 C   0  0  0  0  0  0  0  0  0  0  0  0
  186.3490  177.7650  136.8710 C   0  0  0  0  0  3  0  0  0  0  0  0
  191.4670  177.4230  141.6770 C   0  0  0  0  0  3  0  0  0  0  0  0
  190.6070  177.0760  139.4910 C   0  0  0  0  0  0  0  0  0  0  0  0
  187.6170  177.2590  136.5790 C   0  0  0  0  0  3  0  0  0  0  0  0
  188.3210  177.6620  138.8820 C   0  0  0  0  0  0  0  0  0  0  0  0
  186.0520  178.2260  138.1590 C   0  0  0  0  0  0  0  0  0  0  0  0
  189.1600  177.9940  141.2210 C   0  0  0  0  0  0  0  0  0  0  0  0
  189.8240  176.7110  137.2630 N   0  0  0  0  0  0  0  0  0  0  0  0
  187.0410  178.1720  139.1490 C   0  0  0  0  0  3  0  0  0  0  0  0
  190.8240  176.6350  138.1790 C   0  0  0  0  0  0  0  0  0  0  0  0
  191.6130  176.9950  140.4000 N   0  0  0  0  0  0  0  0  0  0  0  0
  188.6000  177.2050  137.5710 C   0  0  0  0  0  0  0  0  0  0  0  0
  189.3430  177.5960  139.8680 C   0  0  0  0  0  0  0  0  0  0  0  0
  183.2070  180.1360  139.0640 N   0  0  0  0  0  0  0  0  0  0  0  0
  183.5800  178.0770  138.3610 C   0  0  0  0  0  3  0  0  0  0  0  0
  184.7470  178.7420  138.4600 N   0  0  0  0  0  0  0  0  0  0  0  0
  182.5980  178.9730  138.7480 C   0  0  0  0  0  3  0  0  0  0  0  0
  184.5050  179.9700  138.8810 N   0  0  0  0  0  0  0  0  0  0  0  0
  192.0990  176.1040  137.8040 N   0  0  0  0  0  2  0  0  0  0  0  0
  192.2760  175.2640  136.6310 C   0  0  0  0  0  2  0  0  0  0  0  0
  194.2900  176.5410  136.5940 O   0  0  0  0  0  1  0  0  0  0  0  0
  193.4380  175.7750  135.8000 C   0  0  0  0  0  2  0  0  0  0  0  0
  190.2080  178.4830  143.4470 N   0  0  0  0  0  2  0  0  0  0  0  0
  191.0280  178.0270  144.5610 C   0  0  0  0  0  2  0  0  0  0  0  0
  190.1910  177.1930  145.5170 C   0  0  0  0  0  2  0  0  0  0  0  0
  189.5860  177.6690  147.7300 C   0  0  0  0  0  2  0  0  0  0  0  0
  189.3730  178.0620  146.3450 N   0  0  0  0  0  0  0  0  0  0  0  0
  187.9830  177.7370  146.0560 C   0  0  0  0  0  2  0  0  0  0  0  0
  187.2260  177.6610  147.3680 C   0  0  2  0  0  3  0  0  0  0  0  0
  186.2350  178.8040  147.4550 C   0  0  0  0  0  1  0  0  0  0  0  0
  188.2670  177.8140  148.4470 C   0  0  0  0  0  2  0  0  0  0  0  0
  187.8960  178.3920  141.6710 O   0  0  0  0  0  0  0  0  0  0  0  0
  187.1520  177.6290  142.6170 C   0  0  0  0  0  2  0  0  0  0  0  0
  185.6960  178.0680  142.6380 C   0  0  0  0  0  3  0  0  0  0  0  0
  185.5920  179.4760  142.0950 C   0  0  0  0  0  1  0  0  0  0  0  0
  185.1590  178.0420  144.0560 C   0  0  0  0  0  1  0  0  0  0  0  0
  1 24  1  0  0  0  0
  2  7  1  0  0  0  0
  3  1  1  0  0  0  0
  4 14  2  0  0  0  0
  4 12  1  0  0  0  0
  5  2  2  0  0  0  0
  5 13  1  0  0  0  0
  6 10  1  0  0  0  0
  6 14  1  0  0  0  0
  7 17  1  0  0  0  0
  7 10  2  0  0  0  0
  8 33  1  0  0  0  0
  8  1  2  0  0  0  0
  9 13  1  0  0  0  0
  9 11  2  0  0  0  0
 11  4  1  0  0  0  0
 12  3  2  0  0  0  0
 13  6  2  0  0  0  0
 14  8  1  0  0  0  0
 16 17  1  0  0  0  0
 16 18  2  0  0  0  0
 17 19  1  0  0  0  0
 18 15  1  0  0  0  0
 19 15  2  0  0  0  0
 20 11  1  0  0  0  0
 21 20  1  0  0  0  0
 23 22  1  0  0  0  0
 23 21  1  0  0  0  0
 24 25  1  0  0  0  0
 25 26  1  0  0  0  0
 26 28  1  0  0  0  0
 27 32  1  0  0  0  0
 28 27  1  0  0  0  0
 29 28  1  0  0  0  0
 29 30  1  0  0  0  0
 30 31  1  6  0  0  0
 30 32  1  0  0  0  0
 33 34  1  0  0  0  0
 34 35  1  0  0  0  0
 35 37  1  0  0  0  0
 36 35  1  0  0  0  0
M  END
>  <MODEL>
8

>  <REMARK>
 VINA RESULT:      -7.9      2.434      7.303
  Name = 
  11 active torsions:
  status: ('A' for Active; 'I' for Inactive)
    1  A    between atoms: C_1  and  C_2
    2  A    between atoms: C_1  and  O_32
    3  A    between atoms: C_3  and  N_26
    4  A    between atoms: C_6  and  N_19
    5  A    between atoms: C_6  and  C_36
    6  A    between atoms: C_12  and  N_21
    7  A    between atoms: C_13  and  O_32
    8  A    between atoms: N_14  and  C_37
    9  A    between atoms: N_19  and  C_24
   10  A    between atoms: N_26  and  C_28
   11  A    between atoms: C_28  and  C_37
                            x       y       z     vdW  Elec       q    Type
                         _______ _______ _______ _____ _____    ______ ____

>  <TORSDO>
F 11

$$$$
=
 OpenBabel10232412373D

 37 41  0  0  1  0  0  0  0  0999 V2000
  190.8370  177.2630  141.1630 C   0  0  0  0  0  0  0  0  0  0  0  0
  185.4980  178.1410  144.8410 C   0  0  0  0  0  3  0  0  0  0  0  0
  191.8760  177.1030  142.0750 C   0  0  0  0  0  3  0  0  0  0  0  0
  190.3970  177.3610  143.9150 C   0  0  0  0  0  0  0  0  0  0  0  0
  186.6350  177.9630  145.6300 C   0  0  0  0  0  3  0  0  0  0  0  0
  188.0090  177.7470  143.6230 C   0  0  0  0  0  0  0  0  0  0  0  0
  185.5960  178.1220  143.4450 C   0  0  0  0  0  0  0  0  0  0  0  0
  189.5350  177.5410  141.6440 C   0  0  0  0  0  0  0  0  0  0  0  0
  188.9740  177.5930  145.8200 N   0  0  0  0  0  0  0  0  0  0  0  0
  186.8490  177.9230  142.8510 C   0  0  0  0  0  3  0  0  0  0  0  0
  190.2140  177.3940  145.3040 C   0  0  0  0  0  0  0  0  0  0  0  0
  191.6420  177.1630  143.4080 N   0  0  0  0  0  0  0  0  0  0  0  0
  187.8840  177.7670  145.0330 C   0  0  0  0  0  0  0  0  0  0  0  0
  189.2910  177.5430  143.0460 C   0  0  0  0  0  0  0  0  0  0  0  0
  182.3890  178.7940  142.0950 N   0  0  0  0  0  0  0  0  0  0  0  0
  184.3350  178.1170  141.3040 C   0  0  0  0  0  3  0  0  0  0  0  0
  184.4280  178.3100  142.6340 N   0  0  0  0  0  0  0  0  0  0  0  0
  183.0290  178.4280  140.9650 C   0  0  0  0  0  3  0  0  0  0  0  0
  183.2560  178.7150  143.0890 N   0  0  0  0  0  0  0  0  0  0  0  0
  191.3330  177.2180  146.1770 N   0  0  0  0  0  2  0  0  0  0  0  0
  191.2080  176.5930  147.4830 C   0  0  0  0  0  2  0  0  0  0  0  0
  193.2260  176.1480  148.6740 O   0  0  0  0  0  1  0  0  0  0  0  0
  192.3600  175.6330  147.7100 C   0  0  0  0  0  2  0  0  0  0  0  0
  191.1410  177.0820  139.7720 N   0  0  0  0  0  2  0  0  0  0  0  0
  192.4820  176.9740  139.2140 C   0  0  0  0  0  2  0  0  0  0  0  0
  192.4900  175.9770  138.0670 C   0  0  0  0  0  2  0  0  0  0  0  0
  193.3640  175.8990  135.8940 C   0  0  0  0  0  2  0  0  0  0  0  0
  193.7080  176.1280  137.2890 N   0  0  0  0  0  0  0  0  0  0  0  0
  194.5860  175.0270  137.6620 C   0  0  0  0  0  2  0  0  0  0  0  0
  195.1950  174.4530  136.3970 C   0  0  2  0  0  3  0  0  0  0  0  0
  196.6840  174.7380  136.3700 C   0  0  0  0  0  1  0  0  0  0  0  0
  194.5240  175.1740  135.2580 C   0  0  0  0  0  2  0  0  0  0  0  0
  188.5000  177.8430  140.7510 O   0  0  0  0  0  0  0  0  0  0  0  0
  188.7410  178.4680  139.4940 C   0  0  0  0  0  2  0  0  0  0  0  0
  188.0930  177.6790  138.3670 C   0  0  0  0  0  3  0  0  0  0  0  0
  188.7960  178.0000  137.0660 C   0  0  0  0  0  1  0  0  0  0  0  0
  186.6270  178.0470  138.2420 C   0  0  0  0  0  1  0  0  0  0  0  0
  1  8  2  0  0  0  0
  1  3  1  0  0  0  0
  2  5  1  0  0  0  0
  3 12  2  0  0  0  0
  4 11  1  0  0  0  0
  6 13  1  0  0  0  0
  7  2  2  0  0  0  0
  8 14  1  0  0  0  0
 10  7  1  0  0  0  0
 10  6  2  0  0  0  0
 11  9  2  0  0  0  0
 11 20  1  0  0  0  0
 12  4  1  0  0  0  0
 13  5  2  0  0  0  0
 13  9  1  0  0  0  0
 14  6  1  0  0  0  0
 14  4  2  0  0  0  0
 15 19  2  0  0  0  0
 16 17  1  0  0  0  0
 17 19  1  0  0  0  0
 17  7  1  0  0  0  0
 18 16  2  0  0  0  0
 18 15  1  0  0  0  0
 20 21  1  0  0  0  0
 21 23  1  0  0  0  0
 23 22  1  0  0  0  0
 24  1  1  0  0  0  0
 25 24  1  0  0  0  0
 26 25  1  0  0  0  0
 27 28  1  0  0  0  0
 28 29  1  0  0  0  0
 28 26  1  0  0  0  0
 30 31  1  1  0  0  0
 30 29  1  0  0  0  0
 32 27  1  0  0  0  0
 32 30  1  0  0  0  0
 33  8  1  0  0  0  0
 34 33  1  0  0  0  0
 35 34  1  0  0  0  0
 36 35  1  0  0  0  0
 37 35  1  0  0  0  0
M  END
>  <MODEL>
9

>  <REMARK>
 VINA RESULT:      -7.9      1.548      2.137
  Name = 
  11 active torsions:
  status: ('A' for Active; 'I' for Inactive)
    1  A    between atoms: C_1  and  C_2
    2  A    between atoms: C_1  and  O_32
    3  A    between atoms: C_3  and  N_26
    4  A    between atoms: C_6  and  N_19
    5  A    between atoms: C_6  and  C_36
    6  A    between atoms: C_12  and  N_21
    7  A    between atoms: C_13  and  O_32
    8  A    between atoms: N_14  and  C_37
    9  A    between atoms: N_19  and  C_24
   10  A    between atoms: N_26  and  C_28
   11  A    between atoms: C_28  and  C_37
                            x       y       z     vdW  Elec       q    Type
                         _______ _______ _______ _____ _____    ______ ____

>  <TORSDO>
F 11

$$$$
