=
 OpenBabel10232409583D

 34 37  0  0  1  0  0  0  0  0999 V2000
  189.6590  177.0950  143.9040 C   0  0  0  0  0  0  0  0  0  0  0  0
  190.7240  176.9650  141.6430 C   0  0  0  0  0  3  0  0  0  0  0  0
  190.3720  176.8580  146.1320 C   0  0  0  0  0  0  0  0  0  0  0  0
  188.5420  177.3970  142.0970 C   0  0  0  0  0  0  0  0  0  0  0  0
  188.5160  177.4700  140.4230 S   0  0  0  0  0  0  0  0  0  0  0  0
  189.0370  177.1160  146.5800 C   0  0  0  0  0  0  0  0  0  0  0  0
  189.7540  177.1280  142.5690 N   0  0  0  0  0  0  0  0  0  0  0  0
  190.1920  177.1160  140.3560 C   0  0  0  0  0  0  0  0  0  0  0  0
  188.0180  177.3640  145.6330 C   0  0  0  0  0  3  0  0  0  0  0  0
  188.3630  177.3480  144.2890 C   0  0  0  0  0  0  0  0  0  0  0  0
  187.6230  177.5490  143.1210 C   0  0  0  0  0  0  0  0  0  0  0  0
  190.6530  176.8560  144.7910 N   0  0  0  0  0  0  0  0  0  0  0  0
  191.4810  176.5930  147.0740 C   0  0  0  0  0  0  0  0  0  0  0  0
  192.2860  175.4290  146.9100 N   0  0  0  0  0  1  0  0  0  0  0  0
  191.7320  177.3780  148.0260 O   0  0  0  0  0  0  0  0  0  0  0  0
  188.0910  178.2070  148.5960 C   0  0  0  0  0  1  0  0  0  0  0  0
  188.7420  177.1210  147.9500 O   0  0  0  0  0  0  0  0  0  0  0  0
  190.9860  177.0500  139.1010 C   0  0  0  0  0  2  0  0  0  0  0  0
  191.0650  175.6710  138.6440 N   0  0  0  0  0  2  0  0  0  0  0  0
  189.2660  175.9480  136.9820 C   0  0  0  0  0  3  0  0  0  0  0  0
  190.2250  175.1440  137.6150 C   0  0  0  0  0  0  0  0  0  0  0  0
  190.3610  173.8410  137.2450 N   0  0  0  0  0  0  0  0  0  0  0  0
  188.6230  174.0590  135.6200 C   0  0  0  0  0  3  0  0  0  0  0  0
  189.5880  173.2880  136.2710 C   0  0  0  0  0  3  0  0  0  0  0  0
  188.4650  175.3970  135.9800 C   0  0  0  0  0  3  0  0  0  0  0  0
  186.2310  177.8340  142.9770 N   0  0  0  0  0  2  0  0  0  0  0  0
  185.7340  179.1200  142.5120 C   0  0  0  0  0  2  0  0  0  0  0  0
  184.8920  179.7790  143.5920 C   0  0  0  0  0  2  0  0  0  0  0  0
  184.4110  178.6450  145.7380 C   0  0  0  0  0  1  0  0  0  0  0  0
  183.9960  178.7630  144.2840 C   0  0  1  0  0  3  0  0  0  0  0  0
  182.3080  178.5200  141.9870 O   0  0  0  0  0  0  0  0  0  0  0  0
  182.6070  179.1910  144.2050 N   0  0  0  0  0  2  0  0  0  0  0  0
  180.4040  179.4920  143.0210 C   0  0  0  0  0  1  0  0  0  0  0  0
  181.8170  179.0360  143.0250 C   0  0  0  0  0  0  0  0  0  0  0  0
  1 10  2  0  0  0  0
  1 12  1  0  0  0  0
  2  7  1  0  0  0  0
  3  6  1  0  0  0  0
  3 13  1  0  0  0  0
  4  7  1  0  0  0  0
  4 11  2  0  0  0  0
  5  4  1  0  0  0  0
  6 17  1  0  0  0  0
  7  1  1  0  0  0  0
  8  5  1  0  0  0  0
  8  2  2  0  0  0  0
  9  6  2  0  0  0  0
 10  9  1  0  0  0  0
 11 10  1  0  0  0  0
 12  3  2  0  0  0  0
 13 15  2  0  0  0  0
 14 13  1  0  0  0  0
 17 16  1  0  0  0  0
 18  8  1  0  0  0  0
 19 18  1  0  0  0  0
 20 21  1  0  0  0  0
 21 19  1  0  0  0  0
 22 21  2  0  0  0  0
 23 25  1  0  0  0  0
 23 24  2  0  0  0  0
 24 22  1  0  0  0  0
 25 20  2  0  0  0  0
 26 11  1  0  0  0  0
 27 26  1  0  0  0  0
 27 28  1  0  0  0  0
 28 30  1  0  0  0  0
 30 29  1  1  0  0  0
 31 34  2  0  0  0  0
 32 30  1  0  0  0  0
 33 34  1  0  0  0  0
 34 32  1  0  0  0  0
M  END
>  <MODEL>
1

>  <REMARK>
 VINA RESULT:      -8.6      0.000      0.000
  Name = 
  9 active torsions:
  status: ('A' for Active; 'I' for Inactive)
    1  A    between atoms: N_1  and  C_23
    2  A    between atoms: C_2  and  C_15
    3  A    between atoms: C_2  and  N_31
    4  A    between atoms: C_3  and  C_11
    5  A    between atoms: N_7  and  C_26
    6  A    between atoms: C_15  and  C_26
    7  A    between atoms: C_21  and  O_33
    8  A    between atoms: C_23  and  C_27
    9  A    between atoms: N_31  and  C_32
                            x       y       z     vdW  Elec       q    Type
                         _______ _______ _______ _____ _____    ______ ____

>  <TORSDO>
F 9

$$$$
=
 OpenBabel10232409583D

 34 37  0  0  1  0  0  0  0  0999 V2000
  187.9050  178.1400  140.2840 C   0  0  0  0  0  0  0  0  0  0  0  0
  189.7290  177.4770  138.7050 C   0  0  0  0  0  3  0  0  0  0  0  0
  185.6590  178.8110  140.0970 C   0  0  0  0  0  0  0  0  0  0  0  0
  189.8640  177.5930  140.9680 C   0  0  0  0  0  0  0  0  0  0  0  0
  191.4210  177.0940  140.6050 S   0  0  0  0  0  0  0  0  0  0  0  0
  185.5830  178.9320  141.5220 C   0  0  0  0  0  0  0  0  0  0  0  0
  189.1180  177.7450  139.8800 N   0  0  0  0  0  0  0  0  0  0  0  0
  191.0600  177.1000  138.9290 C   0  0  0  0  0  0  0  0  0  0  0  0
  186.7200  178.6410  142.3090 C   0  0  0  0  0  3  0  0  0  0  0  0
  187.8770  178.2420  141.6560 C   0  0  0  0  0  0  0  0  0  0  0  0
  189.1480  177.8870  142.1160 C   0  0  0  0  0  0  0  0  0  0  0  0
  186.8300  178.4130  139.5080 N   0  0  0  0  0  0  0  0  0  0  0  0
  184.5040  179.1010  139.2200 C   0  0  0  0  0  0  0  0  0  0  0  0
  183.7680  178.0280  138.6410 N   0  0  0  0  0  1  0  0  0  0  0  0
  184.1530  180.2850  138.9720 O   0  0  0  0  0  0  0  0  0  0  0  0
  183.8630  178.7110  143.2930 C   0  0  0  0  0  1  0  0  0  0  0  0
  184.3890  179.3390  142.1320 O   0  0  0  0  0  0  0  0  0  0  0  0
  192.0110  176.6880  137.8630 C   0  0  0  0  0  2  0  0  0  0  0  0
  193.3310  176.4860  138.4380 N   0  0  0  0  0  2  0  0  0  0  0  0
  193.5510  174.2000  137.5420 C   0  0  0  0  0  3  0  0  0  0  0  0
  194.0730  175.2740  138.2770 C   0  0  0  0  0  0  0  0  0  0  0  0
  195.3020  175.1650  138.8490 N   0  0  0  0  0  0  0  0  0  0  0  0
  195.5640  172.9450  138.0020 C   0  0  0  0  0  3  0  0  0  0  0  0
  196.0510  174.0340  138.7280 C   0  0  0  0  0  3  0  0  0  0  0  0
  194.3050  173.0330  137.4070 C   0  0  0  0  0  3  0  0  0  0  0  0
  189.6370  177.8380  143.4570 N   0  0  0  0  0  2  0  0  0  0  0  0
  189.1000  176.9310  144.4590 C   0  0  0  0  0  2  0  0  0  0  0  0
  188.4400  177.7180  145.5800 C   0  0  0  0  0  2  0  0  0  0  0  0
  188.2900  177.3230  148.0170 C   0  0  0  0  0  1  0  0  0  0  0  0
  189.2390  177.6090  146.8690 C   0  0  1  0  0  3  0  0  0  0  0  0
  191.7660  177.5090  148.2060 O   0  0  0  0  0  0  0  0  0  0  0  0
  190.2130  176.5320  146.7600 N   0  0  0  0  0  2  0  0  0  0  0  0
  192.3980  175.4050  147.3040 C   0  0  0  0  0  1  0  0  0  0  0  0
  191.4570  176.5430  147.4610 C   0  0  0  0  0  0  0  0  0  0  0  0
  1 10  1  0  0  0  0
  2  8  2  0  0  0  0
  2  7  1  0  0  0  0
  3  6  2  0  0  0  0
  4 11  2  0  0  0  0
  5  4  1  0  0  0  0
  6 17  1  0  0  0  0
  6  9  1  0  0  0  0
  7  1  1  0  0  0  0
  7  4  1  0  0  0  0
  8  5  1  0  0  0  0
 10 11  1  0  0  0  0
 10  9  2  0  0  0  0
 11 26  1  0  0  0  0
 12  3  1  0  0  0  0
 12  1  2  0  0  0  0
 13  3  1  0  0  0  0
 14 13  1  0  0  0  0
 15 13  2  0  0  0  0
 17 16  1  0  0  0  0
 18 19  1  0  0  0  0
 18  8  1  0  0  0  0
 20 21  1  0  0  0  0
 21 19  1  0  0  0  0
 21 22  2  0  0  0  0
 23 24  2  0  0  0  0
 24 22  1  0  0  0  0
 25 20  2  0  0  0  0
 25 23  1  0  0  0  0
 26 27  1  0  0  0  0
 27 28  1  0  0  0  0
 28 30  1  0  0  0  0
 30 29  1  1  0  0  0
 32 30  1  0  0  0  0
 32 34  1  0  0  0  0
 33 34  1  0  0  0  0
 34 31  2  0  0  0  0
M  END
>  <MODEL>
2

>  <REMARK>
 VINA RESULT:      -8.5      2.752      6.790
  Name = 
  9 active torsions:
  status: ('A' for Active; 'I' for Inactive)
    1  A    between atoms: N_1  and  C_23
    2  A    between atoms: C_2  and  C_15
    3  A    between atoms: C_2  and  N_31
    4  A    between atoms: C_3  and  C_11
    5  A    between atoms: N_7  and  C_26
    6  A    between atoms: C_15  and  C_26
    7  A    between atoms: C_21  and  O_33
    8  A    between atoms: C_23  and  C_27
    9  A    between atoms: N_31  and  C_32
                            x       y       z     vdW  Elec       q    Type
                         _______ _______ _______ _____ _____    ______ ____

>  <TORSDO>
F 9

$$$$
=
 OpenBabel10232409583D

 34 37  0  0  1  0  0  0  0  0999 V2000
  189.6600  177.0680  143.8970 C   0  0  0  0  0  0  0  0  0  0  0  0
  190.8000  176.9370  141.6740 C   0  0  0  0  0  3  0  0  0  0  0  0
  190.3010  176.8550  146.1490 C   0  0  0  0  0  0  0  0  0  0  0  0
  188.5990  177.3420  142.0520 C   0  0  0  0  0  0  0  0  0  0  0  0
  188.6270  177.4040  140.3770 S   0  0  0  0  0  0  0  0  0  0  0  0
  188.9490  177.0980  146.5510 C   0  0  0  0  0  0  0  0  0  0  0  0
  189.7980  177.0930  142.5660 N   0  0  0  0  0  0  0  0  0  0  0  0
  190.3090  177.0710  140.3680 C   0  0  0  0  0  0  0  0  0  0  0  0
  187.9590  177.3260  145.5680 C   0  0  0  0  0  3  0  0  0  0  0  0
  188.3480  177.3060  144.2370 C   0  0  0  0  0  0  0  0  0  0  0  0
  187.6440  177.4890  143.0430 C   0  0  0  0  0  0  0  0  0  0  0  0
  190.6260  176.8470  144.8180 N   0  0  0  0  0  0  0  0  0  0  0  0
  191.3810  176.6100  147.1290 C   0  0  0  0  0  0  0  0  0  0  0  0
  192.1500  175.4130  147.0510 N   0  0  0  0  0  1  0  0  0  0  0  0
  191.6400  177.4420  148.0380 O   0  0  0  0  0  0  0  0  0  0  0  0
  188.2340  178.2900  148.6040 C   0  0  0  0  0  1  0  0  0  0  0  0
  188.6080  177.1080  147.9100 O   0  0  0  0  0  0  0  0  0  0  0  0
  191.1450  177.0070  139.1410 C   0  0  0  0  0  2  0  0  0  0  0  0
  190.8960  175.7560  138.4440 N   0  0  0  0  0  2  0  0  0  0  0  0
  193.2170  175.5500  137.6400 C   0  0  0  0  0  3  0  0  0  0  0  0
  191.9080  175.0550  137.7170 C   0  0  0  0  0  0  0  0  0  0  0  0
  191.5910  173.8890  137.0900 N   0  0  0  0  0  0  0  0  0  0  0  0
  193.8290  173.6450  136.2880 C   0  0  0  0  0  3  0  0  0  0  0  0
  192.5150  173.1810  136.3840 C   0  0  0  0  0  3  0  0  0  0  0  0
  194.1780  174.8370  136.9210 C   0  0  0  0  0  3  0  0  0  0  0  0
  186.2540  177.7550  142.8520 N   0  0  0  0  0  2  0  0  0  0  0  0
  185.7500  179.0580  142.4490 C   0  0  0  0  0  2  0  0  0  0  0  0
  185.0190  179.7190  143.6070 C   0  0  0  0  0  2  0  0  0  0  0  0
  184.4250  178.6100  145.7360 C   0  0  0  0  0  1  0  0  0  0  0  0
  184.0560  178.7480  144.2710 C   0  0  1  0  0  3  0  0  0  0  0  0
  182.3860  178.4950  141.9630 O   0  0  0  0  0  0  0  0  0  0  0  0
  182.6920  179.2440  144.1550 N   0  0  0  0  0  2  0  0  0  0  0  0
  180.5220  179.6080  142.9290 C   0  0  0  0  0  1  0  0  0  0  0  0
  181.9100  179.0790  142.9710 C   0  0  0  0  0  0  0  0  0  0  0  0
  1 10  2  0  0  0  0
  1 12  1  0  0  0  0
  2  7  1  0  0  0  0
  3  6  1  0  0  0  0
  3 13  1  0  0  0  0
  4  7  1  0  0  0  0
  4 11  2  0  0  0  0
  5  4  1  0  0  0  0
  6 17  1  0  0  0  0
  7  1  1  0  0  0  0
  8  5  1  0  0  0  0
  8  2  2  0  0  0  0
  9  6  2  0  0  0  0
 10  9  1  0  0  0  0
 11 10  1  0  0  0  0
 12  3  2  0  0  0  0
 13 15  2  0  0  0  0
 14 13  1  0  0  0  0
 17 16  1  0  0  0  0
 18  8  1  0  0  0  0
 19 18  1  0  0  0  0
 20 21  1  0  0  0  0
 21 19  1  0  0  0  0
 22 21  2  0  0  0  0
 23 24  2  0  0  0  0
 23 25  1  0  0  0  0
 24 22  1  0  0  0  0
 25 20  2  0  0  0  0
 26 11  1  0  0  0  0
 27 26  1  0  0  0  0
 27 28  1  0  0  0  0
 28 30  1  0  0  0  0
 30 29  1  1  0  0  0
 31 34  2  0  0  0  0
 32 30  1  0  0  0  0
 33 34  1  0  0  0  0
 34 32  1  0  0  0  0
M  END
>  <MODEL>
3

>  <REMARK>
 VINA RESULT:      -8.5      1.280      1.638
  Name = 
  9 active torsions:
  status: ('A' for Active; 'I' for Inactive)
    1  A    between atoms: N_1  and  C_23
    2  A    between atoms: C_2  and  C_15
    3  A    between atoms: C_2  and  N_31
    4  A    between atoms: C_3  and  C_11
    5  A    between atoms: N_7  and  C_26
    6  A    between atoms: C_15  and  C_26
    7  A    between atoms: C_21  and  O_33
    8  A    between atoms: C_23  and  C_27
    9  A    between atoms: N_31  and  C_32
                            x       y       z     vdW  Elec       q    Type
                         _______ _______ _______ _____ _____    ______ ____

>  <TORSDO>
F 9

$$$$
=
 OpenBabel10232409583D

 34 37  0  0  1  0  0  0  0  0999 V2000
  187.4930  177.8900  142.1970 C   0  0  0  0  0  0  0  0  0  0  0  0
  188.2130  178.3330  139.8420 C   0  0  0  0  0  3  0  0  0  0  0  0
  185.6540  178.4640  143.5460 C   0  0  0  0  0  0  0  0  0  0  0  0
  189.3290  177.1180  141.4010 C   0  0  0  0  0  0  0  0  0  0  0  0
  190.3850  176.9780  140.1070 S   0  0  0  0  0  0  0  0  0  0  0  0
  186.2310  177.7330  144.6330 C   0  0  0  0  0  0  0  0  0  0  0  0
  188.2600  177.8460  141.1020 N   0  0  0  0  0  0  0  0  0  0  0  0
  189.3570  177.9430  139.1320 C   0  0  0  0  0  0  0  0  0  0  0  0
  187.4710  177.0790  144.4540 C   0  0  0  0  0  3  0  0  0  0  0  0
  188.0830  177.1750  143.2130 C   0  0  0  0  0  0  0  0  0  0  0  0
  189.2820  176.6640  142.7080 C   0  0  0  0  0  0  0  0  0  0  0  0
  186.3060  178.5240  142.3420 N   0  0  0  0  0  0  0  0  0  0  0  0
  184.3590  179.1680  143.6700 C   0  0  0  0  0  0  0  0  0  0  0  0
  183.1790  178.5790  143.1350 N   0  0  0  0  0  1  0  0  0  0  0  0
  184.2760  180.2860  144.2440 O   0  0  0  0  0  0  0  0  0  0  0  0
  185.7680  178.6220  146.9000 C   0  0  0  0  0  1  0  0  0  0  0  0
  185.5710  177.6660  145.8670 O   0  0  0  0  0  0  0  0  0  0  0  0
  189.6110  178.2610  137.7020 C   0  0  0  0  0  2  0  0  0  0  0  0
  189.4280  177.0660  136.8950 N   0  0  0  0  0  2  0  0  0  0  0  0
  187.0940  177.6120  136.3190 C   0  0  0  0  0  3  0  0  0  0  0  0
  188.2020  176.7570  136.2270 C   0  0  0  0  0  0  0  0  0  0  0  0
  188.1120  175.6160  135.4920 N   0  0  0  0  0  0  0  0  0  0  0  0
  185.8480  176.1020  134.9050 C   0  0  0  0  0  3  0  0  0  0  0  0
  186.9700  175.2740  134.8360 C   0  0  0  0  0  3  0  0  0  0  0  0
  185.9140  177.2780  135.6530 C   0  0  0  0  0  3  0  0  0  0  0  0
  190.2650  175.8630  143.3660 N   0  0  0  0  0  2  0  0  0  0  0  0
  191.6100  176.3400  143.6460 C   0  0  0  0  0  2  0  0  0  0  0  0
  191.5980  177.2640  144.8540 C   0  0  0  0  0  2  0  0  0  0  0  0
  192.0420  175.7810  146.7830 C   0  0  0  0  0  1  0  0  0  0  0  0
  190.9740  176.5800  146.0600 C   0  0  1  0  0  3  0  0  0  0  0  0
  188.6100  176.2560  147.6370 O   0  0  0  0  0  0  0  0  0  0  0  0
  190.4150  177.5770  146.9620 N   0  0  0  0  0  2  0  0  0  0  0  0
  188.7220  178.4120  148.6290 C   0  0  0  0  0  1  0  0  0  0  0  0
  189.2300  177.3480  147.7260 C   0  0  0  0  0  0  0  0  0  0  0  0
  1 12  2  0  0  0  0
  1 10  1  0  0  0  0
  2  7  1  0  0  0  0
  3 13  1  0  0  0  0
  3  6  2  0  0  0  0
  4 11  2  0  0  0  0
  5  4  1  0  0  0  0
  6 17  1  0  0  0  0
  7  4  1  0  0  0  0
  7  1  1  0  0  0  0
  8  2  2  0  0  0  0
  8  5  1  0  0  0  0
  9  6  1  0  0  0  0
 10  9  2  0  0  0  0
 11 10  1  0  0  0  0
 11 26  1  0  0  0  0
 12  3  1  0  0  0  0
 13 15  2  0  0  0  0
 14 13  1  0  0  0  0
 17 16  1  0  0  0  0
 18  8  1  0  0  0  0
 19 18  1  0  0  0  0
 21 20  1  0  0  0  0
 21 19  1  0  0  0  0
 22 21  2  0  0  0  0
 23 25  1  0  0  0  0
 24 23  2  0  0  0  0
 24 22  1  0  0  0  0
 25 20  2  0  0  0  0
 26 27  1  0  0  0  0
 27 28  1  0  0  0  0
 28 30  1  0  0  0  0
 30 29  1  1  0  0  0
 30 32  1  0  0  0  0
 31 34  2  0  0  0  0
 32 34  1  0  0  0  0
 34 33  1  0  0  0  0
M  END
>  <MODEL>
4

>  <REMARK>
 VINA RESULT:      -8.4      2.028      5.517
  Name = 
  9 active torsions:
  status: ('A' for Active; 'I' for Inactive)
    1  A    between atoms: N_1  and  C_23
    2  A    between atoms: C_2  and  C_15
    3  A    between atoms: C_2  and  N_31
    4  A    between atoms: C_3  and  C_11
    5  A    between atoms: N_7  and  C_26
    6  A    between atoms: C_15  and  C_26
    7  A    between atoms: C_21  and  O_33
    8  A    between atoms: C_23  and  C_27
    9  A    between atoms: N_31  and  C_32
                            x       y       z     vdW  Elec       q    Type
                         _______ _______ _______ _____ _____    ______ ____

>  <TORSDO>
F 9

$$$$
=
 OpenBabel10232409583D

 34 37  0  0  1  0  0  0  0  0999 V2000
  187.9620  178.1470  140.5840 C   0  0  0  0  0  0  0  0  0  0  0  0
  189.7390  177.5160  138.9400 C   0  0  0  0  0  3  0  0  0  0  0  0
  185.7080  178.8080  140.4760 C   0  0  0  0  0  0  0  0  0  0  0  0
  189.9430  177.6010  141.1990 C   0  0  0  0  0  0  0  0  0  0  0  0
  191.4910  177.1150  140.7820 S   0  0  0  0  0  0  0  0  0  0  0  0
  185.6750  178.9090  141.9040 C   0  0  0  0  0  0  0  0  0  0  0  0
  189.1640  177.7640  140.1370 N   0  0  0  0  0  0  0  0  0  0  0  0
  191.0780  177.1430  139.1180 C   0  0  0  0  0  0  0  0  0  0  0  0
  186.8370  178.6130  142.6510 C   0  0  0  0  0  3  0  0  0  0  0  0
  187.9760  178.2300  141.9570 C   0  0  0  0  0  0  0  0  0  0  0  0
  189.2620  177.8750  142.3730 C   0  0  0  0  0  0  0  0  0  0  0  0
  186.8620  178.4250  139.8450 N   0  0  0  0  0  0  0  0  0  0  0  0
  184.5250  179.1050  139.6390 C   0  0  0  0  0  0  0  0  0  0  0  0
  183.5260  178.1070  139.4470 N   0  0  0  0  0  1  0  0  0  0  0  0
  184.3790  180.2280  139.0880 O   0  0  0  0  0  0  0  0  0  0  0  0
  184.1200  178.8010  143.8320 C   0  0  0  0  0  1  0  0  0  0  0  0
  184.4990  179.3010  142.5560 O   0  0  0  0  0  0  0  0  0  0  0  0
  191.9980  176.7510  138.0180 C   0  0  0  0  0  2  0  0  0  0  0  0
  193.3260  176.5040  138.5550 N   0  0  0  0  0  2  0  0  0  0  0  0
  193.5110  174.2750  137.5200 C   0  0  0  0  0  3  0  0  0  0  0  0
  194.0540  175.2990  138.3090 C   0  0  0  0  0  0  0  0  0  0  0  0
  195.2920  175.1450  138.8510 N   0  0  0  0  0  0  0  0  0  0  0  0
  195.5190  172.9790  137.8680 C   0  0  0  0  0  3  0  0  0  0  0  0
  196.0290  174.0180  138.6490 C   0  0  0  0  0  3  0  0  0  0  0  0
  194.2510  173.1130  137.3010 C   0  0  0  0  0  3  0  0  0  0  0  0
  189.7920  177.8100  143.6980 N   0  0  0  0  0  2  0  0  0  0  0  0
  190.6340  176.7170  144.1570 C   0  0  0  0  0  2  0  0  0  0  0  0
  191.4370  177.1490  145.3730 C   0  0  0  0  0  2  0  0  0  0  0  0
  192.2980  175.7360  147.2120 C   0  0  0  0  0  1  0  0  0  0  0  0
  191.0480  176.3410  146.6010 C   0  0  1  0  0  3  0  0  0  0  0  0
  188.2440  176.8960  146.7170 O   0  0  0  0  0  0  0  0  0  0  0  0
  190.3950  177.2030  147.5760 N   0  0  0  0  0  2  0  0  0  0  0  0
  188.3910  178.3230  148.6110 C   0  0  0  0  0  1  0  0  0  0  0  0
  188.9860  177.4340  147.5800 C   0  0  0  0  0  0  0  0  0  0  0  0
  1 10  1  0  0  0  0
  2  8  2  0  0  0  0
  2  7  1  0  0  0  0
  3  6  2  0  0  0  0
  4 11  2  0  0  0  0
  5  4  1  0  0  0  0
  6 17  1  0  0  0  0
  6  9  1  0  0  0  0
  7  1  1  0  0  0  0
  7  4  1  0  0  0  0
  8  5  1  0  0  0  0
 10 11  1  0  0  0  0
 10  9  2  0  0  0  0
 11 26  1  0  0  0  0
 12  3  1  0  0  0  0
 12  1  2  0  0  0  0
 13  3  1  0  0  0  0
 14 13  1  0  0  0  0
 15 13  2  0  0  0  0
 17 16  1  0  0  0  0
 18 19  1  0  0  0  0
 18  8  1  0  0  0  0
 20 21  1  0  0  0  0
 21 19  1  0  0  0  0
 21 22  2  0  0  0  0
 23 24  2  0  0  0  0
 24 22  1  0  0  0  0
 25 20  2  0  0  0  0
 25 23  1  0  0  0  0
 26 27  1  0  0  0  0
 27 28  1  0  0  0  0
 28 30  1  0  0  0  0
 30 29  1  1  0  0  0
 30 32  1  0  0  0  0
 31 34  2  0  0  0  0
 32 34  1  0  0  0  0
 34 33  1  0  0  0  0
M  END
>  <MODEL>
5

>  <REMARK>
 VINA RESULT:      -8.4      2.697      6.504
  Name = 
  9 active torsions:
  status: ('A' for Active; 'I' for Inactive)
    1  A    between atoms: N_1  and  C_23
    2  A    between atoms: C_2  and  C_15
    3  A    between atoms: C_2  and  N_31
    4  A    between atoms: C_3  and  C_11
    5  A    between atoms: N_7  and  C_26
    6  A    between atoms: C_15  and  C_26
    7  A    between atoms: C_21  and  O_33
    8  A    between atoms: C_23  and  C_27
    9  A    between atoms: N_31  and  C_32
                            x       y       z     vdW  Elec       q    Type
                         _______ _______ _______ _____ _____    ______ ____

>  <TORSDO>
F 9

$$$$
=
 OpenBabel10232409583D

 34 37  0  0  1  0  0  0  0  0999 V2000
  189.8340  177.1100  143.8620 C   0  0  0  0  0  0  0  0  0  0  0  0
  190.9590  176.9120  141.6360 C   0  0  0  0  0  3  0  0  0  0  0  0
  190.4630  176.8460  146.1120 C   0  0  0  0  0  0  0  0  0  0  0  0
  188.7910  177.4630  142.0210 C   0  0  0  0  0  0  0  0  0  0  0  0
  188.8190  177.5300  140.3470 S   0  0  0  0  0  0  0  0  0  0  0  0
  189.1320  177.1780  146.5180 C   0  0  0  0  0  0  0  0  0  0  0  0
  189.9700  177.1310  142.5310 N   0  0  0  0  0  0  0  0  0  0  0  0
  190.4750  177.0840  140.3320 C   0  0  0  0  0  0  0  0  0  0  0  0
  188.1570  177.4760  145.5390 C   0  0  0  0  0  3  0  0  0  0  0  0
  188.5420  177.4350  144.2070 C   0  0  0  0  0  0  0  0  0  0  0  0
  187.8500  177.6700  143.0150 C   0  0  0  0  0  0  0  0  0  0  0  0
  190.7850  176.8210  144.7800 N   0  0  0  0  0  0  0  0  0  0  0  0
  191.5270  176.5240  147.0890 C   0  0  0  0  0  0  0  0  0  0  0  0
  192.3090  175.3460  146.9210 N   0  0  0  0  0  1  0  0  0  0  0  0
  191.7590  177.2750  148.0730 O   0  0  0  0  0  0  0  0  0  0  0  0
  188.2100  178.3380  148.5060 C   0  0  0  0  0  1  0  0  0  0  0  0
  188.7950  177.2050  147.8780 O   0  0  0  0  0  0  0  0  0  0  0  0
  191.3030  176.9690  139.1030 C   0  0  0  0  0  2  0  0  0  0  0  0
  191.3080  175.5890  138.6450 N   0  0  0  0  0  2  0  0  0  0  0  0
  189.5230  175.9610  136.9860 C   0  0  0  0  0  3  0  0  0  0  0  0
  190.4400  175.1070  137.6160 C   0  0  0  0  0  0  0  0  0  0  0  0
  190.5070  173.8000  137.2460 N   0  0  0  0  0  0  0  0  0  0  0  0
  188.7800  174.1100  135.6230 C   0  0  0  0  0  3  0  0  0  0  0  0
  189.7040  173.2880  136.2730 C   0  0  0  0  0  3  0  0  0  0  0  0
  188.6920  175.4540  135.9850 C   0  0  0  0  0  3  0  0  0  0  0  0
  186.4800  178.0300  142.8280 N   0  0  0  0  0  2  0  0  0  0  0  0
  186.0370  178.9120  141.7600 C   0  0  0  0  0  2  0  0  0  0  0  0
  184.5370  178.7770  141.5560 C   0  0  0  0  0  2  0  0  0  0  0  0
  183.0310  179.3680  139.6850 C   0  0  0  0  0  1  0  0  0  0  0  0
  184.2050  178.5010  140.0980 C   0  0  1  0  0  3  0  0  0  0  0  0
  184.8930  177.1650  137.6640 O   0  0  0  0  0  0  0  0  0  0  0  0
  185.3570  178.8060  139.2610 N   0  0  0  0  0  2  0  0  0  0  0  0
  186.8310  178.4730  137.2470 C   0  0  0  0  0  1  0  0  0  0  0  0
  185.6400  178.1010  138.0520 C   0  0  0  0  0  0  0  0  0  0  0  0
  1 10  2  0  0  0  0
  1 12  1  0  0  0  0
  2  7  1  0  0  0  0
  3  6  1  0  0  0  0
  3 13  1  0  0  0  0
  4  7  1  0  0  0  0
  4 11  2  0  0  0  0
  5  4  1  0  0  0  0
  6 17  1  0  0  0  0
  7  1  1  0  0  0  0
  8  5  1  0  0  0  0
  8  2  2  0  0  0  0
  9  6  2  0  0  0  0
 10  9  1  0  0  0  0
 11 10  1  0  0  0  0
 12  3  2  0  0  0  0
 13 15  2  0  0  0  0
 14 13  1  0  0  0  0
 17 16  1  0  0  0  0
 18  8  1  0  0  0  0
 19 18  1  0  0  0  0
 20 21  1  0  0  0  0
 21 19  1  0  0  0  0
 22 21  2  0  0  0  0
 23 25  1  0  0  0  0
 23 24  2  0  0  0  0
 24 22  1  0  0  0  0
 25 20  2  0  0  0  0
 26 11  1  0  0  0  0
 27 26  1  0  0  0  0
 28 27  1  0  0  0  0
 30 29  1  6  0  0  0
 30 28  1  0  0  0  0
 31 34  2  0  0  0  0
 32 30  1  0  0  0  0
 33 34  1  0  0  0  0
 34 32  1  0  0  0  0
M  END
>  <MODEL>
6

>  <REMARK>
 VINA RESULT:      -8.3      1.745      2.652
  Name = 
  9 active torsions:
  status: ('A' for Active; 'I' for Inactive)
    1  A    between atoms: N_1  and  C_23
    2  A    between atoms: C_2  and  C_15
    3  A    between atoms: C_2  and  N_31
    4  A    between atoms: C_3  and  C_11
    5  A    between atoms: N_7  and  C_26
    6  A    between atoms: C_15  and  C_26
    7  A    between atoms: C_21  and  O_33
    8  A    between atoms: C_23  and  C_27
    9  A    between atoms: N_31  and  C_32
                            x       y       z     vdW  Elec       q    Type
                         _______ _______ _______ _____ _____    ______ ____

>  <TORSDO>
F 9

$$$$
=
 OpenBabel10232409583D

 34 37  0  0  1  0  0  0  0  0999 V2000
  187.5040  177.8580  142.0560 C   0  0  0  0  0  0  0  0  0  0  0  0
  188.2500  178.1610  139.6870 C   0  0  0  0  0  3  0  0  0  0  0  0
  185.6330  178.4750  143.3390 C   0  0  0  0  0  0  0  0  0  0  0  0
  189.3700  177.0790  141.3370 C   0  0  0  0  0  0  0  0  0  0  0  0
  190.4470  176.8790  140.0700 S   0  0  0  0  0  0  0  0  0  0  0  0
  186.2100  177.8310  144.4800 C   0  0  0  0  0  0  0  0  0  0  0  0
  188.2890  177.7600  140.9760 N   0  0  0  0  0  0  0  0  0  0  0  0
  189.4120  177.7530  139.0190 C   0  0  0  0  0  0  0  0  0  0  0  0
  187.4680  177.1970  144.3610 C   0  0  0  0  0  3  0  0  0  0  0  0
  188.0960  177.2260  143.1250 C   0  0  0  0  0  0  0  0  0  0  0  0
  189.3140  176.7110  142.6710 C   0  0  0  0  0  0  0  0  0  0  0  0
  186.3010  178.4710  142.1430 N   0  0  0  0  0  0  0  0  0  0  0  0
  184.3210  179.1550  143.3990 C   0  0  0  0  0  0  0  0  0  0  0  0
  183.2310  178.6600  142.6270 N   0  0  0  0  0  1  0  0  0  0  0  0
  184.1440  180.1700  144.1230 O   0  0  0  0  0  0  0  0  0  0  0  0
  185.8160  178.7590  146.7440 C   0  0  0  0  0  1  0  0  0  0  0  0
  185.5340  177.8310  145.7070 O   0  0  0  0  0  0  0  0  0  0  0  0
  189.6800  177.9810  137.5750 C   0  0  0  0  0  2  0  0  0  0  0  0
  189.3500  176.7830  136.8200 N   0  0  0  0  0  2  0  0  0  0  0  0
  191.7030  176.0950  136.5660 C   0  0  0  0  0  3  0  0  0  0  0  0
  190.3380  175.8730  136.3330 C   0  0  0  0  0  0  0  0  0  0  0  0
  189.9450  174.7740  135.6330 N   0  0  0  0  0  0  0  0  0  0  0  0
  192.2110  174.0650  135.3600 C   0  0  0  0  0  3  0  0  0  0  0  0
  190.8440  173.8750  135.1470 C   0  0  0  0  0  3  0  0  0  0  0  0
  192.6390  175.1830  136.0750 C   0  0  0  0  0  3  0  0  0  0  0  0
  190.3050  175.9790  143.3930 N   0  0  0  0  0  2  0  0  0  0  0  0
  191.5960  176.5440  143.7510 C   0  0  0  0  0  2  0  0  0  0  0  0
  191.4580  177.4380  144.9730 C   0  0  0  0  0  2  0  0  0  0  0  0
  192.1010  175.8640  146.7690 C   0  0  0  0  0  1  0  0  0  0  0  0
  190.9510  176.6520  146.1710 C   0  0  1  0  0  3  0  0  0  0  0  0
  188.4520  176.3410  147.5290 O   0  0  0  0  0  0  0  0  0  0  0  0
  190.4110  177.5630  147.1710 N   0  0  0  0  0  2  0  0  0  0  0  0
  188.6730  178.3180  148.8300 C   0  0  0  0  0  1  0  0  0  0  0  0
  189.1560  177.3460  147.8150 C   0  0  0  0  0  0  0  0  0  0  0  0
  1 12  2  0  0  0  0
  1 10  1  0  0  0  0
  2  7  1  0  0  0  0
  3 13  1  0  0  0  0
  3  6  2  0  0  0  0
  4 11  2  0  0  0  0
  5  4  1  0  0  0  0
  6 17  1  0  0  0  0
  7  4  1  0  0  0  0
  7  1  1  0  0  0  0
  8  2  2  0  0  0  0
  8  5  1  0  0  0  0
  9  6  1  0  0  0  0
 10  9  2  0  0  0  0
 11 10  1  0  0  0  0
 11 26  1  0  0  0  0
 12  3  1  0  0  0  0
 13 15  2  0  0  0  0
 14 13  1  0  0  0  0
 17 16  1  0  0  0  0
 18  8  1  0  0  0  0
 19 18  1  0  0  0  0
 21 20  1  0  0  0  0
 21 19  1  0  0  0  0
 22 21  2  0  0  0  0
 23 25  1  0  0  0  0
 24 23  2  0  0  0  0
 24 22  1  0  0  0  0
 25 20  2  0  0  0  0
 26 27  1  0  0  0  0
 27 28  1  0  0  0  0
 28 30  1  0  0  0  0
 30 29  1  1  0  0  0
 30 32  1  0  0  0  0
 31 34  2  0  0  0  0
 32 34  1  0  0  0  0
 34 33  1  0  0  0  0
M  END
>  <MODEL>
7

>  <REMARK>
 VINA RESULT:      -8.2      1.903      5.495
  Name = 
  9 active torsions:
  status: ('A' for Active; 'I' for Inactive)
    1  A    between atoms: N_1  and  C_23
    2  A    between atoms: C_2  and  C_15
    3  A    between atoms: C_2  and  N_31
    4  A    between atoms: C_3  and  C_11
    5  A    between atoms: N_7  and  C_26
    6  A    between atoms: C_15  and  C_26
    7  A    between atoms: C_21  and  O_33
    8  A    between atoms: C_23  and  C_27
    9  A    between atoms: N_31  and  C_32
                            x       y       z     vdW  Elec       q    Type
                         _______ _______ _______ _____ _____    ______ ____

>  <TORSDO>
F 9

$$$$
=
 OpenBabel10232409583D

 34 37  0  0  1  0  0  0  0  0999 V2000
  186.5310  178.2750  141.2840 C   0  0  0  0  0  0  0  0  0  0  0  0
  188.8060  177.9710  140.2870 C   0  0  0  0  0  3  0  0  0  0  0  0
  184.4490  179.0810  140.5470 C   0  0  0  0  0  0  0  0  0  0  0  0
  188.1710  177.4680  142.4080 C   0  0  0  0  0  0  0  0  0  0  0  0
  189.7810  177.0080  142.4650 S   0  0  0  0  0  0  0  0  0  0  0  0
  183.8960  178.8190  141.8410 C   0  0  0  0  0  0  0  0  0  0  0  0
  187.8260  177.9430  141.2170 N   0  0  0  0  0  0  0  0  0  0  0  0
  190.0010  177.4820  140.8320 C   0  0  0  0  0  0  0  0  0  0  0  0
  184.7170  178.2710  142.8530 C   0  0  0  0  0  3  0  0  0  0  0  0
  186.0420  178.0060  142.5410 C   0  0  0  0  0  0  0  0  0  0  0  0
  187.1010  177.4780  143.2860 C   0  0  0  0  0  0  0  0  0  0  0  0
  185.7660  178.7980  140.2980 N   0  0  0  0  0  0  0  0  0  0  0  0
  183.6420  179.6520  139.4470 C   0  0  0  0  0  0  0  0  0  0  0  0
  182.4980  178.9510  138.9700 N   0  0  0  0  0  1  0  0  0  0  0  0
  183.9450  180.7540  138.9180 O   0  0  0  0  0  0  0  0  0  0  0  0
  181.9880  179.0470  143.4080 C   0  0  0  0  0  1  0  0  0  0  0  0
  182.5500  179.1050  142.1030 O   0  0  0  0  0  0  0  0  0  0  0  0
  191.2710  177.3250  140.0760 C   0  0  0  0  0  2  0  0  0  0  0  0
  191.3390  175.9880  139.5060 N   0  0  0  0  0  2  0  0  0  0  0  0
  190.6470  176.7320  137.2600 C   0  0  0  0  0  3  0  0  0  0  0  0
  191.0340  175.7090  138.1380 C   0  0  0  0  0  0  0  0  0  0  0  0
  191.1210  174.4290  137.6840 N   0  0  0  0  0  0  0  0  0  0  0  0
  190.4550  175.1000  135.4890 C   0  0  0  0  0  3  0  0  0  0  0  0
  190.8420  174.1070  136.3910 C   0  0  0  0  0  3  0  0  0  0  0  0
  190.3580  176.4200  135.9310 C   0  0  0  0  0  3  0  0  0  0  0  0
  187.1150  177.0470  144.6470 N   0  0  0  0  0  2  0  0  0  0  0  0
  187.3490  177.9560  145.7580 C   0  0  0  0  0  2  0  0  0  0  0  0
  188.8390  178.2160  145.9170 C   0  0  0  0  0  2  0  0  0  0  0  0
  188.1680  177.2390  148.0880 C   0  0  0  0  0  1  0  0  0  0  0  0
  189.3500  177.6780  147.2450 C   0  0  1  0  0  3  0  0  0  0  0  0
  192.0200  177.4200  148.2390 O   0  0  0  0  0  0  0  0  0  0  0  0
  190.2330  176.5440  147.0140 N   0  0  0  0  0  2  0  0  0  0  0  0
  192.3990  175.2840  147.2700 C   0  0  0  0  0  1  0  0  0  0  0  0
  191.5570  176.4760  147.5450 C   0  0  0  0  0  0  0  0  0  0  0  0
  1 10  1  0  0  0  0
  2  8  2  0  0  0  0
  2  7  1  0  0  0  0
  3  6  2  0  0  0  0
  4  5  1  0  0  0  0
  4 11  2  0  0  0  0
  6 17  1  0  0  0  0
  6  9  1  0  0  0  0
  7  1  1  0  0  0  0
  7  4  1  0  0  0  0
  8  5  1  0  0  0  0
 10  9  2  0  0  0  0
 10 11  1  0  0  0  0
 11 26  1  0  0  0  0
 12  3  1  0  0  0  0
 12  1  2  0  0  0  0
 13  3  1  0  0  0  0
 14 13  1  0  0  0  0
 15 13  2  0  0  0  0
 17 16  1  0  0  0  0
 18  8  1  0  0  0  0
 19 18  1  0  0  0  0
 20 21  1  0  0  0  0
 21 19  1  0  0  0  0
 22 21  2  0  0  0  0
 23 25  1  0  0  0  0
 23 24  2  0  0  0  0
 24 22  1  0  0  0  0
 25 20  2  0  0  0  0
 26 27  1  0  0  0  0
 27 28  1  0  0  0  0
 28 30  1  0  0  0  0
 30 29  1  1  0  0  0
 32 30  1  0  0  0  0
 32 34  1  0  0  0  0
 33 34  1  0  0  0  0
 34 31  2  0  0  0  0
M  END
>  <MODEL>
8

>  <REMARK>
 VINA RESULT:      -8.2      1.963      6.560
  Name = 
  9 active torsions:
  status: ('A' for Active; 'I' for Inactive)
    1  A    between atoms: N_1  and  C_23
    2  A    between atoms: C_2  and  C_15
    3  A    between atoms: C_2  and  N_31
    4  A    between atoms: C_3  and  C_11
    5  A    between atoms: N_7  and  C_26
    6  A    between atoms: C_15  and  C_26
    7  A    between atoms: C_21  and  O_33
    8  A    between atoms: C_23  and  C_27
    9  A    between atoms: N_31  and  C_32
                            x       y       z     vdW  Elec       q    Type
                         _______ _______ _______ _____ _____    ______ ____

>  <TORSDO>
F 9

$$$$
=
 OpenBabel10232409583D

 34 37  0  0  1  0  0  0  0  0999 V2000
  189.8960  177.0800  144.0430 C   0  0  0  0  0  0  0  0  0  0  0  0
  191.1360  177.1200  141.8700 C   0  0  0  0  0  3  0  0  0  0  0  0
  190.4600  176.8760  146.3160 C   0  0  0  0  0  0  0  0  0  0  0  0
  188.8910  177.2930  142.1580 C   0  0  0  0  0  0  0  0  0  0  0  0
  188.9830  177.3990  140.4890 S   0  0  0  0  0  0  0  0  0  0  0  0
  189.0740  176.9710  146.6630 C   0  0  0  0  0  0  0  0  0  0  0  0
  190.0860  177.1520  142.7200 N   0  0  0  0  0  0  0  0  0  0  0  0
  190.6890  177.2370  140.5470 C   0  0  0  0  0  0  0  0  0  0  0  0
  188.1080  177.1240  145.6420 C   0  0  0  0  0  3  0  0  0  0  0  0
  188.5530  177.1760  144.3290 C   0  0  0  0  0  0  0  0  0  0  0  0
  187.8850  177.3170  143.1100 C   0  0  0  0  0  0  0  0  0  0  0  0
  190.8400  176.9340  145.0010 N   0  0  0  0  0  0  0  0  0  0  0  0
  191.5180  176.7160  147.3380 C   0  0  0  0  0  0  0  0  0  0  0  0
  192.3560  175.5650  147.3150 N   0  0  0  0  0  1  0  0  0  0  0  0
  191.6960  177.5820  148.2340 O   0  0  0  0  0  0  0  0  0  0  0  0
  188.2260  178.0500  148.7270 C   0  0  0  0  0  1  0  0  0  0  0  0
  188.6780  176.9130  148.0050 O   0  0  0  0  0  0  0  0  0  0  0  0
  191.5790  177.2890  139.3570 C   0  0  0  0  0  2  0  0  0  0  0  0
  190.7830  177.1700  138.1460 N   0  0  0  0  0  2  0  0  0  0  0  0
  191.6370  174.9220  137.6080 C   0  0  0  0  0  3  0  0  0  0  0  0
  190.8170  176.0170  137.3020 C   0  0  0  0  0  0  0  0  0  0  0  0
  190.0420  175.9860  136.1840 N   0  0  0  0  0  0  0  0  0  0  0  0
  190.8400  173.8060  135.6200 C   0  0  0  0  0  3  0  0  0  0  0  0
  190.0360  174.9140  135.3450 C   0  0  0  0  0  3  0  0  0  0  0  0
  191.6440  173.8130  136.7590 C   0  0  0  0  0  3  0  0  0  0  0  0
  186.4850  177.4470  142.8620 N   0  0  0  0  0  2  0  0  0  0  0  0
  185.8380  178.7330  142.6550 C   0  0  0  0  0  2  0  0  0  0  0  0
  184.3390  178.5440  142.4810 C   0  0  0  0  0  2  0  0  0  0  0  0
  182.0910  179.1690  143.3010 C   0  0  0  0  0  1  0  0  0  0  0  0
  183.5710  179.1720  143.6330 C   0  0  1  0  0  3  0  0  0  0  0  0
  185.3480  179.9170  145.7470 O   0  0  0  0  0  0  0  0  0  0  0  0
  183.7990  178.4130  144.8540 N   0  0  0  0  0  2  0  0  0  0  0  0
  184.8760  178.0190  147.0970 C   0  0  0  0  0  1  0  0  0  0  0  0
  184.6990  178.8450  145.8750 C   0  0  0  0  0  0  0  0  0  0  0  0
  1 10  2  0  0  0  0
  1 12  1  0  0  0  0
  2  7  1  0  0  0  0
  3  6  1  0  0  0  0
  3 13  1  0  0  0  0
  4  7  1  0  0  0  0
  4 11  2  0  0  0  0
  5  8  1  0  0  0  0
  5  4  1  0  0  0  0
  6 17  1  0  0  0  0
  7  1  1  0  0  0  0
  8  2  2  0  0  0  0
  9  6  2  0  0  0  0
 10  9  1  0  0  0  0
 11 10  1  0  0  0  0
 12  3  2  0  0  0  0
 13 15  2  0  0  0  0
 14 13  1  0  0  0  0
 17 16  1  0  0  0  0
 18  8  1  0  0  0  0
 19 18  1  0  0  0  0
 21 20  1  0  0  0  0
 21 19  1  0  0  0  0
 22 21  2  0  0  0  0
 23 25  1  0  0  0  0
 24 23  2  0  0  0  0
 24 22  1  0  0  0  0
 25 20  2  0  0  0  0
 26 11  1  0  0  0  0
 27 26  1  0  0  0  0
 28 27  1  0  0  0  0
 28 30  1  0  0  0  0
 30 29  1  6  0  0  0
 30 32  1  0  0  0  0
 31 34  2  0  0  0  0
 32 34  1  0  0  0  0
 34 33  1  0  0  0  0
M  END
>  <MODEL>
9

>  <REMARK>
 VINA RESULT:      -8.1      1.297      2.029
  Name = 
  9 active torsions:
  status: ('A' for Active; 'I' for Inactive)
    1  A    between atoms: N_1  and  C_23
    2  A    between atoms: C_2  and  C_15
    3  A    between atoms: C_2  and  N_31
    4  A    between atoms: C_3  and  C_11
    5  A    between atoms: N_7  and  C_26
    6  A    between atoms: C_15  and  C_26
    7  A    between atoms: C_21  and  O_33
    8  A    between atoms: C_23  and  C_27
    9  A    between atoms: N_31  and  C_32
                            x       y       z     vdW  Elec       q    Type
                         _______ _______ _______ _____ _____    ______ ____

>  <TORSDO>
F 9

$$$$
