=
 OpenBabel10232407473D

 67 73  0  0  1  0  0  0  0  0999 V2000
  189.0130  178.0210  141.8680 C   0  0  2  0  0  0  0  0  0  0  0  0
  187.1230  177.0010  142.9990 O   0  0  0  0  0  0  0  0  0  0  0  0
  187.8080  178.8560  140.1070 C   0  0  0  0  0  2  0  0  0  0  0  0
  187.5700  177.6580  142.0610 C   0  0  0  0  0  0  0  0  0  0  0  0
  186.7650  178.1260  140.9330 C   0  0  1  0  0  3  0  0  0  0  0  0
  189.0050  179.0040  140.8500 O   0  0  0  0  0  0  0  0  0  0  0  0
  190.2650  176.7460  140.1560 C   0  0  0  0  0  3  0  0  0  0  0  0
  190.1020  175.7130  142.3700 C   0  0  0  0  0  1  0  0  0  0  0  0
  189.8510  176.8400  141.4170 C   0  0  0  0  0  0  0  0  0  0  0  0
  190.9880  175.6500  139.6780 O   0  0  0  0  0  0  0  0  0  0  0  0
  191.6570  175.7010  138.4550 C   0  0  0  0  0  0  0  0  0  0  0  0
  192.6990  176.6130  138.2230 C   0  0  0  0  0  3  0  0  0  0  0  0
  193.3480  176.6540  136.9880 C   0  0  0  0  0  3  0  0  0  0  0  0
  192.9610  175.7870  135.9730 C   0  0  0  0  0  3  0  0  0  0  0  0
  191.2860  174.8220  137.4360 C   0  0  0  0  0  3  0  0  0  0  0  0
  191.9190  174.8720  136.1880 C   0  0  0  0  0  0  0  0  0  0  0  0
  191.5130  173.9850  135.1780 O   0  0  0  0  0  0  0  0  0  0  0  0
  191.6320  172.5740  135.3150 C   0  0  0  0  0  2  0  0  0  0  0  0
  193.0970  172.1500  135.2960 C   0  0  0  0  0  2  0  0  0  0  0  0
  193.6940  172.3090  136.5530 O   0  0  0  0  0  0  0  0  0  0  0  0
  194.8830  171.5740  136.4610 C   0  0  0  0  0  2  0  0  0  0  0  0
  196.4100  173.5240  136.2720 C   0  0  0  0  0  2  0  0  0  0  0  0
  196.4500  174.7320  137.1890 C   0  0  2  0  0  3  0  0  0  0  0  0
  196.0190  172.3320  137.1270 C   0  0  1  0  0  3  0  0  0  0  0  0
  197.6650  175.4120  137.0380 O   0  0  0  0  0  1  0  0  0  0  0  0
  195.5610  175.0970  139.3690 O   0  0  0  0  0  1  0  0  0  0  0  0
  195.5960  172.8870  138.4770 C   0  0  0  0  0  2  0  0  0  0  0  0
  196.3230  174.2150  138.6070 C   0  0  1  0  0  3  0  0  0  0  0  0
  185.6800  179.0930  141.3910 C   0  0  0  0  0  2  0  0  0  0  0  0
  184.8730  179.5040  140.2530 N   0  0  0  0  0  2  0  0  0  0  0  0
  182.4120  179.9410  139.5290 O   0  0  0  0  0  1  0  0  0  0  0  0
  183.8550  178.5030  138.2900 C   0  0  2  0  0  3  0  0  0  0  0  0
  184.1890  178.3170  139.7690 C   0  0  2  0  0  3  0  0  0  0  0  0
  182.7580  178.6010  139.3350 C   0  0  1  0  0  3  0  0  0  0  0  0
  183.7190  177.1590  137.5760 C   0  0  1  0  0  3  0  0  0  0  0  0
  183.0340  177.3310  136.2410 C   0  0  0  0  0  1  0  0  0  0  0  0
  186.5800  178.3460  136.8050 C   0  0  0  0  0  3  0  0  0  0  0  0
  186.6070  174.6510  137.0890 C   0  0  0  0  0  2  0  0  0  0  0  0
  187.1980  176.0050  136.8470 C   0  0  0  0  0  0  0  0  0  0  0  0
  186.2560  177.0010  137.0090 C   0  0  0  0  0  0  0  0  0  0  0  0
  188.8630  177.6660  136.3220 C   0  0  0  0  0  3  0  0  0  0  0  0
  184.2700  174.2310  137.6380 O   0  0  0  0  0  0  0  0  0  0  0  0
  185.0020  176.4670  137.4100 N   0  0  0  0  0  0  0  0  0  0  0  0
  187.8970  178.6760  136.4650 C   0  0  0  0  0  3  0  0  0  0  0  0
  185.1980  175.0550  137.4400 C   0  0  0  0  0  0  0  0  0  0  0  0
  188.5140  176.3160  136.5090 C   0  0  0  0  0  3  0  0  0  0  0  0
  189.6350  178.6680  143.1190 C   0  0  0  0  0  2  0  0  0  0  0  0
  191.4300  179.0230  142.9710 S   0  0  0  0  0  0  0  0  0  0  0  0
  191.7720  178.4510  144.6580 C   0  0  0  0  0  2  0  0  0  0  0  0
  191.2570  177.0250  144.8490 C   0  0  0  0  0  2  0  0  0  0  0  0
  192.2750  174.9710  145.6610 O   0  0  0  0  0  1  0  0  0  0  0  0
  191.9750  176.2940  145.9880 C   0  0  2  0  0  3  0  0  0  0  0  0
  191.2760  176.4320  147.3630 C   0  0  1  0  0  3  0  0  0  0  0  0
  189.9000  176.1910  147.2330 O   0  0  0  0  0  0  0  0  0  0  0  0
  189.2520  177.4180  147.3920 C   0  0  1  0  0  3  0  0  0  0  0  0
  188.5030  177.7240  146.1110 C   0  0  0  0  0  2  0  0  0  0  0  0
  187.7390  177.2430  147.3320 C   0  0  2  0  0  3  0  0  0  0  0  0
  186.2380  179.2990  147.3500 C   0  0  0  0  0  0  0  0  0  0  0  0
  185.9070  180.3500  147.9660 O   0  0  0  0  0  0  0  0  0  0  0  0
  187.1210  178.3810  148.0000 N   0  0  0  0  0  2  0  0  0  0  0  0
  185.7640  179.0420  146.0210 N   0  0  0  0  0  0  0  0  0  0  0  0
  184.5210  178.7830  145.7700 C   0  0  0  0  0  3  0  0  0  0  0  0
  182.6610  178.9200  144.1510 C   0  0  0  0  0  1  0  0  0  0  0  0
  184.0920  178.4880  144.3740 C   0  0  0  0  0  2  0  0  0  0  0  0
  191.8550  175.4910  148.4200 C   0  0  0  0  0  2  0  0  0  0  0  0
  192.9990  177.5180  149.6950 C   0  0  0  0  0  1  0  0  0  0  0  0
  193.5440  175.9940  148.8590 S   0  0  0  0  0  0  0  0  0  0  0  0
  1  4  1  0  0  0  0
  1 47  1  1  0  0  0
  3  6  1  0  0  0  0
  3  5  1  0  0  0  0
  4  2  2  0  0  0  0
  5 29  1  1  0  0  0
  5  4  1  0  0  0  0
  6  1  1  0  0  0  0
  7  9  2  0  0  0  0
  9  1  1  0  0  0  0
  9  8  1  0  0  0  0
 10  7  1  0  0  0  0
 11 10  1  0  0  0  0
 12 11  1  0  0  0  0
 13 12  2  0  0  0  0
 14 16  2  0  0  0  0
 14 13  1  0  0  0  0
 15 11  2  0  0  0  0
 16 15  1  0  0  0  0
 17 18  1  0  0  0  0
 17 16  1  0  0  0  0
 19 18  1  0  0  0  0
 19 20  1  0  0  0  0
 21 20  1  0  0  0  0
 22 24  1  0  0  0  0
 22 23  1  0  0  0  0
 23 25  1  1  0  0  0
 23 28  1  0  0  0  0
 24 21  1  6  0  0  0
 24 27  1  0  0  0  0
 27 28  1  0  0  0  0
 28 26  1  1  0  0  0
 30 29  1  0  0  0  0
 32 35  1  6  0  0  0
 32 34  1  0  0  0  0
 32 33  1  0  0  0  0
 33 30  1  1  0  0  0
 34 31  1  1  0  0  0
 34 33  1  0  0  0  0
 35 36  1  6  0  0  0
 37 40  1  0  0  0  0
 38 45  1  0  0  0  0
 39 40  2  0  0  0  0
 39 38  1  0  0  0  0
 40 43  1  0  0  0  0
 41 44  1  0  0  0  0
 41 46  2  0  0  0  0
 43 45  1  0  0  0  0
 43 35  1  0  0  0  0
 44 37  2  0  0  0  0
 45 42  2  0  0  0  0
 46 39  1  0  0  0  0
 48 47  1  0  0  0  0
 48 49  1  0  0  0  0
 49 50  1  0  0  0  0
 50 52  1  0  0  0  0
 52 51  1  6  0  0  0
 52 53  1  0  0  0  0
 53 65  1  1  0  0  0
 54 53  1  0  0  0  0
 55 54  1  6  0  0  0
 56 57  1  0  0  0  0
 56 55  1  0  0  0  0
 57 55  1  0  0  0  0
 57 60  1  1  0  0  0
 58 59  2  0  0  0  0
 58 60  1  0  0  0  0
 61 58  1  0  0  0  0
 62 61  2  0  0  0  0
 63 64  1  0  0  0  0
 64 62  1  0  0  0  0
 65 67  1  0  0  0  0
 67 66  1  0  0  0  0
M  END
>  <MODEL>
1

>  <REMARK>
 VINA RESULT:      -5.6      0.000      0.000
  Name = 
  27 active torsions:
  status: ('A' for Active; 'I' for Inactive)
    1  A    between atoms: N_1  and  C_20
    2  A    between atoms: C_2  and  C_42
    3  A    between atoms: C_2  and  S_61
    4  A    between atoms: O_3  and  C_19
    5  A    between atoms: O_3  and  C_42
    6  A    between atoms: C_6  and  C_22
    7  A    between atoms: C_6  and  C_60
    8  A    between atoms: C_7  and  O_48
    9  A    between atoms: O_11  and  C_37
   10  A    between atoms: O_11  and  C_67
   11  A    between atoms: C_14  and  O_48
   12  A    between atoms: C_15  and  S_21
   13  A    between atoms: C_15  and  C_50
   14  A    between atoms: C_17  and  C_67
   15  A    between atoms: S_21  and  C_22
   16  A    between atoms: N_26  and  C_49
   17  A    between atoms: N_26  and  C_55
   18  A    between atoms: N_28  and  C_53
   19  A    between atoms: O_32  and  C_63
   20  A    between atoms: O_32  and  C_64
   21  A    between atoms: N_35  and  C_47
   22  A    between atoms: C_37  and  C_63
   23  A    between atoms: C_39  and  C_47
   24  A    between atoms: C_40  and  C_42
   25  A    between atoms: C_40  and  C_50
   26  A    between atoms: C_45  and  C_66
   27  A    between atoms: C_49  and  C_54
                            x       y       z     vdW  Elec       q    Type
                         _______ _______ _______ _____ _____    ______ ____

>  <TORSDO>
F 27

$$$$
=
 OpenBabel10232407473D

 67 73  0  0  1  0  0  0  0  0999 V2000
  188.8990  178.0790  142.0260 C   0  0  2  0  0  0  0  0  0  0  0  0
  187.0860  177.1060  143.3140 O   0  0  0  0  0  0  0  0  0  0  0  0
  187.5700  178.9630  140.3820 C   0  0  0  0  0  2  0  0  0  0  0  0
  187.4690  177.7570  142.3430 C   0  0  0  0  0  0  0  0  0  0  0  0
  186.5820  178.2570  141.2930 C   0  0  1  0  0  3  0  0  0  0  0  0
  188.8310  179.0700  141.0180 O   0  0  0  0  0  0  0  0  0  0  0  0
  190.0610  176.8350  140.2290 C   0  0  0  0  0  3  0  0  0  0  0  0
  189.8410  175.6800  142.3770 C   0  0  0  0  0  1  0  0  0  0  0  0
  189.6580  176.8770  141.4960 C   0  0  0  0  0  0  0  0  0  0  0  0
  190.7100  175.7270  139.6790 O   0  0  0  0  0  0  0  0  0  0  0  0
  191.0050  175.6620  138.3170 C   0  0  0  0  0  0  0  0  0  0  0  0
  192.1950  176.1930  137.7950 C   0  0  0  0  0  3  0  0  0  0  0  0
  192.4650  176.1270  136.4270 C   0  0  0  0  0  3  0  0  0  0  0  0
  191.5470  175.5320  135.5690 C   0  0  0  0  0  3  0  0  0  0  0  0
  190.0970  175.0510  137.4500 C   0  0  0  0  0  3  0  0  0  0  0  0
  190.3520  175.0000  136.0740 C   0  0  0  0  0  0  0  0  0  0  0  0
  189.4120  174.3930  135.2260 O   0  0  0  0  0  0  0  0  0  0  0  0
  188.5150  173.3870  135.6840 C   0  0  0  0  0  2  0  0  0  0  0  0
  187.0920  173.9290  135.7640 C   0  0  0  0  0  2  0  0  0  0  0  0
  186.1440  172.9090  135.6040 O   0  0  0  0  0  0  0  0  0  0  0  0
  185.2150  173.4450  134.7030 C   0  0  0  0  0  2  0  0  0  0  0  0
  184.3790  171.1260  135.0100 C   0  0  0  0  0  2  0  0  0  0  0  0
  183.3490  170.6650  136.0240 C   0  0  2  0  0  3  0  0  0  0  0  0
  183.9980  172.5400  134.6060 C   0  0  1  0  0  3  0  0  0  0  0  0
  182.8310  169.4180  135.6520 O   0  0  0  0  0  1  0  0  0  0  0  0
  181.7590  171.8680  137.3290 O   0  0  0  0  0  1  0  0  0  0  0  0
  182.9030  172.9840  135.5610 C   0  0  0  0  0  2  0  0  0  0  0  0
  182.2430  171.7000  136.0340 C   0  0  1  0  0  3  0  0  0  0  0  0
  185.5710  179.2520  141.8500 C   0  0  0  0  0  2  0  0  0  0  0  0
  184.4310  179.3530  140.9520 N   0  0  0  0  0  2  0  0  0  0  0  0
  181.8650  179.0220  140.6760 O   0  0  0  0  0  1  0  0  0  0  0  0
  183.4340  178.0020  139.1980 C   0  0  2  0  0  3  0  0  0  0  0  0
  184.0540  177.9950  140.5950 C   0  0  2  0  0  3  0  0  0  0  0  0
  182.5510  177.8310  140.4220 C   0  0  1  0  0  3  0  0  0  0  0  0
  183.5800  176.6420  138.5180 C   0  0  1  0  0  3  0  0  0  0  0  0
  182.3000  175.8490  138.6330 C   0  0  0  0  0  1  0  0  0  0  0  0
  186.4670  177.2440  137.2960 C   0  0  0  0  0  3  0  0  0  0  0  0
  183.8450  176.9960  134.6880 C   0  0  0  0  0  2  0  0  0  0  0  0
  185.2340  177.1920  135.2130 C   0  0  0  0  0  0  0  0  0  0  0  0
  185.2730  177.0720  136.5870 C   0  0  0  0  0  0  0  0  0  0  0  0
  187.6070  177.6090  135.1810 C   0  0  0  0  0  3  0  0  0  0  0  0
  181.8820  176.5800  136.0710 O   0  0  0  0  0  0  0  0  0  0  0  0
  183.9960  176.7450  137.1150 N   0  0  0  0  0  0  0  0  0  0  0  0
  187.6400  177.5080  136.5810 C   0  0  0  0  0  3  0  0  0  0  0  0
  183.1280  176.7190  135.9840 C   0  0  0  0  0  0  0  0  0  0  0  0
  186.3930  177.4540  134.4850 C   0  0  0  0  0  3  0  0  0  0  0  0
  189.6480  178.6970  143.2200 C   0  0  0  0  0  2  0  0  0  0  0  0
  191.4740  178.7280  143.0320 S   0  0  0  0  0  0  0  0  0  0  0  0
  191.7450  178.0680  144.6990 C   0  0  0  0  0  2  0  0  0  0  0  0
  191.7120  176.5400  144.6770 C   0  0  0  0  0  2  0  0  0  0  0  0
  192.0910  174.5350  146.0010 O   0  0  0  0  0  1  0  0  0  0  0  0
  192.2010  175.9270  145.9930 C   0  0  2  0  0  3  0  0  0  0  0  0
  191.5970  176.5870  147.2570 C   0  0  1  0  0  3  0  0  0  0  0  0
  190.2400  176.2540  147.3750 O   0  0  0  0  0  0  0  0  0  0  0  0
  189.5310  177.4530  147.4740 C   0  0  1  0  0  3  0  0  0  0  0  0
  188.6910  177.6060  146.2210 C   0  0  0  0  0  2  0  0  0  0  0  0
  188.0300  177.1920  147.5240 C   0  0  2  0  0  3  0  0  0  0  0  0
  186.3310  179.0890  147.5130 C   0  0  0  0  0  0  0  0  0  0  0  0
  185.9730  180.1770  148.0400 O   0  0  0  0  0  0  0  0  0  0  0  0
  187.3860  178.3480  148.1340 N   0  0  0  0  0  2  0  0  0  0  0  0
  185.7170  178.6150  146.3060 N   0  0  0  0  0  0  0  0  0  0  0  0
  184.4520  178.7570  146.0740 C   0  0  0  0  0  3  0  0  0  0  0  0
  182.9260  179.2170  144.1870 C   0  0  0  0  0  1  0  0  0  0  0  0
  183.8620  178.2130  144.8180 C   0  0  0  0  0  2  0  0  0  0  0  0
  192.3280  176.1900  148.5410 C   0  0  0  0  0  2  0  0  0  0  0  0
  194.1340  176.8870  150.3550 C   0  0  0  0  0  1  0  0  0  0  0  0
  192.7030  177.6620  149.5370 S   0  0  0  0  0  0  0  0  0  0  0  0
  1  4  1  0  0  0  0
  1 47  1  1  0  0  0
  3  6  1  0  0  0  0
  3  5  1  0  0  0  0
  4  2  2  0  0  0  0
  5 29  1  1  0  0  0
  5  4  1  0  0  0  0
  6  1  1  0  0  0  0
  7  9  2  0  0  0  0
  9  1  1  0  0  0  0
  9  8  1  0  0  0  0
 10  7  1  0  0  0  0
 11 10  1  0  0  0  0
 12 11  1  0  0  0  0
 13 12  2  0  0  0  0
 14 16  2  0  0  0  0
 14 13  1  0  0  0  0
 15 11  2  0  0  0  0
 16 15  1  0  0  0  0
 17 18  1  0  0  0  0
 17 16  1  0  0  0  0
 18 19  1  0  0  0  0
 20 19  1  0  0  0  0
 21 20  1  0  0  0  0
 22 23  1  0  0  0  0
 23 25  1  6  0  0  0
 23 28  1  0  0  0  0
 24 21  1  1  0  0  0
 24 22  1  0  0  0  0
 24 27  1  0  0  0  0
 27 28  1  0  0  0  0
 28 26  1  1  0  0  0
 30 29  1  0  0  0  0
 32 35  1  6  0  0  0
 32 34  1  0  0  0  0
 32 33  1  0  0  0  0
 33 30  1  1  0  0  0
 34 33  1  0  0  0  0
 34 31  1  1  0  0  0
 35 36  1  6  0  0  0
 38 39  1  0  0  0  0
 38 45  1  0  0  0  0
 39 40  2  0  0  0  0
 40 43  1  0  0  0  0
 40 37  1  0  0  0  0
 41 44  1  0  0  0  0
 43 35  1  0  0  0  0
 44 37  2  0  0  0  0
 45 42  2  0  0  0  0
 45 43  1  0  0  0  0
 46 41  2  0  0  0  0
 46 39  1  0  0  0  0
 48 47  1  0  0  0  0
 48 49  1  0  0  0  0
 50 49  1  0  0  0  0
 50 52  1  0  0  0  0
 52 51  1  6  0  0  0
 52 53  1  0  0  0  0
 53 54  1  0  0  0  0
 53 65  1  1  0  0  0
 55 54  1  6  0  0  0
 55 57  1  0  0  0  0
 56 55  1  0  0  0  0
 56 57  1  0  0  0  0
 57 60  1  1  0  0  0
 58 59  2  0  0  0  0
 58 60  1  0  0  0  0
 61 58  1  0  0  0  0
 62 61  2  0  0  0  0
 63 64  1  0  0  0  0
 64 62  1  0  0  0  0
 65 67  1  0  0  0  0
 67 66  1  0  0  0  0
M  END
>  <MODEL>
2

>  <REMARK>
 VINA RESULT:      -5.5      2.189      4.967
  Name = 
  27 active torsions:
  status: ('A' for Active; 'I' for Inactive)
    1  A    between atoms: N_1  and  C_20
    2  A    between atoms: C_2  and  C_42
    3  A    between atoms: C_2  and  S_61
    4  A    between atoms: O_3  and  C_19
    5  A    between atoms: O_3  and  C_42
    6  A    between atoms: C_6  and  C_22
    7  A    between atoms: C_6  and  C_60
    8  A    between atoms: C_7  and  O_48
    9  A    between atoms: O_11  and  C_37
   10  A    between atoms: O_11  and  C_67
   11  A    between atoms: C_14  and  O_48
   12  A    between atoms: C_15  and  S_21
   13  A    between atoms: C_15  and  C_50
   14  A    between atoms: C_17  and  C_67
   15  A    between atoms: S_21  and  C_22
   16  A    between atoms: N_26  and  C_49
   17  A    between atoms: N_26  and  C_55
   18  A    between atoms: N_28  and  C_53
   19  A    between atoms: O_32  and  C_63
   20  A    between atoms: O_32  and  C_64
   21  A    between atoms: N_35  and  C_47
   22  A    between atoms: C_37  and  C_63
   23  A    between atoms: C_39  and  C_47
   24  A    between atoms: C_40  and  C_42
   25  A    between atoms: C_40  and  C_50
   26  A    between atoms: C_45  and  C_66
   27  A    between atoms: C_49  and  C_54
                            x       y       z     vdW  Elec       q    Type
                         _______ _______ _______ _____ _____    ______ ____

>  <TORSDO>
F 27

$$$$
=
 OpenBabel10232407473D

 67 73  0  0  1  0  0  0  0  0999 V2000
  188.6890  177.9090  138.9760 C   0  0  2  0  0  0  0  0  0  0  0  0
  189.3410  175.7970  139.9790 O   0  0  0  0  0  0  0  0  0  0  0  0
  188.8890  179.1490  140.8920 C   0  0  0  0  0  2  0  0  0  0  0  0
  189.1390  177.0050  140.0850 C   0  0  0  0  0  0  0  0  0  0  0  0
  189.2330  177.7420  141.3460 C   0  0  1  0  0  3  0  0  0  0  0  0
  188.8790  179.2190  139.4780 O   0  0  0  0  0  0  0  0  0  0  0  0
  186.8720  177.0790  137.5150 C   0  0  0  0  0  3  0  0  0  0  0  0
  186.1770  178.3530  139.4870 C   0  0  0  0  0  1  0  0  0  0  0  0
  187.2250  177.7130  138.6290 C   0  0  0  0  0  0  0  0  0  0  0  0
  185.5400  176.9260  137.1210 O   0  0  0  0  0  0  0  0  0  0  0  0
  185.1110  175.7820  136.4480 C   0  0  0  0  0  0  0  0  0  0  0  0
  185.7160  175.3590  135.2540 C   0  0  0  0  0  3  0  0  0  0  0  0
  185.2630  174.2170  134.5910 C   0  0  0  0  0  3  0  0  0  0  0  0
  184.2010  173.4890  135.1140 C   0  0  0  0  0  3  0  0  0  0  0  0
  184.0560  175.0340  136.9760 C   0  0  0  0  0  3  0  0  0  0  0  0
  183.5840  173.8990  136.3050 C   0  0  0  0  0  0  0  0  0  0  0  0
  182.5110  173.1780  136.8520 O   0  0  0  0  0  0  0  0  0  0  0  0
  181.3380  173.8180  137.3430 C   0  0  0  0  0  2  0  0  0  0  0  0
  180.7330  174.7280  136.2800 C   0  0  0  0  0  2  0  0  0  0  0  0
  180.0380  175.7990  136.8550 O   0  0  0  0  0  0  0  0  0  0  0  0
  180.8710  176.9040  136.6350 C   0  0  0  0  0  2  0  0  0  0  0  0
  181.2480  177.3010  139.0580 C   0  0  0  0  0  2  0  0  0  0  0  0
  182.1910  178.3200  139.6700 C   0  0  2  0  0  3  0  0  0  0  0  0
  180.7210  177.9050  137.7680 C   0  0  1  0  0  3  0  0  0  0  0  0
  181.8540  178.5460  141.0100 O   0  0  0  0  0  1  0  0  0  0  0  0
  183.2650  180.2390  138.7510 O   0  0  0  0  0  1  0  0  0  0  0  0
  181.5410  179.1590  137.5100 C   0  0  0  0  0  2  0  0  0  0  0  0
  182.0330  179.6020  138.8770 C   0  0  1  0  0  3  0  0  0  0  0  0
  190.6480  177.6970  141.9080 C   0  0  0  0  0  2  0  0  0  0  0  0
  190.6610  178.2470  143.2550 N   0  0  0  0  0  2  0  0  0  0  0  0
  192.0710  177.8810  145.4110 O   0  0  0  0  0  1  0  0  0  0  0  0
  189.6870  177.8750  145.4470 C   0  0  2  0  0  3  0  0  0  0  0  0
  190.1240  177.2240  144.1360 C   0  0  2  0  0  3  0  0  0  0  0  0
  190.9550  177.0400  145.3970 C   0  0  1  0  0  3  0  0  0  0  0  0
  188.6000  177.0550  146.1400 C   0  0  1  0  0  3  0  0  0  0  0  0
  189.0550  176.6200  147.5130 C   0  0  0  0  0  1  0  0  0  0  0  0
  186.4580  177.6480  143.8490 C   0  0  0  0  0  3  0  0  0  0  0  0
  185.5390  179.1990  147.0880 C   0  0  0  0  0  2  0  0  0  0  0  0
  185.3640  178.8560  145.6410 C   0  0  0  0  0  0  0  0  0  0  0  0
  186.4010  178.0670  145.1820 C   0  0  0  0  0  0  0  0  0  0  0  0
  184.3530  178.7970  143.4550 C   0  0  0  0  0  3  0  0  0  0  0  0
  187.4350  178.5170  148.4600 O   0  0  0  0  0  0  0  0  0  0  0  0
  187.3160  177.7600  146.2230 N   0  0  0  0  0  0  0  0  0  0  0  0
  185.4200  178.0140  142.9850 C   0  0  0  0  0  3  0  0  0  0  0  0
  186.8190  178.4530  147.3660 C   0  0  0  0  0  0  0  0  0  0  0  0
  184.3220  179.2280  144.7940 C   0  0  0  0  0  3  0  0  0  0  0  0
  189.5570  177.7760  137.7120 C   0  0  0  0  0  2  0  0  0  0  0  0
  190.1900  176.0800  137.4060 S   0  0  0  0  0  0  0  0  0  0  0  0
  191.8720  176.6720  137.0750 C   0  0  0  0  0  2  0  0  0  0  0  0
  192.8990  175.6410  137.5420 C   0  0  0  0  0  2  0  0  0  0  0  0
  194.5870  176.9080  136.3340 O   0  0  0  0  0  1  0  0  0  0  0  0
  194.1510  175.6230  136.6590 C   0  0  2  0  0  3  0  0  0  0  0  0
  194.0360  174.6950  135.4250 C   0  0  1  0  0  3  0  0  0  0  0  0
  195.3130  174.3750  134.9390 O   0  0  0  0  0  0  0  0  0  0  0  0
  196.2210  174.6450  135.9650 C   0  0  1  0  0  3  0  0  0  0  0  0
  196.5840  173.3320  136.6290 C   0  0  0  0  0  2  0  0  0  0  0  0
  197.5690  173.9930  135.6800 C   0  0  2  0  0  3  0  0  0  0  0  0
  199.3710  174.0860  137.4770 C   0  0  0  0  0  0  0  0  0  0  0  0
  200.0900  174.8270  138.2020 O   0  0  0  0  0  0  0  0  0  0  0  0
  198.5880  174.6980  136.4480 N   0  0  0  0  0  2  0  0  0  0  0  0
  199.3170  172.6690  137.6920 N   0  0  0  0  0  0  0  0  0  0  0  0
  200.2270  171.8680  137.2420 C   0  0  0  0  0  3  0  0  0  0  0  0
  198.9710  169.8270  136.6430 C   0  0  0  0  0  1  0  0  0  0  0  0
  200.1000  170.4000  137.4660 C   0  0  0  0  0  2  0  0  0  0  0  0
  193.2710  173.4040  135.7210 C   0  0  0  0  0  2  0  0  0  0  0  0
  192.9730  170.7900  135.3780 C   0  0  0  0  0  1  0  0  0  0  0  0
  193.4870  172.2140  134.3650 S   0  0  0  0  0  0  0  0  0  0  0  0
  1 47  1  6  0  0  0
  1  6  1  0  0  0  0
  1  4  1  0  0  0  0
  2  4  2  0  0  0  0
  3  5  1  0  0  0  0
  4  5  1  0  0  0  0
  5 29  1  6  0  0  0
  6  3  1  0  0  0  0
  7  9  2  0  0  0  0
  9  1  1  0  0  0  0
  9  8  1  0  0  0  0
 10  7  1  0  0  0  0
 11 15  1  0  0  0  0
 11 10  1  0  0  0  0
 12 11  2  0  0  0  0
 13 14  2  0  0  0  0
 13 12  1  0  0  0  0
 14 16  1  0  0  0  0
 16 17  1  0  0  0  0
 16 15  2  0  0  0  0
 17 18  1  0  0  0  0
 19 20  1  0  0  0  0
 19 18  1  0  0  0  0
 21 20  1  0  0  0  0
 22 23  1  0  0  0  0
 23 25  1  1  0  0  0
 24 21  1  6  0  0  0
 24 22  1  0  0  0  0
 27 24  1  0  0  0  0
 27 28  1  0  0  0  0
 28 26  1  6  0  0  0
 28 23  1  0  0  0  0
 29 30  1  0  0  0  0
 32 35  1  1  0  0  0
 33 30  1  6  0  0  0
 33 34  1  0  0  0  0
 33 32  1  0  0  0  0
 34 31  1  6  0  0  0
 34 32  1  0  0  0  0
 35 43  1  0  0  0  0
 35 36  1  1  0  0  0
 37 40  1  0  0  0  0
 38 45  1  0  0  0  0
 39 38  1  0  0  0  0
 40 39  2  0  0  0  0
 40 43  1  0  0  0  0
 41 46  2  0  0  0  0
 43 45  1  0  0  0  0
 44 41  1  0  0  0  0
 44 37  2  0  0  0  0
 45 42  2  0  0  0  0
 46 39  1  0  0  0  0
 48 47  1  0  0  0  0
 49 48  1  0  0  0  0
 49 50  1  0  0  0  0
 52 51  1  6  0  0  0
 52 50  1  0  0  0  0
 53 65  1  1  0  0  0
 53 52  1  0  0  0  0
 54 53  1  0  0  0  0
 55 54  1  6  0  0  0
 55 56  1  0  0  0  0
 57 55  1  0  0  0  0
 57 60  1  1  0  0  0
 57 56  1  0  0  0  0
 58 61  1  0  0  0  0
 58 59  2  0  0  0  0
 60 58  1  0  0  0  0
 62 64  1  0  0  0  0
 62 61  2  0  0  0  0
 63 64  1  0  0  0  0
 67 66  1  0  0  0  0
 67 65  1  0  0  0  0
M  END
>  <MODEL>
3

>  <REMARK>
 VINA RESULT:      -5.3      3.662     11.510
  Name = 
  27 active torsions:
  status: ('A' for Active; 'I' for Inactive)
    1  A    between atoms: N_1  and  C_20
    2  A    between atoms: C_2  and  C_42
    3  A    between atoms: C_2  and  S_61
    4  A    between atoms: O_3  and  C_19
    5  A    between atoms: O_3  and  C_42
    6  A    between atoms: C_6  and  C_22
    7  A    between atoms: C_6  and  C_60
    8  A    between atoms: C_7  and  O_48
    9  A    between atoms: O_11  and  C_37
   10  A    between atoms: O_11  and  C_67
   11  A    between atoms: C_14  and  O_48
   12  A    between atoms: C_15  and  S_21
   13  A    between atoms: C_15  and  C_50
   14  A    between atoms: C_17  and  C_67
   15  A    between atoms: S_21  and  C_22
   16  A    between atoms: N_26  and  C_49
   17  A    between atoms: N_26  and  C_55
   18  A    between atoms: N_28  and  C_53
   19  A    between atoms: O_32  and  C_63
   20  A    between atoms: O_32  and  C_64
   21  A    between atoms: N_35  and  C_47
   22  A    between atoms: C_37  and  C_63
   23  A    between atoms: C_39  and  C_47
   24  A    between atoms: C_40  and  C_42
   25  A    between atoms: C_40  and  C_50
   26  A    between atoms: C_45  and  C_66
   27  A    between atoms: C_49  and  C_54
                            x       y       z     vdW  Elec       q    Type
                         _______ _______ _______ _____ _____    ______ ____

>  <TORSDO>
F 27

$$$$
=
 OpenBabel10232407473D

 67 73  0  0  1  0  0  0  0  0999 V2000
  189.8950  177.0030  139.5300 C   0  0  2  0  0  0  0  0  0  0  0  0
  189.9530  178.8490  137.9550 O   0  0  0  0  0  0  0  0  0  0  0  0
  187.6800  177.2280  140.0720 C   0  0  0  0  0  2  0  0  0  0  0  0
  189.3230  178.1440  138.7410 C   0  0  0  0  0  0  0  0  0  0  0  0
  187.9190  178.3610  139.0910 C   0  0  1  0  0  3  0  0  0  0  0  0
  188.7680  176.3210  140.0470 O   0  0  0  0  0  0  0  0  0  0  0  0
  190.2240  177.8130  141.8450 C   0  0  0  0  0  3  0  0  0  0  0  0
  192.2320  177.6790  140.4500 C   0  0  0  0  0  1  0  0  0  0  0  0
  190.7660  177.4740  140.6790 C   0  0  0  0  0  0  0  0  0  0  0  0
  190.9770  178.3090  142.9130 O   0  0  0  0  0  0  0  0  0  0  0  0
  190.8550  177.7730  144.1950 C   0  0  0  0  0  0  0  0  0  0  0  0
  191.8310  176.9180  144.7320 C   0  0  0  0  0  3  0  0  0  0  0  0
  191.6840  176.3850  146.0140 C   0  0  0  0  0  3  0  0  0  0  0  0
  190.5600  176.6990  146.7690 C   0  0  0  0  0  3  0  0  0  0  0  0
  189.7380  178.0970  144.9680 C   0  0  0  0  0  3  0  0  0  0  0  0
  189.5750  177.5490  146.2460 C   0  0  0  0  0  0  0  0  0  0  0  0
  188.4330  177.8810  146.9920 O   0  0  0  0  0  0  0  0  0  0  0  0
  187.1290  177.8880  146.4210 C   0  0  0  0  0  2  0  0  0  0  0  0
  186.0970  178.3700  147.4350 C   0  0  0  0  0  2  0  0  0  0  0  0
  184.8180  178.4510  146.8690 O   0  0  0  0  0  0  0  0  0  0  0  0
  185.0030  179.2320  145.7200 C   0  0  0  0  0  2  0  0  0  0  0  0
  183.1720  178.8940  144.0750 C   0  0  0  0  0  2  0  0  0  0  0  0
  183.2260  179.1990  142.5900 C   0  0  2  0  0  3  0  0  0  0  0  0
  184.5670  178.4580  144.4870 C   0  0  1  0  0  3  0  0  0  0  0  0
  182.1980  178.5240  141.9210 O   0  0  0  0  0  1  0  0  0  0  0  0
  185.0580  179.5870  141.1160 O   0  0  0  0  0  1  0  0  0  0  0  0
  185.4780  178.7440  143.3050 C   0  0  0  0  0  2  0  0  0  0  0  0
  184.5710  178.7150  142.0870 C   0  0  1  0  0  3  0  0  0  0  0  0
  187.0160  178.2080  137.8730 C   0  0  0  0  0  2  0  0  0  0  0  0
  185.7140  178.7960  138.1480 N   0  0  0  0  0  2  0  0  0  0  0  0
  183.2200  179.5200  138.3120 O   0  0  0  0  0  1  0  0  0  0  0  0
  183.8770  177.4940  137.2400 C   0  0  2  0  0  3  0  0  0  0  0  0
  184.8060  177.6980  138.4350 C   0  0  2  0  0  3  0  0  0  0  0  0
  183.3530  178.1430  138.5090 C   0  0  1  0  0  3  0  0  0  0  0  0
  183.3510  176.0610  137.1810 C   0  0  1  0  0  3  0  0  0  0  0  0
  181.8580  176.0500  136.9510 C   0  0  0  0  0  1  0  0  0  0  0  0
  183.5660  172.8840  136.9520 C   0  0  0  0  0  3  0  0  0  0  0  0
  185.5400  174.6310  134.3470 C   0  0  0  0  0  2  0  0  0  0  0  0
  184.9910  173.4450  135.0760 C   0  0  0  0  0  0  0  0  0  0  0  0
  184.1690  173.8300  136.1160 C   0  0  0  0  0  0  0  0  0  0  0  0
  184.6000  171.1310  135.6240 C   0  0  0  0  0  3  0  0  0  0  0  0
  185.1020  176.9540  134.9420 O   0  0  0  0  0  0  0  0  0  0  0  0
  184.0330  175.2420  136.1720 N   0  0  0  0  0  0  0  0  0  0  0  0
  183.7830  171.5260  136.6950 C   0  0  0  0  0  3  0  0  0  0  0  0
  184.8690  175.7330  135.1270 C   0  0  0  0  0  0  0  0  0  0  0  0
  185.2160  172.0960  134.8060 C   0  0  0  0  0  3  0  0  0  0  0  0
  190.6680  176.0020  138.6520 C   0  0  0  0  0  2  0  0  0  0  0  0
  190.7990  176.4910  136.8870 S   0  0  0  0  0  0  0  0  0  0  0  0
  190.5160  174.7960  136.3050 C   0  0  0  0  0  2  0  0  0  0  0  0
  191.3560  174.5150  135.0600 C   0  0  0  0  0  2  0  0  0  0  0  0
  190.8280  172.2060  135.6100 O   0  0  0  0  0  1  0  0  0  0  0  0
  191.7190  173.0330  134.9240 C   0  0  2  0  0  3  0  0  0  0  0  0
  193.2010  172.7170  135.2390 C   0  0  1  0  0  3  0  0  0  0  0  0
  193.4780  172.9850  136.5870 O   0  0  0  0  0  0  0  0  0  0  0  0
  194.2850  174.1240  136.6210 C   0  0  1  0  0  3  0  0  0  0  0  0
  194.5580  174.4630  138.0730 C   0  0  0  0  0  2  0  0  0  0  0  0
  195.6430  173.8070  137.2380 C   0  0  2  0  0  3  0  0  0  0  0  0
  197.9110  174.5160  136.3240 C   0  0  0  0  0  0  0  0  0  0  0  0
  198.7140  175.4710  136.1380 O   0  0  0  0  0  0  0  0  0  0  0  0
  196.5930  174.8170  136.7920 N   0  0  0  0  0  2  0  0  0  0  0  0
  198.3140  173.1580  136.0970 N   0  0  0  0  0  0  0  0  0  0  0  0
  198.1230  172.2260  136.9740 C   0  0  0  0  0  3  0  0  0  0  0  0
  197.8740  169.8440  137.5760 C   0  0  0  0  0  1  0  0  0  0  0  0
  198.5950  170.8400  136.6980 C   0  0  0  0  0  2  0  0  0  0  0  0
  193.5790  171.2680  134.9250 C   0  0  0  0  0  2  0  0  0  0  0  0
  194.6780  168.9350  135.5490 C   0  0  0  0  0  1  0  0  0  0  0  0
  194.0600  170.3960  136.4440 S   0  0  0  0  0  0  0  0  0  0  0  0
  1 47  1  6  0  0  0
  1  6  1  0  0  0  0
  1  9  1  0  0  0  0
  2  4  2  0  0  0  0
  4  5  1  0  0  0  0
  4  1  1  0  0  0  0
  5 29  1  6  0  0  0
  5  3  1  0  0  0  0
  6  3  1  0  0  0  0
  7 10  1  0  0  0  0
  8  9  1  0  0  0  0
  9  7  2  0  0  0  0
 10 11  1  0  0  0  0
 11 12  2  0  0  0  0
 11 15  1  0  0  0  0
 12 13  1  0  0  0  0
 13 14  2  0  0  0  0
 15 16  2  0  0  0  0
 16 14  1  0  0  0  0
 16 17  1  0  0  0  0
 18 17  1  0  0  0  0
 18 19  1  0  0  0  0
 20 19  1  0  0  0  0
 21 20  1  0  0  0  0
 22 24  1  0  0  0  0
 23 25  1  6  0  0  0
 23 22  1  0  0  0  0
 24 21  1  1  0  0  0
 27 24  1  0  0  0  0
 28 26  1  6  0  0  0
 28 23  1  0  0  0  0
 28 27  1  0  0  0  0
 29 30  1  0  0  0  0
 32 35  1  1  0  0  0
 32 33  1  0  0  0  0
 32 34  1  0  0  0  0
 33 30  1  6  0  0  0
 33 34  1  0  0  0  0
 34 31  1  6  0  0  0
 35 36  1  6  0  0  0
 38 39  1  0  0  0  0
 38 45  1  0  0  0  0
 39 40  1  0  0  0  0
 40 43  1  0  0  0  0
 40 37  2  0  0  0  0
 41 44  2  0  0  0  0
 42 45  2  0  0  0  0
 43 35  1  0  0  0  0
 44 37  1  0  0  0  0
 45 43  1  0  0  0  0
 46 39  2  0  0  0  0
 46 41  1  0  0  0  0
 48 47  1  0  0  0  0
 49 48  1  0  0  0  0
 50 49  1  0  0  0  0
 52 50  1  0  0  0  0
 52 53  1  0  0  0  0
 52 51  1  1  0  0  0
 53 65  1  1  0  0  0
 53 54  1  0  0  0  0
 55 54  1  1  0  0  0
 55 57  1  0  0  0  0
 55 56  1  0  0  0  0
 57 60  1  6  0  0  0
 57 56  1  0  0  0  0
 58 60  1  0  0  0  0
 59 58  2  0  0  0  0
 61 58  1  0  0  0  0
 61 62  2  0  0  0  0
 64 62  1  0  0  0  0
 64 63  1  0  0  0  0
 65 67  1  0  0  0  0
 66 67  1  0  0  0  0
M  END
>  <MODEL>
4

>  <REMARK>
 VINA RESULT:      -5.2      3.358     10.502
  Name = 
  27 active torsions:
  status: ('A' for Active; 'I' for Inactive)
    1  A    between atoms: N_1  and  C_20
    2  A    between atoms: C_2  and  C_42
    3  A    between atoms: C_2  and  S_61
    4  A    between atoms: O_3  and  C_19
    5  A    between atoms: O_3  and  C_42
    6  A    between atoms: C_6  and  C_22
    7  A    between atoms: C_6  and  C_60
    8  A    between atoms: C_7  and  O_48
    9  A    between atoms: O_11  and  C_37
   10  A    between atoms: O_11  and  C_67
   11  A    between atoms: C_14  and  O_48
   12  A    between atoms: C_15  and  S_21
   13  A    between atoms: C_15  and  C_50
   14  A    between atoms: C_17  and  C_67
   15  A    between atoms: S_21  and  C_22
   16  A    between atoms: N_26  and  C_49
   17  A    between atoms: N_26  and  C_55
   18  A    between atoms: N_28  and  C_53
   19  A    between atoms: O_32  and  C_63
   20  A    between atoms: O_32  and  C_64
   21  A    between atoms: N_35  and  C_47
   22  A    between atoms: C_37  and  C_63
   23  A    between atoms: C_39  and  C_47
   24  A    between atoms: C_40  and  C_42
   25  A    between atoms: C_40  and  C_50
   26  A    between atoms: C_45  and  C_66
   27  A    between atoms: C_49  and  C_54
                            x       y       z     vdW  Elec       q    Type
                         _______ _______ _______ _____ _____    ______ ____

>  <TORSDO>
F 27

$$$$
=
 OpenBabel10232407473D

 67 73  0  0  1  0  0  0  0  0999 V2000
  187.9520  177.4880  138.0030 C   0  0  2  0  0  0  0  0  0  0  0  0
  189.2600  179.3080  137.0710 O   0  0  0  0  0  0  0  0  0  0  0  0
  188.8540  175.8500  136.6790 C   0  0  0  0  0  2  0  0  0  0  0  0
  188.9770  178.1120  137.1020 C   0  0  0  0  0  0  0  0  0  0  0  0
  189.5460  177.1130  136.1980 C   0  0  1  0  0  3  0  0  0  0  0  0
  188.1830  176.0960  137.9010 O   0  0  0  0  0  0  0  0  0  0  0  0
  185.6670  178.3440  138.4110 C   0  0  0  0  0  3  0  0  0  0  0  0
  186.0740  177.3560  136.2080 C   0  0  0  0  0  1  0  0  0  0  0  0
  186.5330  177.7950  137.5640 C   0  0  0  0  0  0  0  0  0  0  0  0
  184.3330  178.5910  138.0740 O   0  0  0  0  0  0  0  0  0  0  0  0
  183.2880  178.1540  138.8870 C   0  0  0  0  0  0  0  0  0  0  0  0
  182.8100  178.9310  139.9550 C   0  0  0  0  0  3  0  0  0  0  0  0
  181.7700  178.4690  140.7630 C   0  0  0  0  0  3  0  0  0  0  0  0
  181.1990  177.2270  140.5130 C   0  0  0  0  0  3  0  0  0  0  0  0
  182.6960  176.9150  138.6330 C   0  0  0  0  0  3  0  0  0  0  0  0
  181.6660  176.4370  139.4520 C   0  0  0  0  0  0  0  0  0  0  0  0
  181.1030  175.1800  139.1800 O   0  0  0  0  0  0  0  0  0  0  0  0
  180.4650  174.8860  137.9420 C   0  0  0  0  0  2  0  0  0  0  0  0
  180.6230  173.4110  137.5900 C   0  0  0  0  0  2  0  0  0  0  0  0
  181.5800  173.2210  136.5850 O   0  0  0  0  0  0  0  0  0  0  0  0
  181.8120  171.8390  136.5910 C   0  0  0  0  0  2  0  0  0  0  0  0
  184.0060  171.1180  135.6760 C   0  0  0  0  0  2  0  0  0  0  0  0
  185.2690  171.9550  135.5940 C   0  0  2  0  0  3  0  0  0  0  0  0
  183.2660  171.5550  136.9280 C   0  0  1  0  0  3  0  0  0  0  0  0
  186.3840  171.1280  135.4120 O   0  0  0  0  0  1  0  0  0  0  0  0
  185.9050  173.9760  136.6840 O   0  0  0  0  0  1  0  0  0  0  0  0
  183.9700  172.8040  137.4330 C   0  0  0  0  0  2  0  0  0  0  0  0
  185.3910  172.7010  136.9070 C   0  0  1  0  0  3  0  0  0  0  0  0
  191.0540  176.9940  136.3850 C   0  0  0  0  0  2  0  0  0  0  0  0
  191.5210  175.7310  135.8360 N   0  0  0  0  0  2  0  0  0  0  0  0
  192.3090  173.8260  137.4240 O   0  0  0  0  0  1  0  0  0  0  0  0
  193.5070  174.3920  135.4420 C   0  0  2  0  0  3  0  0  0  0  0  0
  192.9610  175.6920  136.0300 C   0  0  2  0  0  3  0  0  0  0  0  0
  193.3980  174.5600  136.9480 C   0  0  1  0  0  3  0  0  0  0  0  0
  194.9770  174.5340  135.0480 C   0  0  1  0  0  3  0  0  0  0  0  0
  195.5530  175.8180  135.5950 C   0  0  0  0  0  1  0  0  0  0  0  0
  197.7080  174.4770  136.7000 C   0  0  0  0  0  3  0  0  0  0  0  0
  196.6750  171.1080  135.5490 C   0  0  0  0  0  2  0  0  0  0  0  0
  197.5530  172.1040  136.2420 C   0  0  0  0  0  0  0  0  0  0  0  0
  197.0370  173.3810  136.1460 C   0  0  0  0  0  0  0  0  0  0  0  0
  199.4190  172.9520  137.5080 C   0  0  0  0  0  3  0  0  0  0  0  0
  194.6280  171.6590  134.3460 O   0  0  0  0  0  0  0  0  0  0  0  0
  195.7930  173.3870  135.4620 N   0  0  0  0  0  0  0  0  0  0  0  0
  198.9040  174.2530  137.3900 C   0  0  0  0  0  3  0  0  0  0  0  0
  195.5780  172.0300  135.0810 C   0  0  0  0  0  0  0  0  0  0  0  0
  198.7430  171.8640  136.9270 C   0  0  0  0  0  3  0  0  0  0  0  0
  188.1480  177.8740  139.4810 C   0  0  0  0  0  2  0  0  0  0  0  0
  189.7590  177.3510  140.1900 S   0  0  0  0  0  0  0  0  0  0  0  0
  189.3380  177.9830  141.8380 C   0  0  0  0  0  2  0  0  0  0  0  0
  190.5330  177.8410  142.7810 C   0  0  0  0  0  2  0  0  0  0  0  0
  189.0390  176.1920  143.7610 O   0  0  0  0  0  1  0  0  0  0  0  0
  190.3060  176.7690  143.8520 C   0  0  2  0  0  3  0  0  0  0  0  0
  190.6580  177.2300  145.2870 C   0  0  1  0  0  3  0  0  0  0  0  0
  189.8280  178.2930  145.6720 O   0  0  0  0  0  0  0  0  0  0  0  0
  188.8320  177.7580  146.4920 C   0  0  1  0  0  3  0  0  0  0  0  0
  189.0530  178.2770  147.8990 C   0  0  0  0  0  2  0  0  0  0  0  0
  187.9380  178.8610  147.0480 C   0  0  2  0  0  3  0  0  0  0  0  0
  185.4530  178.4360  146.6950 C   0  0  0  0  0  0  0  0  0  0  0  0
  184.3750  178.0340  147.2140 O   0  0  0  0  0  0  0  0  0  0  0  0
  186.6660  178.2660  147.4350 N   0  0  0  0  0  2  0  0  0  0  0  0
  185.4630  179.0700  145.4090 N   0  0  0  0  0  0  0  0  0  0  0  0
  184.6260  178.7510  144.4760 C   0  0  0  0  0  3  0  0  0  0  0  0
  185.6510  178.6790  142.2300 C   0  0  0  0  0  1  0  0  0  0  0  0
  184.7060  179.4200  143.1470 C   0  0  0  0  0  2  0  0  0  0  0  0
  190.5470  176.1040  146.3160 C   0  0  0  0  0  2  0  0  0  0  0  0
  192.2580  176.5550  148.2930 C   0  0  0  0  0  1  0  0  0  0  0  0
  192.1980  175.5180  146.7960 S   0  0  0  0  0  0  0  0  0  0  0  0
  1 47  1  1  0  0  0
  2  4  2  0  0  0  0
  3  6  1  0  0  0  0
  4  1  1  0  0  0  0
  5 29  1  1  0  0  0
  5  3  1  0  0  0  0
  5  4  1  0  0  0  0
  6  1  1  0  0  0  0
  8  9  1  0  0  0  0
  9  1  1  0  0  0  0
  9  7  2  0  0  0  0
 10  7  1  0  0  0  0
 10 11  1  0  0  0  0
 11 12  1  0  0  0  0
 12 13  2  0  0  0  0
 14 13  1  0  0  0  0
 15 11  2  0  0  0  0
 15 16  1  0  0  0  0
 16 14  2  0  0  0  0
 17 16  1  0  0  0  0
 18 17  1  0  0  0  0
 19 18  1  0  0  0  0
 20 21  1  0  0  0  0
 20 19  1  0  0  0  0
 22 24  1  0  0  0  0
 23 25  1  1  0  0  0
 23 22  1  0  0  0  0
 23 28  1  0  0  0  0
 24 21  1  6  0  0  0
 24 27  1  0  0  0  0
 28 26  1  6  0  0  0
 28 27  1  0  0  0  0
 30 29  1  0  0  0  0
 32 35  1  1  0  0  0
 32 33  1  0  0  0  0
 32 34  1  0  0  0  0
 33 30  1  6  0  0  0
 33 34  1  0  0  0  0
 34 31  1  6  0  0  0
 35 43  1  0  0  0  0
 35 36  1  1  0  0  0
 37 44  1  0  0  0  0
 38 39  1  0  0  0  0
 39 46  2  0  0  0  0
 40 39  1  0  0  0  0
 40 37  2  0  0  0  0
 42 45  2  0  0  0  0
 43 40  1  0  0  0  0
 44 41  2  0  0  0  0
 45 43  1  0  0  0  0
 45 38  1  0  0  0  0
 46 41  1  0  0  0  0
 47 48  1  0  0  0  0
 48 49  1  0  0  0  0
 49 50  1  0  0  0  0
 50 52  1  0  0  0  0
 52 51  1  1  0  0  0
 52 53  1  0  0  0  0
 53 54  1  0  0  0  0
 53 65  1  1  0  0  0
 55 54  1  6  0  0  0
 55 57  1  0  0  0  0
 55 56  1  0  0  0  0
 57 60  1  1  0  0  0
 57 56  1  0  0  0  0
 58 59  2  0  0  0  0
 58 60  1  0  0  0  0
 61 58  1  0  0  0  0
 62 61  2  0  0  0  0
 63 64  1  0  0  0  0
 64 62  1  0  0  0  0
 65 67  1  0  0  0  0
 67 66  1  0  0  0  0
M  END
>  <MODEL>
5

>  <REMARK>
 VINA RESULT:      -5.1      2.813      8.708
  Name = 
  27 active torsions:
  status: ('A' for Active; 'I' for Inactive)
    1  A    between atoms: N_1  and  C_20
    2  A    between atoms: C_2  and  C_42
    3  A    between atoms: C_2  and  S_61
    4  A    between atoms: O_3  and  C_19
    5  A    between atoms: O_3  and  C_42
    6  A    between atoms: C_6  and  C_22
    7  A    between atoms: C_6  and  C_60
    8  A    between atoms: C_7  and  O_48
    9  A    between atoms: O_11  and  C_37
   10  A    between atoms: O_11  and  C_67
   11  A    between atoms: C_14  and  O_48
   12  A    between atoms: C_15  and  S_21
   13  A    between atoms: C_15  and  C_50
   14  A    between atoms: C_17  and  C_67
   15  A    between atoms: S_21  and  C_22
   16  A    between atoms: N_26  and  C_49
   17  A    between atoms: N_26  and  C_55
   18  A    between atoms: N_28  and  C_53
   19  A    between atoms: O_32  and  C_63
   20  A    between atoms: O_32  and  C_64
   21  A    between atoms: N_35  and  C_47
   22  A    between atoms: C_37  and  C_63
   23  A    between atoms: C_39  and  C_47
   24  A    between atoms: C_40  and  C_42
   25  A    between atoms: C_40  and  C_50
   26  A    between atoms: C_45  and  C_66
   27  A    between atoms: C_49  and  C_54
                            x       y       z     vdW  Elec       q    Type
                         _______ _______ _______ _____ _____    ______ ____

>  <TORSDO>
F 27

$$$$
=
 OpenBabel10232407473D

 67 73  0  0  1  0  0  0  0  0999 V2000
  189.0530  177.4770  142.3000 C   0  0  2  0  0  0  0  0  0  0  0  0
  190.0830  175.3040  142.6280 O   0  0  0  0  0  0  0  0  0  0  0  0
  190.9310  178.7000  142.7730 C   0  0  0  0  0  2  0  0  0  0  0  0
  190.1740  176.5300  142.6100 C   0  0  0  0  0  0  0  0  0  0  0  0
  191.3860  177.2660  142.9710 C   0  0  1  0  0  3  0  0  0  0  0  0
  189.6810  178.7300  142.1080 O   0  0  0  0  0  0  0  0  0  0  0  0
  186.7980  177.9490  143.2040 C   0  0  0  0  0  3  0  0  0  0  0  0
  188.5300  177.4030  144.8470 C   0  0  0  0  0  1  0  0  0  0  0  0
  188.0560  177.5850  143.4380 C   0  0  0  0  0  0  0  0  0  0  0  0
  185.8590  178.1200  144.2240 O   0  0  0  0  0  0  0  0  0  0  0  0
  184.5300  178.4390  143.9400 C   0  0  0  0  0  0  0  0  0  0  0  0
  183.6070  178.7240  144.9580 C   0  0  0  0  0  3  0  0  0  0  0  0
  182.2800  179.0300  144.6500 C   0  0  0  0  0  3  0  0  0  0  0  0
  181.8640  179.0510  143.3240 C   0  0  0  0  0  3  0  0  0  0  0  0
  184.1080  178.4790  142.6090 C   0  0  0  0  0  3  0  0  0  0  0  0
  182.7740  178.7650  142.2950 C   0  0  0  0  0  0  0  0  0  0  0  0
  182.3760  178.7820  140.9490 O   0  0  0  0  0  0  0  0  0  0  0  0
  181.5940  177.7400  140.3760 C   0  0  0  0  0  2  0  0  0  0  0  0
  180.2730  178.2850  139.8440 C   0  0  0  0  0  2  0  0  0  0  0  0
  180.4300  178.8710  138.5810 O   0  0  0  0  0  0  0  0  0  0  0  0
  180.3660  180.2480  138.8330 C   0  0  0  0  0  2  0  0  0  0  0  0
  180.6630  180.5590  136.3860 C   0  0  0  0  0  2  0  0  0  0  0  0
  180.3500  181.8130  135.5910 C   0  0  2  0  0  3  0  0  0  0  0  0
  181.1250  181.0110  137.7600 C   0  0  1  0  0  3  0  0  0  0  0  0
  181.0040  181.7750  134.3540 O   0  0  0  0  0  1  0  0  0  0  0  0
  179.9830  184.0680  136.2660 O   0  0  0  0  0  1  0  0  0  0  0  0
  180.8460  182.5030  137.8420 C   0  0  0  0  0  2  0  0  0  0  0  0
  180.8520  182.9890  136.4030 C   0  0  1  0  0  3  0  0  0  0  0  0
  192.5340  176.9390  142.0220 C   0  0  0  0  0  2  0  0  0  0  0  0
  192.2420  177.4630  140.6970 N   0  0  0  0  0  2  0  0  0  0  0  0
  190.7580  178.0270  138.6360 O   0  0  0  0  0  1  0  0  0  0  0  0
  192.6290  176.5580  138.4780 C   0  0  2  0  0  3  0  0  0  0  0  0
  191.9780  176.3200  139.8390 C   0  0  2  0  0  3  0  0  0  0  0  0
  191.1230  176.6780  138.6320 C   0  0  1  0  0  3  0  0  0  0  0  0
  192.9350  175.2390  137.7690 C   0  0  1  0  0  3  0  0  0  0  0  0
  191.7310  174.7600  136.9930 C   0  0  0  0  0  1  0  0  0  0  0  0
  195.8070  173.8870  138.1070 C   0  0  0  0  0  3  0  0  0  0  0  0
  195.6250  176.1120  135.1490 C   0  0  0  0  0  2  0  0  0  0  0  0
  196.2780  175.1600  136.1020 C   0  0  0  0  0  0  0  0  0  0  0  0
  195.4020  174.7570  137.0900 C   0  0  0  0  0  0  0  0  0  0  0  0
  198.0040  173.7880  137.0740 C   0  0  0  0  0  3  0  0  0  0  0  0
  193.3290  176.9090  135.3340 O   0  0  0  0  0  0  0  0  0  0  0  0
  194.1110  175.3170  136.8970 N   0  0  0  0  0  0  0  0  0  0  0  0
  197.1170  173.3980  138.0910 C   0  0  0  0  0  3  0  0  0  0  0  0
  194.2420  176.1490  135.7460 C   0  0  0  0  0  0  0  0  0  0  0  0
  197.5870  174.6820  136.0700 C   0  0  0  0  0  3  0  0  0  0  0  0
  188.3270  177.1270  140.9880 C   0  0  0  0  0  2  0  0  0  0  0  0
  187.3180  178.4970  140.2960 S   0  0  0  0  0  0  0  0  0  0  0  0
  187.7650  178.0820  138.5880 C   0  0  0  0  0  2  0  0  0  0  0  0
  186.5380  177.5840  137.8250 C   0  0  0  0  0  2  0  0  0  0  0  0
  187.0190  178.2350  135.5310 O   0  0  0  0  0  1  0  0  0  0  0  0
  186.8780  177.1480  136.3960 C   0  0  2  0  0  3  0  0  0  0  0  0
  185.9450  176.0480  135.8350 C   0  0  1  0  0  3  0  0  0  0  0  0
  184.9420  176.6220  135.0400 O   0  0  0  0  0  0  0  0  0  0  0  0
  183.7660  176.6120  135.7930 C   0  0  1  0  0  3  0  0  0  0  0  0
  182.6040  176.8640  134.8530 C   0  0  0  0  0  2  0  0  0  0  0  0
  182.8620  175.4600  135.3700 C   0  0  2  0  0  3  0  0  0  0  0  0
  181.4430  173.8620  136.7550 C   0  0  0  0  0  0  0  0  0  0  0  0
  180.5200  173.7520  137.6080 O   0  0  0  0  0  0  0  0  0  0  0  0
  181.9500  175.1690  136.4680 N   0  0  0  0  0  2  0  0  0  0  0  0
  181.9560  172.7120  136.0680 N   0  0  0  0  0  0  0  0  0  0  0  0
  181.5600  171.5120  136.3430 C   0  0  0  0  0  3  0  0  0  0  0  0
  183.6510  170.3050  135.8200 C   0  0  0  0  0  1  0  0  0  0  0  0
  182.1540  170.3510  135.6210 C   0  0  0  0  0  2  0  0  0  0  0  0
  186.6940  174.9930  135.0180 C   0  0  0  0  0  2  0  0  0  0  0  0
  185.7810  173.6050  137.0870 C   0  0  0  0  0  1  0  0  0  0  0  0
  185.9730  173.3490  135.2940 S   0  0  0  0  0  0  0  0  0  0  0  0
  1 47  1  6  0  0  0
  1  4  1  0  0  0  0
  1  9  1  0  0  0  0
  3  5  1  0  0  0  0
  4  2  2  0  0  0  0
  4  5  1  0  0  0  0
  5 29  1  6  0  0  0
  6  1  1  0  0  0  0
  6  3  1  0  0  0  0
  7  9  2  0  0  0  0
  7 10  1  0  0  0  0
  9  8  1  0  0  0  0
 11 10  1  0  0  0  0
 11 12  1  0  0  0  0
 13 12  2  0  0  0  0
 14 13  1  0  0  0  0
 15 11  2  0  0  0  0
 16 15  1  0  0  0  0
 16 14  2  0  0  0  0
 17 16  1  0  0  0  0
 18 17  1  0  0  0  0
 19 18  1  0  0  0  0
 20 21  1  0  0  0  0
 20 19  1  0  0  0  0
 22 24  1  0  0  0  0
 23 25  1  6  0  0  0
 23 22  1  0  0  0  0
 23 28  1  0  0  0  0
 24 27  1  0  0  0  0
 24 21  1  1  0  0  0
 28 26  1  1  0  0  0
 28 27  1  0  0  0  0
 30 29  1  0  0  0  0
 32 35  1  6  0  0  0
 32 34  1  0  0  0  0
 32 33  1  0  0  0  0
 33 30  1  1  0  0  0
 34 31  1  1  0  0  0
 34 33  1  0  0  0  0
 35 36  1  6  0  0  0
 38 45  1  0  0  0  0
 38 39  1  0  0  0  0
 39 40  1  0  0  0  0
 40 37  2  0  0  0  0
 41 44  2  0  0  0  0
 42 45  2  0  0  0  0
 43 40  1  0  0  0  0
 43 35  1  0  0  0  0
 44 37  1  0  0  0  0
 45 43  1  0  0  0  0
 46 39  2  0  0  0  0
 46 41  1  0  0  0  0
 48 47  1  0  0  0  0
 49 48  1  0  0  0  0
 50 49  1  0  0  0  0
 52 51  1  6  0  0  0
 52 50  1  0  0  0  0
 53 65  1  6  0  0  0
 53 52  1  0  0  0  0
 54 53  1  0  0  0  0
 55 54  1  6  0  0  0
 56 57  1  0  0  0  0
 56 55  1  0  0  0  0
 57 55  1  0  0  0  0
 57 60  1  1  0  0  0
 58 59  2  0  0  0  0
 60 58  1  0  0  0  0
 61 62  2  0  0  0  0
 61 58  1  0  0  0  0
 64 63  1  0  0  0  0
 64 62  1  0  0  0  0
 65 67  1  0  0  0  0
 67 66  1  0  0  0  0
M  END
>  <MODEL>
6

>  <REMARK>
 VINA RESULT:      -5.0      3.452     11.434
  Name = 
  27 active torsions:
  status: ('A' for Active; 'I' for Inactive)
    1  A    between atoms: N_1  and  C_20
    2  A    between atoms: C_2  and  C_42
    3  A    between atoms: C_2  and  S_61
    4  A    between atoms: O_3  and  C_19
    5  A    between atoms: O_3  and  C_42
    6  A    between atoms: C_6  and  C_22
    7  A    between atoms: C_6  and  C_60
    8  A    between atoms: C_7  and  O_48
    9  A    between atoms: O_11  and  C_37
   10  A    between atoms: O_11  and  C_67
   11  A    between atoms: C_14  and  O_48
   12  A    between atoms: C_15  and  S_21
   13  A    between atoms: C_15  and  C_50
   14  A    between atoms: C_17  and  C_67
   15  A    between atoms: S_21  and  C_22
   16  A    between atoms: N_26  and  C_49
   17  A    between atoms: N_26  and  C_55
   18  A    between atoms: N_28  and  C_53
   19  A    between atoms: O_32  and  C_63
   20  A    between atoms: O_32  and  C_64
   21  A    between atoms: N_35  and  C_47
   22  A    between atoms: C_37  and  C_63
   23  A    between atoms: C_39  and  C_47
   24  A    between atoms: C_40  and  C_42
   25  A    between atoms: C_40  and  C_50
   26  A    between atoms: C_45  and  C_66
   27  A    between atoms: C_49  and  C_54
                            x       y       z     vdW  Elec       q    Type
                         _______ _______ _______ _____ _____    ______ ____

>  <TORSDO>
F 27

$$$$
=
 OpenBabel10232407473D

 67 73  0  0  1  0  0  0  0  0999 V2000
  187.5290  177.6280  137.9880 C   0  0  2  0  0  0  0  0  0  0  0  0
  188.8230  179.4180  136.9830 O   0  0  0  0  0  0  0  0  0  0  0  0
  188.3220  175.9700  136.6190 C   0  0  0  0  0  2  0  0  0  0  0  0
  188.5160  178.2290  137.0320 C   0  0  0  0  0  0  0  0  0  0  0  0
  189.0140  177.2170  136.0990 C   0  0  1  0  0  3  0  0  0  0  0  0
  187.7230  176.2300  137.8760 O   0  0  0  0  0  0  0  0  0  0  0  0
  185.2540  178.4210  138.5510 C   0  0  0  0  0  3  0  0  0  0  0  0
  185.5950  177.6590  136.2490 C   0  0  0  0  0  1  0  0  0  0  0  0
  186.0950  177.9650  137.6270 C   0  0  0  0  0  0  0  0  0  0  0  0
  183.9090  178.6900  138.2820 O   0  0  0  0  0  0  0  0  0  0  0  0
  182.8890  177.9680  138.9010 C   0  0  0  0  0  0  0  0  0  0  0  0
  182.2150  178.4630  140.0290 C   0  0  0  0  0  3  0  0  0  0  0  0
  181.2040  177.7180  140.6390 C   0  0  0  0  0  3  0  0  0  0  0  0
  180.8580  176.4720  140.1290 C   0  0  0  0  0  3  0  0  0  0  0  0
  182.5230  176.7230  138.3850 C   0  0  0  0  0  3  0  0  0  0  0  0
  181.5240  175.9620  139.0040 C   0  0  0  0  0  0  0  0  0  0  0  0
  181.1900  174.7070  138.4720 O   0  0  0  0  0  0  0  0  0  0  0  0
  180.5020  174.5670  137.2330 C   0  0  0  0  0  2  0  0  0  0  0  0
  180.3820  173.0970  136.8450 C   0  0  0  0  0  2  0  0  0  0  0  0
  181.5120  172.6560  136.1430 O   0  0  0  0  0  0  0  0  0  0  0  0
  182.0180  171.6140  136.9320 C   0  0  0  0  0  2  0  0  0  0  0  0
  184.1640  170.9380  135.8790 C   0  0  0  0  0  2  0  0  0  0  0  0
  185.1800  171.8580  135.2290 C   0  0  2  0  0  3  0  0  0  0  0  0
  183.5310  171.7140  137.0210 C   0  0  1  0  0  3  0  0  0  0  0  0
  186.4150  171.2080  135.1150 O   0  0  0  0  0  1  0  0  0  0  0  0
  185.4910  174.2160  135.3530 O   0  0  0  0  0  1  0  0  0  0  0  0
  183.9990  173.1530  136.8770 C   0  0  0  0  0  2  0  0  0  0  0  0
  185.3170  173.0710  136.1260 C   0  0  1  0  0  3  0  0  0  0  0  0
  190.5270  177.0660  136.2040 C   0  0  0  0  0  2  0  0  0  0  0  0
  190.9400  175.8110  135.5940 N   0  0  0  0  0  2  0  0  0  0  0  0
  191.3500  173.9450  137.3600 O   0  0  0  0  0  1  0  0  0  0  0  0
  192.7770  174.2300  135.4710 C   0  0  2  0  0  3  0  0  0  0  0  0
  192.3420  175.6210  135.9260 C   0  0  2  0  0  3  0  0  0  0  0  0
  192.5580  174.5140  136.9470 C   0  0  1  0  0  3  0  0  0  0  0  0
  194.2820  174.1740  135.2120 C   0  0  1  0  0  3  0  0  0  0  0  0
  194.8660  175.5670  135.1630 C   0  0  0  0  0  1  0  0  0  0  0  0
  193.9040  171.0880  135.9340 C   0  0  0  0  0  3  0  0  0  0  0  0
  196.4120  172.7540  138.0950 C   0  0  0  0  0  2  0  0  0  0  0  0
  195.5850  171.6090  137.5970 C   0  0  0  0  0  0  0  0  0  0  0  0
  194.7820  171.9920  136.5410 C   0  0  0  0  0  0  0  0  0  0  0  0
  194.7080  169.3700  137.4530 C   0  0  0  0  0  3  0  0  0  0  0  0
  196.3200  175.0240  137.2120 O   0  0  0  0  0  0  0  0  0  0  0  0
  195.0010  173.3500  136.1890 N   0  0  0  0  0  0  0  0  0  0  0  0
  193.8760  169.7670  136.3940 C   0  0  0  0  0  3  0  0  0  0  0  0
  195.9630  173.8220  137.1310 C   0  0  0  0  0  0  0  0  0  0  0  0
  195.5700  170.2980  138.0670 C   0  0  0  0  0  3  0  0  0  0  0  0
  187.8130  178.0090  139.4520 C   0  0  0  0  0  2  0  0  0  0  0  0
  189.4130  177.3810  140.0990 S   0  0  0  0  0  0  0  0  0  0  0  0
  189.1030  178.0440  141.7580 C   0  0  0  0  0  2  0  0  0  0  0  0
  187.9890  177.2550  142.4450 C   0  0  0  0  0  2  0  0  0  0  0  0
  186.8640  179.4050  142.2720 O   0  0  0  0  0  1  0  0  0  0  0  0
  186.6770  178.0440  142.5190 C   0  0  2  0  0  3  0  0  0  0  0  0
  185.8500  177.7700  143.7980 C   0  0  1  0  0  3  0  0  0  0  0  0
  186.6390  177.1120  144.7540 O   0  0  0  0  0  0  0  0  0  0  0  0
  186.8770  178.0230  145.7860 C   0  0  1  0  0  3  0  0  0  0  0  0
  185.7120  177.9520  146.7530 C   0  0  0  0  0  2  0  0  0  0  0  0
  187.0340  177.3010  147.1190 C   0  0  2  0  0  3  0  0  0  0  0  0
  189.1910  178.1150  148.1990 C   0  0  0  0  0  0  0  0  0  0  0  0
  189.7060  178.7820  149.1380 O   0  0  0  0  0  0  0  0  0  0  0  0
  187.7730  178.1710  148.0240 N   0  0  0  0  0  2  0  0  0  0  0  0
  190.0020  177.2990  147.3410 N   0  0  0  0  0  0  0  0  0  0  0  0
  190.7280  177.8010  146.3960 C   0  0  0  0  0  3  0  0  0  0  0  0
  191.7210  175.5520  146.1620 C   0  0  0  0  0  1  0  0  0  0  0  0
  191.5240  176.9010  145.5130 C   0  0  0  0  0  2  0  0  0  0  0  0
  185.2700  179.0450  144.4140 C   0  0  0  0  0  2  0  0  0  0  0  0
  182.6480  178.6700  144.5800 C   0  0  0  0  0  1  0  0  0  0  0  0
  183.7960  179.5780  143.4960 S   0  0  0  0  0  0  0  0  0  0  0  0
  1 47  1  1  0  0  0
  2  4  2  0  0  0  0
  3  6  1  0  0  0  0
  4  1  1  0  0  0  0
  5 29  1  1  0  0  0
  5  3  1  0  0  0  0
  5  4  1  0  0  0  0
  6  1  1  0  0  0  0
  8  9  1  0  0  0  0
  9  1  1  0  0  0  0
  9  7  2  0  0  0  0
 10  7  1  0  0  0  0
 10 11  1  0  0  0  0
 11 12  1  0  0  0  0
 12 13  2  0  0  0  0
 14 13  1  0  0  0  0
 15 11  2  0  0  0  0
 15 16  1  0  0  0  0
 16 14  2  0  0  0  0
 17 16  1  0  0  0  0
 18 17  1  0  0  0  0
 19 18  1  0  0  0  0
 20 19  1  0  0  0  0
 20 21  1  0  0  0  0
 22 24  1  0  0  0  0
 23 25  1  1  0  0  0
 23 22  1  0  0  0  0
 23 28  1  0  0  0  0
 24 21  1  6  0  0  0
 27 24  1  0  0  0  0
 28 26  1  6  0  0  0
 28 27  1  0  0  0  0
 30 29  1  0  0  0  0
 32 35  1  1  0  0  0
 32 33  1  0  0  0  0
 32 34  1  0  0  0  0
 33 30  1  6  0  0  0
 33 34  1  0  0  0  0
 34 31  1  6  0  0  0
 35 36  1  1  0  0  0
 35 43  1  0  0  0  0
 37 44  2  0  0  0  0
 37 40  1  0  0  0  0
 39 46  1  0  0  0  0
 39 38  1  0  0  0  0
 40 39  2  0  0  0  0
 41 46  2  0  0  0  0
 43 40  1  0  0  0  0
 43 45  1  0  0  0  0
 44 41  1  0  0  0  0
 45 42  2  0  0  0  0
 45 38  1  0  0  0  0
 47 48  1  0  0  0  0
 48 49  1  0  0  0  0
 49 50  1  0  0  0  0
 50 52  1  0  0  0  0
 52 51  1  1  0  0  0
 52 53  1  0  0  0  0
 53 65  1  1  0  0  0
 53 54  1  0  0  0  0
 55 54  1  6  0  0  0
 55 56  1  0  0  0  0
 55 57  1  0  0  0  0
 56 57  1  0  0  0  0
 57 60  1  1  0  0  0
 58 59  2  0  0  0  0
 60 58  1  0  0  0  0
 61 58  1  0  0  0  0
 62 61  2  0  0  0  0
 64 63  1  0  0  0  0
 64 62  1  0  0  0  0
 67 65  1  0  0  0  0
 67 66  1  0  0  0  0
M  END
>  <MODEL>
7

>  <REMARK>
 VINA RESULT:      -4.8      2.880      9.081
  Name = 
  27 active torsions:
  status: ('A' for Active; 'I' for Inactive)
    1  A    between atoms: N_1  and  C_20
    2  A    between atoms: C_2  and  C_42
    3  A    between atoms: C_2  and  S_61
    4  A    between atoms: O_3  and  C_19
    5  A    between atoms: O_3  and  C_42
    6  A    between atoms: C_6  and  C_22
    7  A    between atoms: C_6  and  C_60
    8  A    between atoms: C_7  and  O_48
    9  A    between atoms: O_11  and  C_37
   10  A    between atoms: O_11  and  C_67
   11  A    between atoms: C_14  and  O_48
   12  A    between atoms: C_15  and  S_21
   13  A    between atoms: C_15  and  C_50
   14  A    between atoms: C_17  and  C_67
   15  A    between atoms: S_21  and  C_22
   16  A    between atoms: N_26  and  C_49
   17  A    between atoms: N_26  and  C_55
   18  A    between atoms: N_28  and  C_53
   19  A    between atoms: O_32  and  C_63
   20  A    between atoms: O_32  and  C_64
   21  A    between atoms: N_35  and  C_47
   22  A    between atoms: C_37  and  C_63
   23  A    between atoms: C_39  and  C_47
   24  A    between atoms: C_40  and  C_42
   25  A    between atoms: C_40  and  C_50
   26  A    between atoms: C_45  and  C_66
   27  A    between atoms: C_49  and  C_54
                            x       y       z     vdW  Elec       q    Type
                         _______ _______ _______ _____ _____    ______ ____

>  <TORSDO>
F 27

$$$$
=
 OpenBabel10232407473D

 67 73  0  0  1  0  0  0  0  0999 V2000
  191.7640  175.9980  137.9640 C   0  0  2  0  0  0  0  0  0  0  0  0
  193.5150  177.6760  138.0520 O   0  0  0  0  0  0  0  0  0  0  0  0
  193.1680  174.1900  138.0680 C   0  0  0  0  0  2  0  0  0  0  0  0
  193.1760  176.4940  138.0570 C   0  0  0  0  0  0  0  0  0  0  0  0
  194.1180  175.3740  138.0730 C   0  0  1  0  0  3  0  0  0  0  0  0
  191.8410  174.6260  138.3020 O   0  0  0  0  0  0  0  0  0  0  0  0
  189.8790  176.2400  136.3790 C   0  0  0  0  0  3  0  0  0  0  0  0
  192.1070  176.0320  135.3860 C   0  0  0  0  0  1  0  0  0  0  0  0
  191.1920  176.1380  136.5660 C   0  0  0  0  0  0  0  0  0  0  0  0
  189.3000  176.3110  135.1100 O   0  0  0  0  0  0  0  0  0  0  0  0
  188.0240  175.8020  134.8660 C   0  0  0  0  0  0  0  0  0  0  0  0
  187.8030  174.4310  134.6650 C   0  0  0  0  0  3  0  0  0  0  0  0
  186.5190  173.9450  134.4130 C   0  0  0  0  0  3  0  0  0  0  0  0
  185.4450  174.8260  134.3580 C   0  0  0  0  0  3  0  0  0  0  0  0
  186.9360  176.6780  134.8270 C   0  0  0  0  0  3  0  0  0  0  0  0
  185.6490  176.2000  134.5540 C   0  0  0  0  0  0  0  0  0  0  0  0
  184.5780  177.1060  134.5050 O   0  0  0  0  0  0  0  0  0  0  0  0
  183.7350  177.3480  135.6260 C   0  0  0  0  0  2  0  0  0  0  0  0
  182.7140  176.2260  135.7860 C   0  0  0  0  0  2  0  0  0  0  0  0
  181.5820  176.4450  134.9900 O   0  0  0  0  0  0  0  0  0  0  0  0
  180.5060  176.1830  135.8490 C   0  0  0  0  0  2  0  0  0  0  0  0
  180.8620  174.0560  134.6160 C   0  0  0  0  0  2  0  0  0  0  0  0
  181.4540  172.7760  135.1760 C   0  0  2  0  0  3  0  0  0  0  0  0
  180.1000  174.7230  135.7470 C   0  0  1  0  0  3  0  0  0  0  0  0
  181.1340  171.6940  134.3470 O   0  0  0  0  0  1  0  0  0  0  0  0
  181.7940  172.0340  137.4140 O   0  0  0  0  0  1  0  0  0  0  0  0
  180.4520  173.9620  137.0150 C   0  0  0  0  0  2  0  0  0  0  0  0
  180.8450  172.5710  136.5480 C   0  0  1  0  0  3  0  0  0  0  0  0
  194.9560  175.3750  139.3460 C   0  0  0  0  0  2  0  0  0  0  0  0
  196.0140  174.3830  139.2400 N   0  0  0  0  0  2  0  0  0  0  0  0
  198.3850  175.1600  138.5020 O   0  0  0  0  0  1  0  0  0  0  0  0
  197.3930  173.1640  137.6570 C   0  0  2  0  0  3  0  0  0  0  0  0
  196.2750  174.1920  137.8230 C   0  0  2  0  0  3  0  0  0  0  0  0
  197.6720  174.6380  137.4200 C   0  0  1  0  0  3  0  0  0  0  0  0
  197.3100  172.4670  136.3000 C   0  0  1  0  0  3  0  0  0  0  0  0
  198.6200  172.5870  135.5580 C   0  0  0  0  0  1  0  0  0  0  0  0
  194.5000  171.1090  135.6290 C   0  0  0  0  0  3  0  0  0  0  0  0
  196.9320  168.7050  137.0590 C   0  0  0  0  0  2  0  0  0  0  0  0
  195.6180  169.1400  136.4860 C   0  0  0  0  0  0  0  0  0  0  0  0
  195.6330  170.4800  136.1560 C   0  0  0  0  0  0  0  0  0  0  0  0
  193.3400  168.9750  135.7200 C   0  0  0  0  0  3  0  0  0  0  0  0
  198.8430  170.1740  137.4260 O   0  0  0  0  0  0  0  0  0  0  0  0
  196.9050  171.0600  136.4030 N   0  0  0  0  0  0  0  0  0  0  0  0
  193.3500  170.3440  135.4060 C   0  0  0  0  0  3  0  0  0  0  0  0
  197.6850  170.0080  136.9650 C   0  0  0  0  0  0  0  0  0  0  0  0
  194.4810  168.3630  136.2700 C   0  0  0  0  0  3  0  0  0  0  0  0
  190.8310  176.6670  138.9900 C   0  0  0  0  0  2  0  0  0  0  0  0
  191.6630  177.1750  140.5470 S   0  0  0  0  0  0  0  0  0  0  0  0
  190.1250  177.8180  141.2620 C   0  0  0  0  0  2  0  0  0  0  0  0
  190.2250  177.8590  142.7860 C   0  0  0  0  0  2  0  0  0  0  0  0
  188.7530  175.9290  142.6330 O   0  0  0  0  0  1  0  0  0  0  0  0
  189.1790  176.9670  143.4630 C   0  0  2  0  0  3  0  0  0  0  0  0
  188.0050  177.7480  144.1030 C   0  0  1  0  0  3  0  0  0  0  0  0
  186.7800  177.1900  143.7090 O   0  0  0  0  0  0  0  0  0  0  0  0
  185.7980  178.1570  143.9330 C   0  0  1  0  0  3  0  0  0  0  0  0
  185.8640  179.1650  142.8030 C   0  0  0  0  0  2  0  0  0  0  0  0
  184.7510  178.1320  142.8260 C   0  0  2  0  0  3  0  0  0  0  0  0
  182.3190  178.8460  142.5850 C   0  0  0  0  0  0  0  0  0  0  0  0
  181.3830  179.5530  143.0520 O   0  0  0  0  0  0  0  0  0  0  0  0
  183.5310  178.7420  143.3380 N   0  0  0  0  0  2  0  0  0  0  0  0
  182.1840  178.1840  141.3200 N   0  0  0  0  0  0  0  0  0  0  0  0
  181.8520  178.8170  140.2420 C   0  0  0  0  0  3  0  0  0  0  0  0
  181.3740  176.6170  139.2250 C   0  0  0  0  0  1  0  0  0  0  0  0
  181.6930  178.0700  138.9620 C   0  0  0  0  0  2  0  0  0  0  0  0
  188.0770  177.7820  145.6300 C   0  0  0  0  0  2  0  0  0  0  0  0
  189.2280  177.1960  147.9480 C   0  0  0  0  0  1  0  0  0  0  0  0
  189.7280  177.2800  146.1980 S   0  0  0  0  0  0  0  0  0  0  0  0
  1  4  1  0  0  0  0
  1  6  1  0  0  0  0
  1 47  1  1  0  0  0
  2  4  2  0  0  0  0
  3  5  1  0  0  0  0
  3  6  1  0  0  0  0
  4  5  1  0  0  0  0
  5 29  1  1  0  0  0
  7  9  2  0  0  0  0
  8  9  1  0  0  0  0
  9  1  1  0  0  0  0
 10  7  1  0  0  0  0
 11 10  1  0  0  0  0
 12 11  2  0  0  0  0
 13 12  1  0  0  0  0
 14 13  2  0  0  0  0
 14 16  1  0  0  0  0
 15 11  1  0  0  0  0
 16 15  2  0  0  0  0
 17 16  1  0  0  0  0
 17 18  1  0  0  0  0
 18 19  1  0  0  0  0
 20 19  1  0  0  0  0
 20 21  1  0  0  0  0
 22 23  1  0  0  0  0
 22 24  1  0  0  0  0
 23 25  1  6  0  0  0
 23 28  1  0  0  0  0
 24 21  1  1  0  0  0
 24 27  1  0  0  0  0
 28 27  1  0  0  0  0
 28 26  1  1  0  0  0
 30 29  1  0  0  0  0
 32 35  1  6  0  0  0
 32 33  1  0  0  0  0
 33 30  1  1  0  0  0
 34 32  1  0  0  0  0
 34 33  1  0  0  0  0
 34 31  1  1  0  0  0
 35 36  1  1  0  0  0
 35 43  1  0  0  0  0
 37 40  1  0  0  0  0
 39 38  1  0  0  0  0
 40 43  1  0  0  0  0
 40 39  2  0  0  0  0
 41 46  2  0  0  0  0
 43 45  1  0  0  0  0
 44 37  2  0  0  0  0
 44 41  1  0  0  0  0
 45 38  1  0  0  0  0
 45 42  2  0  0  0  0
 46 39  1  0  0  0  0
 47 48  1  0  0  0  0
 48 49  1  0  0  0  0
 49 50  1  0  0  0  0
 50 52  1  0  0  0  0
 52 51  1  6  0  0  0
 52 53  1  0  0  0  0
 53 65  1  1  0  0  0
 54 53  1  0  0  0  0
 55 54  1  6  0  0  0
 56 57  1  0  0  0  0
 56 55  1  0  0  0  0
 57 60  1  1  0  0  0
 57 55  1  0  0  0  0
 58 59  2  0  0  0  0
 58 60  1  0  0  0  0
 61 58  1  0  0  0  0
 62 61  2  0  0  0  0
 64 63  1  0  0  0  0
 64 62  1  0  0  0  0
 65 67  1  0  0  0  0
 67 66  1  0  0  0  0
M  END
>  <MODEL>
8

>  <REMARK>
 VINA RESULT:      -4.1      3.387      9.930
  Name = 
  27 active torsions:
  status: ('A' for Active; 'I' for Inactive)
    1  A    between atoms: N_1  and  C_20
    2  A    between atoms: C_2  and  C_42
    3  A    between atoms: C_2  and  S_61
    4  A    between atoms: O_3  and  C_19
    5  A    between atoms: O_3  and  C_42
    6  A    between atoms: C_6  and  C_22
    7  A    between atoms: C_6  and  C_60
    8  A    between atoms: C_7  and  O_48
    9  A    between atoms: O_11  and  C_37
   10  A    between atoms: O_11  and  C_67
   11  A    between atoms: C_14  and  O_48
   12  A    between atoms: C_15  and  S_21
   13  A    between atoms: C_15  and  C_50
   14  A    between atoms: C_17  and  C_67
   15  A    between atoms: S_21  and  C_22
   16  A    between atoms: N_26  and  C_49
   17  A    between atoms: N_26  and  C_55
   18  A    between atoms: N_28  and  C_53
   19  A    between atoms: O_32  and  C_63
   20  A    between atoms: O_32  and  C_64
   21  A    between atoms: N_35  and  C_47
   22  A    between atoms: C_37  and  C_63
   23  A    between atoms: C_39  and  C_47
   24  A    between atoms: C_40  and  C_42
   25  A    between atoms: C_40  and  C_50
   26  A    between atoms: C_45  and  C_66
   27  A    between atoms: C_49  and  C_54
                            x       y       z     vdW  Elec       q    Type
                         _______ _______ _______ _____ _____    ______ ____

>  <TORSDO>
F 27

$$$$
=
 OpenBabel10232407473D

 67 73  0  0  1  0  0  0  0  0999 V2000
  188.0090  175.4470  136.1570 C   0  0  2  0  0  0  0  0  0  0  0  0
  189.7080  175.3810  134.4250 O   0  0  0  0  0  0  0  0  0  0  0  0
  188.2450  173.2600  136.7990 C   0  0  0  0  0  2  0  0  0  0  0  0
  189.0820  174.8160  135.3200 C   0  0  0  0  0  0  0  0  0  0  0  0
  189.2360  173.4010  135.6570 C   0  0  1  0  0  3  0  0  0  0  0  0
  187.7990  174.5360  137.2200 O   0  0  0  0  0  0  0  0  0  0  0  0
  185.7020  174.7830  135.5570 C   0  0  0  0  0  3  0  0  0  0  0  0
  186.6230  176.7040  134.3510 C   0  0  0  0  0  1  0  0  0  0  0  0
  186.7120  175.6320  135.3920 C   0  0  0  0  0  0  0  0  0  0  0  0
  184.5110  174.8750  134.8320 O   0  0  0  0  0  0  0  0  0  0  0  0
  183.3140  175.2420  135.4490 C   0  0  0  0  0  0  0  0  0  0  0  0
  182.1580  174.4530  135.3420 C   0  0  0  0  0  3  0  0  0  0  0  0
  180.9690  174.8440  135.9590 C   0  0  0  0  0  3  0  0  0  0  0  0
  180.9240  176.0280  136.6870 C   0  0  0  0  0  3  0  0  0  0  0  0
  183.2650  176.4200  136.1970 C   0  0  0  0  0  3  0  0  0  0  0  0
  182.0690  176.8290  136.8010 C   0  0  0  0  0  0  0  0  0  0  0  0
  182.0470  178.0270  137.5320 O   0  0  0  0  0  0  0  0  0  0  0  0
  183.2350  178.6420  138.0180 C   0  0  0  0  0  2  0  0  0  0  0  0
  183.5330  178.1900  139.4430 C   0  0  0  0  0  2  0  0  0  0  0  0
  183.4080  179.2460  140.3550 O   0  0  0  0  0  0  0  0  0  0  0  0
  184.5950  179.1980  141.0990 C   0  0  0  0  0  2  0  0  0  0  0  0
  185.3690  178.8570  143.4340 C   0  0  0  0  0  2  0  0  0  0  0  0
  184.5730  179.1260  144.6980 C   0  0  2  0  0  3  0  0  0  0  0  0
  184.3780  178.4040  142.3760 C   0  0  1  0  0  3  0  0  0  0  0  0
  185.1490  178.4550  145.7830 O   0  0  0  0  0  1  0  0  0  0  0  0
  182.2400  179.4450  145.0640 O   0  0  0  0  0  1  0  0  0  0  0  0
  182.9920  178.6460  142.9480 C   0  0  0  0  0  2  0  0  0  0  0  0
  183.1710  178.6060  144.4560 C   0  0  1  0  0  3  0  0  0  0  0  0
  190.6490  173.0980  136.1410 C   0  0  0  0  0  2  0  0  0  0  0  0
  191.3490  174.3400  136.4270 N   0  0  0  0  0  2  0  0  0  0  0  0
  192.8360  173.7850  134.3650 O   0  0  0  0  0  1  0  0  0  0  0  0
  193.6620  175.0460  136.2120 C   0  0  2  0  0  3  0  0  0  0  0  0
  192.7150  173.9860  136.7730 C   0  0  2  0  0  3  0  0  0  0  0  0
  193.5690  173.6830  135.5500 C   0  0  1  0  0  3  0  0  0  0  0  0
  194.9640  175.1060  137.0080 C   0  0  1  0  0  3  0  0  0  0  0  0
  195.0180  173.9910  138.0260 C   0  0  0  0  0  1  0  0  0  0  0  0
  197.1330  172.7960  136.6160 C   0  0  0  0  0  3  0  0  0  0  0  0
  197.9890  175.8790  134.7460 C   0  0  0  0  0  2  0  0  0  0  0  0
  198.1840  174.4720  135.2200 C   0  0  0  0  0  0  0  0  0  0  0  0
  197.1460  174.0690  136.0360 C   0  0  0  0  0  0  0  0  0  0  0  0
  199.2270  172.3160  135.4800 C   0  0  0  0  0  3  0  0  0  0  0  0
  196.1190  177.3120  135.3720 O   0  0  0  0  0  0  0  0  0  0  0  0
  196.1580  175.0820  136.1550 N   0  0  0  0  0  0  0  0  0  0  0  0
  198.1810  171.9160  136.3270 C   0  0  0  0  0  3  0  0  0  0  0  0
  196.6660  176.1800  135.4020 C   0  0  0  0  0  0  0  0  0  0  0  0
  199.2360  173.6080  134.9220 C   0  0  0  0  0  3  0  0  0  0  0  0
  188.4520  176.7810  136.7840 C   0  0  0  0  0  2  0  0  0  0  0  0
  187.3300  178.1910  136.4290 S   0  0  0  0  0  0  0  0  0  0  0  0
  187.2730  178.6980  138.1700 C   0  0  0  0  0  2  0  0  0  0  0  0
  188.6150  178.4200  138.8470 C   0  0  0  0  0  2  0  0  0  0  0  0
  187.9160  179.2910  141.0080 O   0  0  0  0  0  1  0  0  0  0  0  0
  188.4700  178.1890  140.3550 C   0  0  2  0  0  3  0  0  0  0  0  0
  189.7580  177.6670  141.0380 C   0  0  1  0  0  3  0  0  0  0  0  0
  189.4330  176.7380  142.0380 O   0  0  0  0  0  0  0  0  0  0  0  0
  188.7100  177.4250  143.0160 C   0  0  1  0  0  3  0  0  0  0  0  0
  187.4810  176.6030  143.3540 C   0  0  0  0  0  2  0  0  0  0  0  0
  188.6590  176.6250  144.3130 C   0  0  2  0  0  3  0  0  0  0  0  0
  188.9600  177.4320  146.7090 C   0  0  0  0  0  0  0  0  0  0  0  0
  188.5120  178.1680  147.6300 O   0  0  0  0  0  0  0  0  0  0  0  0
  188.3810  177.5480  145.4060 N   0  0  0  0  0  2  0  0  0  0  0  0
  190.0040  176.4820  146.9630 N   0  0  0  0  0  0  0  0  0  0  0  0
  191.2390  176.8380  147.1090 C   0  0  0  0  0  3  0  0  0  0  0  0
  192.4290  174.9080  146.1290 C   0  0  0  0  0  1  0  0  0  0  0  0
  192.2880  175.8040  147.3370 C   0  0  0  0  0  2  0  0  0  0  0  0
  190.7350  177.0250  140.0510 C   0  0  0  0  0  2  0  0  0  0  0  0
  193.1460  176.6990  138.9930 C   0  0  0  0  0  1  0  0  0  0  0  0
  192.4480  177.4050  140.5200 S   0  0  0  0  0  0  0  0  0  0  0  0
  1 47  1  1  0  0  0
  1  6  1  0  0  0  0
  2  4  2  0  0  0  0
  3  6  1  0  0  0  0
  4  5  1  0  0  0  0
  4  1  1  0  0  0  0
  5 29  1  1  0  0  0
  5  3  1  0  0  0  0
  8  9  1  0  0  0  0
  9  7  2  0  0  0  0
  9  1  1  0  0  0  0
 10 11  1  0  0  0  0
 10  7  1  0  0  0  0
 11 15  1  0  0  0  0
 12 11  2  0  0  0  0
 12 13  1  0  0  0  0
 13 14  2  0  0  0  0
 14 16  1  0  0  0  0
 15 16  2  0  0  0  0
 16 17  1  0  0  0  0
 17 18  1  0  0  0  0
 18 19  1  0  0  0  0
 19 20  1  0  0  0  0
 20 21  1  0  0  0  0
 22 23  1  0  0  0  0
 23 25  1  1  0  0  0
 24 21  1  6  0  0  0
 24 27  1  0  0  0  0
 24 22  1  0  0  0  0
 27 28  1  0  0  0  0
 28 23  1  0  0  0  0
 28 26  1  1  0  0  0
 29 30  1  0  0  0  0
 32 33  1  0  0  0  0
 32 35  1  1  0  0  0
 33 30  1  6  0  0  0
 34 31  1  6  0  0  0
 34 32  1  0  0  0  0
 34 33  1  0  0  0  0
 35 36  1  1  0  0  0
 38 39  1  0  0  0  0
 38 45  1  0  0  0  0
 39 40  1  0  0  0  0
 40 43  1  0  0  0  0
 40 37  2  0  0  0  0
 41 44  2  0  0  0  0
 42 45  2  0  0  0  0
 43 35  1  0  0  0  0
 44 37  1  0  0  0  0
 45 43  1  0  0  0  0
 46 39  2  0  0  0  0
 46 41  1  0  0  0  0
 48 47  1  0  0  0  0
 48 49  1  0  0  0  0
 49 50  1  0  0  0  0
 50 52  1  0  0  0  0
 52 51  1  1  0  0  0
 52 53  1  0  0  0  0
 53 65  1  6  0  0  0
 53 54  1  0  0  0  0
 55 54  1  6  0  0  0
 55 56  1  0  0  0  0
 55 57  1  0  0  0  0
 56 57  1  0  0  0  0
 57 60  1  1  0  0  0
 58 61  1  0  0  0  0
 58 59  2  0  0  0  0
 60 58  1  0  0  0  0
 61 62  2  0  0  0  0
 62 64  1  0  0  0  0
 63 64  1  0  0  0  0
 65 67  1  0  0  0  0
 66 67  1  0  0  0  0
M  END
>  <MODEL>
9

>  <REMARK>
 VINA RESULT:      -4.1      2.769     10.107
  Name = 
  27 active torsions:
  status: ('A' for Active; 'I' for Inactive)
    1  A    between atoms: N_1  and  C_20
    2  A    between atoms: C_2  and  C_42
    3  A    between atoms: C_2  and  S_61
    4  A    between atoms: O_3  and  C_19
    5  A    between atoms: O_3  and  C_42
    6  A    between atoms: C_6  and  C_22
    7  A    between atoms: C_6  and  C_60
    8  A    between atoms: C_7  and  O_48
    9  A    between atoms: O_11  and  C_37
   10  A    between atoms: O_11  and  C_67
   11  A    between atoms: C_14  and  O_48
   12  A    between atoms: C_15  and  S_21
   13  A    between atoms: C_15  and  C_50
   14  A    between atoms: C_17  and  C_67
   15  A    between atoms: S_21  and  C_22
   16  A    between atoms: N_26  and  C_49
   17  A    between atoms: N_26  and  C_55
   18  A    between atoms: N_28  and  C_53
   19  A    between atoms: O_32  and  C_63
   20  A    between atoms: O_32  and  C_64
   21  A    between atoms: N_35  and  C_47
   22  A    between atoms: C_37  and  C_63
   23  A    between atoms: C_39  and  C_47
   24  A    between atoms: C_40  and  C_42
   25  A    between atoms: C_40  and  C_50
   26  A    between atoms: C_45  and  C_66
   27  A    between atoms: C_49  and  C_54
                            x       y       z     vdW  Elec       q    Type
                         _______ _______ _______ _____ _____    ______ ____

>  <TORSDO>
F 27

$$$$
