=
 OpenBabel10232407553D

 26 27  0  0  1  0  0  0  0  0999 V2000
  190.5420  177.5500  145.4250 C   0  0  0  0  0  0  0  0  0  0  0  0
  189.4130  177.1380  146.0230 C   0  0  0  0  0  3  0  0  0  0  0  0
  184.3750  178.3500  142.7370 C   0  0  0  0  0  3  0  0  0  0  0  0
  185.6950  177.9510  142.9670 C   0  0  0  0  0  3  0  0  0  0  0  0
  183.5750  178.7830  143.8040 C   0  0  0  0  0  0  0  0  0  0  0  0
  182.1680  179.1930  143.5550 C   0  0  0  0  0  1  0  0  0  0  0  0
  186.2160  177.9740  144.2680 C   0  0  0  0  0  0  0  0  0  0  0  0
  188.0250  177.5630  145.7580 C   0  0  0  0  0  0  0  0  0  0  0  0
  185.4030  178.3900  145.3430 C   0  0  0  0  0  0  0  0  0  0  0  0
  185.9310  178.4000  146.6340 C   0  0  0  0  0  3  0  0  0  0  0  0
  187.4950  177.5800  144.5010 N   0  0  0  0  0  0  0  0  0  0  0  0
  187.2470  177.9820  146.8430 C   0  0  0  0  0  3  0  0  0  0  0  0
  184.0870  178.8000  145.1080 C   0  0  0  0  0  3  0  0  0  0  0  0
  191.8080  177.0480  145.8670 N   0  0  0  0  0  2  0  0  0  0  0  0
  192.0880  175.4480  147.8480 N   0  0  0  0  0  0  0  0  0  0  0  0
  191.9620  176.1690  146.9510 C   0  0  0  0  0  0  0  0  0  0  0  0
  190.5510  178.7530  144.0860 S   0  0  0  0  0  0  0  0  0  0  0  0
  191.5040  177.6830  142.9550 C   0  0  0  0  0  2  0  0  0  0  0  0
  190.7300  176.5210  142.5520 N   0  0  0  0  0  2  0  0  0  0  0  0
  189.7680  176.9510  141.5590 C   0  0  0  0  0  2  0  0  0  0  0  0
  190.4880  177.2650  140.2710 C   0  0  0  0  0  2  0  0  0  0  0  0
  190.2800  176.9640  137.8210 C   0  0  0  0  0  1  0  0  0  0  0  0
  189.5180  177.1710  139.1140 C   0  0  2  0  0  3  0  0  0  0  0  0
  187.5150  178.5220  139.7810 O   0  0  0  0  0  1  0  0  0  0  0  0
  189.0320  179.3330  138.2610 O   0  0  0  0  0  0  0  0  0  0  0  0
  188.6830  178.4010  139.0320 C   0  0  0  0  0  0  0  0  0  0  0  0
  1 14  1  0  0  0  0
  1  2  2  0  0  0  0
  3  4  2  0  0  0  0
  3  5  1  0  0  0  0
  4  7  1  0  0  0  0
  5 13  2  0  0  0  0
  6  5  1  0  0  0  0
  7 11  2  0  0  0  0
  7  9  1  0  0  0  0
  8  2  1  0  0  0  0
  8 12  2  0  0  0  0
  9 10  2  0  0  0  0
 10 12  1  0  0  0  0
 11  8  1  0  0  0  0
 13  9  1  0  0  0  0
 14 16  1  0  0  0  0
 16 15  3  0  0  0  0
 17  1  1  0  0  0  0
 18 17  1  0  0  0  0
 19 18  1  0  0  0  0
 20 19  1  0  0  0  0
 21 20  1  0  0  0  0
 23 22  1  6  0  0  0
 23 21  1  0  0  0  0
 25 26  2  0  0  0  0
 26 23  1  0  0  0  0
 26 24  1  0  0  0  0
M  END
>  <MODEL>
1

>  <REMARK>
 VINA RESULT:      -8.4      0.000      0.000
  Name = 
  10 active torsions:
  status: ('A' for Active; 'I' for Inactive)
    1  A    between atoms: N_5  and  C_7
    2  A    between atoms: N_5  and  C_14
    3  A    between atoms: C_7  and  S_20
    4  A    between atoms: N_8  and  C_9
    5  A    between atoms: N_8  and  C_25
    6  A    between atoms: C_9  and  S_20
    7  A    between atoms: C_12  and  C_13
    8  A    between atoms: C_22  and  C_26
    9  A    between atoms: C_24  and  C_25
   10  A    between atoms: C_24  and  C_26
                            x       y       z     vdW  Elec       q    Type
                         _______ _______ _______ _____ _____    ______ ____

>  <TORSDO>
F 10

$$$$
=
 OpenBabel10232407553D

 26 27  0  0  1  0  0  0  0  0999 V2000
  190.5450  177.5680  145.3830 C   0  0  0  0  0  0  0  0  0  0  0  0
  189.4190  177.1370  145.9740 C   0  0  0  0  0  3  0  0  0  0  0  0
  184.3330  178.3650  142.7680 C   0  0  0  0  0  3  0  0  0  0  0  0
  185.6540  177.9570  142.9780 C   0  0  0  0  0  3  0  0  0  0  0  0
  183.5560  178.8120  143.8470 C   0  0  0  0  0  0  0  0  0  0  0  0
  182.1480  179.2300  143.6190 C   0  0  0  0  0  1  0  0  0  0  0  0
  186.1980  177.9850  144.2690 C   0  0  0  0  0  0  0  0  0  0  0  0
  188.0300  177.5710  145.7300 C   0  0  0  0  0  0  0  0  0  0  0  0
  185.4070  178.4150  145.3550 C   0  0  0  0  0  0  0  0  0  0  0  0
  185.9580  178.4300  146.6370 C   0  0  0  0  0  3  0  0  0  0  0  0
  187.4780  177.5830  144.4830 N   0  0  0  0  0  0  0  0  0  0  0  0
  187.2750  178.0030  146.8260 C   0  0  0  0  0  3  0  0  0  0  0  0
  184.0910  178.8330  145.1410 C   0  0  0  0  0  3  0  0  0  0  0  0
  191.8130  177.0510  145.8010 N   0  0  0  0  0  2  0  0  0  0  0  0
  192.1190  175.5250  147.8360 N   0  0  0  0  0  0  0  0  0  0  0  0
  191.9840  176.2140  146.9150 C   0  0  0  0  0  0  0  0  0  0  0  0
  190.5470  178.8120  144.0820 S   0  0  0  0  0  0  0  0  0  0  0  0
  191.4230  177.7480  142.8850 C   0  0  0  0  0  2  0  0  0  0  0  0
  190.4920  176.9190  142.1370 N   0  0  0  0  0  2  0  0  0  0  0  0
  189.4560  177.7820  141.6080 C   0  0  0  0  0  2  0  0  0  0  0  0
  189.0060  177.2550  140.2680 C   0  0  0  0  0  2  0  0  0  0  0  0
  189.0820  178.6400  138.2160 C   0  0  0  0  0  1  0  0  0  0  0  0
  189.9010  177.8090  139.1810 C   0  0  2  0  0  3  0  0  0  0  0  0
  191.1490  176.9130  137.1990 O   0  0  0  0  0  0  0  0  0  0  0  0
  190.6490  175.5630  138.9880 O   0  0  0  0  0  1  0  0  0  0  0  0
  190.5900  176.7030  138.4580 C   0  0  0  0  0  0  0  0  0  0  0  0
  1 14  1  0  0  0  0
  1  2  2  0  0  0  0
  3  4  2  0  0  0  0
  3  5  1  0  0  0  0
  4  7  1  0  0  0  0
  5 13  2  0  0  0  0
  6  5  1  0  0  0  0
  7 11  2  0  0  0  0
  7  9  1  0  0  0  0
  8  2  1  0  0  0  0
  8 12  2  0  0  0  0
  9 10  2  0  0  0  0
 10 12  1  0  0  0  0
 11  8  1  0  0  0  0
 13  9  1  0  0  0  0
 14 16  1  0  0  0  0
 16 15  3  0  0  0  0
 17  1  1  0  0  0  0
 18 17  1  0  0  0  0
 19 18  1  0  0  0  0
 20 19  1  0  0  0  0
 21 20  1  0  0  0  0
 23 22  1  6  0  0  0
 23 21  1  0  0  0  0
 24 26  2  0  0  0  0
 26 25  1  0  0  0  0
 26 23  1  0  0  0  0
M  END
>  <MODEL>
2

>  <REMARK>
 VINA RESULT:      -8.2      1.173      1.455
  Name = 
  10 active torsions:
  status: ('A' for Active; 'I' for Inactive)
    1  A    between atoms: N_5  and  C_7
    2  A    between atoms: N_5  and  C_14
    3  A    between atoms: C_7  and  S_20
    4  A    between atoms: N_8  and  C_9
    5  A    between atoms: N_8  and  C_25
    6  A    between atoms: C_9  and  S_20
    7  A    between atoms: C_12  and  C_13
    8  A    between atoms: C_22  and  C_26
    9  A    between atoms: C_24  and  C_25
   10  A    between atoms: C_24  and  C_26
                            x       y       z     vdW  Elec       q    Type
                         _______ _______ _______ _____ _____    ______ ____

>  <TORSDO>
F 10

$$$$
=
 OpenBabel10232407553D

 26 27  0  0  1  0  0  0  0  0999 V2000
  184.5280  179.0140  144.3210 C   0  0  0  0  0  0  0  0  0  0  0  0
  185.1720  179.2150  145.4810 C   0  0  0  0  0  3  0  0  0  0  0  0
  190.8000  176.7960  145.1360 C   0  0  0  0  0  3  0  0  0  0  0  0
  189.6190  177.3770  144.6650 C   0  0  0  0  0  3  0  0  0  0  0  0
  190.9470  176.5090  146.5010 C   0  0  0  0  0  0  0  0  0  0  0  0
  192.2100  175.9040  146.9980 C   0  0  0  0  0  1  0  0  0  0  0  0
  188.5850  177.6830  145.5590 C   0  0  0  0  0  0  0  0  0  0  0  0
  186.4230  178.5940  145.9580 C   0  0  0  0  0  0  0  0  0  0  0  0
  188.7430  177.4140  146.9350 C   0  0  0  0  0  0  0  0  0  0  0  0
  187.7090  177.7320  147.8160 C   0  0  0  0  0  3  0  0  0  0  0  0
  187.4370  178.2560  145.1110 N   0  0  0  0  0  0  0  0  0  0  0  0
  186.5450  178.3270  147.3260 C   0  0  0  0  0  3  0  0  0  0  0  0
  189.9210  176.8220  147.4020 C   0  0  0  0  0  3  0  0  0  0  0  0
  183.2880  179.6840  144.0670 N   0  0  0  0  0  2  0  0  0  0  0  0
  181.0330  178.4790  143.9010 N   0  0  0  0  0  0  0  0  0  0  0  0
  182.0520  179.0250  143.9730 C   0  0  0  0  0  0  0  0  0  0  0  0
  185.1390  177.8960  143.0490 S   0  0  0  0  0  0  0  0  0  0  0  0
  185.0530  179.1480  141.7230 C   0  0  0  0  0  2  0  0  0  0  0  0
  186.3550  179.3580  141.1110 N   0  0  0  0  0  2  0  0  0  0  0  0
  187.2120  178.2590  141.5050 C   0  0  0  0  0  2  0  0  0  0  0  0
  188.6530  178.6460  141.2760 C   0  0  0  0  0  2  0  0  0  0  0  0
  190.6930  177.2550  141.0780 C   0  0  0  0  0  1  0  0  0  0  0  0
  189.3420  177.5680  140.4690 C   0  0  2  0  0  3  0  0  0  0  0  0
  188.9800  179.2140  138.6130 O   0  0  0  0  0  1  0  0  0  0  0  0
  190.0960  177.2430  138.2400 O   0  0  0  0  0  0  0  0  0  0  0  0
  189.5000  177.9980  139.0510 C   0  0  0  0  0  0  0  0  0  0  0  0
  1  2  2  0  0  0  0
  2  8  1  0  0  0  0
  3  5  1  0  0  0  0
  4  3  2  0  0  0  0
  4  7  1  0  0  0  0
  5  6  1  0  0  0  0
  5 13  2  0  0  0  0
  7  9  1  0  0  0  0
  8 12  2  0  0  0  0
  9 13  1  0  0  0  0
  9 10  2  0  0  0  0
 11  7  2  0  0  0  0
 11  8  1  0  0  0  0
 12 10  1  0  0  0  0
 14  1  1  0  0  0  0
 15 16  3  0  0  0  0
 16 14  1  0  0  0  0
 17  1  1  0  0  0  0
 18 17  1  0  0  0  0
 19 20  1  0  0  0  0
 19 18  1  0  0  0  0
 21 20  1  0  0  0  0
 23 22  1  1  0  0  0
 23 21  1  0  0  0  0
 24 26  1  0  0  0  0
 25 26  2  0  0  0  0
 26 23  1  0  0  0  0
M  END
>  <MODEL>
3

>  <REMARK>
 VINA RESULT:      -7.6      2.359      5.832
  Name = 
  10 active torsions:
  status: ('A' for Active; 'I' for Inactive)
    1  A    between atoms: N_5  and  C_7
    2  A    between atoms: N_5  and  C_14
    3  A    between atoms: C_7  and  S_20
    4  A    between atoms: N_8  and  C_9
    5  A    between atoms: N_8  and  C_25
    6  A    between atoms: C_9  and  S_20
    7  A    between atoms: C_12  and  C_13
    8  A    between atoms: C_22  and  C_26
    9  A    between atoms: C_24  and  C_25
   10  A    between atoms: C_24  and  C_26
                            x       y       z     vdW  Elec       q    Type
                         _______ _______ _______ _____ _____    ______ ____

>  <TORSDO>
F 10

$$$$
=
 OpenBabel10232407553D

 26 27  0  0  1  0  0  0  0  0999 V2000
  189.7460  177.2450  139.9700 C   0  0  0  0  0  0  0  0  0  0  0  0
  190.3970  176.7270  141.0240 C   0  0  0  0  0  3  0  0  0  0  0  0
  187.1390  177.5550  146.1570 C   0  0  0  0  0  3  0  0  0  0  0  0
  187.3570  177.3480  144.7920 C   0  0  0  0  0  3  0  0  0  0  0  0
  188.2280  177.6960  147.0290 C   0  0  0  0  0  0  0  0  0  0  0  0
  187.9900  177.9010  148.4820 C   0  0  0  0  0  1  0  0  0  0  0  0
  188.6650  177.2710  144.2960 C   0  0  0  0  0  0  0  0  0  0  0  0
  190.1460  176.9530  142.4600 C   0  0  0  0  0  0  0  0  0  0  0  0
  189.7590  177.3910  145.1790 C   0  0  0  0  0  0  0  0  0  0  0  0
  191.0570  177.3040  144.6730 C   0  0  0  0  0  3  0  0  0  0  0  0
  188.8860  177.0620  142.9710 N   0  0  0  0  0  0  0  0  0  0  0  0
  191.2510  177.0810  143.3080 C   0  0  0  0  0  3  0  0  0  0  0  0
  189.5380  177.6100  146.5420 C   0  0  0  0  0  3  0  0  0  0  0  0
  190.1810  176.9370  138.6400 N   0  0  0  0  0  2  0  0  0  0  0  0
  190.9920  174.6180  137.9130 N   0  0  0  0  0  0  0  0  0  0  0  0
  190.6230  175.6660  138.2400 C   0  0  0  0  0  0  0  0  0  0  0  0
  188.3400  178.3560  140.1440 S   0  0  0  0  0  0  0  0  0  0  0  0
  187.5110  177.7560  138.6320 C   0  0  0  0  0  2  0  0  0  0  0  0
  186.5350  178.7180  138.1490 N   0  0  0  0  0  2  0  0  0  0  0  0
  185.2160  178.2000  138.4500 C   0  0  0  0  0  2  0  0  0  0  0  0
  184.5430  179.1040  139.4530 C   0  0  0  0  0  2  0  0  0  0  0  0
  182.5190  178.4260  140.7090 C   0  0  0  0  0  1  0  0  0  0  0  0
  184.0220  178.2780  140.6080 C   0  0  2  0  0  3  0  0  0  0  0  0
  185.6090  179.7250  141.9020 O   0  0  0  0  0  0  0  0  0  0  0  0
  184.3780  178.0950  142.9490 O   0  0  0  0  0  1  0  0  0  0  0  0
  184.6710  178.6950  141.8830 C   0  0  0  0  0  0  0  0  0  0  0  0
  1 17  1  0  0  0  0
  1  2  2  0  0  0  0
  2  8  1  0  0  0  0
  3  5  1  0  0  0  0
  4  3  2  0  0  0  0
  5  6  1  0  0  0  0
  7  4  1  0  0  0  0
  7  9  1  0  0  0  0
  8 11  1  0  0  0  0
  8 12  2  0  0  0  0
  9 13  1  0  0  0  0
 10  9  2  0  0  0  0
 11  7  2  0  0  0  0
 12 10  1  0  0  0  0
 13  5  2  0  0  0  0
 14  1  1  0  0  0  0
 15 16  3  0  0  0  0
 16 14  1  0  0  0  0
 18 17  1  0  0  0  0
 19 20  1  0  0  0  0
 19 18  1  0  0  0  0
 20 21  1  0  0  0  0
 21 23  1  0  0  0  0
 23 22  1  1  0  0  0
 23 26  1  0  0  0  0
 26 24  2  0  0  0  0
 26 25  1  0  0  0  0
M  END
>  <MODEL>
4

>  <REMARK>
 VINA RESULT:      -7.4      2.716      5.890
  Name = 
  10 active torsions:
  status: ('A' for Active; 'I' for Inactive)
    1  A    between atoms: N_5  and  C_7
    2  A    between atoms: N_5  and  C_14
    3  A    between atoms: C_7  and  S_20
    4  A    between atoms: N_8  and  C_9
    5  A    between atoms: N_8  and  C_25
    6  A    between atoms: C_9  and  S_20
    7  A    between atoms: C_12  and  C_13
    8  A    between atoms: C_22  and  C_26
    9  A    between atoms: C_24  and  C_25
   10  A    between atoms: C_24  and  C_26
                            x       y       z     vdW  Elec       q    Type
                         _______ _______ _______ _____ _____    ______ ____

>  <TORSDO>
F 10

$$$$
=
 OpenBabel10232407553D

 26 27  0  0  1  0  0  0  0  0999 V2000
  183.8310  178.7090  141.2510 C   0  0  0  0  0  0  0  0  0  0  0  0
  183.4580  178.4980  142.5230 C   0  0  0  0  0  3  0  0  0  0  0  0
  188.4490  177.4130  145.9240 C   0  0  0  0  0  3  0  0  0  0  0  0
  187.6620  177.4450  144.7690 C   0  0  0  0  0  3  0  0  0  0  0  0
  187.9190  177.8490  147.1480 C   0  0  0  0  0  0  0  0  0  0  0  0
  188.7660  177.8260  148.3690 C   0  0  0  0  0  1  0  0  0  0  0  0
  186.3460  177.9220  144.8320 C   0  0  0  0  0  0  0  0  0  0  0  0
  184.3020  178.4490  143.7330 C   0  0  0  0  0  0  0  0  0  0  0  0
  185.8230  178.3790  146.0600 C   0  0  0  0  0  0  0  0  0  0  0  0
  184.5140  178.8600  146.1070 C   0  0  0  0  0  3  0  0  0  0  0  0
  185.5770  177.9640  143.7120 N   0  0  0  0  0  0  0  0  0  0  0  0
  183.7510  178.8980  144.9380 C   0  0  0  0  0  3  0  0  0  0  0  0
  186.6080  178.3360  147.2160 C   0  0  0  0  0  3  0  0  0  0  0  0
  182.8540  178.6680  140.2050 N   0  0  0  0  0  2  0  0  0  0  0  0
  180.4250  179.4310  140.4920 N   0  0  0  0  0  0  0  0  0  0  0  0
  181.5240  179.0880  140.3640 C   0  0  0  0  0  0  0  0  0  0  0  0
  185.5400  179.0200  140.7760 S   0  0  0  0  0  0  0  0  0  0  0  0
  185.3270  178.3610  139.0870 C   0  0  0  0  0  2  0  0  0  0  0  0
  186.4160  178.7780  138.2190 N   0  0  0  0  0  2  0  0  0  0  0  0
  187.3950  177.7110  138.1930 C   0  0  0  0  0  2  0  0  0  0  0  0
  188.6810  178.2010  138.8110 C   0  0  0  0  0  2  0  0  0  0  0  0
  188.9770  178.0320  141.2640 C   0  0  0  0  0  1  0  0  0  0  0  0
  189.0750  177.2860  139.9500 C   0  0  2  0  0  3  0  0  0  0  0  0
  190.6980  175.6830  138.9100 O   0  0  0  0  0  0  0  0  0  0  0  0
  191.4140  177.3110  140.3610 O   0  0  0  0  0  1  0  0  0  0  0  0
  190.4580  176.7680  139.7490 C   0  0  0  0  0  0  0  0  0  0  0  0
  1  2  2  0  0  0  0
  2  8  1  0  0  0  0
  3  5  1  0  0  0  0
  4  7  1  0  0  0  0
  4  3  2  0  0  0  0
  5 13  2  0  0  0  0
  5  6  1  0  0  0  0
  7  9  1  0  0  0  0
  8 12  2  0  0  0  0
  9 10  2  0  0  0  0
  9 13  1  0  0  0  0
 11  8  1  0  0  0  0
 11  7  2  0  0  0  0
 12 10  1  0  0  0  0
 14 16  1  0  0  0  0
 14  1  1  0  0  0  0
 16 15  3  0  0  0  0
 17  1  1  0  0  0  0
 18 17  1  0  0  0  0
 19 18  1  0  0  0  0
 20 19  1  0  0  0  0
 20 21  1  0  0  0  0
 21 23  1  0  0  0  0
 23 22  1  1  0  0  0
 24 26  2  0  0  0  0
 26 23  1  0  0  0  0
 26 25  1  0  0  0  0
M  END
>  <MODEL>
5

>  <REMARK>
 VINA RESULT:      -7.4      3.196      6.186
  Name = 
  10 active torsions:
  status: ('A' for Active; 'I' for Inactive)
    1  A    between atoms: N_5  and  C_7
    2  A    between atoms: N_5  and  C_14
    3  A    between atoms: C_7  and  S_20
    4  A    between atoms: N_8  and  C_9
    5  A    between atoms: N_8  and  C_25
    6  A    between atoms: C_9  and  S_20
    7  A    between atoms: C_12  and  C_13
    8  A    between atoms: C_22  and  C_26
    9  A    between atoms: C_24  and  C_25
   10  A    between atoms: C_24  and  C_26
                            x       y       z     vdW  Elec       q    Type
                         _______ _______ _______ _____ _____    ______ ____

>  <TORSDO>
F 10

$$$$
=
 OpenBabel10232407553D

 26 27  0  0  1  0  0  0  0  0999 V2000
  186.0360  178.7840  140.5290 C   0  0  0  0  0  0  0  0  0  0  0  0
  185.2060  178.5850  141.5650 C   0  0  0  0  0  3  0  0  0  0  0  0
  188.4790  177.2890  146.5910 C   0  0  0  0  0  3  0  0  0  0  0  0
  188.1850  177.3390  145.2250 C   0  0  0  0  0  3  0  0  0  0  0  0
  187.5600  177.7880  147.5260 C   0  0  0  0  0  0  0  0  0  0  0  0
  187.8840  177.7450  148.9760 C   0  0  0  0  0  1  0  0  0  0  0  0
  186.9760  177.8960  144.7890 C   0  0  0  0  0  0  0  0  0  0  0  0
  185.5310  178.5170  143.0030 C   0  0  0  0  0  0  0  0  0  0  0  0
  186.0620  178.4160  145.7300 C   0  0  0  0  0  0  0  0  0  0  0  0
  184.8650  178.9760  145.2820 C   0  0  0  0  0  3  0  0  0  0  0  0
  186.6860  177.9550  143.4630 N   0  0  0  0  0  0  0  0  0  0  0  0
  184.6000  179.0290  143.9120 C   0  0  0  0  0  3  0  0  0  0  0  0
  186.3530  178.3550  147.0960 C   0  0  0  0  0  3  0  0  0  0  0  0
  185.5240  178.7660  139.1910 N   0  0  0  0  0  2  0  0  0  0  0  0
  183.0960  179.3190  138.5880 N   0  0  0  0  0  0  0  0  0  0  0  0
  184.1940  179.0710  138.8620 C   0  0  0  0  0  0  0  0  0  0  0  0
  187.8040  179.0490  140.7340 S   0  0  0  0  0  0  0  0  0  0  0  0
  188.2720  177.6610  139.6440 C   0  0  0  0  0  2  0  0  0  0  0  0
  189.6960  177.3820  139.7280 N   0  0  0  0  0  2  0  0  0  0  0  0
  189.9760  176.9040  141.0670 C   0  0  0  0  0  2  0  0  0  0  0  0
  191.2090  177.5940  141.5930 C   0  0  0  0  0  2  0  0  0  0  0  0
  190.6920  175.8140  143.2360 C   0  0  0  0  0  1  0  0  0  0  0  0
  191.6070  176.9780  142.9170 C   0  0  2  0  0  3  0  0  0  0  0  0
  191.8960  177.6620  145.3110 O   0  0  0  0  0  1  0  0  0  0  0  0
  191.1680  179.1640  143.7360 O   0  0  0  0  0  0  0  0  0  0  0  0
  191.5500  177.9950  144.0040 C   0  0  0  0  0  0  0  0  0  0  0  0
  1 17  1  0  0  0  0
  1  2  2  0  0  0  0
  2  8  1  0  0  0  0
  3  5  1  0  0  0  0
  4  3  2  0  0  0  0
  5  6  1  0  0  0  0
  7  4  1  0  0  0  0
  7  9  1  0  0  0  0
  8 11  1  0  0  0  0
  8 12  2  0  0  0  0
  9 13  1  0  0  0  0
 10  9  2  0  0  0  0
 11  7  2  0  0  0  0
 12 10  1  0  0  0  0
 13  5  2  0  0  0  0
 14  1  1  0  0  0  0
 15 16  3  0  0  0  0
 16 14  1  0  0  0  0
 18 19  1  0  0  0  0
 18 17  1  0  0  0  0
 19 20  1  0  0  0  0
 20 21  1  0  0  0  0
 21 23  1  0  0  0  0
 23 22  1  1  0  0  0
 23 26  1  0  0  0  0
 25 26  2  0  0  0  0
 26 24  1  0  0  0  0
M  END
>  <MODEL>
6

>  <REMARK>
 VINA RESULT:      -7.2      3.075      5.869
  Name = 
  10 active torsions:
  status: ('A' for Active; 'I' for Inactive)
    1  A    between atoms: N_5  and  C_7
    2  A    between atoms: N_5  and  C_14
    3  A    between atoms: C_7  and  S_20
    4  A    between atoms: N_8  and  C_9
    5  A    between atoms: N_8  and  C_25
    6  A    between atoms: C_9  and  S_20
    7  A    between atoms: C_12  and  C_13
    8  A    between atoms: C_22  and  C_26
    9  A    between atoms: C_24  and  C_25
   10  A    between atoms: C_24  and  C_26
                            x       y       z     vdW  Elec       q    Type
                         _______ _______ _______ _____ _____    ______ ____

>  <TORSDO>
F 10

$$$$
=
 OpenBabel10232407553D

 26 27  0  0  1  0  0  0  0  0999 V2000
  190.0500  177.2090  139.5590 C   0  0  0  0  0  0  0  0  0  0  0  0
  190.5280  176.6540  140.6840 C   0  0  0  0  0  3  0  0  0  0  0  0
  186.9100  177.3990  145.5840 C   0  0  0  0  0  3  0  0  0  0  0  0
  187.2300  177.1150  144.2530 C   0  0  0  0  0  3  0  0  0  0  0  0
  187.9170  177.7770  146.4840 C   0  0  0  0  0  0  0  0  0  0  0  0
  187.5720  178.0650  147.9000 C   0  0  0  0  0  1  0  0  0  0  0  0
  188.5600  177.1970  143.8200 C   0  0  0  0  0  0  0  0  0  0  0  0
  190.1680  176.9580  142.0830 C   0  0  0  0  0  0  0  0  0  0  0  0
  189.5740  177.5580  144.7320 C   0  0  0  0  0  0  0  0  0  0  0  0
  190.8960  177.6280  144.2900 C   0  0  0  0  0  3  0  0  0  0  0  0
  188.8810  176.9150  142.5300 N   0  0  0  0  0  0  0  0  0  0  0  0
  191.1950  177.3240  142.9600 C   0  0  0  0  0  3  0  0  0  0  0  0
  189.2500  177.8530  146.0590 C   0  0  0  0  0  3  0  0  0  0  0  0
  190.5710  176.8050  138.2870 N   0  0  0  0  0  2  0  0  0  0  0  0
  191.1780  174.3870  137.6980 N   0  0  0  0  0  0  0  0  0  0  0  0
  190.9020  175.4790  137.9670 C   0  0  0  0  0  0  0  0  0  0  0  0
  188.7820  178.4860  139.5660 S   0  0  0  0  0  0  0  0  0  0  0  0
  188.8200  178.7180  137.7550 C   0  0  0  0  0  2  0  0  0  0  0  0
  187.4760  178.8040  137.2070 N   0  0  0  0  0  2  0  0  0  0  0  0
  186.6860  177.7460  137.8020 C   0  0  0  0  0  2  0  0  0  0  0  0
  185.2220  178.0850  137.6710 C   0  0  0  0  0  2  0  0  0  0  0  0
  183.1650  177.2540  138.7740 C   0  0  0  0  0  1  0  0  0  0  0  0
  184.5320  177.8660  139.0000 C   0  0  2  0  0  3  0  0  0  0  0  0
  184.4090  180.3700  139.0640 O   0  0  0  0  0  0  0  0  0  0  0  0
  184.3200  179.1340  140.9970 O   0  0  0  0  0  1  0  0  0  0  0  0
  184.4080  179.1530  139.7410 C   0  0  0  0  0  0  0  0  0  0  0  0
  1 17  1  0  0  0  0
  1  2  2  0  0  0  0
  2  8  1  0  0  0  0
  3  5  1  0  0  0  0
  4  3  2  0  0  0  0
  5  6  1  0  0  0  0
  7  4  1  0  0  0  0
  7  9  1  0  0  0  0
  8 11  1  0  0  0  0
  8 12  2  0  0  0  0
  9 13  1  0  0  0  0
 10  9  2  0  0  0  0
 11  7  2  0  0  0  0
 12 10  1  0  0  0  0
 13  5  2  0  0  0  0
 14  1  1  0  0  0  0
 15 16  3  0  0  0  0
 16 14  1  0  0  0  0
 18 17  1  0  0  0  0
 19 18  1  0  0  0  0
 19 20  1  0  0  0  0
 21 20  1  0  0  0  0
 21 23  1  0  0  0  0
 23 22  1  6  0  0  0
 23 26  1  0  0  0  0
 24 26  2  0  0  0  0
 26 25  1  0  0  0  0
M  END
>  <MODEL>
7

>  <REMARK>
 VINA RESULT:      -7.2      2.938      5.717
  Name = 
  10 active torsions:
  status: ('A' for Active; 'I' for Inactive)
    1  A    between atoms: N_5  and  C_7
    2  A    between atoms: N_5  and  C_14
    3  A    between atoms: C_7  and  S_20
    4  A    between atoms: N_8  and  C_9
    5  A    between atoms: N_8  and  C_25
    6  A    between atoms: C_9  and  S_20
    7  A    between atoms: C_12  and  C_13
    8  A    between atoms: C_22  and  C_26
    9  A    between atoms: C_24  and  C_25
   10  A    between atoms: C_24  and  C_26
                            x       y       z     vdW  Elec       q    Type
                         _______ _______ _______ _____ _____    ______ ____

>  <TORSDO>
F 10

$$$$
=
 OpenBabel10232407553D

 26 27  0  0  1  0  0  0  0  0999 V2000
  184.2050  178.7840  142.7400 C   0  0  0  0  0  0  0  0  0  0  0  0
  184.3770  178.4740  144.0350 C   0  0  0  0  0  3  0  0  0  0  0  0
  190.2090  176.7200  144.7870 C   0  0  0  0  0  3  0  0  0  0  0  0
  189.0240  176.9810  144.0930 C   0  0  0  0  0  3  0  0  0  0  0  0
  190.2660  176.9090  146.1760 C   0  0  0  0  0  0  0  0  0  0  0  0
  191.5320  176.6430  146.9070 C   0  0  0  0  0  1  0  0  0  0  0  0
  187.8960  177.4430  144.7830 C   0  0  0  0  0  0  0  0  0  0  0  0
  185.6350  178.1850  144.7510 C   0  0  0  0  0  0  0  0  0  0  0  0
  187.9620  177.6530  146.1770 C   0  0  0  0  0  0  0  0  0  0  0  0
  186.8330  178.1210  146.8510 C   0  0  0  0  0  3  0  0  0  0  0  0
  186.7430  177.7070  144.1140 N   0  0  0  0  0  0  0  0  0  0  0  0
  185.6650  178.3910  146.1340 C   0  0  0  0  0  3  0  0  0  0  0  0
  189.1440  177.3800  146.8710 C   0  0  0  0  0  3  0  0  0  0  0  0
  182.8840  178.9820  142.2230 N   0  0  0  0  0  2  0  0  0  0  0  0
  180.7550  178.7530  143.6300 N   0  0  0  0  0  0  0  0  0  0  0  0
  181.7180  178.8540  142.9950 C   0  0  0  0  0  0  0  0  0  0  0  0
  185.5770  178.9390  141.5850 S   0  0  0  0  0  0  0  0  0  0  0  0
  184.5220  178.7660  140.1050 C   0  0  0  0  0  2  0  0  0  0  0  0
  185.2270  179.1810  138.9040 N   0  0  0  0  0  2  0  0  0  0  0  0
  185.8250  178.0030  138.3100 C   0  0  0  0  0  2  0  0  0  0  0  0
  186.7970  178.4250  137.2370 C   0  0  0  0  0  2  0  0  0  0  0  0
  187.6520  176.1030  137.3600 C   0  0  0  0  0  1  0  0  0  0  0  0
  188.0400  177.5660  137.3160 C   0  0  2  0  0  3  0  0  0  0  0  0
  189.4360  176.9370  139.3010 O   0  0  0  0  0  1  0  0  0  0  0  0
  188.9820  179.1370  138.8280 O   0  0  0  0  0  0  0  0  0  0  0  0
  188.8480  177.9250  138.5150 C   0  0  0  0  0  0  0  0  0  0  0  0
  1  2  2  0  0  0  0
  2  8  1  0  0  0  0
  3  5  1  0  0  0  0
  4  7  1  0  0  0  0
  4  3  2  0  0  0  0
  5 13  2  0  0  0  0
  5  6  1  0  0  0  0
  7  9  1  0  0  0  0
  8 12  2  0  0  0  0
  9 10  2  0  0  0  0
  9 13  1  0  0  0  0
 11  8  1  0  0  0  0
 11  7  2  0  0  0  0
 12 10  1  0  0  0  0
 14  1  1  0  0  0  0
 14 16  1  0  0  0  0
 16 15  3  0  0  0  0
 17  1  1  0  0  0  0
 18 17  1  0  0  0  0
 19 18  1  0  0  0  0
 20 19  1  0  0  0  0
 21 23  1  0  0  0  0
 21 20  1  0  0  0  0
 23 22  1  1  0  0  0
 23 26  1  0  0  0  0
 26 25  2  0  0  0  0
 26 24  1  0  0  0  0
M  END
>  <MODEL>
8

>  <REMARK>
 VINA RESULT:      -7.1      2.770      6.015
  Name = 
  10 active torsions:
  status: ('A' for Active; 'I' for Inactive)
    1  A    between atoms: N_5  and  C_7
    2  A    between atoms: N_5  and  C_14
    3  A    between atoms: C_7  and  S_20
    4  A    between atoms: N_8  and  C_9
    5  A    between atoms: N_8  and  C_25
    6  A    between atoms: C_9  and  S_20
    7  A    between atoms: C_12  and  C_13
    8  A    between atoms: C_22  and  C_26
    9  A    between atoms: C_24  and  C_25
   10  A    between atoms: C_24  and  C_26
                            x       y       z     vdW  Elec       q    Type
                         _______ _______ _______ _____ _____    ______ ____

>  <TORSDO>
F 10

$$$$
=
 OpenBabel10232407553D

 26 27  0  0  1  0  0  0  0  0999 V2000
  189.3010  177.9470  139.6600 C   0  0  0  0  0  0  0  0  0  0  0  0
  188.3010  178.4220  140.4190 C   0  0  0  0  0  3  0  0  0  0  0  0
  189.7000  177.4940  146.3210 C   0  0  0  0  0  3  0  0  0  0  0  0
  189.9400  177.6760  144.9560 C   0  0  0  0  0  3  0  0  0  0  0  0
  188.3840  177.4660  146.8060 C   0  0  0  0  0  0  0  0  0  0  0  0
  188.1360  177.2860  148.2600 C   0  0  0  0  0  1  0  0  0  0  0  0
  188.8650  177.8410  144.0730 C   0  0  0  0  0  0  0  0  0  0  0  0
  188.0680  178.2200  141.8630 C   0  0  0  0  0  0  0  0  0  0  0  0
  187.5430  177.8340  144.5660 C   0  0  0  0  0  0  0  0  0  0  0  0
  186.4820  178.0090  143.6770 C   0  0  0  0  0  3  0  0  0  0  0  0
  189.0900  178.0280  142.7450 N   0  0  0  0  0  0  0  0  0  0  0  0
  186.7460  178.2060  142.3190 C   0  0  0  0  0  3  0  0  0  0  0  0
  187.3060  177.6400  145.9300 C   0  0  0  0  0  3  0  0  0  0  0  0
  189.3190  178.2180  138.2530 N   0  0  0  0  0  2  0  0  0  0  0  0
  187.2210  178.7210  136.8710 N   0  0  0  0  0  0  0  0  0  0  0  0
  188.1680  178.4930  137.4980 C   0  0  0  0  0  0  0  0  0  0  0  0
  190.6360  176.9390  140.3250 S   0  0  0  0  0  0  0  0  0  0  0  0
  191.3320  176.5450  138.6840 C   0  0  0  0  0  2  0  0  0  0  0  0
  191.0420  175.1720  138.3050 N   0  0  0  0  0  2  0  0  0  0  0  0
  192.2330  174.6200  137.6940 C   0  0  0  0  0  2  0  0  0  0  0  0
  193.4220  175.4720  138.0630 C   0  0  0  0  0  2  0  0  0  0  0  0
  194.3510  173.6820  136.6240 C   0  0  0  0  0  1  0  0  0  0  0  0
  194.6920  174.8000  137.5860 C   0  0  2  0  0  3  0  0  0  0  0  0
  195.3520  172.9370  139.1290 O   0  0  0  0  0  0  0  0  0  0  0  0
  196.2220  175.0460  139.3850 O   0  0  0  0  0  1  0  0  0  0  0  0
  195.4680  174.2710  138.7420 C   0  0  0  0  0  0  0  0  0  0  0  0
  1 17  1  0  0  0  0
  1  2  2  0  0  0  0
  2  8  1  0  0  0  0
  3  5  1  0  0  0  0
  4  3  2  0  0  0  0
  5  6  1  0  0  0  0
  7  9  1  0  0  0  0
  7  4  1  0  0  0  0
  8 12  2  0  0  0  0
  8 11  1  0  0  0  0
  9 13  1  0  0  0  0
 10  9  2  0  0  0  0
 11  7  2  0  0  0  0
 12 10  1  0  0  0  0
 13  5  2  0  0  0  0
 14  1  1  0  0  0  0
 15 16  3  0  0  0  0
 16 14  1  0  0  0  0
 18 17  1  0  0  0  0
 19 18  1  0  0  0  0
 20 21  1  0  0  0  0
 20 19  1  0  0  0  0
 23 22  1  6  0  0  0
 23 21  1  0  0  0  0
 23 26  1  0  0  0  0
 26 24  2  0  0  0  0
 26 25  1  0  0  0  0
M  END
>  <MODEL>
9

>  <REMARK>
 VINA RESULT:      -7.0      3.938      6.281
  Name = 
  10 active torsions:
  status: ('A' for Active; 'I' for Inactive)
    1  A    between atoms: N_5  and  C_7
    2  A    between atoms: N_5  and  C_14
    3  A    between atoms: C_7  and  S_20
    4  A    between atoms: N_8  and  C_9
    5  A    between atoms: N_8  and  C_25
    6  A    between atoms: C_9  and  S_20
    7  A    between atoms: C_12  and  C_13
    8  A    between atoms: C_22  and  C_26
    9  A    between atoms: C_24  and  C_25
   10  A    between atoms: C_24  and  C_26
                            x       y       z     vdW  Elec       q    Type
                         _______ _______ _______ _____ _____    ______ ____

>  <TORSDO>
F 10

$$$$
