=
 OpenBabel10232407433D

 36 39  0  0  1  0  0  0  0  0999 V2000
  191.0160  177.3110  143.8550 C   0  0  1  0  0  3  0  0  0  0  0  0
  188.6890  177.6830  145.8970 C   0  0  0  0  0  0  0  0  0  0  0  0
  191.6260  175.8680  147.0230 O   0  0  0  0  0  0  0  0  0  0  0  0
  191.8190  177.2500  145.1280 C   0  0  0  0  0  2  0  0  0  0  0  0
  190.1590  178.5480  143.9420 C   0  0  0  0  0  2  0  0  0  0  0  0
  191.0300  176.6670  146.2560 C   0  0  0  0  0  0  0  0  0  0  0  0
  189.6300  177.0100  146.5850 C   0  0  0  0  0  3  0  0  0  0  0  0
  188.8970  178.2390  144.5890 N   0  0  0  0  0  2  0  0  0  0  0  0
  190.0660  176.9940  141.1270 N   0  0  0  0  0  2  0  0  0  0  0  0
  191.4300  177.3380  141.3740 C   0  0  0  0  0  0  0  0  0  0  0  0
  191.9140  177.4260  142.7160 N   0  0  0  0  0  2  0  0  0  0  0  0
  192.2150  177.5610  140.4160 O   0  0  0  0  0  0  0  0  0  0  0  0
  189.4750  177.0310  139.7990 C   0  0  0  0  0  2  0  0  0  0  0  0
  188.4880  178.9020  140.8580 F   0  0  0  0  0  0  0  0  0  0  0  0
  189.3280  179.1910  138.7920 F   0  0  0  0  0  0  0  0  0  0  0  0
  188.6600  178.3060  139.6230 C   0  0  0  0  0  0  0  0  0  0  0  0
  187.2840  177.9780  139.0460 C   0  0  0  0  0  2  0  0  0  0  0  0
  187.3350  177.5820  137.6010 C   0  0  0  0  0  0  0  0  0  0  0  0
  186.8960  176.6700  134.9860 C   0  0  0  0  0  2  0  0  0  0  0  0
  187.1550  178.5110  136.6470 C   0  0  0  0  0  3  0  0  0  0  0  0
  187.1670  178.1580  135.1850 C   0  0  0  0  0  2  0  0  0  0  0  0
  187.7780  175.8990  135.8590 N   0  0  0  0  0  2  0  0  0  0  0  0
  187.3630  176.1150  137.2460 C   0  0  0  0  0  2  0  0  0  0  0  0
  187.2530  177.6510  147.8360 O   0  0  0  0  0  1  0  0  0  0  0  0
  187.3840  177.8110  146.4940 N   0  0  0  0  0  0  0  0  0  0  0  0
  185.1800  178.3960  143.5950 C   0  0  0  0  0  0  0  0  0  0  0  0
  185.0900  178.1400  142.1540 C   0  0  0  0  0  3  0  0  0  0  0  0
  186.2510  178.1760  145.7350 N   0  0  0  0  0  0  0  0  0  0  0  0
  186.2280  177.9840  144.3080 C   0  0  0  0  0  3  0  0  0  0  0  0
  185.0230  178.5070  146.4100 C   0  0  0  0  0  3  0  0  0  0  0  0
  184.0860  179.2070  144.2460 C   0  0  2  0  0  3  0  0  0  0  0  0
  183.9160  178.2980  141.5400 C   0  0  0  0  0  3  0  0  0  0  0  0
  183.9670  178.9500  145.7220 C   0  0  0  0  0  3  0  0  0  0  0  0
  181.3800  178.6180  141.6570 C   0  0  0  0  0  1  0  0  0  0  0  0
  182.8020  179.0390  143.5600 N   0  0  0  0  0  0  0  0  0  0  0  0
  182.7140  178.6940  142.3060 C   0  0  0  0  0  0  0  0  0  0  0  0
  1 11  1  6  0  0  0
  1  5  1  0  0  0  0
  1  4  1  0  0  0  0
  2 25  1  0  0  0  0
  2  7  2  0  0  0  0
  4  6  1  0  0  0  0
  5  8  1  0  0  0  0
  6  7  1  0  0  0  0
  6  3  2  0  0  0  0
  8  2  1  0  0  0  0
  9 10  1  0  0  0  0
 10 11  1  0  0  0  0
 12 10  2  0  0  0  0
 13  9  1  0  0  0  0
 15 16  1  0  0  0  0
 16 13  1  0  0  0  0
 16 14  1  0  0  0  0
 17 16  1  0  0  0  0
 18 17  1  0  0  0  0
 19 21  1  0  0  0  0
 19 22  1  0  0  0  0
 20 18  2  0  0  0  0
 21 20  1  0  0  0  0
 22 23  1  0  0  0  0
 23 18  1  0  0  0  0
 25 24  1  0  0  0  0
 26 31  1  0  0  0  0
 26 29  2  0  0  0  0
 27 26  1  0  0  0  0
 28 30  1  0  0  0  0
 28 25  1  0  0  0  0
 29 28  1  0  0  0  0
 31 33  1  1  0  0  0
 32 27  2  0  0  0  0
 32 36  1  0  0  0  0
 33 30  2  0  0  0  0
 34 36  1  0  0  0  0
 35 31  1  0  0  0  0
 36 35  2  0  0  0  0
M  END
>  <MODEL>
1

>  <REMARK>
 VINA RESULT:      -9.8      0.000      0.000
  Name = 
  7 active torsions:
  status: ('A' for Active; 'I' for Inactive)
    1  A    between atoms: C_2  and  C_12
    2  A    between atoms: N_4  and  N_29
    3  A    between atoms: C_5  and  N_16
    4  A    between atoms: C_5  and  C_20
    5  A    between atoms: C_6  and  N_24
    6  A    between atoms: C_7  and  N_29
    7  A    between atoms: C_12  and  C_20
                            x       y       z     vdW  Elec       q    Type
                         _______ _______ _______ _____ _____    ______ ____

>  <TORSDO>
F 7

$$$$
=
 OpenBabel10232407433D

 36 39  0  0  1  0  0  0  0  0999 V2000
  188.4530  176.7150  137.0920 C   0  0  1  0  0  3  0  0  0  0  0  0
  190.6040  177.0160  139.3300 C   0  0  0  0  0  0  0  0  0  0  0  0
  190.5670  173.9060  137.4540 O   0  0  0  0  0  0  0  0  0  0  0  0
  189.4980  175.7870  136.5290 C   0  0  0  0  0  2  0  0  0  0  0  0
  189.1550  178.0090  137.4200 C   0  0  0  0  0  2  0  0  0  0  0  0
  190.2920  175.1230  137.6070 C   0  0  0  0  0  0  0  0  0  0  0  0
  190.8420  175.8000  138.8020 C   0  0  0  0  0  3  0  0  0  0  0  0
  189.6800  177.9650  138.7720 N   0  0  0  0  0  2  0  0  0  0  0  0
  185.7470  177.4730  137.8330 N   0  0  0  0  0  2  0  0  0  0  0  0
  186.1190  177.4030  136.4550 C   0  0  0  0  0  0  0  0  0  0  0  0
  187.4290  176.9640  136.0890 N   0  0  0  0  0  2  0  0  0  0  0  0
  185.2980  177.7230  135.5560 O   0  0  0  0  0  0  0  0  0  0  0  0
  184.4880  178.0480  138.2780 C   0  0  0  0  0  2  0  0  0  0  0  0
  185.9890  178.6850  139.9920 F   0  0  0  0  0  0  0  0  0  0  0  0
  184.1290  179.9210  139.7150 F   0  0  0  0  0  0  0  0  0  0  0  0
  184.6440  178.6340  139.6750 C   0  0  0  0  0  0  0  0  0  0  0  0
  183.9380  177.7510  140.7010 C   0  0  0  0  0  2  0  0  0  0  0  0
  183.9910  178.3120  142.0910 C   0  0  0  0  0  0  0  0  0  0  0  0
  183.7980  178.8960  144.8270 C   0  0  0  0  0  2  0  0  0  0  0  0
  185.0980  178.1480  142.8350 C   0  0  0  0  0  3  0  0  0  0  0  0
  185.1900  178.6660  144.2440 C   0  0  0  0  0  2  0  0  0  0  0  0
  183.0060  179.6820  143.8850 N   0  0  0  0  0  2  0  0  0  0  0  0
  182.7260  178.8540  142.7100 C   0  0  0  0  0  2  0  0  0  0  0  0
  192.5490  177.8580  140.4810 O   0  0  0  0  0  1  0  0  0  0  0  0
  191.2880  177.3630  140.5500 N   0  0  0  0  0  0  0  0  0  0  0  0
  190.7950  176.8540  144.1700 C   0  0  0  0  0  0  0  0  0  0  0  0
  191.5480  176.6590  145.4120 C   0  0  0  0  0  3  0  0  0  0  0  0
  190.6540  177.2750  141.8070 N   0  0  0  0  0  0  0  0  0  0  0  0
  191.4160  177.0020  142.9990 C   0  0  0  0  0  3  0  0  0  0  0  0
  189.2860  177.7040  141.9420 C   0  0  0  0  0  3  0  0  0  0  0  0
  189.2870  176.8100  144.2330 C   0  0  2  0  0  3  0  0  0  0  0  0
  190.9210  176.8110  146.5810 C   0  0  0  0  0  3  0  0  0  0  0  0
  188.6320  177.5400  143.0950 C   0  0  0  0  0  3  0  0  0  0  0  0
  188.8910  177.6090  147.9180 C   0  0  0  0  0  1  0  0  0  0  0  0
  188.7830  177.2630  145.5330 N   0  0  0  0  0  0  0  0  0  0  0  0
  189.4950  177.2020  146.6230 C   0  0  0  0  0  0  0  0  0  0  0  0
  1 11  1  6  0  0  0
  1  5  1  0  0  0  0
  2 25  1  0  0  0  0
  3  6  2  0  0  0  0
  4  1  1  0  0  0  0
  4  6  1  0  0  0  0
  5  8  1  0  0  0  0
  6  7  1  0  0  0  0
  7  2  2  0  0  0  0
  8  2  1  0  0  0  0
  9 13  1  0  0  0  0
 10  9  1  0  0  0  0
 11 10  1  0  0  0  0
 12 10  2  0  0  0  0
 13 16  1  0  0  0  0
 16 15  1  0  0  0  0
 16 14  1  0  0  0  0
 16 17  1  0  0  0  0
 17 18  1  0  0  0  0
 18 23  1  0  0  0  0
 18 20  2  0  0  0  0
 20 21  1  0  0  0  0
 21 19  1  0  0  0  0
 22 19  1  0  0  0  0
 23 22  1  0  0  0  0
 24 25  1  0  0  0  0
 25 28  1  0  0  0  0
 26 31  1  0  0  0  0
 26 27  1  0  0  0  0
 27 32  2  0  0  0  0
 28 30  1  0  0  0  0
 28 29  1  0  0  0  0
 29 26  2  0  0  0  0
 30 33  2  0  0  0  0
 31 33  1  6  0  0  0
 31 35  1  0  0  0  0
 32 36  1  0  0  0  0
 35 36  2  0  0  0  0
 36 34  1  0  0  0  0
M  END
>  <MODEL>
2

>  <REMARK>
 VINA RESULT:      -9.8      2.432      7.291
  Name = 
  7 active torsions:
  status: ('A' for Active; 'I' for Inactive)
    1  A    between atoms: C_2  and  C_12
    2  A    between atoms: N_4  and  N_29
    3  A    between atoms: C_5  and  N_16
    4  A    between atoms: C_5  and  C_20
    5  A    between atoms: C_6  and  N_24
    6  A    between atoms: C_7  and  N_29
    7  A    between atoms: C_12  and  C_20
                            x       y       z     vdW  Elec       q    Type
                         _______ _______ _______ _____ _____    ______ ____

>  <TORSDO>
F 7

$$$$
=
 OpenBabel10232407433D

 36 39  0  0  1  0  0  0  0  0999 V2000
  182.8010  178.2920  139.4880 C   0  0  1  0  0  3  0  0  0  0  0  0
  185.5980  178.3000  138.1100 C   0  0  0  0  0  0  0  0  0  0  0  0
  183.3450  175.5690  137.3020 O   0  0  0  0  0  0  0  0  0  0  0  0
  182.4420  177.5290  138.2390 C   0  0  0  0  0  2  0  0  0  0  0  0
  183.5180  179.5410  139.0400 C   0  0  0  0  0  2  0  0  0  0  0  0
  183.5930  176.7260  137.7270 C   0  0  0  0  0  0  0  0  0  0  0  0
  184.9870  177.2090  137.6130 C   0  0  0  0  0  3  0  0  0  0  0  0
  184.9420  179.2860  138.9230 N   0  0  0  0  0  2  0  0  0  0  0  0
  182.8000  178.7530  142.3570 N   0  0  0  0  0  2  0  0  0  0  0  0
  181.6060  178.9560  141.5990 C   0  0  0  0  0  0  0  0  0  0  0  0
  181.5880  178.6630  140.2000 N   0  0  0  0  0  2  0  0  0  0  0  0
  180.5620  179.3880  142.1560 O   0  0  0  0  0  0  0  0  0  0  0  0
  182.9280  179.1680  143.7450 C   0  0  0  0  0  2  0  0  0  0  0  0
  184.9750  178.0310  143.4030 F   0  0  0  0  0  0  0  0  0  0  0  0
  185.0660  180.1460  144.1630 F   0  0  0  0  0  0  0  0  0  0  0  0
  184.3590  178.9560  144.2250 C   0  0  0  0  0  0  0  0  0  0  0  0
  184.3630  178.4140  145.6530 C   0  0  0  0  0  2  0  0  0  0  0  0
  185.7430  178.2760  146.2210 C   0  0  0  0  0  0  0  0  0  0  0  0
  188.0840  177.6320  147.6250 C   0  0  0  0  0  2  0  0  0  0  0  0
  186.6560  177.5240  145.5840 C   0  0  0  0  0  3  0  0  0  0  0  0
  188.0440  177.3300  146.1290 C   0  0  0  0  0  2  0  0  0  0  0  0
  187.4520  178.9260  147.8710 N   0  0  0  0  0  2  0  0  0  0  0  0
  186.0170  178.7980  147.6110 C   0  0  0  0  0  2  0  0  0  0  0  0
  187.3930  179.1580  136.7450 O   0  0  0  0  0  1  0  0  0  0  0  0
  187.0050  178.4610  137.8420 N   0  0  0  0  0  0  0  0  0  0  0  0
  188.9450  177.9460  140.9370 C   0  0  0  0  0  0  0  0  0  0  0  0
  188.9080  178.2360  142.3730 C   0  0  0  0  0  3  0  0  0  0  0  0
  187.9900  177.9810  138.7320 N   0  0  0  0  0  0  0  0  0  0  0  0
  187.9700  178.3510  140.1240 C   0  0  0  0  0  3  0  0  0  0  0  0
  188.8710  176.9220  138.3090 C   0  0  0  0  0  3  0  0  0  0  0  0
  190.1560  177.2360  140.3820 C   0  0  2  0  0  3  0  0  0  0  0  0
  189.7310  177.5730  143.1900 C   0  0  0  0  0  3  0  0  0  0  0  0
  189.8730  176.5170  139.0930 C   0  0  0  0  0  3  0  0  0  0  0  0
  191.3580  175.6430  143.6050 C   0  0  0  0  0  1  0  0  0  0  0  0
  190.7720  176.3510  141.3750 N   0  0  0  0  0  0  0  0  0  0  0  0
  190.6430  176.5360  142.6580 C   0  0  0  0  0  0  0  0  0  0  0  0
  1 11  1  6  0  0  0
  2  8  1  0  0  0  0
  3  6  2  0  0  0  0
  4  1  1  0  0  0  0
  5  1  1  0  0  0  0
  6  4  1  0  0  0  0
  7  6  1  0  0  0  0
  7  2  2  0  0  0  0
  8  5  1  0  0  0  0
  9 13  1  0  0  0  0
 10 12  2  0  0  0  0
 10  9  1  0  0  0  0
 11 10  1  0  0  0  0
 13 16  1  0  0  0  0
 14 16  1  0  0  0  0
 15 16  1  0  0  0  0
 16 17  1  0  0  0  0
 17 18  1  0  0  0  0
 18 23  1  0  0  0  0
 19 22  1  0  0  0  0
 20 21  1  0  0  0  0
 20 18  2  0  0  0  0
 21 19  1  0  0  0  0
 23 22  1  0  0  0  0
 24 25  1  0  0  0  0
 25  2  1  0  0  0  0
 25 28  1  0  0  0  0
 26 27  1  0  0  0  0
 27 32  2  0  0  0  0
 28 29  1  0  0  0  0
 29 26  2  0  0  0  0
 30 28  1  0  0  0  0
 30 33  2  0  0  0  0
 31 33  1  6  0  0  0
 31 26  1  0  0  0  0
 31 35  1  0  0  0  0
 35 36  2  0  0  0  0
 36 32  1  0  0  0  0
 36 34  1  0  0  0  0
M  END
>  <MODEL>
3

>  <REMARK>
 VINA RESULT:      -9.6      3.471      9.095
  Name = 
  7 active torsions:
  status: ('A' for Active; 'I' for Inactive)
    1  A    between atoms: C_2  and  C_12
    2  A    between atoms: N_4  and  N_29
    3  A    between atoms: C_5  and  N_16
    4  A    between atoms: C_5  and  C_20
    5  A    between atoms: C_6  and  N_24
    6  A    between atoms: C_7  and  N_29
    7  A    between atoms: C_12  and  C_20
                            x       y       z     vdW  Elec       q    Type
                         _______ _______ _______ _____ _____    ______ ____

>  <TORSDO>
F 7

$$$$
=
 OpenBabel10232407433D

 36 39  0  0  1  0  0  0  0  0999 V2000
  188.7550  177.1830  137.0630 C   0  0  1  0  0  3  0  0  0  0  0  0
  190.1650  177.3090  139.8420 C   0  0  0  0  0  0  0  0  0  0  0  0
  190.9680  174.4980  137.6850 O   0  0  0  0  0  0  0  0  0  0  0  0
  190.0050  176.4160  136.7190 C   0  0  0  0  0  2  0  0  0  0  0  0
  189.2020  178.4610  137.7260 C   0  0  0  0  0  2  0  0  0  0  0  0
  190.5360  175.6610  137.8940 C   0  0  0  0  0  0  0  0  0  0  0  0
  190.6630  176.1980  139.2670 C   0  0  0  0  0  3  0  0  0  0  0  0
  189.3370  178.2630  139.1580 N   0  0  0  0  0  2  0  0  0  0  0  0
  185.8670  176.9040  136.8990 N   0  0  0  0  0  2  0  0  0  0  0  0
  186.6000  177.4290  135.7900 C   0  0  0  0  0  0  0  0  0  0  0  0
  188.0260  177.5020  135.8450 N   0  0  0  0  0  2  0  0  0  0  0  0
  185.9980  177.8260  134.7580 O   0  0  0  0  0  0  0  0  0  0  0  0
  184.4150  176.9380  136.9670 C   0  0  0  0  0  2  0  0  0  0  0  0
  185.0680  178.4760  138.6420 F   0  0  0  0  0  0  0  0  0  0  0  0
  183.0630  178.7770  137.6680 F   0  0  0  0  0  0  0  0  0  0  0  0
  183.9650  177.8270  138.1200 C   0  0  0  0  0  0  0  0  0  0  0  0
  183.3330  176.9820  139.2240 C   0  0  0  0  0  2  0  0  0  0  0  0
  182.9100  177.7940  140.4110 C   0  0  0  0  0  0  0  0  0  0  0  0
  181.8760  178.8280  142.8040 C   0  0  0  0  0  2  0  0  0  0  0  0
  183.7780  178.0140  141.4120 C   0  0  0  0  0  3  0  0  0  0  0  0
  183.3930  178.7970  142.6380 C   0  0  0  0  0  2  0  0  0  0  0  0
  181.2630  179.2340  141.5410 N   0  0  0  0  0  2  0  0  0  0  0  0
  181.4530  178.1580  140.5670 C   0  0  0  0  0  2  0  0  0  0  0  0
  191.7260  177.7630  141.6240 O   0  0  0  0  0  1  0  0  0  0  0  0
  190.4470  177.5250  141.2380 N   0  0  0  0  0  0  0  0  0  0  0  0
  188.7450  177.4970  144.5100 C   0  0  0  0  0  0  0  0  0  0  0  0
  189.0260  177.5250  145.9480 C   0  0  0  0  0  3  0  0  0  0  0  0
  189.4200  177.5740  142.2050 N   0  0  0  0  0  0  0  0  0  0  0  0
  189.7280  177.5190  143.6110 C   0  0  0  0  0  3  0  0  0  0  0  0
  188.0840  177.9310  141.8010 C   0  0  0  0  0  3  0  0  0  0  0  0
  187.3080  177.3670  144.0660 C   0  0  2  0  0  3  0  0  0  0  0  0
  188.0340  177.7980  146.7980 C   0  0  0  0  0  3  0  0  0  0  0  0
  187.0760  177.8890  142.6760 C   0  0  0  0  0  3  0  0  0  0  0  0
  185.6590  178.6460  147.2310 C   0  0  0  0  0  1  0  0  0  0  0  0
  186.3820  177.9640  145.0330 N   0  0  0  0  0  0  0  0  0  0  0  0
  186.6760  178.1010  146.2950 C   0  0  0  0  0  0  0  0  0  0  0  0
  1 11  1  6  0  0  0
  1  5  1  0  0  0  0
  2 25  1  0  0  0  0
  3  6  2  0  0  0  0
  4  1  1  0  0  0  0
  4  6  1  0  0  0  0
  5  8  1  0  0  0  0
  6  7  1  0  0  0  0
  7  2  2  0  0  0  0
  8  2  1  0  0  0  0
  9 13  1  0  0  0  0
 10 11  1  0  0  0  0
 10  9  1  0  0  0  0
 12 10  2  0  0  0  0
 13 16  1  0  0  0  0
 15 16  1  0  0  0  0
 16 14  1  0  0  0  0
 16 17  1  0  0  0  0
 17 18  1  0  0  0  0
 18 23  1  0  0  0  0
 18 20  2  0  0  0  0
 20 21  1  0  0  0  0
 21 19  1  0  0  0  0
 22 19  1  0  0  0  0
 23 22  1  0  0  0  0
 25 24  1  0  0  0  0
 25 28  1  0  0  0  0
 26 27  1  0  0  0  0
 27 32  2  0  0  0  0
 28 29  1  0  0  0  0
 29 26  2  0  0  0  0
 30 28  1  0  0  0  0
 30 33  2  0  0  0  0
 31 33  1  6  0  0  0
 31 26  1  0  0  0  0
 31 35  1  0  0  0  0
 35 36  2  0  0  0  0
 36 32  1  0  0  0  0
 36 34  1  0  0  0  0
M  END
>  <MODEL>
4

>  <REMARK>
 VINA RESULT:      -9.2      2.628      6.557
  Name = 
  7 active torsions:
  status: ('A' for Active; 'I' for Inactive)
    1  A    between atoms: C_2  and  C_12
    2  A    between atoms: N_4  and  N_29
    3  A    between atoms: C_5  and  N_16
    4  A    between atoms: C_5  and  C_20
    5  A    between atoms: C_6  and  N_24
    6  A    between atoms: C_7  and  N_29
    7  A    between atoms: C_12  and  C_20
                            x       y       z     vdW  Elec       q    Type
                         _______ _______ _______ _____ _____    ______ ____

>  <TORSDO>
F 7

$$$$
=
 OpenBabel10232407433D

 36 39  0  0  1  0  0  0  0  0999 V2000
  189.1000  177.3180  144.3840 C   0  0  1  0  0  3  0  0  0  0  0  0
  189.3350  177.4490  141.2770 C   0  0  0  0  0  0  0  0  0  0  0  0
  192.3550  178.0360  143.2080 O   0  0  0  0  0  0  0  0  0  0  0  0
  190.5520  176.9400  144.2490 C   0  0  0  0  0  2  0  0  0  0  0  0
  188.3320  176.4280  143.4410 C   0  0  0  0  0  2  0  0  0  0  0  0
  191.1890  177.5880  143.0630 C   0  0  0  0  0  0  0  0  0  0  0  0
  190.5870  177.6780  141.7140 C   0  0  0  0  0  3  0  0  0  0  0  0
  188.2510  177.0390  142.1270 N   0  0  0  0  0  2  0  0  0  0  0  0
  186.6900  178.5490  145.4440 N   0  0  0  0  0  2  0  0  0  0  0  0
  187.4330  177.6260  146.2420 C   0  0  0  0  0  0  0  0  0  0  0  0
  188.6550  177.0740  145.7470 N   0  0  0  0  0  2  0  0  0  0  0  0
  187.0220  177.2960  147.3860 O   0  0  0  0  0  0  0  0  0  0  0  0
  185.3720  179.0310  145.8250 C   0  0  0  0  0  2  0  0  0  0  0  0
  183.1780  179.0860  144.9400 F   0  0  0  0  0  0  0  0  0  0  0  0
  184.6970  180.4940  144.0620 F   0  0  0  0  0  0  0  0  0  0  0  0
  184.5070  179.2250  144.5850 C   0  0  0  0  0  0  0  0  0  0  0  0
  184.8420  178.1660  143.5360 C   0  0  0  0  0  2  0  0  0  0  0  0
  184.3880  178.5450  142.1580 C   0  0  0  0  0  0  0  0  0  0  0  0
  183.7370  178.7410  139.4380 C   0  0  0  0  0  2  0  0  0  0  0  0
  183.0920  178.4220  141.8250 C   0  0  0  0  0  3  0  0  0  0  0  0
  182.5920  178.7600  140.4470 C   0  0  0  0  0  2  0  0  0  0  0  0
  184.8460  179.5400  139.9530 N   0  0  0  0  0  2  0  0  0  0  0  0
  185.4250  178.8430  141.1030 C   0  0  0  0  0  2  0  0  0  0  0  0
  188.3980  178.7960  139.5080 O   0  0  0  0  0  1  0  0  0  0  0  0
  189.0610  177.6720  139.8800 N   0  0  0  0  0  0  0  0  0  0  0  0
  191.3600  175.6230  137.8500 C   0  0  0  0  0  0  0  0  0  0  0  0
  192.7430  175.1380  137.8240 C   0  0  0  0  0  3  0  0  0  0  0  0
  189.5310  176.7920  138.8820 N   0  0  0  0  0  0  0  0  0  0  0  0
  190.9160  176.3990  138.8390 C   0  0  0  0  0  3  0  0  0  0  0  0
  188.5840  176.0880  138.0550 C   0  0  0  0  0  3  0  0  0  0  0  0
  190.4610  175.2820  136.6860 C   0  0  2  0  0  3  0  0  0  0  0  0
  193.0650  174.1400  136.9970 C   0  0  0  0  0  3  0  0  0  0  0  0
  189.0020  175.3270  137.0400 C   0  0  0  0  0  3  0  0  0  0  0  0
  192.3560  172.2500  135.4270 C   0  0  0  0  0  1  0  0  0  0  0  0
  190.8320  174.0060  136.0670 N   0  0  0  0  0  0  0  0  0  0  0  0
  192.0350  173.5110  136.1430 C   0  0  0  0  0  0  0  0  0  0  0  0
  1 11  1  1  0  0  0
  2  7  2  0  0  0  0
  2  8  1  0  0  0  0
  4  1  1  0  0  0  0
  5  1  1  0  0  0  0
  6  3  2  0  0  0  0
  6  4  1  0  0  0  0
  7  6  1  0  0  0  0
  8  5  1  0  0  0  0
  9 13  1  0  0  0  0
  9 10  1  0  0  0  0
 10 12  2  0  0  0  0
 11 10  1  0  0  0  0
 15 16  1  0  0  0  0
 16 14  1  0  0  0  0
 16 13  1  0  0  0  0
 17 16  1  0  0  0  0
 18 17  1  0  0  0  0
 19 22  1  0  0  0  0
 19 21  1  0  0  0  0
 20 18  2  0  0  0  0
 21 20  1  0  0  0  0
 22 23  1  0  0  0  0
 23 18  1  0  0  0  0
 24 25  1  0  0  0  0
 25  2  1  0  0  0  0
 26 29  2  0  0  0  0
 27 26  1  0  0  0  0
 28 25  1  0  0  0  0
 29 28  1  0  0  0  0
 30 28  1  0  0  0  0
 31 33  1  1  0  0  0
 31 26  1  0  0  0  0
 32 27  2  0  0  0  0
 33 30  2  0  0  0  0
 34 36  1  0  0  0  0
 35 36  2  0  0  0  0
 35 31  1  0  0  0  0
 36 32  1  0  0  0  0
M  END
>  <MODEL>
5

>  <REMARK>
 VINA RESULT:      -9.2      2.985      7.534
  Name = 
  7 active torsions:
  status: ('A' for Active; 'I' for Inactive)
    1  A    between atoms: C_2  and  C_12
    2  A    between atoms: N_4  and  N_29
    3  A    between atoms: C_5  and  N_16
    4  A    between atoms: C_5  and  C_20
    5  A    between atoms: C_6  and  N_24
    6  A    between atoms: C_7  and  N_29
    7  A    between atoms: C_12  and  C_20
                            x       y       z     vdW  Elec       q    Type
                         _______ _______ _______ _____ _____    ______ ____

>  <TORSDO>
F 7

$$$$
=
 OpenBabel10232407433D

 36 39  0  0  1  0  0  0  0  0999 V2000
  188.0080  177.7260  146.3740 C   0  0  1  0  0  3  0  0  0  0  0  0
  190.0250  177.0610  144.0910 C   0  0  0  0  0  0  0  0  0  0  0  0
  191.3170  177.1690  147.4840 O   0  0  0  0  0  0  0  0  0  0  0  0
  188.9980  176.9190  147.1730 C   0  0  0  0  0  2  0  0  0  0  0  0
  187.6650  176.9060  145.1570 C   0  0  0  0  0  2  0  0  0  0  0  0
  190.3880  177.0600  146.6430 C   0  0  0  0  0  0  0  0  0  0  0  0
  190.7660  177.0080  145.2140 C   0  0  0  0  0  3  0  0  0  0  0  0
  188.5950  177.1930  144.0800 N   0  0  0  0  0  2  0  0  0  0  0  0
  185.5470  178.6910  145.1660 N   0  0  0  0  0  2  0  0  0  0  0  0
  185.5790  178.3520  146.5540 C   0  0  0  0  0  0  0  0  0  0  0  0
  186.8050  177.9440  147.1630 N   0  0  0  0  0  2  0  0  0  0  0  0
  184.5310  178.4150  147.2490 O   0  0  0  0  0  0  0  0  0  0  0  0
  184.3110  178.9710  144.4540 C   0  0  0  0  0  2  0  0  0  0  0  0
  185.2430  179.9130  142.4940 F   0  0  0  0  0  0  0  0  0  0  0  0
  185.2470  177.6710  142.6830 F   0  0  0  0  0  0  0  0  0  0  0  0
  184.5260  178.8240  142.9530 C   0  0  0  0  0  0  0  0  0  0  0  0
  183.1820  178.7870  142.2270 C   0  0  0  0  0  2  0  0  0  0  0  0
  183.2990  178.3270  140.8050 C   0  0  0  0  0  0  0  0  0  0  0  0
  183.0980  177.8380  138.0510 C   0  0  0  0  0  2  0  0  0  0  0  0
  184.2680  178.8250  140.0190 C   0  0  0  0  0  3  0  0  0  0  0  0
  184.4080  178.4180  138.5780 C   0  0  0  0  0  2  0  0  0  0  0  0
  182.6140  176.8210  138.9810 N   0  0  0  0  0  2  0  0  0  0  0  0
  182.1930  177.4840  140.2160 C   0  0  0  0  0  2  0  0  0  0  0  0
  191.9840  176.5370  142.7830 O   0  0  0  0  0  1  0  0  0  0  0  0
  190.7180  177.0250  142.8280 N   0  0  0  0  0  0  0  0  0  0  0  0
  190.0430  177.4020  139.2220 C   0  0  0  0  0  0  0  0  0  0  0  0
  190.4910  176.9120  137.9150 C   0  0  0  0  0  3  0  0  0  0  0  0
  190.0900  177.4100  141.6250 N   0  0  0  0  0  0  0  0  0  0  0  0
  190.6060  176.9740  140.3520 C   0  0  0  0  0  3  0  0  0  0  0  0
  188.7910  178.0290  141.6710 C   0  0  0  0  0  3  0  0  0  0  0  0
  188.9720  178.4640  139.2570 C   0  0  2  0  0  3  0  0  0  0  0  0
  189.7250  177.1270  136.8440 C   0  0  0  0  0  3  0  0  0  0  0  0
  188.2180  178.4920  140.5570 C   0  0  0  0  0  3  0  0  0  0  0  0
  187.4820  177.8270  135.8300 C   0  0  0  0  0  1  0  0  0  0  0  0
  188.0690  178.3670  138.1070 N   0  0  0  0  0  0  0  0  0  0  0  0
  188.4250  177.8220  136.9780 C   0  0  0  0  0  0  0  0  0  0  0  0
  1 11  1  1  0  0  0
  1  4  1  0  0  0  0
  2  7  2  0  0  0  0
  5  1  1  0  0  0  0
  6  4  1  0  0  0  0
  6  3  2  0  0  0  0
  7  6  1  0  0  0  0
  8  2  1  0  0  0  0
  8  5  1  0  0  0  0
  9 10  1  0  0  0  0
 10 11  1  0  0  0  0
 10 12  2  0  0  0  0
 13  9  1  0  0  0  0
 14 16  1  0  0  0  0
 15 16  1  0  0  0  0
 16 13  1  0  0  0  0
 17 16  1  0  0  0  0
 18 17  1  0  0  0  0
 19 21  1  0  0  0  0
 19 22  1  0  0  0  0
 20 18  2  0  0  0  0
 21 20  1  0  0  0  0
 22 23  1  0  0  0  0
 23 18  1  0  0  0  0
 24 25  1  0  0  0  0
 25  2  1  0  0  0  0
 26 31  1  0  0  0  0
 26 29  2  0  0  0  0
 27 26  1  0  0  0  0
 28 30  1  0  0  0  0
 28 25  1  0  0  0  0
 29 28  1  0  0  0  0
 31 33  1  1  0  0  0
 32 36  1  0  0  0  0
 32 27  2  0  0  0  0
 33 30  2  0  0  0  0
 34 36  1  0  0  0  0
 35 31  1  0  0  0  0
 36 35  2  0  0  0  0
M  END
>  <MODEL>
6

>  <REMARK>
 VINA RESULT:      -9.1      2.029      5.874
  Name = 
  7 active torsions:
  status: ('A' for Active; 'I' for Inactive)
    1  A    between atoms: C_2  and  C_12
    2  A    between atoms: N_4  and  N_29
    3  A    between atoms: C_5  and  N_16
    4  A    between atoms: C_5  and  C_20
    5  A    between atoms: C_6  and  N_24
    6  A    between atoms: C_7  and  N_29
    7  A    between atoms: C_12  and  C_20
                            x       y       z     vdW  Elec       q    Type
                         _______ _______ _______ _____ _____    ______ ____

>  <TORSDO>
F 7

$$$$
=
 OpenBabel10232407433D

 36 39  0  0  1  0  0  0  0  0999 V2000
  185.1590  178.6570  138.5780 C   0  0  1  0  0  3  0  0  0  0  0  0
  183.7900  178.4890  141.3750 C   0  0  0  0  0  0  0  0  0  0  0  0
  182.0330  177.0080  138.5620 O   0  0  0  0  0  0  0  0  0  0  0  0
  184.3430  177.4100  138.3580 C   0  0  0  0  0  2  0  0  0  0  0  0
  185.9050  178.4610  139.8740 C   0  0  0  0  0  2  0  0  0  0  0  0
  183.0670  177.4350  139.1360 C   0  0  0  0  0  0  0  0  0  0  0  0
  182.9390  177.8510  140.5500 C   0  0  0  0  0  3  0  0  0  0  0  0
  185.1030  178.9260  140.9900 N   0  0  0  0  0  2  0  0  0  0  0  0
  187.7930  177.4310  138.6720 N   0  0  0  0  0  2  0  0  0  0  0  0
  187.3800  178.1540  137.5100 C   0  0  0  0  0  0  0  0  0  0  0  0
  186.1130  178.8150  137.4920 N   0  0  0  0  0  2  0  0  0  0  0  0
  188.1290  178.2180  136.5000 O   0  0  0  0  0  0  0  0  0  0  0  0
  188.9980  176.6180  138.7040 C   0  0  0  0  0  2  0  0  0  0  0  0
  191.0470  176.3010  139.8430 F   0  0  0  0  0  0  0  0  0  0  0  0
  190.4180  178.4120  139.3890 F   0  0  0  0  0  0  0  0  0  0  0  0
  189.9640  177.1540  139.7530 C   0  0  0  0  0  0  0  0  0  0  0  0
  189.2810  177.2160  141.1180 C   0  0  0  0  0  2  0  0  0  0  0  0
  190.2480  177.1270  142.2600 C   0  0  0  0  0  0  0  0  0  0  0  0
  191.6140  177.1250  144.7100 C   0  0  0  0  0  2  0  0  0  0  0  0
  190.5220  175.9320  142.8110 C   0  0  0  0  0  3  0  0  0  0  0  0
  191.4620  175.7940  143.9780 C   0  0  0  0  0  2  0  0  0  0  0  0
  191.9140  178.1760  143.7400 N   0  0  0  0  0  2  0  0  0  0  0  0
  190.7250  178.4000  142.9160 C   0  0  0  0  0  2  0  0  0  0  0  0
  182.0660  179.2370  142.8880 O   0  0  0  0  0  1  0  0  0  0  0  0
  183.3340  178.7870  142.7090 N   0  0  0  0  0  0  0  0  0  0  0  0
  186.1970  177.7280  144.7780 C   0  0  0  0  0  0  0  0  0  0  0  0
  187.5800  177.2570  144.6650 C   0  0  0  0  0  3  0  0  0  0  0  0
  184.1430  178.5510  143.8400 N   0  0  0  0  0  0  0  0  0  0  0  0
  185.4710  178.0110  143.6970 C   0  0  0  0  0  3  0  0  0  0  0  0
  183.7430  179.0790  145.1200 C   0  0  0  0  0  3  0  0  0  0  0  0
  185.5830  177.8170  146.1550 C   0  0  2  0  0  3  0  0  0  0  0  0
  188.3610  177.2690  145.7480 C   0  0  0  0  0  3  0  0  0  0  0  0
  184.4380  178.7870  146.2230 C   0  0  0  0  0  3  0  0  0  0  0  0
  188.7970  178.0210  148.1540 C   0  0  0  0  0  1  0  0  0  0  0  0
  186.5900  178.0910  147.1840 N   0  0  0  0  0  0  0  0  0  0  0  0
  187.8470  177.7810  147.0380 C   0  0  0  0  0  0  0  0  0  0  0  0
  1 11  1  6  0  0  0
  1  5  1  0  0  0  0
  2 25  1  0  0  0  0
  3  6  2  0  0  0  0
  4  1  1  0  0  0  0
  4  6  1  0  0  0  0
  5  8  1  0  0  0  0
  6  7  1  0  0  0  0
  7  2  2  0  0  0  0
  8  2  1  0  0  0  0
  9 13  1  0  0  0  0
 10  9  1  0  0  0  0
 11 10  1  0  0  0  0
 12 10  2  0  0  0  0
 13 16  1  0  0  0  0
 15 16  1  0  0  0  0
 16 14  1  0  0  0  0
 16 17  1  0  0  0  0
 17 18  1  0  0  0  0
 18 20  2  0  0  0  0
 18 23  1  0  0  0  0
 20 21  1  0  0  0  0
 21 19  1  0  0  0  0
 22 19  1  0  0  0  0
 23 22  1  0  0  0  0
 25 24  1  0  0  0  0
 25 28  1  0  0  0  0
 26 31  1  0  0  0  0
 27 26  1  0  0  0  0
 27 32  2  0  0  0  0
 28 30  1  0  0  0  0
 29 28  1  0  0  0  0
 29 26  2  0  0  0  0
 30 33  2  0  0  0  0
 31 33  1  6  0  0  0
 31 35  1  0  0  0  0
 32 36  1  0  0  0  0
 36 35  2  0  0  0  0
 36 34  1  0  0  0  0
M  END
>  <MODEL>
7

>  <REMARK>
 VINA RESULT:      -9.0      2.897      6.621
  Name = 
  7 active torsions:
  status: ('A' for Active; 'I' for Inactive)
    1  A    between atoms: C_2  and  C_12
    2  A    between atoms: N_4  and  N_29
    3  A    between atoms: C_5  and  N_16
    4  A    between atoms: C_5  and  C_20
    5  A    between atoms: C_6  and  N_24
    6  A    between atoms: C_7  and  N_29
    7  A    between atoms: C_12  and  C_20
                            x       y       z     vdW  Elec       q    Type
                         _______ _______ _______ _____ _____    ______ ____

>  <TORSDO>
F 7

$$$$
=
 OpenBabel10232407433D

 36 39  0  0  1  0  0  0  0  0999 V2000
  190.4040  177.1550  145.1370 C   0  0  1  0  0  3  0  0  0  0  0  0
  190.8810  177.2940  142.0580 C   0  0  0  0  0  0  0  0  0  0  0  0
  187.7800  175.7880  143.2020 O   0  0  0  0  0  0  0  0  0  0  0  0
  188.9670  177.1790  144.6840 C   0  0  0  0  0  2  0  0  0  0  0  0
  191.0950  178.3000  144.4400 C   0  0  0  0  0  2  0  0  0  0  0  0
  188.7910  176.5210  143.3540 C   0  0  0  0  0  0  0  0  0  0  0  0
  189.6690  176.7210  142.1800 C   0  0  0  0  0  3  0  0  0  0  0  0
  191.6110  177.8660  143.1550 N   0  0  0  0  0  2  0  0  0  0  0  0
  188.0870  178.0370  146.6530 N   0  0  0  0  0  2  0  0  0  0  0  0
  189.3070  177.7250  147.3270 C   0  0  0  0  0  0  0  0  0  0  0  0
  190.4670  177.3580  146.5750 N   0  0  0  0  0  2  0  0  0  0  0  0
  189.3730  177.7740  148.5830 O   0  0  0  0  0  0  0  0  0  0  0  0
  186.8380  178.2730  147.3590 C   0  0  0  0  0  2  0  0  0  0  0  0
  185.8340  177.0580  145.5950 F   0  0  0  0  0  0  0  0  0  0  0  0
  184.4760  178.0380  147.0970 F   0  0  0  0  0  0  0  0  0  0  0  0
  185.6630  178.1730  146.3950 C   0  0  0  0  0  0  0  0  0  0  0  0
  185.6080  179.4080  145.4980 C   0  0  0  0  0  2  0  0  0  0  0  0
  184.9040  179.1570  144.1990 C   0  0  0  0  0  0  0  0  0  0  0  0
  183.7300  178.1440  141.8610 C   0  0  0  0  0  2  0  0  0  0  0  0
  183.5640  179.0660  144.1730 C   0  0  0  0  0  3  0  0  0  0  0  0
  182.8130  178.7840  142.9000 C   0  0  0  0  0  2  0  0  0  0  0  0
  184.9520  178.9360  141.7460 N   0  0  0  0  0  2  0  0  0  0  0  0
  185.7200  178.7870  142.9840 C   0  0  0  0  0  2  0  0  0  0  0  0
  192.8460  177.3820  140.6610 O   0  0  0  0  0  1  0  0  0  0  0  0
  191.4960  177.2910  140.7540 N   0  0  0  0  0  0  0  0  0  0  0  0
  188.7430  177.5710  138.3160 C   0  0  0  0  0  0  0  0  0  0  0  0
  187.5000  178.3090  138.0700 C   0  0  0  0  0  3  0  0  0  0  0  0
  190.7380  177.1180  139.5770 N   0  0  0  0  0  0  0  0  0  0  0  0
  189.4800  177.7980  139.4030 C   0  0  0  0  0  3  0  0  0  0  0  0
  191.3340  176.4620  138.4410 C   0  0  0  0  0  3  0  0  0  0  0  0
  189.1360  176.4890  137.3390 C   0  0  2  0  0  3  0  0  0  0  0  0
  186.9540  178.2730  136.8530 C   0  0  0  0  0  3  0  0  0  0  0  0
  190.6100  176.1980  137.3510 C   0  0  0  0  0  3  0  0  0  0  0  0
  187.1280  177.7080  134.3640 C   0  0  0  0  0  1  0  0  0  0  0  0
  188.6470  176.7710  135.9870 N   0  0  0  0  0  0  0  0  0  0  0  0
  187.6110  177.5270  135.7570 C   0  0  0  0  0  0  0  0  0  0  0  0
  1 11  1  1  0  0  0
  2  7  2  0  0  0  0
  2  8  1  0  0  0  0
  3  6  2  0  0  0  0
  4  1  1  0  0  0  0
  5  1  1  0  0  0  0
  6  4  1  0  0  0  0
  7  6  1  0  0  0  0
  8  5  1  0  0  0  0
  9 10  1  0  0  0  0
  9 13  1  0  0  0  0
 10 12  2  0  0  0  0
 11 10  1  0  0  0  0
 14 16  1  0  0  0  0
 16 15  1  0  0  0  0
 16 13  1  0  0  0  0
 17 16  1  0  0  0  0
 18 17  1  0  0  0  0
 19 21  1  0  0  0  0
 20 18  2  0  0  0  0
 21 20  1  0  0  0  0
 22 19  1  0  0  0  0
 22 23  1  0  0  0  0
 23 18  1  0  0  0  0
 24 25  1  0  0  0  0
 25  2  1  0  0  0  0
 26 29  2  0  0  0  0
 27 26  1  0  0  0  0
 28 25  1  0  0  0  0
 29 28  1  0  0  0  0
 30 28  1  0  0  0  0
 31 33  1  6  0  0  0
 31 26  1  0  0  0  0
 32 27  2  0  0  0  0
 33 30  2  0  0  0  0
 34 36  1  0  0  0  0
 35 31  1  0  0  0  0
 36 35  2  0  0  0  0
 36 32  1  0  0  0  0
M  END
>  <MODEL>
8

>  <REMARK>
 VINA RESULT:      -9.0      2.302      7.076
  Name = 
  7 active torsions:
  status: ('A' for Active; 'I' for Inactive)
    1  A    between atoms: C_2  and  C_12
    2  A    between atoms: N_4  and  N_29
    3  A    between atoms: C_5  and  N_16
    4  A    between atoms: C_5  and  C_20
    5  A    between atoms: C_6  and  N_24
    6  A    between atoms: C_7  and  N_29
    7  A    between atoms: C_12  and  C_20
                            x       y       z     vdW  Elec       q    Type
                         _______ _______ _______ _____ _____    ______ ____

>  <TORSDO>
F 7

$$$$
=
 OpenBabel10232407433D

 36 39  0  0  1  0  0  0  0  0999 V2000
  186.5090  178.3290  146.2620 C   0  0  1  0  0  3  0  0  0  0  0  0
  189.3630  177.6640  145.1950 C   0  0  0  0  0  0  0  0  0  0  0  0
  189.0300  178.3840  148.7390 O   0  0  0  0  0  0  0  0  0  0  0  0
  187.1040  177.7760  147.5310 C   0  0  0  0  0  2  0  0  0  0  0  0
  186.7910  177.3200  145.1780 C   0  0  0  0  0  2  0  0  0  0  0  0
  188.5720  178.0410  147.6190 C   0  0  0  0  0  0  0  0  0  0  0  0
  189.5390  177.8590  146.5150 C   0  0  0  0  0  3  0  0  0  0  0  0
  188.0760  177.5940  144.5600 N   0  0  0  0  0  2  0  0  0  0  0  0
  184.8200  179.2280  144.0740 N   0  0  0  0  0  2  0  0  0  0  0  0
  184.2350  178.8520  145.3230 C   0  0  0  0  0  0  0  0  0  0  0  0
  185.0710  178.4770  146.4200 N   0  0  0  0  0  2  0  0  0  0  0  0
  182.9850  178.8540  145.4670 O   0  0  0  0  0  0  0  0  0  0  0  0
  184.0290  179.4780  142.8800 C   0  0  0  0  0  2  0  0  0  0  0  0
  185.9610  179.7080  141.5340 F   0  0  0  0  0  0  0  0  0  0  0  0
  185.0800  177.6500  141.7590 F   0  0  0  0  0  0  0  0  0  0  0  0
  184.7800  178.9980  141.6440 C   0  0  0  0  0  0  0  0  0  0  0  0
  183.9460  179.2470  140.3890 C   0  0  0  0  0  2  0  0  0  0  0  0
  183.6860  177.9970  139.6030 C   0  0  0  0  0  0  0  0  0  0  0  0
  182.7520  175.9470  137.9330 C   0  0  0  0  0  2  0  0  0  0  0  0
  184.3680  177.7700  138.4670 C   0  0  0  0  0  3  0  0  0  0  0  0
  184.1220  176.5460  137.6270 C   0  0  0  0  0  2  0  0  0  0  0  0
  182.6050  175.7960  139.3790 N   0  0  0  0  0  2  0  0  0  0  0  0
  182.5090  177.1290  139.9770 C   0  0  0  0  0  2  0  0  0  0  0  0
  191.7540  177.4430  144.9610 O   0  0  0  0  0  1  0  0  0  0  0  0
  190.5390  177.5640  144.3680 N   0  0  0  0  0  0  0  0  0  0  0  0
  189.1300  177.6530  140.9600 C   0  0  0  0  0  0  0  0  0  0  0  0
  187.9030  177.9970  140.2370 C   0  0  0  0  0  3  0  0  0  0  0  0
  190.4550  177.5090  142.9610 N   0  0  0  0  0  0  0  0  0  0  0  0
  189.2110  177.7750  142.2850 C   0  0  0  0  0  3  0  0  0  0  0  0
  191.6650  177.4350  142.1820 C   0  0  0  0  0  3  0  0  0  0  0  0
  190.2870  177.0830  140.1750 C   0  0  2  0  0  3  0  0  0  0  0  0
  187.9510  178.1460  138.9110 C   0  0  0  0  0  3  0  0  0  0  0  0
  191.6110  177.2840  140.8560 C   0  0  0  0  0  3  0  0  0  0  0  0
  189.3120  178.4120  136.7610 C   0  0  0  0  0  1  0  0  0  0  0  0
  190.3040  177.5770  138.7950 N   0  0  0  0  0  0  0  0  0  0  0  0
  189.2320  177.9970  138.1850 C   0  0  0  0  0  0  0  0  0  0  0  0
  1 11  1  1  0  0  0
  1  4  1  0  0  0  0
  2  7  2  0  0  0  0
  4  6  1  0  0  0  0
  5  1  1  0  0  0  0
  6  3  2  0  0  0  0
  7  6  1  0  0  0  0
  8  5  1  0  0  0  0
  8  2  1  0  0  0  0
  9 10  1  0  0  0  0
 10 12  2  0  0  0  0
 10 11  1  0  0  0  0
 13  9  1  0  0  0  0
 14 16  1  0  0  0  0
 16 15  1  0  0  0  0
 16 13  1  0  0  0  0
 17 16  1  0  0  0  0
 18 23  1  0  0  0  0
 18 17  1  0  0  0  0
 19 22  1  0  0  0  0
 20 18  2  0  0  0  0
 21 19  1  0  0  0  0
 21 20  1  0  0  0  0
 22 23  1  0  0  0  0
 25 24  1  0  0  0  0
 25  2  1  0  0  0  0
 26 29  2  0  0  0  0
 27 26  1  0  0  0  0
 28 25  1  0  0  0  0
 29 28  1  0  0  0  0
 30 28  1  0  0  0  0
 31 33  1  1  0  0  0
 31 26  1  0  0  0  0
 32 27  2  0  0  0  0
 33 30  2  0  0  0  0
 34 36  1  0  0  0  0
 35 31  1  0  0  0  0
 36 35  2  0  0  0  0
 36 32  1  0  0  0  0
M  END
>  <MODEL>
9

>  <REMARK>
 VINA RESULT:      -8.9      2.297      5.820
  Name = 
  7 active torsions:
  status: ('A' for Active; 'I' for Inactive)
    1  A    between atoms: C_2  and  C_12
    2  A    between atoms: N_4  and  N_29
    3  A    between atoms: C_5  and  N_16
    4  A    between atoms: C_5  and  C_20
    5  A    between atoms: C_6  and  N_24
    6  A    between atoms: C_7  and  N_29
    7  A    between atoms: C_12  and  C_20
                            x       y       z     vdW  Elec       q    Type
                         _______ _______ _______ _____ _____    ______ ____

>  <TORSDO>
F 7

$$$$
