=
 OpenBabel10232408073D

 38 40  0  0  1  0  0  0  0  0999 V2000
  188.3260  177.0040  137.0390 C   0  0  2  0  0  3  0  0  0  0  0  0
  189.2850  178.5620  139.2440 O   0  0  0  0  0  0  0  0  0  0  0  0
  189.1710  176.5180  138.1210 N   0  0  0  0  0  2  0  0  0  0  0  0
  189.6080  177.3440  139.2010 C   0  0  0  0  0  0  0  0  0  0  0  0
  190.5000  176.7560  140.2480 C   0  0  1  0  0  3  0  0  0  0  0  0
  192.3000  177.8260  140.7360 O   0  0  0  0  0  1  0  0  0  0  0  0
  191.8430  176.9200  139.8960 O   0  0  0  0  0  0  0  0  0  0  0  0
  190.2160  177.3090  141.6480 C   0  0  0  0  0  2  0  0  0  0  0  0
  189.8480  176.2150  142.6470 C   0  0  0  0  0  2  0  0  0  0  0  0
  190.7910  176.2470  143.8090 C   0  0  0  0  0  0  0  0  0  0  0  0
  189.5100  177.7450  147.5540 N   0  0  0  0  0  2  0  0  0  0  0  0
  190.5670  176.7380  147.4730 C   0  0  0  0  0  2  0  0  0  0  0  0
  190.4130  176.8770  145.0430 N   0  0  0  0  0  0  0  0  0  0  0  0
  191.9140  175.6850  143.7030 O   0  0  0  0  0  0  0  0  0  0  0  0
  188.5430  177.4840  146.4880 C   0  0  0  0  0  2  0  0  0  0  0  0
  189.2000  177.6890  145.1260 C   0  0  0  0  0  2  0  0  0  0  0  0
  191.3440  176.9020  146.1690 C   0  0  0  0  0  2  0  0  0  0  0  0
  186.8780  176.6370  137.3280 C   0  0  0  0  0  2  0  0  0  0  0  0
  186.6890  179.0150  137.1910 O   0  0  0  0  0  1  0  0  0  0  0  0
  186.0490  177.8680  137.6620 C   0  0  1  0  0  3  0  0  0  0  0  0
  184.7950  177.7580  137.0600 O   0  0  0  0  0  0  0  0  0  0  0  0
  183.9060  177.5630  138.1200 C   0  0  0  0  0  2  0  0  0  0  0  0
  183.4280  178.9020  138.6590 C   0  0  0  0  0  2  0  0  0  0  0  0
  183.6210  178.8310  142.2840 C   0  0  0  0  0  0  0  0  0  0  0  0
  180.9840  178.5810  140.2490 O   0  0  0  0  0  0  0  0  0  0  0  0
  185.5440  178.2160  143.6800 C   0  0  0  0  0  3  0  0  0  0  0  0
  183.4290  178.8270  144.7670 C   0  0  0  0  0  1  0  0  0  0  0  0
  186.6060  178.8770  141.5480 C   0  0  0  0  0  3  0  0  0  0  0  0
  186.5060  178.1850  142.8060 N   0  0  0  0  0  0  0  0  0  0  0  0
  184.3310  179.0790  143.5710 C   0  0  2  0  0  3  0  0  0  0  0  0
  185.5950  179.1790  140.7820 N   0  0  0  0  0  0  0  0  0  0  0  0
  182.1140  178.6910  140.7970 C   0  0  0  0  0  0  0  0  0  0  0  0
  182.2830  178.6980  142.1380 N   0  0  0  0  0  2  0  0  0  0  0  0
  183.2610  178.8420  140.1070 N   0  0  0  0  0  0  0  0  0  0  0  0
  184.2130  178.9210  141.0490 C   0  0  0  0  0  0  0  0  0  0  0  0
  188.7810  176.4240  135.7010 C   0  0  0  0  0  2  0  0  0  0  0  0
  188.4840  174.2990  135.1880 C   0  0  0  0  0  1  0  0  0  0  0  0
  189.3420  175.1550  135.8760 O   0  0  0  0  0  0  0  0  0  0  0  0
  1 36  1  6  0  0  0
  1 18  1  0  0  0  0
  1  3  1  0  0  0  0
  3  4  1  0  0  0  0
  4  2  2  0  0  0  0
  4  5  1  0  0  0  0
  5  8  1  1  0  0  0
  7  5  1  0  0  0  0
  7  6  1  0  0  0  0
  8  9  1  0  0  0  0
  9 10  1  0  0  0  0
 10 13  1  0  0  0  0
 12 11  1  0  0  0  0
 13 16  1  0  0  0  0
 13 17  1  0  0  0  0
 14 10  2  0  0  0  0
 15 11  1  0  0  0  0
 16 15  1  0  0  0  0
 17 12  1  0  0  0  0
 18 20  1  0  0  0  0
 20 19  1  6  0  0  0
 21 20  1  0  0  0  0
 21 22  1  0  0  0  0
 22 23  1  0  0  0  0
 23 34  1  0  0  0  0
 24 30  1  0  0  0  0
 25 32  2  0  0  0  0
 28 29  1  0  0  0  0
 29 26  2  0  0  0  0
 30 26  1  0  0  0  0
 30 27  1  1  0  0  0
 31 35  1  0  0  0  0
 31 28  2  0  0  0  0
 32 33  1  0  0  0  0
 33 24  1  0  0  0  0
 34 32  1  0  0  0  0
 34 35  1  0  0  0  0
 35 24  2  0  0  0  0
 36 38  1  0  0  0  0
 37 38  1  0  0  0  0
M  END
>  <MODEL>
1

>  <REMARK>
 VINA RESULT:      -7.3      0.000      0.000
  Name = 
  14 active torsions:
  status: ('A' for Active; 'I' for Inactive)
    1  A    between atoms: C_1  and  C_14
    2  A    between atoms: C_1  and  N_37
    3  A    between atoms: C_2  and  C_5
    4  A    between atoms: C_2  and  N_18
    5  A    between atoms: C_2  and  C_36
    6  A    between atoms: C_5  and  C_21
    7  A    between atoms: C_6  and  C_31
    8  A    between atoms: C_14  and  O_30
    9  A    between atoms: C_16  and  C_25
   10  A    between atoms: C_16  and  C_31
   11  A    between atoms: C_21  and  O_30
   12  A    between atoms: C_25  and  O_29
   13  A    between atoms: C_25  and  C_32
   14  A    between atoms: O_28  and  C_36
                            x       y       z     vdW  Elec       q    Type
                         _______ _______ _______ _____ _____    ______ ____

>  <TORSDO>
F 14

$$$$
=
 OpenBabel10232408073D

 38 40  0  0  1  0  0  0  0  0999 V2000
  190.2040  177.5060  145.8380 C   0  0  2  0  0  3  0  0  0  0  0  0
  188.1480  178.4230  147.6090 O   0  0  0  0  0  0  0  0  0  0  0  0
  188.7740  177.4910  145.5620 N   0  0  0  0  0  2  0  0  0  0  0  0
  187.7960  177.9740  146.4850 C   0  0  0  0  0  0  0  0  0  0  0  0
  186.3480  177.8850  146.1190 C   0  0  1  0  0  3  0  0  0  0  0  0
  184.5360  178.4410  147.1310 O   0  0  0  0  0  1  0  0  0  0  0  0
  185.6420  178.9690  146.6490 O   0  0  0  0  0  0  0  0  0  0  0  0
  186.1250  177.7540  144.6090 C   0  0  0  0  0  2  0  0  0  0  0  0
  185.4710  178.9930  144.0020 C   0  0  0  0  0  2  0  0  0  0  0  0
  184.9540  178.6780  142.6340 C   0  0  0  0  0  0  0  0  0  0  0  0
  180.8020  178.8350  141.8330 N   0  0  0  0  0  2  0  0  0  0  0  0
  181.7780  179.0810  140.7730 C   0  0  0  0  0  2  0  0  0  0  0  0
  183.5430  178.5940  142.3840 N   0  0  0  0  0  0  0  0  0  0  0  0
  185.7750  178.5180  141.6900 O   0  0  0  0  0  0  0  0  0  0  0  0
  181.3380  179.3680  143.0850 C   0  0  0  0  0  2  0  0  0  0  0  0
  182.5870  178.5920  143.4900 C   0  0  0  0  0  2  0  0  0  0  0  0
  183.0520  178.2850  141.0430 C   0  0  0  0  0  2  0  0  0  0  0  0
  190.9600  177.0530  144.5970 C   0  0  0  0  0  2  0  0  0  0  0  0
  191.2430  179.3280  143.9230 O   0  0  0  0  0  1  0  0  0  0  0  0
  190.8400  178.0700  143.4720 C   0  0  1  0  0  3  0  0  0  0  0  0
  191.6510  177.6790  142.4070 O   0  0  0  0  0  0  0  0  0  0  0  0
  190.7840  177.0470  141.5120 C   0  0  0  0  0  2  0  0  0  0  0  0
  191.1270  177.4390  140.0830 C   0  0  0  0  0  2  0  0  0  0  0  0
  188.7280  176.1420  137.6860 C   0  0  0  0  0  0  0  0  0  0  0  0
  188.5770  178.8280  139.6650 O   0  0  0  0  0  0  0  0  0  0  0  0
  189.1650  174.7140  135.7370 C   0  0  0  0  0  3  0  0  0  0  0  0
  186.8670  175.4520  136.1820 C   0  0  0  0  0  1  0  0  0  0  0  0
  191.1110  174.2620  137.1930 C   0  0  0  0  0  3  0  0  0  0  0  0
  190.3950  174.3480  135.9480 N   0  0  0  0  0  0  0  0  0  0  0  0
  188.1900  175.0580  136.8150 C   0  0  2  0  0  3  0  0  0  0  0  0
  190.9100  175.0360  138.2230 N   0  0  0  0  0  0  0  0  0  0  0  0
  188.8680  177.7830  139.0240 C   0  0  0  0  0  0  0  0  0  0  0  0
  188.0320  177.2130  138.1280 N   0  0  0  0  0  2  0  0  0  0  0  0
  190.0250  177.1120  139.1840 N   0  0  0  0  0  0  0  0  0  0  0  0
  189.9390  176.0800  138.3310 C   0  0  0  0  0  0  0  0  0  0  0  0
  190.5280  176.6120  147.0340 C   0  0  0  0  0  2  0  0  0  0  0  0
  192.3960  175.7100  147.7840 C   0  0  0  0  0  1  0  0  0  0  0  0
  191.7740  176.9400  147.5750 O   0  0  0  0  0  0  0  0  0  0  0  0
  1 18  1  6  0  0  0
  1 36  1  0  0  0  0
  3  1  1  0  0  0  0
  3  4  1  0  0  0  0
  4  2  2  0  0  0  0
  5  8  1  6  0  0  0
  5  4  1  0  0  0  0
  5  7  1  0  0  0  0
  7  6  1  0  0  0  0
  9  8  1  0  0  0  0
 10  9  1  0  0  0  0
 11 15  1  0  0  0  0
 12 17  1  0  0  0  0
 12 11  1  0  0  0  0
 13 10  1  0  0  0  0
 13 16  1  0  0  0  0
 14 10  2  0  0  0  0
 15 16  1  0  0  0  0
 17 13  1  0  0  0  0
 20 19  1  1  0  0  0
 20 18  1  0  0  0  0
 21 20  1  0  0  0  0
 22 21  1  0  0  0  0
 23 22  1  0  0  0  0
 24 33  1  0  0  0  0
 24 35  2  0  0  0  0
 26 29  2  0  0  0  0
 26 30  1  0  0  0  0
 28 31  2  0  0  0  0
 29 28  1  0  0  0  0
 30 27  1  6  0  0  0
 30 24  1  0  0  0  0
 31 35  1  0  0  0  0
 32 34  1  0  0  0  0
 32 25  2  0  0  0  0
 33 32  1  0  0  0  0
 34 23  1  0  0  0  0
 35 34  1  0  0  0  0
 36 38  1  0  0  0  0
 38 37  1  0  0  0  0
M  END
>  <MODEL>
2

>  <REMARK>
 VINA RESULT:      -7.2      2.761      8.533
  Name = 
  14 active torsions:
  status: ('A' for Active; 'I' for Inactive)
    1  A    between atoms: C_1  and  C_14
    2  A    between atoms: C_1  and  N_37
    3  A    between atoms: C_2  and  C_5
    4  A    between atoms: C_2  and  N_18
    5  A    between atoms: C_2  and  C_36
    6  A    between atoms: C_5  and  C_21
    7  A    between atoms: C_6  and  C_31
    8  A    between atoms: C_14  and  O_30
    9  A    between atoms: C_16  and  C_25
   10  A    between atoms: C_16  and  C_31
   11  A    between atoms: C_21  and  O_30
   12  A    between atoms: C_25  and  O_29
   13  A    between atoms: C_25  and  C_32
   14  A    between atoms: O_28  and  C_36
                            x       y       z     vdW  Elec       q    Type
                         _______ _______ _______ _____ _____    ______ ____

>  <TORSDO>
F 14

$$$$
=
 OpenBabel10232408073D

 38 40  0  0  1  0  0  0  0  0999 V2000
  190.6230  176.6780  138.5410 C   0  0  2  0  0  3  0  0  0  0  0  0
  191.9320  177.6760  140.8860 O   0  0  0  0  0  0  0  0  0  0  0  0
  190.2340  176.3990  139.9170 N   0  0  0  0  0  2  0  0  0  0  0  0
  190.9230  176.9370  141.0470 C   0  0  0  0  0  0  0  0  0  0  0  0
  190.4620  176.5650  142.4210 C   0  0  1  0  0  3  0  0  0  0  0  0
  191.5220  177.5460  144.0120 O   0  0  0  0  0  1  0  0  0  0  0  0
  191.5520  176.4470  143.2870 O   0  0  0  0  0  0  0  0  0  0  0  0
  189.4070  177.5270  142.9730 C   0  0  0  0  0  2  0  0  0  0  0  0
  188.1540  176.8050  143.4650 C   0  0  0  0  0  2  0  0  0  0  0  0
  187.7820  177.3000  144.8270 C   0  0  0  0  0  0  0  0  0  0  0  0
  184.0020  179.0800  145.4910 N   0  0  0  0  0  2  0  0  0  0  0  0
  184.7030  178.3880  146.5720 C   0  0  0  0  0  2  0  0  0  0  0  0
  186.5620  178.0260  145.0360 N   0  0  0  0  0  0  0  0  0  0  0  0
  188.5400  177.0430  145.8010 O   0  0  0  0  0  0  0  0  0  0  0  0
  184.2830  178.3810  144.2380 C   0  0  0  0  0  2  0  0  0  0  0  0
  185.7670  178.4930  143.9010 C   0  0  0  0  0  2  0  0  0  0  0  0
  186.2120  178.5050  146.3710 C   0  0  0  0  0  2  0  0  0  0  0  0
  189.4350  177.2610  137.7910 C   0  0  0  0  0  2  0  0  0  0  0  0
  189.0660  179.5870  137.3830 O   0  0  0  0  0  1  0  0  0  0  0  0
  189.0170  178.6030  138.3720 C   0  0  1  0  0  3  0  0  0  0  0  0
  187.7150  178.5080  138.8650 O   0  0  0  0  0  0  0  0  0  0  0  0
  187.1170  177.5040  138.1000 C   0  0  0  0  0  2  0  0  0  0  0  0
  185.9390  178.0690  137.3200 C   0  0  0  0  0  2  0  0  0  0  0  0
  182.8470  177.2300  139.0260 C   0  0  0  0  0  0  0  0  0  0  0  0
  184.6670  180.0310  139.0910 O   0  0  0  0  0  0  0  0  0  0  0  0
  181.1640  175.5680  138.3690 C   0  0  0  0  0  3  0  0  0  0  0  0
  180.7830  176.9170  140.3840 C   0  0  0  0  0  1  0  0  0  0  0  0
  183.2040  174.7590  137.2330 C   0  0  0  0  0  3  0  0  0  0  0  0
  181.7880  174.9160  137.4330 N   0  0  0  0  0  0  0  0  0  0  0  0
  181.8350  176.2500  139.5150 C   0  0  2  0  0  3  0  0  0  0  0  0
  184.1050  175.6480  137.5480 N   0  0  0  0  0  0  0  0  0  0  0  0
  184.1600  178.8920  138.9000 C   0  0  0  0  0  0  0  0  0  0  0  0
  183.0250  178.4820  139.5070 N   0  0  0  0  0  2  0  0  0  0  0  0
  184.7100  177.9610  138.0970 N   0  0  0  0  0  0  0  0  0  0  0  0
  183.8730  176.9140  138.1710 C   0  0  0  0  0  0  0  0  0  0  0  0
  191.1300  175.4070  137.8600 C   0  0  0  0  0  2  0  0  0  0  0  0
  193.0930  176.4080  137.7600 C   0  0  0  0  0  1  0  0  0  0  0  0
  192.1790  175.6990  136.9830 O   0  0  0  0  0  0  0  0  0  0  0  0
  1 18  1  6  0  0  0
  1  3  1  0  0  0  0
  2  4  2  0  0  0  0
  3  4  1  0  0  0  0
  4  5  1  0  0  0  0
  5  8  1  1  0  0  0
  5  7  1  0  0  0  0
  7  6  1  0  0  0  0
  8  9  1  0  0  0  0
  9 10  1  0  0  0  0
 10 13  1  0  0  0  0
 10 14  2  0  0  0  0
 11 12  1  0  0  0  0
 13 17  1  0  0  0  0
 15 11  1  0  0  0  0
 16 15  1  0  0  0  0
 16 13  1  0  0  0  0
 17 12  1  0  0  0  0
 18 20  1  0  0  0  0
 20 19  1  6  0  0  0
 20 21  1  0  0  0  0
 22 21  1  0  0  0  0
 23 34  1  0  0  0  0
 23 22  1  0  0  0  0
 24 33  1  0  0  0  0
 24 30  1  0  0  0  0
 26 30  1  0  0  0  0
 28 29  1  0  0  0  0
 28 31  2  0  0  0  0
 29 26  2  0  0  0  0
 30 27  1  6  0  0  0
 31 35  1  0  0  0  0
 32 25  2  0  0  0  0
 32 33  1  0  0  0  0
 34 35  1  0  0  0  0
 34 32  1  0  0  0  0
 35 24  2  0  0  0  0
 36  1  1  0  0  0  0
 38 37  1  0  0  0  0
 38 36  1  0  0  0  0
M  END
>  <MODEL>
3

>  <REMARK>
 VINA RESULT:      -7.1      2.344      4.200
  Name = 
  14 active torsions:
  status: ('A' for Active; 'I' for Inactive)
    1  A    between atoms: C_1  and  C_14
    2  A    between atoms: C_1  and  N_37
    3  A    between atoms: C_2  and  C_5
    4  A    between atoms: C_2  and  N_18
    5  A    between atoms: C_2  and  C_36
    6  A    between atoms: C_5  and  C_21
    7  A    between atoms: C_6  and  C_31
    8  A    between atoms: C_14  and  O_30
    9  A    between atoms: C_16  and  C_25
   10  A    between atoms: C_16  and  C_31
   11  A    between atoms: C_21  and  O_30
   12  A    between atoms: C_25  and  O_29
   13  A    between atoms: C_25  and  C_32
   14  A    between atoms: O_28  and  C_36
                            x       y       z     vdW  Elec       q    Type
                         _______ _______ _______ _____ _____    ______ ____

>  <TORSDO>
F 14

$$$$
=
 OpenBabel10232408073D

 38 40  0  0  1  0  0  0  0  0999 V2000
  187.4900  177.3410  145.7010 C   0  0  2  0  0  3  0  0  0  0  0  0
  188.1600  176.0480  143.2340 O   0  0  0  0  0  0  0  0  0  0  0  0
  188.6430  177.6470  144.8660 N   0  0  0  0  0  2  0  0  0  0  0  0
  188.9180  176.9720  143.6370 C   0  0  0  0  0  0  0  0  0  0  0  0
  190.1470  177.3390  142.8670 C   0  0  1  0  0  3  0  0  0  0  0  0
  191.3450  175.7640  143.7060 O   0  0  0  0  0  1  0  0  0  0  0  0
  191.2930  177.0780  143.6220 O   0  0  0  0  0  0  0  0  0  0  0  0
  190.2110  176.6620  141.4950 C   0  0  0  0  0  2  0  0  0  0  0  0
  189.7400  177.5760  140.3660 C   0  0  0  0  0  2  0  0  0  0  0  0
  190.2370  177.0620  139.0520 C   0  0  0  0  0  0  0  0  0  0  0  0
  187.8240  177.3680  135.5900 N   0  0  0  0  0  2  0  0  0  0  0  0
  189.2820  177.3540  135.4860 C   0  0  0  0  0  2  0  0  0  0  0  0
  189.3780  177.0350  137.9020 N   0  0  0  0  0  0  0  0  0  0  0  0
  191.4350  176.6800  138.9560 O   0  0  0  0  0  0  0  0  0  0  0  0
  187.4560  178.0750  136.8170 C   0  0  0  0  0  2  0  0  0  0  0  0
  187.9450  177.2960  138.0340 C   0  0  0  0  0  2  0  0  0  0  0  0
  189.8770  176.5300  136.6250 C   0  0  0  0  0  2  0  0  0  0  0  0
  186.4410  178.4300  145.5290 C   0  0  0  0  0  2  0  0  0  0  0  0
  185.8820  179.8020  147.4030 O   0  0  0  0  0  1  0  0  0  0  0  0
  185.5930  178.5870  146.7820 C   0  0  1  0  0  3  0  0  0  0  0  0
  184.2430  178.5550  146.4330 O   0  0  0  0  0  0  0  0  0  0  0  0
  184.2360  178.4510  145.0400 C   0  0  0  0  0  2  0  0  0  0  0  0
  183.2740  179.4660  144.4420 C   0  0  0  0  0  2  0  0  0  0  0  0
  182.7780  178.3830  141.0120 C   0  0  0  0  0  0  0  0  0  0  0  0
  180.5600  178.9910  143.4350 O   0  0  0  0  0  0  0  0  0  0  0  0
  184.2720  178.7160  139.0940 C   0  0  0  0  0  3  0  0  0  0  0  0
  182.1320  177.5640  138.7510 C   0  0  0  0  0  1  0  0  0  0  0  0
  185.8090  178.8980  141.0220 C   0  0  0  0  0  3  0  0  0  0  0  0
  185.3590  179.1310  139.6750 N   0  0  0  0  0  0  0  0  0  0  0  0
  183.2690  177.8090  139.7270 C   0  0  2  0  0  3  0  0  0  0  0  0
  185.0250  178.7520  142.0540 N   0  0  0  0  0  0  0  0  0  0  0  0
  181.5710  178.8330  142.6990 C   0  0  0  0  0  0  0  0  0  0  0  0
  181.4880  178.4110  141.4180 N   0  0  0  0  0  2  0  0  0  0  0  0
  182.8340  179.0370  143.1190 N   0  0  0  0  0  0  0  0  0  0  0  0
  183.5950  178.7610  142.0490 C   0  0  0  0  0  0  0  0  0  0  0  0
  187.9080  177.2110  147.1650 C   0  0  0  0  0  2  0  0  0  0  0  0
  188.9740  178.3550  148.7210 C   0  0  0  0  0  1  0  0  0  0  0  0
  189.0950  177.9100  147.4060 O   0  0  0  0  0  0  0  0  0  0  0  0
  1 18  1  1  0  0  0
  1 36  1  0  0  0  0
  2  4  2  0  0  0  0
  3  1  1  0  0  0  0
  4  3  1  0  0  0  0
  5  8  1  6  0  0  0
  5  7  1  0  0  0  0
  5  4  1  0  0  0  0
  7  6  1  0  0  0  0
  9  8  1  0  0  0  0
 10  9  1  0  0  0  0
 11 15  1  0  0  0  0
 12 11  1  0  0  0  0
 12 17  1  0  0  0  0
 13 16  1  0  0  0  0
 13 10  1  0  0  0  0
 14 10  2  0  0  0  0
 15 16  1  0  0  0  0
 17 13  1  0  0  0  0
 18 20  1  0  0  0  0
 20 19  1  6  0  0  0
 21 20  1  0  0  0  0
 22 21  1  0  0  0  0
 23 22  1  0  0  0  0
 24 33  1  0  0  0  0
 24 35  2  0  0  0  0
 26 29  2  0  0  0  0
 26 30  1  0  0  0  0
 28 31  2  0  0  0  0
 29 28  1  0  0  0  0
 30 27  1  6  0  0  0
 30 24  1  0  0  0  0
 32 34  1  0  0  0  0
 32 25  2  0  0  0  0
 33 32  1  0  0  0  0
 34 23  1  0  0  0  0
 35 31  1  0  0  0  0
 35 34  1  0  0  0  0
 36 38  1  0  0  0  0
 38 37  1  0  0  0  0
M  END
>  <MODEL>
4

>  <REMARK>
 VINA RESULT:      -7.1      2.503      7.015
  Name = 
  14 active torsions:
  status: ('A' for Active; 'I' for Inactive)
    1  A    between atoms: C_1  and  C_14
    2  A    between atoms: C_1  and  N_37
    3  A    between atoms: C_2  and  C_5
    4  A    between atoms: C_2  and  N_18
    5  A    between atoms: C_2  and  C_36
    6  A    between atoms: C_5  and  C_21
    7  A    between atoms: C_6  and  C_31
    8  A    between atoms: C_14  and  O_30
    9  A    between atoms: C_16  and  C_25
   10  A    between atoms: C_16  and  C_31
   11  A    between atoms: C_21  and  O_30
   12  A    between atoms: C_25  and  O_29
   13  A    between atoms: C_25  and  C_32
   14  A    between atoms: O_28  and  C_36
                            x       y       z     vdW  Elec       q    Type
                         _______ _______ _______ _____ _____    ______ ____

>  <TORSDO>
F 14

$$$$
=
 OpenBabel10232408073D

 38 40  0  0  1  0  0  0  0  0999 V2000
  188.8390  177.6730  145.5530 C   0  0  2  0  0  3  0  0  0  0  0  0
  186.6220  178.9000  146.8890 O   0  0  0  0  0  0  0  0  0  0  0  0
  187.4720  177.7330  145.0540 N   0  0  0  0  0  2  0  0  0  0  0  0
  186.4090  178.3710  145.7650 C   0  0  0  0  0  0  0  0  0  0  0  0
  185.0320  178.3510  145.1800 C   0  0  1  0  0  3  0  0  0  0  0  0
  183.0910  179.2530  145.3730 O   0  0  0  0  0  1  0  0  0  0  0  0
  184.1010  178.8310  146.1050 O   0  0  0  0  0  0  0  0  0  0  0  0
  184.9420  179.1040  143.8500 C   0  0  0  0  0  2  0  0  0  0  0  0
  184.7220  178.1710  142.6610 C   0  0  0  0  0  2  0  0  0  0  0  0
  184.8220  178.9420  141.3830 C   0  0  0  0  0  0  0  0  0  0  0  0
  181.5740  179.0070  138.6710 N   0  0  0  0  0  2  0  0  0  0  0  0
  182.5150  180.1250  138.7390 C   0  0  0  0  0  2  0  0  0  0  0  0
  183.7840  178.8610  140.3950 N   0  0  0  0  0  0  0  0  0  0  0  0
  185.8180  179.6910  141.1950 O   0  0  0  0  0  0  0  0  0  0  0  0
  181.4060  178.4660  140.0190 C   0  0  0  0  0  2  0  0  0  0  0  0
  182.7200  177.8650  140.5080 C   0  0  0  0  0  2  0  0  0  0  0  0
  183.8950  179.6180  139.1500 C   0  0  0  0  0  2  0  0  0  0  0  0
  189.7290  177.0220  144.5040 C   0  0  0  0  0  2  0  0  0  0  0  0
  190.9890  178.4490  143.0590 O   0  0  0  0  0  1  0  0  0  0  0  0
  189.7480  177.8300  143.2150 C   0  0  1  0  0  3  0  0  0  0  0  0
  189.5150  176.9810  142.1330 O   0  0  0  0  0  0  0  0  0  0  0  0
  188.4570  177.5700  141.4380 C   0  0  0  0  0  2  0  0  0  0  0  0
  188.9720  178.2650  140.1860 C   0  0  0  0  0  2  0  0  0  0  0  0
  190.7640  175.9190  138.0730 C   0  0  0  0  0  0  0  0  0  0  0  0
  187.5380  176.7850  138.0990 O   0  0  0  0  0  0  0  0  0  0  0  0
  193.1590  175.8970  137.5360 C   0  0  0  0  0  3  0  0  0  0  0  0
  191.6980  174.1970  136.5350 C   0  0  0  0  0  1  0  0  0  0  0  0
  193.0870  177.1510  139.6650 C   0  0  0  0  0  3  0  0  0  0  0  0
  193.6290  176.7560  138.3920 N   0  0  0  0  0  0  0  0  0  0  0  0
  191.9420  175.0610  137.7600 C   0  0  2  0  0  3  0  0  0  0  0  0
  191.8150  177.1990  139.9510 N   0  0  0  0  0  0  0  0  0  0  0  0
  188.7750  176.6310  138.2810 C   0  0  0  0  0  0  0  0  0  0  0  0
  189.5220  175.7650  137.5600 N   0  0  0  0  0  2  0  0  0  0  0  0
  189.4740  177.2870  139.2270 N   0  0  0  0  0  0  0  0  0  0  0  0
  190.7320  176.8420  139.0880 C   0  0  0  0  0  0  0  0  0  0  0  0
  188.8940  176.9020  146.8710 C   0  0  0  0  0  2  0  0  0  0  0  0
  190.9940  176.8350  147.5440 C   0  0  0  0  0  1  0  0  0  0  0  0
  189.7900  177.5020  147.7600 O   0  0  0  0  0  0  0  0  0  0  0  0
  1 18  1  6  0  0  0
  1 36  1  0  0  0  0
  3  1  1  0  0  0  0
  3  4  1  0  0  0  0
  4  2  2  0  0  0  0
  5  8  1  6  0  0  0
  5  4  1  0  0  0  0
  5  7  1  0  0  0  0
  6  7  1  0  0  0  0
  9  8  1  0  0  0  0
 10  9  1  0  0  0  0
 11 12  1  0  0  0  0
 11 15  1  0  0  0  0
 12 17  1  0  0  0  0
 13 16  1  0  0  0  0
 13 10  1  0  0  0  0
 14 10  2  0  0  0  0
 15 16  1  0  0  0  0
 17 13  1  0  0  0  0
 20 19  1  6  0  0  0
 20 18  1  0  0  0  0
 21 20  1  0  0  0  0
 22 21  1  0  0  0  0
 23 22  1  0  0  0  0
 24 35  2  0  0  0  0
 25 32  2  0  0  0  0
 26 30  1  0  0  0  0
 26 29  2  0  0  0  0
 28 31  2  0  0  0  0
 29 28  1  0  0  0  0
 30 27  1  6  0  0  0
 30 24  1  0  0  0  0
 32 34  1  0  0  0  0
 33 24  1  0  0  0  0
 33 32  1  0  0  0  0
 34 23  1  0  0  0  0
 35 34  1  0  0  0  0
 35 31  1  0  0  0  0
 36 38  1  0  0  0  0
 37 38  1  0  0  0  0
M  END
>  <MODEL>
5

>  <REMARK>
 VINA RESULT:      -7.0      2.876      8.764
  Name = 
  14 active torsions:
  status: ('A' for Active; 'I' for Inactive)
    1  A    between atoms: C_1  and  C_14
    2  A    between atoms: C_1  and  N_37
    3  A    between atoms: C_2  and  C_5
    4  A    between atoms: C_2  and  N_18
    5  A    between atoms: C_2  and  C_36
    6  A    between atoms: C_5  and  C_21
    7  A    between atoms: C_6  and  C_31
    8  A    between atoms: C_14  and  O_30
    9  A    between atoms: C_16  and  C_25
   10  A    between atoms: C_16  and  C_31
   11  A    between atoms: C_21  and  O_30
   12  A    between atoms: C_25  and  O_29
   13  A    between atoms: C_25  and  C_32
   14  A    between atoms: O_28  and  C_36
                            x       y       z     vdW  Elec       q    Type
                         _______ _______ _______ _____ _____    ______ ____

>  <TORSDO>
F 14

$$$$
=
 OpenBabel10232408073D

 38 40  0  0  1  0  0  0  0  0999 V2000
  190.9670  176.8670  138.4630 C   0  0  2  0  0  3  0  0  0  0  0  0
  192.0560  177.6770  140.9860 O   0  0  0  0  0  0  0  0  0  0  0  0
  190.3880  176.5860  139.7700 N   0  0  0  0  0  2  0  0  0  0  0  0
  190.9750  177.0280  140.9950 C   0  0  0  0  0  0  0  0  0  0  0  0
  190.3180  176.6610  142.2880 C   0  0  1  0  0  3  0  0  0  0  0  0
  191.5470  175.6050  143.7010 O   0  0  0  0  0  1  0  0  0  0  0  0
  191.2060  176.8300  143.3540 O   0  0  0  0  0  0  0  0  0  0  0  0
  189.0080  177.4180  142.5230 C   0  0  0  0  0  2  0  0  0  0  0  0
  187.9670  176.5750  143.2560 C   0  0  0  0  0  2  0  0  0  0  0  0
  187.7340  177.1300  144.6260 C   0  0  0  0  0  0  0  0  0  0  0  0
  184.0820  179.0560  145.5540 N   0  0  0  0  0  2  0  0  0  0  0  0
  184.8570  178.3810  146.5940 C   0  0  0  0  0  2  0  0  0  0  0  0
  186.5590  177.9040  144.9140 N   0  0  0  0  0  0  0  0  0  0  0  0
  188.5680  176.8840  145.5380 O   0  0  0  0  0  0  0  0  0  0  0  0
  184.2290  178.3030  144.3090 C   0  0  0  0  0  2  0  0  0  0  0  0
  185.6790  178.3550  143.8370 C   0  0  0  0  0  2  0  0  0  0  0  0
  186.3440  178.4410  146.2550 C   0  0  0  0  0  2  0  0  0  0  0  0
  189.8760  177.3630  137.5260 C   0  0  0  0  0  2  0  0  0  0  0  0
  189.0990  179.6120  137.3130 O   0  0  0  0  0  1  0  0  0  0  0  0
  189.0810  178.4980  138.1530 C   0  0  1  0  0  3  0  0  0  0  0  0
  187.7620  178.0860  138.3470 O   0  0  0  0  0  0  0  0  0  0  0  0
  187.5390  177.1260  137.3570 C   0  0  0  0  0  2  0  0  0  0  0  0
  186.2660  177.4470  136.5900 C   0  0  0  0  0  2  0  0  0  0  0  0
  183.3320  176.6760  138.5840 C   0  0  0  0  0  0  0  0  0  0  0  0
  185.0160  174.8000  136.3920 O   0  0  0  0  0  0  0  0  0  0  0  0
  182.6260  177.7150  140.6930 C   0  0  0  0  0  3  0  0  0  0  0  0
  181.2800  175.8880  139.7550 C   0  0  0  0  0  1  0  0  0  0  0  0
  184.0600  179.4540  139.6800 C   0  0  0  0  0  3  0  0  0  0  0  0
  183.4100  178.7490  140.7540 N   0  0  0  0  0  0  0  0  0  0  0  0
  182.1670  177.0760  139.4230 C   0  0  2  0  0  3  0  0  0  0  0  0
  184.4690  178.9070  138.5690 N   0  0  0  0  0  0  0  0  0  0  0  0
  184.5600  175.6870  137.1640 C   0  0  0  0  0  0  0  0  0  0  0  0
  183.4600  175.5000  137.9280 N   0  0  0  0  0  2  0  0  0  0  0  0
  185.0990  176.9140  137.2850 N   0  0  0  0  0  0  0  0  0  0  0  0
  184.3270  177.5350  138.1900 C   0  0  0  0  0  0  0  0  0  0  0  0
  191.6480  175.6200  137.9000 C   0  0  0  0  0  2  0  0  0  0  0  0
  190.4930  174.0570  136.8570 C   0  0  0  0  0  1  0  0  0  0  0  0
  190.8680  174.4830  138.1290 O   0  0  0  0  0  0  0  0  0  0  0  0
  1 18  1  6  0  0  0
  1  3  1  0  0  0  0
  2  4  2  0  0  0  0
  3  4  1  0  0  0  0
  4  5  1  0  0  0  0
  5  8  1  1  0  0  0
  5  7  1  0  0  0  0
  7  6  1  0  0  0  0
  8  9  1  0  0  0  0
  9 10  1  0  0  0  0
 10 13  1  0  0  0  0
 10 14  2  0  0  0  0
 11 12  1  0  0  0  0
 13 17  1  0  0  0  0
 15 11  1  0  0  0  0
 16 15  1  0  0  0  0
 16 13  1  0  0  0  0
 17 12  1  0  0  0  0
 18 20  1  0  0  0  0
 20 19  1  6  0  0  0
 20 21  1  0  0  0  0
 22 21  1  0  0  0  0
 23 34  1  0  0  0  0
 23 22  1  0  0  0  0
 24 30  1  0  0  0  0
 25 32  2  0  0  0  0
 26 29  2  0  0  0  0
 28 29  1  0  0  0  0
 30 27  1  1  0  0  0
 30 26  1  0  0  0  0
 31 28  2  0  0  0  0
 32 34  1  0  0  0  0
 32 33  1  0  0  0  0
 33 24  1  0  0  0  0
 34 35  1  0  0  0  0
 35 31  1  0  0  0  0
 35 24  2  0  0  0  0
 36 38  1  0  0  0  0
 36  1  1  0  0  0  0
 37 38  1  0  0  0  0
M  END
>  <MODEL>
6

>  <REMARK>
 VINA RESULT:      -7.0      2.293      3.971
  Name = 
  14 active torsions:
  status: ('A' for Active; 'I' for Inactive)
    1  A    between atoms: C_1  and  C_14
    2  A    between atoms: C_1  and  N_37
    3  A    between atoms: C_2  and  C_5
    4  A    between atoms: C_2  and  N_18
    5  A    between atoms: C_2  and  C_36
    6  A    between atoms: C_5  and  C_21
    7  A    between atoms: C_6  and  C_31
    8  A    between atoms: C_14  and  O_30
    9  A    between atoms: C_16  and  C_25
   10  A    between atoms: C_16  and  C_31
   11  A    between atoms: C_21  and  O_30
   12  A    between atoms: C_25  and  O_29
   13  A    between atoms: C_25  and  C_32
   14  A    between atoms: O_28  and  C_36
                            x       y       z     vdW  Elec       q    Type
                         _______ _______ _______ _____ _____    ______ ____

>  <TORSDO>
F 14

$$$$
=
 OpenBabel10232408073D

 38 40  0  0  1  0  0  0  0  0999 V2000
  188.5280  178.2940  139.5820 C   0  0  2  0  0  3  0  0  0  0  0  0
  187.9110  179.1560  136.9210 O   0  0  0  0  0  0  0  0  0  0  0  0
  188.1500  177.4280  138.4730 N   0  0  0  0  0  2  0  0  0  0  0  0
  187.8650  177.9190  137.1620 C   0  0  0  0  0  0  0  0  0  0  0  0
  187.4550  176.9500  136.0980 C   0  0  1  0  0  3  0  0  0  0  0  0
  186.2900  177.6980  134.4540 O   0  0  0  0  0  1  0  0  0  0  0  0
  187.5410  177.5440  134.8360 O   0  0  0  0  0  0  0  0  0  0  0  0
  188.2420  175.6380  136.1570 C   0  0  0  0  0  2  0  0  0  0  0  0
  189.7120  175.8180  135.7880 C   0  0  0  0  0  2  0  0  0  0  0  0
  190.5650  174.9410  136.6500 C   0  0  0  0  0  0  0  0  0  0  0  0
  194.7560  175.5130  136.7860 N   0  0  0  0  0  2  0  0  0  0  0  0
  194.0400  174.9490  137.9300 C   0  0  0  0  0  2  0  0  0  0  0  0
  191.9970  175.0350  136.6010 N   0  0  0  0  0  0  0  0  0  0  0  0
  190.0100  174.1380  137.4470 O   0  0  0  0  0  0  0  0  0  0  0  0
  193.8920  176.5030  136.1460 C   0  0  0  0  0  2  0  0  0  0  0  0
  192.6600  175.8190  135.5610 C   0  0  0  0  0  2  0  0  0  0  0  0
  192.8180  174.1720  137.4480 C   0  0  0  0  0  2  0  0  0  0  0  0
  190.0340  178.2200  139.7870 C   0  0  0  0  0  2  0  0  0  0  0  0
  190.7580  175.9590  140.0530 O   0  0  0  0  0  1  0  0  0  0  0  0
  190.4080  177.1110  140.7580 C   0  0  1  0  0  3  0  0  0  0  0  0
  191.4900  177.5240  141.5370 O   0  0  0  0  0  0  0  0  0  0  0  0
  190.9310  177.8650  142.7710 C   0  0  0  0  0  2  0  0  0  0  0  0
  190.3690  176.6280  143.4540 C   0  0  0  0  0  2  0  0  0  0  0  0
  188.7660  177.4120  146.6160 C   0  0  0  0  0  0  0  0  0  0  0  0
  191.9870  176.9170  145.8840 O   0  0  0  0  0  0  0  0  0  0  0  0
  186.6110  178.5310  146.9770 C   0  0  0  0  0  3  0  0  0  0  0  0
  187.9480  177.8620  148.9240 C   0  0  0  0  0  1  0  0  0  0  0  0
  186.3790  177.6250  144.6900 C   0  0  0  0  0  3  0  0  0  0  0  0
  186.1050  178.5230  145.7800 N   0  0  0  0  0  0  0  0  0  0  0  0
  187.5670  177.5090  147.4970 C   0  0  2  0  0  3  0  0  0  0  0  0
  187.5290  177.0500  144.4680 N   0  0  0  0  0  0  0  0  0  0  0  0
  190.7350  177.0640  145.9070 C   0  0  0  0  0  0  0  0  0  0  0  0
  190.0480  177.3350  147.0380 N   0  0  0  0  0  2  0  0  0  0  0  0
  189.9540  176.9400  144.8170 N   0  0  0  0  0  0  0  0  0  0  0  0
  188.7100  177.1690  145.2660 C   0  0  0  0  0  0  0  0  0  0  0  0
  187.7820  177.8910  140.8540 C   0  0  0  0  0  2  0  0  0  0  0  0
  185.9300  179.0110  141.2760 C   0  0  0  0  0  1  0  0  0  0  0  0
  187.3010  179.0180  141.5260 O   0  0  0  0  0  0  0  0  0  0  0  0
  1 18  1  1  0  0  0
  1 36  1  0  0  0  0
  2  4  2  0  0  0  0
  3  1  1  0  0  0  0
  4  3  1  0  0  0  0
  5  8  1  6  0  0  0
  5  4  1  0  0  0  0
  6  7  1  0  0  0  0
  7  5  1  0  0  0  0
  9  8  1  0  0  0  0
  9 10  1  0  0  0  0
 10 14  2  0  0  0  0
 11 12  1  0  0  0  0
 13 10  1  0  0  0  0
 13 17  1  0  0  0  0
 15 11  1  0  0  0  0
 16 15  1  0  0  0  0
 16 13  1  0  0  0  0
 17 12  1  0  0  0  0
 18 20  1  0  0  0  0
 20 19  1  6  0  0  0
 20 21  1  0  0  0  0
 21 22  1  0  0  0  0
 22 23  1  0  0  0  0
 23 34  1  0  0  0  0
 24 33  1  0  0  0  0
 24 30  1  0  0  0  0
 25 32  2  0  0  0  0
 26 30  1  0  0  0  0
 28 29  1  0  0  0  0
 29 26  2  0  0  0  0
 30 27  1  1  0  0  0
 31 28  2  0  0  0  0
 31 35  1  0  0  0  0
 32 33  1  0  0  0  0
 34 35  1  0  0  0  0
 34 32  1  0  0  0  0
 35 24  2  0  0  0  0
 36 38  1  0  0  0  0
 37 38  1  0  0  0  0
M  END
>  <MODEL>
7

>  <REMARK>
 VINA RESULT:      -7.0      2.541      7.401
  Name = 
  14 active torsions:
  status: ('A' for Active; 'I' for Inactive)
    1  A    between atoms: C_1  and  C_14
    2  A    between atoms: C_1  and  N_37
    3  A    between atoms: C_2  and  C_5
    4  A    between atoms: C_2  and  N_18
    5  A    between atoms: C_2  and  C_36
    6  A    between atoms: C_5  and  C_21
    7  A    between atoms: C_6  and  C_31
    8  A    between atoms: C_14  and  O_30
    9  A    between atoms: C_16  and  C_25
   10  A    between atoms: C_16  and  C_31
   11  A    between atoms: C_21  and  O_30
   12  A    between atoms: C_25  and  O_29
   13  A    between atoms: C_25  and  C_32
   14  A    between atoms: O_28  and  C_36
                            x       y       z     vdW  Elec       q    Type
                         _______ _______ _______ _____ _____    ______ ____

>  <TORSDO>
F 14

$$$$
=
 OpenBabel10232408073D

 38 40  0  0  1  0  0  0  0  0999 V2000
  190.1290  177.5030  145.9970 C   0  0  2  0  0  3  0  0  0  0  0  0
  188.1560  178.6280  144.2510 O   0  0  0  0  0  0  0  0  0  0  0  0
  188.6860  177.4200  146.1780 N   0  0  0  0  0  2  0  0  0  0  0  0
  187.7510  177.9940  145.2630 C   0  0  0  0  0  0  0  0  0  0  0  0
  186.2880  177.8800  145.5550 C   0  0  1  0  0  3  0  0  0  0  0  0
  185.2200  178.9820  147.0600 O   0  0  0  0  0  1  0  0  0  0  0  0
  186.0540  177.9710  146.9300 O   0  0  0  0  0  0  0  0  0  0  0  0
  185.4470  178.8930  144.7740 C   0  0  0  0  0  2  0  0  0  0  0  0
  184.6680  178.2510  143.6280 C   0  0  0  0  0  2  0  0  0  0  0  0
  183.2250  178.6360  143.7130 C   0  0  0  0  0  0  0  0  0  0  0  0
  180.8190  178.6770  140.2320 N   0  0  0  0  0  2  0  0  0  0  0  0
  180.2280  178.4300  141.5470 C   0  0  0  0  0  2  0  0  0  0  0  0
  182.4350  178.7860  142.5240 N   0  0  0  0  0  0  0  0  0  0  0  0
  182.6990  178.7970  144.8470 O   0  0  0  0  0  0  0  0  0  0  0  0
  182.1530  178.0770  140.2070 C   0  0  0  0  0  2  0  0  0  0  0  0
  183.0630  178.7870  141.2040 C   0  0  0  0  0  2  0  0  0  0  0  0
  181.0260  179.1640  142.6220 C   0  0  0  0  0  2  0  0  0  0  0  0
  190.5100  176.8380  144.6830 C   0  0  0  0  0  2  0  0  0  0  0  0
  191.9440  178.7250  144.3810 O   0  0  0  0  0  1  0  0  0  0  0  0
  191.1030  177.8410  143.7050 C   0  0  1  0  0  3  0  0  0  0  0  0
  191.8340  177.1600  142.7320 O   0  0  0  0  0  0  0  0  0  0  0  0
  191.2410  177.5250  141.5200 C   0  0  0  0  0  2  0  0  0  0  0  0
  190.1280  176.5510  141.1660 C   0  0  0  0  0  2  0  0  0  0  0  0
  188.5090  177.5150  138.0630 C   0  0  0  0  0  0  0  0  0  0  0  0
  191.1450  175.5360  138.6090 O   0  0  0  0  0  0  0  0  0  0  0  0
  186.1940  178.2630  137.7380 C   0  0  0  0  0  3  0  0  0  0  0  0
  187.6650  178.0600  135.7840 C   0  0  0  0  0  1  0  0  0  0  0  0
  186.6040  178.7720  140.1220 C   0  0  0  0  0  3  0  0  0  0  0  0
  185.8070  178.4660  138.9630 N   0  0  0  0  0  0  0  0  0  0  0  0
  187.6040  178.3910  137.2650 C   0  0  2  0  0  3  0  0  0  0  0  0
  187.8230  178.3530  140.3210 N   0  0  0  0  0  0  0  0  0  0  0  0
  190.1450  176.3030  138.6610 C   0  0  0  0  0  0  0  0  0  0  0  0
  189.4920  176.7340  137.5590 N   0  0  0  0  0  2  0  0  0  0  0  0
  189.6460  176.7940  139.8110 N   0  0  0  0  0  0  0  0  0  0  0  0
  188.6060  177.5520  139.4320 C   0  0  0  0  0  0  0  0  0  0  0  0
  190.8550  176.8500  147.1730 C   0  0  0  0  0  2  0  0  0  0  0  0
  192.6160  175.7090  147.8520 C   0  0  0  0  0  1  0  0  0  0  0  0
  192.1810  176.5610  146.8390 O   0  0  0  0  0  0  0  0  0  0  0  0
  1 18  1  6  0  0  0
  1  3  1  0  0  0  0
  1 36  1  0  0  0  0
  2  4  2  0  0  0  0
  4  5  1  0  0  0  0
  4  3  1  0  0  0  0
  5  8  1  6  0  0  0
  5  7  1  0  0  0  0
  7  6  1  0  0  0  0
  9 10  1  0  0  0  0
  9  8  1  0  0  0  0
 10 14  2  0  0  0  0
 11 12  1  0  0  0  0
 12 17  1  0  0  0  0
 13 17  1  0  0  0  0
 13 10  1  0  0  0  0
 15 11  1  0  0  0  0
 15 16  1  0  0  0  0
 16 13  1  0  0  0  0
 20 19  1  1  0  0  0
 20 18  1  0  0  0  0
 21 20  1  0  0  0  0
 22 21  1  0  0  0  0
 23 22  1  0  0  0  0
 24 35  2  0  0  0  0
 25 32  2  0  0  0  0
 26 29  2  0  0  0  0
 28 31  2  0  0  0  0
 29 28  1  0  0  0  0
 30 27  1  6  0  0  0
 30 26  1  0  0  0  0
 30 24  1  0  0  0  0
 32 34  1  0  0  0  0
 33 24  1  0  0  0  0
 33 32  1  0  0  0  0
 34 23  1  0  0  0  0
 35 34  1  0  0  0  0
 35 31  1  0  0  0  0
 38 36  1  0  0  0  0
 38 37  1  0  0  0  0
M  END
>  <MODEL>
8

>  <REMARK>
 VINA RESULT:      -6.9      2.600      8.460
  Name = 
  14 active torsions:
  status: ('A' for Active; 'I' for Inactive)
    1  A    between atoms: C_1  and  C_14
    2  A    between atoms: C_1  and  N_37
    3  A    between atoms: C_2  and  C_5
    4  A    between atoms: C_2  and  N_18
    5  A    between atoms: C_2  and  C_36
    6  A    between atoms: C_5  and  C_21
    7  A    between atoms: C_6  and  C_31
    8  A    between atoms: C_14  and  O_30
    9  A    between atoms: C_16  and  C_25
   10  A    between atoms: C_16  and  C_31
   11  A    between atoms: C_21  and  O_30
   12  A    between atoms: C_25  and  O_29
   13  A    between atoms: C_25  and  C_32
   14  A    between atoms: O_28  and  C_36
                            x       y       z     vdW  Elec       q    Type
                         _______ _______ _______ _____ _____    ______ ____

>  <TORSDO>
F 14

$$$$
=
 OpenBabel10232408073D

 38 40  0  0  1  0  0  0  0  0999 V2000
  191.3000  176.8100  140.0870 C   0  0  2  0  0  3  0  0  0  0  0  0
  190.0190  175.2080  138.0870 O   0  0  0  0  0  0  0  0  0  0  0  0
  190.3470  177.2890  139.0940 N   0  0  0  0  0  2  0  0  0  0  0  0
  189.7330  176.4340  138.1280 C   0  0  0  0  0  0  0  0  0  0  0  0
  188.7890  177.0300  137.1300 C   0  0  1  0  0  3  0  0  0  0  0  0
  188.6090  177.5670  135.0570 O   0  0  0  0  0  1  0  0  0  0  0  0
  189.1420  176.6470  135.8330 O   0  0  0  0  0  0  0  0  0  0  0  0
  187.3240  176.7040  137.4330 C   0  0  0  0  0  2  0  0  0  0  0  0
  186.4360  177.9460  137.4400 C   0  0  0  0  0  2  0  0  0  0  0  0
  186.2230  178.4130  138.8450 C   0  0  0  0  0  0  0  0  0  0  0  0
  182.3180  178.5930  140.4650 N   0  0  0  0  0  2  0  0  0  0  0  0
  183.4770  178.3790  141.3300 C   0  0  0  0  0  2  0  0  0  0  0  0
  184.8980  178.6080  139.3610 N   0  0  0  0  0  0  0  0  0  0  0  0
  187.2250  178.6030  139.5870 O   0  0  0  0  0  0  0  0  0  0  0  0
  182.5640  177.9180  139.1910 C   0  0  0  0  0  2  0  0  0  0  0  0
  183.7370  178.5740  138.4710 C   0  0  0  0  0  2  0  0  0  0  0  0
  184.7040  179.0660  140.7350 C   0  0  0  0  0  2  0  0  0  0  0  0
  190.6510  176.8420  141.4630 C   0  0  0  0  0  2  0  0  0  0  0  0
  190.6860  178.7250  142.9330 O   0  0  0  0  0  1  0  0  0  0  0  0
  191.4640  177.6770  142.4400 C   0  0  1  0  0  3  0  0  0  0  0  0
  191.8820  176.8730  143.5000 O   0  0  0  0  0  0  0  0  0  0  0  0
  191.5480  177.5940  144.6490 C   0  0  0  0  0  2  0  0  0  0  0  0
  190.9700  176.6630  145.7040 C   0  0  0  0  0  2  0  0  0  0  0  0
  187.5360  177.7010  146.2590 C   0  0  0  0  0  0  0  0  0  0  0  0
  190.1740  177.7580  148.3070 O   0  0  0  0  0  0  0  0  0  0  0  0
  185.8800  178.3930  144.5840 C   0  0  0  0  0  3  0  0  0  0  0  0
  185.2550  178.4160  146.9580 C   0  0  0  0  0  1  0  0  0  0  0  0
  187.4570  177.0250  143.2610 C   0  0  0  0  0  3  0  0  0  0  0  0
  186.4630  178.0430  143.4760 N   0  0  0  0  0  0  0  0  0  0  0  0
  186.0890  177.7170  145.8990 C   0  0  2  0  0  3  0  0  0  0  0  0
  188.3630  176.6720  144.1300 N   0  0  0  0  0  0  0  0  0  0  0  0
  189.3470  177.6410  147.3620 C   0  0  0  0  0  0  0  0  0  0  0  0
  188.0440  177.9790  147.4810 N   0  0  0  0  0  2  0  0  0  0  0  0
  189.6680  177.1430  146.1530 N   0  0  0  0  0  0  0  0  0  0  0  0
  188.5230  177.1900  145.4540 C   0  0  0  0  0  0  0  0  0  0  0  0
  192.5710  177.6580  140.0610 C   0  0  0  0  0  2  0  0  0  0  0  0
  193.3600  176.5420  138.3310 C   0  0  0  0  0  1  0  0  0  0  0  0
  193.6670  176.8980  139.6420 O   0  0  0  0  0  0  0  0  0  0  0  0
  1 36  1  1  0  0  0
  1 18  1  0  0  0  0
  2  4  2  0  0  0  0
  3  1  1  0  0  0  0
  4  3  1  0  0  0  0
  5  8  1  1  0  0  0
  5  4  1  0  0  0  0
  6  7  1  0  0  0  0
  7  5  1  0  0  0  0
  8  9  1  0  0  0  0
  9 10  1  0  0  0  0
 10 13  1  0  0  0  0
 10 14  2  0  0  0  0
 11 12  1  0  0  0  0
 13 17  1  0  0  0  0
 15 11  1  0  0  0  0
 16 15  1  0  0  0  0
 16 13  1  0  0  0  0
 17 12  1  0  0  0  0
 18 20  1  0  0  0  0
 20 19  1  1  0  0  0
 20 21  1  0  0  0  0
 21 22  1  0  0  0  0
 22 23  1  0  0  0  0
 23 34  1  0  0  0  0
 24 33  1  0  0  0  0
 26 30  1  0  0  0  0
 28 29  1  0  0  0  0
 28 31  2  0  0  0  0
 29 26  2  0  0  0  0
 30 24  1  0  0  0  0
 30 27  1  1  0  0  0
 31 35  1  0  0  0  0
 32 33  1  0  0  0  0
 32 25  2  0  0  0  0
 34 32  1  0  0  0  0
 35 34  1  0  0  0  0
 35 24  2  0  0  0  0
 37 38  1  0  0  0  0
 38 36  1  0  0  0  0
M  END
>  <MODEL>
9

>  <REMARK>
 VINA RESULT:      -6.9      1.894      6.974
  Name = 
  14 active torsions:
  status: ('A' for Active; 'I' for Inactive)
    1  A    between atoms: C_1  and  C_14
    2  A    between atoms: C_1  and  N_37
    3  A    between atoms: C_2  and  C_5
    4  A    between atoms: C_2  and  N_18
    5  A    between atoms: C_2  and  C_36
    6  A    between atoms: C_5  and  C_21
    7  A    between atoms: C_6  and  C_31
    8  A    between atoms: C_14  and  O_30
    9  A    between atoms: C_16  and  C_25
   10  A    between atoms: C_16  and  C_31
   11  A    between atoms: C_21  and  O_30
   12  A    between atoms: C_25  and  O_29
   13  A    between atoms: C_25  and  C_32
   14  A    between atoms: O_28  and  C_36
                            x       y       z     vdW  Elec       q    Type
                         _______ _______ _______ _____ _____    ______ ____

>  <TORSDO>
F 14

$$$$
