=
 OpenBabel10232407473D

 55 59  0  0  1  0  0  0  0  0999 V2000
  186.4370  177.5010  144.0280 C   0  0  2  0  0  3  0  0  0  0  0  0
  186.2810  178.4620  145.2290 C   0  0  2  0  0  3  0  0  0  0  0  0
  186.4390  177.7480  146.5220 C   0  0  2  0  0  3  0  0  0  0  0  0
  185.1740  178.1400  146.0410 O   0  0  0  0  0  0  0  0  0  0  0  0
  186.9210  178.7260  147.5830 C   0  0  0  0  0  2  0  0  0  0  0  0
  187.9760  178.0960  148.4780 C   0  0  0  0  0  2  0  0  0  0  0  0
  189.2360  178.1850  147.8740 O   0  0  0  0  0  0  0  0  0  0  0  0
  189.6180  176.8560  147.6850 C   0  0  0  0  0  2  0  0  0  0  0  0
  190.0340  176.6290  146.2380 C   0  0  0  0  0  2  0  0  0  0  0  0
  191.5220  176.9000  146.0320 C   0  0  1  0  0  3  0  0  0  0  0  0
  192.2730  175.8560  146.5790 O   0  0  0  0  0  1  0  0  0  0  0  0
  191.4590  178.4710  144.0520 C   0  0  0  0  0  1  0  0  0  0  0  0
  191.8730  177.0980  144.5580 C   0  0  2  0  0  3  0  0  0  0  0  0
  191.2540  176.1140  143.7850 O   0  0  0  0  0  1  0  0  0  0  0  0
  187.9950  176.1570  142.7910 O   0  0  0  0  0  1  0  0  0  0  0  0
  187.8680  177.3600  143.4820 C   0  0  1  0  0  3  0  0  0  0  0  0
  188.2110  178.5110  142.5490 C   0  0  0  0  0  2  0  0  0  0  0  0
  187.8150  178.0820  138.8190 C   0  0  1  0  0  3  0  0  0  0  0  0
  187.1870  178.3860  140.2010 C   0  0  0  0  0  2  0  0  0  0  0  0
  189.1530  177.5530  139.0650 N   0  0  0  0  0  2  0  0  0  0  0  0
  188.2230  178.0650  141.1690 N   0  0  0  0  0  0  0  0  0  0  0  0
  190.4380  177.2890  141.0120 O   0  0  0  0  0  0  0  0  0  0  0  0
  189.3530  177.6050  140.4610 C   0  0  0  0  0  0  0  0  0  0  0  0
  186.9950  177.1160  138.0280 C   0  0  0  0  0  3  0  0  0  0  0  0
  186.6760  177.3220  136.7530 C   0  0  0  0  0  3  0  0  0  0  0  0
  184.0770  174.9140  137.3040 C   0  0  0  0  0  3  0  0  0  0  0  0
  185.8710  176.3310  136.0560 C   0  0  0  0  0  3  0  0  0  0  0  0
  184.9840  175.6250  136.6940 C   0  0  0  0  0  0  0  0  0  0  0  0
  182.9950  174.1740  136.5550 C   0  0  1  0  0  3  0  0  0  0  0  0
  182.1780  171.9490  136.1500 O   0  0  0  0  0  1  0  0  0  0  0  0
  184.3500  172.0870  137.1000 C   0  0  0  0  0  1  0  0  0  0  0  0
  183.8780  172.7180  134.8630 O   0  0  0  0  0  1  0  0  0  0  0  0
  183.3420  172.7220  136.1510 C   0  0  0  0  0  0  0  0  0  0  0  0
  181.5840  174.3850  137.1230 C   0  0  0  0  0  2  0  0  0  0  0  0
  181.5840  175.0440  138.4950 C   0  0  0  0  0  2  0  0  0  0  0  0
  180.0000  175.7380  140.2620 C   0  0  0  0  0  1  0  0  0  0  0  0
  180.2260  175.6550  138.7660 C   0  0  0  0  0  2  0  0  0  0  0  0
  185.5500  177.8670  143.0040 O   0  0  0  0  0  0  0  0  0  0  0  0
  184.4330  178.4080  143.6510 C   0  0  0  0  0  2  0  0  0  0  0  0
  183.7530  178.9490  141.2120 C   0  0  0  0  0  2  0  0  0  0  0  0
  183.3760  178.7400  142.6540 C   0  0  0  0  0  0  0  0  0  0  0  0
  182.5930  178.5810  140.2770 C   0  0  0  0  0  2  0  0  0  0  0  0
  182.1230  178.9690  143.0580 C   0  0  0  0  0  3  0  0  0  0  0  0
  181.0630  179.2820  142.0820 C   0  0  0  0  0  3  0  0  0  0  0  0
  181.2850  179.1540  140.7690 C   0  0  0  0  0  0  0  0  0  0  0  0
  180.0460  182.6290  137.9820 C   0  0  0  0  0  3  0  0  0  0  0  0
  180.5980  181.8050  135.7500 C   0  0  0  0  0  3  0  0  0  0  0  0
  180.1630  181.3170  138.4430 C   0  0  0  0  0  0  0  0  0  0  0  0
  180.4850  180.2830  137.6110 C   0  0  0  0  0  0  0  0  0  0  0  0
  179.9820  180.8860  139.7370 O   0  0  0  0  0  0  0  0  0  0  0  0
  180.2660  182.8680  136.6160 C   0  0  0  0  0  3  0  0  0  0  0  0
  180.5390  179.0130  138.3820 C   0  0  0  0  0  2  0  0  0  0  0  0
  180.7100  180.4960  136.2480 C   0  0  0  0  0  0  0  0  0  0  0  0
  180.1820  179.4730  139.8130 C   0  0  1  0  0  3  0  0  0  0  0  0
  181.1390  179.1780  135.1710 Cl  0  0  0  0  0  0  0  0  0  0  0  0
  1 38  1  6  0  0  0
  2  1  1  6  0  0  0
  2  4  1  0  0  0  0
  2  3  1  0  0  0  0
  3  5  1  1  0  0  0
  4  3  1  0  0  0  0
  5  6  1  0  0  0  0
  7  6  1  0  0  0  0
  8  7  1  0  0  0  0
  9  8  1  0  0  0  0
 10  9  1  0  0  0  0
 10 11  1  6  0  0  0
 13 12  1  6  0  0  0
 13 10  1  0  0  0  0
 14 13  1  0  0  0  0
 16 15  1  6  0  0  0
 16  1  1  0  0  0  0
 17 16  1  0  0  0  0
 18 24  1  1  0  0  0
 18 20  1  0  0  0  0
 18 19  1  0  0  0  0
 19 21  1  0  0  0  0
 20 23  1  0  0  0  0
 21 17  1  0  0  0  0
 23 22  2  0  0  0  0
 23 21  1  0  0  0  0
 25 24  2  0  0  0  0
 27 28  2  0  0  0  0
 27 25  1  0  0  0  0
 28 26  2  0  0  0  0
 29 34  1  1  0  0  0
 29 26  1  0  0  0  0
 30 33  1  0  0  0  0
 32 33  1  0  0  0  0
 33 29  1  0  0  0  0
 33 31  1  0  0  0  0
 34 35  1  0  0  0  0
 35 37  1  0  0  0  0
 37 36  1  0  0  0  0
 38 39  1  0  0  0  0
 40 41  1  0  0  0  0
 41 43  2  0  0  0  0
 41 39  1  0  0  0  0
 42 45  1  0  0  0  0
 42 40  1  0  0  0  0
 44 43  1  0  0  0  0
 45 44  2  0  0  0  0
 46 48  1  0  0  0  0
 47 53  2  0  0  0  0
 47 51  1  0  0  0  0
 48 50  1  0  0  0  0
 49 52  1  0  0  0  0
 49 48  2  0  0  0  0
 50 54  1  0  0  0  0
 51 46  2  0  0  0  0
 52 54  1  0  0  0  0
 53 49  1  0  0  0  0
 54 45  1  1  0  0  0
 55 53  1  0  0  0  0
M  END
>  <MODEL>
1

>  <REMARK>
 VINA RESULT:      -6.8      0.000      0.000
  Name = 
  22 active torsions:
  status: ('A' for Active; 'I' for Inactive)
    1  A    between atoms: C_2  and  C_22
    2  A    between atoms: C_3  and  O_18
    3  A    between atoms: C_3  and  C_25
    4  A    between atoms: C_3  and  C_53
    5  A    between atoms: C_4  and  C_7
    6  A    between atoms: C_5  and  N_16
    7  A    between atoms: C_5  and  C_53
    8  A    between atoms: C_11  and  C_14
    9  A    between atoms: C_12  and  C_17
   10  A    between atoms: C_12  and  C_45
   11  A    between atoms: C_14  and  O_18
   12  A    between atoms: C_17  and  C_26
   13  A    between atoms: C_19  and  C_38
   14  A    between atoms: C_22  and  C_48
   15  A    between atoms: C_22  and  C_54
   16  A    between atoms: C_26  and  O_31
   17  A    between atoms: O_31  and  C_44
   18  A    between atoms: C_33  and  C_39
   19  A    between atoms: C_35  and  C_52
   20  A    between atoms: C_39  and  C_44
   21  A    between atoms: C_40  and  C_41
   22  A    between atoms: C_40  and  C_54
                            x       y       z     vdW  Elec       q    Type
                         _______ _______ _______ _____ _____    ______ ____

>  <TORSDO>
F 22

$$$$
=
 OpenBabel10232407473D

 55 59  0  0  1  0  0  0  0  0999 V2000
  189.4040  174.3960  135.3300 C   0  0  2  0  0  3  0  0  0  0  0  0
  190.6480  173.6450  134.8040 C   0  0  2  0  0  3  0  0  0  0  0  0
  191.4960  173.1470  135.9180 C   0  0  2  0  0  3  0  0  0  0  0  0
  191.8560  174.2790  135.1610 O   0  0  0  0  0  0  0  0  0  0  0  0
  192.2830  171.9320  135.4500 C   0  0  0  0  0  2  0  0  0  0  0  0
  193.7570  172.0590  135.8000 C   0  0  0  0  0  2  0  0  0  0  0  0
  194.0830  171.1770  136.8380 O   0  0  0  0  0  0  0  0  0  0  0  0
  195.3570  171.5800  137.2400 C   0  0  0  0  0  2  0  0  0  0  0  0
  195.4830  173.0940  137.1460 C   0  0  0  0  0  2  0  0  0  0  0  0
  196.9020  173.5190  136.7760 C   0  0  1  0  0  3  0  0  0  0  0  0
  197.2210  173.0430  135.5010 O   0  0  0  0  0  1  0  0  0  0  0  0
  197.3360  175.6420  135.4720 C   0  0  0  0  0  1  0  0  0  0  0  0
  197.0860  175.0340  136.8440 C   0  0  2  0  0  3  0  0  0  0  0  0
  198.1510  175.3460  137.6900 O   0  0  0  0  0  1  0  0  0  0  0  0
  190.2040  176.5810  134.7380 O   0  0  0  0  0  1  0  0  0  0  0  0
  189.6550  175.8440  135.7850 C   0  0  1  0  0  3  0  0  0  0  0  0
  188.3620  176.5050  136.2370 C   0  0  0  0  0  2  0  0  0  0  0  0
  189.5420  177.6510  139.6350 C   0  0  1  0  0  3  0  0  0  0  0  0
  189.3790  176.5200  138.5910 C   0  0  0  0  0  2  0  0  0  0  0  0
  188.7190  178.7700  139.1830 N   0  0  0  0  0  2  0  0  0  0  0  0
  188.5110  177.0720  137.5630 N   0  0  0  0  0  0  0  0  0  0  0  0
  187.4650  179.1530  137.2350 O   0  0  0  0  0  0  0  0  0  0  0  0
  188.1710  178.3870  137.9400 C   0  0  0  0  0  0  0  0  0  0  0  0
  189.1420  177.2140  141.0060 C   0  0  0  0  0  3  0  0  0  0  0  0
  189.9380  176.4900  141.7880 C   0  0  0  0  0  3  0  0  0  0  0  0
  188.9590  177.8820  144.9440 C   0  0  0  0  0  3  0  0  0  0  0  0
  189.4720  176.1030  143.1100 C   0  0  0  0  0  3  0  0  0  0  0  0
  189.2270  177.0030  144.0180 C   0  0  0  0  0  0  0  0  0  0  0  0
  188.1330  177.5440  146.1610 C   0  0  1  0  0  3  0  0  0  0  0  0
  188.9900  178.5460  148.1730 O   0  0  0  0  0  1  0  0  0  0  0  0
  190.3540  176.8590  147.2050 C   0  0  0  0  0  1  0  0  0  0  0  0
  188.2820  176.3940  148.2630 O   0  0  0  0  0  1  0  0  0  0  0  0
  188.9320  177.3400  147.4690 C   0  0  0  0  0  0  0  0  0  0  0  0
  186.8450  178.3700  146.2930 C   0  0  0  0  0  2  0  0  0  0  0  0
  185.7320  177.8920  145.3710 C   0  0  0  0  0  2  0  0  0  0  0  0
  183.9890  178.6010  143.7670 C   0  0  0  0  0  1  0  0  0  0  0  0
  185.1070  179.0800  144.6700 C   0  0  0  0  0  2  0  0  0  0  0  0
  188.7940  173.6530  136.3530 O   0  0  0  0  0  0  0  0  0  0  0  0
  187.8920  172.7990  135.7090 C   0  0  0  0  0  2  0  0  0  0  0  0
  185.8160  173.1270  137.2200 C   0  0  0  0  0  2  0  0  0  0  0  0
  186.4990  173.2960  135.8900 C   0  0  0  0  0  0  0  0  0  0  0  0
  184.7820  174.2360  137.4570 C   0  0  0  0  0  2  0  0  0  0  0  0
  185.8200  173.7800  134.8460 C   0  0  0  0  0  3  0  0  0  0  0  0
  184.4470  174.2920  135.0130 C   0  0  0  0  0  3  0  0  0  0  0  0
  183.9270  174.4620  136.2330 C   0  0  0  0  0  0  0  0  0  0  0  0
  180.8910  175.3850  139.5960 C   0  0  0  0  0  3  0  0  0  0  0  0
  180.9240  177.8220  139.7520 C   0  0  0  0  0  3  0  0  0  0  0  0
  181.5330  175.5040  138.3630 C   0  0  0  0  0  0  0  0  0  0  0  0
  181.8670  176.7170  137.8330 C   0  0  0  0  0  0  0  0  0  0  0  0
  181.9100  174.4710  137.5340 O   0  0  0  0  0  0  0  0  0  0  0  0
  180.5830  176.5650  140.2930 C   0  0  0  0  0  3  0  0  0  0  0  0
  182.5380  176.5280  136.5200 C   0  0  0  0  0  2  0  0  0  0  0  0
  181.5730  177.9050  138.5090 C   0  0  0  0  0  0  0  0  0  0  0  0
  182.5350  174.9910  136.3600 C   0  0  1  0  0  3  0  0  0  0  0  0
  182.0090  179.4700  137.8460 Cl  0  0  0  0  0  0  0  0  0  0  0  0
  1 16  1  0  0  0  0
  1 38  1  1  0  0  0
  2  4  1  0  0  0  0
  2  1  1  1  0  0  0
  2  3  1  0  0  0  0
  3  5  1  6  0  0  0
  4  3  1  0  0  0  0
  5  6  1  0  0  0  0
  6  7  1  0  0  0  0
  7  8  1  0  0  0  0
  9  8  1  0  0  0  0
 10 11  1  6  0  0  0
 10 13  1  0  0  0  0
 10  9  1  0  0  0  0
 13 12  1  6  0  0  0
 13 14  1  0  0  0  0
 16 15  1  6  0  0  0
 16 17  1  0  0  0  0
 17 21  1  0  0  0  0
 18 24  1  1  0  0  0
 19 18  1  0  0  0  0
 20 18  1  0  0  0  0
 21 23  1  0  0  0  0
 21 19  1  0  0  0  0
 22 23  2  0  0  0  0
 23 20  1  0  0  0  0
 24 25  2  0  0  0  0
 25 27  1  0  0  0  0
 27 28  2  0  0  0  0
 28 26  2  0  0  0  0
 29 26  1  6  0  0  0
 29 34  1  0  0  0  0
 29 33  1  0  0  0  0
 31 33  1  0  0  0  0
 33 30  1  0  0  0  0
 33 32  1  0  0  0  0
 35 34  1  0  0  0  0
 36 37  1  0  0  0  0
 37 35  1  0  0  0  0
 39 41  1  0  0  0  0
 39 38  1  0  0  0  0
 40 42  1  0  0  0  0
 41 40  1  0  0  0  0
 43 44  1  0  0  0  0
 43 41  2  0  0  0  0
 44 45  2  0  0  0  0
 45 42  1  0  0  0  0
 46 51  1  0  0  0  0
 47 51  2  0  0  0  0
 48 46  2  0  0  0  0
 49 48  1  0  0  0  0
 49 53  2  0  0  0  0
 50 48  1  0  0  0  0
 52 49  1  0  0  0  0
 53 47  1  0  0  0  0
 54 45  1  1  0  0  0
 54 52  1  0  0  0  0
 54 50  1  0  0  0  0
 55 53  1  0  0  0  0
M  END
>  <MODEL>
2

>  <REMARK>
 VINA RESULT:      -6.4      4.543      9.295
  Name = 
  22 active torsions:
  status: ('A' for Active; 'I' for Inactive)
    1  A    between atoms: C_2  and  C_22
    2  A    between atoms: C_3  and  O_18
    3  A    between atoms: C_3  and  C_25
    4  A    between atoms: C_3  and  C_53
    5  A    between atoms: C_4  and  C_7
    6  A    between atoms: C_5  and  N_16
    7  A    between atoms: C_5  and  C_53
    8  A    between atoms: C_11  and  C_14
    9  A    between atoms: C_12  and  C_17
   10  A    between atoms: C_12  and  C_45
   11  A    between atoms: C_14  and  O_18
   12  A    between atoms: C_17  and  C_26
   13  A    between atoms: C_19  and  C_38
   14  A    between atoms: C_22  and  C_48
   15  A    between atoms: C_22  and  C_54
   16  A    between atoms: C_26  and  O_31
   17  A    between atoms: O_31  and  C_44
   18  A    between atoms: C_33  and  C_39
   19  A    between atoms: C_35  and  C_52
   20  A    between atoms: C_39  and  C_44
   21  A    between atoms: C_40  and  C_41
   22  A    between atoms: C_40  and  C_54
                            x       y       z     vdW  Elec       q    Type
                         _______ _______ _______ _____ _____    ______ ____

>  <TORSDO>
F 22

$$$$
=
 OpenBabel10232407473D

 55 59  0  0  1  0  0  0  0  0999 V2000
  186.6150  178.5140  142.0520 C   0  0  2  0  0  3  0  0  0  0  0  0
  185.8560  177.9520  143.2750 C   0  0  2  0  0  3  0  0  0  0  0  0
  186.3650  178.5300  144.5460 C   0  0  2  0  0  3  0  0  0  0  0  0
  186.6920  177.2190  144.1440 O   0  0  0  0  0  0  0  0  0  0  0  0
  185.2630  178.4960  145.5940 C   0  0  0  0  0  2  0  0  0  0  0  0
  185.7890  178.0110  146.9350 C   0  0  0  0  0  2  0  0  0  0  0  0
  187.0980  178.4690  147.1340 O   0  0  0  0  0  0  0  0  0  0  0  0
  187.8230  177.3120  147.4230 C   0  0  0  0  0  2  0  0  0  0  0  0
  189.1650  177.6750  148.0430 C   0  0  0  0  0  2  0  0  0  0  0  0
  190.3160  177.4420  147.0670 C   0  0  1  0  0  3  0  0  0  0  0  0
  190.9680  176.2460  147.3800 O   0  0  0  0  0  1  0  0  0  0  0  0
  190.6160  176.4270  144.7700 C   0  0  0  0  0  1  0  0  0  0  0  0
  189.8470  177.4330  145.6140 C   0  0  2  0  0  3  0  0  0  0  0  0
  189.9880  178.7060  145.0590 O   0  0  0  0  0  1  0  0  0  0  0  0
  186.0680  178.5440  139.7140 O   0  0  0  0  0  1  0  0  0  0  0  0
  185.7280  179.1050  140.9430 C   0  0  1  0  0  3  0  0  0  0  0  0
  184.2570  178.8390  141.2230 C   0  0  0  0  0  2  0  0  0  0  0  0
  182.0030  177.3010  138.6140 C   0  0  1  0  0  3  0  0  0  0  0  0
  182.9450  177.1310  139.8300 C   0  0  0  0  0  2  0  0  0  0  0  0
  182.1750  178.6670  138.1280 N   0  0  0  0  0  2  0  0  0  0  0  0
  183.5700  178.4310  140.0130 N   0  0  0  0  0  0  0  0  0  0  0  0
  183.3900  180.5110  138.9280 O   0  0  0  0  0  0  0  0  0  0  0  0
  183.0760  179.2970  139.0150 C   0  0  0  0  0  0  0  0  0  0  0  0
  182.2930  176.3110  137.5340 C   0  0  0  0  0  3  0  0  0  0  0  0
  183.3500  175.5050  137.5660 C   0  0  0  0  0  3  0  0  0  0  0  0
  184.5550  172.1970  136.8850 C   0  0  0  0  0  3  0  0  0  0  0  0
  183.5610  174.5690  136.4720 C   0  0  0  0  0  3  0  0  0  0  0  0
  184.0660  173.3900  136.6930 C   0  0  0  0  0  0  0  0  0  0  0  0
  184.4320  171.1000  135.8560 C   0  0  1  0  0  3  0  0  0  0  0  0
  182.1240  171.0300  136.5320 O   0  0  0  0  0  1  0  0  0  0  0  0
  182.8580  169.2100  135.1930 C   0  0  0  0  0  1  0  0  0  0  0  0
  182.5920  171.4090  134.3460 O   0  0  0  0  0  1  0  0  0  0  0  0
  182.9860  170.7010  135.4810 C   0  0  0  0  0  0  0  0  0  0  0  0
  185.4090  171.2340  134.6790 C   0  0  0  0  0  2  0  0  0  0  0  0
  186.4830  170.1550  134.6690 C   0  0  0  0  0  2  0  0  0  0  0  0
  188.9490  170.1010  134.8470 C   0  0  0  0  0  1  0  0  0  0  0  0
  187.6740  170.6160  135.4840 C   0  0  0  0  0  2  0  0  0  0  0  0
  187.4740  177.5340  141.5300 O   0  0  0  0  0  0  0  0  0  0  0  0
  188.7630  177.9230  141.9120 C   0  0  0  0  0  2  0  0  0  0  0  0
  191.2090  177.6580  141.1090 C   0  0  0  0  0  2  0  0  0  0  0  0
  189.7330  177.6170  140.8230 C   0  0  0  0  0  0  0  0  0  0  0  0
  191.9770  176.6930  140.1950 C   0  0  0  0  0  2  0  0  0  0  0  0
  189.2970  177.4260  139.5740 C   0  0  0  0  0  3  0  0  0  0  0  0
  190.2420  177.1050  138.4890 C   0  0  0  0  0  3  0  0  0  0  0  0
  191.5180  176.8090  138.7610 C   0  0  0  0  0  0  0  0  0  0  0  0
  195.2100  174.1290  138.0080 C   0  0  0  0  0  3  0  0  0  0  0  0
  194.3180  172.2720  136.6970 C   0  0  0  0  0  3  0  0  0  0  0  0
  194.0390  174.8310  137.7200 C   0  0  0  0  0  0  0  0  0  0  0  0
  193.0400  174.2940  136.9590 C   0  0  0  0  0  0  0  0  0  0  0  0
  193.7260  176.1060  138.1360 O   0  0  0  0  0  0  0  0  0  0  0  0
  195.3450  172.8330  137.4840 C   0  0  0  0  0  3  0  0  0  0  0  0
  191.9260  175.2690  136.8270 C   0  0  0  0  0  2  0  0  0  0  0  0
  193.1510  173.0050  136.4290 C   0  0  0  0  0  0  0  0  0  0  0  0
  192.4430  176.4810  137.6340 C   0  0  1  0  0  3  0  0  0  0  0  0
  191.8690  172.2980  135.4620 Cl  0  0  0  0  0  0  0  0  0  0  0  0
  1 38  1  6  0  0  0
  2  1  1  6  0  0  0
  2  4  1  0  0  0  0
  2  3  1  0  0  0  0
  3  5  1  1  0  0  0
  4  3  1  0  0  0  0
  5  6  1  0  0  0  0
  6  7  1  0  0  0  0
  7  8  1  0  0  0  0
  8  9  1  0  0  0  0
 10 11  1  1  0  0  0
 10  9  1  0  0  0  0
 13 12  1  6  0  0  0
 13 10  1  0  0  0  0
 14 13  1  0  0  0  0
 16 15  1  6  0  0  0
 16 17  1  0  0  0  0
 16  1  1  0  0  0  0
 18 24  1  6  0  0  0
 18 19  1  0  0  0  0
 19 21  1  0  0  0  0
 20 18  1  0  0  0  0
 20 23  1  0  0  0  0
 21 17  1  0  0  0  0
 22 23  2  0  0  0  0
 23 21  1  0  0  0  0
 24 25  2  0  0  0  0
 27 28  2  0  0  0  0
 27 25  1  0  0  0  0
 28 26  2  0  0  0  0
 29 34  1  6  0  0  0
 29 26  1  0  0  0  0
 31 33  1  0  0  0  0
 32 33  1  0  0  0  0
 33 29  1  0  0  0  0
 33 30  1  0  0  0  0
 35 34  1  0  0  0  0
 35 37  1  0  0  0  0
 36 37  1  0  0  0  0
 38 39  1  0  0  0  0
 41 40  1  0  0  0  0
 41 39  1  0  0  0  0
 42 40  1  0  0  0  0
 43 41  2  0  0  0  0
 44 45  2  0  0  0  0
 44 43  1  0  0  0  0
 45 42  1  0  0  0  0
 47 51  1  0  0  0  0
 48 46  1  0  0  0  0
 48 50  1  0  0  0  0
 49 48  2  0  0  0  0
 51 46  2  0  0  0  0
 52 49  1  0  0  0  0
 52 54  1  0  0  0  0
 53 47  2  0  0  0  0
 53 49  1  0  0  0  0
 54 50  1  0  0  0  0
 54 45  1  1  0  0  0
 55 53  1  0  0  0  0
M  END
>  <MODEL>
3

>  <REMARK>
 VINA RESULT:      -6.3      3.835      8.006
  Name = 
  22 active torsions:
  status: ('A' for Active; 'I' for Inactive)
    1  A    between atoms: C_2  and  C_22
    2  A    between atoms: C_3  and  O_18
    3  A    between atoms: C_3  and  C_25
    4  A    between atoms: C_3  and  C_53
    5  A    between atoms: C_4  and  C_7
    6  A    between atoms: C_5  and  N_16
    7  A    between atoms: C_5  and  C_53
    8  A    between atoms: C_11  and  C_14
    9  A    between atoms: C_12  and  C_17
   10  A    between atoms: C_12  and  C_45
   11  A    between atoms: C_14  and  O_18
   12  A    between atoms: C_17  and  C_26
   13  A    between atoms: C_19  and  C_38
   14  A    between atoms: C_22  and  C_48
   15  A    between atoms: C_22  and  C_54
   16  A    between atoms: C_26  and  O_31
   17  A    between atoms: O_31  and  C_44
   18  A    between atoms: C_33  and  C_39
   19  A    between atoms: C_35  and  C_52
   20  A    between atoms: C_39  and  C_44
   21  A    between atoms: C_40  and  C_41
   22  A    between atoms: C_40  and  C_54
                            x       y       z     vdW  Elec       q    Type
                         _______ _______ _______ _____ _____    ______ ____

>  <TORSDO>
F 22

$$$$
=
 OpenBabel10232407473D

 55 59  0  0  1  0  0  0  0  0999 V2000
  189.3560  174.2930  135.3370 C   0  0  2  0  0  3  0  0  0  0  0  0
  190.6290  173.5730  134.8360 C   0  0  2  0  0  3  0  0  0  0  0  0
  191.5450  173.2430  135.9580 C   0  0  2  0  0  3  0  0  0  0  0  0
  191.8030  174.3140  135.0800 O   0  0  0  0  0  0  0  0  0  0  0  0
  192.3950  172.0390  135.5790 C   0  0  0  0  0  2  0  0  0  0  0  0
  193.8650  172.2820  135.8810 C   0  0  0  0  0  2  0  0  0  0  0  0
  194.2920  171.4320  136.9100 O   0  0  0  0  0  0  0  0  0  0  0  0
  195.5420  171.9350  137.2710 C   0  0  0  0  0  2  0  0  0  0  0  0
  195.4850  173.4520  137.3860 C   0  0  0  0  0  2  0  0  0  0  0  0
  196.7690  174.1040  136.8780 C   0  0  1  0  0  3  0  0  0  0  0  0
  196.6710  175.4930  136.9910 O   0  0  0  0  0  1  0  0  0  0  0  0
  198.6110  174.6520  138.5210 C   0  0  0  0  0  1  0  0  0  0  0  0
  198.0050  173.5910  137.6150 C   0  0  2  0  0  3  0  0  0  0  0  0
  198.9650  173.1660  136.6950 O   0  0  0  0  0  1  0  0  0  0  0  0
  189.9640  176.5170  134.6670 O   0  0  0  0  0  1  0  0  0  0  0  0
  189.5550  175.7580  135.7610 C   0  0  1  0  0  3  0  0  0  0  0  0
  188.2670  176.3430  136.3210 C   0  0  0  0  0  2  0  0  0  0  0  0
  189.6690  177.6520  139.5730 C   0  0  1  0  0  3  0  0  0  0  0  0
  189.4130  176.4660  138.6120 C   0  0  0  0  0  2  0  0  0  0  0  0
  188.8580  178.7680  139.0970 N   0  0  0  0  0  2  0  0  0  0  0  0
  188.5080  176.9840  137.5990 N   0  0  0  0  0  0  0  0  0  0  0  0
  187.5100  179.0760  137.1990 O   0  0  0  0  0  0  0  0  0  0  0  0
  188.2300  178.3310  137.9110 C   0  0  0  0  0  0  0  0  0  0  0  0
  189.3330  177.3130  140.9880 C   0  0  0  0  0  3  0  0  0  0  0  0
  190.1580  176.6280  141.7760 C   0  0  0  0  0  3  0  0  0  0  0  0
  189.0400  178.2330  144.7810 C   0  0  0  0  0  3  0  0  0  0  0  0
  189.7530  176.3380  143.1430 C   0  0  0  0  0  3  0  0  0  0  0  0
  189.4070  177.2960  143.9520 C   0  0  0  0  0  0  0  0  0  0  0  0
  188.2730  177.9350  146.0460 C   0  0  1  0  0  3  0  0  0  0  0  0
  186.3360  176.5700  145.6350 O   0  0  0  0  0  1  0  0  0  0  0  0
  186.2400  178.7770  144.7620 C   0  0  0  0  0  1  0  0  0  0  0  0
  186.1400  178.3030  147.0830 O   0  0  0  0  0  1  0  0  0  0  0  0
  186.7350  177.8840  145.8930 C   0  0  0  0  0  0  0  0  0  0  0  0
  188.8910  176.8220  146.9060 C   0  0  0  0  0  2  0  0  0  0  0  0
  190.1940  177.2370  147.5730 C   0  0  0  0  0  2  0  0  0  0  0  0
  191.9660  176.2550  146.1540 C   0  0  0  0  0  1  0  0  0  0  0  0
  191.2040  176.1150  147.4570 C   0  0  0  0  0  2  0  0  0  0  0  0
  188.7630  173.5530  136.3720 O   0  0  0  0  0  0  0  0  0  0  0  0
  187.9270  172.6270  135.7390 C   0  0  0  0  0  2  0  0  0  0  0  0
  185.9250  173.0900  137.3130 C   0  0  0  0  0  2  0  0  0  0  0  0
  186.5010  173.0160  135.9250 C   0  0  0  0  0  0  0  0  0  0  0  0
  184.7880  174.1190  137.3860 C   0  0  0  0  0  2  0  0  0  0  0  0
  185.7080  173.1800  134.8610 C   0  0  0  0  0  3  0  0  0  0  0  0
  184.2990  173.5820  135.0280 C   0  0  0  0  0  3  0  0  0  0  0  0
  183.8390  173.9760  136.2200 C   0  0  0  0  0  0  0  0  0  0  0  0
  180.9170  175.2940  139.5520 C   0  0  0  0  0  3  0  0  0  0  0  0
  180.6900  177.7000  139.2040 C   0  0  0  0  0  3  0  0  0  0  0  0
  181.4710  175.2100  138.2750 C   0  0  0  0  0  0  0  0  0  0  0  0
  181.6370  176.3100  137.4830 C   0  0  0  0  0  0  0  0  0  0  0  0
  181.9110  174.0660  137.6470 O   0  0  0  0  0  0  0  0  0  0  0  0
  180.5210  176.5590  140.0150 C   0  0  0  0  0  3  0  0  0  0  0  0
  182.2500  175.9130  136.1880 C   0  0  0  0  0  2  0  0  0  0  0  0
  181.2530  177.5800  137.9230 C   0  0  0  0  0  0  0  0  0  0  0  0
  182.4070  174.3840  136.3460 C   0  0  1  0  0  3  0  0  0  0  0  0
  181.4750  179.0040  136.9210 Cl  0  0  0  0  0  0  0  0  0  0  0  0
  1 16  1  0  0  0  0
  1 38  1  1  0  0  0
  2  4  1  0  0  0  0
  2  1  1  1  0  0  0
  2  3  1  0  0  0  0
  3  5  1  6  0  0  0
  4  3  1  0  0  0  0
  5  6  1  0  0  0  0
  6  7  1  0  0  0  0
  7  8  1  0  0  0  0
  8  9  1  0  0  0  0
 10 11  1  1  0  0  0
 10  9  1  0  0  0  0
 10 13  1  0  0  0  0
 13 12  1  6  0  0  0
 14 13  1  0  0  0  0
 16 15  1  6  0  0  0
 16 17  1  0  0  0  0
 17 21  1  0  0  0  0
 18 24  1  1  0  0  0
 19 18  1  0  0  0  0
 20 18  1  0  0  0  0
 21 23  1  0  0  0  0
 21 19  1  0  0  0  0
 22 23  2  0  0  0  0
 23 20  1  0  0  0  0
 24 25  2  0  0  0  0
 25 27  1  0  0  0  0
 27 28  2  0  0  0  0
 28 26  2  0  0  0  0
 29 26  1  6  0  0  0
 29 34  1  0  0  0  0
 30 33  1  0  0  0  0
 31 33  1  0  0  0  0
 33 29  1  0  0  0  0
 33 32  1  0  0  0  0
 34 35  1  0  0  0  0
 36 37  1  0  0  0  0
 37 35  1  0  0  0  0
 39 41  1  0  0  0  0
 39 38  1  0  0  0  0
 40 42  1  0  0  0  0
 41 40  1  0  0  0  0
 43 44  1  0  0  0  0
 43 41  2  0  0  0  0
 44 45  2  0  0  0  0
 45 42  1  0  0  0  0
 46 51  1  0  0  0  0
 47 51  2  0  0  0  0
 48 46  2  0  0  0  0
 49 53  2  0  0  0  0
 49 48  1  0  0  0  0
 50 48  1  0  0  0  0
 52 54  1  0  0  0  0
 52 49  1  0  0  0  0
 53 47  1  0  0  0  0
 54 45  1  1  0  0  0
 54 50  1  0  0  0  0
 55 53  1  0  0  0  0
M  END
>  <MODEL>
4

>  <REMARK>
 VINA RESULT:      -5.9      4.516      9.433
  Name = 
  22 active torsions:
  status: ('A' for Active; 'I' for Inactive)
    1  A    between atoms: C_2  and  C_22
    2  A    between atoms: C_3  and  O_18
    3  A    between atoms: C_3  and  C_25
    4  A    between atoms: C_3  and  C_53
    5  A    between atoms: C_4  and  C_7
    6  A    between atoms: C_5  and  N_16
    7  A    between atoms: C_5  and  C_53
    8  A    between atoms: C_11  and  C_14
    9  A    between atoms: C_12  and  C_17
   10  A    between atoms: C_12  and  C_45
   11  A    between atoms: C_14  and  O_18
   12  A    between atoms: C_17  and  C_26
   13  A    between atoms: C_19  and  C_38
   14  A    between atoms: C_22  and  C_48
   15  A    between atoms: C_22  and  C_54
   16  A    between atoms: C_26  and  O_31
   17  A    between atoms: O_31  and  C_44
   18  A    between atoms: C_33  and  C_39
   19  A    between atoms: C_35  and  C_52
   20  A    between atoms: C_39  and  C_44
   21  A    between atoms: C_40  and  C_41
   22  A    between atoms: C_40  and  C_54
                            x       y       z     vdW  Elec       q    Type
                         _______ _______ _______ _____ _____    ______ ____

>  <TORSDO>
F 22

$$$$
=
 OpenBabel10232407473D

 55 59  0  0  1  0  0  0  0  0999 V2000
  185.6670  176.0480  136.0150 C   0  0  2  0  0  3  0  0  0  0  0  0
  184.2410  175.9870  135.4220 C   0  0  2  0  0  3  0  0  0  0  0  0
  183.2320  175.6580  136.4620 C   0  0  2  0  0  3  0  0  0  0  0  0
  183.6660  174.7030  135.5220 O   0  0  0  0  0  0  0  0  0  0  0  0
  181.8800  176.2210  136.0500 C   0  0  0  0  0  2  0  0  0  0  0  0
  181.6450  177.5960  136.6540 C   0  0  0  0  0  2  0  0  0  0  0  0
  182.1870  177.6540  137.9450 O   0  0  0  0  0  0  0  0  0  0  0  0
  181.6820  178.8430  138.4730 C   0  0  0  0  0  2  0  0  0  0  0  0
  180.4470  178.5620  139.3160 C   0  0  0  0  0  2  0  0  0  0  0  0
  180.7760  177.6800  140.5190 C   0  0  1  0  0  3  0  0  0  0  0  0
  181.4910  176.5550  140.0990 O   0  0  0  0  0  1  0  0  0  0  0  0
  180.7360  179.5710  142.1980 C   0  0  0  0  0  1  0  0  0  0  0  0
  181.5530  178.4390  141.5930 C   0  0  2  0  0  3  0  0  0  0  0  0
  182.7320  178.9560  141.0540 O   0  0  0  0  0  1  0  0  0  0  0  0
  185.8210  177.6630  137.7850 O   0  0  0  0  0  1  0  0  0  0  0  0
  186.1390  177.4470  136.4460 C   0  0  1  0  0  3  0  0  0  0  0  0
  187.6420  177.5950  136.2610 C   0  0  0  0  0  2  0  0  0  0  0  0
  189.7500  176.8990  139.3140 C   0  0  1  0  0  3  0  0  0  0  0  0
  188.7250  176.4120  138.2620 C   0  0  0  0  0  2  0  0  0  0  0  0
  189.8370  178.3500  139.1850 N   0  0  0  0  0  2  0  0  0  0  0  0
  188.3180  177.6090  137.5440 N   0  0  0  0  0  0  0  0  0  0  0  0
  188.9060  179.8830  137.6690 O   0  0  0  0  0  0  0  0  0  0  0  0
  189.0060  178.7060  138.1010 C   0  0  0  0  0  0  0  0  0  0  0  0
  189.3600  176.5090  140.7030 C   0  0  0  0  0  3  0  0  0  0  0  0
  190.2040  176.5740  141.7290 C   0  0  0  0  0  3  0  0  0  0  0  0
  189.1310  177.9360  144.8680 C   0  0  0  0  0  3  0  0  0  0  0  0
  189.7450  176.1730  143.0500 C   0  0  0  0  0  3  0  0  0  0  0  0
  189.4490  177.0650  143.9500 C   0  0  0  0  0  0  0  0  0  0  0  0
  188.3120  177.5650  146.0800 C   0  0  1  0  0  3  0  0  0  0  0  0
  188.6170  176.0350  147.9100 O   0  0  0  0  0  1  0  0  0  0  0  0
  189.0740  178.3150  148.3920 C   0  0  0  0  0  1  0  0  0  0  0  0
  190.4570  176.9900  146.9930 O   0  0  0  0  0  1  0  0  0  0  0  0
  189.1250  177.2090  147.3460 C   0  0  0  0  0  0  0  0  0  0  0  0
  187.0900  178.4670  146.3090 C   0  0  0  0  0  2  0  0  0  0  0  0
  185.7960  177.8640  145.7800 C   0  0  0  0  0  2  0  0  0  0  0  0
  184.0210  178.7450  144.3010 C   0  0  0  0  0  1  0  0  0  0  0  0
  185.4990  178.4250  144.4050 C   0  0  0  0  0  2  0  0  0  0  0  0
  186.5820  175.4690  135.1220 O   0  0  0  0  0  0  0  0  0  0  0  0
  186.9480  174.2480  135.6990 C   0  0  0  0  0  2  0  0  0  0  0  0
  189.1310  174.8220  134.4320 C   0  0  0  0  0  2  0  0  0  0  0  0
  188.3720  173.9400  135.3860 C   0  0  0  0  0  0  0  0  0  0  0  0
  190.6310  174.8250  134.7540 C   0  0  0  0  0  2  0  0  0  0  0  0
  188.9340  172.8220  135.8550 C   0  0  0  0  0  3  0  0  0  0  0  0
  190.3460  172.5130  135.5680 C   0  0  0  0  0  3  0  0  0  0  0  0
  191.1440  173.4260  135.0030 C   0  0  0  0  0  0  0  0  0  0  0  0
  195.2940  174.2610  136.8620 C   0  0  0  0  0  3  0  0  0  0  0  0
  195.8680  172.1580  137.9620 C   0  0  0  0  0  3  0  0  0  0  0  0
  194.3030  173.5700  136.1650 C   0  0  0  0  0  0  0  0  0  0  0  0
  194.0870  172.2330  136.3460 C   0  0  0  0  0  0  0  0  0  0  0  0
  193.4360  174.0990  135.2360 O   0  0  0  0  0  0  0  0  0  0  0  0
  196.0850  173.5380  137.7700 C   0  0  0  0  0  3  0  0  0  0  0  0
  192.9720  171.7790  135.4740 C   0  0  0  0  0  2  0  0  0  0  0  0
  194.8600  171.4930  137.2450 C   0  0  0  0  0  0  0  0  0  0  0  0
  192.5720  173.0770  134.7370 C   0  0  1  0  0  3  0  0  0  0  0  0
  194.5830  169.7790  137.4980 Cl  0  0  0  0  0  0  0  0  0  0  0  0
  1 38  1  6  0  0  0
  1 16  1  0  0  0  0
  2  4  1  0  0  0  0
  2  1  1  1  0  0  0
  2  3  1  0  0  0  0
  3  5  1  6  0  0  0
  4  3  1  0  0  0  0
  5  6  1  0  0  0  0
  6  7  1  0  0  0  0
  7  8  1  0  0  0  0
  8  9  1  0  0  0  0
  9 10  1  0  0  0  0
 10 11  1  6  0  0  0
 10 13  1  0  0  0  0
 13 12  1  6  0  0  0
 14 13  1  0  0  0  0
 16 15  1  1  0  0  0
 17 16  1  0  0  0  0
 17 21  1  0  0  0  0
 18 24  1  1  0  0  0
 19 18  1  0  0  0  0
 20 18  1  0  0  0  0
 21 23  1  0  0  0  0
 21 19  1  0  0  0  0
 22 23  2  0  0  0  0
 23 20  1  0  0  0  0
 24 25  2  0  0  0  0
 25 27  1  0  0  0  0
 27 28  2  0  0  0  0
 28 26  2  0  0  0  0
 29 26  1  6  0  0  0
 29 34  1  0  0  0  0
 29 33  1  0  0  0  0
 32 33  1  0  0  0  0
 33 30  1  0  0  0  0
 33 31  1  0  0  0  0
 35 34  1  0  0  0  0
 36 37  1  0  0  0  0
 37 35  1  0  0  0  0
 38 39  1  0  0  0  0
 40 42  1  0  0  0  0
 40 41  1  0  0  0  0
 41 39  1  0  0  0  0
 41 43  2  0  0  0  0
 42 45  1  0  0  0  0
 44 43  1  0  0  0  0
 45 44  2  0  0  0  0
 46 51  1  0  0  0  0
 48 49  1  0  0  0  0
 48 46  2  0  0  0  0
 49 53  2  0  0  0  0
 50 48  1  0  0  0  0
 51 47  2  0  0  0  0
 52 49  1  0  0  0  0
 53 55  1  0  0  0  0
 53 47  1  0  0  0  0
 54 45  1  1  0  0  0
 54 50  1  0  0  0  0
 54 52  1  0  0  0  0
M  END
>  <MODEL>
5

>  <REMARK>
 VINA RESULT:      -5.7      4.690     11.425
  Name = 
  22 active torsions:
  status: ('A' for Active; 'I' for Inactive)
    1  A    between atoms: C_2  and  C_22
    2  A    between atoms: C_3  and  O_18
    3  A    between atoms: C_3  and  C_25
    4  A    between atoms: C_3  and  C_53
    5  A    between atoms: C_4  and  C_7
    6  A    between atoms: C_5  and  N_16
    7  A    between atoms: C_5  and  C_53
    8  A    between atoms: C_11  and  C_14
    9  A    between atoms: C_12  and  C_17
   10  A    between atoms: C_12  and  C_45
   11  A    between atoms: C_14  and  O_18
   12  A    between atoms: C_17  and  C_26
   13  A    between atoms: C_19  and  C_38
   14  A    between atoms: C_22  and  C_48
   15  A    between atoms: C_22  and  C_54
   16  A    between atoms: C_26  and  O_31
   17  A    between atoms: O_31  and  C_44
   18  A    between atoms: C_33  and  C_39
   19  A    between atoms: C_35  and  C_52
   20  A    between atoms: C_39  and  C_44
   21  A    between atoms: C_40  and  C_41
   22  A    between atoms: C_40  and  C_54
                            x       y       z     vdW  Elec       q    Type
                         _______ _______ _______ _____ _____    ______ ____

>  <TORSDO>
F 22

$$$$
=
 OpenBabel10232407473D

 55 59  0  0  1  0  0  0  0  0999 V2000
  186.7500  177.7930  143.3370 C   0  0  2  0  0  3  0  0  0  0  0  0
  185.7030  177.9420  144.4640 C   0  0  2  0  0  3  0  0  0  0  0  0
  184.9400  179.2100  144.3350 C   0  0  2  0  0  3  0  0  0  0  0  0
  185.9570  179.0520  145.2980 O   0  0  0  0  0  0  0  0  0  0  0  0
  183.5740  179.0470  144.9850 C   0  0  0  0  0  2  0  0  0  0  0  0
  182.4570  179.4420  144.0320 C   0  0  0  0  0  2  0  0  0  0  0  0
  181.4080  178.5170  144.1080 O   0  0  0  0  0  0  0  0  0  0  0  0
  180.5490  178.8900  143.0740 C   0  0  0  0  0  2  0  0  0  0  0  0
  181.2300  178.6920  141.7280 C   0  0  0  0  0  2  0  0  0  0  0  0
  180.2990  179.0420  140.5690 C   0  0  1  0  0  3  0  0  0  0  0  0
  180.6330  180.2980  140.0560 O   0  0  0  0  0  1  0  0  0  0  0  0
  180.9210  176.6700  139.9510 C   0  0  0  0  0  1  0  0  0  0  0  0
  180.3320  177.9860  139.4650 C   0  0  2  0  0  3  0  0  0  0  0  0
  181.0760  178.4530  138.3810 O   0  0  0  0  0  1  0  0  0  0  0  0
  188.2340  177.4980  145.2020 O   0  0  0  0  0  1  0  0  0  0  0  0
  188.1950  177.5590  143.8100 C   0  0  1  0  0  3  0  0  0  0  0  0
  188.7520  176.2650  143.2380 C   0  0  0  0  0  2  0  0  0  0  0  0
  191.0520  177.4280  140.4790 C   0  0  1  0  0  3  0  0  0  0  0  0
  189.7130  176.7870  140.9180 C   0  0  0  0  0  2  0  0  0  0  0  0
  191.9160  177.4600  141.6550 N   0  0  0  0  0  2  0  0  0  0  0  0
  189.8610  176.5350  142.3420 N   0  0  0  0  0  0  0  0  0  0  0  0
  191.5680  176.9190  143.9140 O   0  0  0  0  0  0  0  0  0  0  0  0
  191.1480  176.9610  142.7300 C   0  0  0  0  0  0  0  0  0  0  0  0
  191.6980  176.6750  139.3620 C   0  0  0  0  0  3  0  0  0  0  0  0
  191.0010  175.9560  138.4860 C   0  0  0  0  0  3  0  0  0  0  0  0
  194.2610  175.5920  137.0370 C   0  0  0  0  0  3  0  0  0  0  0  0
  191.7080  175.2490  137.4290 C   0  0  0  0  0  3  0  0  0  0  0  0
  192.9820  175.4370  137.2400 C   0  0  0  0  0  0  0  0  0  0  0  0
  195.0710  174.6150  136.2210 C   0  0  1  0  0  3  0  0  0  0  0  0
  196.5790  174.7710  134.3530 O   0  0  0  0  0  1  0  0  0  0  0  0
  197.6040  174.6260  136.4910 C   0  0  0  0  0  1  0  0  0  0  0  0
  196.4200  176.5450  135.7560 O   0  0  0  0  0  1  0  0  0  0  0  0
  196.4200  175.1510  135.6890 C   0  0  0  0  0  0  0  0  0  0  0  0
  195.1050  173.1930  136.8000 C   0  0  0  0  0  2  0  0  0  0  0  0
  194.7410  172.1230  135.7800 C   0  0  0  0  0  2  0  0  0  0  0  0
  195.0540  170.4130  137.5380 C   0  0  0  0  0  1  0  0  0  0  0  0
  194.1030  170.9440  136.4840 C   0  0  0  0  0  2  0  0  0  0  0  0
  186.6840  178.8980  142.4740 O   0  0  0  0  0  0  0  0  0  0  0  0
  185.4360  178.8100  141.8480 C   0  0  0  0  0  2  0  0  0  0  0  0
  184.4150  178.0410  139.5960 C   0  0  0  0  0  2  0  0  0  0  0  0
  185.6090  178.4630  140.4090 C   0  0  0  0  0  0  0  0  0  0  0  0
  184.5960  178.4040  138.1160 C   0  0  0  0  0  2  0  0  0  0  0  0
  186.8340  178.4110  139.8760 C   0  0  0  0  0  3  0  0  0  0  0  0
  187.0200  178.0860  138.4500 C   0  0  0  0  0  3  0  0  0  0  0  0
  185.9720  178.0280  137.6210 C   0  0  0  0  0  0  0  0  0  0  0  0
  189.5580  177.4030  134.7710 C   0  0  0  0  0  3  0  0  0  0  0  0
  189.6260  174.9830  134.4490 C   0  0  0  0  0  3  0  0  0  0  0  0
  188.2700  177.2500  135.2830 C   0  0  0  0  0  0  0  0  0  0  0  0
  187.6700  176.0270  135.3850 C   0  0  0  0  0  0  0  0  0  0  0  0
  187.4470  178.2540  135.7410 O   0  0  0  0  0  0  0  0  0  0  0  0
  190.2380  176.2500  134.3470 C   0  0  0  0  0  3  0  0  0  0  0  0
  186.3100  176.1770  135.9660 C   0  0  0  0  0  2  0  0  0  0  0  0
  188.3280  174.8640  134.9720 C   0  0  0  0  0  0  0  0  0  0  0  0
  186.2040  177.7040  136.1810 C   0  0  1  0  0  3  0  0  0  0  0  0
  187.5750  173.2860  135.1110 Cl  0  0  0  0  0  0  0  0  0  0  0  0
  1 38  1  1  0  0  0
  1 16  1  0  0  0  0
  2  1  1  6  0  0  0
  2  4  1  0  0  0  0
  3  2  1  0  0  0  0
  3  5  1  1  0  0  0
  3  4  1  0  0  0  0
  6  7  1  0  0  0  0
  6  5  1  0  0  0  0
  8  7  1  0  0  0  0
  9  8  1  0  0  0  0
 10 11  1  6  0  0  0
 10  9  1  0  0  0  0
 13 12  1  1  0  0  0
 13 10  1  0  0  0  0
 14 13  1  0  0  0  0
 16 15  1  1  0  0  0
 17 16  1  0  0  0  0
 18 24  1  6  0  0  0
 18 19  1  0  0  0  0
 18 20  1  0  0  0  0
 19 21  1  0  0  0  0
 20 23  1  0  0  0  0
 21 23  1  0  0  0  0
 21 17  1  0  0  0  0
 23 22  2  0  0  0  0
 25 24  2  0  0  0  0
 26 28  2  0  0  0  0
 27 25  1  0  0  0  0
 28 27  2  0  0  0  0
 29 34  1  1  0  0  0
 29 26  1  0  0  0  0
 30 33  1  0  0  0  0
 33 32  1  0  0  0  0
 33 29  1  0  0  0  0
 33 31  1  0  0  0  0
 35 37  1  0  0  0  0
 35 34  1  0  0  0  0
 37 36  1  0  0  0  0
 39 38  1  0  0  0  0
 40 41  1  0  0  0  0
 41 39  1  0  0  0  0
 42 40  1  0  0  0  0
 43 41  2  0  0  0  0
 44 43  1  0  0  0  0
 45 42  1  0  0  0  0
 45 44  2  0  0  0  0
 46 48  1  0  0  0  0
 47 53  2  0  0  0  0
 48 49  2  0  0  0  0
 48 50  1  0  0  0  0
 49 52  1  0  0  0  0
 50 54  1  0  0  0  0
 51 47  1  0  0  0  0
 51 46  2  0  0  0  0
 52 54  1  0  0  0  0
 53 55  1  0  0  0  0
 53 49  1  0  0  0  0
 54 45  1  1  0  0  0
M  END
>  <MODEL>
6

>  <REMARK>
 VINA RESULT:      -5.7      4.471      8.845
  Name = 
  22 active torsions:
  status: ('A' for Active; 'I' for Inactive)
    1  A    between atoms: C_2  and  C_22
    2  A    between atoms: C_3  and  O_18
    3  A    between atoms: C_3  and  C_25
    4  A    between atoms: C_3  and  C_53
    5  A    between atoms: C_4  and  C_7
    6  A    between atoms: C_5  and  N_16
    7  A    between atoms: C_5  and  C_53
    8  A    between atoms: C_11  and  C_14
    9  A    between atoms: C_12  and  C_17
   10  A    between atoms: C_12  and  C_45
   11  A    between atoms: C_14  and  O_18
   12  A    between atoms: C_17  and  C_26
   13  A    between atoms: C_19  and  C_38
   14  A    between atoms: C_22  and  C_48
   15  A    between atoms: C_22  and  C_54
   16  A    between atoms: C_26  and  O_31
   17  A    between atoms: O_31  and  C_44
   18  A    between atoms: C_33  and  C_39
   19  A    between atoms: C_35  and  C_52
   20  A    between atoms: C_39  and  C_44
   21  A    between atoms: C_40  and  C_41
   22  A    between atoms: C_40  and  C_54
                            x       y       z     vdW  Elec       q    Type
                         _______ _______ _______ _____ _____    ______ ____

>  <TORSDO>
F 22

$$$$
=
 OpenBabel10232407473D

 55 59  0  0  1  0  0  0  0  0999 V2000
  188.0660  177.0180  144.6970 C   0  0  2  0  0  3  0  0  0  0  0  0
  186.8750  177.1120  145.6780 C   0  0  2  0  0  3  0  0  0  0  0  0
  186.6190  178.5160  146.0900 C   0  0  2  0  0  3  0  0  0  0  0  0
  187.2550  177.5960  146.9470 O   0  0  0  0  0  0  0  0  0  0  0  0
  185.1570  178.6700  146.4800 C   0  0  0  0  0  2  0  0  0  0  0  0
  184.3540  179.3280  145.3680 C   0  0  0  0  0  2  0  0  0  0  0  0
  183.4370  178.4150  144.8310 O   0  0  0  0  0  0  0  0  0  0  0  0
  182.7010  179.1700  143.9180 C   0  0  0  0  0  2  0  0  0  0  0  0
  181.2400  178.7420  143.9390 C   0  0  0  0  0  2  0  0  0  0  0  0
  180.4770  179.2870  142.7340 C   0  0  1  0  0  3  0  0  0  0  0  0
  180.3290  180.6710  142.8540 O   0  0  0  0  0  1  0  0  0  0  0  0
  180.7630  179.8850  140.2930 C   0  0  0  0  0  1  0  0  0  0  0  0
  181.1570  178.9320  141.4130 C   0  0  2  0  0  3  0  0  0  0  0  0
  180.8310  177.6260  141.0450 O   0  0  0  0  0  1  0  0  0  0  0  0
  189.3730  176.6230  146.6720 O   0  0  0  0  0  1  0  0  0  0  0  0
  189.4590  177.0520  145.3490 C   0  0  1  0  0  3  0  0  0  0  0  0
  190.4350  176.1610  144.5970 C   0  0  0  0  0  2  0  0  0  0  0  0
  190.7190  177.4230  141.0500 C   0  0  1  0  0  3  0  0  0  0  0  0
  190.4650  176.2560  142.0340 C   0  0  0  0  0  2  0  0  0  0  0  0
  191.2650  178.5290  141.8320 N   0  0  0  0  0  2  0  0  0  0  0  0
  190.8280  176.7750  143.3430 N   0  0  0  0  0  0  0  0  0  0  0  0
  191.6100  178.8480  144.1330 O   0  0  0  0  0  0  0  0  0  0  0  0
  191.2670  178.1050  143.1780 C   0  0  0  0  0  0  0  0  0  0  0  0
  191.6510  177.0380  139.9480 C   0  0  0  0  0  3  0  0  0  0  0  0
  191.2490  176.8940  138.6880 C   0  0  0  0  0  3  0  0  0  0  0  0
  193.9550  174.6160  138.0980 C   0  0  0  0  0  3  0  0  0  0  0  0
  192.2200  176.5130  137.6740 C   0  0  0  0  0  3  0  0  0  0  0  0
  193.0860  175.5680  137.9030 C   0  0  0  0  0  0  0  0  0  0  0  0
  194.7000  173.9600  136.9610 C   0  0  1  0  0  3  0  0  0  0  0  0
  196.8210  173.3190  136.0270 O   0  0  0  0  0  1  0  0  0  0  0  0
  196.8530  173.9310  138.3220 C   0  0  0  0  0  1  0  0  0  0  0  0
  196.5030  175.4960  136.5740 O   0  0  0  0  0  1  0  0  0  0  0  0
  196.2300  174.1820  136.9540 C   0  0  0  0  0  0  0  0  0  0  0  0
  194.2360  172.5300  136.6510 C   0  0  0  0  0  2  0  0  0  0  0  0
  193.5160  172.4110  135.3150 C   0  0  0  0  0  2  0  0  0  0  0  0
  191.4780  173.7900  135.0640 C   0  0  0  0  0  1  0  0  0  0  0  0
  192.0180  172.4560  135.5390 C   0  0  0  0  0  2  0  0  0  0  0  0
  187.9550  178.0120  143.7120 O   0  0  0  0  0  0  0  0  0  0  0  0
  186.6010  178.0390  143.3580 C   0  0  0  0  0  2  0  0  0  0  0  0
  185.0920  178.0530  141.2540 C   0  0  0  0  0  2  0  0  0  0  0  0
  186.4620  178.0920  141.8750 C   0  0  0  0  0  0  0  0  0  0  0  0
  185.0710  178.7940  139.9100 C   0  0  0  0  0  2  0  0  0  0  0  0
  187.5500  178.0550  141.0990 C   0  0  0  0  0  3  0  0  0  0  0  0
  187.4300  178.1250  139.6320 C   0  0  0  0  0  3  0  0  0  0  0  0
  186.2590  178.4200  139.0560 C   0  0  0  0  0  0  0  0  0  0  0  0
  189.0430  177.7300  135.4300 C   0  0  0  0  0  3  0  0  0  0  0  0
  188.2910  175.5920  134.5220 C   0  0  0  0  0  3  0  0  0  0  0  0
  187.8540  177.7850  136.1570 C   0  0  0  0  0  0  0  0  0  0  0  0
  186.9140  176.7960  136.0860 C   0  0  0  0  0  0  0  0  0  0  0  0
  187.4640  178.7900  137.0130 O   0  0  0  0  0  0  0  0  0  0  0  0
  189.2570  176.6170  134.6010 C   0  0  0  0  0  3  0  0  0  0  0  0
  185.7640  177.1270  136.9680 C   0  0  0  0  0  2  0  0  0  0  0  0
  187.1050  175.6770  135.2700 C   0  0  0  0  0  0  0  0  0  0  0  0
  186.1810  178.4900  137.5650 C   0  0  1  0  0  3  0  0  0  0  0  0
  185.9130  174.3930  135.1810 Cl  0  0  0  0  0  0  0  0  0  0  0  0
  1 38  1  6  0  0  0
  1 16  1  0  0  0  0
  2  1  1  6  0  0  0
  2  3  1  0  0  0  0
  2  4  1  0  0  0  0
  3  5  1  1  0  0  0
  3  4  1  0  0  0  0
  6  5  1  0  0  0  0
  7  6  1  0  0  0  0
  8  9  1  0  0  0  0
  8  7  1  0  0  0  0
 10 11  1  1  0  0  0
 10  9  1  0  0  0  0
 13 12  1  6  0  0  0
 13 10  1  0  0  0  0
 14 13  1  0  0  0  0
 16 15  1  1  0  0  0
 17 16  1  0  0  0  0
 18 24  1  6  0  0  0
 18 20  1  0  0  0  0
 18 19  1  0  0  0  0
 19 21  1  0  0  0  0
 20 23  1  0  0  0  0
 21 17  1  0  0  0  0
 23 21  1  0  0  0  0
 23 22  2  0  0  0  0
 25 24  2  0  0  0  0
 27 28  2  0  0  0  0
 27 25  1  0  0  0  0
 28 26  2  0  0  0  0
 29 34  1  1  0  0  0
 29 26  1  0  0  0  0
 30 33  1  0  0  0  0
 32 33  1  0  0  0  0
 33 29  1  0  0  0  0
 33 31  1  0  0  0  0
 35 37  1  0  0  0  0
 35 34  1  0  0  0  0
 36 37  1  0  0  0  0
 39 38  1  0  0  0  0
 40 41  1  0  0  0  0
 41 39  1  0  0  0  0
 42 40  1  0  0  0  0
 43 41  2  0  0  0  0
 44 43  1  0  0  0  0
 45 44  2  0  0  0  0
 45 42  1  0  0  0  0
 46 48  1  0  0  0  0
 47 51  1  0  0  0  0
 47 53  2  0  0  0  0
 48 50  1  0  0  0  0
 49 48  2  0  0  0  0
 49 52  1  0  0  0  0
 50 54  1  0  0  0  0
 51 46  2  0  0  0  0
 52 54  1  0  0  0  0
 53 49  1  0  0  0  0
 54 45  1  1  0  0  0
 55 53  1  0  0  0  0
M  END
>  <MODEL>
7

>  <REMARK>
 VINA RESULT:      -5.3      3.999      8.174
  Name = 
  22 active torsions:
  status: ('A' for Active; 'I' for Inactive)
    1  A    between atoms: C_2  and  C_22
    2  A    between atoms: C_3  and  O_18
    3  A    between atoms: C_3  and  C_25
    4  A    between atoms: C_3  and  C_53
    5  A    between atoms: C_4  and  C_7
    6  A    between atoms: C_5  and  N_16
    7  A    between atoms: C_5  and  C_53
    8  A    between atoms: C_11  and  C_14
    9  A    between atoms: C_12  and  C_17
   10  A    between atoms: C_12  and  C_45
   11  A    between atoms: C_14  and  O_18
   12  A    between atoms: C_17  and  C_26
   13  A    between atoms: C_19  and  C_38
   14  A    between atoms: C_22  and  C_48
   15  A    between atoms: C_22  and  C_54
   16  A    between atoms: C_26  and  O_31
   17  A    between atoms: O_31  and  C_44
   18  A    between atoms: C_33  and  C_39
   19  A    between atoms: C_35  and  C_52
   20  A    between atoms: C_39  and  C_44
   21  A    between atoms: C_40  and  C_41
   22  A    between atoms: C_40  and  C_54
                            x       y       z     vdW  Elec       q    Type
                         _______ _______ _______ _____ _____    ______ ____

>  <TORSDO>
F 22

$$$$
=
 OpenBabel10232407473D

 55 59  0  0  1  0  0  0  0  0999 V2000
  185.7750  177.9310  144.1650 C   0  0  2  0  0  3  0  0  0  0  0  0
  185.5770  178.8850  145.3640 C   0  0  2  0  0  3  0  0  0  0  0  0
  185.4880  178.1380  146.6460 C   0  0  2  0  0  3  0  0  0  0  0  0
  184.3460  178.6800  146.0220 O   0  0  0  0  0  0  0  0  0  0  0  0
  185.9380  179.0380  147.7870 C   0  0  0  0  0  2  0  0  0  0  0  0
  187.3540  178.7040  148.2300 C   0  0  0  0  0  2  0  0  0  0  0  0
  187.6180  177.3460  148.0150 O   0  0  0  0  0  0  0  0  0  0  0  0
  188.9850  177.2210  148.2640 C   0  0  0  0  0  2  0  0  0  0  0  0
  189.7810  177.5810  147.0180 C   0  0  0  0  0  2  0  0  0  0  0  0
  191.2750  177.3270  147.2110 C   0  0  1  0  0  3  0  0  0  0  0  0
  191.6750  177.7910  148.4670 O   0  0  0  0  0  1  0  0  0  0  0  0
  192.7240  175.4160  148.0120 C   0  0  0  0  0  1  0  0  0  0  0  0
  191.6340  175.8520  147.0450 C   0  0  2  0  0  3  0  0  0  0  0  0
  192.0520  175.6080  145.7360 O   0  0  0  0  0  1  0  0  0  0  0  0
  187.1730  176.2530  143.1660 O   0  0  0  0  0  1  0  0  0  0  0  0
  187.1970  177.3660  144.0040 C   0  0  1  0  0  3  0  0  0  0  0  0
  188.1350  178.4110  143.4200 C   0  0  0  0  0  2  0  0  0  0  0  0
  188.9970  178.2390  139.7480 C   0  0  1  0  0  3  0  0  0  0  0  0
  187.9880  178.5960  140.8660 C   0  0  0  0  0  2  0  0  0  0  0  0
  190.0560  177.4480  140.3660 N   0  0  0  0  0  2  0  0  0  0  0  0
  188.5530  178.0350  142.0820 N   0  0  0  0  0  0  0  0  0  0  0  0
  190.5200  176.8490  142.5890 O   0  0  0  0  0  0  0  0  0  0  0  0
  189.7640  177.3960  141.7460 C   0  0  0  0  0  0  0  0  0  0  0  0
  188.3550  177.4880  138.6280 C   0  0  0  0  0  3  0  0  0  0  0  0
  187.0370  177.4470  138.4560 C   0  0  0  0  0  3  0  0  0  0  0  0
  187.8880  174.8520  136.1320 C   0  0  0  0  0  3  0  0  0  0  0  0
  186.4910  176.6900  137.3400 C   0  0  0  0  0  3  0  0  0  0  0  0
  187.2040  175.7800  136.7410 C   0  0  0  0  0  0  0  0  0  0  0  0
  187.2340  173.8180  135.2480 C   0  0  1  0  0  3  0  0  0  0  0  0
  187.2380  171.5890  134.3460 O   0  0  0  0  0  1  0  0  0  0  0  0
  188.1380  171.8130  136.5330 C   0  0  0  0  0  1  0  0  0  0  0  0
  189.2260  172.6480  134.5990 O   0  0  0  0  0  1  0  0  0  0  0  0
  187.9650  172.4580  135.1640 C   0  0  0  0  0  0  0  0  0  0  0  0
  185.7070  173.7420  135.3980 C   0  0  0  0  0  2  0  0  0  0  0  0
  185.1650  172.3250  135.2740 C   0  0  0  0  0  2  0  0  0  0  0  0
  183.2790  171.0330  136.2160 C   0  0  0  0  0  1  0  0  0  0  0  0
  184.4450  171.9420  136.5500 C   0  0  0  0  0  2  0  0  0  0  0  0
  185.3530  178.5550  142.9810 O   0  0  0  0  0  0  0  0  0  0  0  0
  184.0020  178.8610  143.1800 C   0  0  0  0  0  2  0  0  0  0  0  0
  183.9380  178.1200  140.7000 C   0  0  0  0  0  2  0  0  0  0  0  0
  183.2180  178.5320  141.9560 C   0  0  0  0  0  0  0  0  0  0  0  0
  183.0690  177.1880  139.8440 C   0  0  0  0  0  2  0  0  0  0  0  0
  181.8950  178.7170  141.9390 C   0  0  0  0  0  3  0  0  0  0  0  0
  181.1030  178.3800  140.7420 C   0  0  0  0  0  3  0  0  0  0  0  0
  181.6560  177.7070  139.7260 C   0  0  0  0  0  0  0  0  0  0  0  0
  182.2820  176.3920  135.3380 C   0  0  0  0  0  3  0  0  0  0  0  0
  181.6860  174.0240  135.3540 C   0  0  0  0  0  3  0  0  0  0  0  0
  181.6520  176.5090  136.5770 C   0  0  0  0  0  0  0  0  0  0  0  0
  181.0620  175.4430  137.1940 C   0  0  0  0  0  0  0  0  0  0  0  0
  181.5330  177.6560  137.3290 O   0  0  0  0  0  0  0  0  0  0  0  0
  182.2930  175.1290  134.7230 C   0  0  0  0  0  3  0  0  0  0  0  0
  180.4790  175.8700  138.4930 C   0  0  0  0  0  2  0  0  0  0  0  0
  181.0620  174.1760  136.6030 C   0  0  0  0  0  0  0  0  0  0  0  0
  180.8170  177.3770  138.5340 C   0  0  1  0  0  3  0  0  0  0  0  0
  180.3200  172.7950  137.3920 Cl  0  0  0  0  0  0  0  0  0  0  0  0
  1 38  1  6  0  0  0
  2  1  1  6  0  0  0
  2  4  1  0  0  0  0
  2  3  1  0  0  0  0
  3  5  1  1  0  0  0
  4  3  1  0  0  0  0
  5  6  1  0  0  0  0
  7  6  1  0  0  0  0
  7  8  1  0  0  0  0
  9 10  1  0  0  0  0
  9  8  1  0  0  0  0
 10 11  1  1  0  0  0
 13 10  1  0  0  0  0
 13 12  1  1  0  0  0
 14 13  1  0  0  0  0
 16 15  1  6  0  0  0
 16  1  1  0  0  0  0
 17 16  1  0  0  0  0
 18 24  1  6  0  0  0
 18 20  1  0  0  0  0
 18 19  1  0  0  0  0
 19 21  1  0  0  0  0
 20 23  1  0  0  0  0
 21 17  1  0  0  0  0
 23 21  1  0  0  0  0
 23 22  2  0  0  0  0
 25 24  2  0  0  0  0
 26 28  2  0  0  0  0
 27 25  1  0  0  0  0
 28 27  2  0  0  0  0
 29 34  1  1  0  0  0
 29 26  1  0  0  0  0
 30 33  1  0  0  0  0
 32 33  1  0  0  0  0
 33 29  1  0  0  0  0
 33 31  1  0  0  0  0
 35 34  1  0  0  0  0
 35 37  1  0  0  0  0
 36 37  1  0  0  0  0
 38 39  1  0  0  0  0
 40 41  1  0  0  0  0
 41 39  1  0  0  0  0
 42 40  1  0  0  0  0
 43 41  2  0  0  0  0
 44 43  1  0  0  0  0
 45 42  1  0  0  0  0
 45 44  2  0  0  0  0
 46 48  1  0  0  0  0
 47 53  2  0  0  0  0
 48 49  2  0  0  0  0
 48 50  1  0  0  0  0
 49 52  1  0  0  0  0
 50 54  1  0  0  0  0
 51 46  2  0  0  0  0
 51 47  1  0  0  0  0
 52 54  1  0  0  0  0
 53 49  1  0  0  0  0
 53 55  1  0  0  0  0
 54 45  1  1  0  0  0
M  END
>  <MODEL>
8

>  <REMARK>
 VINA RESULT:      -5.3      2.403      3.618
  Name = 
  22 active torsions:
  status: ('A' for Active; 'I' for Inactive)
    1  A    between atoms: C_2  and  C_22
    2  A    between atoms: C_3  and  O_18
    3  A    between atoms: C_3  and  C_25
    4  A    between atoms: C_3  and  C_53
    5  A    between atoms: C_4  and  C_7
    6  A    between atoms: C_5  and  N_16
    7  A    between atoms: C_5  and  C_53
    8  A    between atoms: C_11  and  C_14
    9  A    between atoms: C_12  and  C_17
   10  A    between atoms: C_12  and  C_45
   11  A    between atoms: C_14  and  O_18
   12  A    between atoms: C_17  and  C_26
   13  A    between atoms: C_19  and  C_38
   14  A    between atoms: C_22  and  C_48
   15  A    between atoms: C_22  and  C_54
   16  A    between atoms: C_26  and  O_31
   17  A    between atoms: O_31  and  C_44
   18  A    between atoms: C_33  and  C_39
   19  A    between atoms: C_35  and  C_52
   20  A    between atoms: C_39  and  C_44
   21  A    between atoms: C_40  and  C_41
   22  A    between atoms: C_40  and  C_54
                            x       y       z     vdW  Elec       q    Type
                         _______ _______ _______ _____ _____    ______ ____

>  <TORSDO>
F 22

$$$$
=
 OpenBabel10232407473D

 55 59  0  0  1  0  0  0  0  0999 V2000
  190.6630  175.3220  136.0110 C   0  0  2  0  0  3  0  0  0  0  0  0
  190.2900  174.0450  135.2240 C   0  0  2  0  0  3  0  0  0  0  0  0
  189.3640  173.1790  135.9990 C   0  0  2  0  0  3  0  0  0  0  0  0
  190.7310  172.8670  135.8620 O   0  0  0  0  0  0  0  0  0  0  0  0
  188.5360  172.3380  135.0380 C   0  0  0  0  0  2  0  0  0  0  0  0
  189.0730  170.9190  134.9400 C   0  0  0  0  0  2  0  0  0  0  0  0
  188.1320  170.0120  135.4450 O   0  0  0  0  0  0  0  0  0  0  0  0
  186.9010  170.6010  135.1530 C   0  0  0  0  0  2  0  0  0  0  0  0
  185.8570  169.5290  134.8780 C   0  0  0  0  0  2  0  0  0  0  0  0
  184.4440  170.0340  135.1590 C   0  0  1  0  0  3  0  0  0  0  0  0
  183.8730  169.2910  136.1960 O   0  0  0  0  0  1  0  0  0  0  0  0
  183.6990  171.8070  136.8010 C   0  0  0  0  0  1  0  0  0  0  0  0
  184.4210  171.5240  135.4920 C   0  0  2  0  0  3  0  0  0  0  0  0
  183.8020  172.2330  134.4610 O   0  0  0  0  0  1  0  0  0  0  0  0
  192.8620  174.4470  136.4170 O   0  0  0  0  0  1  0  0  0  0  0  0
  191.8240  175.1630  137.0080 C   0  0  1  0  0  3  0  0  0  0  0  0
  192.3460  176.5190  137.4570 C   0  0  0  0  0  2  0  0  0  0  0  0
  190.8100  176.5360  140.9060 C   0  0  1  0  0  3  0  0  0  0  0  0
  190.6700  176.2880  139.3850 C   0  0  0  0  0  2  0  0  0  0  0  0
  192.0650  177.2550  141.1070 N   0  0  0  0  0  2  0  0  0  0  0  0
  191.8840  176.8290  138.7960 N   0  0  0  0  0  0  0  0  0  0  0  0
  193.8110  177.8660  139.6600 O   0  0  0  0  0  0  0  0  0  0  0  0
  192.6730  177.3610  139.8370 C   0  0  0  0  0  0  0  0  0  0  0  0
  189.6580  177.3100  141.4580 C   0  0  0  0  0  3  0  0  0  0  0  0
  189.0260  176.9560  142.5740 C   0  0  0  0  0  3  0  0  0  0  0  0
  186.2360  178.8660  141.3790 C   0  0  0  0  0  3  0  0  0  0  0  0
  187.9110  177.7630  143.0430 C   0  0  0  0  0  3  0  0  0  0  0  0
  187.0870  178.3140  142.1990 C   0  0  0  0  0  0  0  0  0  0  0  0
  184.8910  179.3740  141.8350 C   0  0  1  0  0  3  0  0  0  0  0  0
  183.9270  177.2920  141.1130 O   0  0  0  0  0  1  0  0  0  0  0  0
  183.3280  179.2000  139.8320 C   0  0  0  0  0  1  0  0  0  0  0  0
  182.5600  178.8410  142.0470 O   0  0  0  0  0  1  0  0  0  0  0  0
  183.6660  178.6610  141.2160 C   0  0  0  0  0  0  0  0  0  0  0  0
  184.8050  179.6500  143.3440 C   0  0  0  0  0  2  0  0  0  0  0  0
  184.5140  178.4010  144.1640 C   0  0  0  0  0  2  0  0  0  0  0  0
  185.4340  178.1960  146.4500 C   0  0  0  0  0  1  0  0  0  0  0  0
  184.3130  178.7810  145.6160 C   0  0  0  0  0  2  0  0  0  0  0  0
  189.5260  175.8390  136.6520 O   0  0  0  0  0  0  0  0  0  0  0  0
  188.8210  176.5310  135.6610 C   0  0  0  0  0  2  0  0  0  0  0  0
  186.6250  177.0300  136.9400 C   0  0  0  0  0  2  0  0  0  0  0  0
  187.3560  176.3180  135.8340 C   0  0  0  0  0  0  0  0  0  0  0  0
  185.1570  177.2730  136.5660 C   0  0  0  0  0  2  0  0  0  0  0  0
  186.7200  175.4090  135.0870 C   0  0  0  0  0  3  0  0  0  0  0  0
  185.2680  175.1990  135.2340 C   0  0  0  0  0  3  0  0  0  0  0  0
  184.5280  176.0370  135.9680 C   0  0  0  0  0  0  0  0  0  0  0  0
  181.3720  175.5760  139.3150 C   0  0  0  0  0  3  0  0  0  0  0  0
  180.1580  177.6940  139.2610 C   0  0  0  0  0  3  0  0  0  0  0  0
  181.8920  175.8970  138.0610 C   0  0  0  0  0  0  0  0  0  0  0  0
  181.5730  177.0600  137.4200 C   0  0  0  0  0  0  0  0  0  0  0  0
  182.7590  175.1320  137.3150 O   0  0  0  0  0  0  0  0  0  0  0  0
  180.4920  176.4910  139.9160 C   0  0  0  0  0  3  0  0  0  0  0  0
  182.2760  177.1260  136.1120 C   0  0  0  0  0  2  0  0  0  0  0  0
  180.7020  177.9880  137.9990 C   0  0  0  0  0  0  0  0  0  0  0  0
  183.0580  175.7930  136.0850 C   0  0  1  0  0  3  0  0  0  0  0  0
  180.2960  179.4930  137.1930 Cl  0  0  0  0  0  0  0  0  0  0  0  0
  1 38  1  1  0  0  0
  1 16  1  0  0  0  0
  2  4  1  0  0  0  0
  2  3  1  0  0  0  0
  2  1  1  1  0  0  0
  3  5  1  6  0  0  0
  4  3  1  0  0  0  0
  6  5  1  0  0  0  0
  6  7  1  0  0  0  0
  8  7  1  0  0  0  0
  9  8  1  0  0  0  0
  9 10  1  0  0  0  0
 10 13  1  0  0  0  0
 10 11  1  1  0  0  0
 13 12  1  1  0  0  0
 14 13  1  0  0  0  0
 16 15  1  6  0  0  0
 16 17  1  0  0  0  0
 17 21  1  0  0  0  0
 18 20  1  0  0  0  0
 18 24  1  6  0  0  0
 19 18  1  0  0  0  0
 21 19  1  0  0  0  0
 21 23  1  0  0  0  0
 22 23  2  0  0  0  0
 23 20  1  0  0  0  0
 24 25  2  0  0  0  0
 25 27  1  0  0  0  0
 26 28  2  0  0  0  0
 28 27  2  0  0  0  0
 29 26  1  1  0  0  0
 29 34  1  0  0  0  0
 30 33  1  0  0  0  0
 31 33  1  0  0  0  0
 33 29  1  0  0  0  0
 33 32  1  0  0  0  0
 34 35  1  0  0  0  0
 35 37  1  0  0  0  0
 37 36  1  0  0  0  0
 39 41  1  0  0  0  0
 39 38  1  0  0  0  0
 41 40  1  0  0  0  0
 42 40  1  0  0  0  0
 43 44  1  0  0  0  0
 43 41  2  0  0  0  0
 44 45  2  0  0  0  0
 45 42  1  0  0  0  0
 46 51  1  0  0  0  0
 47 51  2  0  0  0  0
 48 46  2  0  0  0  0
 49 53  2  0  0  0  0
 49 48  1  0  0  0  0
 50 48  1  0  0  0  0
 52 49  1  0  0  0  0
 53 47  1  0  0  0  0
 54 45  1  1  0  0  0
 54 52  1  0  0  0  0
 54 50  1  0  0  0  0
 55 53  1  0  0  0  0
M  END
>  <MODEL>
9

>  <REMARK>
 VINA RESULT:      -5.3      3.069      8.886
  Name = 
  22 active torsions:
  status: ('A' for Active; 'I' for Inactive)
    1  A    between atoms: C_2  and  C_22
    2  A    between atoms: C_3  and  O_18
    3  A    between atoms: C_3  and  C_25
    4  A    between atoms: C_3  and  C_53
    5  A    between atoms: C_4  and  C_7
    6  A    between atoms: C_5  and  N_16
    7  A    between atoms: C_5  and  C_53
    8  A    between atoms: C_11  and  C_14
    9  A    between atoms: C_12  and  C_17
   10  A    between atoms: C_12  and  C_45
   11  A    between atoms: C_14  and  O_18
   12  A    between atoms: C_17  and  C_26
   13  A    between atoms: C_19  and  C_38
   14  A    between atoms: C_22  and  C_48
   15  A    between atoms: C_22  and  C_54
   16  A    between atoms: C_26  and  O_31
   17  A    between atoms: O_31  and  C_44
   18  A    between atoms: C_33  and  C_39
   19  A    between atoms: C_35  and  C_52
   20  A    between atoms: C_39  and  C_44
   21  A    between atoms: C_40  and  C_41
   22  A    between atoms: C_40  and  C_54
                            x       y       z     vdW  Elec       q    Type
                         _______ _______ _______ _____ _____    ______ ____

>  <TORSDO>
F 22

$$$$
