=
 OpenBabel10232408303D

 45 52  0  0  1  0  0  0  0  0999 V2000
  189.4830  177.1100  140.7970 C   0  0  0  0  0  3  0  0  0  0  0  0
  189.6100  177.5940  145.0890 C   0  0  1  0  0  3  0  0  0  0  0  0
  189.3550  176.8340  146.3040 N   0  0  0  0  0  2  0  0  0  0  0  0
  190.4110  176.7460  139.9060 C   0  0  0  0  0  3  0  0  0  0  0  0
  189.8770  177.9650  141.9770 C   0  0  0  0  0  0  0  0  0  0  0  0
  191.7800  177.5690  143.6730 C   0  0  0  0  0  2  0  0  0  0  0  0
  191.3070  177.7040  142.4240 C   0  0  0  0  0  0  0  0  0  0  0  0
  191.0420  177.5500  144.9050 N   0  0  2  0  0  0  0  0  0  0  0  0
  187.5260  176.7720  144.2790 C   0  0  0  0  0  2  0  0  0  0  0  0
  188.8770  178.1490  143.0330 N   0  0  0  0  0  0  0  0  0  0  0  0
  191.7050  177.1710  146.0730 N   0  0  0  0  0  2  0  0  0  0  0  0
  186.6560  177.2940  143.1690 C   0  0  2  0  0  3  0  0  0  0  0  0
  187.5300  178.3010  142.4850 C   0  0  0  0  0  2  0  0  0  0  0  0
  192.2690  177.4800  141.3350 C   0  0  0  0  0  3  0  0  0  0  0  0
  191.8470  177.0640  140.1340 C   0  0  0  0  0  0  0  0  0  0  0  0
  188.9080  177.0590  143.9210 N   0  0  1  0  0  0  0  0  0  0  0  0
  190.6320  176.8740  147.0180 C   0  0  0  0  0  2  0  0  0  0  0  0
  185.4850  177.9580  143.7470 C   0  0  0  0  0  0  0  0  0  0  0  0
  184.5080  178.4850  144.2200 C   0  0  0  0  0  0  0  0  0  0  0  0
  183.2960  179.0940  144.7640 C   0  0  0  0  0  2  0  0  0  0  0  0
  182.4130  179.6040  143.6360 C   0  0  0  0  0  2  0  0  0  0  0  0
  181.7320  178.4470  142.8970 C   0  0  1  0  0  3  0  0  0  0  0  0
  180.4360  178.2980  143.3870 O   0  0  0  0  0  1  0  0  0  0  0  0
  183.2310  179.4700  139.4970 C   0  0  0  0  0  0  0  0  0  0  0  0
  183.8470  177.6410  140.8790 O   0  0  0  0  0  1  0  0  0  0  0  0
  180.7860  179.8670  139.4280 C   0  0  0  0  0  2  0  0  0  0  0  0
  180.8150  179.7810  140.9520 C   0  0  0  0  0  2  0  0  0  0  0  0
  184.4690  179.5710  138.8920 O   0  0  0  0  0  1  0  0  0  0  0  0
  183.1360  178.8400  140.8700 C   0  0  2  0  0  3  0  0  0  0  0  0
  181.7030  178.6100  141.3720 C   0  0  1  0  0  3  0  0  0  0  0  0
  182.1700  179.9710  138.8680 C   0  0  0  0  0  3  0  0  0  0  0  0
  192.8240  176.8200  139.1240 N   0  0  0  0  0  2  0  0  0  0  0  0
  192.5020  176.7660  137.7590 N   0  0  0  0  0  0  0  0  0  0  0  0
  192.8160  175.7320  137.0410 C   0  0  0  0  0  3  0  0  0  0  0  0
  194.8960  173.2580  136.5940 C   0  0  1  0  0  0  0  0  0  0  0  0
  193.5260  174.5560  137.6460 C   0  0  1  0  0  3  0  0  0  0  0  0
  195.5620  175.5770  136.5680 O   0  0  0  0  0  1  0  0  0  0  0  0
  195.8700  173.3610  137.7580 C   0  0  2  0  0  3  0  0  0  0  0  0
  193.3840  173.3180  136.7950 C   0  0  0  0  0  2  0  0  0  0  0  0
  195.0320  174.5760  137.3990 C   0  0  2  0  0  0  0  0  0  0  0  0
  195.3480  173.4130  135.2760 O   0  0  0  0  0  1  0  0  0  0  0  0
  197.3690  173.5930  137.4910 C   0  0  2  0  0  0  0  0  0  0  0  0
  198.1810  172.3970  137.2110 C   0  0  0  0  0  2  0  0  0  0  0  0
  198.0990  174.6660  138.2750 C   0  0  0  0  0  1  0  0  0  0  0  0
  197.8890  173.3500  136.2190 O   0  0  0  0  0  0  0  0  0  0  0  0
  1  5  1  0  0  0  0
  2  3  1  1  0  0  0
  3 17  1  0  0  0  0
  4 15  1  0  0  0  0
  4  1  2  0  0  0  0
  5  7  2  0  0  0  0
  5 10  1  0  0  0  0
  7  6  1  0  0  0  0
  8  6  1  6  0  0  0
  8  2  1  0  0  0  0
  8 11  1  0  0  0  0
 10 16  1  0  0  0  0
 11 17  1  0  0  0  0
 12 18  1  1  0  0  0
 12  9  1  0  0  0  0
 13 10  1  0  0  0  0
 13 12  1  0  0  0  0
 14  7  1  0  0  0  0
 15 14  2  0  0  0  0
 16  9  1  1  0  0  0
 16  2  1  0  0  0  0
 18 19  3  0  0  0  0
 19 20  1  0  0  0  0
 21 20  1  0  0  0  0
 22 23  1  1  0  0  0
 22 21  1  0  0  0  0
 24 29  1  0  0  0  0
 26 27  1  0  0  0  0
 27 30  1  0  0  0  0
 28 24  1  0  0  0  0
 29 25  1  6  0  0  0
 29 30  1  0  0  0  0
 30 22  1  1  0  0  0
 31 26  1  0  0  0  0
 31 24  2  0  0  0  0
 32 15  1  0  0  0  0
 33 32  1  0  0  0  0
 34 33  2  0  0  0  0
 35 41  1  6  0  0  0
 35 39  1  0  0  0  0
 35 40  1  0  0  0  0
 35 38  1  0  0  0  0
 36 34  1  6  0  0  0
 38 42  1  6  0  0  0
 39 36  1  0  0  0  0
 40 37  1  6  0  0  0
 40 36  1  0  0  0  0
 40 38  1  0  0  0  0
 42 44  1  1  0  0  0
 43 42  1  0  0  0  0
 45 43  1  0  0  0  0
 45 42  1  0  0  0  0
M  END
>  <MODEL>
1

>  <REMARK>
 VINA RESULT:      -8.8      0.000      0.000
  Name = 
  9 active torsions:
  status: ('A' for Active; 'I' for Inactive)
    1  A    between atoms: C_1  and  C_36
    2  A    between atoms: C_1  and  C_39
    3  A    between atoms: C_2  and  C_39
    4  A    between atoms: C_2  and  C_45
    5  A    between atoms: C_7  and  C_24
    6  A    between atoms: C_13  and  C_16
    7  A    between atoms: N_22  and  N_44
    8  A    between atoms: C_29  and  C_43
    9  A    between atoms: C_35  and  N_44
                            x       y       z     vdW  Elec       q    Type
                         _______ _______ _______ _____ _____    ______ ____

>  <TORSDO>
F 9

$$$$
=
 OpenBabel10232408303D

 45 52  0  0  1  0  0  0  0  0999 V2000
  191.6950  177.0370  139.3030 C   0  0  0  0  0  3  0  0  0  0  0  0
  187.6390  176.9210  137.8150 C   0  0  1  0  0  3  0  0  0  0  0  0
  186.6050  177.8220  137.3290 N   0  0  0  0  0  2  0  0  0  0  0  0
  192.8780  176.9120  138.6940 C   0  0  0  0  0  3  0  0  0  0  0  0
  190.5260  176.2020  138.8370 C   0  0  0  0  0  0  0  0  0  0  0  0
  189.6050  175.9370  136.4430 C   0  0  0  0  0  2  0  0  0  0  0  0
  190.5940  175.8970  137.3490 C   0  0  0  0  0  0  0  0  0  0  0  0
  188.2460  176.3620  136.6290 N   0  0  2  0  0  0  0  0  0  0  0  0
  187.9550  178.4450  139.6170 C   0  0  0  0  0  2  0  0  0  0  0  0
  189.2070  176.5350  139.3850 N   0  0  0  0  0  0  0  0  0  0  0  0
  187.4420  176.5390  135.5010 N   0  0  0  0  0  2  0  0  0  0  0  0
  188.6110  178.2280  140.9530 C   0  0  2  0  0  3  0  0  0  0  0  0
  189.2820  176.8970  140.7990 C   0  0  0  0  0  2  0  0  0  0  0  0
  191.9400  175.6140  136.8320 C   0  0  0  0  0  3  0  0  0  0  0  0
  193.0230  176.0590  137.4830 C   0  0  0  0  0  0  0  0  0  0  0  0
  188.6340  177.5910  138.6540 N   0  0  1  0  0  0  0  0  0  0  0  0
  186.3120  177.3280  135.9820 C   0  0  0  0  0  2  0  0  0  0  0  0
  187.5780  178.1510  141.9890 C   0  0  0  0  0  0  0  0  0  0  0  0
  186.7410  178.1010  142.8570 C   0  0  0  0  0  0  0  0  0  0  0  0
  185.7630  178.0480  143.9420 C   0  0  0  0  0  2  0  0  0  0  0  0
  186.3450  177.3060  145.1350 C   0  0  0  0  0  2  0  0  0  0  0  0
  187.5910  178.0160  145.6770 C   0  0  1  0  0  3  0  0  0  0  0  0
  187.3660  178.3750  147.0040 O   0  0  0  0  0  1  0  0  0  0  0  0
  191.0830  176.8790  146.8440 C   0  0  0  0  0  0  0  0  0  0  0  0
  188.9800  176.4030  147.8360 O   0  0  0  0  0  1  0  0  0  0  0  0
  191.0320  176.8360  144.3670 C   0  0  0  0  0  2  0  0  0  0  0  0
  189.7920  177.7210  144.4630 C   0  0  0  0  0  2  0  0  0  0  0  0
  191.7930  176.7350  148.0210 O   0  0  0  0  0  1  0  0  0  0  0  0
  189.6150  177.2350  146.9140 C   0  0  2  0  0  3  0  0  0  0  0  0
  188.8780  177.1900  145.5660 C   0  0  1  0  0  3  0  0  0  0  0  0
  191.7280  176.7410  145.6880 C   0  0  0  0  0  3  0  0  0  0  0  0
  194.3060  175.7950  136.9180 N   0  0  0  0  0  2  0  0  0  0  0  0
  195.3550  175.2290  137.6580 N   0  0  0  0  0  0  0  0  0  0  0  0
  195.5610  173.9480  137.6500 C   0  0  0  0  0  3  0  0  0  0  0  0
  195.3550  171.2070  135.8930 C   0  0  1  0  0  0  0  0  0  0  0  0
  194.6900  173.0290  136.8440 C   0  0  1  0  0  3  0  0  0  0  0  0
  195.7250  171.2330  138.2770 O   0  0  0  0  0  1  0  0  0  0  0  0
  194.1370  170.4840  136.4500 C   0  0  2  0  0  3  0  0  0  0  0  0
  195.3190  172.6850  135.5160 C   0  0  0  0  0  2  0  0  0  0  0  0
  194.7870  171.5720  137.2880 C   0  0  2  0  0  0  0  0  0  0  0  0
  196.6280  170.6290  135.9940 O   0  0  0  0  0  1  0  0  0  0  0  0
  194.2920  169.0910  137.0900 C   0  0  2  0  0  0  0  0  0  0  0  0
  193.4310  168.0240  136.5560 C   0  0  0  0  0  2  0  0  0  0  0  0
  194.5510  168.9910  138.5800 C   0  0  0  0  0  1  0  0  0  0  0  0
  194.8190  168.0410  136.3370 O   0  0  0  0  0  0  0  0  0  0  0  0
  2  3  1  6  0  0  0
  2 16  1  0  0  0  0
  4  1  2  0  0  0  0
  5  1  1  0  0  0  0
  5 10  1  0  0  0  0
  6  7  1  0  0  0  0
  7  5  2  0  0  0  0
  8  6  1  6  0  0  0
  8  2  1  0  0  0  0
  9 12  1  0  0  0  0
 10 13  1  0  0  0  0
 11 17  1  0  0  0  0
 11  8  1  0  0  0  0
 12 18  1  1  0  0  0
 13 12  1  0  0  0  0
 14  7  1  0  0  0  0
 14 15  2  0  0  0  0
 15  4  1  0  0  0  0
 16 10  1  0  0  0  0
 16  9  1  1  0  0  0
 17  3  1  0  0  0  0
 18 19  3  0  0  0  0
 19 20  1  0  0  0  0
 20 21  1  0  0  0  0
 21 22  1  0  0  0  0
 22 23  1  1  0  0  0
 24 29  1  0  0  0  0
 24 28  1  0  0  0  0
 26 27  1  0  0  0  0
 26 31  1  0  0  0  0
 27 30  1  0  0  0  0
 29 25  1  1  0  0  0
 30 22  1  1  0  0  0
 30 29  1  0  0  0  0
 31 24  2  0  0  0  0
 32 15  1  0  0  0  0
 32 33  1  0  0  0  0
 34 33  2  0  0  0  0
 35 41  1  6  0  0  0
 35 38  1  0  0  0  0
 35 40  1  0  0  0  0
 36 40  1  0  0  0  0
 36 34  1  1  0  0  0
 38 42  1  1  0  0  0
 38 40  1  0  0  0  0
 39 35  1  0  0  0  0
 39 36  1  0  0  0  0
 40 37  1  1  0  0  0
 42 44  1  1  0  0  0
 43 42  1  0  0  0  0
 45 43  1  0  0  0  0
 45 42  1  0  0  0  0
M  END
>  <MODEL>
2

>  <REMARK>
 VINA RESULT:      -8.6      3.889      6.689
  Name = 
  9 active torsions:
  status: ('A' for Active; 'I' for Inactive)
    1  A    between atoms: C_1  and  C_36
    2  A    between atoms: C_1  and  C_39
    3  A    between atoms: C_2  and  C_39
    4  A    between atoms: C_2  and  C_45
    5  A    between atoms: C_7  and  C_24
    6  A    between atoms: C_13  and  C_16
    7  A    between atoms: N_22  and  N_44
    8  A    between atoms: C_29  and  C_43
    9  A    between atoms: C_35  and  N_44
                            x       y       z     vdW  Elec       q    Type
                         _______ _______ _______ _____ _____    ______ ____

>  <TORSDO>
F 9

$$$$
=
 OpenBabel10232408303D

 45 52  0  0  1  0  0  0  0  0999 V2000
  187.0590  177.4850  137.8160 C   0  0  0  0  0  3  0  0  0  0  0  0
  191.2760  176.6150  137.4510 C   0  0  1  0  0  3  0  0  0  0  0  0
  192.2170  175.5330  137.7050 N   0  0  0  0  0  2  0  0  0  0  0  0
  186.0400  177.3600  136.9600 C   0  0  0  0  0  3  0  0  0  0  0  0
  188.4140  177.9100  137.3030 C   0  0  0  0  0  0  0  0  0  0  0  0
  189.7760  176.9030  135.3580 C   0  0  0  0  0  2  0  0  0  0  0  0
  188.6630  177.4430  135.8770 C   0  0  0  0  0  0  0  0  0  0  0  0
  190.9910  176.5470  136.0360 N   0  0  2  0  0  0  0  0  0  0  0  0
  190.3980  176.2030  139.6260 C   0  0  0  0  0  2  0  0  0  0  0  0
  189.5420  177.8170  138.2360 N   0  0  0  0  0  0  0  0  0  0  0  0
  191.9410  175.7900  135.3500 N   0  0  0  0  0  2  0  0  0  0  0  0
  189.5610  177.0900  140.5060 C   0  0  2  0  0  3  0  0  0  0  0  0
  189.1580  178.2070  139.5920 C   0  0  0  0  0  2  0  0  0  0  0  0
  187.4950  177.5110  134.9870 C   0  0  0  0  0  3  0  0  0  0  0  0
  186.2560  177.5100  135.4950 C   0  0  0  0  0  0  0  0  0  0  0  0
  190.0520  176.5060  138.2450 N   0  0  1  0  0  0  0  0  0  0  0  0
  192.8210  175.2780  136.3960 C   0  0  0  0  0  2  0  0  0  0  0  0
  190.3920  177.6090  141.5950 C   0  0  0  0  0  0  0  0  0  0  0  0
  191.0680  178.0200  142.5070 C   0  0  0  0  0  0  0  0  0  0  0  0
  191.8540  178.4980  143.6430 C   0  0  0  0  0  2  0  0  0  0  0  0
  190.9710  178.6240  144.8740 C   0  0  0  0  0  2  0  0  0  0  0  0
  190.7210  177.2570  145.5210 C   0  0  1  0  0  3  0  0  0  0  0  0
  191.7030  177.0250  146.4820 O   0  0  0  0  0  1  0  0  0  0  0  0
  186.9330  177.9320  145.7320 C   0  0  0  0  0  0  0  0  0  0  0  0
  188.1010  176.6180  144.1360 O   0  0  0  0  0  1  0  0  0  0  0  0
  187.8160  177.6920  148.0340 C   0  0  0  0  0  2  0  0  0  0  0  0
  189.2020  177.9150  147.4350 C   0  0  0  0  0  2  0  0  0  0  0  0
  185.8760  178.2140  144.8880 O   0  0  0  0  0  1  0  0  0  0  0  0
  188.2760  177.5790  145.1310 C   0  0  2  0  0  3  0  0  0  0  0  0
  189.3290  177.1060  146.1450 C   0  0  1  0  0  3  0  0  0  0  0  0
  186.7420  178.0220  147.0470 C   0  0  0  0  0  3  0  0  0  0  0  0
  185.1550  177.5330  134.5870 N   0  0  0  0  0  2  0  0  0  0  0  0
  184.3040  176.4330  134.4040 N   0  0  0  0  0  0  0  0  0  0  0  0
  183.1100  176.4230  134.9140 C   0  0  0  0  0  3  0  0  0  0  0  0
  180.9820  177.5010  137.1390 C   0  0  1  0  0  0  0  0  0  0  0  0
  182.5970  177.5890  135.7080 C   0  0  1  0  0  3  0  0  0  0  0  0
  182.8010  176.0030  137.6550 O   0  0  0  0  0  1  0  0  0  0  0  0
  181.8260  178.2940  138.1260 C   0  0  2  0  0  3  0  0  0  0  0  0
  181.0950  177.7020  135.6310 C   0  0  0  0  0  2  0  0  0  0  0  0
  182.5180  177.3030  137.2050 C   0  0  2  0  0  0  0  0  0  0  0  0
  180.2980  176.3510  137.5580 O   0  0  0  0  0  1  0  0  0  0  0  0
  181.9000  177.8610  139.6020 C   0  0  2  0  0  0  0  0  0  0  0  0
  180.9010  178.4480  140.5100 C   0  0  0  0  0  2  0  0  0  0  0  0
  183.2580  177.6380  140.2370 C   0  0  0  0  0  1  0  0  0  0  0  0
  180.8710  177.0910  140.1470 O   0  0  0  0  0  0  0  0  0  0  0  0
  2  3  1  1  0  0  0
  2 16  1  0  0  0  0
  4  1  2  0  0  0  0
  5  1  1  0  0  0  0
  5 10  1  0  0  0  0
  6  7  1  0  0  0  0
  7  5  2  0  0  0  0
  8  6  1  1  0  0  0
  8  2  1  0  0  0  0
  9 12  1  0  0  0  0
 10 16  1  0  0  0  0
 10 13  1  0  0  0  0
 11  8  1  0  0  0  0
 11 17  1  0  0  0  0
 12 18  1  1  0  0  0
 13 12  1  0  0  0  0
 14 15  2  0  0  0  0
 14  7  1  0  0  0  0
 15  4  1  0  0  0  0
 16  9  1  1  0  0  0
 17  3  1  0  0  0  0
 18 19  3  0  0  0  0
 19 20  1  0  0  0  0
 20 21  1  0  0  0  0
 21 22  1  0  0  0  0
 22 23  1  1  0  0  0
 24 31  2  0  0  0  0
 27 26  1  0  0  0  0
 28 24  1  0  0  0  0
 29 25  1  6  0  0  0
 29 24  1  0  0  0  0
 29 30  1  0  0  0  0
 30 22  1  6  0  0  0
 30 27  1  0  0  0  0
 31 26  1  0  0  0  0
 32 15  1  0  0  0  0
 33 32  1  0  0  0  0
 33 34  2  0  0  0  0
 35 40  1  0  0  0  0
 35 41  1  1  0  0  0
 35 38  1  0  0  0  0
 36 34  1  6  0  0  0
 36 40  1  0  0  0  0
 38 42  1  1  0  0  0
 39 36  1  0  0  0  0
 39 35  1  0  0  0  0
 40 37  1  1  0  0  0
 40 38  1  0  0  0  0
 42 45  1  0  0  0  0
 42 44  1  1  0  0  0
 42 43  1  0  0  0  0
 45 43  1  0  0  0  0
M  END
>  <MODEL>
3

>  <REMARK>
 VINA RESULT:      -8.5      4.511     10.165
  Name = 
  9 active torsions:
  status: ('A' for Active; 'I' for Inactive)
    1  A    between atoms: C_1  and  C_36
    2  A    between atoms: C_1  and  C_39
    3  A    between atoms: C_2  and  C_39
    4  A    between atoms: C_2  and  C_45
    5  A    between atoms: C_7  and  C_24
    6  A    between atoms: C_13  and  C_16
    7  A    between atoms: N_22  and  N_44
    8  A    between atoms: C_29  and  C_43
    9  A    between atoms: C_35  and  N_44
                            x       y       z     vdW  Elec       q    Type
                         _______ _______ _______ _____ _____    ______ ____

>  <TORSDO>
F 9

$$$$
=
 OpenBabel10232408303D

 45 52  0  0  1  0  0  0  0  0999 V2000
  186.8380  178.6990  141.7610 C   0  0  0  0  0  3  0  0  0  0  0  0
  190.1690  176.8020  143.7560 C   0  0  1  0  0  3  0  0  0  0  0  0
  191.5200  177.1090  144.2040 N   0  0  0  0  0  2  0  0  0  0  0  0
  185.7660  179.3490  142.2240 C   0  0  0  0  0  3  0  0  0  0  0  0
  187.3650  177.5010  142.5130 C   0  0  0  0  0  0  0  0  0  0  0  0
  187.9650  177.3210  145.0150 C   0  0  0  0  0  2  0  0  0  0  0  0
  187.1230  177.6090  144.0110 C   0  0  0  0  0  0  0  0  0  0  0  0
  189.3410  176.9190  144.9340 N   0  0  2  0  0  0  0  0  0  0  0  0
  190.7510  177.8300  141.6880 C   0  0  0  0  0  2  0  0  0  0  0  0
  188.6630  176.9640  142.0890 N   0  0  0  0  0  0  0  0  0  0  0  0
  190.0970  176.8890  146.1060 N   0  0  0  0  0  2  0  0  0  0  0  0
  190.1000  177.7040  140.3380 C   0  0  2  0  0  3  0  0  0  0  0  0
  188.8140  176.9930  140.6360 C   0  0  0  0  0  2  0  0  0  0  0  0
  185.8290  178.1940  144.3910 C   0  0  0  0  0  3  0  0  0  0  0  0
  185.1670  178.9860  143.5370 C   0  0  0  0  0  0  0  0  0  0  0  0
  189.7050  177.6930  142.6910 N   0  0  1  0  0  0  0  0  0  0  0  0
  191.4810  176.8420  145.6440 C   0  0  0  0  0  2  0  0  0  0  0  0
  190.9420  176.8740  139.4740 C   0  0  0  0  0  0  0  0  0  0  0  0
  191.6210  176.1930  138.7440 C   0  0  0  0  0  0  0  0  0  0  0  0
  192.4020  175.3570  137.8340 C   0  0  0  0  0  2  0  0  0  0  0  0
  191.4750  174.5190  136.9680 C   0  0  0  0  0  2  0  0  0  0  0  0
  190.9080  175.3410  135.8050 C   0  0  1  0  0  3  0  0  0  0  0  0
  191.1350  174.6550  134.6130 O   0  0  0  0  0  1  0  0  0  0  0  0
  187.9430  177.5870  136.8130 C   0  0  0  0  0  0  0  0  0  0  0  0
  189.4700  177.8930  135.0220 O   0  0  0  0  0  1  0  0  0  0  0  0
  187.2840  175.2220  137.1470 C   0  0  0  0  0  2  0  0  0  0  0  0
  188.7720  174.8880  137.0850 C   0  0  0  0  0  2  0  0  0  0  0  0
  187.6490  178.9320  136.9360 O   0  0  0  0  0  1  0  0  0  0  0  0
  189.2660  177.1800  136.2020 C   0  0  2  0  0  3  0  0  0  0  0  0
  189.4170  175.6730  135.9440 C   0  0  1  0  0  3  0  0  0  0  0  0
  187.0690  176.6970  137.2770 C   0  0  0  0  0  3  0  0  0  0  0  0
  183.9370  179.5630  143.9700 N   0  0  0  0  0  2  0  0  0  0  0  0
  182.7320  178.8440  143.9930 N   0  0  0  0  0  0  0  0  0  0  0  0
  182.1290  178.5200  142.8890 C   0  0  0  0  0  3  0  0  0  0  0  0
  181.9550  178.2140  139.6460 C   0  0  1  0  0  0  0  0  0  0  0  0
  182.7030  178.8960  141.5550 C   0  0  1  0  0  3  0  0  0  0  0  0
  180.3010  179.3770  140.9630 O   0  0  0  0  0  1  0  0  0  0  0  0
  182.0220  179.6410  139.1220 C   0  0  2  0  0  3  0  0  0  0  0  0
  182.9390  177.6850  140.6860 C   0  0  0  0  0  2  0  0  0  0  0  0
  181.6520  179.4150  140.5780 C   0  0  2  0  0  0  0  0  0  0  0  0
  180.8120  177.4330  139.4280 O   0  0  0  0  0  1  0  0  0  0  0  0
  180.8480  180.2200  138.3090 C   0  0  2  0  0  0  0  0  0  0  0  0
  180.9150  180.0530  136.8480 C   0  0  0  0  0  2  0  0  0  0  0  0
  180.2190  181.5250  138.7550 C   0  0  0  0  0  1  0  0  0  0  0  0
  179.9830  179.3570  137.6370 O   0  0  0  0  0  0  0  0  0  0  0  0
  1  4  2  0  0  0  0
  1  5  1  0  0  0  0
  2  3  1  1  0  0  0
  2  8  1  0  0  0  0
  3 17  1  0  0  0  0
  4 15  1  0  0  0  0
  5  7  2  0  0  0  0
  7 14  1  0  0  0  0
  7  6  1  0  0  0  0
  8  6  1  6  0  0  0
  8 11  1  0  0  0  0
 10  5  1  0  0  0  0
 10 16  1  0  0  0  0
 12 18  1  6  0  0  0
 12 13  1  0  0  0  0
 12  9  1  0  0  0  0
 13 10  1  0  0  0  0
 15 32  1  0  0  0  0
 15 14  2  0  0  0  0
 16  9  1  6  0  0  0
 16  2  1  0  0  0  0
 17 11  1  0  0  0  0
 19 18  3  0  0  0  0
 20 19  1  0  0  0  0
 21 20  1  0  0  0  0
 22 23  1  6  0  0  0
 22 21  1  0  0  0  0
 24 28  1  0  0  0  0
 24 31  2  0  0  0  0
 26 31  1  0  0  0  0
 27 26  1  0  0  0  0
 29 25  1  6  0  0  0
 29 24  1  0  0  0  0
 30 22  1  1  0  0  0
 30 29  1  0  0  0  0
 30 27  1  0  0  0  0
 32 33  1  0  0  0  0
 34 33  2  0  0  0  0
 35 41  1  6  0  0  0
 35 40  1  0  0  0  0
 35 39  1  0  0  0  0
 36 34  1  1  0  0  0
 38 42  1  6  0  0  0
 38 35  1  0  0  0  0
 38 40  1  0  0  0  0
 39 36  1  0  0  0  0
 40 37  1  1  0  0  0
 40 36  1  0  0  0  0
 42 44  1  1  0  0  0
 43 45  1  0  0  0  0
 43 42  1  0  0  0  0
 45 42  1  0  0  0  0
M  END
>  <MODEL>
4

>  <REMARK>
 VINA RESULT:      -8.5      2.864     10.317
  Name = 
  9 active torsions:
  status: ('A' for Active; 'I' for Inactive)
    1  A    between atoms: C_1  and  C_36
    2  A    between atoms: C_1  and  C_39
    3  A    between atoms: C_2  and  C_39
    4  A    between atoms: C_2  and  C_45
    5  A    between atoms: C_7  and  C_24
    6  A    between atoms: C_13  and  C_16
    7  A    between atoms: N_22  and  N_44
    8  A    between atoms: C_29  and  C_43
    9  A    between atoms: C_35  and  N_44
                            x       y       z     vdW  Elec       q    Type
                         _______ _______ _______ _____ _____    ______ ____

>  <TORSDO>
F 9

$$$$
=
 OpenBabel10232408303D

 45 52  0  0  1  0  0  0  0  0999 V2000
  188.4200  177.7570  140.9560 C   0  0  0  0  0  3  0  0  0  0  0  0
  187.8250  176.8770  136.7670 C   0  0  1  0  0  3  0  0  0  0  0  0
  187.6370  175.7350  135.8850 N   0  0  0  0  0  2  0  0  0  0  0  0
  187.5650  178.0470  141.9420 C   0  0  0  0  0  3  0  0  0  0  0  0
  188.1550  178.2780  139.5640 C   0  0  0  0  0  0  0  0  0  0  0  0
  185.9990  178.0720  138.1630 C   0  0  0  0  0  2  0  0  0  0  0  0
  186.6680  178.4170  139.2740 C   0  0  0  0  0  0  0  0  0  0  0  0
  186.5000  177.4050  136.9940 N   0  0  2  0  0  0  0  0  0  0  0  0
  189.6240  175.6680  137.7540 C   0  0  0  0  0  2  0  0  0  0  0  0
  188.9940  177.7520  138.4820 N   0  0  0  0  0  0  0  0  0  0  0  0
  185.5850  176.9400  136.0480 N   0  0  0  0  0  2  0  0  0  0  0  0
  190.7700  176.1670  138.5900 C   0  0  2  0  0  3  0  0  0  0  0  0
  190.3820  177.5790  138.9070 C   0  0  0  0  0  2  0  0  0  0  0  0
  185.8580  178.9040  140.3990 C   0  0  0  0  0  3  0  0  0  0  0  0
  186.2940  178.7660  141.6580 C   0  0  0  0  0  0  0  0  0  0  0  0
  188.4790  176.5240  138.0280 N   0  0  1  0  0  0  0  0  0  0  0  0
  186.3520  176.0000  135.2360 C   0  0  0  0  0  2  0  0  0  0  0  0
  191.9940  176.1520  137.7850 C   0  0  0  0  0  0  0  0  0  0  0  0
  193.0050  176.1640  137.1270 C   0  0  0  0  0  0  0  0  0  0  0  0
  194.2230  176.2250  136.3200 C   0  0  0  0  0  2  0  0  0  0  0  0
  194.5300  174.8580  135.7290 C   0  0  0  0  0  2  0  0  0  0  0  0
  195.2630  173.9690  136.7400 C   0  0  1  0  0  3  0  0  0  0  0  0
  196.1360  173.1280  136.0520 O   0  0  0  0  0  1  0  0  0  0  0  0
  198.4170  174.9410  138.7290 C   0  0  0  0  0  0  0  0  0  0  0  0
  197.8800  175.4760  136.4800 O   0  0  0  0  0  1  0  0  0  0  0  0
  196.4660  175.0420  140.2530 C   0  0  0  0  0  2  0  0  0  0  0  0
  195.7210  174.2050  139.2170 C   0  0  0  0  0  2  0  0  0  0  0  0
  199.7830  175.0300  138.5390 O   0  0  0  0  0  1  0  0  0  0  0  0
  197.5300  174.6420  137.5400 C   0  0  2  0  0  3  0  0  0  0  0  0
  196.0230  174.7460  137.8210 C   0  0  1  0  0  3  0  0  0  0  0  0
  197.9330  175.0800  139.9610 C   0  0  0  0  0  3  0  0  0  0  0  0
  185.4500  179.2170  142.7170 N   0  0  0  0  0  2  0  0  0  0  0  0
  184.6900  178.3370  143.5030 N   0  0  0  0  0  0  0  0  0  0  0  0
  185.0000  178.1150  144.7440 C   0  0  0  0  0  3  0  0  0  0  0  0
  187.3220  178.0060  147.0330 C   0  0  1  0  0  0  0  0  0  0  0  0
  186.1760  178.7970  145.3810 C   0  0  1  0  0  3  0  0  0  0  0  0
  187.2790  176.5470  145.1120 O   0  0  0  0  0  1  0  0  0  0  0  0
  188.6060  178.3530  146.2950 C   0  0  2  0  0  3  0  0  0  0  0  0
  186.0510  178.8380  146.8840 C   0  0  0  0  0  2  0  0  0  0  0  0
  187.4020  177.8950  145.4890 C   0  0  2  0  0  0  0  0  0  0  0  0
  187.1670  176.7470  147.6310 O   0  0  0  0  0  1  0  0  0  0  0  0
  189.7610  177.3360  146.2370 C   0  0  2  0  0  0  0  0  0  0  0  0
  190.6390  177.2700  147.4170 C   0  0  0  0  0  2  0  0  0  0  0  0
  190.4780  177.1100  144.9200 C   0  0  0  0  0  1  0  0  0  0  0  0
  189.7510  176.2310  147.0890 O   0  0  0  0  0  0  0  0  0  0  0  0
  1  4  1  0  0  0  0
  2  3  1  6  0  0  0
  2  8  1  0  0  0  0
  2 16  1  0  0  0  0
  5  1  2  0  0  0  0
  6  7  1  0  0  0  0
  7  5  1  0  0  0  0
  7 14  2  0  0  0  0
  8  6  1  1  0  0  0
  9 12  1  0  0  0  0
 10 13  1  0  0  0  0
 10  5  1  0  0  0  0
 11  8  1  0  0  0  0
 12 18  1  6  0  0  0
 12 13  1  0  0  0  0
 14 15  1  0  0  0  0
 15  4  2  0  0  0  0
 15 32  1  0  0  0  0
 16  9  1  6  0  0  0
 16 10  1  0  0  0  0
 17  3  1  0  0  0  0
 17 11  1  0  0  0  0
 19 18  3  0  0  0  0
 20 19  1  0  0  0  0
 21 20  1  0  0  0  0
 21 22  1  0  0  0  0
 22 23  1  6  0  0  0
 24 31  2  0  0  0  0
 27 26  1  0  0  0  0
 28 24  1  0  0  0  0
 29 25  1  6  0  0  0
 29 30  1  0  0  0  0
 29 24  1  0  0  0  0
 30 22  1  6  0  0  0
 30 27  1  0  0  0  0
 31 26  1  0  0  0  0
 32 33  1  0  0  0  0
 33 34  2  0  0  0  0
 35 41  1  1  0  0  0
 36 34  1  6  0  0  0
 36 40  1  0  0  0  0
 36 39  1  0  0  0  0
 38 42  1  1  0  0  0
 38 35  1  0  0  0  0
 39 35  1  0  0  0  0
 40 37  1  6  0  0  0
 40 38  1  0  0  0  0
 40 35  1  0  0  0  0
 42 44  1  6  0  0  0
 42 45  1  0  0  0  0
 42 43  1  0  0  0  0
 45 43  1  0  0  0  0
M  END
>  <MODEL>
5

>  <REMARK>
 VINA RESULT:      -8.3      3.420     11.765
  Name = 
  9 active torsions:
  status: ('A' for Active; 'I' for Inactive)
    1  A    between atoms: C_1  and  C_36
    2  A    between atoms: C_1  and  C_39
    3  A    between atoms: C_2  and  C_39
    4  A    between atoms: C_2  and  C_45
    5  A    between atoms: C_7  and  C_24
    6  A    between atoms: C_13  and  C_16
    7  A    between atoms: N_22  and  N_44
    8  A    between atoms: C_29  and  C_43
    9  A    between atoms: C_35  and  N_44
                            x       y       z     vdW  Elec       q    Type
                         _______ _______ _______ _____ _____    ______ ____

>  <TORSDO>
F 9

$$$$
=
 OpenBabel10232408303D

 45 52  0  0  1  0  0  0  0  0999 V2000
  189.6760  177.3540  140.5950 C   0  0  0  0  0  3  0  0  0  0  0  0
  189.4870  177.7090  144.8980 C   0  0  1  0  0  3  0  0  0  0  0  0
  189.1300  176.9160  146.0660 N   0  0  0  0  0  2  0  0  0  0  0  0
  190.6640  177.0020  139.7660 C   0  0  0  0  0  3  0  0  0  0  0  0
  189.9930  178.1670  141.8270 C   0  0  0  0  0  0  0  0  0  0  0  0
  191.7560  177.6890  143.6480 C   0  0  0  0  0  2  0  0  0  0  0  0
  191.3810  177.8690  142.3720 C   0  0  0  0  0  0  0  0  0  0  0  0
  190.9280  177.6460  144.8200 N   0  0  2  0  0  0  0  0  0  0  0  0
  187.4580  176.9460  143.9090 C   0  0  0  0  0  2  0  0  0  0  0  0
  188.9180  178.3370  142.8110 N   0  0  0  0  0  0  0  0  0  0  0  0
  191.4950  177.2210  146.0230 N   0  0  0  0  0  2  0  0  0  0  0  0
  186.6820  177.5150  142.7540 C   0  0  2  0  0  3  0  0  0  0  0  0
  187.6190  178.5270  142.1680 C   0  0  0  0  0  2  0  0  0  0  0  0
  192.4190  177.6620  141.3520 C   0  0  0  0  0  3  0  0  0  0  0  0
  192.0830  177.2880  140.1100 C   0  0  0  0  0  0  0  0  0  0  0  0
  188.8670  177.2200  143.6650 N   0  0  1  0  0  0  0  0  0  0  0  0
  190.3500  176.9140  146.8750 C   0  0  0  0  0  2  0  0  0  0  0  0
  185.4810  178.1810  143.2640 C   0  0  0  0  0  0  0  0  0  0  0  0
  184.4810  178.7080  143.6870 C   0  0  0  0  0  0  0  0  0  0  0  0
  183.2440  179.3060  144.1860 C   0  0  0  0  0  2  0  0  0  0  0  0
  182.0590  178.4130  143.8540 C   0  0  0  0  0  2  0  0  0  0  0  0
  181.1170  179.0900  142.8520 C   0  0  1  0  0  3  0  0  0  0  0  0
  180.7550  180.3410  143.3460 O   0  0  0  0  0  1  0  0  0  0  0  0
  180.8780  179.2840  139.0100 C   0  0  0  0  0  0  0  0  0  0  0  0
  180.1890  180.9020  140.6050 O   0  0  0  0  0  1  0  0  0  0  0  0
  183.0040  178.1610  139.6080 C   0  0  0  0  0  2  0  0  0  0  0  0
  182.4030  177.9490  140.9950 C   0  0  0  0  0  2  0  0  0  0  0  0
  179.9850  179.6990  138.0410 O   0  0  0  0  0  1  0  0  0  0  0  0
  180.5660  179.5670  140.4630 C   0  0  2  0  0  3  0  0  0  0  0  0
  181.7020  179.2310  141.4410 C   0  0  1  0  0  3  0  0  0  0  0  0
  181.9630  178.6100  138.6330 C   0  0  0  0  0  3  0  0  0  0  0  0
  193.1300  177.0580  139.1690 N   0  0  0  0  0  2  0  0  0  0  0  0
  193.5840  175.7710  138.8450 N   0  0  0  0  0  0  0  0  0  0  0  0
  193.2440  175.2070  137.7260 C   0  0  0  0  0  3  0  0  0  0  0  0
  191.0560  174.9400  135.3210 C   0  0  1  0  0  0  0  0  0  0  0  0
  192.3620  175.9140  136.7390 C   0  0  1  0  0  3  0  0  0  0  0  0
  190.5910  174.3490  137.6130 O   0  0  0  0  0  1  0  0  0  0  0  0
  189.9360  175.8920  135.7120 C   0  0  2  0  0  3  0  0  0  0  0  0
  192.5230  175.3590  135.3460 C   0  0  0  0  0  2  0  0  0  0  0  0
  190.9130  175.4350  136.7820 C   0  0  2  0  0  0  0  0  0  0  0  0
  190.8120  173.5630  135.2190 O   0  0  0  0  0  1  0  0  0  0  0  0
  188.5150  175.3520  135.9590 C   0  0  2  0  0  0  0  0  0  0  0  0
  187.6370  175.2510  134.7810 C   0  0  0  0  0  2  0  0  0  0  0  0
  187.7950  175.7330  137.2370 C   0  0  0  0  0  1  0  0  0  0  0  0
  188.1460  174.1140  135.4310 O   0  0  0  0  0  0  0  0  0  0  0  0
  1  5  1  0  0  0  0
  2  3  1  1  0  0  0
  3 17  1  0  0  0  0
  4 15  1  0  0  0  0
  4  1  2  0  0  0  0
  5  7  2  0  0  0  0
  5 10  1  0  0  0  0
  7  6  1  0  0  0  0
  8  6  1  6  0  0  0
  8  2  1  0  0  0  0
  8 11  1  0  0  0  0
 10 16  1  0  0  0  0
 11 17  1  0  0  0  0
 12 18  1  1  0  0  0
 12  9  1  0  0  0  0
 13 12  1  0  0  0  0
 13 10  1  0  0  0  0
 14  7  1  0  0  0  0
 15 14  2  0  0  0  0
 16  9  1  1  0  0  0
 16  2  1  0  0  0  0
 18 19  3  0  0  0  0
 19 20  1  0  0  0  0
 21 20  1  0  0  0  0
 22 23  1  1  0  0  0
 22 21  1  0  0  0  0
 24 29  1  0  0  0  0
 26 27  1  0  0  0  0
 27 30  1  0  0  0  0
 28 24  1  0  0  0  0
 29 25  1  6  0  0  0
 29 30  1  0  0  0  0
 30 22  1  1  0  0  0
 31 24  2  0  0  0  0
 31 26  1  0  0  0  0
 32 15  1  0  0  0  0
 33 32  1  0  0  0  0
 34 33  2  0  0  0  0
 35 41  1  6  0  0  0
 35 39  1  0  0  0  0
 35 38  1  0  0  0  0
 35 40  1  0  0  0  0
 36 40  1  0  0  0  0
 36 34  1  1  0  0  0
 38 42  1  1  0  0  0
 38 40  1  0  0  0  0
 39 36  1  0  0  0  0
 40 37  1  1  0  0  0
 42 44  1  1  0  0  0
 43 45  1  0  0  0  0
 43 42  1  0  0  0  0
 45 42  1  0  0  0  0
M  END
>  <MODEL>
6

>  <REMARK>
 VINA RESULT:      -8.1      2.423      3.781
  Name = 
  9 active torsions:
  status: ('A' for Active; 'I' for Inactive)
    1  A    between atoms: C_1  and  C_36
    2  A    between atoms: C_1  and  C_39
    3  A    between atoms: C_2  and  C_39
    4  A    between atoms: C_2  and  C_45
    5  A    between atoms: C_7  and  C_24
    6  A    between atoms: C_13  and  C_16
    7  A    between atoms: N_22  and  N_44
    8  A    between atoms: C_29  and  C_43
    9  A    between atoms: C_35  and  N_44
                            x       y       z     vdW  Elec       q    Type
                         _______ _______ _______ _____ _____    ______ ____

>  <TORSDO>
F 9

$$$$
=
 OpenBabel10232408303D

 45 52  0  0  1  0  0  0  0  0999 V2000
  183.0040  178.4280  141.7160 C   0  0  0  0  0  3  0  0  0  0  0  0
  187.3250  178.3700  141.7580 C   0  0  1  0  0  3  0  0  0  0  0  0
  188.4250  177.4350  141.9460 N   0  0  0  0  0  2  0  0  0  0  0  0
  182.1140  178.2960  140.7270 C   0  0  0  0  0  3  0  0  0  0  0  0
  184.2960  179.1660  141.4610 C   0  0  0  0  0  0  0  0  0  0  0  0
  186.0060  178.7880  139.5670 C   0  0  0  0  0  2  0  0  0  0  0  0
  184.7660  179.0250  140.0210 C   0  0  0  0  0  0  0  0  0  0  0  0
  187.1950  178.5230  140.3270 N   0  0  2  0  0  0  0  0  0  0  0  0
  186.3350  177.4130  143.7010 C   0  0  0  0  0  2  0  0  0  0  0  0
  185.3260  179.0910  142.5030 N   0  0  0  0  0  0  0  0  0  0  0  0
  188.3340  178.0800  139.6510 N   0  0  0  0  0  2  0  0  0  0  0  0
  185.2640  177.9640  144.6020 C   0  0  2  0  0  3  0  0  0  0  0  0
  184.7460  179.1480  143.8430 C   0  0  0  0  0  2  0  0  0  0  0  0
  183.6980  179.0600  139.0120 C   0  0  0  0  0  3  0  0  0  0  0  0
  182.4380  178.7520  139.3480 C   0  0  0  0  0  0  0  0  0  0  0  0
  186.0720  177.9080  142.3580 N   0  0  1  0  0  0  0  0  0  0  0  0
  189.1900  177.5380  140.7020 C   0  0  0  0  0  2  0  0  0  0  0  0
  185.8730  178.4020  145.8600 C   0  0  0  0  0  0  0  0  0  0  0  0
  186.3820  178.7400  146.9000 C   0  0  0  0  0  0  0  0  0  0  0  0
  186.9980  179.1040  148.1760 C   0  0  0  0  0  2  0  0  0  0  0  0
  188.0090  178.0460  148.5890 C   0  0  0  0  0  2  0  0  0  0  0  0
  189.3890  178.3310  147.9860 C   0  0  1  0  0  3  0  0  0  0  0  0
  190.3610  178.1250  148.9630 O   0  0  0  0  0  1  0  0  0  0  0  0
  191.6160  176.0250  145.8460 C   0  0  0  0  0  0  0  0  0  0  0  0
  190.4530  175.4950  147.8460 O   0  0  0  0  0  1  0  0  0  0  0  0
  190.3330  177.5060  144.3290 C   0  0  0  0  0  2  0  0  0  0  0  0
  190.0680  178.3840  145.5480 C   0  0  0  0  0  2  0  0  0  0  0  0
  192.5830  175.0540  146.0220 O   0  0  0  0  0  1  0  0  0  0  0  0
  190.8870  176.5610  147.0590 C   0  0  2  0  0  3  0  0  0  0  0  0
  189.7110  177.4970  146.7400 C   0  0  1  0  0  3  0  0  0  0  0  0
  191.3900  176.4870  144.6180 C   0  0  0  0  0  3  0  0  0  0  0  0
  181.4460  178.7600  138.3230 N   0  0  0  0  0  2  0  0  0  0  0  0
  181.7710  178.7250  136.9580 N   0  0  0  0  0  0  0  0  0  0  0  0
  181.8050  177.6000  136.3100 C   0  0  0  0  0  3  0  0  0  0  0  0
  181.5510  174.3580  136.0570 C   0  0  1  0  0  0  0  0  0  0  0  0
  181.4910  176.3020  136.9960 C   0  0  1  0  0  3  0  0  0  0  0  0
  183.6510  175.5400  135.9460 O   0  0  0  0  0  1  0  0  0  0  0  0
  182.3260  173.8170  137.2490 C   0  0  2  0  0  3  0  0  0  0  0  0
  180.5170  175.4710  136.1990 C   0  0  0  0  0  2  0  0  0  0  0  0
  182.5780  175.2470  136.8030 C   0  0  2  0  0  0  0  0  0  0  0  0
  181.9730  174.0730  134.7510 O   0  0  0  0  0  1  0  0  0  0  0  0
  183.5570  172.9180  137.0260 C   0  0  2  0  0  0  0  0  0  0  0  0
  183.3030  171.4710  136.9210 C   0  0  0  0  0  2  0  0  0  0  0  0
  184.8600  173.2690  137.7170 C   0  0  0  0  0  1  0  0  0  0  0  0
  183.7060  172.2400  135.8160 O   0  0  0  0  0  0  0  0  0  0  0  0
  2  3  1  6  0  0  0
  2 16  1  0  0  0  0
  4  1  2  0  0  0  0
  5  1  1  0  0  0  0
  5 10  1  0  0  0  0
  6  7  1  0  0  0  0
  7  5  2  0  0  0  0
  8  6  1  6  0  0  0
  8  2  1  0  0  0  0
  9 12  1  0  0  0  0
 10 13  1  0  0  0  0
 11  8  1  0  0  0  0
 11 17  1  0  0  0  0
 12 18  1  1  0  0  0
 13 12  1  0  0  0  0
 14 15  2  0  0  0  0
 14  7  1  0  0  0  0
 15  4  1  0  0  0  0
 16 10  1  0  0  0  0
 16  9  1  1  0  0  0
 17  3  1  0  0  0  0
 18 19  3  0  0  0  0
 19 20  1  0  0  0  0
 20 21  1  0  0  0  0
 22 21  1  0  0  0  0
 22 23  1  1  0  0  0
 24 28  1  0  0  0  0
 24 29  1  0  0  0  0
 26 31  1  0  0  0  0
 26 27  1  0  0  0  0
 27 30  1  0  0  0  0
 29 25  1  6  0  0  0
 30 29  1  0  0  0  0
 30 22  1  1  0  0  0
 31 24  2  0  0  0  0
 32 15  1  0  0  0  0
 33 32  1  0  0  0  0
 34 33  2  0  0  0  0
 35 41  1  6  0  0  0
 35 39  1  0  0  0  0
 35 40  1  0  0  0  0
 35 38  1  0  0  0  0
 36 34  1  6  0  0  0
 38 42  1  6  0  0  0
 39 36  1  0  0  0  0
 40 37  1  6  0  0  0
 40 36  1  0  0  0  0
 40 38  1  0  0  0  0
 42 44  1  1  0  0  0
 43 42  1  0  0  0  0
 45 43  1  0  0  0  0
 45 42  1  0  0  0  0
M  END
>  <MODEL>
7

>  <REMARK>
 VINA RESULT:      -7.8      5.294      9.656
  Name = 
  9 active torsions:
  status: ('A' for Active; 'I' for Inactive)
    1  A    between atoms: C_1  and  C_36
    2  A    between atoms: C_1  and  C_39
    3  A    between atoms: C_2  and  C_39
    4  A    between atoms: C_2  and  C_45
    5  A    between atoms: C_7  and  C_24
    6  A    between atoms: C_13  and  C_16
    7  A    between atoms: N_22  and  N_44
    8  A    between atoms: C_29  and  C_43
    9  A    between atoms: C_35  and  N_44
                            x       y       z     vdW  Elec       q    Type
                         _______ _______ _______ _____ _____    ______ ____

>  <TORSDO>
F 9

$$$$
=
 OpenBabel10232408303D

 45 52  0  0  1  0  0  0  0  0999 V2000
  190.7580  175.9420  141.6130 C   0  0  0  0  0  3  0  0  0  0  0  0
  188.2750  177.8930  138.6640 C   0  0  1  0  0  3  0  0  0  0  0  0
  187.2400  177.5720  137.6910 N   0  0  0  0  0  2  0  0  0  0  0  0
  190.5980  175.7310  142.9240 C   0  0  0  0  0  3  0  0  0  0  0  0
  190.2720  177.2340  141.0030 C   0  0  0  0  0  0  0  0  0  0  0  0
  187.9390  178.3160  141.1980 C   0  0  0  0  0  2  0  0  0  0  0  0
  189.0550  177.7910  141.7260 C   0  0  0  0  0  0  0  0  0  0  0  0
  187.5690  178.4100  139.8140 N   0  0  2  0  0  0  0  0  0  0  0  0
  189.4860  176.0270  137.8130 C   0  0  0  0  0  2  0  0  0  0  0  0
  190.2700  177.3230  139.5390 N   0  0  0  0  0  0  0  0  0  0  0  0
  186.2640  178.7880  139.4960 N   0  0  0  0  0  2  0  0  0  0  0  0
  190.9490  175.6990  137.9310 C   0  0  2  0  0  3  0  0  0  0  0  0
  191.4440  176.6770  138.9540 C   0  0  0  0  0  2  0  0  0  0  0  0
  189.0770  177.6410  143.1880 C   0  0  0  0  0  3  0  0  0  0  0  0
  189.8330  176.6940  143.7600 C   0  0  0  0  0  0  0  0  0  0  0  0
  189.0990  176.7380  139.0230 N   0  0  1  0  0  0  0  0  0  0  0  0
  186.1070  178.4060  138.0960 C   0  0  0  0  0  2  0  0  0  0  0  0
  191.6030  175.9470  136.6440 C   0  0  0  0  0  0  0  0  0  0  0  0
  192.1630  176.1460  135.5940 C   0  0  0  0  0  0  0  0  0  0  0  0
  192.8820  176.3970  134.3460 C   0  0  0  0  0  2  0  0  0  0  0  0
  194.3790  176.2440  134.5650 C   0  0  0  0  0  2  0  0  0  0  0  0
  194.7070  174.9100  135.2450 C   0  0  1  0  0  3  0  0  0  0  0  0
  195.4970  174.1470  134.3870 O   0  0  0  0  0  1  0  0  0  0  0  0
  197.7150  174.6610  137.6420 C   0  0  0  0  0  0  0  0  0  0  0  0
  197.3780  176.2010  135.8670 O   0  0  0  0  0  1  0  0  0  0  0  0
  195.6500  174.1740  138.9210 C   0  0  0  0  0  2  0  0  0  0  0  0
  194.9680  173.9540  137.5730 C   0  0  0  0  0  2  0  0  0  0  0  0
  199.0930  174.7420  137.5950 O   0  0  0  0  0  1  0  0  0  0  0  0
  196.9200  174.9970  136.3990 C   0  0  2  0  0  3  0  0  0  0  0  0
  195.3990  175.0550  136.6060 C   0  0  1  0  0  3  0  0  0  0  0  0
  197.1360  174.2490  138.7670 C   0  0  0  0  0  3  0  0  0  0  0  0
  189.7870  176.5620  145.1800 N   0  0  0  0  0  2  0  0  0  0  0  0
  189.9770  177.6500  146.0460 N   0  0  0  0  0  0  0  0  0  0  0  0
  189.0020  178.0990  146.7760 C   0  0  0  0  0  3  0  0  0  0  0  0
  185.7700  178.5390  146.8300 C   0  0  1  0  0  0  0  0  0  0  0  0
  187.6420  177.4660  146.7250 C   0  0  1  0  0  3  0  0  0  0  0  0
  187.1780  179.2460  145.0030 O   0  0  0  0  0  1  0  0  0  0  0  0
  185.2530  177.7310  145.6490 C   0  0  2  0  0  3  0  0  0  0  0  0
  186.7540  177.9580  147.8410 C   0  0  0  0  0  2  0  0  0  0  0  0
  186.7240  178.1070  145.6870 C   0  0  2  0  0  0  0  0  0  0  0  0
  185.6060  179.9310  146.8610 O   0  0  0  0  0  1  0  0  0  0  0  0
  184.5060  178.4350  144.5000 C   0  0  2  0  0  0  0  0  0  0  0  0
  183.0900  178.7600  144.7380 C   0  0  0  0  0  2  0  0  0  0  0  0
  184.8190  178.0420  143.0700 C   0  0  0  0  0  1  0  0  0  0  0  0
  184.0810  179.7540  144.6600 O   0  0  0  0  0  0  0  0  0  0  0  0
  1  4  1  0  0  0  0
  2  3  1  6  0  0  0
  2 16  1  0  0  0  0
  2  8  1  0  0  0  0
  3 17  1  0  0  0  0
  4 15  2  0  0  0  0
  5  1  2  0  0  0  0
  5  7  1  0  0  0  0
  6  7  1  0  0  0  0
  7 14  2  0  0  0  0
  8  6  1  1  0  0  0
  9 12  1  0  0  0  0
 10  5  1  0  0  0  0
 11  8  1  0  0  0  0
 12 18  1  6  0  0  0
 12 13  1  0  0  0  0
 13 10  1  0  0  0  0
 14 15  1  0  0  0  0
 15 32  1  0  0  0  0
 16  9  1  6  0  0  0
 16 10  1  0  0  0  0
 17 11  1  0  0  0  0
 19 18  3  0  0  0  0
 20 21  1  0  0  0  0
 20 19  1  0  0  0  0
 21 22  1  0  0  0  0
 22 23  1  6  0  0  0
 24 31  2  0  0  0  0
 27 26  1  0  0  0  0
 28 24  1  0  0  0  0
 29 25  1  1  0  0  0
 29 30  1  0  0  0  0
 29 24  1  0  0  0  0
 30 22  1  6  0  0  0
 30 27  1  0  0  0  0
 31 26  1  0  0  0  0
 32 33  1  0  0  0  0
 33 34  2  0  0  0  0
 35 41  1  1  0  0  0
 35 39  1  0  0  0  0
 36 34  1  1  0  0  0
 36 39  1  0  0  0  0
 38 42  1  6  0  0  0
 38 40  1  0  0  0  0
 38 35  1  0  0  0  0
 40 37  1  6  0  0  0
 40 36  1  0  0  0  0
 40 35  1  0  0  0  0
 42 44  1  6  0  0  0
 42 45  1  0  0  0  0
 42 43  1  0  0  0  0
 45 43  1  0  0  0  0
M  END
>  <MODEL>
8

>  <REMARK>
 VINA RESULT:      -7.8      2.604     11.849
  Name = 
  9 active torsions:
  status: ('A' for Active; 'I' for Inactive)
    1  A    between atoms: C_1  and  C_36
    2  A    between atoms: C_1  and  C_39
    3  A    between atoms: C_2  and  C_39
    4  A    between atoms: C_2  and  C_45
    5  A    between atoms: C_7  and  C_24
    6  A    between atoms: C_13  and  C_16
    7  A    between atoms: N_22  and  N_44
    8  A    between atoms: C_29  and  C_43
    9  A    between atoms: C_35  and  N_44
                            x       y       z     vdW  Elec       q    Type
                         _______ _______ _______ _____ _____    ______ ____

>  <TORSDO>
F 9

$$$$
=
 OpenBabel10232408303D

 45 52  0  0  1  0  0  0  0  0999 V2000
  190.2660  176.9030  140.0170 C   0  0  0  0  0  3  0  0  0  0  0  0
  189.1210  175.5930  136.0620 C   0  0  1  0  0  3  0  0  0  0  0  0
  188.8240  174.3660  135.3370 N   0  0  0  0  0  2  0  0  0  0  0  0
  189.5500  177.3020  141.0730 C   0  0  0  0  0  3  0  0  0  0  0  0
  189.8130  177.2780  138.6270 C   0  0  0  0  0  0  0  0  0  0  0  0
  187.4900  176.9410  137.5580 C   0  0  0  0  0  2  0  0  0  0  0  0
  188.2990  177.3950  138.5260 C   0  0  0  0  0  0  0  0  0  0  0  0
  187.8340  176.1510  136.4090 N   0  0  2  0  0  0  0  0  0  0  0  0
  191.0440  174.4810  136.9200 C   0  0  0  0  0  2  0  0  0  0  0  0
  190.5030  176.6350  137.5030 N   0  0  0  0  0  0  0  0  0  0  0  0
  186.8040  175.5960  135.6480 N   0  0  0  0  0  2  0  0  0  0  0  0
  192.2890  175.0580  137.5370 C   0  0  2  0  0  3  0  0  0  0  0  0
  191.9360  176.4980  137.7530 C   0  0  0  0  0  2  0  0  0  0  0  0
  187.6440  178.0040  139.6920 C   0  0  0  0  0  3  0  0  0  0  0  0
  188.2460  177.9950  140.8890 C   0  0  0  0  0  0  0  0  0  0  0  0
  189.9410  175.3690  137.2540 N   0  0  1  0  0  0  0  0  0  0  0  0
  187.4610  174.5700  134.8430 C   0  0  0  0  0  2  0  0  0  0  0  0
  193.3940  174.9500  136.5810 C   0  0  0  0  0  0  0  0  0  0  0  0
  194.3190  174.8630  135.8120 C   0  0  0  0  0  0  0  0  0  0  0  0
  195.4690  174.7820  134.9120 C   0  0  0  0  0  2  0  0  0  0  0  0
  196.7620  174.8720  135.7070 C   0  0  0  0  0  2  0  0  0  0  0  0
  197.1150  173.5250  136.3490 C   0  0  1  0  0  3  0  0  0  0  0  0
  197.8020  172.7470  135.4190 O   0  0  0  0  0  1  0  0  0  0  0  0
  198.0090  175.1150  139.7440 C   0  0  0  0  0  0  0  0  0  0  0  0
  196.1040  173.8090  139.1930 O   0  0  0  0  0  1  0  0  0  0  0  0
  200.0950  174.3010  138.6860 C   0  0  0  0  0  2  0  0  0  0  0  0
  199.3110  174.2490  137.3780 C   0  0  0  0  0  2  0  0  0  0  0  0
  197.3830  175.7890  140.7760 O   0  0  0  0  0  1  0  0  0  0  0  0
  197.1630  174.5260  138.6370 C   0  0  2  0  0  3  0  0  0  0  0  0
  197.9330  173.6440  137.6410 C   0  0  1  0  0  3  0  0  0  0  0  0
  199.3380  175.0460  139.7390 C   0  0  0  0  0  3  0  0  0  0  0  0
  187.5500  178.5600  141.9980 N   0  0  0  0  0  2  0  0  0  0  0  0
  186.4180  177.9550  142.5670 N   0  0  0  0  0  0  0  0  0  0  0  0
  186.2500  177.9340  143.8540 C   0  0  0  0  0  3  0  0  0  0  0  0
  188.0460  177.6390  146.5620 C   0  0  1  0  0  0  0  0  0  0  0  0
  187.2550  178.5620  144.7760 C   0  0  1  0  0  3  0  0  0  0  0  0
  188.4300  176.3430  144.5640 O   0  0  0  0  0  1  0  0  0  0  0  0
  189.4490  178.0470  146.1390 C   0  0  2  0  0  3  0  0  0  0  0  0
  186.8190  178.4790  146.2180 C   0  0  0  0  0  2  0  0  0  0  0  0
  188.4480  177.6550  145.0650 C   0  0  2  0  0  0  0  0  0  0  0  0
  187.7920  176.3360  147.0110 O   0  0  0  0  0  1  0  0  0  0  0  0
  190.6100  177.0390  146.2430 C   0  0  2  0  0  0  0  0  0  0  0  0
  191.3610  177.0300  147.5080 C   0  0  0  0  0  2  0  0  0  0  0  0
  191.4590  176.7670  145.0170 C   0  0  0  0  0  1  0  0  0  0  0  0
  190.5170  175.9700  147.1340 O   0  0  0  0  0  0  0  0  0  0  0  0
  1  4  1  0  0  0  0
  2  3  1  1  0  0  0
  2  8  1  0  0  0  0
  2 16  1  0  0  0  0
  5  1  2  0  0  0  0
  6  7  1  0  0  0  0
  7  5  1  0  0  0  0
  7 14  2  0  0  0  0
  8  6  1  1  0  0  0
  9 12  1  0  0  0  0
 10 13  1  0  0  0  0
 10  5  1  0  0  0  0
 11  8  1  0  0  0  0
 12 18  1  6  0  0  0
 12 13  1  0  0  0  0
 14 15  1  0  0  0  0
 15  4  2  0  0  0  0
 15 32  1  0  0  0  0
 16  9  1  6  0  0  0
 16 10  1  0  0  0  0
 17  3  1  0  0  0  0
 17 11  1  0  0  0  0
 19 18  3  0  0  0  0
 20 21  1  0  0  0  0
 20 19  1  0  0  0  0
 21 22  1  0  0  0  0
 22 23  1  6  0  0  0
 24 28  1  0  0  0  0
 26 31  1  0  0  0  0
 27 30  1  0  0  0  0
 27 26  1  0  0  0  0
 29 25  1  1  0  0  0
 29 24  1  0  0  0  0
 30 22  1  6  0  0  0
 30 29  1  0  0  0  0
 31 24  2  0  0  0  0
 32 33  1  0  0  0  0
 33 34  2  0  0  0  0
 35 41  1  1  0  0  0
 36 34  1  6  0  0  0
 36 40  1  0  0  0  0
 36 39  1  0  0  0  0
 38 42  1  1  0  0  0
 38 35  1  0  0  0  0
 39 35  1  0  0  0  0
 40 37  1  6  0  0  0
 40 38  1  0  0  0  0
 40 35  1  0  0  0  0
 42 44  1  6  0  0  0
 42 45  1  0  0  0  0
 42 43  1  0  0  0  0
 45 43  1  0  0  0  0
M  END
>  <MODEL>
9

>  <REMARK>
 VINA RESULT:      -7.7      3.588     12.065
  Name = 
  9 active torsions:
  status: ('A' for Active; 'I' for Inactive)
    1  A    between atoms: C_1  and  C_36
    2  A    between atoms: C_1  and  C_39
    3  A    between atoms: C_2  and  C_39
    4  A    between atoms: C_2  and  C_45
    5  A    between atoms: C_7  and  C_24
    6  A    between atoms: C_13  and  C_16
    7  A    between atoms: N_22  and  N_44
    8  A    between atoms: C_29  and  C_43
    9  A    between atoms: C_35  and  N_44
                            x       y       z     vdW  Elec       q    Type
                         _______ _______ _______ _____ _____    ______ ____

>  <TORSDO>
F 9

$$$$
