=
 OpenBabel10232407563D

 26 28  0  0  1  0  0  0  0  0999 V2000
  183.8420  179.1820  145.2190 N   0  0  0  0  0  2  0  0  0  0  0  0
  187.4820  178.4680  148.2230 O   0  0  0  0  0  1  0  0  0  0  0  0
  185.0840  178.6870  145.4550 C   0  0  0  0  0  0  0  0  0  0  0  0
  186.9370  178.3070  146.9520 C   0  0  0  0  0  0  0  0  0  0  0  0
  185.1950  177.9350  143.1960 N   0  0  0  0  0  0  0  0  0  0  0  0
  183.3540  178.2850  141.6010 C   0  0  0  0  0  1  0  0  0  0  0  0
  189.2080  176.4480  147.2510 O   0  0  0  0  0  0  0  0  0  0  0  0
  190.1880  177.6700  145.5460 N   0  0  0  0  0  2  0  0  0  0  0  0
  187.0700  177.5180  144.6380 C   0  0  0  0  0  0  0  0  0  0  0  0
  182.1050  179.5420  143.8100 O   0  0  0  0  0  0  0  0  0  0  0  0
  185.7860  178.0460  144.4170 C   0  0  0  0  0  0  0  0  0  0  0  0
  189.9360  177.1580  143.1940 C   0  0  1  0  0  3  0  0  0  0  0  0
  190.1060  178.2660  144.2240 C   0  0  0  0  0  2  0  0  0  0  0  0
  187.6680  177.6670  145.9260 C   0  0  0  0  0  0  0  0  0  0  0  0
  183.9520  178.4320  142.9590 C   0  0  0  0  0  0  0  0  0  0  0  0
  183.2590  179.0720  143.9970 C   0  0  0  0  0  0  0  0  0  0  0  0
  188.8880  176.2140  143.5900 N   0  0  0  0  0  2  0  0  0  0  0  0
  185.6600  178.8090  146.7130 C   0  0  0  0  0  3  0  0  0  0  0  0
  187.6640  176.8510  143.5500 O   0  0  0  0  0  0  0  0  0  0  0  0
  189.0370  177.2000  146.2560 C   0  0  0  0  0  0  0  0  0  0  0  0
  189.7200  177.6940  141.8110 C   0  0  0  0  0  0  0  0  0  0  0  0
  190.2150  177.4150  139.3340 C   0  0  0  0  0  0  0  0  0  0  0  0
  188.9780  178.6970  141.6270 O   0  0  0  0  0  0  0  0  0  0  0  0
  189.5190  178.4100  138.9990 O   0  0  0  0  0  0  0  0  0  0  0  0
  190.3410  177.0280  140.7070 N   0  0  0  0  0  2  0  0  0  0  0  0
  190.9180  176.6290  138.2870 C   0  0  0  0  0  1  0  0  0  0  0  0
  1  3  1  0  0  0  0
  3 18  1  0  0  0  0
  4  2  1  0  0  0  0
  5 11  1  0  0  0  0
  6 15  1  0  0  0  0
  8 20  1  0  0  0  0
  9 14  2  0  0  0  0
 10 16  2  0  0  0  0
 11  9  1  0  0  0  0
 11  3  2  0  0  0  0
 12 21  1  6  0  0  0
 12 17  1  0  0  0  0
 12 13  1  0  0  0  0
 13  8  1  0  0  0  0
 14 20  1  0  0  0  0
 14  4  1  0  0  0  0
 15  5  2  0  0  0  0
 15 16  1  0  0  0  0
 16  1  1  0  0  0  0
 18  4  2  0  0  0  0
 19 17  1  0  0  0  0
 19  9  1  0  0  0  0
 20  7  2  0  0  0  0
 22 25  1  0  0  0  0
 23 21  2  0  0  0  0
 24 22  2  0  0  0  0
 25 21  1  0  0  0  0
 26 22  1  0  0  0  0
M  END
>  <MODEL>
1

>  <REMARK>
 VINA RESULT:     -10.2      0.000      0.000
  Name = 
  1 active torsions:
  status: ('A' for Active; 'I' for Inactive)
    1  A    between atoms: C_4  and  C_18
                            x       y       z     vdW  Elec       q    Type
                         _______ _______ _______ _____ _____    ______ ____

>  <TORSDO>
F 1

$$$$
=
 OpenBabel10232407563D

 26 28  0  0  1  0  0  0  0  0999 V2000
  186.7580  178.4370  146.4590 N   0  0  0  0  0  2  0  0  0  0  0  0
  191.3400  177.1320  146.7420 O   0  0  0  0  0  1  0  0  0  0  0  0
  187.8620  177.9100  145.8710 C   0  0  0  0  0  0  0  0  0  0  0  0
  190.1760  177.2360  145.9870 C   0  0  0  0  0  0  0  0  0  0  0  0
  186.6370  177.6440  143.8440 N   0  0  0  0  0  0  0  0  0  0  0  0
  184.2760  178.3090  143.6380 C   0  0  0  0  0  1  0  0  0  0  0  0
  192.0160  175.3660  144.6390 O   0  0  0  0  0  0  0  0  0  0  0  0
  192.0350  176.9200  142.9220 N   0  0  0  0  0  2  0  0  0  0  0  0
  188.9340  176.9460  143.8960 C   0  0  0  0  0  0  0  0  0  0  0  0
  184.5860  179.0730  146.3460 O   0  0  0  0  0  0  0  0  0  0  0  0
  187.8060  177.5020  144.5250 C   0  0  0  0  0  0  0  0  0  0  0  0
  190.4850  176.9070  141.0640 C   0  0  1  0  0  3  0  0  0  0  0  0
  191.3120  177.7770  141.9990 C   0  0  0  0  0  2  0  0  0  0  0  0
  190.1510  176.8260  144.6350 C   0  0  0  0  0  0  0  0  0  0  0  0
  185.5310  178.1730  144.4310 C   0  0  0  0  0  0  0  0  0  0  0  0
  185.5930  178.5800  145.7720 C   0  0  0  0  0  0  0  0  0  0  0  0
  189.7260  175.8960  141.8050 N   0  0  0  0  0  2  0  0  0  0  0  0
  189.0400  177.7700  146.5930 C   0  0  0  0  0  3  0  0  0  0  0  0
  188.7580  176.5210  142.5650 O   0  0  0  0  0  0  0  0  0  0  0  0
  191.4160  176.3080  144.0570 C   0  0  0  0  0  0  0  0  0  0  0  0
  189.6100  177.7170  140.1560 C   0  0  0  0  0  0  0  0  0  0  0  0
  188.9390  178.2140  137.7560 C   0  0  0  0  0  0  0  0  0  0  0  0
  188.7760  178.5320  140.6380 O   0  0  0  0  0  0  0  0  0  0  0  0
  188.0770  179.0710  138.0870 O   0  0  0  0  0  0  0  0  0  0  0  0
  189.7150  177.5250  138.7420 N   0  0  0  0  0  2  0  0  0  0  0  0
  189.1540  177.9130  136.3170 C   0  0  0  0  0  1  0  0  0  0  0  0
  3  1  1  0  0  0  0
  3 18  1  0  0  0  0
  4 18  2  0  0  0  0
  4  2  1  0  0  0  0
  5 15  2  0  0  0  0
  5 11  1  0  0  0  0
  6 15  1  0  0  0  0
  8 20  1  0  0  0  0
  9 11  1  0  0  0  0
  9 14  2  0  0  0  0
 11  3  2  0  0  0  0
 12 21  1  1  0  0  0
 12 17  1  0  0  0  0
 12 13  1  0  0  0  0
 13  8  1  0  0  0  0
 14  4  1  0  0  0  0
 15 16  1  0  0  0  0
 16 10  2  0  0  0  0
 16  1  1  0  0  0  0
 17 19  1  0  0  0  0
 19  9  1  0  0  0  0
 20 14  1  0  0  0  0
 20  7  2  0  0  0  0
 21 23  2  0  0  0  0
 22 24  2  0  0  0  0
 22 25  1  0  0  0  0
 25 21  1  0  0  0  0
 26 22  1  0  0  0  0
M  END
>  <MODEL>
2

>  <REMARK>
 VINA RESULT:      -9.8      1.944      2.740
  Name = 
  1 active torsions:
  status: ('A' for Active; 'I' for Inactive)
    1  A    between atoms: C_4  and  C_18
                            x       y       z     vdW  Elec       q    Type
                         _______ _______ _______ _____ _____    ______ ____

>  <TORSDO>
F 1

$$$$
=
 OpenBabel10232407563D

 26 28  0  0  1  0  0  0  0  0999 V2000
  189.2090  176.5940  143.8860 N   0  0  0  0  0  2  0  0  0  0  0  0
  185.0020  178.0030  145.6470 O   0  0  0  0  0  1  0  0  0  0  0  0
  188.0150  177.2150  143.7070 C   0  0  0  0  0  0  0  0  0  0  0  0
  185.8840  177.9440  144.5710 C   0  0  0  0  0  0  0  0  0  0  0  0
  188.6040  177.6580  141.4400 N   0  0  0  0  0  0  0  0  0  0  0  0
  190.7530  176.9460  140.4770 C   0  0  0  0  0  1  0  0  0  0  0  0
  183.8480  180.0050  144.0150 O   0  0  0  0  0  0  0  0  0  0  0  0
  183.2280  178.6450  142.2460 N   0  0  0  0  0  2  0  0  0  0  0  0
  186.4710  178.4180  142.2420 C   0  0  0  0  0  0  0  0  0  0  0  0
  191.2070  175.9050  143.0700 O   0  0  0  0  0  0  0  0  0  0  0  0
  187.6980  177.7630  142.4500 C   0  0  0  0  0  0  0  0  0  0  0  0
  184.1610  178.8090  140.0190 C   0  0  1  0  0  3  0  0  0  0  0  0
  183.5940  177.8700  141.0740 C   0  0  0  0  0  2  0  0  0  0  0  0
  185.5350  178.4960  143.3180 C   0  0  0  0  0  0  0  0  0  0  0  0
  189.7990  177.0350  141.6180 C   0  0  0  0  0  0  0  0  0  0  0  0
  190.1080  176.4890  142.8730 C   0  0  0  0  0  0  0  0  0  0  0  0
  185.1660  179.7100  140.5900 N   0  0  0  0  0  2  0  0  0  0  0  0
  187.1120  177.3130  144.7570 C   0  0  0  0  0  3  0  0  0  0  0  0
  186.2730  178.9770  140.9650 O   0  0  0  0  0  0  0  0  0  0  0  0
  184.1910  179.1120  143.1960 C   0  0  0  0  0  0  0  0  0  0  0  0
  184.6780  178.0750  138.8200 C   0  0  0  0  0  0  0  0  0  0  0  0
  186.4810  177.9460  137.0330 C   0  0  0  0  0  0  0  0  0  0  0  0
  184.0900  177.0370  138.4080 O   0  0  0  0  0  0  0  0  0  0  0  0
  185.9960  176.9130  136.5010 O   0  0  0  0  0  0  0  0  0  0  0  0
  185.8640  178.5500  138.1750 N   0  0  0  0  0  2  0  0  0  0  0  0
  187.7150  178.5500  136.4670 C   0  0  0  0  0  1  0  0  0  0  0  0
  3  1  1  0  0  0  0
  3 18  1  0  0  0  0
  4 18  2  0  0  0  0
  4  2  1  0  0  0  0
  5 15  2  0  0  0  0
  5 11  1  0  0  0  0
  6 15  1  0  0  0  0
  8 20  1  0  0  0  0
  9 11  1  0  0  0  0
  9 14  2  0  0  0  0
 11  3  2  0  0  0  0
 12 21  1  6  0  0  0
 12 17  1  0  0  0  0
 12 13  1  0  0  0  0
 13  8  1  0  0  0  0
 14  4  1  0  0  0  0
 15 16  1  0  0  0  0
 16 10  2  0  0  0  0
 16  1  1  0  0  0  0
 17 19  1  0  0  0  0
 19  9  1  0  0  0  0
 20 14  1  0  0  0  0
 20  7  2  0  0  0  0
 22 25  1  0  0  0  0
 23 21  2  0  0  0  0
 24 22  2  0  0  0  0
 25 21  1  0  0  0  0
 26 22  1  0  0  0  0
M  END
>  <MODEL>
3

>  <REMARK>
 VINA RESULT:      -8.8      2.782      5.620
  Name = 
  1 active torsions:
  status: ('A' for Active; 'I' for Inactive)
    1  A    between atoms: C_4  and  C_18
                            x       y       z     vdW  Elec       q    Type
                         _______ _______ _______ _____ _____    ______ ____

>  <TORSDO>
F 1

$$$$
=
 OpenBabel10232407563D

 26 28  0  0  1  0  0  0  0  0999 V2000
  189.6100  177.9160  140.7570 N   0  0  0  0  0  2  0  0  0  0  0  0
  185.1190  179.5320  140.7290 O   0  0  0  0  0  1  0  0  0  0  0  0
  188.4160  178.0640  141.3870 C   0  0  0  0  0  0  0  0  0  0  0  0
  186.1400  178.8650  141.3980 C   0  0  0  0  0  0  0  0  0  0  0  0
  189.2970  176.9290  143.2890 N   0  0  0  0  0  0  0  0  0  0  0  0
  191.6070  176.0840  143.3620 C   0  0  0  0  0  1  0  0  0  0  0  0
  183.5810  178.2690  142.7400 O   0  0  0  0  0  0  0  0  0  0  0  0
  184.5020  179.3590  144.5640 N   0  0  0  0  0  2  0  0  0  0  0  0
  187.0210  177.6930  143.3600 C   0  0  0  0  0  0  0  0  0  0  0  0
  191.7480  177.1680  140.7510 O   0  0  0  0  0  0  0  0  0  0  0  0
  188.2500  177.5600  142.6900 C   0  0  0  0  0  0  0  0  0  0  0  0
  185.7910  178.2580  146.2920 C   0  0  1  0  0  3  0  0  0  0  0  0
  185.6060  179.5380  145.4910 C   0  0  0  0  0  2  0  0  0  0  0  0
  185.9470  178.3760  142.7100 C   0  0  0  0  0  0  0  0  0  0  0  0
  190.4920  176.7810  142.6590 C   0  0  0  0  0  0  0  0  0  0  0  0
  190.6530  177.2880  141.3610 C   0  0  0  0  0  0  0  0  0  0  0  0
  185.8060  177.0790  145.4220 N   0  0  0  0  0  2  0  0  0  0  0  0
  187.3630  178.7070  140.7490 C   0  0  0  0  0  3  0  0  0  0  0  0
  186.9420  177.1080  144.6380 O   0  0  0  0  0  0  0  0  0  0  0  0
  184.6290  178.6250  143.3420 C   0  0  0  0  0  0  0  0  0  0  0  0
  186.9900  178.3140  147.1880 C   0  0  0  0  0  0  0  0  0  0  0  0
  189.3730  177.5250  147.5830 C   0  0  0  0  0  0  0  0  0  0  0  0
  186.9790  179.0390  148.2210 O   0  0  0  0  0  0  0  0  0  0  0  0
  189.5040  178.1870  148.6470 O   0  0  0  0  0  0  0  0  0  0  0  0
  188.1530  177.5590  146.8350 N   0  0  0  0  0  2  0  0  0  0  0  0
  190.5050  176.6950  147.0960 C   0  0  0  0  0  1  0  0  0  0  0  0
  1 16  1  0  0  0  0
  1  3  1  0  0  0  0
  2  4  1  0  0  0  0
  3 11  1  0  0  0  0
  4 14  2  0  0  0  0
  7 20  2  0  0  0  0
  8 13  1  0  0  0  0
  9 19  1  0  0  0  0
 10 16  2  0  0  0  0
 11  5  1  0  0  0  0
 11  9  2  0  0  0  0
 12 21  1  6  0  0  0
 13 12  1  0  0  0  0
 14 20  1  0  0  0  0
 14  9  1  0  0  0  0
 15  5  2  0  0  0  0
 15  6  1  0  0  0  0
 16 15  1  0  0  0  0
 17 12  1  0  0  0  0
 18  3  2  0  0  0  0
 18  4  1  0  0  0  0
 19 17  1  0  0  0  0
 20  8  1  0  0  0  0
 21 23  2  0  0  0  0
 22 24  2  0  0  0  0
 25 21  1  0  0  0  0
 25 22  1  0  0  0  0
 26 22  1  0  0  0  0
M  END
>  <MODEL>
4

>  <REMARK>
 VINA RESULT:      -8.7      1.866      6.528
  Name = 
  1 active torsions:
  status: ('A' for Active; 'I' for Inactive)
    1  A    between atoms: C_4  and  C_18
                            x       y       z     vdW  Elec       q    Type
                         _______ _______ _______ _____ _____    ______ ____

>  <TORSDO>
F 1

$$$$
=
 OpenBabel10232407563D

 26 28  0  0  1  0  0  0  0  0999 V2000
  189.2550  176.5700  143.8220 N   0  0  0  0  0  2  0  0  0  0  0  0
  185.0440  177.9610  145.5860 O   0  0  0  0  0  1  0  0  0  0  0  0
  188.0610  177.1920  143.6460 C   0  0  0  0  0  0  0  0  0  0  0  0
  185.9280  177.9130  144.5130 C   0  0  0  0  0  0  0  0  0  0  0  0
  188.6550  177.6570  141.3850 N   0  0  0  0  0  0  0  0  0  0  0  0
  190.8070  176.9560  140.4190 C   0  0  0  0  0  1  0  0  0  0  0  0
  183.8920  179.9770  143.9710 O   0  0  0  0  0  0  0  0  0  0  0  0
  183.2770  178.6340  142.1880 N   0  0  0  0  0  2  0  0  0  0  0  0
  186.5200  178.4090  142.1890 C   0  0  0  0  0  0  0  0  0  0  0  0
  191.2550  175.8910  143.0040 O   0  0  0  0  0  0  0  0  0  0  0  0
  187.7460  177.7520  142.3930 C   0  0  0  0  0  0  0  0  0  0  0  0
  184.2150  178.8200  139.9650 C   0  0  1  0  0  3  0  0  0  0  0  0
  183.6460  177.8700  141.0090 C   0  0  0  0  0  2  0  0  0  0  0  0
  185.5810  178.4760  143.2640 C   0  0  0  0  0  0  0  0  0  0  0  0
  189.8490  177.0330  141.5600 C   0  0  0  0  0  0  0  0  0  0  0  0
  190.1570  176.4750  142.8090 C   0  0  0  0  0  0  0  0  0  0  0  0
  185.2180  179.7160  140.5460 N   0  0  0  0  0  2  0  0  0  0  0  0
  187.1560  177.2800  144.6950 C   0  0  0  0  0  3  0  0  0  0  0  0
  186.3250  178.9800  140.9170 O   0  0  0  0  0  0  0  0  0  0  0  0
  184.2380  179.0930  143.1450 C   0  0  0  0  0  0  0  0  0  0  0  0
  184.7350  178.0970  138.7600 C   0  0  0  0  0  0  0  0  0  0  0  0
  184.4920  176.0760  137.2390 C   0  0  0  0  0  0  0  0  0  0  0  0
  185.6850  178.5830  138.0870 O   0  0  0  0  0  0  0  0  0  0  0  0
  185.4370  176.4270  136.4830 O   0  0  0  0  0  0  0  0  0  0  0  0
  184.1150  176.8670  138.3700 N   0  0  0  0  0  2  0  0  0  0  0  0
  183.7570  174.8170  136.9510 C   0  0  0  0  0  1  0  0  0  0  0  0
  3  1  1  0  0  0  0
  3 18  1  0  0  0  0
  4 18  2  0  0  0  0
  4  2  1  0  0  0  0
  5 15  2  0  0  0  0
  5 11  1  0  0  0  0
  6 15  1  0  0  0  0
  8 20  1  0  0  0  0
  9 11  1  0  0  0  0
  9 14  2  0  0  0  0
 11  3  2  0  0  0  0
 12 21  1  6  0  0  0
 12 17  1  0  0  0  0
 12 13  1  0  0  0  0
 13  8  1  0  0  0  0
 14  4  1  0  0  0  0
 15 16  1  0  0  0  0
 16 10  2  0  0  0  0
 16  1  1  0  0  0  0
 17 19  1  0  0  0  0
 19  9  1  0  0  0  0
 20 14  1  0  0  0  0
 20  7  2  0  0  0  0
 22 25  1  0  0  0  0
 23 21  2  0  0  0  0
 24 22  2  0  0  0  0
 25 21  1  0  0  0  0
 26 22  1  0  0  0  0
M  END
>  <MODEL>
5

>  <REMARK>
 VINA RESULT:      -8.3      2.878      5.861
  Name = 
  1 active torsions:
  status: ('A' for Active; 'I' for Inactive)
    1  A    between atoms: C_4  and  C_18
                            x       y       z     vdW  Elec       q    Type
                         _______ _______ _______ _____ _____    ______ ____

>  <TORSDO>
F 1

$$$$
=
 OpenBabel10232407563D

 26 28  0  0  1  0  0  0  0  0999 V2000
  186.6910  177.7100  144.3760 N   0  0  0  0  0  2  0  0  0  0  0  0
  183.3000  179.0480  141.2960 O   0  0  0  0  0  1  0  0  0  0  0  0
  186.3250  178.0440  143.1120 C   0  0  0  0  0  0  0  0  0  0  0  0
  184.6320  178.7260  141.5340 C   0  0  0  0  0  0  0  0  0  0  0  0
  188.5710  177.7050  142.3890 N   0  0  0  0  0  0  0  0  0  0  0  0
  190.3570  177.0050  143.9300 C   0  0  0  0  0  1  0  0  0  0  0  0
  184.4430  180.1250  138.9440 O   0  0  0  0  0  0  0  0  0  0  0  0
  185.2040  178.1370  138.0300 N   0  0  0  0  0  2  0  0  0  0  0  0
  186.9350  178.3920  140.7700 C   0  0  0  0  0  0  0  0  0  0  0  0
  188.2820  177.0640  145.8540 O   0  0  0  0  0  0  0  0  0  0  0  0
  187.2880  178.0420  142.0850 C   0  0  0  0  0  0  0  0  0  0  0  0
  187.5420  177.6060  137.6970 C   0  0  1  0  0  3  0  0  0  0  0  0
  186.1640  177.0480  138.0240 C   0  0  0  0  0  2  0  0  0  0  0  0
  185.5760  178.7240  140.4820 C   0  0  0  0  0  0  0  0  0  0  0  0
  188.9380  177.3690  143.6530 C   0  0  0  0  0  0  0  0  0  0  0  0
  187.9740  177.3710  144.6720 C   0  0  0  0  0  0  0  0  0  0  0  0
  187.8460  178.7870  138.5080 N   0  0  0  0  0  2  0  0  0  0  0  0
  185.0090  178.3900  142.8330 C   0  0  0  0  0  3  0  0  0  0  0  0
  187.9820  178.4100  139.8290 O   0  0  0  0  0  0  0  0  0  0  0  0
  185.0800  179.0530  139.1230 C   0  0  0  0  0  0  0  0  0  0  0  0
  188.6150  176.5650  137.7900 C   0  0  0  0  0  0  0  0  0  0  0  0
  191.0820  176.1010  138.1850 C   0  0  0  0  0  0  0  0  0  0  0  0
  188.3280  175.3420  137.6650 O   0  0  0  0  0  0  0  0  0  0  0  0
  190.9510  174.8540  138.0670 O   0  0  0  0  0  0  0  0  0  0  0  0
  189.9590  176.9790  138.0550 N   0  0  0  0  0  2  0  0  0  0  0  0
  192.4260  176.6720  138.4620 C   0  0  0  0  0  1  0  0  0  0  0  0
  1 16  1  0  0  0  0
  2  4  1  0  0  0  0
  3  1  1  0  0  0  0
  4 18  2  0  0  0  0
  5 15  2  0  0  0  0
  7 20  2  0  0  0  0
  8 20  1  0  0  0  0
  9 11  1  0  0  0  0
 11  5  1  0  0  0  0
 11  3  2  0  0  0  0
 12 21  1  1  0  0  0
 12 13  1  0  0  0  0
 12 17  1  0  0  0  0
 13  8  1  0  0  0  0
 14  9  2  0  0  0  0
 14  4  1  0  0  0  0
 15  6  1  0  0  0  0
 15 16  1  0  0  0  0
 16 10  2  0  0  0  0
 17 19  1  0  0  0  0
 18  3  1  0  0  0  0
 19  9  1  0  0  0  0
 20 14  1  0  0  0  0
 21 25  1  0  0  0  0
 22 26  1  0  0  0  0
 23 21  2  0  0  0  0
 24 22  2  0  0  0  0
 25 22  1  0  0  0  0
M  END
>  <MODEL>
6

>  <REMARK>
 VINA RESULT:      -8.2      2.789      5.668
  Name = 
  1 active torsions:
  status: ('A' for Active; 'I' for Inactive)
    1  A    between atoms: C_4  and  C_18
                            x       y       z     vdW  Elec       q    Type
                         _______ _______ _______ _____ _____    ______ ____

>  <TORSDO>
F 1

$$$$
=
 OpenBabel10232407563D

 26 28  0  0  1  0  0  0  0  0999 V2000
  185.0950  178.2660  144.9370 N   0  0  0  0  0  2  0  0  0  0  0  0
  186.2290  178.2100  140.3010 O   0  0  0  0  0  1  0  0  0  0  0  0
  186.0420  178.2470  143.9650 C   0  0  0  0  0  0  0  0  0  0  0  0
  186.6450  178.2240  141.6290 C   0  0  0  0  0  0  0  0  0  0  0  0
  187.7380  178.2310  145.6400 N   0  0  0  0  0  0  0  0  0  0  0  0
  187.2110  178.2490  148.0440 C   0  0  0  0  0  1  0  0  0  0  0  0
  188.9220  178.9820  139.9140 O   0  0  0  0  0  0  0  0  0  0  0  0
  189.9170  177.0460  140.7040 N   0  0  0  0  0  2  0  0  0  0  0  0
  188.4040  178.2150  143.3330 C   0  0  0  0  0  0  0  0  0  0  0  0
  184.5310  178.2830  147.1310 O   0  0  0  0  0  0  0  0  0  0  0  0
  187.4040  178.2270  144.3210 C   0  0  0  0  0  0  0  0  0  0  0  0
  191.3020  176.9460  142.6870 C   0  0  1  0  0  3  0  0  0  0  0  0
  190.2980  176.1980  141.8210 C   0  0  0  0  0  2  0  0  0  0  0  0
  188.0190  178.1950  141.9570 C   0  0  0  0  0  0  0  0  0  0  0  0
  186.7890  178.2480  146.6140 C   0  0  0  0  0  0  0  0  0  0  0  0
  185.4340  178.2660  146.2530 C   0  0  0  0  0  0  0  0  0  0  0  0
  190.8470  178.3070  142.9790 N   0  0  0  0  0  2  0  0  0  0  0  0
  185.6730  178.2510  142.6260 C   0  0  0  0  0  3  0  0  0  0  0  0
  189.7340  178.2500  143.7940 O   0  0  0  0  0  0  0  0  0  0  0  0
  188.9860  178.1240  140.8340 C   0  0  0  0  0  0  0  0  0  0  0  0
  191.6560  176.1890  143.9310 C   0  0  0  0  0  0  0  0  0  0  0  0
  191.7470  176.2190  146.4700 C   0  0  0  0  0  0  0  0  0  0  0  0
  192.0860  175.0050  143.8540 O   0  0  0  0  0  0  0  0  0  0  0  0
  192.1980  175.0450  146.5500 O   0  0  0  0  0  0  0  0  0  0  0  0
  191.4670  176.8200  145.2010 N   0  0  0  0  0  2  0  0  0  0  0  0
  191.5010  176.9930  147.7140 C   0  0  0  0  0  1  0  0  0  0  0  0
  1 16  1  0  0  0  0
  2  4  1  0  0  0  0
  3 11  1  0  0  0  0
  3  1  1  0  0  0  0
  4 14  2  0  0  0  0
  4 18  1  0  0  0  0
  5 15  2  0  0  0  0
  7 20  2  0  0  0  0
  8 20  1  0  0  0  0
  8 13  1  0  0  0  0
  9 19  1  0  0  0  0
  9 11  2  0  0  0  0
 11  5  1  0  0  0  0
 12 17  1  0  0  0  0
 12 21  1  1  0  0  0
 13 12  1  0  0  0  0
 14  9  1  0  0  0  0
 15  6  1  0  0  0  0
 16 15  1  0  0  0  0
 16 10  2  0  0  0  0
 17 19  1  0  0  0  0
 18  3  2  0  0  0  0
 20 14  1  0  0  0  0
 21 25  1  0  0  0  0
 22 24  2  0  0  0  0
 22 26  1  0  0  0  0
 23 21  2  0  0  0  0
 25 22  1  0  0  0  0
M  END
>  <MODEL>
7

>  <REMARK>
 VINA RESULT:      -8.1      2.211      5.111
  Name = 
  1 active torsions:
  status: ('A' for Active; 'I' for Inactive)
    1  A    between atoms: C_4  and  C_18
                            x       y       z     vdW  Elec       q    Type
                         _______ _______ _______ _____ _____    ______ ____

>  <TORSDO>
F 1

$$$$
=
 OpenBabel10232407563D

 26 28  0  0  1  0  0  0  0  0999 V2000
  187.1350  177.4240  137.4600 N   0  0  0  0  0  2  0  0  0  0  0  0
  191.6850  176.3250  138.3930 O   0  0  0  0  0  1  0  0  0  0  0  0
  188.1790  177.4040  138.3270 C   0  0  0  0  0  0  0  0  0  0  0  0
  190.4770  176.8650  138.8250 C   0  0  0  0  0  0  0  0  0  0  0  0
  186.7980  178.4120  139.9880 N   0  0  0  0  0  0  0  0  0  0  0  0
  184.4430  178.9910  139.5650 C   0  0  0  0  0  1  0  0  0  0  0  0
  192.6140  177.7290  140.6660 O   0  0  0  0  0  0  0  0  0  0  0  0
  191.4600  176.5220  142.2700 N   0  0  0  0  0  2  0  0  0  0  0  0
  189.0790  177.9070  140.5440 C   0  0  0  0  0  0  0  0  0  0  0  0
  184.9750  177.9270  136.9960 O   0  0  0  0  0  0  0  0  0  0  0  0
  188.0110  177.9100  139.6300 C   0  0  0  0  0  0  0  0  0  0  0  0
  189.7220  177.4520  143.6760 C   0  0  1  0  0  3  0  0  0  0  0  0
  190.2140  176.2090  142.9470 C   0  0  0  0  0  2  0  0  0  0  0  0
  190.3340  177.3570  140.1420 C   0  0  0  0  0  0  0  0  0  0  0  0
  185.7520  178.4310  139.1200 C   0  0  0  0  0  0  0  0  0  0  0  0
  185.9250  177.9240  137.8240 C   0  0  0  0  0  0  0  0  0  0  0  0
  189.7570  178.6310  142.8070 N   0  0  0  0  0  2  0  0  0  0  0  0
  189.4080  176.8910  137.9330 C   0  0  0  0  0  3  0  0  0  0  0  0
  188.8210  178.4830  141.8030 O   0  0  0  0  0  0  0  0  0  0  0  0
  191.5110  177.2510  141.0400 C   0  0  0  0  0  0  0  0  0  0  0  0
  188.3760  177.2510  144.3010 C   0  0  0  0  0  0  0  0  0  0  0  0
  186.8020  177.9020  146.1870 C   0  0  0  0  0  0  0  0  0  0  0  0
  187.5380  176.4720  143.7690 O   0  0  0  0  0  0  0  0  0  0  0  0
  185.8740  177.1520  145.7830 O   0  0  0  0  0  0  0  0  0  0  0  0
  188.0490  177.9800  145.4890 N   0  0  0  0  0  2  0  0  0  0  0  0
  186.6000  178.7200  147.4110 C   0  0  0  0  0  1  0  0  0  0  0  0
  1 16  1  0  0  0  0
  1  3  1  0  0  0  0
  2  4  1  0  0  0  0
  3 11  1  0  0  0  0
  4 14  2  0  0  0  0
  7 20  2  0  0  0  0
  8 13  1  0  0  0  0
  9 19  1  0  0  0  0
 10 16  2  0  0  0  0
 11  5  1  0  0  0  0
 11  9  2  0  0  0  0
 12 21  1  6  0  0  0
 13 12  1  0  0  0  0
 14  9  1  0  0  0  0
 14 20  1  0  0  0  0
 15  6  1  0  0  0  0
 15  5  2  0  0  0  0
 16 15  1  0  0  0  0
 17 12  1  0  0  0  0
 18  3  2  0  0  0  0
 18  4  1  0  0  0  0
 19 17  1  0  0  0  0
 20  8  1  0  0  0  0
 21 25  1  0  0  0  0
 22 26  1  0  0  0  0
 23 21  2  0  0  0  0
 24 22  2  0  0  0  0
 25 22  1  0  0  0  0
M  END
>  <MODEL>
8

>  <REMARK>
 VINA RESULT:      -8.1      2.549      6.384
  Name = 
  1 active torsions:
  status: ('A' for Active; 'I' for Inactive)
    1  A    between atoms: C_4  and  C_18
                            x       y       z     vdW  Elec       q    Type
                         _______ _______ _______ _____ _____    ______ ____

>  <TORSDO>
F 1

$$$$
=
 OpenBabel10232407563D

 26 28  0  0  1  0  0  0  0  0999 V2000
  184.5290  179.6370  141.3410 N   0  0  0  0  0  2  0  0  0  0  0  0
  185.0970  179.2200  146.0620 O   0  0  0  0  0  1  0  0  0  0  0  0
  185.2090  179.1190  142.3960 C   0  0  0  0  0  0  0  0  0  0  0  0
  185.5160  178.8850  144.7780 C   0  0  0  0  0  0  0  0  0  0  0  0
  186.6770  178.0050  140.8840 N   0  0  0  0  0  0  0  0  0  0  0  0
  186.4370  178.1930  138.4410 C   0  0  0  0  0  1  0  0  0  0  0  0
  186.7030  176.9770  146.6890 O   0  0  0  0  0  0  0  0  0  0  0  0
  188.7360  177.8500  146.0070 N   0  0  0  0  0  2  0  0  0  0  0  0
  187.0310  177.7250  143.2420 C   0  0  0  0  0  0  0  0  0  0  0  0
  184.2460  179.8580  139.1040 O   0  0  0  0  0  0  0  0  0  0  0  0
  186.3160  178.2800  142.1670 C   0  0  0  0  0  0  0  0  0  0  0  0
  190.0360  176.9780  144.1610 C   0  0  1  0  0  3  0  0  0  0  0  0
  189.6430  178.2270  144.9370 C   0  0  0  0  0  2  0  0  0  0  0  0
  186.6370  178.0470  144.5770 C   0  0  0  0  0  0  0  0  0  0  0  0
  185.9980  178.5250  139.8270 C   0  0  0  0  0  0  0  0  0  0  0  0
  184.8960  179.3620  140.0620 C   0  0  0  0  0  0  0  0  0  0  0  0
  188.8630  176.1700  143.8180 N   0  0  0  0  0  2  0  0  0  0  0  0
  184.8140  179.4110  143.6950 C   0  0  0  0  0  3  0  0  0  0  0  0
  188.0880  176.8580  142.9050 O   0  0  0  0  0  0  0  0  0  0  0  0
  187.3510  177.5660  145.7850 C   0  0  0  0  0  0  0  0  0  0  0  0
  190.8750  177.2930  142.9600 C   0  0  0  0  0  0  0  0  0  0  0  0
  191.1380  177.0600  140.4440 C   0  0  0  0  0  0  0  0  0  0  0  0
  191.9240  177.9850  143.0820 O   0  0  0  0  0  0  0  0  0  0  0  0
  192.2100  177.7210  140.4110 O   0  0  0  0  0  0  0  0  0  0  0  0
  190.4490  176.8260  141.6770 N   0  0  0  0  0  2  0  0  0  0  0  0
  190.5780  176.5140  139.1800 C   0  0  0  0  0  1  0  0  0  0  0  0
  1  3  1  0  0  0  0
  3 18  1  0  0  0  0
  4  2  1  0  0  0  0
  5 11  1  0  0  0  0
  6 15  1  0  0  0  0
  9 14  2  0  0  0  0
 10 16  2  0  0  0  0
 11  3  2  0  0  0  0
 11  9  1  0  0  0  0
 12 21  1  6  0  0  0
 12 13  1  0  0  0  0
 13  8  1  0  0  0  0
 14  4  1  0  0  0  0
 14 20  1  0  0  0  0
 15 16  1  0  0  0  0
 15  5  2  0  0  0  0
 16  1  1  0  0  0  0
 17 12  1  0  0  0  0
 18  4  2  0  0  0  0
 19  9  1  0  0  0  0
 19 17  1  0  0  0  0
 20  8  1  0  0  0  0
 20  7  2  0  0  0  0
 21 23  2  0  0  0  0
 22 25  1  0  0  0  0
 24 22  2  0  0  0  0
 25 21  1  0  0  0  0
 26 22  1  0  0  0  0
M  END
>  <MODEL>
9

>  <REMARK>
 VINA RESULT:      -8.0      2.263      2.723
  Name = 
  1 active torsions:
  status: ('A' for Active; 'I' for Inactive)
    1  A    between atoms: C_4  and  C_18
                            x       y       z     vdW  Elec       q    Type
                         _______ _______ _______ _____ _____    ______ ____

>  <TORSDO>
F 1

$$$$
