=
 OpenBabel10232412193D

 56 58  0  0  1  0  0  0  0  0999 V2000
  185.8700  179.5940  142.3940 C   0  0  0  0  0  2  0  0  0  0  0  0
  185.9860  177.8830  144.6300 C   0  0  0  0  0  2  0  0  0  0  0  0
  184.5870  179.5270  143.2300 C   0  0  2  0  0  3  0  0  0  0  0  0
  184.7970  179.6960  145.6070 F   0  0  0  0  0  0  0  0  0  0  0  0
  186.5950  178.2390  142.2170 C   0  0  2  0  0  3  0  0  0  0  0  0
  184.7500  178.7860  144.5700 C   0  0  2  0  0  3  0  0  0  0  0  0
  186.2010  177.2060  143.2790 C   0  0  0  0  0  2  0  0  0  0  0  0
  183.4200  178.9760  142.4710 C   0  0  0  0  0  0  0  0  0  0  0  0
  182.3310  178.7360  143.0510 O   0  0  0  0  0  0  0  0  0  0  0  0
  183.5130  178.8670  141.0520 N   0  0  0  0  0  2  0  0  0  0  0  0
  182.3840  178.6320  140.2540 N   0  0  0  0  0  2  0  0  0  0  0  0
  182.1320  177.3300  139.7310 C   0  0  0  0  0  0  0  0  0  0  0  0
  182.9840  176.4150  139.8950 O   0  0  0  0  0  0  0  0  0  0  0  0
  180.8790  177.0870  138.9450 C   0  0  1  0  0  3  0  0  0  0  0  0
  179.9850  178.2280  139.0320 N   0  0  0  0  0  1  0  0  0  0  0  0
  181.1250  176.6880  137.4860 C   0  0  0  0  0  2  0  0  0  0  0  0
  181.4640  175.2040  137.3410 C   0  0  0  0  0  2  0  0  0  0  0  0
  182.3670  174.8910  136.1430 C   0  0  1  0  0  0  0  0  0  0  0  0
  183.5720  174.1930  136.6090 N   0  0  0  0  0  2  0  0  0  0  0  0
  184.3760  173.2580  135.8770 C   0  0  0  0  0  0  0  0  0  0  0  0
  185.0780  172.4310  136.5030 O   0  0  0  0  0  1  0  0  0  0  0  0
  184.3530  173.2160  134.4890 O   0  0  0  0  0  0  0  0  0  0  0  0
  181.4540  173.9230  134.9050 S   0  0  0  0  0  3  0  0  0  0  0  0
  180.9240  172.6970  135.6390 O   0  0  0  0  0  0  0  0  0  0  0  0
  182.7240  176.2600  135.5300 C   0  0  0  0  0  2  0  0  0  0  0  0
  184.1920  176.7050  135.5490 C   0  0  1  0  0  3  0  0  0  0  0  0
  184.4600  177.5750  134.4920 O   0  0  0  0  0  1  0  0  0  0  0  0
  184.5360  177.3290  136.8180 N   0  0  0  0  0  2  0  0  0  0  0  0
  186.8460  178.0550  136.6110 C   0  0  0  0  0  1  0  0  0  0  0  0
  185.9150  176.9780  137.1210 C   0  0  0  0  0  2  0  0  0  0  0  0
  188.0430  178.4220  142.2640 N   0  0  0  0  0  2  0  0  0  0  0  0
  188.6550  177.1550  142.2150 N   0  0  0  0  0  2  0  0  0  0  0  0
  190.1040  177.3550  142.2550 C   0  0  1  0  0  3  0  0  0  0  0  0
  192.6450  176.9520  139.4630 C   0  0  0  0  0  3  0  0  0  0  0  0
  191.8450  176.4850  138.4080 C   0  0  0  0  0  0  0  0  0  0  0  0
  190.4510  176.4310  138.5890 C   0  0  0  0  0  3  0  0  0  0  0  0
  189.8840  176.7570  139.8280 C   0  0  0  0  0  3  0  0  0  0  0  0
  190.6960  177.1660  140.8900 C   0  0  0  0  0  0  0  0  0  0  0  0
  192.0810  177.2760  140.6990 C   0  0  0  0  0  3  0  0  0  0  0  0
  192.3850  174.5280  136.9440 C   0  0  0  0  0  2  0  0  0  0  0  0
  192.4910  176.0390  137.1150 C   0  0  2  0  0  3  0  0  0  0  0  0
  194.6290  175.2000  136.6880 C   0  0  0  0  0  2  0  0  0  0  0  0
  193.9100  176.3920  137.1200 N   0  0  0  0  0  2  0  0  0  0  0  0
  193.7930  174.0160  137.0740 C   0  0  0  0  0  2  0  0  0  0  0  0
  190.4140  178.7010  142.7320 N   0  0  0  0  0  2  0  0  0  0  0  0
  191.3000  178.5860  143.8750 C   0  0  0  0  0  2  0  0  0  0  0  0
  191.0300  177.3380  144.5750 N   0  0  0  0  0  2  0  0  0  0  0  0
  191.8190  177.3370  145.7370 N   0  0  0  0  0  2  0  0  0  0  0  0
  191.0110  176.7580  146.8070 C   0  0  2  0  0  3  0  0  0  0  0  0
  190.1050  177.8040  147.4590 C   0  0  2  0  0  3  0  0  0  0  0  0
  190.3900  177.9220  148.9480 C   0  0  0  0  0  1  0  0  0  0  0  0
  187.6470  178.3990  147.7950 N   0  0  0  0  0  1  0  0  0  0  0  0
  188.6430  177.5670  147.2060 C   0  0  0  0  0  0  0  0  0  0  0  0
  188.2850  176.5910  146.4910 O   0  0  0  0  0  0  0  0  0  0  0  0
  191.8880  176.0500  147.8290 C   0  0  0  0  0  2  0  0  0  0  0  0
  192.7220  175.1480  147.1730 O   0  0  0  0  0  1  0  0  0  0  0  0
  1  3  1  0  0  0  0
  3  8  1  6  0  0  0
  3  6  1  0  0  0  0
  5 31  1  1  0  0  0
  5  1  1  0  0  0  0
  5  7  1  0  0  0  0
  6  2  1  0  0  0  0
  6  4  1  1  0  0  0
  7  2  1  0  0  0  0
  8  9  2  0  0  0  0
 10  8  1  0  0  0  0
 11 10  1  0  0  0  0
 12 13  2  0  0  0  0
 12 11  1  0  0  0  0
 14 15  1  6  0  0  0
 14 12  1  0  0  0  0
 16 14  1  0  0  0  0
 17 16  1  0  0  0  0
 18 25  1  6  0  0  0
 18 19  1  0  0  0  0
 18 17  1  0  0  0  0
 20 21  1  0  0  0  0
 20 19  1  0  0  0  0
 22 20  2  0  0  0  0
 23 24  2  0  0  0  0
 23 18  1  0  0  0  0
 25 26  1  0  0  0  0
 26 27  1  6  0  0  0
 26 28  1  0  0  0  0
 28 30  1  0  0  0  0
 29 30  1  0  0  0  0
 32 31  1  0  0  0  0
 33 32  1  6  0  0  0
 33 45  1  0  0  0  0
 34 39  1  0  0  0  0
 35 36  1  0  0  0  0
 35 34  2  0  0  0  0
 36 37  2  0  0  0  0
 37 38  1  0  0  0  0
 38 33  1  0  0  0  0
 39 38  2  0  0  0  0
 40 44  1  0  0  0  0
 40 41  1  0  0  0  0
 41 43  1  0  0  0  0
 41 35  1  1  0  0  0
 42 44  1  0  0  0  0
 42 43  1  0  0  0  0
 45 46  1  0  0  0  0
 46 47  1  0  0  0  0
 47 48  1  0  0  0  0
 48 49  1  0  0  0  0
 49 50  1  0  0  0  0
 49 55  1  1  0  0  0
 50 51  1  1  0  0  0
 53 50  1  0  0  0  0
 53 52  1  0  0  0  0
 54 53  2  0  0  0  0
 56 55  1  0  0  0  0
M  END
>  <MODEL>
1

>  <REMARK>
 VINA RESULT:      -5.5      0.000      0.000
  Name = 
  25 active torsions:
  status: ('A' for Active; 'I' for Inactive)
    1  A    between atoms: C_1  and  C_17
    2  A    between atoms: C_3  and  C_38
    3  A    between atoms: C_3  and  C_52
    4  A    between atoms: N_4  and  C_16
    5  A    between atoms: N_4  and  N_26
    6  A    between atoms: C_5  and  C_17
    7  A    between atoms: C_5  and  C_36
    8  A    between atoms: C_8  and  C_20
    9  A    between atoms: N_12  and  C_52
   10  A    between atoms: C_14  and  N_24
   11  A    between atoms: C_15  and  C_38
   12  A    between atoms: C_15  and  C_44
   13  A    between atoms: C_16  and  N_48
   14  A    between atoms: C_17  and  N_26
   15  A    between atoms: C_18  and  C_22
   16  A    between atoms: N_24  and  C_43
   17  A    between atoms: N_27  and  N_28
   18  A    between atoms: C_29  and  N_39
   19  A    between atoms: N_30  and  C_34
   20  A    between atoms: N_30  and  N_39
   21  A    between atoms: S_31  and  C_52
   22  A    between atoms: C_34  and  C_45
   23  A    between atoms: C_34  and  N_48
   24  A    between atoms: C_37  and  C_43
   25  A    between atoms: C_37  and  C_52
                            x       y       z     vdW  Elec       q    Type
                         _______ _______ _______ _____ _____    ______ ____

>  <TORSDO>
F 25

$$$$
=
 OpenBabel10232412193D

 56 58  0  0  1  0  0  0  0  0999 V2000
  189.3390  177.5130  137.7070 C   0  0  0  0  0  2  0  0  0  0  0  0
  190.1200  175.5440  135.8480 C   0  0  0  0  0  2  0  0  0  0  0  0
  190.7680  176.9850  137.8790 C   0  0  2  0  0  3  0  0  0  0  0  0
  192.1330  176.8090  135.9230 F   0  0  0  0  0  0  0  0  0  0  0  0
  188.2960  176.4350  137.3310 C   0  0  2  0  0  3  0  0  0  0  0  0
  191.2530  176.1000  136.7160 C   0  0  2  0  0  3  0  0  0  0  0  0
  188.9270  175.1760  136.7260 C   0  0  0  0  0  2  0  0  0  0  0  0
  190.9830  176.2870  139.1870 C   0  0  0  0  0  0  0  0  0  0  0  0
  192.0840  175.7440  139.4520 O   0  0  0  0  0  0  0  0  0  0  0  0
  189.9710  176.3760  140.1870 N   0  0  0  0  0  2  0  0  0  0  0  0
  190.2110  175.9990  141.5170 N   0  0  0  0  0  2  0  0  0  0  0  0
  190.8120  176.9170  142.4260 C   0  0  0  0  0  0  0  0  0  0  0  0
  191.2300  178.0310  142.0060 O   0  0  0  0  0  0  0  0  0  0  0  0
  190.9880  176.5170  143.8610 C   0  0  1  0  0  3  0  0  0  0  0  0
  191.9220  175.4120  143.9780 N   0  0  0  0  0  1  0  0  0  0  0  0
  191.3810  177.6730  144.7870 C   0  0  0  0  0  2  0  0  0  0  0  0
  190.1730  178.2780  145.5020 C   0  0  0  0  0  2  0  0  0  0  0  0
  189.6550  177.4290  146.6680 C   0  0  1  0  0  0  0  0  0  0  0  0
  190.5430  176.2760  146.8650 N   0  0  0  0  0  2  0  0  0  0  0  0
  191.8030  176.2530  147.5490 C   0  0  0  0  0  0  0  0  0  0  0  0
  192.6360  175.3600  147.2710 O   0  0  0  0  0  0  0  0  0  0  0  0
  192.1410  177.2320  148.4760 O   0  0  0  0  0  1  0  0  0  0  0  0
  189.5130  178.4450  148.1690 S   0  0  0  0  0  3  0  0  0  0  0  0
  188.0820  178.2650  148.6620 O   0  0  0  0  0  0  0  0  0  0  0  0
  188.2430  176.9730  146.2480 C   0  0  0  0  0  2  0  0  0  0  0  0
  187.5150  177.7720  145.1580 C   0  0  1  0  0  3  0  0  0  0  0  0
  186.8130  176.9200  144.3060 O   0  0  0  0  0  1  0  0  0  0  0  0
  186.6180  178.7590  145.7410 N   0  0  0  0  0  2  0  0  0  0  0  0
  184.4760  178.7940  144.5920 C   0  0  0  0  0  1  0  0  0  0  0  0
  185.2770  178.1950  145.7270 C   0  0  0  0  0  2  0  0  0  0  0  0
  187.3260  176.9700  136.3780 N   0  0  0  0  0  2  0  0  0  0  0  0
  186.4880  177.8760  137.0550 N   0  0  0  0  0  2  0  0  0  0  0  0
  185.1080  177.5880  136.6630 C   0  0  1  0  0  3  0  0  0  0  0  0
  184.6160  173.8240  136.6290 C   0  0  0  0  0  3  0  0  0  0  0  0
  184.4240  173.5690  135.2620 C   0  0  0  0  0  0  0  0  0  0  0  0
  184.5880  174.6250  134.3470 C   0  0  0  0  0  3  0  0  0  0  0  0
  184.8540  175.9230  134.8030 C   0  0  0  0  0  3  0  0  0  0  0  0
  184.9870  176.1770  136.1720 C   0  0  0  0  0  0  0  0  0  0  0  0
  184.8790  175.1170  137.0850 C   0  0  0  0  0  3  0  0  0  0  0  0
  182.5370  171.9500  134.9750 C   0  0  0  0  0  2  0  0  0  0  0  0
  184.0340  172.1820  134.8030 C   0  0  2  0  0  3  0  0  0  0  0  0
  183.7330  170.2040  136.0110 C   0  0  0  0  0  2  0  0  0  0  0  0
  184.7370  171.1770  135.6000 N   0  0  0  0  0  2  0  0  0  0  0  0
  182.4180  170.9240  136.0680 C   0  0  0  0  0  2  0  0  0  0  0  0
  184.2110  177.7810  137.8000 N   0  0  0  0  0  2  0  0  0  0  0  0
  184.9610  178.4140  138.8700 C   0  0  0  0  0  2  0  0  0  0  0  0
  184.0460  179.1410  139.7390 N   0  0  0  0  0  2  0  0  0  0  0  0
  183.2090  179.9040  138.9100 N   0  0  0  0  0  2  0  0  0  0  0  0
  181.8350  179.6580  139.3390 C   0  0  2  0  0  3  0  0  0  0  0  0
  181.7850  178.8080  140.6110 C   0  0  2  0  0  3  0  0  0  0  0  0
  181.2690  177.4090  140.3140 C   0  0  0  0  0  1  0  0  0  0  0  0
  181.1340  178.9950  143.0700 N   0  0  0  0  0  1  0  0  0  0  0  0
  181.0050  179.4470  141.7250 C   0  0  0  0  0  0  0  0  0  0  0  0
  180.1900  180.3740  141.4620 O   0  0  0  0  0  0  0  0  0  0  0  0
  181.0140  179.0450  138.2150 C   0  0  0  0  0  2  0  0  0  0  0  0
  180.3530  180.0580  137.5230 O   0  0  0  0  0  1  0  0  0  0  0  0
  1  3  1  0  0  0  0
  2  6  1  0  0  0  0
  2  7  1  0  0  0  0
  3  8  1  1  0  0  0
  5 31  1  6  0  0  0
  5  1  1  0  0  0  0
  6  4  1  6  0  0  0
  6  3  1  0  0  0  0
  7  5  1  0  0  0  0
  8  9  2  0  0  0  0
  8 10  1  0  0  0  0
 10 11  1  0  0  0  0
 11 12  1  0  0  0  0
 12 14  1  0  0  0  0
 13 12  2  0  0  0  0
 14 15  1  6  0  0  0
 14 16  1  0  0  0  0
 16 17  1  0  0  0  0
 18 17  1  6  0  0  0
 18 19  1  0  0  0  0
 18 23  1  0  0  0  0
 19 20  1  0  0  0  0
 20 22  1  0  0  0  0
 21 20  2  0  0  0  0
 23 24  2  0  0  0  0
 25 18  1  0  0  0  0
 26 27  1  1  0  0  0
 26 28  1  0  0  0  0
 26 25  1  0  0  0  0
 29 30  1  0  0  0  0
 30 28  1  0  0  0  0
 31 32  1  0  0  0  0
 33 32  1  1  0  0  0
 33 45  1  0  0  0  0
 34 39  1  0  0  0  0
 35 34  2  0  0  0  0
 36 37  2  0  0  0  0
 36 35  1  0  0  0  0
 37 38  1  0  0  0  0
 38 33  1  0  0  0  0
 38 39  2  0  0  0  0
 40 44  1  0  0  0  0
 41 40  1  0  0  0  0
 41 35  1  1  0  0  0
 41 43  1  0  0  0  0
 42 44  1  0  0  0  0
 43 42  1  0  0  0  0
 45 46  1  0  0  0  0
 46 47  1  0  0  0  0
 48 49  1  0  0  0  0
 48 47  1  0  0  0  0
 49 55  1  6  0  0  0
 49 50  1  0  0  0  0
 50 51  1  6  0  0  0
 50 53  1  0  0  0  0
 53 52  1  0  0  0  0
 54 53  2  0  0  0  0
 56 55  1  0  0  0  0
M  END
>  <MODEL>
2

>  <REMARK>
 VINA RESULT:      -5.2      4.036     10.642
  Name = 
  25 active torsions:
  status: ('A' for Active; 'I' for Inactive)
    1  A    between atoms: C_1  and  C_17
    2  A    between atoms: C_3  and  C_38
    3  A    between atoms: C_3  and  C_52
    4  A    between atoms: N_4  and  C_16
    5  A    between atoms: N_4  and  N_26
    6  A    between atoms: C_5  and  C_17
    7  A    between atoms: C_5  and  C_36
    8  A    between atoms: C_8  and  C_20
    9  A    between atoms: N_12  and  C_52
   10  A    between atoms: C_14  and  N_24
   11  A    between atoms: C_15  and  C_38
   12  A    between atoms: C_15  and  C_44
   13  A    between atoms: C_16  and  N_48
   14  A    between atoms: C_17  and  N_26
   15  A    between atoms: C_18  and  C_22
   16  A    between atoms: N_24  and  C_43
   17  A    between atoms: N_27  and  N_28
   18  A    between atoms: C_29  and  N_39
   19  A    between atoms: N_30  and  C_34
   20  A    between atoms: N_30  and  N_39
   21  A    between atoms: S_31  and  C_52
   22  A    between atoms: C_34  and  C_45
   23  A    between atoms: C_34  and  N_48
   24  A    between atoms: C_37  and  C_43
   25  A    between atoms: C_37  and  C_52
                            x       y       z     vdW  Elec       q    Type
                         _______ _______ _______ _____ _____    ______ ____

>  <TORSDO>
F 25

$$$$
=
 OpenBabel10232412193D

 56 58  0  0  1  0  0  0  0  0999 V2000
  185.8080  179.2940  141.7030 C   0  0  0  0  0  2  0  0  0  0  0  0
  185.8880  178.4180  144.3810 C   0  0  0  0  0  2  0  0  0  0  0  0
  184.4650  179.3300  142.4400 C   0  0  2  0  0  3  0  0  0  0  0  0
  184.4260  180.2760  144.6370 F   0  0  0  0  0  0  0  0  0  0  0  0
  186.6840  178.0600  142.0230 C   0  0  2  0  0  3  0  0  0  0  0  0
  184.5750  179.0840  143.9570 C   0  0  2  0  0  3  0  0  0  0  0  0
  186.3020  177.3790  143.3420 C   0  0  0  0  0  2  0  0  0  0  0  0
  183.4400  178.4170  141.8400 C   0  0  0  0  0  0  0  0  0  0  0  0
  182.3290  178.2430  142.4000 O   0  0  0  0  0  0  0  0  0  0  0  0
  183.6850  177.8650  140.5490 N   0  0  0  0  0  2  0  0  0  0  0  0
  182.6700  177.2420  139.8080 N   0  0  0  0  0  2  0  0  0  0  0  0
  182.3010  177.7500  138.5280 C   0  0  0  0  0  0  0  0  0  0  0  0
  182.8100  178.8260  138.1110 O   0  0  0  0  0  0  0  0  0  0  0  0
  181.2680  177.0210  137.7220 C   0  0  1  0  0  3  0  0  0  0  0  0
  180.2980  177.9480  137.1650 N   0  0  0  0  0  1  0  0  0  0  0  0
  181.8510  176.1130  136.6340 C   0  0  0  0  0  2  0  0  0  0  0  0
  182.5770  174.9020  137.2190 C   0  0  0  0  0  2  0  0  0  0  0  0
  182.7810  173.7590  136.2170 C   0  0  1  0  0  0  0  0  0  0  0  0
  181.4820  173.1530  135.8980 N   0  0  0  0  0  2  0  0  0  0  0  0
  181.2040  171.7670  135.6540 C   0  0  0  0  0  0  0  0  0  0  0  0
  180.1950  171.4540  134.9820 O   0  0  0  0  0  0  0  0  0  0  0  0
  182.0580  170.7680  136.1030 O   0  0  0  0  0  1  0  0  0  0  0  0
  183.6320  174.3710  134.7320 S   0  0  0  0  0  3  0  0  0  0  0  0
  184.5050  175.5300  135.1980 O   0  0  0  0  0  0  0  0  0  0  0  0
  183.7020  172.7490  136.9300 C   0  0  0  0  0  2  0  0  0  0  0  0
  185.2200  172.9060  136.7650 C   0  0  1  0  0  3  0  0  0  0  0  0
  185.8530  172.9260  138.0080 O   0  0  0  0  0  1  0  0  0  0  0  0
  185.7700  171.8480  135.9330 N   0  0  0  0  0  2  0  0  0  0  0  0
  188.0960  171.1490  135.8320 C   0  0  0  0  0  1  0  0  0  0  0  0
  187.1090  172.2540  135.5320 C   0  0  0  0  0  2  0  0  0  0  0  0
  188.0950  178.4360  142.0890 N   0  0  0  0  0  2  0  0  0  0  0  0
  188.7200  178.0390  140.8920 N   0  0  0  0  0  2  0  0  0  0  0  0
  190.1110  177.7080  141.2000 C   0  0  1  0  0  3  0  0  0  0  0  0
  190.3730  178.4110  144.9220 C   0  0  0  0  0  3  0  0  0  0  0  0
  190.2750  177.1220  145.4680 C   0  0  0  0  0  0  0  0  0  0  0  0
  190.2530  176.0180  144.5970 C   0  0  0  0  0  3  0  0  0  0  0  0
  190.2450  176.2100  143.2090 C   0  0  0  0  0  3  0  0  0  0  0  0
  190.2850  177.5020  142.6750 C   0  0  0  0  0  0  0  0  0  0  0  0
  190.3630  178.6050  143.5390 C   0  0  0  0  0  3  0  0  0  0  0  0
  188.8190  176.3820  147.3660 C   0  0  0  0  0  2  0  0  0  0  0  0
  190.1790  176.9460  146.9670 C   0  0  2  0  0  3  0  0  0  0  0  0
  189.2650  178.3320  148.6110 C   0  0  0  0  0  2  0  0  0  0  0  0
  190.3400  178.2380  147.6320 N   0  0  0  0  0  2  0  0  0  0  0  0
  188.1280  177.4970  148.0990 C   0  0  0  0  0  2  0  0  0  0  0  0
  190.5070  176.4920  140.4940 N   0  0  0  0  0  2  0  0  0  0  0  0
  191.5140  176.8450  139.5090 C   0  0  0  0  0  2  0  0  0  0  0  0
  191.1230  176.3200  138.2070 N   0  0  0  0  0  2  0  0  0  0  0  0
  191.2610  174.9240  138.2680 N   0  0  0  0  0  2  0  0  0  0  0  0
  192.0140  174.5130  137.0860 C   0  0  2  0  0  3  0  0  0  0  0  0
  192.9660  175.6140  136.6120 C   0  0  2  0  0  3  0  0  0  0  0  0
  192.8570  175.8230  135.1110 C   0  0  0  0  0  1  0  0  0  0  0  0
  195.4600  175.5120  136.0890 N   0  0  0  0  0  1  0  0  0  0  0  0
  194.3930  175.3850  137.0240 C   0  0  0  0  0  0  0  0  0  0  0  0
  194.6510  175.0370  138.2090 O   0  0  0  0  0  0  0  0  0  0  0  0
  191.0790  174.0560  135.9760 C   0  0  0  0  0  2  0  0  0  0  0  0
  191.2520  172.6910  135.7620 O   0  0  0  0  0  1  0  0  0  0  0  0
  1  5  1  0  0  0  0
  1  3  1  0  0  0  0
  3  8  1  6  0  0  0
  3  6  1  0  0  0  0
  5 31  1  1  0  0  0
  5  7  1  0  0  0  0
  6  2  1  0  0  0  0
  6  4  1  1  0  0  0
  7  2  1  0  0  0  0
  8  9  2  0  0  0  0
 10  8  1  0  0  0  0
 11 10  1  0  0  0  0
 12 11  1  0  0  0  0
 13 12  2  0  0  0  0
 14 15  1  6  0  0  0
 14 12  1  0  0  0  0
 16 17  1  0  0  0  0
 16 14  1  0  0  0  0
 18 25  1  1  0  0  0
 18 17  1  0  0  0  0
 19 18  1  0  0  0  0
 20 19  1  0  0  0  0
 20 22  1  0  0  0  0
 21 20  2  0  0  0  0
 23 24  2  0  0  0  0
 23 18  1  0  0  0  0
 26 25  1  0  0  0  0
 26 27  1  1  0  0  0
 28 26  1  0  0  0  0
 30 29  1  0  0  0  0
 30 28  1  0  0  0  0
 32 33  1  0  0  0  0
 32 31  1  0  0  0  0
 33 45  1  6  0  0  0
 33 38  1  0  0  0  0
 34 35  1  0  0  0  0
 36 35  2  0  0  0  0
 37 36  1  0  0  0  0
 38 37  2  0  0  0  0
 38 39  1  0  0  0  0
 39 34  2  0  0  0  0
 40 44  1  0  0  0  0
 41 35  1  6  0  0  0
 41 40  1  0  0  0  0
 41 43  1  0  0  0  0
 43 42  1  0  0  0  0
 44 42  1  0  0  0  0
 46 45  1  0  0  0  0
 47 48  1  0  0  0  0
 47 46  1  0  0  0  0
 49 55  1  6  0  0  0
 49 48  1  0  0  0  0
 50 51  1  6  0  0  0
 50 53  1  0  0  0  0
 50 49  1  0  0  0  0
 52 53  1  0  0  0  0
 53 54  2  0  0  0  0
 56 55  1  0  0  0  0
M  END
>  <MODEL>
3

>  <REMARK>
 VINA RESULT:      -5.1      2.378      6.630
  Name = 
  25 active torsions:
  status: ('A' for Active; 'I' for Inactive)
    1  A    between atoms: C_1  and  C_17
    2  A    between atoms: C_3  and  C_38
    3  A    between atoms: C_3  and  C_52
    4  A    between atoms: N_4  and  C_16
    5  A    between atoms: N_4  and  N_26
    6  A    between atoms: C_5  and  C_17
    7  A    between atoms: C_5  and  C_36
    8  A    between atoms: C_8  and  C_20
    9  A    between atoms: N_12  and  C_52
   10  A    between atoms: C_14  and  N_24
   11  A    between atoms: C_15  and  C_38
   12  A    between atoms: C_15  and  C_44
   13  A    between atoms: C_16  and  N_48
   14  A    between atoms: C_17  and  N_26
   15  A    between atoms: C_18  and  C_22
   16  A    between atoms: N_24  and  C_43
   17  A    between atoms: N_27  and  N_28
   18  A    between atoms: C_29  and  N_39
   19  A    between atoms: N_30  and  C_34
   20  A    between atoms: N_30  and  N_39
   21  A    between atoms: S_31  and  C_52
   22  A    between atoms: C_34  and  C_45
   23  A    between atoms: C_34  and  N_48
   24  A    between atoms: C_37  and  C_43
   25  A    between atoms: C_37  and  C_52
                            x       y       z     vdW  Elec       q    Type
                         _______ _______ _______ _____ _____    ______ ____

>  <TORSDO>
F 25

$$$$
=
 OpenBabel10232412193D

 56 58  0  0  1  0  0  0  0  0999 V2000
  187.5170  177.5010  138.9560 C   0  0  0  0  0  2  0  0  0  0  0  0
  187.1380  178.8430  136.5060 C   0  0  0  0  0  2  0  0  0  0  0  0
  188.7040  177.4370  137.9880 C   0  0  2  0  0  3  0  0  0  0  0  0
  189.3920  179.4710  136.9330 F   0  0  0  0  0  0  0  0  0  0  0  0
  186.1310  177.3770  138.2830 C   0  0  2  0  0  3  0  0  0  0  0  0
  188.5720  178.3730  136.7710 C   0  0  2  0  0  3  0  0  0  0  0  0
  186.1590  177.7060  136.7860 C   0  0  0  0  0  2  0  0  0  0  0  0
  189.0210  176.0440  137.5380 C   0  0  0  0  0  0  0  0  0  0  0  0
  188.4250  175.5340  136.5570 O   0  0  0  0  0  0  0  0  0  0  0  0
  190.1140  175.3590  138.1460 N   0  0  0  0  0  2  0  0  0  0  0  0
  190.6470  174.1840  137.5960 N   0  0  0  0  0  2  0  0  0  0  0  0
  191.5240  174.2500  136.4740 C   0  0  0  0  0  0  0  0  0  0  0  0
  191.7330  175.3570  135.9070 O   0  0  0  0  0  0  0  0  0  0  0  0
  192.1410  172.9860  135.9530 C   0  0  1  0  0  3  0  0  0  0  0  0
  191.5610  172.6180  134.6730 N   0  0  0  0  0  1  0  0  0  0  0  0
  193.6710  173.0240  135.8760 C   0  0  0  0  0  2  0  0  0  0  0  0
  194.3130  173.2590  137.2420 C   0  0  0  0  0  2  0  0  0  0  0  0
  195.5250  174.1980  137.2030 C   0  0  1  0  0  0  0  0  0  0  0  0
  195.1950  175.3860  136.4050 N   0  0  0  0  0  2  0  0  0  0  0  0
  196.0890  176.4220  135.9740 C   0  0  0  0  0  0  0  0  0  0  0  0
  195.6290  177.5540  135.7010 O   0  0  0  0  0  0  0  0  0  0  0  0
  197.4600  176.2110  135.9040 O   0  0  0  0  0  1  0  0  0  0  0  0
  196.0380  174.6310  138.8920 S   0  0  0  0  0  3  0  0  0  0  0  0
  197.5030  175.0410  138.7920 O   0  0  0  0  0  0  0  0  0  0  0  0
  196.6530  173.3830  136.5400 C   0  0  0  0  0  2  0  0  0  0  0  0
  197.2990  172.2470  137.3440 C   0  0  1  0  0  3  0  0  0  0  0  0
  196.6010  171.0530  137.1640 O   0  0  0  0  0  1  0  0  0  0  0  0
  198.6980  172.0760  136.9810 N   0  0  0  0  0  2  0  0  0  0  0  0
  199.4330  171.2290  134.8250 C   0  0  0  0  0  1  0  0  0  0  0  0
  198.7940  170.8850  136.1520 C   0  0  0  0  0  2  0  0  0  0  0  0
  185.1640  178.2590  138.9320 N   0  0  0  0  0  2  0  0  0  0  0  0
  184.1850  177.4660  139.5590 N   0  0  0  0  0  2  0  0  0  0  0  0
  183.2630  178.3600  140.2590 C   0  0  1  0  0  3  0  0  0  0  0  0
  183.4650  179.4330  143.8960 C   0  0  0  0  0  3  0  0  0  0  0  0
  184.8020  179.1420  144.2100 C   0  0  0  0  0  0  0  0  0  0  0  0
  185.6610  178.7150  143.1820 C   0  0  0  0  0  3  0  0  0  0  0  0
  185.1680  178.5040  141.8870 C   0  0  0  0  0  3  0  0  0  0  0  0
  183.8200  178.7420  141.5980 C   0  0  0  0  0  0  0  0  0  0  0  0
  182.9710  179.2220  142.6060 C   0  0  0  0  0  3  0  0  0  0  0  0
  186.6940  178.7130  145.7920 C   0  0  0  0  0  2  0  0  0  0  0  0
  185.2850  179.2770  145.6370 C   0  0  2  0  0  3  0  0  0  0  0  0
  185.2710  177.7480  147.4030 C   0  0  0  0  0  2  0  0  0  0  0  0
  184.4030  178.5320  146.5340 N   0  0  0  0  0  2  0  0  0  0  0  0
  186.5360  177.4830  146.6410 C   0  0  0  0  0  2  0  0  0  0  0  0
  183.0380  179.5690  139.4700 N   0  0  0  0  0  2  0  0  0  0  0  0
  181.6330  179.6200  139.1070 C   0  0  0  0  0  2  0  0  0  0  0  0
  181.3060  178.4750  138.2680 N   0  0  0  0  0  2  0  0  0  0  0  0
  182.0080  178.6330  137.0630 N   0  0  0  0  0  2  0  0  0  0  0  0
  181.5900  177.5520  136.1750 C   0  0  2  0  0  3  0  0  0  0  0  0
  182.6200  176.4190  136.1420 C   0  0  2  0  0  3  0  0  0  0  0  0
  183.0650  176.1270  134.7180 C   0  0  0  0  0  1  0  0  0  0  0  0
  183.0320  174.0690  137.0430 N   0  0  0  0  0  1  0  0  0  0  0  0
  182.1510  175.1690  136.8300 C   0  0  0  0  0  0  0  0  0  0  0  0
  180.9460  175.0710  137.1910 O   0  0  0  0  0  0  0  0  0  0  0  0
  181.2830  178.0790  134.7810 C   0  0  0  0  0  2  0  0  0  0  0  0
  180.0600  177.5650  134.3550 O   0  0  0  0  0  1  0  0  0  0  0  0
  2  6  1  0  0  0  0
  2  7  1  0  0  0  0
  3  8  1  6  0  0  0
  3  1  1  0  0  0  0
  5 31  1  1  0  0  0
  5  1  1  0  0  0  0
  6  4  1  1  0  0  0
  6  3  1  0  0  0  0
  7  5  1  0  0  0  0
  8 10  1  0  0  0  0
  9  8  2  0  0  0  0
 11 10  1  0  0  0  0
 12 11  1  0  0  0  0
 13 12  2  0  0  0  0
 14 15  1  6  0  0  0
 14 12  1  0  0  0  0
 16 14  1  0  0  0  0
 16 17  1  0  0  0  0
 18 25  1  6  0  0  0
 18 17  1  0  0  0  0
 18 23  1  0  0  0  0
 19 18  1  0  0  0  0
 20 19  1  0  0  0  0
 21 20  2  0  0  0  0
 22 20  1  0  0  0  0
 24 23  2  0  0  0  0
 25 26  1  0  0  0  0
 26 27  1  6  0  0  0
 28 26  1  0  0  0  0
 29 30  1  0  0  0  0
 30 28  1  0  0  0  0
 31 32  1  0  0  0  0
 32 33  1  0  0  0  0
 33 45  1  6  0  0  0
 33 38  1  0  0  0  0
 34 35  1  0  0  0  0
 36 35  2  0  0  0  0
 37 36  1  0  0  0  0
 38 37  2  0  0  0  0
 38 39  1  0  0  0  0
 39 34  2  0  0  0  0
 40 44  1  0  0  0  0
 41 35  1  6  0  0  0
 41 40  1  0  0  0  0
 41 43  1  0  0  0  0
 43 42  1  0  0  0  0
 44 42  1  0  0  0  0
 46 45  1  0  0  0  0
 47 46  1  0  0  0  0
 48 47  1  0  0  0  0
 49 55  1  6  0  0  0
 49 48  1  0  0  0  0
 50 51  1  6  0  0  0
 50 49  1  0  0  0  0
 50 53  1  0  0  0  0
 53 52  1  0  0  0  0
 53 54  2  0  0  0  0
 56 55  1  0  0  0  0
M  END
>  <MODEL>
4

>  <REMARK>
 VINA RESULT:      -4.7      4.714     11.678
  Name = 
  25 active torsions:
  status: ('A' for Active; 'I' for Inactive)
    1  A    between atoms: C_1  and  C_17
    2  A    between atoms: C_3  and  C_38
    3  A    between atoms: C_3  and  C_52
    4  A    between atoms: N_4  and  C_16
    5  A    between atoms: N_4  and  N_26
    6  A    between atoms: C_5  and  C_17
    7  A    between atoms: C_5  and  C_36
    8  A    between atoms: C_8  and  C_20
    9  A    between atoms: N_12  and  C_52
   10  A    between atoms: C_14  and  N_24
   11  A    between atoms: C_15  and  C_38
   12  A    between atoms: C_15  and  C_44
   13  A    between atoms: C_16  and  N_48
   14  A    between atoms: C_17  and  N_26
   15  A    between atoms: C_18  and  C_22
   16  A    between atoms: N_24  and  C_43
   17  A    between atoms: N_27  and  N_28
   18  A    between atoms: C_29  and  N_39
   19  A    between atoms: N_30  and  C_34
   20  A    between atoms: N_30  and  N_39
   21  A    between atoms: S_31  and  C_52
   22  A    between atoms: C_34  and  C_45
   23  A    between atoms: C_34  and  N_48
   24  A    between atoms: C_37  and  C_43
   25  A    between atoms: C_37  and  C_52
                            x       y       z     vdW  Elec       q    Type
                         _______ _______ _______ _____ _____    ______ ____

>  <TORSDO>
F 25

$$$$
=
 OpenBabel10232412193D

 56 58  0  0  1  0  0  0  0  0999 V2000
  187.1380  176.1320  137.0230 C   0  0  0  0  0  2  0  0  0  0  0  0
  188.7580  178.4380  137.0580 C   0  0  0  0  0  2  0  0  0  0  0  0
  186.3790  177.4620  136.9560 C   0  0  2  0  0  3  0  0  0  0  0  0
  187.1710  179.1200  135.4240 F   0  0  0  0  0  0  0  0  0  0  0  0
  188.3540  176.1320  137.9770 C   0  0  2  0  0  3  0  0  0  0  0  0
  187.2830  178.6890  136.7310 C   0  0  2  0  0  3  0  0  0  0  0  0
  188.8710  177.5410  138.2890 C   0  0  0  0  0  2  0  0  0  0  0  0
  185.4840  177.6880  138.1350 C   0  0  0  0  0  0  0  0  0  0  0  0
  184.4150  177.0390  138.2640 O   0  0  0  0  0  0  0  0  0  0  0  0
  185.9340  178.5410  139.1860 N   0  0  0  0  0  2  0  0  0  0  0  0
  185.2920  178.5790  140.4330 N   0  0  0  0  0  2  0  0  0  0  0  0
  186.0480  178.7890  141.6230 C   0  0  0  0  0  0  0  0  0  0  0  0
  187.3070  178.8290  141.5650 O   0  0  0  0  0  0  0  0  0  0  0  0
  185.3300  178.9030  142.9350 C   0  0  1  0  0  3  0  0  0  0  0  0
  183.9160  178.6110  142.7770 N   0  0  0  0  0  1  0  0  0  0  0  0
  185.9460  178.0620  144.0580 C   0  0  0  0  0  2  0  0  0  0  0  0
  187.3390  178.5540  144.4510 C   0  0  0  0  0  2  0  0  0  0  0  0
  188.3560  177.4260  144.6610 C   0  0  1  0  0  0  0  0  0  0  0  0
  188.1510  176.8240  145.9850 N   0  0  0  0  0  2  0  0  0  0  0  0
  187.8640  177.5020  147.2150 C   0  0  0  0  0  0  0  0  0  0  0  0
  188.1450  176.9470  148.3020 O   0  0  0  0  0  1  0  0  0  0  0  0
  187.3280  178.7840  147.2270 O   0  0  0  0  0  0  0  0  0  0  0  0
  188.2190  176.2010  143.3260 S   0  0  0  0  0  3  0  0  0  0  0  0
  189.3160  176.5470  142.3260 O   0  0  0  0  0  0  0  0  0  0  0  0
  189.7390  178.1000  144.5690 C   0  0  0  0  0  2  0  0  0  0  0  0
  190.9880  177.2300  144.7660 C   0  0  1  0  0  3  0  0  0  0  0  0
  192.0510  177.7070  143.9980 O   0  0  0  0  0  1  0  0  0  0  0  0
  191.3660  177.1640  146.1700 N   0  0  0  0  0  2  0  0  0  0  0  0
  192.5950  175.8010  147.7640 C   0  0  0  0  0  1  0  0  0  0  0  0
  191.9060  175.8360  146.4170 C   0  0  0  0  0  2  0  0  0  0  0  0
  189.4520  175.3530  137.4100 N   0  0  0  0  0  2  0  0  0  0  0  0
  188.9620  174.0800  137.0600 N   0  0  0  0  0  2  0  0  0  0  0  0
  189.4980  173.7400  135.7420 C   0  0  1  0  0  3  0  0  0  0  0  0
  193.0270  174.6400  136.8130 C   0  0  0  0  0  3  0  0  0  0  0  0
  193.8020  173.9420  135.8730 C   0  0  0  0  0  0  0  0  0  0  0  0
  193.1510  173.2840  134.8150 C   0  0  0  0  0  3  0  0  0  0  0  0
  191.7520  173.2570  134.7500 C   0  0  0  0  0  3  0  0  0  0  0  0
  190.9870  173.9080  135.7230 C   0  0  0  0  0  0  0  0  0  0  0  0
  191.6320  174.6130  136.7500 C   0  0  0  0  0  3  0  0  0  0  0  0
  195.9370  175.2220  135.6080 C   0  0  0  0  0  2  0  0  0  0  0  0
  195.3060  173.8970  136.0240 C   0  0  2  0  0  3  0  0  0  0  0  0
  196.9830  173.4510  134.4590 C   0  0  0  0  0  2  0  0  0  0  0  0
  195.8610  172.8490  135.1690 N   0  0  0  0  0  2  0  0  0  0  0  0
  196.6980  174.9190  134.3470 C   0  0  0  0  0  2  0  0  0  0  0  0
  189.1650  172.3580  135.4050 N   0  0  0  0  0  2  0  0  0  0  0  0
  187.8960  172.3530  134.7000 C   0  0  0  0  0  2  0  0  0  0  0  0
  186.8260  172.0170  135.6290 N   0  0  0  0  0  2  0  0  0  0  0  0
  185.8820  173.0540  135.5620 N   0  0  0  0  0  2  0  0  0  0  0  0
  184.5860  172.4800  135.9140 C   0  0  2  0  0  3  0  0  0  0  0  0
  183.4680  173.0170  135.0160 C   0  0  2  0  0  3  0  0  0  0  0  0
  183.5910  174.5200  134.8300 C   0  0  0  0  0  1  0  0  0  0  0  0
  181.5590  171.3410  135.2490 N   0  0  0  0  0  1  0  0  0  0  0  0
  182.0930  172.6400  135.4880 C   0  0  0  0  0  0  0  0  0  0  0  0
  181.3780  173.5000  136.0740 O   0  0  0  0  0  0  0  0  0  0  0  0
  184.2790  172.6920  137.3890 C   0  0  0  0  0  2  0  0  0  0  0  0
  185.4460  173.0660  138.0520 O   0  0  0  0  0  1  0  0  0  0  0  0
  1  5  1  0  0  0  0
  2  7  1  0  0  0  0
  3  1  1  0  0  0  0
  3  8  1  1  0  0  0
  5 31  1  6  0  0  0
  5  7  1  0  0  0  0
  6  4  1  6  0  0  0
  6  3  1  0  0  0  0
  6  2  1  0  0  0  0
  8  9  2  0  0  0  0
  8 10  1  0  0  0  0
 10 11  1  0  0  0  0
 11 12  1  0  0  0  0
 12 14  1  0  0  0  0
 13 12  2  0  0  0  0
 14 15  1  6  0  0  0
 14 16  1  0  0  0  0
 16 17  1  0  0  0  0
 18 17  1  6  0  0  0
 18 19  1  0  0  0  0
 19 20  1  0  0  0  0
 20 22  2  0  0  0  0
 20 21  1  0  0  0  0
 23 18  1  0  0  0  0
 24 23  2  0  0  0  0
 25 18  1  0  0  0  0
 25 26  1  0  0  0  0
 26 27  1  6  0  0  0
 26 28  1  0  0  0  0
 28 30  1  0  0  0  0
 30 29  1  0  0  0  0
 32 31  1  0  0  0  0
 33 45  1  1  0  0  0
 33 32  1  0  0  0  0
 35 34  2  0  0  0  0
 36 35  1  0  0  0  0
 37 36  2  0  0  0  0
 37 38  1  0  0  0  0
 38 33  1  0  0  0  0
 38 39  2  0  0  0  0
 39 34  1  0  0  0  0
 40 41  1  0  0  0  0
 41 35  1  6  0  0  0
 42 43  1  0  0  0  0
 43 41  1  0  0  0  0
 44 42  1  0  0  0  0
 44 40  1  0  0  0  0
 46 45  1  0  0  0  0
 46 47  1  0  0  0  0
 48 47  1  0  0  0  0
 48 49  1  0  0  0  0
 49 55  1  1  0  0  0
 50 51  1  1  0  0  0
 50 53  1  0  0  0  0
 50 49  1  0  0  0  0
 52 53  1  0  0  0  0
 53 54  2  0  0  0  0
 55 56  1  0  0  0  0
M  END
>  <MODEL>
5

>  <REMARK>
 VINA RESULT:      -4.7      3.323      9.508
  Name = 
  25 active torsions:
  status: ('A' for Active; 'I' for Inactive)
    1  A    between atoms: C_1  and  C_17
    2  A    between atoms: C_3  and  C_38
    3  A    between atoms: C_3  and  C_52
    4  A    between atoms: N_4  and  C_16
    5  A    between atoms: N_4  and  N_26
    6  A    between atoms: C_5  and  C_17
    7  A    between atoms: C_5  and  C_36
    8  A    between atoms: C_8  and  C_20
    9  A    between atoms: N_12  and  C_52
   10  A    between atoms: C_14  and  N_24
   11  A    between atoms: C_15  and  C_38
   12  A    between atoms: C_15  and  C_44
   13  A    between atoms: C_16  and  N_48
   14  A    between atoms: C_17  and  N_26
   15  A    between atoms: C_18  and  C_22
   16  A    between atoms: N_24  and  C_43
   17  A    between atoms: N_27  and  N_28
   18  A    between atoms: C_29  and  N_39
   19  A    between atoms: N_30  and  C_34
   20  A    between atoms: N_30  and  N_39
   21  A    between atoms: S_31  and  C_52
   22  A    between atoms: C_34  and  C_45
   23  A    between atoms: C_34  and  N_48
   24  A    between atoms: C_37  and  C_43
   25  A    between atoms: C_37  and  C_52
                            x       y       z     vdW  Elec       q    Type
                         _______ _______ _______ _____ _____    ______ ____

>  <TORSDO>
F 25

$$$$
=
 OpenBabel10232412193D

 56 58  0  0  1  0  0  0  0  0999 V2000
  189.2200  176.2070  139.0710 C   0  0  0  0  0  2  0  0  0  0  0  0
  188.7900  178.4510  140.7210 C   0  0  0  0  0  2  0  0  0  0  0  0
  190.3610  176.5300  140.0410 C   0  0  2  0  0  3  0  0  0  0  0  0
  189.7900  176.9980  142.3160 F   0  0  0  0  0  0  0  0  0  0  0  0
  188.5510  177.4460  138.4290 C   0  0  2  0  0  3  0  0  0  0  0  0
  190.0080  177.5990  141.0920 C   0  0  2  0  0  3  0  0  0  0  0  0
  188.7940  178.7350  139.2210 C   0  0  0  0  0  2  0  0  0  0  0  0
  191.6390  176.8890  139.3470 C   0  0  0  0  0  0  0  0  0  0  0  0
  192.6050  177.3750  139.9880 O   0  0  0  0  0  0  0  0  0  0  0  0
  191.7980  176.5340  137.9750 N   0  0  0  0  0  2  0  0  0  0  0  0
  193.0490  176.5780  137.3410 N   0  0  0  0  0  2  0  0  0  0  0  0
  193.3080  175.7520  136.2080 C   0  0  0  0  0  0  0  0  0  0  0  0
  192.4520  174.9010  135.8450 O   0  0  0  0  0  0  0  0  0  0  0  0
  194.6250  175.8720  135.5010 C   0  0  1  0  0  3  0  0  0  0  0  0
  195.1690  177.2110  135.6470 N   0  0  0  0  0  1  0  0  0  0  0  0
  195.6520  174.8110  135.9090 C   0  0  0  0  0  2  0  0  0  0  0  0
  196.8260  175.4100  136.6830 C   0  0  0  0  0  2  0  0  0  0  0  0
  197.5100  174.4190  137.6330 C   0  0  1  0  0  0  0  0  0  0  0  0
  197.6530  175.0330  138.9580 N   0  0  0  0  0  2  0  0  0  0  0  0
  198.7690  174.9270  139.8520 C   0  0  0  0  0  0  0  0  0  0  0  0
  198.5930  175.1130  141.0780 O   0  0  0  0  0  1  0  0  0  0  0  0
  200.0320  174.5690  139.3950 O   0  0  0  0  0  0  0  0  0  0  0  0
  196.5720  172.8640  137.6980 S   0  0  0  0  0  3  0  0  0  0  0  0
  195.5690  173.0280  138.8340 O   0  0  0  0  0  0  0  0  0  0  0  0
  198.8890  174.1350  137.0040 C   0  0  0  0  0  2  0  0  0  0  0  0
  199.1050  174.4980  135.5290 C   0  0  1  0  0  3  0  0  0  0  0  0
  200.2180  175.3260  135.3810 O   0  0  0  0  0  1  0  0  0  0  0  0
  199.2490  173.3050  134.7090 N   0  0  0  0  0  2  0  0  0  0  0  0
  199.5190  170.9000  134.9340 C   0  0  0  0  0  1  0  0  0  0  0  0
  199.7870  172.2520  135.5560 C   0  0  0  0  0  2  0  0  0  0  0  0
  187.1100  177.2440  138.3050 N   0  0  0  0  0  2  0  0  0  0  0  0
  186.4670  178.4820  138.4930 N   0  0  0  0  0  2  0  0  0  0  0  0
  185.2150  178.4570  137.7370 C   0  0  1  0  0  3  0  0  0  0  0  0
  185.4490  175.2580  135.7070 C   0  0  0  0  0  3  0  0  0  0  0  0
  184.6740  174.3720  136.4720 C   0  0  0  0  0  0  0  0  0  0  0  0
  183.9740  174.8730  137.5830 C   0  0  0  0  0  3  0  0  0  0  0  0
  184.1160  176.2120  137.9670 C   0  0  0  0  0  3  0  0  0  0  0  0
  184.9370  177.0730  137.2310 C   0  0  0  0  0  0  0  0  0  0  0  0
  185.5940  176.5930  136.0890 C   0  0  0  0  0  3  0  0  0  0  0  0
  183.6050  172.6640  134.9860 C   0  0  0  0  0  2  0  0  0  0  0  0
  184.6190  172.9070  136.0990 C   0  0  2  0  0  3  0  0  0  0  0  0
  183.1670  171.2110  136.7880 C   0  0  0  0  0  2  0  0  0  0  0  0
  184.2110  172.1130  137.2570 N   0  0  0  0  0  2  0  0  0  0  0  0
  182.4930  171.8810  135.6270 C   0  0  0  0  0  2  0  0  0  0  0  0
  184.1060  178.8910  138.5840 N   0  0  0  0  0  2  0  0  0  0  0  0
  184.5600  178.8920  139.9640 C   0  0  0  0  0  2  0  0  0  0  0  0
  183.4420  178.5760  140.8420 N   0  0  0  0  0  2  0  0  0  0  0  0
  182.2790  178.6110  140.0570 N   0  0  0  0  0  2  0  0  0  0  0  0
  181.2620  177.8320  140.7590 C   0  0  2  0  0  3  0  0  0  0  0  0
  180.4200  177.0000  139.7890 C   0  0  2  0  0  3  0  0  0  0  0  0
  180.8290  175.5360  139.8280 C   0  0  0  0  0  1  0  0  0  0  0  0
  180.0690  178.8750  138.0960 N   0  0  0  0  0  1  0  0  0  0  0  0
  180.4350  177.5280  138.3820 C   0  0  0  0  0  0  0  0  0  0  0  0
  180.7400  176.7570  137.4310 O   0  0  0  0  0  0  0  0  0  0  0  0
  180.3980  178.7270  141.6350 C   0  0  0  0  0  2  0  0  0  0  0  0
  180.7580  178.5480  142.9690 O   0  0  0  0  0  1  0  0  0  0  0  0
  1  3  1  0  0  0  0
  2  6  1  0  0  0  0
  3  8  1  6  0  0  0
  3  6  1  0  0  0  0
  5 31  1  1  0  0  0
  5  1  1  0  0  0  0
  5  7  1  0  0  0  0
  6  4  1  1  0  0  0
  7  2  1  0  0  0  0
  8  9  2  0  0  0  0
 10  8  1  0  0  0  0
 11 10  1  0  0  0  0
 12 11  1  0  0  0  0
 13 12  2  0  0  0  0
 14 15  1  1  0  0  0
 14 16  1  0  0  0  0
 14 12  1  0  0  0  0
 16 17  1  0  0  0  0
 18 17  1  6  0  0  0
 18 23  1  0  0  0  0
 18 19  1  0  0  0  0
 19 20  1  0  0  0  0
 20 21  1  0  0  0  0
 22 20  2  0  0  0  0
 23 24  2  0  0  0  0
 25 18  1  0  0  0  0
 26 27  1  1  0  0  0
 26 25  1  0  0  0  0
 28 26  1  0  0  0  0
 28 30  1  0  0  0  0
 29 30  1  0  0  0  0
 31 32  1  0  0  0  0
 33 32  1  1  0  0  0
 33 45  1  0  0  0  0
 34 39  2  0  0  0  0
 34 35  1  0  0  0  0
 35 36  2  0  0  0  0
 36 37  1  0  0  0  0
 38 33  1  0  0  0  0
 38 37  2  0  0  0  0
 39 38  1  0  0  0  0
 40 44  1  0  0  0  0
 40 41  1  0  0  0  0
 41 35  1  1  0  0  0
 41 43  1  0  0  0  0
 42 43  1  0  0  0  0
 44 42  1  0  0  0  0
 45 46  1  0  0  0  0
 46 47  1  0  0  0  0
 48 49  1  0  0  0  0
 48 47  1  0  0  0  0
 49 55  1  6  0  0  0
 50 51  1  6  0  0  0
 50 49  1  0  0  0  0
 52 53  1  0  0  0  0
 53 50  1  0  0  0  0
 54 53  2  0  0  0  0
 55 56  1  0  0  0  0
M  END
>  <MODEL>
6

>  <REMARK>
 VINA RESULT:      -4.5      4.673     11.451
  Name = 
  25 active torsions:
  status: ('A' for Active; 'I' for Inactive)
    1  A    between atoms: C_1  and  C_17
    2  A    between atoms: C_3  and  C_38
    3  A    between atoms: C_3  and  C_52
    4  A    between atoms: N_4  and  C_16
    5  A    between atoms: N_4  and  N_26
    6  A    between atoms: C_5  and  C_17
    7  A    between atoms: C_5  and  C_36
    8  A    between atoms: C_8  and  C_20
    9  A    between atoms: N_12  and  C_52
   10  A    between atoms: C_14  and  N_24
   11  A    between atoms: C_15  and  C_38
   12  A    between atoms: C_15  and  C_44
   13  A    between atoms: C_16  and  N_48
   14  A    between atoms: C_17  and  N_26
   15  A    between atoms: C_18  and  C_22
   16  A    between atoms: N_24  and  C_43
   17  A    between atoms: N_27  and  N_28
   18  A    between atoms: C_29  and  N_39
   19  A    between atoms: N_30  and  C_34
   20  A    between atoms: N_30  and  N_39
   21  A    between atoms: S_31  and  C_52
   22  A    between atoms: C_34  and  C_45
   23  A    between atoms: C_34  and  N_48
   24  A    between atoms: C_37  and  C_43
   25  A    between atoms: C_37  and  C_52
                            x       y       z     vdW  Elec       q    Type
                         _______ _______ _______ _____ _____    ______ ____

>  <TORSDO>
F 25

$$$$
=
 OpenBabel10232412193D

 56 58  0  0  1  0  0  0  0  0999 V2000
  183.4210  179.8080  139.2770 C   0  0  0  0  0  2  0  0  0  0  0  0
  182.4300  178.4070  141.5130 C   0  0  0  0  0  2  0  0  0  0  0  0
  181.9110  179.5490  139.2670 C   0  0  2  0  0  3  0  0  0  0  0  0
  180.6880  180.0080  141.2710 F   0  0  0  0  0  0  0  0  0  0  0  0
  184.2710  178.6330  139.8160 C   0  0  2  0  0  3  0  0  0  0  0  0
  181.3580  179.0060  140.5970 C   0  0  2  0  0  3  0  0  0  0  0  0
  183.4650  177.6560  140.6780 C   0  0  0  0  0  2  0  0  0  0  0  0
  181.4710  178.6790  138.1290 C   0  0  0  0  0  0  0  0  0  0  0  0
  181.8880  178.8880  136.9620 O   0  0  0  0  0  0  0  0  0  0  0  0
  180.6920  177.5190  138.4130 N   0  0  0  0  0  2  0  0  0  0  0  0
  180.4850  176.5160  137.4550 N   0  0  0  0  0  2  0  0  0  0  0  0
  180.8310  175.1640  137.7450 C   0  0  0  0  0  0  0  0  0  0  0  0
  181.4270  174.8880  138.8220 O   0  0  0  0  0  0  0  0  0  0  0  0
  180.5290  174.0980  136.7350 C   0  0  1  0  0  3  0  0  0  0  0  0
  180.0470  174.6830  135.4960 N   0  0  0  0  0  1  0  0  0  0  0  0
  181.6930  173.1360  136.4760 C   0  0  0  0  0  2  0  0  0  0  0  0
  183.0190  173.6730  137.0140 C   0  0  0  0  0  2  0  0  0  0  0  0
  184.2340  173.2860  136.1630 C   0  0  1  0  0  0  0  0  0  0  0  0
  184.5610  174.3870  135.2490 N   0  0  0  0  0  2  0  0  0  0  0  0
  184.5370  175.7920  135.5340 C   0  0  0  0  0  0  0  0  0  0  0  0
  184.4030  176.6070  134.5920 O   0  0  0  0  0  0  0  0  0  0  0  0
  184.6040  176.2680  136.8370 O   0  0  0  0  0  1  0  0  0  0  0  0
  185.6360  172.8480  137.2340 S   0  0  0  0  0  3  0  0  0  0  0  0
  186.5970  174.0290  137.1690 O   0  0  0  0  0  0  0  0  0  0  0  0
  183.8020  172.0290  135.3810 C   0  0  0  0  0  2  0  0  0  0  0  0
  184.8110  171.3880  134.4180 C   0  0  1  0  0  3  0  0  0  0  0  0
  186.0260  172.0730  134.4460 O   0  0  0  0  0  1  0  0  0  0  0  0
  185.0150  169.9820  134.7310 N   0  0  0  0  0  2  0  0  0  0  0  0
  184.1100  168.1160  136.0000 C   0  0  0  0  0  1  0  0  0  0  0  0
  183.9930  169.5920  135.6910 C   0  0  0  0  0  2  0  0  0  0  0  0
  185.3930  179.1320  140.6080 N   0  0  0  0  0  2  0  0  0  0  0  0
  186.2300  178.0470  140.9290 N   0  0  0  0  0  2  0  0  0  0  0  0
  187.6160  178.4890  140.7750 C   0  0  1  0  0  3  0  0  0  0  0  0
  188.7330  177.2080  144.1690 C   0  0  0  0  0  3  0  0  0  0  0  0
  189.9260  177.9190  144.3700 C   0  0  0  0  0  0  0  0  0  0  0  0
  190.2860  178.9120  143.4410 C   0  0  0  0  0  3  0  0  0  0  0  0
  189.5090  179.1260  142.2950 C   0  0  0  0  0  3  0  0  0  0  0  0
  188.3510  178.3720  142.0760 C   0  0  0  0  0  0  0  0  0  0  0  0
  187.9580  177.4180  143.0270 C   0  0  0  0  0  3  0  0  0  0  0  0
  191.8980  176.6070  145.1800 C   0  0  0  0  0  2  0  0  0  0  0  0
  190.8020  177.5970  145.5600 C   0  0  2  0  0  3  0  0  0  0  0  0
  190.7330  175.8140  147.0670 C   0  0  0  0  0  2  0  0  0  0  0  0
  189.9990  176.9910  146.6200 N   0  0  0  0  0  2  0  0  0  0  0  0
  191.5520  175.3360  145.9050 C   0  0  0  0  0  2  0  0  0  0  0  0
  188.2940  177.6790  139.7650 N   0  0  0  0  0  2  0  0  0  0  0  0
  187.3640  177.4390  138.6760 C   0  0  0  0  0  2  0  0  0  0  0  0
  187.8330  178.1220  137.4780 N   0  0  0  0  0  2  0  0  0  0  0  0
  189.2080  177.8610  137.3660 N   0  0  0  0  0  2  0  0  0  0  0  0
  189.3590  176.7220  136.4650 C   0  0  2  0  0  3  0  0  0  0  0  0
  190.8160  176.2620  136.3760 C   0  0  2  0  0  3  0  0  0  0  0  0
  190.9350  174.9700  135.5830 C   0  0  0  0  0  1  0  0  0  0  0  0
  190.7870  175.6130  138.8430 N   0  0  0  0  0  1  0  0  0  0  0  0
  191.4840  176.1370  137.7160 C   0  0  0  0  0  0  0  0  0  0  0  0
  192.6730  176.5380  137.8600 O   0  0  0  0  0  0  0  0  0  0  0  0
  188.7770  177.0300  135.0940 C   0  0  0  0  0  2  0  0  0  0  0  0
  188.0560  175.9270  134.6420 O   0  0  0  0  0  1  0  0  0  0  0  0
  1  5  1  0  0  0  0
  3  8  1  6  0  0  0
  3  1  1  0  0  0  0
  3  6  1  0  0  0  0
  5 31  1  1  0  0  0
  5  7  1  0  0  0  0
  6  4  1  1  0  0  0
  6  2  1  0  0  0  0
  7  2  1  0  0  0  0
  8 10  1  0  0  0  0
  9  8  2  0  0  0  0
 11 12  1  0  0  0  0
 11 10  1  0  0  0  0
 12 13  2  0  0  0  0
 14 15  1  6  0  0  0
 14 12  1  0  0  0  0
 16 14  1  0  0  0  0
 16 17  1  0  0  0  0
 18 25  1  6  0  0  0
 18 17  1  0  0  0  0
 18 23  1  0  0  0  0
 19 20  1  0  0  0  0
 19 18  1  0  0  0  0
 20 22  1  0  0  0  0
 21 20  2  0  0  0  0
 24 23  2  0  0  0  0
 26 27  1  1  0  0  0
 26 28  1  0  0  0  0
 26 25  1  0  0  0  0
 28 30  1  0  0  0  0
 30 29  1  0  0  0  0
 31 32  1  0  0  0  0
 33 45  1  6  0  0  0
 33 32  1  0  0  0  0
 33 38  1  0  0  0  0
 34 35  1  0  0  0  0
 36 35  2  0  0  0  0
 37 36  1  0  0  0  0
 38 37  2  0  0  0  0
 38 39  1  0  0  0  0
 39 34  2  0  0  0  0
 40 41  1  0  0  0  0
 40 44  1  0  0  0  0
 41 35  1  6  0  0  0
 41 43  1  0  0  0  0
 43 42  1  0  0  0  0
 44 42  1  0  0  0  0
 46 45  1  0  0  0  0
 47 46  1  0  0  0  0
 48 47  1  0  0  0  0
 49 55  1  6  0  0  0
 49 48  1  0  0  0  0
 50 51  1  1  0  0  0
 50 49  1  0  0  0  0
 50 53  1  0  0  0  0
 53 54  2  0  0  0  0
 53 52  1  0  0  0  0
 56 55  1  0  0  0  0
M  END
>  <MODEL>
7

>  <REMARK>
 VINA RESULT:      -4.2      3.137      6.869
  Name = 
  25 active torsions:
  status: ('A' for Active; 'I' for Inactive)
    1  A    between atoms: C_1  and  C_17
    2  A    between atoms: C_3  and  C_38
    3  A    between atoms: C_3  and  C_52
    4  A    between atoms: N_4  and  C_16
    5  A    between atoms: N_4  and  N_26
    6  A    between atoms: C_5  and  C_17
    7  A    between atoms: C_5  and  C_36
    8  A    between atoms: C_8  and  C_20
    9  A    between atoms: N_12  and  C_52
   10  A    between atoms: C_14  and  N_24
   11  A    between atoms: C_15  and  C_38
   12  A    between atoms: C_15  and  C_44
   13  A    between atoms: C_16  and  N_48
   14  A    between atoms: C_17  and  N_26
   15  A    between atoms: C_18  and  C_22
   16  A    between atoms: N_24  and  C_43
   17  A    between atoms: N_27  and  N_28
   18  A    between atoms: C_29  and  N_39
   19  A    between atoms: N_30  and  C_34
   20  A    between atoms: N_30  and  N_39
   21  A    between atoms: S_31  and  C_52
   22  A    between atoms: C_34  and  C_45
   23  A    between atoms: C_34  and  N_48
   24  A    between atoms: C_37  and  C_43
   25  A    between atoms: C_37  and  C_52
                            x       y       z     vdW  Elec       q    Type
                         _______ _______ _______ _____ _____    ______ ____

>  <TORSDO>
F 25

$$$$
=
 OpenBabel10232412193D

 56 58  0  0  1  0  0  0  0  0999 V2000
  189.8780  178.5980  139.6920 C   0  0  0  0  0  2  0  0  0  0  0  0
  190.7220  176.0790  138.7520 C   0  0  0  0  0  2  0  0  0  0  0  0
  191.1490  178.0510  140.3500 C   0  0  2  0  0  3  0  0  0  0  0  0
  192.8410  177.1450  138.9210 F   0  0  0  0  0  0  0  0  0  0  0  0
  188.7860  177.5370  139.4200 C   0  0  2  0  0  3  0  0  0  0  0  0
  191.7250  176.8010  139.6570 C   0  0  2  0  0  3  0  0  0  0  0  0
  189.3350  176.1070  139.3890 C   0  0  0  0  0  2  0  0  0  0  0  0
  190.9910  177.8030  141.8180 C   0  0  0  0  0  0  0  0  0  0  0  0
  190.1370  178.4360  142.4880 O   0  0  0  0  0  0  0  0  0  0  0  0
  191.7180  176.7320  142.4160 N   0  0  0  0  0  2  0  0  0  0  0  0
  191.4160  176.2610  143.7030 N   0  0  0  0  0  2  0  0  0  0  0  0
  191.6970  177.0660  144.8460 C   0  0  0  0  0  0  0  0  0  0  0  0
  192.3200  178.1530  144.7070 O   0  0  0  0  0  0  0  0  0  0  0  0
  191.2940  176.5730  146.2040 C   0  0  1  0  0  3  0  0  0  0  0  0
  192.4290  175.9900  146.8990 N   0  0  0  0  0  1  0  0  0  0  0  0
  190.6000  177.6290  147.0700 C   0  0  0  0  0  2  0  0  0  0  0  0
  189.4400  178.3050  146.3390 C   0  0  0  0  0  2  0  0  0  0  0  0
  188.0860  177.6210  146.5640 C   0  0  1  0  0  0  0  0  0  0  0  0
  187.8450  176.6510  145.4890 N   0  0  0  0  0  2  0  0  0  0  0  0
  187.5840  176.9280  144.1070 C   0  0  0  0  0  0  0  0  0  0  0  0
  186.9770  176.0790  143.4150 O   0  0  0  0  0  0  0  0  0  0  0  0
  187.9430  178.1410  143.5320 O   0  0  0  0  0  1  0  0  0  0  0  0
  188.0400  176.8460  148.2070 S   0  0  0  0  0  3  0  0  0  0  0  0
  187.9440  177.9910  149.2080 O   0  0  0  0  0  0  0  0  0  0  0  0
  187.0430  178.7570  146.5270 C   0  0  0  0  0  2  0  0  0  0  0  0
  185.5800  178.3920  146.2430 C   0  0  1  0  0  3  0  0  0  0  0  0
  184.8090  178.5000  147.4010 O   0  0  0  0  0  1  0  0  0  0  0  0
  185.0270  179.2250  145.1860 N   0  0  0  0  0  2  0  0  0  0  0  0
  183.3320  179.1860  143.4440 C   0  0  0  0  0  1  0  0  0  0  0  0
  183.7490  178.6480  144.7950 C   0  0  0  0  0  2  0  0  0  0  0  0
  188.1180  177.8030  138.1480 N   0  0  0  0  0  2  0  0  0  0  0  0
  187.4870  176.6210  137.7190 N   0  0  0  0  0  2  0  0  0  0  0  0
  187.4930  176.6150  136.2550 C   0  0  1  0  0  3  0  0  0  0  0  0
  190.8900  175.8790  134.7290 C   0  0  0  0  0  3  0  0  0  0  0  0
  191.0750  174.5290  135.0700 C   0  0  0  0  0  0  0  0  0  0  0  0
  190.0180  173.8380  135.6890 C   0  0  0  0  0  3  0  0  0  0  0  0
  188.8370  174.5070  136.0330 C   0  0  0  0  0  3  0  0  0  0  0  0
  188.6860  175.8670  135.7400 C   0  0  0  0  0  0  0  0  0  0  0  0
  189.7140  176.5480  135.0740 C   0  0  0  0  0  3  0  0  0  0  0  0
  192.6190  172.6650  135.7100 C   0  0  0  0  0  2  0  0  0  0  0  0
  192.3980  173.8560  134.7820 C   0  0  2  0  0  3  0  0  0  0  0  0
  194.4870  174.0980  135.8010 C   0  0  0  0  0  2  0  0  0  0  0  0
  193.4940  174.7990  134.9960 N   0  0  0  0  0  2  0  0  0  0  0  0
  193.7520  173.0700  136.6100 C   0  0  0  0  0  2  0  0  0  0  0  0
  186.2750  175.9850  135.7500 N   0  0  0  0  0  2  0  0  0  0  0  0
  185.3510  177.0330  135.3550 C   0  0  0  0  0  2  0  0  0  0  0  0
  183.9850  176.5370  135.4530 N   0  0  0  0  0  2  0  0  0  0  0  0
  183.3360  177.3060  136.4320 N   0  0  0  0  0  2  0  0  0  0  0  0
  182.6810  176.3750  137.3470 C   0  0  2  0  0  3  0  0  0  0  0  0
  183.2260  176.5070  138.7720 C   0  0  2  0  0  3  0  0  0  0  0  0
  182.1980  176.0500  139.7950 C   0  0  0  0  0  1  0  0  0  0  0  0
  183.1000  178.6920  140.0820 N   0  0  0  0  0  1  0  0  0  0  0  0
  183.7310  177.8850  139.0910 C   0  0  0  0  0  0  0  0  0  0  0  0
  184.7090  178.3550  138.4460 O   0  0  0  0  0  0  0  0  0  0  0  0
  182.7770  174.9460  136.8330 C   0  0  0  0  0  2  0  0  0  0  0  0
  181.4940  174.4580  136.5920 O   0  0  0  0  0  1  0  0  0  0  0  0
  1  3  1  0  0  0  0
  2  7  1  0  0  0  0
  2  6  1  0  0  0  0
  3  8  1  1  0  0  0
  5 31  1  6  0  0  0
  5  1  1  0  0  0  0
  6  4  1  6  0  0  0
  6  3  1  0  0  0  0
  7  5  1  0  0  0  0
  8 10  1  0  0  0  0
  8  9  2  0  0  0  0
 10 11  1  0  0  0  0
 11 12  1  0  0  0  0
 12 14  1  0  0  0  0
 13 12  2  0  0  0  0
 14 15  1  1  0  0  0
 14 16  1  0  0  0  0
 17 16  1  0  0  0  0
 18 17  1  6  0  0  0
 18 23  1  0  0  0  0
 19 18  1  0  0  0  0
 20 19  1  0  0  0  0
 21 20  2  0  0  0  0
 22 20  1  0  0  0  0
 23 24  2  0  0  0  0
 25 18  1  0  0  0  0
 26 25  1  0  0  0  0
 26 27  1  1  0  0  0
 28 26  1  0  0  0  0
 29 30  1  0  0  0  0
 30 28  1  0  0  0  0
 32 31  1  0  0  0  0
 33 45  1  1  0  0  0
 33 32  1  0  0  0  0
 34 35  2  0  0  0  0
 34 39  1  0  0  0  0
 35 36  1  0  0  0  0
 36 37  2  0  0  0  0
 38 37  1  0  0  0  0
 38 33  1  0  0  0  0
 39 38  2  0  0  0  0
 40 44  1  0  0  0  0
 41 43  1  0  0  0  0
 41 35  1  1  0  0  0
 41 40  1  0  0  0  0
 42 44  1  0  0  0  0
 43 42  1  0  0  0  0
 46 47  1  0  0  0  0
 46 45  1  0  0  0  0
 47 48  1  0  0  0  0
 48 49  1  0  0  0  0
 49 55  1  6  0  0  0
 49 50  1  0  0  0  0
 50 53  1  0  0  0  0
 50 51  1  1  0  0  0
 53 52  1  0  0  0  0
 54 53  2  0  0  0  0
 56 55  1  0  0  0  0
M  END
>  <MODEL>
8

>  <REMARK>
 VINA RESULT:      -4.2      3.365      9.570
  Name = 
  25 active torsions:
  status: ('A' for Active; 'I' for Inactive)
    1  A    between atoms: C_1  and  C_17
    2  A    between atoms: C_3  and  C_38
    3  A    between atoms: C_3  and  C_52
    4  A    between atoms: N_4  and  C_16
    5  A    between atoms: N_4  and  N_26
    6  A    between atoms: C_5  and  C_17
    7  A    between atoms: C_5  and  C_36
    8  A    between atoms: C_8  and  C_20
    9  A    between atoms: N_12  and  C_52
   10  A    between atoms: C_14  and  N_24
   11  A    between atoms: C_15  and  C_38
   12  A    between atoms: C_15  and  C_44
   13  A    between atoms: C_16  and  N_48
   14  A    between atoms: C_17  and  N_26
   15  A    between atoms: C_18  and  C_22
   16  A    between atoms: N_24  and  C_43
   17  A    between atoms: N_27  and  N_28
   18  A    between atoms: C_29  and  N_39
   19  A    between atoms: N_30  and  C_34
   20  A    between atoms: N_30  and  N_39
   21  A    between atoms: S_31  and  C_52
   22  A    between atoms: C_34  and  C_45
   23  A    between atoms: C_34  and  N_48
   24  A    between atoms: C_37  and  C_43
   25  A    between atoms: C_37  and  C_52
                            x       y       z     vdW  Elec       q    Type
                         _______ _______ _______ _____ _____    ______ ____

>  <TORSDO>
F 25

$$$$
=
 OpenBabel10232412193D

 56 58  0  0  1  0  0  0  0  0999 V2000
  189.7710  178.4350  139.0220 C   0  0  0  0  0  2  0  0  0  0  0  0
  189.4390  176.0980  137.4830 C   0  0  0  0  0  2  0  0  0  0  0  0
  190.9770  177.4890  139.0050 C   0  0  2  0  0  3  0  0  0  0  0  0
  191.6820  176.6200  136.8910 F   0  0  0  0  0  0  0  0  0  0  0  0
  188.3990  177.7270  139.0920 C   0  0  2  0  0  3  0  0  0  0  0  0
  190.8670  176.3520  137.9730 C   0  0  2  0  0  3  0  0  0  0  0  0
  188.4570  176.2630  138.6400 C   0  0  0  0  0  2  0  0  0  0  0  0
  191.3060  176.9330  140.3570 C   0  0  0  0  0  0  0  0  0  0  0  0
  192.3890  177.2250  140.9250 O   0  0  0  0  0  0  0  0  0  0  0  0
  190.3100  176.1890  141.0540 N   0  0  0  0  0  2  0  0  0  0  0  0
  190.4360  175.8830  142.4180 N   0  0  0  0  0  2  0  0  0  0  0  0
  190.7930  176.8990  143.3510 C   0  0  0  0  0  0  0  0  0  0  0  0
  191.1050  178.0490  142.9360 O   0  0  0  0  0  0  0  0  0  0  0  0
  190.8460  176.5650  144.8120 C   0  0  1  0  0  3  0  0  0  0  0  0
  191.9770  175.7010  145.1030 N   0  0  0  0  0  1  0  0  0  0  0  0
  190.8350  177.7890  145.7330 C   0  0  0  0  0  2  0  0  0  0  0  0
  189.5320  178.5810  145.6280 C   0  0  0  0  0  2  0  0  0  0  0  0
  188.2880  177.7810  146.0320 C   0  0  1  0  0  0  0  0  0  0  0  0
  188.0740  176.6920  145.0710 N   0  0  0  0  0  2  0  0  0  0  0  0
  187.5530  176.7950  143.7390 C   0  0  0  0  0  0  0  0  0  0  0  0
  187.0210  175.7920  143.2100 O   0  0  0  0  0  1  0  0  0  0  0  0
  187.5760  177.9970  143.0430 O   0  0  0  0  0  0  0  0  0  0  0  0
  188.4630  177.1660  147.7330 S   0  0  0  0  0  3  0  0  0  0  0  0
  188.8670  178.3710  148.5750 O   0  0  0  0  0  0  0  0  0  0  0  0
  187.1230  178.7900  145.9920 C   0  0  0  0  0  2  0  0  0  0  0  0
  186.0270  178.6790  147.0610 C   0  0  1  0  0  3  0  0  0  0  0  0
  185.9530  179.8490  147.8170 O   0  0  0  0  0  1  0  0  0  0  0  0
  184.7360  178.3810  146.4600 N   0  0  0  0  0  2  0  0  0  0  0  0
  183.4830  178.5410  144.3830 C   0  0  0  0  0  1  0  0  0  0  0  0
  184.7180  178.9830  145.1350 C   0  0  0  0  0  2  0  0  0  0  0  0
  187.4180  178.4260  138.2660 N   0  0  0  0  0  2  0  0  0  0  0  0
  186.1340  178.1760  138.7880 N   0  0  0  0  0  2  0  0  0  0  0  0
  185.2230  177.9740  137.6610 C   0  0  1  0  0  3  0  0  0  0  0  0
  183.7260  174.4850  137.6940 C   0  0  0  0  0  3  0  0  0  0  0  0
  184.4470  173.8510  136.6700 C   0  0  0  0  0  0  0  0  0  0  0  0
  185.5110  174.5420  136.0640 C   0  0  0  0  0  3  0  0  0  0  0  0
  185.7900  175.8680  136.4200 C   0  0  0  0  0  3  0  0  0  0  0  0
  185.0280  176.5100  137.4010 C   0  0  0  0  0  0  0  0  0  0  0  0
  184.0010  175.8080  138.0480 C   0  0  0  0  0  3  0  0  0  0  0  0
  183.3810  172.4820  134.8650 C   0  0  0  0  0  2  0  0  0  0  0  0
  184.0590  172.4560  136.2310 C   0  0  2  0  0  3  0  0  0  0  0  0
  182.0290  171.3120  136.4000 C   0  0  0  0  0  2  0  0  0  0  0  0
  183.1180  171.8760  137.1880 N   0  0  0  0  0  2  0  0  0  0  0  0
  181.9500  172.1020  135.1270 C   0  0  0  0  0  2  0  0  0  0  0  0
  183.9290  178.5890  137.9440 N   0  0  0  0  0  2  0  0  0  0  0  0
  184.0070  179.2410  139.2380 C   0  0  0  0  0  2  0  0  0  0  0  0
  182.9440  180.2320  139.3480 N   0  0  0  0  0  2  0  0  0  0  0  0
  182.1280  180.0870  138.2140 N   0  0  0  0  0  2  0  0  0  0  0  0
  180.7450  180.0510  138.6810 C   0  0  2  0  0  3  0  0  0  0  0  0
  180.0340  178.7680  138.2420 C   0  0  2  0  0  3  0  0  0  0  0  0
  180.3510  177.6190  139.1850 C   0  0  0  0  0  1  0  0  0  0  0  0
  180.9500  177.1560  136.4900 N   0  0  0  0  0  1  0  0  0  0  0  0
  180.3150  178.3900  136.8160 C   0  0  0  0  0  0  0  0  0  0  0  0
  180.0190  179.1930  135.8880 O   0  0  0  0  0  0  0  0  0  0  0  0
  179.9890  181.2960  138.2410 C   0  0  0  0  0  2  0  0  0  0  0  0
  180.8130  182.0700  137.4260 O   0  0  0  0  0  1  0  0  0  0  0  0
  1  5  1  0  0  0  0
  2  6  1  0  0  0  0
  2  7  1  0  0  0  0
  3  1  1  0  0  0  0
  3  8  1  1  0  0  0
  5 31  1  6  0  0  0
  6  4  1  6  0  0  0
  6  3  1  0  0  0  0
  7  5  1  0  0  0  0
  8  9  2  0  0  0  0
  8 10  1  0  0  0  0
 10 11  1  0  0  0  0
 11 12  1  0  0  0  0
 12 14  1  0  0  0  0
 13 12  2  0  0  0  0
 14 15  1  6  0  0  0
 14 16  1  0  0  0  0
 17 16  1  0  0  0  0
 18 17  1  6  0  0  0
 18 23  1  0  0  0  0
 19 18  1  0  0  0  0
 20 19  1  0  0  0  0
 21 20  1  0  0  0  0
 22 20  2  0  0  0  0
 23 24  2  0  0  0  0
 25 18  1  0  0  0  0
 25 26  1  0  0  0  0
 26 27  1  6  0  0  0
 28 26  1  0  0  0  0
 29 30  1  0  0  0  0
 30 28  1  0  0  0  0
 31 32  1  0  0  0  0
 33 45  1  1  0  0  0
 33 32  1  0  0  0  0
 34 39  1  0  0  0  0
 35 34  2  0  0  0  0
 36 37  2  0  0  0  0
 36 35  1  0  0  0  0
 37 38  1  0  0  0  0
 38 33  1  0  0  0  0
 38 39  2  0  0  0  0
 40 44  1  0  0  0  0
 40 41  1  0  0  0  0
 41 35  1  1  0  0  0
 41 43  1  0  0  0  0
 42 43  1  0  0  0  0
 44 42  1  0  0  0  0
 45 46  1  0  0  0  0
 46 47  1  0  0  0  0
 48 49  1  0  0  0  0
 48 47  1  0  0  0  0
 49 55  1  6  0  0  0
 50 49  1  0  0  0  0
 50 51  1  1  0  0  0
 52 53  1  0  0  0  0
 53 50  1  0  0  0  0
 54 53  2  0  0  0  0
 56 55  1  0  0  0  0
M  END
>  <MODEL>
9

>  <REMARK>
 VINA RESULT:      -4.1      3.949     10.603
  Name = 
  25 active torsions:
  status: ('A' for Active; 'I' for Inactive)
    1  A    between atoms: C_1  and  C_17
    2  A    between atoms: C_3  and  C_38
    3  A    between atoms: C_3  and  C_52
    4  A    between atoms: N_4  and  C_16
    5  A    between atoms: N_4  and  N_26
    6  A    between atoms: C_5  and  C_17
    7  A    between atoms: C_5  and  C_36
    8  A    between atoms: C_8  and  C_20
    9  A    between atoms: N_12  and  C_52
   10  A    between atoms: C_14  and  N_24
   11  A    between atoms: C_15  and  C_38
   12  A    between atoms: C_15  and  C_44
   13  A    between atoms: C_16  and  N_48
   14  A    between atoms: C_17  and  N_26
   15  A    between atoms: C_18  and  C_22
   16  A    between atoms: N_24  and  C_43
   17  A    between atoms: N_27  and  N_28
   18  A    between atoms: C_29  and  N_39
   19  A    between atoms: N_30  and  C_34
   20  A    between atoms: N_30  and  N_39
   21  A    between atoms: S_31  and  C_52
   22  A    between atoms: C_34  and  C_45
   23  A    between atoms: C_34  and  N_48
   24  A    between atoms: C_37  and  C_43
   25  A    between atoms: C_37  and  C_52
                            x       y       z     vdW  Elec       q    Type
                         _______ _______ _______ _____ _____    ______ ____

>  <TORSDO>
F 25

$$$$
