=
 OpenBabel10232408243D

 30 32  0  0  1  0  0  0  0  0999 V2000
  189.0030  177.4660  144.5970 C   0  0  0  0  0  0  0  0  0  0  0  0
  187.7640  177.7010  143.9840 C   0  0  0  0  0  3  0  0  0  0  0  0
  189.1090  177.5380  145.9880 C   0  0  0  0  0  3  0  0  0  0  0  0
  187.9890  177.8490  146.7630 C   0  0  0  0  0  0  0  0  0  0  0  0
  186.7580  178.0890  146.1470 C   0  0  0  0  0  3  0  0  0  0  0  0
  186.6300  178.0180  144.7500 C   0  0  0  0  0  0  0  0  0  0  0  0
  185.1880  178.1620  142.7070 C   0  0  0  0  0  3  0  0  0  0  0  0
  183.9590  178.4060  142.0720 C   0  0  0  0  0  0  0  0  0  0  0  0
  182.9800  178.8830  144.2420 C   0  0  0  0  0  3  0  0  0  0  0  0
  184.2080  178.6430  144.8580 C   0  0  0  0  0  3  0  0  0  0  0  0
  182.8360  178.7680  142.8560 C   0  0  0  0  0  0  0  0  0  0  0  0
  185.3260  178.2770  144.0970 C   0  0  0  0  0  0  0  0  0  0  0  0
  180.3660  179.0190  143.0230 C   0  0  0  0  0  2  0  0  0  0  0  0
  181.4870  179.0390  142.3150 C   0  0  0  0  0  3  0  0  0  0  0  0
  183.8580  178.2780  140.6500 N   0  0  0  0  0  2  0  0  0  0  0  0
  184.8210  178.8590  139.7270 C   0  0  0  0  0  1  0  0  0  0  0  0
  190.2140  177.1240  143.7900 C   0  0  1  0  0  3  0  0  0  0  0  0
  191.2660  176.7610  144.6330 O   0  0  0  0  0  1  0  0  0  0  0  0
  189.9200  176.0130  142.8220 C   0  0  0  0  0  3  0  0  0  0  0  0
  190.1670  176.0930  141.5590 N   0  0  0  0  0  0  0  0  0  0  0  0
  190.7340  177.2680  140.9450 C   0  0  0  0  0  2  0  0  0  0  0  0
  189.1790  177.7680  137.0140 N   0  0  0  0  0  0  0  0  0  0  0  0
  189.0110  178.1910  139.3590 C   0  0  0  0  0  0  0  0  0  0  0  0
  188.5260  178.3440  138.0580 C   0  0  0  0  0  3  0  0  0  0  0  0
  190.3120  177.0370  137.1990 C   0  0  0  0  0  3  0  0  0  0  0  0
  188.3370  178.7850  140.4210 O   0  0  0  0  0  1  0  0  0  0  0  0
  190.1740  177.4390  139.5730 C   0  0  0  0  0  0  0  0  0  0  0  0
  190.8320  176.8610  138.4830 C   0  0  0  0  0  3  0  0  0  0  0  0
  188.1850  177.9770  149.3450 N   0  0  0  0  0  0  0  0  0  0  0  0
  188.0990  177.9180  148.1920 C   0  0  0  0  0  0  0  0  0  0  0  0
  1  3  1  0  0  0  0
  2  1  2  0  0  0  0
  2  6  1  0  0  0  0
  3  4  2  0  0  0  0
  4 30  1  0  0  0  0
  5  4  1  0  0  0  0
  6  5  2  0  0  0  0
  7 12  1  0  0  0  0
  8  7  2  0  0  0  0
  8 11  1  0  0  0  0
  9 10  1  0  0  0  0
 11  9  2  0  0  0  0
 12  6  1  0  0  0  0
 12 10  2  0  0  0  0
 14 11  1  0  0  0  0
 14 13  2  0  0  0  0
 15  8  1  0  0  0  0
 16 15  1  0  0  0  0
 17  1  1  0  0  0  0
 17 18  1  1  0  0  0
 19 17  1  0  0  0  0
 20 19  2  0  0  0  0
 21 20  1  0  0  0  0
 22 25  2  0  0  0  0
 22 24  1  0  0  0  0
 23 27  1  0  0  0  0
 23 26  1  0  0  0  0
 24 23  2  0  0  0  0
 25 28  1  0  0  0  0
 27 21  1  0  0  0  0
 28 27  2  0  0  0  0
 30 29  3  0  0  0  0
M  END
>  <MODEL>
1

>  <REMARK>
 VINA RESULT:      -9.1      0.000      0.000
  Name = 
  8 active torsions:
  status: ('A' for Active; 'I' for Inactive)
    1  A    between atoms: C_1  and  N_16
    2  A    between atoms: C_1  and  C_25
    3  A    between atoms: N_4  and  C_9
    4  A    between atoms: C_6  and  C_10
    5  A    between atoms: C_8  and  C_10
    6  A    between atoms: C_13  and  C_22
    7  A    between atoms: C_20  and  C_30
    8  A    between atoms: C_26  and  C_29
                            x       y       z     vdW  Elec       q    Type
                         _______ _______ _______ _____ _____    ______ ____

>  <TORSDO>
F 8

$$$$
=
 OpenBabel10232408243D

 30 32  0  0  1  0  0  0  0  0999 V2000
  187.7560  177.6780  145.7230 C   0  0  0  0  0  0  0  0  0  0  0  0
  187.7820  177.7560  144.3230 C   0  0  0  0  0  3  0  0  0  0  0  0
  188.9140  177.3150  146.4150 C   0  0  0  0  0  3  0  0  0  0  0  0
  190.0880  177.0240  145.7160 C   0  0  0  0  0  0  0  0  0  0  0  0
  190.1070  177.0960  144.3210 C   0  0  0  0  0  3  0  0  0  0  0  0
  188.9540  177.4630  143.6070 C   0  0  0  0  0  0  0  0  0  0  0  0
  189.9320  176.8260  141.3900 C   0  0  0  0  0  3  0  0  0  0  0  0
  189.9640  176.8850  139.9870 C   0  0  0  0  0  0  0  0  0  0  0  0
  188.0520  178.3800  140.0470 C   0  0  0  0  0  3  0  0  0  0  0  0
  188.0350  178.3150  141.4400 C   0  0  0  0  0  3  0  0  0  0  0  0
  189.0030  177.6730  139.3060 C   0  0  0  0  0  0  0  0  0  0  0  0
  188.9730  177.5350  142.1270 C   0  0  0  0  0  0  0  0  0  0  0  0
  189.0170  178.9560  137.1740 C   0  0  0  0  0  2  0  0  0  0  0  0
  188.9210  177.8100  137.8360 C   0  0  0  0  0  3  0  0  0  0  0  0
  190.9580  176.1470  139.2690 N   0  0  0  0  0  2  0  0  0  0  0  0
  192.2560  176.6980  138.9090 C   0  0  0  0  0  1  0  0  0  0  0  0
  186.5140  177.9920  146.4930 C   0  0  1  0  0  3  0  0  0  0  0  0
  186.7740  177.9420  147.8640 O   0  0  0  0  0  1  0  0  0  0  0  0
  185.9750  179.3440  146.1180 C   0  0  0  0  0  3  0  0  0  0  0  0
  184.8470  179.5120  145.5170 N   0  0  0  0  0  0  0  0  0  0  0  0
  183.9960  178.4150  145.1260 C   0  0  0  0  0  2  0  0  0  0  0  0
  183.0320  178.8020  140.9980 N   0  0  0  0  0  0  0  0  0  0  0  0
  182.3190  178.7360  143.2770 C   0  0  0  0  0  0  0  0  0  0  0  0
  182.0310  178.8650  141.9160 C   0  0  0  0  0  3  0  0  0  0  0  0
  184.3280  178.6160  141.3690 C   0  0  0  0  0  3  0  0  0  0  0  0
  181.2890  178.8040  144.2090 O   0  0  0  0  0  1  0  0  0  0  0  0
  183.6470  178.5390  143.6810 C   0  0  0  0  0  0  0  0  0  0  0  0
  184.6590  178.4840  142.7190 C   0  0  0  0  0  3  0  0  0  0  0  0
  192.2370  176.3540  147.0020 N   0  0  0  0  0  0  0  0  0  0  0  0
  191.2770  176.6550  146.4290 C   0  0  0  0  0  0  0  0  0  0  0  0
  1  3  1  0  0  0  0
  1 17  1  0  0  0  0
  2  1  2  0  0  0  0
  4  3  2  0  0  0  0
  4 30  1  0  0  0  0
  5  4  1  0  0  0  0
  6  5  2  0  0  0  0
  6  2  1  0  0  0  0
  7 12  1  0  0  0  0
  8  7  2  0  0  0  0
  9 10  1  0  0  0  0
 10 12  2  0  0  0  0
 11  8  1  0  0  0  0
 11  9  2  0  0  0  0
 12  6  1  0  0  0  0
 13 14  2  0  0  0  0
 14 11  1  0  0  0  0
 15  8  1  0  0  0  0
 16 15  1  0  0  0  0
 17 18  1  1  0  0  0
 19 17  1  0  0  0  0
 20 19  2  0  0  0  0
 21 20  1  0  0  0  0
 22 25  2  0  0  0  0
 22 24  1  0  0  0  0
 23 27  1  0  0  0  0
 23 26  1  0  0  0  0
 24 23  2  0  0  0  0
 25 28  1  0  0  0  0
 27 21  1  0  0  0  0
 28 27  2  0  0  0  0
 30 29  3  0  0  0  0
M  END
>  <MODEL>
2

>  <REMARK>
 VINA RESULT:      -8.7      2.485      6.340
  Name = 
  8 active torsions:
  status: ('A' for Active; 'I' for Inactive)
    1  A    between atoms: C_1  and  N_16
    2  A    between atoms: C_1  and  C_25
    3  A    between atoms: N_4  and  C_9
    4  A    between atoms: C_6  and  C_10
    5  A    between atoms: C_8  and  C_10
    6  A    between atoms: C_13  and  C_22
    7  A    between atoms: C_20  and  C_30
    8  A    between atoms: C_26  and  C_29
                            x       y       z     vdW  Elec       q    Type
                         _______ _______ _______ _____ _____    ______ ____

>  <TORSDO>
F 8

$$$$
=
 OpenBabel10232408243D

 30 32  0  0  1  0  0  0  0  0999 V2000
  187.6820  177.6680  145.7090 C   0  0  0  0  0  0  0  0  0  0  0  0
  187.8570  177.6950  144.3170 C   0  0  0  0  0  3  0  0  0  0  0  0
  188.7650  177.3550  146.5340 C   0  0  0  0  0  3  0  0  0  0  0  0
  190.0120  177.0630  145.9760 C   0  0  0  0  0  0  0  0  0  0  0  0
  190.1800  177.0850  144.5890 C   0  0  0  0  0  3  0  0  0  0  0  0
  189.1050  177.4010  143.7420 C   0  0  0  0  0  0  0  0  0  0  0  0
  188.3080  177.9940  141.4420 C   0  0  0  0  0  3  0  0  0  0  0  0
  188.4590  178.0180  140.0470 C   0  0  0  0  0  0  0  0  0  0  0  0
  190.5900  176.8820  140.3000 C   0  0  0  0  0  3  0  0  0  0  0  0
  190.4230  176.8610  141.6840 C   0  0  0  0  0  3  0  0  0  0  0  0
  189.6240  177.4560  139.4680 C   0  0  0  0  0  0  0  0  0  0  0  0
  189.2810  177.4200  142.2720 C   0  0  0  0  0  0  0  0  0  0  0  0
  190.0950  176.3260  137.3010 C   0  0  0  0  0  2  0  0  0  0  0  0
  189.9100  177.4270  138.0180 C   0  0  0  0  0  3  0  0  0  0  0  0
  187.4440  178.6140  139.2330 N   0  0  0  0  0  2  0  0  0  0  0  0
  186.6300  177.8590  138.2930 C   0  0  0  0  0  1  0  0  0  0  0  0
  186.3590  177.9830  146.3290 C   0  0  1  0  0  3  0  0  0  0  0  0
  186.4480  177.8930  147.7190 O   0  0  0  0  0  1  0  0  0  0  0  0
  185.8890  179.3530  145.9290 C   0  0  0  0  0  3  0  0  0  0  0  0
  184.7760  179.5660  145.3140 N   0  0  0  0  0  0  0  0  0  0  0  0
  183.8780  178.5050  144.9300 C   0  0  0  0  0  2  0  0  0  0  0  0
  183.0990  178.7810  140.7540 N   0  0  0  0  0  0  0  0  0  0  0  0
  182.2840  178.7660  143.0000 C   0  0  0  0  0  0  0  0  0  0  0  0
  182.0570  178.8590  141.6250 C   0  0  0  0  0  3  0  0  0  0  0  0
  184.3790  178.6150  141.1880 C   0  0  0  0  0  3  0  0  0  0  0  0
  181.2120  178.8490  143.8820 O   0  0  0  0  0  1  0  0  0  0  0  0
  183.5930  178.5900  143.4680 C   0  0  0  0  0  0  0  0  0  0  0  0
  184.6490  178.5190  142.5550 C   0  0  0  0  0  3  0  0  0  0  0  0
  192.0200  176.4950  147.5150 N   0  0  0  0  0  0  0  0  0  0  0  0
  191.1240  176.7470  146.8260 C   0  0  0  0  0  0  0  0  0  0  0  0
  1 17  1  0  0  0  0
  1  3  1  0  0  0  0
  2  1  2  0  0  0  0
  4  3  2  0  0  0  0
  4 30  1  0  0  0  0
  5  4  1  0  0  0  0
  6  2  1  0  0  0  0
  6  5  2  0  0  0  0
  7 12  1  0  0  0  0
  8  7  2  0  0  0  0
  9 10  1  0  0  0  0
 10 12  2  0  0  0  0
 11  8  1  0  0  0  0
 11  9  2  0  0  0  0
 12  6  1  0  0  0  0
 13 14  2  0  0  0  0
 14 11  1  0  0  0  0
 15  8  1  0  0  0  0
 16 15  1  0  0  0  0
 17 18  1  1  0  0  0
 19 17  1  0  0  0  0
 20 19  2  0  0  0  0
 21 20  1  0  0  0  0
 22 25  2  0  0  0  0
 22 24  1  0  0  0  0
 23 27  1  0  0  0  0
 23 26  1  0  0  0  0
 24 23  2  0  0  0  0
 25 28  1  0  0  0  0
 27 21  1  0  0  0  0
 28 27  2  0  0  0  0
 30 29  3  0  0  0  0
M  END
>  <MODEL>
3

>  <REMARK>
 VINA RESULT:      -8.6      2.464      6.241
  Name = 
  8 active torsions:
  status: ('A' for Active; 'I' for Inactive)
    1  A    between atoms: C_1  and  N_16
    2  A    between atoms: C_1  and  C_25
    3  A    between atoms: N_4  and  C_9
    4  A    between atoms: C_6  and  C_10
    5  A    between atoms: C_8  and  C_10
    6  A    between atoms: C_13  and  C_22
    7  A    between atoms: C_20  and  C_30
    8  A    between atoms: C_26  and  C_29
                            x       y       z     vdW  Elec       q    Type
                         _______ _______ _______ _____ _____    ______ ____

>  <TORSDO>
F 8

$$$$
=
 OpenBabel10232408243D

 30 32  0  0  1  0  0  0  0  0999 V2000
  183.7790  178.2560  141.0880 C   0  0  0  0  0  0  0  0  0  0  0  0
  184.8100  178.0770  142.0230 C   0  0  0  0  0  3  0  0  0  0  0  0
  182.5290  178.7070  141.5190 C   0  0  0  0  0  3  0  0  0  0  0  0
  182.3040  178.9710  142.8720 C   0  0  0  0  0  0  0  0  0  0  0  0
  183.3320  178.7840  143.8010 C   0  0  0  0  0  3  0  0  0  0  0  0
  184.5970  178.3350  143.3880 C   0  0  0  0  0  0  0  0  0  0  0  0
  186.9450  177.6740  143.9620 C   0  0  0  0  0  3  0  0  0  0  0  0
  187.9850  177.4760  144.8830 C   0  0  0  0  0  0  0  0  0  0  0  0
  186.4990  178.2060  146.6580 C   0  0  0  0  0  3  0  0  0  0  0  0
  185.4730  178.3940  145.7320 C   0  0  0  0  0  3  0  0  0  0  0  0
  187.7580  177.7520  146.2540 C   0  0  0  0  0  0  0  0  0  0  0  0
  185.6850  178.1330  144.3730 C   0  0  0  0  0  0  0  0  0  0  0  0
  188.7250  178.1950  148.5040 C   0  0  0  0  0  2  0  0  0  0  0  0
  188.7700  177.5970  147.3200 C   0  0  0  0  0  3  0  0  0  0  0  0
  189.2580  177.0070  144.4250 N   0  0  0  0  0  2  0  0  0  0  0  0
  190.3100  177.8930  143.9500 C   0  0  0  0  0  1  0  0  0  0  0  0
  183.9980  177.9870  139.6340 C   0  0  1  0  0  3  0  0  0  0  0  0
  182.7750  177.7700  138.9980 O   0  0  0  0  0  1  0  0  0  0  0  0
  184.7260  179.1270  138.9790 C   0  0  0  0  0  3  0  0  0  0  0  0
  185.7680  178.9660  138.2370 N   0  0  0  0  0  0  0  0  0  0  0  0
  186.3510  177.6740  137.9760 C   0  0  0  0  0  2  0  0  0  0  0  0
  190.3470  177.6280  139.4420 N   0  0  0  0  0  0  0  0  0  0  0  0
  188.8200  177.3310  137.6280 C   0  0  0  0  0  0  0  0  0  0  0  0
  190.1220  177.3290  138.1350 C   0  0  0  0  0  3  0  0  0  0  0  0
  189.3260  177.9370  140.2880 C   0  0  0  0  0  3  0  0  0  0  0  0
  188.6010  177.0260  136.2900 O   0  0  0  0  0  1  0  0  0  0  0  0
  187.7540  177.6420  138.4830 C   0  0  0  0  0  0  0  0  0  0  0  0
  188.0100  177.9530  139.8220 C   0  0  0  0  0  3  0  0  0  0  0  0
  179.9830  179.8130  143.6600 N   0  0  0  0  0  0  0  0  0  0  0  0
  181.0210  179.4390  143.3100 C   0  0  0  0  0  0  0  0  0  0  0  0
  1  3  2  0  0  0  0
  1  2  1  0  0  0  0
  2  6  2  0  0  0  0
  3  4  1  0  0  0  0
  4 30  1  0  0  0  0
  4  5  2  0  0  0  0
  6  5  1  0  0  0  0
  6 12  1  0  0  0  0
  7 12  2  0  0  0  0
  7  8  1  0  0  0  0
  8 11  2  0  0  0  0
 10  9  2  0  0  0  0
 11  9  1  0  0  0  0
 11 14  1  0  0  0  0
 12 10  1  0  0  0  0
 14 13  2  0  0  0  0
 15  8  1  0  0  0  0
 16 15  1  0  0  0  0
 17 18  1  6  0  0  0
 17  1  1  0  0  0  0
 19 17  1  0  0  0  0
 20 19  2  0  0  0  0
 21 20  1  0  0  0  0
 21 27  1  0  0  0  0
 22 25  1  0  0  0  0
 23 24  1  0  0  0  0
 23 27  2  0  0  0  0
 24 22  2  0  0  0  0
 26 23  1  0  0  0  0
 27 28  1  0  0  0  0
 28 25  2  0  0  0  0
 30 29  3  0  0  0  0
M  END
>  <MODEL>
4

>  <REMARK>
 VINA RESULT:      -8.5      2.407      5.989
  Name = 
  8 active torsions:
  status: ('A' for Active; 'I' for Inactive)
    1  A    between atoms: C_1  and  N_16
    2  A    between atoms: C_1  and  C_25
    3  A    between atoms: N_4  and  C_9
    4  A    between atoms: C_6  and  C_10
    5  A    between atoms: C_8  and  C_10
    6  A    between atoms: C_13  and  C_22
    7  A    between atoms: C_20  and  C_30
    8  A    between atoms: C_26  and  C_29
                            x       y       z     vdW  Elec       q    Type
                         _______ _______ _______ _____ _____    ______ ____

>  <TORSDO>
F 8

$$$$
=
 OpenBabel10232408243D

 30 32  0  0  1  0  0  0  0  0999 V2000
  185.2230  178.7810  144.6810 C   0  0  0  0  0  0  0  0  0  0  0  0
  185.8840  178.6670  143.4490 C   0  0  0  0  0  3  0  0  0  0  0  0
  183.8280  178.8400  144.7120 C   0  0  0  0  0  3  0  0  0  0  0  0
  183.0960  178.7940  143.5230 C   0  0  0  0  0  0  0  0  0  0  0  0
  183.7590  178.6880  142.2970 C   0  0  0  0  0  3  0  0  0  0  0  0
  185.1610  178.6230  142.2450 C   0  0  0  0  0  0  0  0  0  0  0  0
  187.2620  178.4120  140.8960 C   0  0  0  0  0  3  0  0  0  0  0  0
  187.9430  178.3110  139.6730 C   0  0  0  0  0  0  0  0  0  0  0  0
  185.8080  178.4110  138.5220 C   0  0  0  0  0  3  0  0  0  0  0  0
  185.1450  178.5160  139.7440 C   0  0  0  0  0  3  0  0  0  0  0  0
  187.2010  178.3050  138.4660 C   0  0  0  0  0  0  0  0  0  0  0  0
  185.8640  178.5150  140.9460 C   0  0  0  0  0  0  0  0  0  0  0  0
  187.1070  178.1870  135.9820 C   0  0  0  0  0  2  0  0  0  0  0  0
  187.7940  178.1920  137.1170 C   0  0  0  0  0  3  0  0  0  0  0  0
  189.3710  178.2060  139.6630 N   0  0  0  0  0  2  0  0  0  0  0  0
  190.0770  176.9350  139.7050 C   0  0  0  0  0  1  0  0  0  0  0  0
  185.9840  178.8240  145.9670 C   0  0  1  0  0  3  0  0  0  0  0  0
  185.2290  179.4680  146.9490 O   0  0  0  0  0  1  0  0  0  0  0  0
  186.3530  177.4400  146.4220 C   0  0  0  0  0  3  0  0  0  0  0  0
  187.5440  177.1110  146.7900 N   0  0  0  0  0  0  0  0  0  0  0  0
  188.6500  178.0370  146.7810 C   0  0  0  0  0  2  0  0  0  0  0  0
  191.3670  176.9430  143.6930 N   0  0  0  0  0  0  0  0  0  0  0  0
  190.7610  176.9090  146.0040 C   0  0  0  0  0  0  0  0  0  0  0  0
  191.6330  176.5590  144.9700 C   0  0  0  0  0  3  0  0  0  0  0  0
  190.2570  177.6680  143.3840 C   0  0  0  0  0  3  0  0  0  0  0  0
  191.0400  176.5110  147.3060 O   0  0  0  0  0  1  0  0  0  0  0  0
  189.6140  177.6590  145.7080 C   0  0  0  0  0  0  0  0  0  0  0  0
  189.3590  178.0370  144.3870 C   0  0  0  0  0  3  0  0  0  0  0  0
  180.5060  178.8910  143.5860 N   0  0  0  0  0  0  0  0  0  0  0  0
  181.6620  178.8500  143.5580 C   0  0  0  0  0  0  0  0  0  0  0  0
  1  3  1  0  0  0  0
  1 17  1  0  0  0  0
  2  1  2  0  0  0  0
  4 30  1  0  0  0  0
  4  3  2  0  0  0  0
  5  4  1  0  0  0  0
  6  5  2  0  0  0  0
  6  2  1  0  0  0  0
  7 12  1  0  0  0  0
  8  7  2  0  0  0  0
  9 10  1  0  0  0  0
 10 12  2  0  0  0  0
 11  9  2  0  0  0  0
 11  8  1  0  0  0  0
 12  6  1  0  0  0  0
 13 14  2  0  0  0  0
 14 11  1  0  0  0  0
 15  8  1  0  0  0  0
 15 16  1  0  0  0  0
 17 19  1  0  0  0  0
 17 18  1  1  0  0  0
 19 20  2  0  0  0  0
 21 20  1  0  0  0  0
 22 24  1  0  0  0  0
 23 26  1  0  0  0  0
 24 23  2  0  0  0  0
 25 22  2  0  0  0  0
 25 28  1  0  0  0  0
 27 23  1  0  0  0  0
 27 21  1  0  0  0  0
 28 27  2  0  0  0  0
 30 29  3  0  0  0  0
M  END
>  <MODEL>
5

>  <REMARK>
 VINA RESULT:      -8.4      2.124      6.219
  Name = 
  8 active torsions:
  status: ('A' for Active; 'I' for Inactive)
    1  A    between atoms: C_1  and  N_16
    2  A    between atoms: C_1  and  C_25
    3  A    between atoms: N_4  and  C_9
    4  A    between atoms: C_6  and  C_10
    5  A    between atoms: C_8  and  C_10
    6  A    between atoms: C_13  and  C_22
    7  A    between atoms: C_20  and  C_30
    8  A    between atoms: C_26  and  C_29
                            x       y       z     vdW  Elec       q    Type
                         _______ _______ _______ _____ _____    ______ ____

>  <TORSDO>
F 8

$$$$
=
 OpenBabel10232408243D

 30 32  0  0  1  0  0  0  0  0999 V2000
  189.1120  177.3600  144.4430 C   0  0  0  0  0  0  0  0  0  0  0  0
  187.9460  177.6000  143.6990 C   0  0  0  0  0  3  0  0  0  0  0  0
  189.0660  177.4300  145.8370 C   0  0  0  0  0  3  0  0  0  0  0  0
  187.8690  177.7430  146.4870 C   0  0  0  0  0  0  0  0  0  0  0  0
  186.7130  177.9870  145.7410 C   0  0  0  0  0  3  0  0  0  0  0  0
  186.7370  177.9190  144.3390 C   0  0  0  0  0  0  0  0  0  0  0  0
  184.3190  178.5550  144.1830 C   0  0  0  0  0  3  0  0  0  0  0  0
  183.1490  178.8070  143.4490 C   0  0  0  0  0  0  0  0  0  0  0  0
  184.3720  178.3150  141.4100 C   0  0  0  0  0  3  0  0  0  0  0  0
  185.5250  178.0630  142.1530 C   0  0  0  0  0  3  0  0  0  0  0  0
  183.1800  178.6890  142.0370 C   0  0  0  0  0  0  0  0  0  0  0  0
  185.5120  178.1830  143.5490 C   0  0  0  0  0  0  0  0  0  0  0  0
  182.0810  178.9860  139.8240 C   0  0  0  0  0  2  0  0  0  0  0  0
  182.0250  178.9370  141.1490 C   0  0  0  0  0  3  0  0  0  0  0  0
  181.9500  179.1850  144.1330 N   0  0  0  0  0  2  0  0  0  0  0  0
  180.7190  178.4110  144.0720 C   0  0  0  0  0  1  0  0  0  0  0  0
  190.4020  177.0160  143.7710 C   0  0  1  0  0  3  0  0  0  0  0  0
  191.3520  176.6390  144.7220 O   0  0  0  0  0  1  0  0  0  0  0  0
  190.2090  175.9150  142.7670 C   0  0  0  0  0  3  0  0  0  0  0  0
  190.3630  176.0810  141.4980 N   0  0  0  0  0  0  0  0  0  0  0  0
  190.7160  177.3510  140.9120 C   0  0  0  0  0  2  0  0  0  0  0  0
  189.7470  177.3670  136.7670 N   0  0  0  0  0  0  0  0  0  0  0  0
  189.2680  178.0930  138.9920 C   0  0  0  0  0  0  0  0  0  0  0  0
  188.9760  178.0850  137.6260 C   0  0  0  0  0  3  0  0  0  0  0  0
  190.8150  176.6440  137.2030 C   0  0  0  0  0  3  0  0  0  0  0  0
  188.4750  178.8330  139.8620 O   0  0  0  0  0  1  0  0  0  0  0  0
  190.3610  177.3530  139.4630 C   0  0  0  0  0  0  0  0  0  0  0  0
  191.1430  176.6270  138.5600 C   0  0  0  0  0  3  0  0  0  0  0  0
  187.7900  177.8570  149.0760 N   0  0  0  0  0  0  0  0  0  0  0  0
  187.8240  177.8080  147.9200 C   0  0  0  0  0  0  0  0  0  0  0  0
  1  3  1  0  0  0  0
  2  6  1  0  0  0  0
  2  1  2  0  0  0  0
  3  4  2  0  0  0  0
  4 30  1  0  0  0  0
  5  4  1  0  0  0  0
  6  5  2  0  0  0  0
  8 15  1  0  0  0  0
  8  7  2  0  0  0  0
  9 11  2  0  0  0  0
  9 10  1  0  0  0  0
 10 12  2  0  0  0  0
 11  8  1  0  0  0  0
 12  7  1  0  0  0  0
 12  6  1  0  0  0  0
 13 14  2  0  0  0  0
 14 11  1  0  0  0  0
 16 15  1  0  0  0  0
 17  1  1  0  0  0  0
 17 18  1  1  0  0  0
 19 17  1  0  0  0  0
 20 19  2  0  0  0  0
 21 20  1  0  0  0  0
 22 25  2  0  0  0  0
 22 24  1  0  0  0  0
 23 27  1  0  0  0  0
 23 26  1  0  0  0  0
 24 23  2  0  0  0  0
 25 28  1  0  0  0  0
 27 21  1  0  0  0  0
 28 27  2  0  0  0  0
 30 29  3  0  0  0  0
M  END
>  <MODEL>
6

>  <REMARK>
 VINA RESULT:      -8.3      1.047      1.802
  Name = 
  8 active torsions:
  status: ('A' for Active; 'I' for Inactive)
    1  A    between atoms: C_1  and  N_16
    2  A    between atoms: C_1  and  C_25
    3  A    between atoms: N_4  and  C_9
    4  A    between atoms: C_6  and  C_10
    5  A    between atoms: C_8  and  C_10
    6  A    between atoms: C_13  and  C_22
    7  A    between atoms: C_20  and  C_30
    8  A    between atoms: C_26  and  C_29
                            x       y       z     vdW  Elec       q    Type
                         _______ _______ _______ _____ _____    ______ ____

>  <TORSDO>
F 8

$$$$
=
 OpenBabel10232408243D

 30 32  0  0  1  0  0  0  0  0999 V2000
  189.6650  177.6380  142.8810 C   0  0  0  0  0  0  0  0  0  0  0  0
  188.3000  177.9180  142.7100 C   0  0  0  0  0  3  0  0  0  0  0  0
  190.1510  177.3320  144.1540 C   0  0  0  0  0  3  0  0  0  0  0  0
  189.2870  177.3110  145.2510 C   0  0  0  0  0  0  0  0  0  0  0  0
  187.9300  177.5970  145.0770 C   0  0  0  0  0  3  0  0  0  0  0  0
  187.4200  177.9040  143.8050 C   0  0  0  0  0  0  0  0  0  0  0  0
  185.4100  178.2110  142.3420 C   0  0  0  0  0  3  0  0  0  0  0  0
  184.0500  178.5020  142.1510 C   0  0  0  0  0  0  0  0  0  0  0  0
  183.8190  178.8000  144.5500 C   0  0  0  0  0  3  0  0  0  0  0  0
  185.1720  178.5140  144.7230 C   0  0  0  0  0  3  0  0  0  0  0  0
  183.2400  178.7970  143.2760 C   0  0  0  0  0  0  0  0  0  0  0  0
  185.9830  178.2120  143.6210 C   0  0  0  0  0  0  0  0  0  0  0  0
  180.8920  178.6960  144.0920 C   0  0  0  0  0  2  0  0  0  0  0  0
  181.7970  179.1080  143.2130 C   0  0  0  0  0  3  0  0  0  0  0  0
  183.5010  178.4900  140.8290 N   0  0  0  0  0  2  0  0  0  0  0  0
  182.9780  177.2890  140.1950 C   0  0  0  0  0  1  0  0  0  0  0  0
  190.6080  177.6460  141.7210 C   0  0  1  0  0  3  0  0  0  0  0  0
  191.9230  177.5200  142.1720 O   0  0  0  0  0  1  0  0  0  0  0  0
  190.2840  176.5410  140.7550 C   0  0  0  0  0  3  0  0  0  0  0  0
  189.7260  176.7450  139.6110 N   0  0  0  0  0  0  0  0  0  0  0  0
  189.3370  178.0560  139.1510 C   0  0  0  0  0  2  0  0  0  0  0  0
  187.3450  177.7580  135.4010 N   0  0  0  0  0  0  0  0  0  0  0  0
  187.2420  178.1350  137.7590 C   0  0  0  0  0  0  0  0  0  0  0  0
  186.6150  178.0370  136.5150 C   0  0  0  0  0  3  0  0  0  0  0  0
  188.6920  177.5710  135.4620 C   0  0  0  0  0  3  0  0  0  0  0  0
  186.4880  178.4220  138.8910 O   0  0  0  0  0  1  0  0  0  0  0  0
  188.6280  177.9410  137.8440 C   0  0  0  0  0  0  0  0  0  0  0  0
  189.3590  177.6610  136.6860 C   0  0  0  0  0  3  0  0  0  0  0  0
  190.1910  176.7290  147.6100 N   0  0  0  0  0  0  0  0  0  0  0  0
  189.7880  176.9910  146.5570 C   0  0  0  0  0  0  0  0  0  0  0  0
  1  3  1  0  0  0  0
  2  1  2  0  0  0  0
  2  6  1  0  0  0  0
  3  4  2  0  0  0  0
  4 30  1  0  0  0  0
  5  4  1  0  0  0  0
  6  5  2  0  0  0  0
  7 12  1  0  0  0  0
  8  7  2  0  0  0  0
  8 11  1  0  0  0  0
  9 10  1  0  0  0  0
 11  9  2  0  0  0  0
 12  6  1  0  0  0  0
 12 10  2  0  0  0  0
 14 11  1  0  0  0  0
 14 13  2  0  0  0  0
 15  8  1  0  0  0  0
 16 15  1  0  0  0  0
 17 18  1  1  0  0  0
 17  1  1  0  0  0  0
 19 17  1  0  0  0  0
 20 19  2  0  0  0  0
 21 20  1  0  0  0  0
 22 25  2  0  0  0  0
 22 24  1  0  0  0  0
 23 27  1  0  0  0  0
 23 26  1  0  0  0  0
 24 23  2  0  0  0  0
 25 28  1  0  0  0  0
 27 21  1  0  0  0  0
 28 27  2  0  0  0  0
 30 29  3  0  0  0  0
M  END
>  <MODEL>
7

>  <REMARK>
 VINA RESULT:      -8.3      1.513      1.941
  Name = 
  8 active torsions:
  status: ('A' for Active; 'I' for Inactive)
    1  A    between atoms: C_1  and  N_16
    2  A    between atoms: C_1  and  C_25
    3  A    between atoms: N_4  and  C_9
    4  A    between atoms: C_6  and  C_10
    5  A    between atoms: C_8  and  C_10
    6  A    between atoms: C_13  and  C_22
    7  A    between atoms: C_20  and  C_30
    8  A    between atoms: C_26  and  C_29
                            x       y       z     vdW  Elec       q    Type
                         _______ _______ _______ _____ _____    ______ ____

>  <TORSDO>
F 8

$$$$
=
 OpenBabel10232408243D

 30 32  0  0  1  0  0  0  0  0999 V2000
  189.1050  177.8890  139.8490 C   0  0  0  0  0  0  0  0  0  0  0  0
  188.7630  177.8110  141.2080 C   0  0  0  0  0  3  0  0  0  0  0  0
  190.4250  177.6590  139.4560 C   0  0  0  0  0  3  0  0  0  0  0  0
  191.4010  177.3610  140.4110 C   0  0  0  0  0  0  0  0  0  0  0  0
  191.0570  177.2920  141.7640 C   0  0  0  0  0  3  0  0  0  0  0  0
  189.7340  177.5160  142.1790 C   0  0  0  0  0  0  0  0  0  0  0  0
  190.3510  177.2130  144.5880 C   0  0  0  0  0  3  0  0  0  0  0  0
  190.0220  177.1430  145.9510 C   0  0  0  0  0  0  0  0  0  0  0  0
  187.7000  177.5490  145.3710 C   0  0  0  0  0  3  0  0  0  0  0  0
  188.0410  177.6110  144.0200 C   0  0  0  0  0  3  0  0  0  0  0  0
  188.6730  177.3190  146.3480 C   0  0  0  0  0  0  0  0  0  0  0  0
  189.3710  177.4470  143.6130 C   0  0  0  0  0  0  0  0  0  0  0  0
  188.3100  178.2770  148.6160 C   0  0  0  0  0  2  0  0  0  0  0  0
  188.1980  177.2810  147.7470 C   0  0  0  0  0  3  0  0  0  0  0  0
  191.0510  176.9040  146.9170 N   0  0  0  0  0  2  0  0  0  0  0  0
  191.9830  175.7900  146.8300 C   0  0  0  0  0  1  0  0  0  0  0  0
  188.0770  178.1990  138.8090 C   0  0  1  0  0  3  0  0  0  0  0  0
  188.5610  179.1720  137.9330 O   0  0  0  0  0  1  0  0  0  0  0  0
  187.6910  176.9620  138.0470 C   0  0  0  0  0  3  0  0  0  0  0  0
  186.5870  176.8530  137.3900 N   0  0  0  0  0  0  0  0  0  0  0  0
  185.6000  177.9040  137.3370 C   0  0  0  0  0  2  0  0  0  0  0  0
  182.3790  177.0020  139.9690 N   0  0  0  0  0  0  0  0  0  0  0  0
  184.1460  178.4700  139.3120 C   0  0  0  0  0  0  0  0  0  0  0  0
  183.0810  178.1520  140.1580 C   0  0  0  0  0  3  0  0  0  0  0  0
  182.6850  176.1370  138.9640 C   0  0  0  0  0  3  0  0  0  0  0  0
  184.8560  179.6480  139.5110 O   0  0  0  0  0  1  0  0  0  0  0  0
  184.4810  177.5910  138.2730 C   0  0  0  0  0  0  0  0  0  0  0  0
  183.7420  176.4180  138.0950 C   0  0  0  0  0  3  0  0  0  0  0  0
  193.8500  176.9310  139.6760 N   0  0  0  0  0  0  0  0  0  0  0  0
  192.7560  177.1210  140.0040 C   0  0  0  0  0  0  0  0  0  0  0  0
  1  2  1  0  0  0  0
  2  6  2  0  0  0  0
  3  1  2  0  0  0  0
  3  4  1  0  0  0  0
  4  5  2  0  0  0  0
  5  6  1  0  0  0  0
  6 12  1  0  0  0  0
  7  8  1  0  0  0  0
  8 11  2  0  0  0  0
  8 15  1  0  0  0  0
  9 11  1  0  0  0  0
 10  9  2  0  0  0  0
 11 14  1  0  0  0  0
 12 10  1  0  0  0  0
 12  7  2  0  0  0  0
 14 13  2  0  0  0  0
 16 15  1  0  0  0  0
 17 18  1  6  0  0  0
 17  1  1  0  0  0  0
 19 17  1  0  0  0  0
 20 19  2  0  0  0  0
 21 20  1  0  0  0  0
 21 27  1  0  0  0  0
 22 24  1  0  0  0  0
 23 26  1  0  0  0  0
 23 24  2  0  0  0  0
 25 22  2  0  0  0  0
 27 23  1  0  0  0  0
 28 27  2  0  0  0  0
 28 25  1  0  0  0  0
 29 30  3  0  0  0  0
 30  4  1  0  0  0  0
M  END
>  <MODEL>
8

>  <REMARK>
 VINA RESULT:      -8.3      2.675      6.902
  Name = 
  8 active torsions:
  status: ('A' for Active; 'I' for Inactive)
    1  A    between atoms: C_1  and  N_16
    2  A    between atoms: C_1  and  C_25
    3  A    between atoms: N_4  and  C_9
    4  A    between atoms: C_6  and  C_10
    5  A    between atoms: C_8  and  C_10
    6  A    between atoms: C_13  and  C_22
    7  A    between atoms: C_20  and  C_30
    8  A    between atoms: C_26  and  C_29
                            x       y       z     vdW  Elec       q    Type
                         _______ _______ _______ _____ _____    ______ ____

>  <TORSDO>
F 8

$$$$
=
 OpenBabel10232408243D

 30 32  0  0  1  0  0  0  0  0999 V2000
  189.1180  177.8950  139.8040 C   0  0  0  0  0  0  0  0  0  0  0  0
  188.7820  177.8270  141.1650 C   0  0  0  0  0  3  0  0  0  0  0  0
  190.4360  177.6580  139.4070 C   0  0  0  0  0  3  0  0  0  0  0  0
  191.4150  177.3620  140.3590 C   0  0  0  0  0  0  0  0  0  0  0  0
  191.0770  177.3020  141.7140 C   0  0  0  0  0  3  0  0  0  0  0  0
  189.7570  177.5340  142.1330 C   0  0  0  0  0  0  0  0  0  0  0  0
  188.0590  177.5480  143.9760 C   0  0  0  0  0  3  0  0  0  0  0  0
  187.7040  177.4960  145.3330 C   0  0  0  0  0  0  0  0  0  0  0  0
  190.0560  177.2880  145.8990 C   0  0  0  0  0  3  0  0  0  0  0  0
  190.3940  177.3470  144.5470 C   0  0  0  0  0  3  0  0  0  0  0  0
  188.7210  177.3580  146.3100 C   0  0  0  0  0  0  0  0  0  0  0  0
  189.3990  177.4750  143.5700 C   0  0  0  0  0  0  0  0  0  0  0  0
  188.4930  178.3140  148.5960 C   0  0  0  0  0  2  0  0  0  0  0  0
  188.4810  177.2790  147.7660 C   0  0  0  0  0  3  0  0  0  0  0  0
  186.3250  177.5730  145.7090 N   0  0  0  0  0  2  0  0  0  0  0  0
  185.6070  178.8300  145.8510 C   0  0  0  0  0  1  0  0  0  0  0  0
  188.0870  178.2020  138.7660 C   0  0  1  0  0  3  0  0  0  0  0  0
  188.5710  179.1670  137.8810 O   0  0  0  0  0  1  0  0  0  0  0  0
  187.6930  176.9620  138.0150 C   0  0  0  0  0  3  0  0  0  0  0  0
  186.5750  176.8440  137.3830 N   0  0  0  0  0  0  0  0  0  0  0  0
  185.5800  177.8880  137.3510 C   0  0  0  0  0  2  0  0  0  0  0  0
  182.3700  176.9150  139.9710 N   0  0  0  0  0  0  0  0  0  0  0  0
  184.1420  178.3930  139.3540 C   0  0  0  0  0  0  0  0  0  0  0  0
  183.0810  178.0530  140.1950 C   0  0  0  0  0  3  0  0  0  0  0  0
  182.6640  176.0840  138.9340 C   0  0  0  0  0  3  0  0  0  0  0  0
  184.8620  179.5600  139.5900 O   0  0  0  0  0  1  0  0  0  0  0  0
  184.4650  177.5500  138.2820 C   0  0  0  0  0  0  0  0  0  0  0  0
  183.7170  176.3890  138.0680 C   0  0  0  0  0  3  0  0  0  0  0  0
  193.8570  176.9130  139.6120 N   0  0  0  0  0  0  0  0  0  0  0  0
  192.7670  177.1140  139.9480 C   0  0  0  0  0  0  0  0  0  0  0  0
  1  2  1  0  0  0  0
  2  6  2  0  0  0  0
  3  1  2  0  0  0  0
  3  4  1  0  0  0  0
  4  5  2  0  0  0  0
  5  6  1  0  0  0  0
  6 12  1  0  0  0  0
  7  8  1  0  0  0  0
  8 15  1  0  0  0  0
  8 11  2  0  0  0  0
  9 11  1  0  0  0  0
 10  9  2  0  0  0  0
 11 14  1  0  0  0  0
 12  7  2  0  0  0  0
 12 10  1  0  0  0  0
 14 13  2  0  0  0  0
 15 16  1  0  0  0  0
 17 18  1  6  0  0  0
 17  1  1  0  0  0  0
 19 17  1  0  0  0  0
 20 19  2  0  0  0  0
 21 20  1  0  0  0  0
 21 27  1  0  0  0  0
 22 24  1  0  0  0  0
 23 26  1  0  0  0  0
 23 24  2  0  0  0  0
 25 22  2  0  0  0  0
 27 23  1  0  0  0  0
 28 27  2  0  0  0  0
 28 25  1  0  0  0  0
 29 30  3  0  0  0  0
 30  4  1  0  0  0  0
M  END
>  <MODEL>
9

>  <REMARK>
 VINA RESULT:      -8.3      2.549      6.622
  Name = 
  8 active torsions:
  status: ('A' for Active; 'I' for Inactive)
    1  A    between atoms: C_1  and  N_16
    2  A    between atoms: C_1  and  C_25
    3  A    between atoms: N_4  and  C_9
    4  A    between atoms: C_6  and  C_10
    5  A    between atoms: C_8  and  C_10
    6  A    between atoms: C_13  and  C_22
    7  A    between atoms: C_20  and  C_30
    8  A    between atoms: C_26  and  C_29
                            x       y       z     vdW  Elec       q    Type
                         _______ _______ _______ _____ _____    ______ ____

>  <TORSDO>
F 8

$$$$
