=
 OpenBabel10222422023D

 44 48  0  0  1  0  0  0  0  0999 V2000
  184.3420  179.1740  143.3300 C   0  0  0  0  0  3  0  0  0  0  0  0
  184.6970  178.2050  139.3250 C   0  0  0  0  0  3  0  0  0  0  0  0
  183.1320  178.9340  142.6340 C   0  0  0  0  0  0  0  0  0  0  0  0
  186.6140  178.6120  140.4770 N   0  0  0  0  0  0  0  0  0  0  0  0
  186.0920  178.2720  139.2730 C   0  0  0  0  0  0  0  0  0  0  0  0
  185.5800  179.0880  142.6710 C   0  0  0  0  0  3  0  0  0  0  0  0
  184.4010  178.5180  140.6400 C   0  0  0  0  0  0  0  0  0  0  0  0
  183.1600  178.6010  141.2670 C   0  0  0  0  0  3  0  0  0  0  0  0
  185.5710  178.7580  141.3140 C   0  0  0  0  0  0  0  0  0  0  0  0
  186.8810  178.0110  138.0550 C   0  0  0  0  0  0  0  0  0  0  0  0
  188.2180  177.1030  136.6940 C   0  0  0  0  0  0  0  0  0  0  0  0
  186.8900  178.8300  136.9830 N   0  0  0  0  0  0  0  0  0  0  0  0
  187.7370  178.2540  136.1090 C   0  0  0  0  0  2  0  0  0  0  0  0
  187.6800  176.9340  137.9160 N   0  0  0  0  0  0  0  0  0  0  0  0
  190.1890  175.6580  137.0130 C   0  0  0  0  0  2  0  0  0  0  0  0
  189.1550  176.1390  136.0410 C   0  0  2  0  0  3  0  0  0  0  0  0
  189.9640  176.8080  134.9570 C   0  0  0  0  0  2  0  0  0  0  0  0
  191.5120  175.9460  136.3210 C   0  0  2  0  0  3  0  0  0  0  0  0
  191.2530  176.2570  134.9730 O   0  0  0  0  0  0  0  0  0  0  0  0
  191.7560  173.6140  136.7920 O   0  0  0  0  0  1  0  0  0  0  0  0
  192.4860  174.7560  136.4440 C   0  0  0  0  0  0  0  0  0  0  0  0
  193.1160  174.5310  135.2140 O   0  0  0  0  0  1  0  0  0  0  0  0
  193.5390  175.0190  137.5370 C   0  0  2  0  0  3  0  0  0  0  0  0
  193.6220  176.4380  137.8570 N   0  0  0  0  0  1  0  0  0  0  0  0
  194.9190  174.5130  137.1150 C   0  0  0  0  0  2  0  0  0  0  0  0
  195.3940  173.1690  139.0300 O   0  0  0  0  0  1  0  0  0  0  0  0
  195.7330  174.1450  138.3110 C   0  0  0  0  0  0  0  0  0  0  0  0
  196.8850  174.8610  138.6140 O   0  0  0  0  0  0  0  0  0  0  0  0
  180.6200  179.2510  142.5880 C   0  0  0  0  0  1  0  0  0  0  0  0
  181.8690  179.0270  143.2980 N   0  0  0  0  0  2  0  0  0  0  0  0
  187.9820  178.8100  140.7500 N   0  0  0  0  0  2  0  0  0  0  0  0
  188.8920  177.7330  141.1120 C   0  0  0  0  0  2  0  0  0  0  0  0
  189.3190  177.8970  142.4910 N   0  0  0  0  0  2  0  0  0  0  0  0
  190.6940  177.8770  142.8800 C   0  0  0  0  0  0  0  0  0  0  0  0
  191.5950  177.6420  142.0280 O   0  0  0  0  0  0  0  0  0  0  0  0
  191.0490  178.1310  144.3100 C   0  0  1  0  0  3  0  0  0  0  0  0
  189.8760  178.5520  145.0610 N   0  0  0  0  0  0  0  0  0  0  0  0
  191.4300  176.8560  144.9960 C   0  0  0  0  0  3  0  0  0  0  0  0
  190.6190  176.6040  145.9680 N   0  0  0  0  0  0  0  0  0  0  0  0
  189.6780  177.6660  145.9770 C   0  0  0  0  0  0  0  0  0  0  0  0
  188.5420  177.7510  146.9440 C   0  0  0  0  0  2  0  0  0  0  0  0
  187.2230  178.1670  146.2950 C   0  0  0  0  0  3  0  0  0  0  0  0
  186.1800  178.5600  147.3260 C   0  0  0  0  0  1  0  0  0  0  0  0
  186.6840  177.0920  145.3690 C   0  0  0  0  0  1  0  0  0  0  0  0
  2  7  1  0  0  0  0
  3 30  1  0  0  0  0
  3  1  2  0  0  0  0
  4 31  1  0  0  0  0
  4  9  1  0  0  0  0
  5  2  2  0  0  0  0
  5  4  1  0  0  0  0
  6  1  1  0  0  0  0
  7  8  2  0  0  0  0
  7  9  1  0  0  0  0
  8  3  1  0  0  0  0
  9  6  2  0  0  0  0
 10  5  1  0  0  0  0
 11 14  2  0  0  0  0
 12 10  2  0  0  0  0
 13 11  1  0  0  0  0
 13 12  1  0  0  0  0
 14 10  1  0  0  0  0
 16 11  1  1  0  0  0
 16 15  1  0  0  0  0
 17 19  1  0  0  0  0
 17 16  1  0  0  0  0
 18 21  1  6  0  0  0
 18 15  1  0  0  0  0
 19 18  1  0  0  0  0
 21 20  1  0  0  0  0
 21 23  1  0  0  0  0
 22 21  1  0  0  0  0
 23 24  1  6  0  0  0
 25 23  1  0  0  0  0
 25 27  1  0  0  0  0
 27 28  2  0  0  0  0
 27 26  1  0  0  0  0
 29 30  1  0  0  0  0
 31 32  1  0  0  0  0
 32 33  1  0  0  0  0
 33 34  1  0  0  0  0
 35 34  2  0  0  0  0
 36 34  1  6  0  0  0
 36 38  1  0  0  0  0
 36 37  1  0  0  0  0
 37 40  2  0  0  0  0
 38 39  2  0  0  0  0
 39 40  1  0  0  0  0
 40 41  1  0  0  0  0
 42 41  1  0  0  0  0
 42 43  1  0  0  0  0
 44 42  1  0  0  0  0
M  END
>  <MODEL>
1

>  <REMARK>
 VINA RESULT:      -8.3      0.000      0.000
  Name = 
  13 active torsions:
  status: ('A' for Active; 'I' for Inactive)
    1  A    between atoms: C_6  and  C_33
    2  A    between atoms: C_7  and  C_41
    3  A    between atoms: C_8  and  C_18
    4  A    between atoms: C_8  and  C_25
    5  A    between atoms: C_9  and  C_12
    6  A    between atoms: C_13  and  N_24
    7  A    between atoms: C_14  and  C_17
    8  A    between atoms: N_15  and  C_38
    9  A    between atoms: N_16  and  N_23
   10  A    between atoms: C_18  and  C_27
   11  A    between atoms: C_19  and  C_25
   12  A    between atoms: N_23  and  C_38
   13  A    between atoms: C_41  and  C_44
                            x       y       z     vdW  Elec       q    Type
                         _______ _______ _______ _____ _____    ______ ____

>  <TORSDO>
F 13

$$$$
=
 OpenBabel10222422023D

 44 48  0  0  1  0  0  0  0  0999 V2000
  191.5390  176.3480  145.3430 C   0  0  0  0  0  3  0  0  0  0  0  0
  187.7060  177.8980  145.4110 C   0  0  0  0  0  3  0  0  0  0  0  0
  191.0780  176.8240  146.5950 C   0  0  0  0  0  0  0  0  0  0  0  0
  188.4920  177.1360  143.4180 N   0  0  0  0  0  0  0  0  0  0  0  0
  187.4330  177.6940  144.0560 C   0  0  0  0  0  0  0  0  0  0  0  0
  190.7220  176.4170  144.2020 C   0  0  0  0  0  3  0  0  0  0  0  0
  188.9960  177.4220  145.5620 C   0  0  0  0  0  0  0  0  0  0  0  0
  189.7860  177.3690  146.7080 C   0  0  0  0  0  3  0  0  0  0  0  0
  189.4480  176.9680  144.3490 C   0  0  0  0  0  0  0  0  0  0  0  0
  186.1550  178.0520  143.4130 C   0  0  0  0  0  0  0  0  0  0  0  0
  184.7360  178.5830  141.9410 C   0  0  0  0  0  0  0  0  0  0  0  0
  185.0000  178.2190  144.0920 N   0  0  0  0  0  0  0  0  0  0  0  0
  184.0900  178.5530  143.1580 C   0  0  0  0  0  2  0  0  0  0  0  0
  186.0330  178.2600  142.0870 N   0  0  0  0  0  0  0  0  0  0  0  0
  182.9370  177.9240  140.3900 C   0  0  0  0  0  2  0  0  0  0  0  0
  184.0760  178.8680  140.6300 C   0  0  2  0  0  3  0  0  0  0  0  0
  185.0120  178.6060  139.4760 C   0  0  0  0  0  2  0  0  0  0  0  0
  183.2390  177.3190  139.0270 C   0  0  2  0  0  3  0  0  0  0  0  0
  184.2600  178.0730  138.4190 O   0  0  0  0  0  0  0  0  0  0  0  0
  180.9760  178.0380  138.7390 O   0  0  0  0  0  1  0  0  0  0  0  0
  181.9780  177.2670  138.1400 C   0  0  0  0  0  0  0  0  0  0  0  0
  182.2640  177.8000  136.8790 O   0  0  0  0  0  1  0  0  0  0  0  0
  181.4660  175.8210  137.9990 C   0  0  2  0  0  3  0  0  0  0  0  0
  180.6810  175.4240  139.1600 N   0  0  0  0  0  1  0  0  0  0  0  0
  182.6210  174.8370  137.8080 C   0  0  0  0  0  2  0  0  0  0  0  0
  182.4140  172.7200  136.7240 O   0  0  0  0  0  1  0  0  0  0  0  0
  182.3860  173.9740  136.6130 C   0  0  0  0  0  0  0  0  0  0  0  0
  182.1050  174.5530  135.3820 O   0  0  0  0  0  0  0  0  0  0  0  0
  192.7360  175.6090  148.0740 C   0  0  0  0  0  1  0  0  0  0  0  0
  191.9070  176.7610  147.7580 N   0  0  0  0  0  2  0  0  0  0  0  0
  188.5590  176.8470  142.0410 N   0  0  0  0  0  2  0  0  0  0  0  0
  189.4370  177.5490  141.1160 C   0  0  0  0  0  2  0  0  0  0  0  0
  189.1960  177.0780  139.7620 N   0  0  0  0  0  2  0  0  0  0  0  0
  188.9370  177.9640  138.6730 C   0  0  0  0  0  0  0  0  0  0  0  0
  188.8380  179.2070  138.8700 O   0  0  0  0  0  0  0  0  0  0  0  0
  188.7770  177.3990  137.2970 C   0  0  1  0  0  3  0  0  0  0  0  0
  187.9490  176.2030  137.3300 N   0  0  0  0  0  0  0  0  0  0  0  0
  187.9750  178.3220  136.4350 C   0  0  0  0  0  3  0  0  0  0  0  0
  186.8880  177.7480  136.0410 N   0  0  0  0  0  0  0  0  0  0  0  0
  186.9060  176.4480  136.6110 C   0  0  0  0  0  0  0  0  0  0  0  0
  185.8090  175.4510  136.4200 C   0  0  0  0  0  2  0  0  0  0  0  0
  186.3090  174.0110  136.3240 C   0  0  0  0  0  3  0  0  0  0  0  0
  185.7980  173.3130  135.0770 C   0  0  0  0  0  1  0  0  0  0  0  0
  185.9680  173.2080  137.5660 C   0  0  0  0  0  1  0  0  0  0  0  0
  1  3  1  0  0  0  0
  2  7  1  0  0  0  0
  3  8  2  0  0  0  0
  3 30  1  0  0  0  0
  4  5  1  0  0  0  0
  4  9  1  0  0  0  0
  5  2  2  0  0  0  0
  6  9  1  0  0  0  0
  6  1  2  0  0  0  0
  7  8  1  0  0  0  0
  9  7  2  0  0  0  0
 10  5  1  0  0  0  0
 10 12  2  0  0  0  0
 11 14  2  0  0  0  0
 11 13  1  0  0  0  0
 13 12  1  0  0  0  0
 14 10  1  0  0  0  0
 15 16  1  0  0  0  0
 16 11  1  1  0  0  0
 17 16  1  0  0  0  0
 18 21  1  6  0  0  0
 18 15  1  0  0  0  0
 19 18  1  0  0  0  0
 19 17  1  0  0  0  0
 21 20  1  0  0  0  0
 22 21  1  0  0  0  0
 23 21  1  0  0  0  0
 23 24  1  1  0  0  0
 25 23  1  0  0  0  0
 27 26  1  0  0  0  0
 27 25  1  0  0  0  0
 28 27  2  0  0  0  0
 30 29  1  0  0  0  0
 31  4  1  0  0  0  0
 32 31  1  0  0  0  0
 33 32  1  0  0  0  0
 34 35  2  0  0  0  0
 34 33  1  0  0  0  0
 36 37  1  0  0  0  0
 36 34  1  1  0  0  0
 38 36  1  0  0  0  0
 39 38  2  0  0  0  0
 39 40  1  0  0  0  0
 40 37  2  0  0  0  0
 41 40  1  0  0  0  0
 42 41  1  0  0  0  0
 42 44  1  0  0  0  0
 43 42  1  0  0  0  0
M  END
>  <MODEL>
2

>  <REMARK>
 VINA RESULT:      -8.2      4.023      9.136
  Name = 
  13 active torsions:
  status: ('A' for Active; 'I' for Inactive)
    1  A    between atoms: C_6  and  C_33
    2  A    between atoms: C_7  and  C_41
    3  A    between atoms: C_8  and  C_18
    4  A    between atoms: C_8  and  C_25
    5  A    between atoms: C_9  and  C_12
    6  A    between atoms: C_13  and  N_24
    7  A    between atoms: C_14  and  C_17
    8  A    between atoms: N_15  and  C_38
    9  A    between atoms: N_16  and  N_23
   10  A    between atoms: C_18  and  C_27
   11  A    between atoms: C_19  and  C_25
   12  A    between atoms: N_23  and  C_38
   13  A    between atoms: C_41  and  C_44
                            x       y       z     vdW  Elec       q    Type
                         _______ _______ _______ _____ _____    ______ ____

>  <TORSDO>
F 13

$$$$
=
 OpenBabel10222422023D

 44 48  0  0  1  0  0  0  0  0999 V2000
  191.2980  176.5870  145.2560 C   0  0  0  0  0  3  0  0  0  0  0  0
  187.3850  177.8950  145.5360 C   0  0  0  0  0  3  0  0  0  0  0  0
  190.8430  176.9310  146.5530 C   0  0  0  0  0  0  0  0  0  0  0  0
  188.1600  177.3470  143.4700 N   0  0  0  0  0  0  0  0  0  0  0  0
  187.0880  177.7870  144.1750 C   0  0  0  0  0  0  0  0  0  0  0  0
  190.4480  176.7010  144.1430 C   0  0  0  0  0  3  0  0  0  0  0  0
  188.7040  177.4860  145.6190 C   0  0  0  0  0  0  0  0  0  0  0  0
  189.5260  177.3880  146.7390 C   0  0  0  0  0  3  0  0  0  0  0  0
  189.1480  177.1610  144.3630 C   0  0  0  0  0  0  0  0  0  0  0  0
  185.7740  178.1190  143.5920 C   0  0  0  0  0  0  0  0  0  0  0  0
  184.2590  178.5260  142.1770 C   0  0  0  0  0  0  0  0  0  0  0  0
  184.6860  178.4210  144.3310 N   0  0  0  0  0  0  0  0  0  0  0  0
  183.7140  178.6770  143.4340 C   0  0  0  0  0  2  0  0  0  0  0  0
  185.5520  178.1660  142.2630 N   0  0  0  0  0  0  0  0  0  0  0  0
  183.1390  177.3350  140.3330 C   0  0  0  0  0  2  0  0  0  0  0  0
  183.5040  178.6750  140.8950 C   0  0  2  0  0  3  0  0  0  0  0  0
  184.3640  179.2950  139.8210 C   0  0  0  0  0  2  0  0  0  0  0  0
  183.6830  177.3690  138.9130 C   0  0  2  0  0  3  0  0  0  0  0  0
  184.0320  178.6960  138.5980 O   0  0  0  0  0  0  0  0  0  0  0  0
  181.7360  176.0170  138.5940 O   0  0  0  0  0  1  0  0  0  0  0  0
  182.6630  176.8040  137.9030 C   0  0  0  0  0  0  0  0  0  0  0  0
  181.9840  177.8550  137.2770 O   0  0  0  0  0  1  0  0  0  0  0  0
  183.3640  175.9260  136.8490 C   0  0  2  0  0  3  0  0  0  0  0  0
  182.6640  175.9750  135.5720 N   0  0  0  0  0  1  0  0  0  0  0  0
  183.4690  174.4730  137.3130 C   0  0  0  0  0  2  0  0  0  0  0  0
  185.8000  174.7320  136.8690 O   0  0  0  0  0  0  0  0  0  0  0  0
  184.8990  174.0600  137.4350 C   0  0  0  0  0  0  0  0  0  0  0  0
  185.2390  172.9510  138.1990 O   0  0  0  0  0  1  0  0  0  0  0  0
  192.6080  175.7020  147.8890 C   0  0  0  0  0  1  0  0  0  0  0  0
  191.7050  176.8240  147.6890 N   0  0  0  0  0  2  0  0  0  0  0  0
  188.2070  177.1760  142.0730 N   0  0  0  0  0  2  0  0  0  0  0  0
  188.9930  178.0220  141.1860 C   0  0  0  0  0  2  0  0  0  0  0  0
  189.3350  177.2840  139.9820 N   0  0  0  0  0  2  0  0  0  0  0  0
  189.3490  177.8870  138.6870 C   0  0  0  0  0  0  0  0  0  0  0  0
  188.9910  179.0880  138.5370 O   0  0  0  0  0  0  0  0  0  0  0  0
  189.7890  177.0730  137.5110 C   0  0  1  0  0  3  0  0  0  0  0  0
  191.2140  176.7920  137.5900 N   0  0  0  0  0  0  0  0  0  0  0  0
  189.1870  175.7040  137.5600 C   0  0  0  0  0  3  0  0  0  0  0  0
  190.1100  174.8050  137.6440 N   0  0  0  0  0  0  0  0  0  0  0  0
  191.3410  175.5100  137.6600 C   0  0  0  0  0  0  0  0  0  0  0  0
  192.6720  174.8400  137.7710 C   0  0  0  0  0  2  0  0  0  0  0  0
  193.4410  174.7970  136.4510 C   0  0  0  0  0  3  0  0  0  0  0  0
  194.2020  176.0850  136.1940 C   0  0  0  0  0  1  0  0  0  0  0  0
  192.5360  174.4650  135.2790 C   0  0  0  0  0  1  0  0  0  0  0  0
  1  3  1  0  0  0  0
  2  7  1  0  0  0  0
  3  8  2  0  0  0  0
  3 30  1  0  0  0  0
  4  5  1  0  0  0  0
  4  9  1  0  0  0  0
  5  2  2  0  0  0  0
  6  9  1  0  0  0  0
  6  1  2  0  0  0  0
  7  8  1  0  0  0  0
  9  7  2  0  0  0  0
 10  5  1  0  0  0  0
 10 12  2  0  0  0  0
 11 14  2  0  0  0  0
 11 13  1  0  0  0  0
 13 12  1  0  0  0  0
 14 10  1  0  0  0  0
 15 16  1  0  0  0  0
 16 11  1  1  0  0  0
 17 16  1  0  0  0  0
 18 21  1  6  0  0  0
 18 15  1  0  0  0  0
 19 18  1  0  0  0  0
 19 17  1  0  0  0  0
 21 20  1  0  0  0  0
 22 21  1  0  0  0  0
 23 24  1  6  0  0  0
 23 25  1  0  0  0  0
 23 21  1  0  0  0  0
 25 27  1  0  0  0  0
 26 27  2  0  0  0  0
 27 28  1  0  0  0  0
 30 29  1  0  0  0  0
 31  4  1  0  0  0  0
 32 31  1  0  0  0  0
 33 32  1  0  0  0  0
 34 33  1  0  0  0  0
 35 34  2  0  0  0  0
 36 38  1  0  0  0  0
 36 37  1  0  0  0  0
 36 34  1  1  0  0  0
 37 40  2  0  0  0  0
 38 39  2  0  0  0  0
 39 40  1  0  0  0  0
 40 41  1  0  0  0  0
 42 41  1  0  0  0  0
 43 42  1  0  0  0  0
 44 42  1  0  0  0  0
M  END
>  <MODEL>
3

>  <REMARK>
 VINA RESULT:      -8.1      3.544      8.656
  Name = 
  13 active torsions:
  status: ('A' for Active; 'I' for Inactive)
    1  A    between atoms: C_6  and  C_33
    2  A    between atoms: C_7  and  C_41
    3  A    between atoms: C_8  and  C_18
    4  A    between atoms: C_8  and  C_25
    5  A    between atoms: C_9  and  C_12
    6  A    between atoms: C_13  and  N_24
    7  A    between atoms: C_14  and  C_17
    8  A    between atoms: N_15  and  C_38
    9  A    between atoms: N_16  and  N_23
   10  A    between atoms: C_18  and  C_27
   11  A    between atoms: C_19  and  C_25
   12  A    between atoms: N_23  and  C_38
   13  A    between atoms: C_41  and  C_44
                            x       y       z     vdW  Elec       q    Type
                         _______ _______ _______ _____ _____    ______ ____

>  <TORSDO>
F 13

$$$$
=
 OpenBabel10222422023D

 44 48  0  0  1  0  0  0  0  0999 V2000
  189.4630  177.2310  146.2820 C   0  0  0  0  0  3  0  0  0  0  0  0
  191.2490  176.8420  142.5730 C   0  0  0  0  0  3  0  0  0  0  0  0
  190.8490  176.9400  146.2820 C   0  0  0  0  0  0  0  0  0  0  0  0
  189.0210  177.2930  142.6190 N   0  0  0  0  0  0  0  0  0  0  0  0
  190.0960  177.0780  141.8200 C   0  0  0  0  0  0  0  0  0  0  0  0
  188.7570  177.3660  145.0750 C   0  0  0  0  0  3  0  0  0  0  0  0
  190.8130  176.9340  143.8830 C   0  0  0  0  0  0  0  0  0  0  0  0
  191.5370  176.7890  145.0640 C   0  0  0  0  0  3  0  0  0  0  0  0
  189.4690  177.2070  143.8850 C   0  0  0  0  0  0  0  0  0  0  0  0
  190.0650  177.0840  140.3460 C   0  0  0  0  0  0  0  0  0  0  0  0
  190.2060  176.4370  138.3400 C   0  0  0  0  0  0  0  0  0  0  0  0
  189.8080  178.1860  139.6100 N   0  0  0  0  0  0  0  0  0  0  0  0
  189.8920  177.7790  138.3290 C   0  0  0  0  0  2  0  0  0  0  0  0
  190.3090  175.9860  139.6030 N   0  0  0  0  0  0  0  0  0  0  0  0
  189.0790  174.8380  136.8410 C   0  0  0  0  0  2  0  0  0  0  0  0
  190.3490  175.5830  137.1210 C   0  0  2  0  0  3  0  0  0  0  0  0
  191.3690  174.4910  137.3320 C   0  0  0  0  0  2  0  0  0  0  0  0
  189.5150  173.3830  136.7510 C   0  0  2  0  0  3  0  0  0  0  0  0
  190.9200  173.3420  136.6660 O   0  0  0  0  0  0  0  0  0  0  0  0
  188.2400  173.6290  134.7420 O   0  0  0  0  0  1  0  0  0  0  0  0
  188.8610  172.6700  135.5490 C   0  0  0  0  0  0  0  0  0  0  0  0
  189.8420  172.0150  134.7960 O   0  0  0  0  0  1  0  0  0  0  0  0
  187.7970  171.6620  136.0230 C   0  0  2  0  0  3  0  0  0  0  0  0
  188.0660  170.3280  135.5020 N   0  0  0  0  0  1  0  0  0  0  0  0
  186.3920  172.0960  135.6050 C   0  0  0  0  0  2  0  0  0  0  0  0
  184.3380  171.9510  136.8120 O   0  0  0  0  0  0  0  0  0  0  0  0
  185.5360  172.3370  136.8040 C   0  0  0  0  0  0  0  0  0  0  0  0
  186.0700  172.9600  137.9250 O   0  0  0  0  0  1  0  0  0  0  0  0
  192.5050  175.7060  147.7470 C   0  0  0  0  0  1  0  0  0  0  0  0
  191.5720  176.7950  147.5070 N   0  0  0  0  0  2  0  0  0  0  0  0
  187.7030  177.5140  142.1770 N   0  0  0  0  0  2  0  0  0  0  0  0
  187.1760  178.8310  141.8480 C   0  0  0  0  0  2  0  0  0  0  0  0
  186.0380  178.6930  140.9560 N   0  0  0  0  0  2  0  0  0  0  0  0
  184.6910  178.8810  141.3920 C   0  0  0  0  0  0  0  0  0  0  0  0
  184.4380  179.1100  142.6070 O   0  0  0  0  0  0  0  0  0  0  0  0
  183.5830  178.7960  140.3890 C   0  0  1  0  0  3  0  0  0  0  0  0
  184.1100  178.8990  139.0370 N   0  0  0  0  0  0  0  0  0  0  0  0
  182.9690  177.4310  140.3930 C   0  0  0  0  0  3  0  0  0  0  0  0
  183.1150  176.8640  139.2430 N   0  0  0  0  0  0  0  0  0  0  0  0
  183.8210  177.7950  138.4360 C   0  0  0  0  0  0  0  0  0  0  0  0
  184.2180  177.5230  137.0210 C   0  0  0  0  0  2  0  0  0  0  0  0
  185.6040  176.8930  136.8910 C   0  0  0  0  0  3  0  0  0  0  0  0
  186.6870  177.9370  136.6920 C   0  0  0  0  0  1  0  0  0  0  0  0
  185.6520  175.8520  135.7880 C   0  0  0  0  0  1  0  0  0  0  0  0
  2  7  1  0  0  0  0
  3  1  1  0  0  0  0
  3 30  1  0  0  0  0
  4  9  1  0  0  0  0
  5  2  2  0  0  0  0
  5  4  1  0  0  0  0
  6  1  2  0  0  0  0
  7  9  2  0  0  0  0
  7  8  1  0  0  0  0
  8  3  2  0  0  0  0
  9  6  1  0  0  0  0
 10  5  1  0  0  0  0
 11 14  2  0  0  0  0
 12 10  2  0  0  0  0
 13 11  1  0  0  0  0
 13 12  1  0  0  0  0
 14 10  1  0  0  0  0
 15 16  1  0  0  0  0
 16 17  1  0  0  0  0
 16 11  1  1  0  0  0
 18 21  1  6  0  0  0
 18 15  1  0  0  0  0
 19 18  1  0  0  0  0
 19 17  1  0  0  0  0
 20 21  1  0  0  0  0
 21 23  1  0  0  0  0
 22 21  1  0  0  0  0
 23 24  1  6  0  0  0
 25 23  1  0  0  0  0
 25 27  1  0  0  0  0
 27 26  2  0  0  0  0
 27 28  1  0  0  0  0
 30 29  1  0  0  0  0
 31  4  1  0  0  0  0
 32 31  1  0  0  0  0
 33 34  1  0  0  0  0
 33 32  1  0  0  0  0
 34 35  2  0  0  0  0
 36 38  1  0  0  0  0
 36 34  1  1  0  0  0
 37 36  1  0  0  0  0
 39 38  2  0  0  0  0
 40 37  2  0  0  0  0
 40 39  1  0  0  0  0
 41 40  1  0  0  0  0
 42 41  1  0  0  0  0
 43 42  1  0  0  0  0
 44 42  1  0  0  0  0
M  END
>  <MODEL>
4

>  <REMARK>
 VINA RESULT:      -7.8      3.122      7.326
  Name = 
  13 active torsions:
  status: ('A' for Active; 'I' for Inactive)
    1  A    between atoms: C_6  and  C_33
    2  A    between atoms: C_7  and  C_41
    3  A    between atoms: C_8  and  C_18
    4  A    between atoms: C_8  and  C_25
    5  A    between atoms: C_9  and  C_12
    6  A    between atoms: C_13  and  N_24
    7  A    between atoms: C_14  and  C_17
    8  A    between atoms: N_15  and  C_38
    9  A    between atoms: N_16  and  N_23
   10  A    between atoms: C_18  and  C_27
   11  A    between atoms: C_19  and  C_25
   12  A    between atoms: N_23  and  C_38
   13  A    between atoms: C_41  and  C_44
                            x       y       z     vdW  Elec       q    Type
                         _______ _______ _______ _____ _____    ______ ____

>  <TORSDO>
F 13

$$$$
=
 OpenBabel10222422023D

 44 48  0  0  1  0  0  0  0  0999 V2000
  189.4290  177.2610  146.2690 C   0  0  0  0  0  3  0  0  0  0  0  0
  191.5550  176.7340  142.7620 C   0  0  0  0  0  3  0  0  0  0  0  0
  190.8040  176.9520  146.4110 C   0  0  0  0  0  0  0  0  0  0  0  0
  189.3400  177.2170  142.5810 N   0  0  0  0  0  0  0  0  0  0  0  0
  190.4820  176.9630  141.8950 C   0  0  0  0  0  0  0  0  0  0  0  0
  188.8430  177.3690  144.9970 C   0  0  0  0  0  3  0  0  0  0  0  0
  190.9970  176.8720  144.0200 C   0  0  0  0  0  0  0  0  0  0  0  0
  191.6020  176.7550  145.2690 C   0  0  0  0  0  3  0  0  0  0  0  0
  189.6630  177.1630  143.8860 C   0  0  0  0  0  0  0  0  0  0  0  0
  190.5920  176.9230  140.4250 C   0  0  0  0  0  0  0  0  0  0  0  0
  191.3040  176.4920  138.4830 C   0  0  0  0  0  0  0  0  0  0  0  0
  189.7530  177.5800  139.5970 N   0  0  0  0  0  0  0  0  0  0  0  0
  190.1990  177.3060  138.3570 C   0  0  0  0  0  2  0  0  0  0  0  0
  191.5560  176.2370  139.7800 N   0  0  0  0  0  0  0  0  0  0  0  0
  192.7570  174.6440  137.7440 C   0  0  0  0  0  2  0  0  0  0  0  0
  192.0770  175.9170  137.3400 C   0  0  2  0  0  3  0  0  0  0  0  0
  193.2150  176.8230  136.9370 C   0  0  0  0  0  2  0  0  0  0  0  0
  194.2170  174.8720  137.3790 C   0  0  2  0  0  3  0  0  0  0  0  0
  194.3000  176.0170  136.5640 O   0  0  0  0  0  0  0  0  0  0  0  0
  193.8380  172.6510  136.5760 O   0  0  0  0  0  1  0  0  0  0  0  0
  194.8230  173.6400  136.6770 C   0  0  0  0  0  0  0  0  0  0  0  0
  195.2450  173.9890  135.3890 O   0  0  0  0  0  1  0  0  0  0  0  0
  196.0060  173.0750  137.4860 C   0  0  2  0  0  3  0  0  0  0  0  0
  195.5690  172.0210  138.3910 N   0  0  0  0  0  1  0  0  0  0  0  0
  196.7080  174.1720  138.2860 C   0  0  0  0  0  2  0  0  0  0  0  0
  199.0750  173.9540  138.0670 O   0  0  0  0  0  1  0  0  0  0  0  0
  198.0230  174.5170  137.6680 C   0  0  0  0  0  0  0  0  0  0  0  0
  198.0810  175.4360  136.6280 O   0  0  0  0  0  0  0  0  0  0  0  0
  192.4130  175.8360  148.0160 C   0  0  0  0  0  1  0  0  0  0  0  0
  191.4040  176.8350  147.7030 N   0  0  0  0  0  2  0  0  0  0  0  0
  188.0730  177.4410  142.0080 N   0  0  0  0  0  2  0  0  0  0  0  0
  187.4720  178.7610  141.8820 C   0  0  0  0  0  2  0  0  0  0  0  0
  186.5720  178.7810  140.7410 N   0  0  0  0  0  2  0  0  0  0  0  0
  185.1540  178.8760  140.8810 C   0  0  0  0  0  0  0  0  0  0  0  0
  184.6230  178.8760  142.0260 O   0  0  0  0  0  0  0  0  0  0  0  0
  184.3060  178.9690  139.6510 C   0  0  1  0  0  3  0  0  0  0  0  0
  185.1240  178.8250  138.4560 N   0  0  0  0  0  0  0  0  0  0  0  0
  183.3840  177.7940  139.5540 C   0  0  0  0  0  3  0  0  0  0  0  0
  183.6300  177.1100  138.4870 N   0  0  0  0  0  0  0  0  0  0  0  0
  184.7050  177.7730  137.8390 C   0  0  0  0  0  0  0  0  0  0  0  0
  185.3190  177.2910  136.5650 C   0  0  0  0  0  2  0  0  0  0  0  0
  186.8110  176.9850  136.6890 C   0  0  0  0  0  3  0  0  0  0  0  0
  187.6440  177.8140  135.7280 C   0  0  0  0  0  1  0  0  0  0  0  0
  187.1030  175.5060  136.5130 C   0  0  0  0  0  1  0  0  0  0  0  0
  1  3  1  0  0  0  0
  2  7  1  0  0  0  0
  3 30  1  0  0  0  0
  4  9  1  0  0  0  0
  5  4  1  0  0  0  0
  5  2  2  0  0  0  0
  6  1  2  0  0  0  0
  7  8  1  0  0  0  0
  8  3  2  0  0  0  0
  9  7  2  0  0  0  0
  9  6  1  0  0  0  0
 10  5  1  0  0  0  0
 11 14  2  0  0  0  0
 12 10  2  0  0  0  0
 13 11  1  0  0  0  0
 13 12  1  0  0  0  0
 14 10  1  0  0  0  0
 16 15  1  0  0  0  0
 16 11  1  1  0  0  0
 17 16  1  0  0  0  0
 18 21  1  6  0  0  0
 18 15  1  0  0  0  0
 19 17  1  0  0  0  0
 19 18  1  0  0  0  0
 20 21  1  0  0  0  0
 21 23  1  0  0  0  0
 22 21  1  0  0  0  0
 23 25  1  0  0  0  0
 23 24  1  1  0  0  0
 27 26  1  0  0  0  0
 27 25  1  0  0  0  0
 28 27  2  0  0  0  0
 30 29  1  0  0  0  0
 31  4  1  0  0  0  0
 32 31  1  0  0  0  0
 33 34  1  0  0  0  0
 33 32  1  0  0  0  0
 34 35  2  0  0  0  0
 36 34  1  1  0  0  0
 37 36  1  0  0  0  0
 38 36  1  0  0  0  0
 39 38  2  0  0  0  0
 40 37  2  0  0  0  0
 40 39  1  0  0  0  0
 41 42  1  0  0  0  0
 41 40  1  0  0  0  0
 43 42  1  0  0  0  0
 44 42  1  0  0  0  0
M  END
>  <MODEL>
5

>  <REMARK>
 VINA RESULT:      -7.6      2.356      6.544
  Name = 
  13 active torsions:
  status: ('A' for Active; 'I' for Inactive)
    1  A    between atoms: C_6  and  C_33
    2  A    between atoms: C_7  and  C_41
    3  A    between atoms: C_8  and  C_18
    4  A    between atoms: C_8  and  C_25
    5  A    between atoms: C_9  and  C_12
    6  A    between atoms: C_13  and  N_24
    7  A    between atoms: C_14  and  C_17
    8  A    between atoms: N_15  and  C_38
    9  A    between atoms: N_16  and  N_23
   10  A    between atoms: C_18  and  C_27
   11  A    between atoms: C_19  and  C_25
   12  A    between atoms: N_23  and  C_38
   13  A    between atoms: C_41  and  C_44
                            x       y       z     vdW  Elec       q    Type
                         _______ _______ _______ _____ _____    ______ ____

>  <TORSDO>
F 13

$$$$
=
 OpenBabel10222422023D

 44 48  0  0  1  0  0  0  0  0999 V2000
  190.2260  177.7610  144.7350 C   0  0  0  0  0  3  0  0  0  0  0  0
  190.4780  176.5520  140.7890 C   0  0  0  0  0  3  0  0  0  0  0  0
  191.1630  176.7380  144.4520 C   0  0  0  0  0  0  0  0  0  0  0  0
  188.9750  178.1830  141.2890 N   0  0  0  0  0  0  0  0  0  0  0  0
  189.5030  177.4240  140.2970 C   0  0  0  0  0  0  0  0  0  0  0  0
  189.4330  178.3120  143.7140 C   0  0  0  0  0  3  0  0  0  0  0  0
  190.5180  176.8320  142.1430 C   0  0  0  0  0  0  0  0  0  0  0  0
  191.3130  176.2640  143.1360 C   0  0  0  0  0  3  0  0  0  0  0  0
  189.6050  177.8170  142.4200 C   0  0  0  0  0  0  0  0  0  0  0  0
  189.1050  177.4950  138.8790 C   0  0  0  0  0  0  0  0  0  0  0  0
  187.9950  177.2480  137.0980 C   0  0  0  0  0  0  0  0  0  0  0  0
  189.8760  178.0400  137.9140 N   0  0  0  0  0  0  0  0  0  0  0  0
  189.1710  177.8900  136.7770 C   0  0  0  0  0  2  0  0  0  0  0  0
  187.9370  177.0020  138.4200 N   0  0  0  0  0  0  0  0  0  0  0  0
  185.5570  177.1590  136.7460 C   0  0  0  0  0  2  0  0  0  0  0  0
  186.9030  176.9270  136.1290 C   0  0  2  0  0  3  0  0  0  0  0  0
  186.8920  175.4590  135.7800 C   0  0  0  0  0  2  0  0  0  0  0  0
  184.8260  175.8400  136.5460 C   0  0  2  0  0  3  0  0  0  0  0  0
  185.5570  175.0570  135.6320 O   0  0  0  0  0  0  0  0  0  0  0  0
  183.3060  177.3100  135.4290 O   0  0  0  0  0  1  0  0  0  0  0  0
  183.3790  176.0630  136.0590 C   0  0  0  0  0  0  0  0  0  0  0  0
  183.0320  175.0710  135.1350 O   0  0  0  0  0  1  0  0  0  0  0  0
  182.3940  176.0510  137.2420 C   0  0  2  0  0  3  0  0  0  0  0  0
  181.0180  175.9280  136.7820 N   0  0  0  0  0  1  0  0  0  0  0  0
  182.5320  177.3120  138.0960 C   0  0  0  0  0  2  0  0  0  0  0  0
  181.3020  176.4190  139.9370 O   0  0  0  0  0  0  0  0  0  0  0  0
  182.3510  176.9920  139.5430 C   0  0  0  0  0  0  0  0  0  0  0  0
  183.3560  177.2970  140.4520 O   0  0  0  0  0  1  0  0  0  0  0  0
  191.6670  176.3340  146.9010 C   0  0  0  0  0  1  0  0  0  0  0  0
  191.9680  176.1690  145.4880 N   0  0  0  0  0  2  0  0  0  0  0  0
  187.9390  179.1250  141.1370 N   0  0  0  0  0  2  0  0  0  0  0  0
  186.5260  178.7840  141.2120 C   0  0  0  0  0  2  0  0  0  0  0  0
  186.2590  178.0830  142.4570 N   0  0  0  0  0  2  0  0  0  0  0  0
  185.4890  178.6580  143.5140 C   0  0  0  0  0  0  0  0  0  0  0  0
  185.0670  179.8440  143.4260 O   0  0  0  0  0  0  0  0  0  0  0  0
  185.1970  177.8360  144.7300 C   0  0  1  0  0  3  0  0  0  0  0  0
  186.3450  177.8190  145.6230 N   0  0  0  0  0  0  0  0  0  0  0  0
  184.1450  178.4900  145.5700 C   0  0  0  0  0  3  0  0  0  0  0  0
  184.6120  178.7850  146.7360 N   0  0  0  0  0  0  0  0  0  0  0  0
  185.9660  178.3590  146.7320 C   0  0  0  0  0  0  0  0  0  0  0  0
  186.8870  178.5340  147.8960 C   0  0  0  0  0  2  0  0  0  0  0  0
  188.2520  177.8770  147.6930 C   0  0  0  0  0  3  0  0  0  0  0  0
  188.1900  176.3700  147.8640 C   0  0  0  0  0  1  0  0  0  0  0  0
  189.3100  178.4770  148.6020 C   0  0  0  0  0  1  0  0  0  0  0  0
  2  7  1  0  0  0  0
  3  1  1  0  0  0  0
  3 30  1  0  0  0  0
  4  9  1  0  0  0  0
  5  2  2  0  0  0  0
  5  4  1  0  0  0  0
  6  1  2  0  0  0  0
  7  9  2  0  0  0  0
  7  8  1  0  0  0  0
  8  3  2  0  0  0  0
  9  6  1  0  0  0  0
 10  5  1  0  0  0  0
 11 14  2  0  0  0  0
 12 10  2  0  0  0  0
 13 11  1  0  0  0  0
 13 12  1  0  0  0  0
 14 10  1  0  0  0  0
 16 15  1  0  0  0  0
 16 11  1  1  0  0  0
 17 16  1  0  0  0  0
 18 21  1  6  0  0  0
 18 15  1  0  0  0  0
 19 17  1  0  0  0  0
 19 18  1  0  0  0  0
 20 21  1  0  0  0  0
 21 23  1  0  0  0  0
 22 21  1  0  0  0  0
 23 24  1  6  0  0  0
 23 25  1  0  0  0  0
 25 27  1  0  0  0  0
 27 26  2  0  0  0  0
 27 28  1  0  0  0  0
 30 29  1  0  0  0  0
 31 32  1  0  0  0  0
 31  4  1  0  0  0  0
 32 33  1  0  0  0  0
 33 34  1  0  0  0  0
 35 34  2  0  0  0  0
 36 34  1  6  0  0  0
 36 38  1  0  0  0  0
 36 37  1  0  0  0  0
 37 40  2  0  0  0  0
 38 39  2  0  0  0  0
 40 39  1  0  0  0  0
 40 41  1  0  0  0  0
 42 43  1  0  0  0  0
 42 41  1  0  0  0  0
 42 44  1  0  0  0  0
M  END
>  <MODEL>
6

>  <REMARK>
 VINA RESULT:      -7.5      3.997      7.275
  Name = 
  13 active torsions:
  status: ('A' for Active; 'I' for Inactive)
    1  A    between atoms: C_6  and  C_33
    2  A    between atoms: C_7  and  C_41
    3  A    between atoms: C_8  and  C_18
    4  A    between atoms: C_8  and  C_25
    5  A    between atoms: C_9  and  C_12
    6  A    between atoms: C_13  and  N_24
    7  A    between atoms: C_14  and  C_17
    8  A    between atoms: N_15  and  C_38
    9  A    between atoms: N_16  and  N_23
   10  A    between atoms: C_18  and  C_27
   11  A    between atoms: C_19  and  C_25
   12  A    between atoms: N_23  and  C_38
   13  A    between atoms: C_41  and  C_44
                            x       y       z     vdW  Elec       q    Type
                         _______ _______ _______ _____ _____    ______ ____

>  <TORSDO>
F 13

$$$$
=
 OpenBabel10222422023D

 44 48  0  0  1  0  0  0  0  0999 V2000
  189.4560  177.1550  146.3360 C   0  0  0  0  0  3  0  0  0  0  0  0
  191.4190  176.9900  142.7000 C   0  0  0  0  0  3  0  0  0  0  0  0
  190.8590  176.9680  146.3890 C   0  0  0  0  0  0  0  0  0  0  0  0
  189.1640  177.2740  142.6590 N   0  0  0  0  0  0  0  0  0  0  0  0
  190.2840  177.1590  141.9030 C   0  0  0  0  0  0  0  0  0  0  0  0
  188.7930  177.2670  145.1020 C   0  0  0  0  0  3  0  0  0  0  0  0
  190.9230  177.0170  143.9910 C   0  0  0  0  0  0  0  0  0  0  0  0
  191.6060  176.8980  145.1990 C   0  0  0  0  0  3  0  0  0  0  0  0
  189.5630  177.1900  143.9410 C   0  0  0  0  0  0  0  0  0  0  0  0
  190.3130  177.1980  140.4290 C   0  0  0  0  0  0  0  0  0  0  0  0
  190.9340  176.8970  138.4320 C   0  0  0  0  0  0  0  0  0  0  0  0
  189.4040  177.8600  139.6830 N   0  0  0  0  0  0  0  0  0  0  0  0
  189.7920  177.6670  138.4080 C   0  0  0  0  0  2  0  0  0  0  0  0
  191.2670  176.5870  139.6980 N   0  0  0  0  0  0  0  0  0  0  0  0
  191.4550  174.9430  137.0230 C   0  0  0  0  0  2  0  0  0  0  0  0
  191.6650  176.4140  137.2210 C   0  0  2  0  0  3  0  0  0  0  0  0
  193.1590  176.5450  137.3930 C   0  0  0  0  0  2  0  0  0  0  0  0
  192.8640  174.3770  136.9310 C   0  0  2  0  0  3  0  0  0  0  0  0
  193.7660  175.4460  136.7710 O   0  0  0  0  0  0  0  0  0  0  0  0
  191.9760  172.4060  135.9080 O   0  0  0  0  0  1  0  0  0  0  0  0
  192.9910  173.3600  135.7790 C   0  0  0  0  0  0  0  0  0  0  0  0
  192.8410  174.0140  134.5510 O   0  0  0  0  0  1  0  0  0  0  0  0
  194.3520  172.6400  135.8310 C   0  0  2  0  0  3  0  0  0  0  0  0
  194.8690  172.3920  134.4910 N   0  0  0  0  0  1  0  0  0  0  0  0
  194.2540  171.3150  136.5890 C   0  0  0  0  0  2  0  0  0  0  0  0
  195.3490  172.2720  138.4810 O   0  0  0  0  0  1  0  0  0  0  0  0
  195.2310  171.2800  137.7160 C   0  0  0  0  0  0  0  0  0  0  0  0
  195.9890  170.1380  137.9430 O   0  0  0  0  0  0  0  0  0  0  0  0
  192.4900  175.7830  147.9210 C   0  0  0  0  0  1  0  0  0  0  0  0
  191.5390  176.8460  147.6410 N   0  0  0  0  0  2  0  0  0  0  0  0
  187.8520  177.4070  142.1650 N   0  0  0  0  0  2  0  0  0  0  0  0
  187.0880  178.6440  142.2410 C   0  0  0  0  0  2  0  0  0  0  0  0
  186.3670  178.8500  140.9960 N   0  0  0  0  0  2  0  0  0  0  0  0
  184.9420  178.8110  140.9150 C   0  0  0  0  0  0  0  0  0  0  0  0
  184.2510  178.5230  141.9320 O   0  0  0  0  0  0  0  0  0  0  0  0
  184.2790  179.1120  139.6080 C   0  0  1  0  0  3  0  0  0  0  0  0
  185.1670  178.7950  138.5000 N   0  0  0  0  0  0  0  0  0  0  0  0
  183.1270  178.1850  139.3730 C   0  0  0  0  0  3  0  0  0  0  0  0
  183.3250  177.4740  138.3140 N   0  0  0  0  0  0  0  0  0  0  0  0
  184.5880  177.8760  137.8050 C   0  0  0  0  0  0  0  0  0  0  0  0
  185.2120  177.2780  136.5860 C   0  0  0  0  0  2  0  0  0  0  0  0
  186.7130  177.0330  136.7300 C   0  0  0  0  0  3  0  0  0  0  0  0
  187.4910  177.5460  135.5330 C   0  0  0  0  0  1  0  0  0  0  0  0
  187.0250  175.5700  136.9870 C   0  0  0  0  0  1  0  0  0  0  0  0
  1  3  1  0  0  0  0
  2  7  1  0  0  0  0
  3 30  1  0  0  0  0
  4  9  1  0  0  0  0
  5  4  1  0  0  0  0
  5  2  2  0  0  0  0
  6  1  2  0  0  0  0
  7  8  1  0  0  0  0
  8  3  2  0  0  0  0
  9  7  2  0  0  0  0
  9  6  1  0  0  0  0
 10  5  1  0  0  0  0
 11 14  2  0  0  0  0
 12 10  2  0  0  0  0
 13 11  1  0  0  0  0
 13 12  1  0  0  0  0
 14 10  1  0  0  0  0
 15 16  1  0  0  0  0
 16 17  1  0  0  0  0
 16 11  1  1  0  0  0
 18 21  1  6  0  0  0
 18 15  1  0  0  0  0
 19 18  1  0  0  0  0
 19 17  1  0  0  0  0
 21 23  1  0  0  0  0
 21 20  1  0  0  0  0
 22 21  1  0  0  0  0
 23 24  1  6  0  0  0
 23 25  1  0  0  0  0
 25 27  1  0  0  0  0
 27 28  2  0  0  0  0
 27 26  1  0  0  0  0
 30 29  1  0  0  0  0
 31 32  1  0  0  0  0
 31  4  1  0  0  0  0
 33 32  1  0  0  0  0
 34 33  1  0  0  0  0
 34 35  2  0  0  0  0
 36 34  1  1  0  0  0
 37 36  1  0  0  0  0
 38 36  1  0  0  0  0
 39 38  2  0  0  0  0
 40 39  1  0  0  0  0
 40 37  2  0  0  0  0
 41 42  1  0  0  0  0
 41 40  1  0  0  0  0
 42 44  1  0  0  0  0
 43 42  1  0  0  0  0
M  END
>  <MODEL>
7

>  <REMARK>
 VINA RESULT:      -7.5      2.306      6.542
  Name = 
  13 active torsions:
  status: ('A' for Active; 'I' for Inactive)
    1  A    between atoms: C_6  and  C_33
    2  A    between atoms: C_7  and  C_41
    3  A    between atoms: C_8  and  C_18
    4  A    between atoms: C_8  and  C_25
    5  A    between atoms: C_9  and  C_12
    6  A    between atoms: C_13  and  N_24
    7  A    between atoms: C_14  and  C_17
    8  A    between atoms: N_15  and  C_38
    9  A    between atoms: N_16  and  N_23
   10  A    between atoms: C_18  and  C_27
   11  A    between atoms: C_19  and  C_25
   12  A    between atoms: N_23  and  C_38
   13  A    between atoms: C_41  and  C_44
                            x       y       z     vdW  Elec       q    Type
                         _______ _______ _______ _____ _____    ______ ____

>  <TORSDO>
F 13

$$$$
=
 OpenBabel10222422023D

 44 48  0  0  1  0  0  0  0  0999 V2000
  187.0590  178.0050  146.4950 C   0  0  0  0  0  3  0  0  0  0  0  0
  189.5370  177.5580  143.2150 C   0  0  0  0  0  3  0  0  0  0  0  0
  188.4330  177.8000  146.7720 C   0  0  0  0  0  0  0  0  0  0  0  0
  187.3210  177.8720  142.8170 N   0  0  0  0  0  0  0  0  0  0  0  0
  188.5380  177.6880  142.2470 C   0  0  0  0  0  0  0  0  0  0  0  0
  186.5890  178.0410  145.1710 C   0  0  0  0  0  3  0  0  0  0  0  0
  188.8550  177.6820  144.4120 C   0  0  0  0  0  0  0  0  0  0  0  0
  189.3470  177.6360  145.7150 C   0  0  0  0  0  3  0  0  0  0  0  0
  187.5220  177.8710  144.1470 C   0  0  0  0  0  0  0  0  0  0  0  0
  188.7880  177.6240  140.7950 C   0  0  0  0  0  0  0  0  0  0  0  0
  189.4380  176.9380  138.9060 C   0  0  0  0  0  0  0  0  0  0  0  0
  188.4570  178.6120  139.9380 N   0  0  0  0  0  0  0  0  0  0  0  0
  188.8650  178.1790  138.7300 C   0  0  0  0  0  2  0  0  0  0  0  0
  189.3870  176.5740  140.2000 N   0  0  0  0  0  0  0  0  0  0  0  0
  191.4150  175.7310  138.0630 C   0  0  0  0  0  2  0  0  0  0  0  0
  189.9810  176.0840  137.8060 C   0  0  2  0  0  3  0  0  0  0  0  0
  190.0230  176.8350  136.4970 C   0  0  0  0  0  2  0  0  0  0  0  0
  192.1360  176.1660  136.7960 C   0  0  2  0  0  3  0  0  0  0  0  0
  191.1740  176.4360  135.8040 O   0  0  0  0  0  0  0  0  0  0  0  0
  192.9120  173.9160  137.0380 O   0  0  0  0  0  1  0  0  0  0  0  0
  193.1420  175.0960  136.3230 C   0  0  0  0  0  0  0  0  0  0  0  0
  192.9560  174.8410  134.9600 O   0  0  0  0  0  1  0  0  0  0  0  0
  194.5900  175.5530  136.5820 C   0  0  2  0  0  3  0  0  0  0  0  0
  194.9280  176.7170  135.7740 N   0  0  0  0  0  1  0  0  0  0  0  0
  195.5890  174.4310  136.2970 C   0  0  0  0  0  2  0  0  0  0  0  0
  197.5970  174.9800  135.1290 O   0  0  0  0  0  0  0  0  0  0  0  0
  196.9800  174.9690  136.2260 C   0  0  0  0  0  0  0  0  0  0  0  0
  197.5830  175.4880  137.3640 O   0  0  0  0  0  1  0  0  0  0  0  0
  188.0650  178.0110  149.2680 C   0  0  0  0  0  1  0  0  0  0  0  0
  188.9150  177.7550  148.1170 N   0  0  0  0  0  2  0  0  0  0  0  0
  186.1010  177.9910  142.1230 N   0  0  0  0  0  2  0  0  0  0  0  0
  185.4720  179.2680  141.8190 C   0  0  0  0  0  2  0  0  0  0  0  0
  184.8550  179.2090  140.5050 N   0  0  0  0  0  2  0  0  0  0  0  0
  183.4680  178.9220  140.3170 C   0  0  0  0  0  0  0  0  0  0  0  0
  182.7340  178.6400  141.3050 O   0  0  0  0  0  0  0  0  0  0  0  0
  182.8990  178.9570  138.9340 C   0  0  1  0  0  3  0  0  0  0  0  0
  183.9000  178.5490  137.9600 N   0  0  0  0  0  0  0  0  0  0  0  0
  181.8430  177.9100  138.7700 C   0  0  0  0  0  3  0  0  0  0  0  0
  182.1820  177.0610  137.8580 N   0  0  0  0  0  0  0  0  0  0  0  0
  183.4510  177.4860  137.3830 C   0  0  0  0  0  0  0  0  0  0  0  0
  184.2180  176.7610  136.3250 C   0  0  0  0  0  2  0  0  0  0  0  0
  185.7270  176.7550  136.5670 C   0  0  0  0  0  3  0  0  0  0  0  0
  186.4920  177.3650  135.4080 C   0  0  0  0  0  1  0  0  0  0  0  0
  186.2440  175.3620  136.8790 C   0  0  0  0  0  1  0  0  0  0  0  0
  1  3  1  0  0  0  0
  2  7  1  0  0  0  0
  3 30  1  0  0  0  0
  4  9  1  0  0  0  0
  5  4  1  0  0  0  0
  5  2  2  0  0  0  0
  6  1  2  0  0  0  0
  7  8  1  0  0  0  0
  8  3  2  0  0  0  0
  9  7  2  0  0  0  0
  9  6  1  0  0  0  0
 10  5  1  0  0  0  0
 11 14  2  0  0  0  0
 12 10  2  0  0  0  0
 13 11  1  0  0  0  0
 13 12  1  0  0  0  0
 14 10  1  0  0  0  0
 16 15  1  0  0  0  0
 16 11  1  1  0  0  0
 17 16  1  0  0  0  0
 18 21  1  6  0  0  0
 18 15  1  0  0  0  0
 19 17  1  0  0  0  0
 19 18  1  0  0  0  0
 21 23  1  0  0  0  0
 21 20  1  0  0  0  0
 22 21  1  0  0  0  0
 23 24  1  6  0  0  0
 25 23  1  0  0  0  0
 26 27  2  0  0  0  0
 27 25  1  0  0  0  0
 27 28  1  0  0  0  0
 30 29  1  0  0  0  0
 31  4  1  0  0  0  0
 32 31  1  0  0  0  0
 33 32  1  0  0  0  0
 34 33  1  0  0  0  0
 34 35  2  0  0  0  0
 36 34  1  1  0  0  0
 37 36  1  0  0  0  0
 38 36  1  0  0  0  0
 39 38  2  0  0  0  0
 40 39  1  0  0  0  0
 40 37  2  0  0  0  0
 41 42  1  0  0  0  0
 41 40  1  0  0  0  0
 42 44  1  0  0  0  0
 43 42  1  0  0  0  0
M  END
>  <MODEL>
8

>  <REMARK>
 VINA RESULT:      -7.5      2.401      6.246
  Name = 
  13 active torsions:
  status: ('A' for Active; 'I' for Inactive)
    1  A    between atoms: C_6  and  C_33
    2  A    between atoms: C_7  and  C_41
    3  A    between atoms: C_8  and  C_18
    4  A    between atoms: C_8  and  C_25
    5  A    between atoms: C_9  and  C_12
    6  A    between atoms: C_13  and  N_24
    7  A    between atoms: C_14  and  C_17
    8  A    between atoms: N_15  and  C_38
    9  A    between atoms: N_16  and  N_23
   10  A    between atoms: C_18  and  C_27
   11  A    between atoms: C_19  and  C_25
   12  A    between atoms: N_23  and  C_38
   13  A    between atoms: C_41  and  C_44
                            x       y       z     vdW  Elec       q    Type
                         _______ _______ _______ _____ _____    ______ ____

>  <TORSDO>
F 13

$$$$
=
 OpenBabel10222422023D

 44 48  0  0  1  0  0  0  0  0999 V2000
  188.8090  177.2830  145.8350 C   0  0  0  0  0  3  0  0  0  0  0  0
  185.2870  178.4130  143.9860 C   0  0  0  0  0  3  0  0  0  0  0  0
  187.7500  177.6760  146.6910 C   0  0  0  0  0  0  0  0  0  0  0  0
  187.0180  177.7900  142.6490 N   0  0  0  0  0  0  0  0  0  0  0  0
  185.7300  178.2160  142.6760 C   0  0  0  0  0  0  0  0  0  0  0  0
  188.6470  177.2940  144.4400 C   0  0  0  0  0  3  0  0  0  0  0  0
  186.3830  178.0740  144.7590 C   0  0  0  0  0  0  0  0  0  0  0  0
  186.5170  178.0780  146.1460 C   0  0  0  0  0  3  0  0  0  0  0  0
  187.4120  177.7020  143.9320 C   0  0  0  0  0  0  0  0  0  0  0  0
  184.8960  178.4510  141.4830 C   0  0  0  0  0  0  0  0  0  0  0  0
  183.4020  178.2120  140.0080 C   0  0  0  0  0  0  0  0  0  0  0  0
  185.1130  179.4540  140.6070 N   0  0  0  0  0  0  0  0  0  0  0  0
  184.1610  179.3100  139.6660 C   0  0  0  0  0  2  0  0  0  0  0  0
  183.8490  177.6680  141.1540 N   0  0  0  0  0  0  0  0  0  0  0  0
  182.4830  176.4020  138.6090 C   0  0  0  0  0  2  0  0  0  0  0  0
  182.2070  177.7290  139.2500 C   0  0  2  0  0  3  0  0  0  0  0  0
  181.8940  178.6340  138.0840 C   0  0  0  0  0  2  0  0  0  0  0  0
  182.1410  176.6210  137.1430 C   0  0  2  0  0  3  0  0  0  0  0  0
  181.4420  177.8370  137.0240 O   0  0  0  0  0  0  0  0  0  0  0  0
  180.3400  175.0880  137.5060 O   0  0  0  0  0  1  0  0  0  0  0  0
  181.3200  175.4450  136.5730 C   0  0  0  0  0  0  0  0  0  0  0  0
  180.6910  175.8390  135.3860 O   0  0  0  0  0  1  0  0  0  0  0  0
  182.2210  174.2230  136.3140 C   0  0  2  0  0  3  0  0  0  0  0  0
  182.4170  174.0060  134.8870 N   0  0  0  0  0  1  0  0  0  0  0  0
  181.6390  172.9570  136.9440 C   0  0  0  0  0  2  0  0  0  0  0  0
  182.1960  170.9010  135.8660 O   0  0  0  0  0  0  0  0  0  0  0  0
  182.5310  171.7860  136.6960 C   0  0  0  0  0  0  0  0  0  0  0  0
  183.7480  171.6890  137.3570 O   0  0  0  0  0  1  0  0  0  0  0  0
  188.9920  178.3760  148.7830 C   0  0  0  0  0  1  0  0  0  0  0  0
  187.9110  177.6730  148.1120 N   0  0  0  0  0  2  0  0  0  0  0  0
  187.7750  177.5440  141.4880 N   0  0  0  0  0  2  0  0  0  0  0  0
  188.6980  178.5120  140.9120 C   0  0  0  0  0  2  0  0  0  0  0  0
  188.4260  178.6610  139.4920 N   0  0  0  0  0  2  0  0  0  0  0  0
  189.3320  178.2120  138.4830 C   0  0  0  0  0  0  0  0  0  0  0  0
  190.4520  177.7230  138.8010 O   0  0  0  0  0  0  0  0  0  0  0  0
  188.9370  178.3350  137.0450 C   0  0  1  0  0  3  0  0  0  0  0  0
  188.9080  177.0260  136.4110 N   0  0  0  0  0  0  0  0  0  0  0  0
  187.5150  178.7850  136.9230 C   0  0  0  0  0  3  0  0  0  0  0  0
  186.8060  177.8910  136.3180 N   0  0  0  0  0  0  0  0  0  0  0  0
  187.6950  176.8260  136.0190 C   0  0  0  0  0  0  0  0  0  0  0  0
  187.2700  175.5690  135.3320 C   0  0  0  0  0  2  0  0  0  0  0  0
  187.0960  174.3860  136.2840 C   0  0  0  0  0  3  0  0  0  0  0  0
  187.1360  173.0570  135.5540 C   0  0  0  0  0  1  0  0  0  0  0  0
  185.8290  174.5070  137.1110 C   0  0  0  0  0  1  0  0  0  0  0  0
  1  3  1  0  0  0  0
  2  7  1  0  0  0  0
  3 30  1  0  0  0  0
  4  5  1  0  0  0  0
  4  9  1  0  0  0  0
  5  2  2  0  0  0  0
  6  1  2  0  0  0  0
  7  8  1  0  0  0  0
  8  3  2  0  0  0  0
  9  6  1  0  0  0  0
  9  7  2  0  0  0  0
 10  5  1  0  0  0  0
 11 14  2  0  0  0  0
 12 10  2  0  0  0  0
 13 11  1  0  0  0  0
 13 12  1  0  0  0  0
 14 10  1  0  0  0  0
 15 16  1  0  0  0  0
 16 11  1  6  0  0  0
 17 16  1  0  0  0  0
 18 21  1  1  0  0  0
 18 15  1  0  0  0  0
 19 18  1  0  0  0  0
 19 17  1  0  0  0  0
 21 20  1  0  0  0  0
 22 21  1  0  0  0  0
 23 24  1  6  0  0  0
 23 21  1  0  0  0  0
 23 25  1  0  0  0  0
 26 27  2  0  0  0  0
 27 25  1  0  0  0  0
 27 28  1  0  0  0  0
 30 29  1  0  0  0  0
 31  4  1  0  0  0  0
 32 31  1  0  0  0  0
 33 32  1  0  0  0  0
 34 35  2  0  0  0  0
 34 33  1  0  0  0  0
 36 34  1  1  0  0  0
 37 36  1  0  0  0  0
 38 36  1  0  0  0  0
 39 38  2  0  0  0  0
 40 39  1  0  0  0  0
 40 37  2  0  0  0  0
 41 40  1  0  0  0  0
 41 42  1  0  0  0  0
 42 44  1  0  0  0  0
 43 42  1  0  0  0  0
M  END
>  <MODEL>
9

>  <REMARK>
 VINA RESULT:      -7.5      4.436      8.630
  Name = 
  13 active torsions:
  status: ('A' for Active; 'I' for Inactive)
    1  A    between atoms: C_6  and  C_33
    2  A    between atoms: C_7  and  C_41
    3  A    between atoms: C_8  and  C_18
    4  A    between atoms: C_8  and  C_25
    5  A    between atoms: C_9  and  C_12
    6  A    between atoms: C_13  and  N_24
    7  A    between atoms: C_14  and  C_17
    8  A    between atoms: N_15  and  C_38
    9  A    between atoms: N_16  and  N_23
   10  A    between atoms: C_18  and  C_27
   11  A    between atoms: C_19  and  C_25
   12  A    between atoms: N_23  and  C_38
   13  A    between atoms: C_41  and  C_44
                            x       y       z     vdW  Elec       q    Type
                         _______ _______ _______ _____ _____    ______ ____

>  <TORSDO>
F 13

$$$$
