=
 OpenBabel10232410023D

 26 31  0  0  1  0  0  0  0  0999 V2000
  191.3710  177.7560  144.3650 C   0  0  1  0  0  3  0  0  0  0  0  0
  189.8860  177.5790  142.4820 C   0  0  2  0  0  0  0  0  0  0  0  0
  190.1120  178.0170  145.0820 N   0  0  0  0  0  0  0  0  0  0  0  0
  187.5800  176.1580  143.2600 C   0  0  0  0  0  2  0  0  0  0  0  0
  189.8600  176.2450  142.9790 O   0  0  0  0  0  0  0  0  0  0  0  0
  189.1160  177.8820  148.7490 C   0  0  0  0  0  2  0  0  0  0  0  0
  187.8420  177.9660  146.2030 C   0  0  0  0  0  0  0  0  0  0  0  0
  189.3130  177.9710  146.2700 C   0  0  0  0  0  0  0  0  0  0  0  0
  187.6950  178.2210  148.5780 N   0  0  0  0  0  0  0  0  0  0  0  0
  189.0790  178.6830  143.0840 C   0  0  0  0  0  2  0  0  0  0  0  0
  186.7920  177.2360  143.9380 C   0  0  0  0  0  0  0  0  0  0  0  0
  187.0840  178.2130  147.4320 C   0  0  0  0  0  3  0  0  0  0  0  0
  188.7140  176.5860  142.2930 C   0  0  2  0  0  3  0  0  0  0  0  0
  189.9060  177.9730  147.4650 C   0  0  0  0  0  3  0  0  0  0  0  0
  187.2440  177.6220  145.1010 C   0  0  0  0  0  0  0  0  0  0  0  0
  190.4220  178.5150  143.6790 C   0  0  1  0  0  0  0  0  0  0  0  0
  192.3680  178.5900  144.8680 O   0  0  0  0  0  1  0  0  0  0  0  0
  184.5260  178.4240  144.0430 C   0  0  0  0  0  3  0  0  0  0  0  0
  183.3180  178.9960  141.9550 C   0  0  0  0  0  2  0  0  0  0  0  0
  185.6710  177.9220  143.2560 C   0  0  0  0  0  0  0  0  0  0  0  0
  183.4520  178.9500  143.4520 C   0  0  0  0  0  3  0  0  0  0  0  0
  184.6080  178.8190  141.2860 N   0  0  0  0  0  0  0  0  0  0  0  0
  185.6950  178.1430  141.9360 C   0  0  0  0  0  3  0  0  0  0  0  0
  184.6960  179.0980  139.8630 C   0  0  0  0  0  2  0  0  0  0  0  0
  182.9540  178.4190  138.2430 C   0  0  0  0  0  1  0  0  0  0  0  0
  183.3220  179.4270  139.3110 C   0  0  0  0  0  2  0  0  0  0  0  0
  1 17  1  1  0  0  0
  1  3  1  0  0  0  0
  2  5  1  0  0  0  0
  2 10  1  1  0  0  0
  2 16  1  0  0  0  0
  3  8  1  0  0  0  0
  4 11  1  0  0  0  0
  7  8  1  0  0  0  0
  7 12  1  0  0  0  0
  8 14  2  0  0  0  0
  9  6  1  0  0  0  0
 11 15  2  0  0  0  0
 12  9  2  0  0  0  0
 13  2  1  0  0  0  0
 13  5  1  0  0  0  0
 13  4  1  1  0  0  0
 14  6  1  0  0  0  0
 15  7  2  0  0  0  0
 16 10  1  6  0  0  0
 16  1  1  0  0  0  0
 16  3  1  0  0  0  0
 19 21  1  0  0  0  0
 20 11  1  0  0  0  0
 20 18  1  0  0  0  0
 21 18  2  0  0  0  0
 22 23  1  0  0  0  0
 22 19  1  0  0  0  0
 23 20  2  0  0  0  0
 24 22  1  0  0  0  0
 25 26  1  0  0  0  0
 26 24  1  0  0  0  0
M  END
>  <MODEL>
1

>  <REMARK>
 VINA RESULT:      -7.8      0.000      0.000
  Name = 
  3 active torsions:
  status: ('A' for Active; 'I' for Inactive)
    1  A    between atoms: C_9  and  C_14
    2  A    between atoms: C_19  and  C_22
    3  A    between atoms: C_22  and  N_23
                            x       y       z     vdW  Elec       q    Type
                         _______ _______ _______ _____ _____    ______ ____

>  <TORSDO>
F 3

$$$$
=
 OpenBabel10232410023D

 26 31  0  0  1  0  0  0  0  0999 V2000
  189.3280  177.7420  146.8960 C   0  0  1  0  0  3  0  0  0  0  0  0
  190.8020  177.1810  145.0820 C   0  0  2  0  0  0  0  0  0  0  0  0
  188.3830  177.9800  145.7940 N   0  0  0  0  0  0  0  0  0  0  0  0
  189.3780  175.6730  143.1720 C   0  0  0  0  0  2  0  0  0  0  0  0
  190.1670  175.9280  145.3170 O   0  0  0  0  0  0  0  0  0  0  0  0
  184.5940  178.2470  145.6110 C   0  0  0  0  0  2  0  0  0  0  0  0
  186.7860  177.8740  143.8310 C   0  0  0  0  0  0  0  0  0  0  0  0
  187.0490  178.0220  145.2730 C   0  0  0  0  0  0  0  0  0  0  0  0
  184.4810  178.4310  144.1570 N   0  0  0  0  0  0  0  0  0  0  0  0
  190.1610  178.2770  144.2950 C   0  0  0  0  0  2  0  0  0  0  0  0
  188.6650  176.7560  142.4230 C   0  0  0  0  0  0  0  0  0  0  0  0
  185.4540  178.2130  143.3240 C   0  0  0  0  0  3  0  0  0  0  0  0
  190.6150  176.0690  144.0200 C   0  0  2  0  0  3  0  0  0  0  0  0
  186.0230  178.2370  146.0990 C   0  0  0  0  0  3  0  0  0  0  0  0
  187.6820  177.3340  143.0600 C   0  0  0  0  0  0  0  0  0  0  0  0
  189.8660  178.3130  145.7430 C   0  0  1  0  0  0  0  0  0  0  0  0
  189.1560  178.7220  147.8720 O   0  0  0  0  0  1  0  0  0  0  0  0
  188.4000  178.2850  140.3870 C   0  0  0  0  0  3  0  0  0  0  0  0
  189.8810  178.0090  138.4170 C   0  0  0  0  0  2  0  0  0  0  0  0
  189.1530  177.2410  141.1110 C   0  0  0  0  0  0  0  0  0  0  0  0
  188.7490  178.6680  139.1570 C   0  0  0  0  0  3  0  0  0  0  0  0
  190.7650  177.2680  139.3190 N   0  0  0  0  0  0  0  0  0  0  0  0
  190.2960  176.7840  140.5860 C   0  0  0  0  0  3  0  0  0  0  0  0
  192.0410  176.7980  138.8080 C   0  0  0  0  0  2  0  0  0  0  0  0
  191.7510  174.7180  137.5020 C   0  0  0  0  0  1  0  0  0  0  0  0
  191.8660  176.2240  137.4150 C   0  0  0  0  0  2  0  0  0  0  0  0
  1 17  1  1  0  0  0
  2 10  1  6  0  0  0
  2  5  1  0  0  0  0
  2 16  1  0  0  0  0
  3  1  1  0  0  0  0
  6 14  1  0  0  0  0
  7  8  1  0  0  0  0
  8  3  1  0  0  0  0
  8 14  2  0  0  0  0
  9  6  1  0  0  0  0
 11 15  2  0  0  0  0
 11  4  1  0  0  0  0
 12  7  1  0  0  0  0
 12  9  2  0  0  0  0
 13  4  1  6  0  0  0
 13  2  1  0  0  0  0
 13  5  1  0  0  0  0
 15  7  2  0  0  0  0
 16 10  1  1  0  0  0
 16  3  1  0  0  0  0
 16  1  1  0  0  0  0
 18 20  1  0  0  0  0
 19 21  1  0  0  0  0
 19 22  1  0  0  0  0
 20 11  1  0  0  0  0
 21 18  2  0  0  0  0
 22 23  1  0  0  0  0
 23 20  2  0  0  0  0
 24 22  1  0  0  0  0
 26 25  1  0  0  0  0
 26 24  1  0  0  0  0
M  END
>  <MODEL>
2

>  <REMARK>
 VINA RESULT:      -7.8      2.884      4.967
  Name = 
  3 active torsions:
  status: ('A' for Active; 'I' for Inactive)
    1  A    between atoms: C_9  and  C_14
    2  A    between atoms: C_19  and  C_22
    3  A    between atoms: C_22  and  N_23
                            x       y       z     vdW  Elec       q    Type
                         _______ _______ _______ _____ _____    ______ ____

>  <TORSDO>
F 3

$$$$
=
 OpenBabel10232410023D

 26 31  0  0  1  0  0  0  0  0999 V2000
  191.6180  176.5990  146.2420 C   0  0  1  0  0  3  0  0  0  0  0  0
  191.5350  176.3740  143.8500 C   0  0  2  0  0  0  0  0  0  0  0  0
  190.2740  177.1630  146.0380 N   0  0  0  0  0  0  0  0  0  0  0  0
  188.9710  175.4750  143.0980 C   0  0  0  0  0  2  0  0  0  0  0  0
  190.9280  175.1540  144.2610 O   0  0  0  0  0  0  0  0  0  0  0  0
  187.3090  177.7530  148.3430 C   0  0  0  0  0  2  0  0  0  0  0  0
  187.8370  177.6480  145.5470 C   0  0  0  0  0  0  0  0  0  0  0  0
  188.9420  177.4280  146.4950 C   0  0  0  0  0  0  0  0  0  0  0  0
  186.3800  178.2850  147.3350 N   0  0  0  0  0  0  0  0  0  0  0  0
  190.7950  177.6720  143.8090 C   0  0  0  0  0  2  0  0  0  0  0  0
  188.1960  176.7570  143.1300 C   0  0  0  0  0  0  0  0  0  0  0  0
  186.5780  178.1980  146.0540 C   0  0  0  0  0  3  0  0  0  0  0  0
  190.5170  175.5640  143.0110 C   0  0  2  0  0  3  0  0  0  0  0  0
  188.7000  177.5190  147.8040 C   0  0  0  0  0  3  0  0  0  0  0  0
  187.9470  177.2400  144.3180 C   0  0  0  0  0  0  0  0  0  0  0  0
  191.4520  177.3850  145.1020 C   0  0  1  0  0  0  0  0  0  0  0  0
  192.2800  177.3300  147.2270 O   0  0  0  0  0  1  0  0  0  0  0  0
  186.6030  178.2380  141.7800 C   0  0  0  0  0  3  0  0  0  0  0  0
  187.0630  178.7150  139.3910 C   0  0  0  0  0  2  0  0  0  0  0  0
  187.8770  177.5000  141.8890 C   0  0  0  0  0  0  0  0  0  0  0  0
  186.2350  178.8280  140.6410 C   0  0  0  0  0  3  0  0  0  0  0  0
  188.4350  178.2920  139.6820 N   0  0  0  0  0  0  0  0  0  0  0  0
  188.7490  177.5600  140.8750 C   0  0  0  0  0  3  0  0  0  0  0  0
  189.4280  178.3890  138.6260 C   0  0  0  0  0  2  0  0  0  0  0  0
  189.0210  177.9560  136.2250 C   0  0  0  0  0  1  0  0  0  0  0  0
  188.7940  178.9300  137.3600 C   0  0  0  0  0  2  0  0  0  0  0  0
  1 17  1  1  0  0  0
  2 10  1  1  0  0  0
  2  5  1  0  0  0  0
  2 16  1  0  0  0  0
  3  1  1  0  0  0  0
  3  8  1  0  0  0  0
  4 11  1  0  0  0  0
  7 12  1  0  0  0  0
  7  8  1  0  0  0  0
  8 14  2  0  0  0  0
  9  6  1  0  0  0  0
 11 15  2  0  0  0  0
 12  9  2  0  0  0  0
 13  4  1  1  0  0  0
 13  2  1  0  0  0  0
 13  5  1  0  0  0  0
 14  6  1  0  0  0  0
 15  7  2  0  0  0  0
 16 10  1  6  0  0  0
 16  3  1  0  0  0  0
 16  1  1  0  0  0  0
 18 20  1  0  0  0  0
 19 22  1  0  0  0  0
 19 21  1  0  0  0  0
 20 11  1  0  0  0  0
 21 18  2  0  0  0  0
 22 23  1  0  0  0  0
 23 20  2  0  0  0  0
 24 22  1  0  0  0  0
 25 26  1  0  0  0  0
 26 24  1  0  0  0  0
M  END
>  <MODEL>
3

>  <REMARK>
 VINA RESULT:      -7.4      2.335      3.014
  Name = 
  3 active torsions:
  status: ('A' for Active; 'I' for Inactive)
    1  A    between atoms: C_9  and  C_14
    2  A    between atoms: C_19  and  C_22
    3  A    between atoms: C_22  and  N_23
                            x       y       z     vdW  Elec       q    Type
                         _______ _______ _______ _____ _____    ______ ____

>  <TORSDO>
F 3

$$$$
=
 OpenBabel10232410023D

 26 31  0  0  1  0  0  0  0  0999 V2000
  190.9010  176.7380  139.6250 C   0  0  1  0  0  3  0  0  0  0  0  0
  191.6250  176.7440  141.9180 C   0  0  2  0  0  0  0  0  0  0  0  0
  189.6170  177.1190  140.2360 N   0  0  0  0  0  0  0  0  0  0  0  0
  190.5040  178.9720  143.2310 C   0  0  0  0  0  2  0  0  0  0  0  0
  191.8280  178.1080  141.5620 O   0  0  0  0  0  0  0  0  0  0  0  0
  186.4500  178.7230  138.8760 C   0  0  0  0  0  2  0  0  0  0  0  0
  187.6580  178.2180  141.4050 C   0  0  0  0  0  0  0  0  0  0  0  0
  188.3500  177.7860  140.1790 C   0  0  0  0  0  0  0  0  0  0  0  0
  185.7080  178.7980  140.1430 N   0  0  0  0  0  0  0  0  0  0  0  0
  190.2850  176.1950  142.2850 C   0  0  0  0  0  2  0  0  0  0  0  0
  189.1280  178.4640  143.5360 C   0  0  0  0  0  0  0  0  0  0  0  0
  186.2540  178.6230  141.3100 C   0  0  0  0  0  3  0  0  0  0  0  0
  191.6080  177.9310  142.9120 C   0  0  2  0  0  3  0  0  0  0  0  0
  187.7630  177.9880  138.9980 C   0  0  0  0  0  3  0  0  0  0  0  0
  188.3240  178.3540  142.5130 C   0  0  0  0  0  0  0  0  0  0  0  0
  190.5970  176.1260  140.8420 C   0  0  1  0  0  0  0  0  0  0  0  0
  190.6670  175.8480  138.5790 O   0  0  0  0  0  1  0  0  0  0  0  0
  187.3540  177.9860  145.3190 C   0  0  0  0  0  3  0  0  0  0  0  0
  188.0330  177.3110  147.6060 C   0  0  0  0  0  2  0  0  0  0  0  0
  188.7660  177.9720  144.8850 C   0  0  0  0  0  0  0  0  0  0  0  0
  187.0040  177.6520  146.5630 C   0  0  0  0  0  3  0  0  0  0  0  0
  189.3270  176.9800  147.0090 N   0  0  0  0  0  0  0  0  0  0  0  0
  189.6910  177.4640  145.7080 C   0  0  0  0  0  3  0  0  0  0  0  0
  190.3460  176.3780  147.8520 C   0  0  0  0  0  2  0  0  0  0  0  0
  192.7210  175.6970  147.9840 C   0  0  0  0  0  1  0  0  0  0  0  0
  191.6160  176.1530  147.0550 C   0  0  0  0  0  2  0  0  0  0  0  0
  1 17  1  6  0  0  0
  1  3  1  0  0  0  0
  1 16  1  0  0  0  0
  2 10  1  6  0  0  0
  2 13  1  0  0  0  0
  3 16  1  0  0  0  0
  4 11  1  0  0  0  0
  5  2  1  0  0  0  0
  5 13  1  0  0  0  0
  6 14  1  0  0  0  0
  6  9  1  0  0  0  0
  7 15  2  0  0  0  0
  8  3  1  0  0  0  0
  8  7  1  0  0  0  0
  9 12  2  0  0  0  0
 11 20  1  0  0  0  0
 12  7  1  0  0  0  0
 13  4  1  6  0  0  0
 14  8  2  0  0  0  0
 15 11  2  0  0  0  0
 16  2  1  0  0  0  0
 16 10  1  1  0  0  0
 18 21  2  0  0  0  0
 20 18  1  0  0  0  0
 20 23  2  0  0  0  0
 21 19  1  0  0  0  0
 22 19  1  0  0  0  0
 22 24  1  0  0  0  0
 23 22  1  0  0  0  0
 26 24  1  0  0  0  0
 26 25  1  0  0  0  0
M  END
>  <MODEL>
4

>  <REMARK>
 VINA RESULT:      -7.2      2.340      6.695
  Name = 
  3 active torsions:
  status: ('A' for Active; 'I' for Inactive)
    1  A    between atoms: C_9  and  C_14
    2  A    between atoms: C_19  and  C_22
    3  A    between atoms: C_22  and  N_23
                            x       y       z     vdW  Elec       q    Type
                         _______ _______ _______ _____ _____    ______ ____

>  <TORSDO>
F 3

$$$$
=
 OpenBabel10232410023D

 26 31  0  0  1  0  0  0  0  0999 V2000
  191.5330  178.0230  144.1950 C   0  0  1  0  0  3  0  0  0  0  0  0
  190.0440  177.8280  142.3180 C   0  0  2  0  0  0  0  0  0  0  0  0
  190.2670  178.1610  144.9330 N   0  0  0  0  0  0  0  0  0  0  0  0
  187.8500  176.2140  143.0460 C   0  0  0  0  0  2  0  0  0  0  0  0
  190.1160  176.4740  142.7520 O   0  0  0  0  0  0  0  0  0  0  0  0
  189.3220  177.7900  148.5970 C   0  0  0  0  0  2  0  0  0  0  0  0
  188.0180  177.9000  146.0680 C   0  0  0  0  0  0  0  0  0  0  0  0
  189.4850  178.0060  146.1240 C   0  0  0  0  0  0  0  0  0  0  0  0
  187.8790  178.0370  148.4540 N   0  0  0  0  0  0  0  0  0  0  0  0
  189.1680  178.8440  142.9760 C   0  0  0  0  0  2  0  0  0  0  0  0
  186.9970  177.2030  143.7790 C   0  0  0  0  0  0  0  0  0  0  0  0
  187.2580  178.0370  147.3120 C   0  0  0  0  0  3  0  0  0  0  0  0
  188.9410  176.7650  142.0910 C   0  0  2  0  0  3  0  0  0  0  0  0
  190.0900  177.9950  147.3130 C   0  0  0  0  0  3  0  0  0  0  0  0
  187.4330  177.5660  144.9560 C   0  0  0  0  0  0  0  0  0  0  0  0
  190.5260  178.7440  143.5520 C   0  0  1  0  0  0  0  0  0  0  0  0
  192.4750  178.9010  144.7290 O   0  0  0  0  0  1  0  0  0  0  0  0
  185.8020  178.0390  141.6750 C   0  0  0  0  0  3  0  0  0  0  0  0
  183.7030  179.3440  141.8670 C   0  0  0  0  0  2  0  0  0  0  0  0
  185.8230  177.8390  143.1380 C   0  0  0  0  0  0  0  0  0  0  0  0
  184.8110  178.7040  141.0780 C   0  0  0  0  0  3  0  0  0  0  0  0
  183.6140  178.8010  143.2240 N   0  0  0  0  0  0  0  0  0  0  0  0
  184.7510  178.1950  143.8560 C   0  0  0  0  0  3  0  0  0  0  0  0
  182.4430  179.1180  144.0230 C   0  0  0  0  0  2  0  0  0  0  0  0
  180.1420  178.2580  143.7340 C   0  0  0  0  0  1  0  0  0  0  0  0
  181.2070  179.1560  143.1440 C   0  0  0  0  0  2  0  0  0  0  0  0
  1 17  1  1  0  0  0
  1  3  1  0  0  0  0
  2  5  1  0  0  0  0
  2 10  1  1  0  0  0
  2 16  1  0  0  0  0
  3  8  1  0  0  0  0
  4 11  1  0  0  0  0
  7  8  1  0  0  0  0
  7 12  1  0  0  0  0
  8 14  2  0  0  0  0
  9  6  1  0  0  0  0
 11 15  2  0  0  0  0
 12  9  2  0  0  0  0
 13  2  1  0  0  0  0
 13  5  1  0  0  0  0
 13  4  1  1  0  0  0
 14  6  1  0  0  0  0
 15  7  2  0  0  0  0
 16 10  1  6  0  0  0
 16  1  1  0  0  0  0
 16  3  1  0  0  0  0
 18 20  1  0  0  0  0
 19 22  1  0  0  0  0
 20 11  1  0  0  0  0
 20 23  2  0  0  0  0
 21 18  2  0  0  0  0
 21 19  1  0  0  0  0
 22 23  1  0  0  0  0
 22 24  1  0  0  0  0
 26 25  1  0  0  0  0
 26 24  1  0  0  0  0
M  END
>  <MODEL>
5

>  <REMARK>
 VINA RESULT:      -7.2      1.023      2.017
  Name = 
  3 active torsions:
  status: ('A' for Active; 'I' for Inactive)
    1  A    between atoms: C_9  and  C_14
    2  A    between atoms: C_19  and  C_22
    3  A    between atoms: C_22  and  N_23
                            x       y       z     vdW  Elec       q    Type
                         _______ _______ _______ _____ _____    ______ ____

>  <TORSDO>
F 3

$$$$
=
 OpenBabel10232410023D

 26 31  0  0  1  0  0  0  0  0999 V2000
  190.9890  176.6830  139.7650 C   0  0  1  0  0  3  0  0  0  0  0  0
  191.8010  176.6900  142.0280 C   0  0  2  0  0  0  0  0  0  0  0  0
  189.7410  177.1070  140.4200 N   0  0  0  0  0  0  0  0  0  0  0  0
  190.7950  178.9620  143.3590 C   0  0  0  0  0  2  0  0  0  0  0  0
  192.0290  178.0440  141.6500 O   0  0  0  0  0  0  0  0  0  0  0  0
  186.5700  178.7880  139.1670 C   0  0  0  0  0  2  0  0  0  0  0  0
  187.8600  178.2730  141.6520 C   0  0  0  0  0  0  0  0  0  0  0  0
  188.4920  177.8090  140.4050 C   0  0  0  0  0  0  0  0  0  0  0  0
  185.8800  178.8960  140.4610 N   0  0  0  0  0  0  0  0  0  0  0  0
  190.4620  176.1830  142.4520 C   0  0  0  0  0  2  0  0  0  0  0  0
  189.4190  178.4960  143.7230 C   0  0  0  0  0  0  0  0  0  0  0  0
  186.4660  178.7170  141.6070 C   0  0  0  0  0  3  0  0  0  0  0  0
  191.8560  177.8860  143.0090 C   0  0  2  0  0  3  0  0  0  0  0  0
  187.8650  178.0160  139.2460 C   0  0  0  0  0  3  0  0  0  0  0  0
  188.5730  178.4000  142.7320 C   0  0  0  0  0  0  0  0  0  0  0  0
  190.7150  176.0920  140.9990 C   0  0  1  0  0  0  0  0  0  0  0  0
  190.6890  175.7900  138.7370 O   0  0  0  0  0  1  0  0  0  0  0  0
  190.1540  177.4430  145.9380 C   0  0  0  0  0  3  0  0  0  0  0  0
  188.4670  176.8190  147.6440 C   0  0  0  0  0  2  0  0  0  0  0  0
  189.0950  178.0270  145.0900 C   0  0  0  0  0  0  0  0  0  0  0  0
  189.8780  176.9130  147.1310 C   0  0  0  0  0  3  0  0  0  0  0  0
  187.5640  177.7190  146.9260 N   0  0  0  0  0  0  0  0  0  0  0  0
  187.8640  178.1670  145.5960 C   0  0  0  0  0  3  0  0  0  0  0  0
  186.2340  177.9440  147.4670 C   0  0  0  0  0  2  0  0  0  0  0  0
  184.4640  178.7290  145.9270 C   0  0  0  0  0  1  0  0  0  0  0  0
  185.6070  179.1630  146.8190 C   0  0  0  0  0  2  0  0  0  0  0  0
  1 17  1  6  0  0  0
  1  3  1  0  0  0  0
  1 16  1  0  0  0  0
  2 10  1  6  0  0  0
  2 13  1  0  0  0  0
  3 16  1  0  0  0  0
  4 11  1  0  0  0  0
  5  2  1  0  0  0  0
  5 13  1  0  0  0  0
  6 14  1  0  0  0  0
  6  9  1  0  0  0  0
  7 15  2  0  0  0  0
  8  3  1  0  0  0  0
  8  7  1  0  0  0  0
  9 12  2  0  0  0  0
 11 20  1  0  0  0  0
 12  7  1  0  0  0  0
 13  4  1  6  0  0  0
 14  8  2  0  0  0  0
 15 11  2  0  0  0  0
 16  2  1  0  0  0  0
 16 10  1  1  0  0  0
 18 21  2  0  0  0  0
 20 23  2  0  0  0  0
 20 18  1  0  0  0  0
 21 19  1  0  0  0  0
 22 24  1  0  0  0  0
 22 19  1  0  0  0  0
 23 22  1  0  0  0  0
 25 26  1  0  0  0  0
 26 24  1  0  0  0  0
M  END
>  <MODEL>
6

>  <REMARK>
 VINA RESULT:      -7.1      2.166      5.967
  Name = 
  3 active torsions:
  status: ('A' for Active; 'I' for Inactive)
    1  A    between atoms: C_9  and  C_14
    2  A    between atoms: C_19  and  C_22
    3  A    between atoms: C_22  and  N_23
                            x       y       z     vdW  Elec       q    Type
                         _______ _______ _______ _____ _____    ______ ____

>  <TORSDO>
F 3

$$$$
=
 OpenBabel10232410023D

 26 31  0  0  1  0  0  0  0  0999 V2000
  189.5990  177.7130  146.7170 C   0  0  1  0  0  3  0  0  0  0  0  0
  190.7940  177.1850  144.7000 C   0  0  2  0  0  0  0  0  0  0  0  0
  188.5080  177.9830  145.7670 N   0  0  0  0  0  0  0  0  0  0  0  0
  189.1000  175.7300  142.9800 C   0  0  0  0  0  2  0  0  0  0  0  0
  190.1880  175.9310  144.9950 O   0  0  0  0  0  0  0  0  0  0  0  0
  184.7350  178.2770  146.1300 C   0  0  0  0  0  2  0  0  0  0  0  0
  186.6480  177.9320  144.0490 C   0  0  0  0  0  0  0  0  0  0  0  0
  187.1140  178.0440  145.4410 C   0  0  0  0  0  0  0  0  0  0  0  0
  184.4180  178.4950  144.7110 N   0  0  0  0  0  0  0  0  0  0  0  0
  190.0590  178.3030  144.0360 C   0  0  0  0  0  2  0  0  0  0  0  0
  188.2980  176.8350  142.3640 C   0  0  0  0  0  0  0  0  0  0  0  0
  185.2610  178.2910  143.7440 C   0  0  0  0  0  3  0  0  0  0  0  0
  190.4480  176.0990  143.6510 C   0  0  2  0  0  3  0  0  0  0  0  0
  186.2190  178.2470  146.4090 C   0  0  0  0  0  3  0  0  0  0  0  0
  187.4200  177.4040  143.1470 C   0  0  0  0  0  0  0  0  0  0  0  0
  189.9720  178.3070  145.5120 C   0  0  1  0  0  0  0  0  0  0  0  0
  189.5750  178.6710  147.7290 O   0  0  0  0  0  1  0  0  0  0  0  0
  189.9960  177.4040  140.5340 C   0  0  0  0  0  3  0  0  0  0  0  0
  189.2760  178.6140  138.4940 C   0  0  0  0  0  2  0  0  0  0  0  0
  188.5980  177.3470  141.0070 C   0  0  0  0  0  0  0  0  0  0  0  0
  190.3130  177.9570  139.3620 C   0  0  0  0  0  3  0  0  0  0  0  0
  187.9190  178.2010  138.8570 N   0  0  0  0  0  0  0  0  0  0  0  0
  187.6180  177.7170  140.1740 C   0  0  0  0  0  3  0  0  0  0  0  0
  186.8280  178.5350  137.9570 C   0  0  0  0  0  2  0  0  0  0  0  0
  184.5720  177.5260  137.8530 C   0  0  0  0  0  1  0  0  0  0  0  0
  185.4990  178.3950  138.6740 C   0  0  0  0  0  2  0  0  0  0  0  0
  1 17  1  1  0  0  0
  2 10  1  6  0  0  0
  2  5  1  0  0  0  0
  2 16  1  0  0  0  0
  3  1  1  0  0  0  0
  6 14  1  0  0  0  0
  7  8  1  0  0  0  0
  8  3  1  0  0  0  0
  8 14  2  0  0  0  0
  9  6  1  0  0  0  0
 11  4  1  0  0  0  0
 11 15  2  0  0  0  0
 12  7  1  0  0  0  0
 12  9  2  0  0  0  0
 13  4  1  6  0  0  0
 13  2  1  0  0  0  0
 13  5  1  0  0  0  0
 15  7  2  0  0  0  0
 16 10  1  6  0  0  0
 16  3  1  0  0  0  0
 16  1  1  0  0  0  0
 18 20  1  0  0  0  0
 19 22  1  0  0  0  0
 19 21  1  0  0  0  0
 20 11  1  0  0  0  0
 21 18  2  0  0  0  0
 22 23  1  0  0  0  0
 23 20  2  0  0  0  0
 24 26  1  0  0  0  0
 24 22  1  0  0  0  0
 25 26  1  0  0  0  0
M  END
>  <MODEL>
7

>  <REMARK>
 VINA RESULT:      -7.0      2.185      3.759
  Name = 
  3 active torsions:
  status: ('A' for Active; 'I' for Inactive)
    1  A    between atoms: C_9  and  C_14
    2  A    between atoms: C_19  and  C_22
    3  A    between atoms: C_22  and  N_23
                            x       y       z     vdW  Elec       q    Type
                         _______ _______ _______ _____ _____    ______ ____

>  <TORSDO>
F 3

$$$$
=
 OpenBabel10232410023D

 26 31  0  0  1  0  0  0  0  0999 V2000
  187.5120  177.8990  146.5220 C   0  0  1  0  0  3  0  0  0  0  0  0
  185.2080  178.4190  146.0750 C   0  0  2  0  0  0  0  0  0  0  0  0
  187.5580  177.7520  145.0580 N   0  0  0  0  0  0  0  0  0  0  0  0
  185.0630  180.0680  143.7930 C   0  0  0  0  0  2  0  0  0  0  0  0
  185.8110  179.7020  145.9360 O   0  0  0  0  0  0  0  0  0  0  0  0
  190.3890  177.7270  142.5200 C   0  0  0  0  0  2  0  0  0  0  0  0
  187.5560  178.0150  142.5390 C   0  0  0  0  0  0  0  0  0  0  0  0
  188.2650  177.8090  143.8130 C   0  0  0  0  0  0  0  0  0  0  0  0
  189.5650  177.5940  141.3090 N   0  0  0  0  0  0  0  0  0  0  0  0
  185.2420  177.3880  144.9940 C   0  0  0  0  0  2  0  0  0  0  0  0
  185.1760  179.0540  142.6970 C   0  0  0  0  0  0  0  0  0  0  0  0
  188.2780  177.7740  141.2880 C   0  0  0  0  0  3  0  0  0  0  0  0
  184.6510  179.5710  145.2030 C   0  0  2  0  0  3  0  0  0  0  0  0
  189.5880  177.6340  143.7960 C   0  0  0  0  0  3  0  0  0  0  0  0
  186.3580  178.5200  142.5380 C   0  0  0  0  0  0  0  0  0  0  0  0
  186.3850  177.3290  145.9290 C   0  0  1  0  0  0  0  0  0  0  0  0
  188.2910  176.9030  147.1090 O   0  0  0  0  0  1  0  0  0  0  0  0
  184.1510  177.6760  140.7980 C   0  0  0  0  0  3  0  0  0  0  0  0
  181.7330  177.8610  140.2850 C   0  0  0  0  0  2  0  0  0  0  0  0
  183.9860  178.5780  141.9550 C   0  0  0  0  0  0  0  0  0  0  0  0
  183.1130  177.3140  140.0430 C   0  0  0  0  0  3  0  0  0  0  0  0
  181.6020  178.4380  141.6240 N   0  0  0  0  0  0  0  0  0  0  0  0
  182.7490  178.9130  142.3440 C   0  0  0  0  0  3  0  0  0  0  0  0
  180.2730  178.7690  142.1100 C   0  0  0  0  0  2  0  0  0  0  0  0
  179.9900  177.8570  144.3920 C   0  0  0  0  0  1  0  0  0  0  0  0
  180.3260  179.0960  143.5900 C   0  0  0  0  0  2  0  0  0  0  0  0
  1 17  1  1  0  0  0
  2 10  1  6  0  0  0
  3 16  1  0  0  0  0
  3  1  1  0  0  0  0
  5  2  1  0  0  0  0
  6 14  1  0  0  0  0
  7  8  1  0  0  0  0
  8  3  1  0  0  0  0
  9  6  1  0  0  0  0
 11  4  1  0  0  0  0
 12  9  2  0  0  0  0
 12  7  1  0  0  0  0
 13  4  1  6  0  0  0
 13  5  1  0  0  0  0
 13  2  1  0  0  0  0
 14  8  2  0  0  0  0
 15  7  2  0  0  0  0
 15 11  2  0  0  0  0
 16 10  1  1  0  0  0
 16  2  1  0  0  0  0
 16  1  1  0  0  0  0
 18 20  1  0  0  0  0
 19 22  1  0  0  0  0
 20 23  2  0  0  0  0
 20 11  1  0  0  0  0
 21 19  1  0  0  0  0
 21 18  2  0  0  0  0
 22 24  1  0  0  0  0
 22 23  1  0  0  0  0
 24 26  1  0  0  0  0
 26 25  1  0  0  0  0
M  END
>  <MODEL>
8

>  <REMARK>
 VINA RESULT:      -6.8      2.497      4.655
  Name = 
  3 active torsions:
  status: ('A' for Active; 'I' for Inactive)
    1  A    between atoms: C_9  and  C_14
    2  A    between atoms: C_19  and  C_22
    3  A    between atoms: C_22  and  N_23
                            x       y       z     vdW  Elec       q    Type
                         _______ _______ _______ _____ _____    ______ ____

>  <TORSDO>
F 3

$$$$
=
 OpenBabel10232410023D

 26 31  0  0  1  0  0  0  0  0999 V2000
  186.5560  176.8030  135.8980 C   0  0  1  0  0  3  0  0  0  0  0  0
  188.7590  176.6100  136.8430 C   0  0  2  0  0  0  0  0  0  0  0  0
  186.2200  177.2220  137.2690 N   0  0  0  0  0  0  0  0  0  0  0  0
  189.2270  178.8110  138.5410 C   0  0  0  0  0  2  0  0  0  0  0  0
  188.7460  177.9790  136.4520 O   0  0  0  0  0  0  0  0  0  0  0  0
  183.2840  179.1080  138.7790 C   0  0  0  0  0  2  0  0  0  0  0  0
  185.9320  178.3600  139.5130 C   0  0  0  0  0  0  0  0  0  0  0  0
  185.4160  177.9690  138.1900 C   0  0  0  0  0  0  0  0  0  0  0  0
  183.7680  179.1430  140.1680 N   0  0  0  0  0  0  0  0  0  0  0  0
  188.1170  176.1220  138.1010 C   0  0  0  0  0  2  0  0  0  0  0  0
  188.5190  178.3710  139.7850 C   0  0  0  0  0  0  0  0  0  0  0  0
  184.9870  178.8580  140.5150 C   0  0  0  0  0  3  0  0  0  0  0  0
  189.6070  177.7270  137.4990 C   0  0  2  0  0  3  0  0  0  0  0  0
  184.1610  178.2850  137.8660 C   0  0  0  0  0  3  0  0  0  0  0  0
  187.2140  178.3800  139.7290 C   0  0  0  0  0  0  0  0  0  0  0  0
  187.2220  176.1320  136.9240 C   0  0  1  0  0  0  0  0  0  0  0  0
  185.5320  176.0010  135.3970 O   0  0  0  0  0  1  0  0  0  0  0  0
  190.7060  177.5410  140.8270 C   0  0  0  0  0  3  0  0  0  0  0  0
  190.6920  176.4450  143.0510 C   0  0  0  0  0  2  0  0  0  0  0  0
  189.2590  177.8130  140.9410 C   0  0  0  0  0  0  0  0  0  0  0  0
  191.3810  176.9400  141.8090 C   0  0  0  0  0  3  0  0  0  0  0  0
  189.3770  177.0620  143.2280 N   0  0  0  0  0  0  0  0  0  0  0  0
  188.6480  177.5930  142.1120 C   0  0  0  0  0  3  0  0  0  0  0  0
  188.6980  176.8950  144.5020 C   0  0  0  0  0  2  0  0  0  0  0  0
  186.6220  177.5760  145.6620 C   0  0  0  0  0  1  0  0  0  0  0  0
  187.2110  177.1410  144.3370 C   0  0  0  0  0  2  0  0  0  0  0  0
  1 17  1  1  0  0  0
  1 16  1  0  0  0  0
  1  3  1  0  0  0  0
  2 16  1  0  0  0  0
  2 13  1  0  0  0  0
  2 10  1  1  0  0  0
  3  8  1  0  0  0  0
  4 11  1  0  0  0  0
  5  2  1  0  0  0  0
  5 13  1  0  0  0  0
  6  9  1  0  0  0  0
  7 15  2  0  0  0  0
  7 12  1  0  0  0  0
  8  7  1  0  0  0  0
  9 12  2  0  0  0  0
 11 20  1  0  0  0  0
 13  4  1  1  0  0  0
 14  8  2  0  0  0  0
 14  6  1  0  0  0  0
 15 11  2  0  0  0  0
 16  3  1  0  0  0  0
 16 10  1  1  0  0  0
 18 20  1  0  0  0  0
 18 21  2  0  0  0  0
 19 22  1  0  0  0  0
 20 23  2  0  0  0  0
 21 19  1  0  0  0  0
 22 24  1  0  0  0  0
 23 22  1  0  0  0  0
 26 24  1  0  0  0  0
 26 25  1  0  0  0  0
M  END
>  <MODEL>
9

>  <REMARK>
 VINA RESULT:      -6.7      3.557      7.652
  Name = 
  3 active torsions:
  status: ('A' for Active; 'I' for Inactive)
    1  A    between atoms: C_9  and  C_14
    2  A    between atoms: C_19  and  C_22
    3  A    between atoms: C_22  and  N_23
                            x       y       z     vdW  Elec       q    Type
                         _______ _______ _______ _____ _____    ______ ____

>  <TORSDO>
F 3

$$$$
