=
 OpenBabel10222421333D

 65 72  0  0  1  0  0  0  0  0999 V2000
  189.9280  176.1520  137.7050 C   0  0  2  0  0  3  0  0  0  0  0  0
  189.5530  177.5850  137.3450 C   0  0  0  0  0  2  0  0  0  0  0  0
  188.0650  177.6960  137.0570 C   0  0  0  0  0  2  0  0  0  0  0  0
  187.7210  176.8640  135.8380 C   0  0  0  0  0  2  0  0  0  0  0  0
  186.2750  176.8040  135.6780 N   0  0  0  0  0  2  0  0  0  0  0  0
  185.8400  175.4200  135.8180 C   0  0  1  0  0  0  0  0  0  0  0  0
  186.6520  174.5380  134.9720 N   0  0  0  0  0  2  0  0  0  0  0  0
  186.7190  174.4410  136.4430 C   0  0  0  0  0  2  0  0  0  0  0  0
  184.4180  175.1270  135.6520 N   0  0  0  0  0  0  0  0  0  0  0  0
  183.4930  175.3790  136.5300 C   0  0  0  0  0  0  0  0  0  0  0  0
  181.5080  173.7270  136.3530 N   0  0  0  0  0  0  0  0  0  0  0  0
  181.1600  175.8580  135.8270 C   0  0  0  0  0  3  0  0  0  0  0  0
  182.1160  172.5570  136.9640 C   0  0  0  0  0  1  0  0  0  0  0  0
  179.9880  175.1210  135.7000 O   0  0  0  0  0  0  0  0  0  0  0  0
  182.0900  175.0190  136.2340 C   0  0  0  0  0  0  0  0  0  0  0  0
  180.1440  173.7880  136.0390 N   0  0  0  0  0  2  0  0  0  0  0  0
  182.8940  175.5210  138.8690 N   0  0  0  0  0  1  0  0  0  0  0  0
  183.8310  175.9850  137.8620 C   0  0  0  0  0  2  0  0  0  0  0  0
  190.6230  176.1390  139.0590 C   0  0  0  0  0  2  0  0  0  0  0  0
  190.4550  177.4820  139.7530 C   0  0  0  0  0  2  0  0  0  0  0  0
  188.4480  178.2510  140.9240 C   0  0  0  0  0  0  0  0  0  0  0  0
  188.5750  177.2600  143.8650 C   0  0  0  0  0  0  0  0  0  0  0  0
  188.3190  179.1600  139.9190 F   0  0  0  0  0  0  0  0  0  0  0  0
  187.7070  178.1090  143.3260 C   0  0  0  0  0  3  0  0  0  0  0  0
  189.2930  176.2270  143.1110 C   0  0  0  0  0  3  0  0  0  0  0  0
  187.4240  178.2080  141.9290 N   0  0  0  0  0  0  0  0  0  0  0  0
  189.4730  177.3870  140.8810 C   0  0  0  0  0  0  0  0  0  0  0  0
  189.6740  176.2830  141.8370 C   0  0  0  0  0  3  0  0  0  0  0  0
  188.7130  177.2530  145.2940 C   0  0  0  0  0  0  0  0  0  0  0  0
  188.8330  177.2470  146.4950 C   0  0  0  0  0  0  0  0  0  0  0  0
  188.9730  177.2360  147.8560 O   0  0  0  0  0  0  0  0  0  0  0  0
  190.1330  177.7690  148.4760 C   0  0  0  0  0  2  0  0  0  0  0  0
  191.3780  177.0510  147.9860 C   0  0  0  0  0  1  0  0  0  0  0  0
  186.0990  178.6910  141.5780 C   0  0  0  0  0  2  0  0  0  0  0  0
  185.0470  177.8910  142.3390 C   0  0  0  0  0  2  0  0  0  0  0  0
  184.6360  179.9530  143.9050 C   0  0  0  0  0  2  0  0  0  0  0  0
  184.2800  178.6900  144.6840 C   0  0  0  0  0  2  0  0  0  0  0  0
  184.0880  178.7380  143.1840 C   0  0  0  0  0  0  0  0  0  0  0  0
  180.5270  179.1170  142.8400 N   0  0  0  0  0  0  0  0  0  0  0  0
  182.2590  178.9200  141.4650 N   0  0  0  0  0  0  0  0  0  0  0  0
  183.0040  178.8280  140.2150 C   0  0  0  0  0  2  0  0  0  0  0  0
  180.0790  179.2470  140.3480 C   0  0  0  0  0  2  0  0  0  0  0  0
  180.0250  179.1700  138.0060 C   0  0  0  0  0  1  0  0  0  0  0  0
  180.9330  179.0530  141.5600 C   0  0  0  0  0  0  0  0  0  0  0  0
  181.6200  178.9860  143.5870 N   0  0  0  0  0  0  0  0  0  0  0  0
  182.1140  179.3120  139.0610 C   0  0  0  0  0  2  0  0  0  0  0  0
  180.7720  178.7180  139.1650 N   0  0  0  0  0  0  0  0  0  0  0  0
  182.6640  178.8480  142.7440 C   0  0  0  0  0  0  0  0  0  0  0  0
  190.8770  175.5760  136.6650 C   0  0  0  0  0  2  0  0  0  0  0  0
  192.2460  175.6180  137.1520 N   0  0  0  0  0  2  0  0  0  0  0  0
  195.2340  176.8950  135.9310 O   0  0  0  0  0  1  0  0  0  0  0  0
  195.2170  174.5090  135.8850 C   0  0  2  0  0  3  0  0  0  0  0  0
  194.5630  175.7770  136.4250 C   0  0  2  0  0  3  0  0  0  0  0  0
  192.8540  174.7470  134.9750 C   0  0  0  0  0  2  0  0  0  0  0  0
  193.9050  173.3420  135.4090 S   0  0  0  0  0  0  0  0  0  0  0  0
  193.1030  175.8340  135.9980 C   0  0  1  0  0  3  0  0  0  0  0  0
  199.4710  174.1750  138.1670 C   0  0  0  0  0  1  0  0  0  0  0  0
  197.5680  173.8110  136.5980 N   0  0  0  0  0  0  0  0  0  0  0  0
  198.7840  174.0470  135.7600 C   0  0  0  0  0  0  0  0  0  0  0  0
  198.9610  173.3960  136.9670 C   0  0  0  0  0  0  0  0  0  0  0  0
  196.1700  173.8880  136.8710 C   0  0  0  0  0  0  0  0  0  0  0  0
  199.1020  171.8820  136.9820 C   0  0  0  0  0  1  0  0  0  0  0  0
  195.7230  173.3500  137.9180 O   0  0  0  0  0  0  0  0  0  0  0  0
  199.0930  175.4050  135.6550 O   0  0  0  0  0  1  0  0  0  0  0  0
  198.7510  173.3120  134.5730 O   0  0  0  0  0  1  0  0  0  0  0  0
  1 49  1  6  0  0  0
  1 19  1  0  0  0  0
  2  1  1  0  0  0  0
  3  2  1  0  0  0  0
  4  3  1  0  0  0  0
  5  6  1  0  0  0  0
  5  4  1  0  0  0  0
  6  9  1  1  0  0  0
  6  8  1  0  0  0  0
  7  6  1  0  0  0  0
  7  8  1  0  0  0  0
  9 10  2  0  0  0  0
 10 18  1  0  0  0  0
 11 13  1  0  0  0  0
 12 15  2  0  0  0  0
 14 12  1  0  0  0  0
 14 16  1  0  0  0  0
 15 11  1  0  0  0  0
 15 10  1  0  0  0  0
 16 11  1  0  0  0  0
 18 17  1  0  0  0  0
 19 20  1  0  0  0  0
 20 27  1  0  0  0  0
 21 26  1  0  0  0  0
 22 29  1  0  0  0  0
 23 21  1  0  0  0  0
 24 22  2  0  0  0  0
 25 22  1  0  0  0  0
 26 24  1  0  0  0  0
 27 21  2  0  0  0  0
 27 28  1  0  0  0  0
 28 25  2  0  0  0  0
 29 30  3  0  0  0  0
 30 31  1  0  0  0  0
 31 32  1  0  0  0  0
 33 32  1  0  0  0  0
 34 26  1  0  0  0  0
 34 35  1  0  0  0  0
 35 38  1  0  0  0  0
 36 37  1  0  0  0  0
 38 36  1  0  0  0  0
 38 37  1  0  0  0  0
 39 45  1  0  0  0  0
 40 44  1  0  0  0  0
 40 48  1  0  0  0  0
 41 40  1  0  0  0  0
 42 44  1  0  0  0  0
 43 47  1  0  0  0  0
 44 39  2  0  0  0  0
 46 47  1  0  0  0  0
 46 41  1  0  0  0  0
 47 42  1  0  0  0  0
 48 38  1  0  0  0  0
 48 45  2  0  0  0  0
 49 50  1  0  0  0  0
 52 53  1  0  0  0  0
 52 61  1  1  0  0  0
 53 51  1  6  0  0  0
 54 55  1  0  0  0  0
 54 56  1  0  0  0  0
 55 52  1  0  0  0  0
 56 53  1  0  0  0  0
 56 50  1  1  0  0  0
 58 61  1  0  0  0  0
 58 60  1  0  0  0  0
 59 58  1  0  0  0  0
 59 60  1  0  0  0  0
 60 62  1  0  0  0  0
 60 57  1  0  0  0  0
 61 63  2  0  0  0  0
 64 59  1  0  0  0  0
 65 59  1  0  0  0  0
M  END
>  <MODEL>
1

>  <REMARK>
 VINA RESULT:      -6.8      0.000      0.000
  Name = 
  22 active torsions:
  status: ('A' for Active; 'I' for Inactive)
    1  A    between atoms: C_2  and  C_36
    2  A    between atoms: C_8  and  C_9
    3  A    between atoms: C_10  and  O_32
    4  A    between atoms: C_11  and  C_27
    5  A    between atoms: C_11  and  C_48
    6  A    between atoms: C_12  and  C_33
    7  A    between atoms: C_12  and  C_50
    8  A    between atoms: C_14  and  C_43
    9  A    between atoms: C_14  and  C_52
   10  A    between atoms: C_18  and  C_21
   11  A    between atoms: C_18  and  N_54
   12  A    between atoms: N_20  and  C_29
   13  A    between atoms: C_21  and  C_50
   14  A    between atoms: C_21  and  C_52
   15  A    between atoms: C_27  and  C_62
   16  A    between atoms: C_29  and  N_58
   17  A    between atoms: O_32  and  C_40
   18  A    between atoms: C_33  and  N_58
   19  A    between atoms: N_39  and  C_48
   20  A    between atoms: C_42  and  N_54
   21  A    between atoms: C_46  and  C_57
   22  A    between atoms: C_57  and  C_60
                            x       y       z     vdW  Elec       q    Type
                         _______ _______ _______ _____ _____    ______ ____

>  <TORSDO>
F 22

$$$$
=
 OpenBabel10222421333D

 65 72  0  0  1  0  0  0  0  0999 V2000
  189.7690  175.9500  137.8790 C   0  0  2  0  0  3  0  0  0  0  0  0
  189.3660  177.3840  137.5550 C   0  0  0  0  0  2  0  0  0  0  0  0
  187.8540  177.5160  137.4860 C   0  0  0  0  0  2  0  0  0  0  0  0
  187.3870  177.2580  136.0670 C   0  0  0  0  0  2  0  0  0  0  0  0
  186.6460  176.0050  136.0140 N   0  0  0  0  0  2  0  0  0  0  0  0
  185.3990  176.2230  135.2930 C   0  0  1  0  0  0  0  0  0  0  0  0
  184.7660  177.4740  135.7240 N   0  0  0  0  0  2  0  0  0  0  0  0
  185.2860  177.3280  134.3510 C   0  0  0  0  0  2  0  0  0  0  0  0
  184.4230  175.1350  135.2640 N   0  0  0  0  0  0  0  0  0  0  0  0
  183.6770  174.7700  136.2630 C   0  0  0  0  0  0  0  0  0  0  0  0
  181.3780  173.7290  135.6880 N   0  0  0  0  0  0  0  0  0  0  0  0
  183.0320  172.3720  136.2890 C   0  0  0  0  0  3  0  0  0  0  0  0
  180.7030  174.9090  135.1750 C   0  0  0  0  0  1  0  0  0  0  0  0
  181.8830  171.6480  135.9930 O   0  0  0  0  0  0  0  0  0  0  0  0
  182.7370  173.6410  136.0960 C   0  0  0  0  0  0  0  0  0  0  0  0
  180.8260  172.4450  135.5890 N   0  0  0  0  0  2  0  0  0  0  0  0
  182.7850  174.9110  138.5070 N   0  0  0  0  0  1  0  0  0  0  0  0
  183.7870  175.4430  137.6010 C   0  0  0  0  0  2  0  0  0  0  0  0
  190.8480  175.9600  138.9520 C   0  0  0  0  0  2  0  0  0  0  0  0
  190.8760  177.3060  139.6610 C   0  0  0  0  0  2  0  0  0  0  0  0
  188.9890  178.2120  140.9310 C   0  0  0  0  0  0  0  0  0  0  0  0
  189.2870  177.3480  143.9000 C   0  0  0  0  0  0  0  0  0  0  0  0
  188.8250  179.0800  139.8950 F   0  0  0  0  0  0  0  0  0  0  0  0
  188.4170  178.2090  143.3830 C   0  0  0  0  0  3  0  0  0  0  0  0
  189.9080  176.2520  143.1480 C   0  0  0  0  0  3  0  0  0  0  0  0
  188.0390  178.2570  142.0050 N   0  0  0  0  0  0  0  0  0  0  0  0
  189.9740  177.3030  140.8570 C   0  0  0  0  0  0  0  0  0  0  0  0
  190.1990  176.2350  141.8480 C   0  0  0  0  0  3  0  0  0  0  0  0
  189.5260  177.3990  145.3140 C   0  0  0  0  0  0  0  0  0  0  0  0
  189.7280  177.4460  146.5030 C   0  0  0  0  0  0  0  0  0  0  0  0
  189.9630  177.5010  147.8490 O   0  0  0  0  0  0  0  0  0  0  0  0
  189.0680  178.1760  148.7210 C   0  0  0  0  0  2  0  0  0  0  0  0
  187.7120  177.4930  148.7250 C   0  0  0  0  0  1  0  0  0  0  0  0
  186.7130  178.7810  141.7240 C   0  0  0  0  0  2  0  0  0  0  0  0
  185.6680  177.9380  142.4480 C   0  0  0  0  0  2  0  0  0  0  0  0
  185.0730  180.0280  143.9150 C   0  0  0  0  0  2  0  0  0  0  0  0
  184.7990  178.7750  144.7440 C   0  0  0  0  0  2  0  0  0  0  0  0
  184.6320  178.7450  143.2400 C   0  0  0  0  0  0  0  0  0  0  0  0
  181.0650  178.9140  142.8060 N   0  0  0  0  0  0  0  0  0  0  0  0
  182.8270  178.5890  141.4940 N   0  0  0  0  0  0  0  0  0  0  0  0
  183.5960  178.3450  140.2800 C   0  0  0  0  0  2  0  0  0  0  0  0
  180.6540  178.6530  140.3180 C   0  0  0  0  0  2  0  0  0  0  0  0
  180.6430  178.2260  138.0130 C   0  0  0  0  0  1  0  0  0  0  0  0
  181.4950  178.6780  141.5540 C   0  0  0  0  0  0  0  0  0  0  0  0
  182.1500  178.9430  143.5760 N   0  0  0  0  0  0  0  0  0  0  0  0
  182.7060  178.6130  139.0570 C   0  0  0  0  0  2  0  0  0  0  0  0
  181.3880  177.9840  139.2340 N   0  0  0  0  0  0  0  0  0  0  0  0
  183.2130  178.7260  142.7730 C   0  0  0  0  0  0  0  0  0  0  0  0
  190.3220  175.2630  136.6390 C   0  0  0  0  0  2  0  0  0  0  0  0
  191.3170  174.2710  137.0120 N   0  0  0  0  0  2  0  0  0  0  0  0
  194.6450  175.0470  136.4040 O   0  0  0  0  0  1  0  0  0  0  0  0
  194.2490  172.6990  136.2390 C   0  0  2  0  0  3  0  0  0  0  0  0
  193.7230  174.0500  136.7160 C   0  0  2  0  0  3  0  0  0  0  0  0
  192.1630  173.3510  134.9370 C   0  0  0  0  0  2  0  0  0  0  0  0
  192.8740  171.7810  135.4820 S   0  0  0  0  0  0  0  0  0  0  0  0
  192.3940  174.3610  136.0410 C   0  0  1  0  0  3  0  0  0  0  0  0
  197.3650  169.4290  137.9740 C   0  0  0  0  0  1  0  0  0  0  0  0
  195.3010  170.5570  137.1460 N   0  0  0  0  0  0  0  0  0  0  0  0
  195.4800  169.3190  136.3260 C   0  0  0  0  0  0  0  0  0  0  0  0
  195.8900  169.2710  137.6460 C   0  0  0  0  0  0  0  0  0  0  0  0
  194.8910  171.9080  137.3460 C   0  0  0  0  0  0  0  0  0  0  0  0
  194.9910  168.6160  138.6820 C   0  0  0  0  0  1  0  0  0  0  0  0
  194.9940  172.4120  138.4960 O   0  0  0  0  0  0  0  0  0  0  0  0
  196.4260  169.4920  135.3140 O   0  0  0  0  0  1  0  0  0  0  0  0
  194.2560  168.7540  135.9590 O   0  0  0  0  0  1  0  0  0  0  0  0
  1 49  1  6  0  0  0
  1 19  1  0  0  0  0
  2  1  1  0  0  0  0
  3  2  1  0  0  0  0
  4  3  1  0  0  0  0
  5  4  1  0  0  0  0
  6  9  1  6  0  0  0
  6  7  1  0  0  0  0
  6  5  1  0  0  0  0
  8  6  1  0  0  0  0
  8  7  1  0  0  0  0
  9 10  2  0  0  0  0
 10 18  1  0  0  0  0
 11 15  1  0  0  0  0
 13 11  1  0  0  0  0
 14 12  1  0  0  0  0
 15 10  1  0  0  0  0
 15 12  2  0  0  0  0
 16 11  1  0  0  0  0
 16 14  1  0  0  0  0
 18 17  1  0  0  0  0
 19 20  1  0  0  0  0
 20 27  1  0  0  0  0
 21 26  1  0  0  0  0
 22 29  1  0  0  0  0
 23 21  1  0  0  0  0
 24 22  2  0  0  0  0
 25 22  1  0  0  0  0
 26 24  1  0  0  0  0
 27 21  2  0  0  0  0
 27 28  1  0  0  0  0
 28 25  2  0  0  0  0
 29 30  3  0  0  0  0
 30 31  1  0  0  0  0
 31 32  1  0  0  0  0
 32 33  1  0  0  0  0
 34 26  1  0  0  0  0
 34 35  1  0  0  0  0
 35 38  1  0  0  0  0
 36 37  1  0  0  0  0
 38 36  1  0  0  0  0
 38 37  1  0  0  0  0
 39 45  1  0  0  0  0
 40 44  1  0  0  0  0
 40 48  1  0  0  0  0
 41 40  1  0  0  0  0
 42 44  1  0  0  0  0
 43 47  1  0  0  0  0
 44 39  2  0  0  0  0
 46 47  1  0  0  0  0
 46 41  1  0  0  0  0
 47 42  1  0  0  0  0
 48 38  1  0  0  0  0
 48 45  2  0  0  0  0
 49 50  1  0  0  0  0
 52 53  1  0  0  0  0
 52 61  1  1  0  0  0
 53 51  1  6  0  0  0
 54 55  1  0  0  0  0
 54 56  1  0  0  0  0
 55 52  1  0  0  0  0
 56 53  1  0  0  0  0
 56 50  1  1  0  0  0
 58 61  1  0  0  0  0
 58 60  1  0  0  0  0
 59 58  1  0  0  0  0
 59 60  1  0  0  0  0
 60 57  1  0  0  0  0
 60 62  1  0  0  0  0
 61 63  2  0  0  0  0
 64 59  1  0  0  0  0
 65 59  1  0  0  0  0
M  END
>  <MODEL>
2

>  <REMARK>
 VINA RESULT:      -6.3      1.878      2.350
  Name = 
  22 active torsions:
  status: ('A' for Active; 'I' for Inactive)
    1  A    between atoms: C_2  and  C_36
    2  A    between atoms: C_8  and  C_9
    3  A    between atoms: C_10  and  O_32
    4  A    between atoms: C_11  and  C_27
    5  A    between atoms: C_11  and  C_48
    6  A    between atoms: C_12  and  C_33
    7  A    between atoms: C_12  and  C_50
    8  A    between atoms: C_14  and  C_43
    9  A    between atoms: C_14  and  C_52
   10  A    between atoms: C_18  and  C_21
   11  A    between atoms: C_18  and  N_54
   12  A    between atoms: N_20  and  C_29
   13  A    between atoms: C_21  and  C_50
   14  A    between atoms: C_21  and  C_52
   15  A    between atoms: C_27  and  C_62
   16  A    between atoms: C_29  and  N_58
   17  A    between atoms: O_32  and  C_40
   18  A    between atoms: C_33  and  N_58
   19  A    between atoms: N_39  and  C_48
   20  A    between atoms: C_42  and  N_54
   21  A    between atoms: C_46  and  C_57
   22  A    between atoms: C_57  and  C_60
                            x       y       z     vdW  Elec       q    Type
                         _______ _______ _______ _____ _____    ______ ____

>  <TORSDO>
F 22

$$$$
=
 OpenBabel10222421333D

 65 72  0  0  1  0  0  0  0  0999 V2000
  190.1570  177.8300  138.4100 C   0  0  2  0  0  3  0  0  0  0  0  0
  189.8400  176.7840  139.4710 C   0  0  0  0  0  2  0  0  0  0  0  0
  190.5960  177.0750  140.7560 C   0  0  0  0  0  2  0  0  0  0  0  0
  189.6440  177.6460  141.7880 C   0  0  0  0  0  2  0  0  0  0  0  0
  190.4000  178.1640  142.9190 N   0  0  0  0  0  2  0  0  0  0  0  0
  189.8790  177.5740  144.1460 C   0  0  1  0  0  0  0  0  0  0  0  0
  190.0310  176.1160  144.1210 N   0  0  0  0  0  2  0  0  0  0  0  0
  190.7860  176.9350  145.0890 C   0  0  0  0  0  2  0  0  0  0  0  0
  188.5290  177.9450  144.5670 N   0  0  0  0  0  0  0  0  0  0  0  0
  188.0400  177.7720  145.7590 C   0  0  0  0  0  0  0  0  0  0  0  0
  185.6250  178.4130  145.0840 N   0  0  0  0  0  0  0  0  0  0  0  0
  186.1480  178.3900  147.2440 C   0  0  0  0  0  3  0  0  0  0  0  0
  185.6830  178.1040  143.6660 C   0  0  0  0  0  1  0  0  0  0  0  0
  184.8120  178.7300  147.0640 O   0  0  0  0  0  0  0  0  0  0  0  0
  186.6490  178.1860  146.0430 C   0  0  0  0  0  0  0  0  0  0  0  0
  184.4270  178.7370  145.7350 N   0  0  0  0  0  2  0  0  0  0  0  0
  189.2200  178.0920  147.8450 N   0  0  0  0  0  1  0  0  0  0  0  0
  188.8470  177.1120  146.8400 C   0  0  0  0  0  2  0  0  0  0  0  0
  188.9840  178.7910  138.2840 C   0  0  0  0  0  2  0  0  0  0  0  0
  188.3420  178.6650  136.9100 C   0  0  0  0  0  2  0  0  0  0  0  0
  186.5090  177.3870  135.9100 C   0  0  0  0  0  0  0  0  0  0  0  0
  183.9580  177.7970  137.6340 C   0  0  0  0  0  0  0  0  0  0  0  0
  187.2580  177.3750  134.7730 F   0  0  0  0  0  0  0  0  0  0  0  0
  184.0580  177.1990  136.4520 C   0  0  0  0  0  3  0  0  0  0  0  0
  185.0580  177.9060  138.5980 C   0  0  0  0  0  3  0  0  0  0  0  0
  185.2670  176.6680  135.9070 N   0  0  0  0  0  0  0  0  0  0  0  0
  187.0060  177.9930  137.0000 C   0  0  0  0  0  0  0  0  0  0  0  0
  186.3590  177.9880  138.3250 C   0  0  0  0  0  3  0  0  0  0  0  0
  182.6590  178.2370  138.0590 C   0  0  0  0  0  0  0  0  0  0  0  0
  181.5680  178.6110  138.4140 C   0  0  0  0  0  0  0  0  0  0  0  0
  180.3340  179.0400  138.8190 O   0  0  0  0  0  0  0  0  0  0  0  0
  180.1920  179.9250  139.9210 C   0  0  0  0  0  2  0  0  0  0  0  0
  180.2580  181.3690  139.4570 C   0  0  0  0  0  1  0  0  0  0  0  0
  185.1170  175.5650  134.9720 C   0  0  0  0  0  2  0  0  0  0  0  0
  185.9360  174.3720  135.4560 C   0  0  0  0  0  2  0  0  0  0  0  0
  183.8060  173.6880  136.8230 C   0  0  0  0  0  2  0  0  0  0  0  0
  185.0310  173.4300  137.6960 C   0  0  0  0  0  2  0  0  0  0  0  0
  185.1280  173.2980  136.1920 C   0  0  0  0  0  0  0  0  0  0  0  0
  184.5920  169.9960  134.8680 N   0  0  0  0  0  0  0  0  0  0  0  0
  186.3440  171.2080  135.4950 N   0  0  0  0  0  0  0  0  0  0  0  0
  187.7340  171.5610  135.7600 C   0  0  0  0  0  2  0  0  0  0  0  0
  186.8970  168.9820  134.5750 C   0  0  0  0  0  2  0  0  0  0  0  0
  189.1450  168.3170  134.5900 C   0  0  0  0  0  1  0  0  0  0  0  0
  185.9280  170.0320  135.0140 C   0  0  0  0  0  0  0  0  0  0  0  0
  184.1350  171.1680  135.3010 N   0  0  0  0  0  0  0  0  0  0  0  0
  188.6520  170.5670  135.0330 C   0  0  0  0  0  2  0  0  0  0  0  0
  188.1880  169.1880  135.2480 N   0  0  0  0  0  0  0  0  0  0  0  0
  185.2050  171.8900  135.6970 C   0  0  0  0  0  0  0  0  0  0  0  0
  190.3870  177.1640  137.0620 C   0  0  0  0  0  2  0  0  0  0  0  0
  190.0450  175.7530  137.1300 N   0  0  0  0  0  2  0  0  0  0  0  0
  192.1180  176.0590  134.3630 O   0  0  0  0  0  1  0  0  0  0  0  0
  193.0710  174.6260  136.0170 C   0  0  2  0  0  3  0  0  0  0  0  0
  192.0130  175.6790  135.7000 C   0  0  2  0  0  3  0  0  0  0  0  0
  190.7390  173.6260  136.2000 C   0  0  0  0  0  2  0  0  0  0  0  0
  192.3090  173.3370  137.0480 S   0  0  0  0  0  0  0  0  0  0  0  0
  190.6220  175.1160  135.9580 C   0  0  1  0  0  3  0  0  0  0  0  0
  197.8290  174.9420  136.8350 C   0  0  0  0  0  1  0  0  0  0  0  0
  195.4040  174.4000  137.0300 N   0  0  0  0  0  0  0  0  0  0  0  0
  196.1470  173.1040  137.0980 C   0  0  0  0  0  0  0  0  0  0  0  0
  196.7630  174.2170  137.6380 C   0  0  0  0  0  0  0  0  0  0  0  0
  194.2850  175.2140  136.6840 C   0  0  0  0  0  0  0  0  0  0  0  0
  196.7290  174.4310  139.1430 C   0  0  0  0  0  1  0  0  0  0  0  0
  194.2870  176.4270  137.0220 O   0  0  0  0  0  0  0  0  0  0  0  0
  196.5260  172.6490  135.8330 O   0  0  0  0  0  1  0  0  0  0  0  0
  195.5160  172.1830  137.9390 O   0  0  0  0  0  1  0  0  0  0  0  0
  1 49  1  6  0  0  0
  1  2  1  0  0  0  0
  2  3  1  0  0  0  0
  3  4  1  0  0  0  0
  4  5  1  0  0  0  0
  6  5  1  6  0  0  0
  6  9  1  0  0  0  0
  6  8  1  0  0  0  0
  7  6  1  0  0  0  0
  7  8  1  0  0  0  0
  9 10  2  0  0  0  0
 10 15  1  0  0  0  0
 10 18  1  0  0  0  0
 11 16  1  0  0  0  0
 11 15  1  0  0  0  0
 13 11  1  0  0  0  0
 14 12  1  0  0  0  0
 15 12  2  0  0  0  0
 16 14  1  0  0  0  0
 18 17  1  0  0  0  0
 19  1  1  0  0  0  0
 20 27  1  0  0  0  0
 20 19  1  0  0  0  0
 21 27  2  0  0  0  0
 22 29  1  0  0  0  0
 22 25  1  0  0  0  0
 23 21  1  0  0  0  0
 24 22  2  0  0  0  0
 26 21  1  0  0  0  0
 26 24  1  0  0  0  0
 27 28  1  0  0  0  0
 28 25  2  0  0  0  0
 29 30  3  0  0  0  0
 30 31  1  0  0  0  0
 31 32  1  0  0  0  0
 33 32  1  0  0  0  0
 34 35  1  0  0  0  0
 34 26  1  0  0  0  0
 35 38  1  0  0  0  0
 36 37  1  0  0  0  0
 38 36  1  0  0  0  0
 38 37  1  0  0  0  0
 39 44  2  0  0  0  0
 39 45  1  0  0  0  0
 40 48  1  0  0  0  0
 40 41  1  0  0  0  0
 42 44  1  0  0  0  0
 42 47  1  0  0  0  0
 43 47  1  0  0  0  0
 44 40  1  0  0  0  0
 45 48  2  0  0  0  0
 46 47  1  0  0  0  0
 46 41  1  0  0  0  0
 48 38  1  0  0  0  0
 49 50  1  0  0  0  0
 52 61  1  1  0  0  0
 52 55  1  0  0  0  0
 53 51  1  6  0  0  0
 53 56  1  0  0  0  0
 53 52  1  0  0  0  0
 54 55  1  0  0  0  0
 56 54  1  0  0  0  0
 56 50  1  1  0  0  0
 57 60  1  0  0  0  0
 58 59  1  0  0  0  0
 58 60  1  0  0  0  0
 59 60  1  0  0  0  0
 59 65  1  0  0  0  0
 60 62  1  0  0  0  0
 61 63  2  0  0  0  0
 61 58  1  0  0  0  0
 64 59  1  0  0  0  0
M  END
>  <MODEL>
3

>  <REMARK>
 VINA RESULT:      -6.2      2.864      8.535
  Name = 
  22 active torsions:
  status: ('A' for Active; 'I' for Inactive)
    1  A    between atoms: C_2  and  C_36
    2  A    between atoms: C_8  and  C_9
    3  A    between atoms: C_10  and  O_32
    4  A    between atoms: C_11  and  C_27
    5  A    between atoms: C_11  and  C_48
    6  A    between atoms: C_12  and  C_33
    7  A    between atoms: C_12  and  C_50
    8  A    between atoms: C_14  and  C_43
    9  A    between atoms: C_14  and  C_52
   10  A    between atoms: C_18  and  C_21
   11  A    between atoms: C_18  and  N_54
   12  A    between atoms: N_20  and  C_29
   13  A    between atoms: C_21  and  C_50
   14  A    between atoms: C_21  and  C_52
   15  A    between atoms: C_27  and  C_62
   16  A    between atoms: C_29  and  N_58
   17  A    between atoms: O_32  and  C_40
   18  A    between atoms: C_33  and  N_58
   19  A    between atoms: N_39  and  C_48
   20  A    between atoms: C_42  and  N_54
   21  A    between atoms: C_46  and  C_57
   22  A    between atoms: C_57  and  C_60
                            x       y       z     vdW  Elec       q    Type
                         _______ _______ _______ _____ _____    ______ ____

>  <TORSDO>
F 22

$$$$
=
 OpenBabel10222421333D

 65 72  0  0  1  0  0  0  0  0999 V2000
  188.3920  177.2800  137.2300 C   0  0  2  0  0  3  0  0  0  0  0  0
  188.5650  175.9460  136.5130 C   0  0  0  0  0  2  0  0  0  0  0  0
  189.9960  175.7740  136.0320 C   0  0  0  0  0  2  0  0  0  0  0  0
  190.9130  175.5840  137.2240 C   0  0  0  0  0  2  0  0  0  0  0  0
  192.1520  174.9530  136.7920 N   0  0  0  0  0  2  0  0  0  0  0  0
  193.2500  175.4620  137.6040 C   0  0  1  0  0  0  0  0  0  0  0  0
  193.5660  176.8450  137.2330 N   0  0  0  0  0  2  0  0  0  0  0  0
  193.0110  176.5310  138.5640 C   0  0  0  0  0  2  0  0  0  0  0  0
  194.4690  174.6600  137.6920 N   0  0  0  0  0  0  0  0  0  0  0  0
  195.1990  174.2920  136.6810 C   0  0  0  0  0  0  0  0  0  0  0  0
  196.4330  172.0860  137.2350 N   0  0  0  0  0  0  0  0  0  0  0  0
  197.6470  173.9060  136.8430 C   0  0  0  0  0  3  0  0  0  0  0  0
  195.3070  171.1690  137.2090 C   0  0  0  0  0  1  0  0  0  0  0  0
  198.4660  172.8120  137.0980 O   0  0  0  0  0  0  0  0  0  0  0  0
  196.4060  173.4700  136.9150 C   0  0  0  0  0  0  0  0  0  0  0  0
  197.7600  171.6440  137.3260 N   0  0  0  0  0  2  0  0  0  0  0  0
  195.1410  173.5500  134.3800 N   0  0  0  0  0  1  0  0  0  0  0  0
  194.8110  174.6460  135.2740 C   0  0  0  0  0  2  0  0  0  0  0  0
  188.9580  177.1710  138.6380 C   0  0  0  0  0  2  0  0  0  0  0  0
  188.3140  178.2070  139.5480 C   0  0  0  0  0  2  0  0  0  0  0  0
  187.2930  178.1890  141.7730 C   0  0  0  0  0  0  0  0  0  0  0  0
  189.3720  177.1010  143.8090 C   0  0  0  0  0  0  0  0  0  0  0  0
  186.3870  179.0700  141.2660 F   0  0  0  0  0  0  0  0  0  0  0  0
  188.1890  177.6500  144.0640 C   0  0  0  0  0  3  0  0  0  0  0  0
  189.7100  176.4160  142.5570 C   0  0  0  0  0  3  0  0  0  0  0  0
  187.1150  177.7430  143.1250 N   0  0  0  0  0  0  0  0  0  0  0  0
  188.2530  177.7170  140.9630 C   0  0  0  0  0  0  0  0  0  0  0  0
  189.2300  176.6800  141.3430 C   0  0  0  0  0  3  0  0  0  0  0  0
  190.3320  177.0450  144.8740 C   0  0  0  0  0  0  0  0  0  0  0  0
  191.1400  176.9930  145.7690 C   0  0  0  0  0  0  0  0  0  0  0  0
  192.0530  176.9300  146.7860 O   0  0  0  0  0  0  0  0  0  0  0  0
  192.5650  175.6830  147.2330 C   0  0  0  0  0  2  0  0  0  0  0  0
  192.8140  175.7150  148.7310 C   0  0  0  0  0  1  0  0  0  0  0  0
  185.7760  177.7840  143.6890 C   0  0  0  0  0  2  0  0  0  0  0  0
  184.7670  178.0800  142.5830 C   0  0  0  0  0  2  0  0  0  0  0  0
  183.6470  180.0660  143.8760 C   0  0  0  0  0  2  0  0  0  0  0  0
  183.2010  178.7630  144.5330 C   0  0  0  0  0  2  0  0  0  0  0  0
  183.5000  178.8040  143.0510 C   0  0  0  0  0  0  0  0  0  0  0  0
  180.2370  178.5170  141.5610 N   0  0  0  0  0  0  0  0  0  0  0  0
  182.2510  179.1790  140.8980 N   0  0  0  0  0  0  0  0  0  0  0  0
  183.3000  179.6840  140.0210 C   0  0  0  0  0  2  0  0  0  0  0  0
  180.4720  179.4030  139.1970 C   0  0  0  0  0  2  0  0  0  0  0  0
  181.0880  180.1320  137.0560 C   0  0  0  0  0  1  0  0  0  0  0  0
  180.9770  178.9870  140.5410 C   0  0  0  0  0  0  0  0  0  0  0  0
  181.0680  178.3700  142.5900 N   0  0  0  0  0  0  0  0  0  0  0  0
  182.6540  180.3380  138.7890 C   0  0  0  0  0  2  0  0  0  0  0  0
  181.5920  179.4760  138.2490 N   0  0  0  0  0  0  0  0  0  0  0  0
  182.2910  178.7570  142.1730 C   0  0  0  0  0  0  0  0  0  0  0  0
  186.9180  177.6430  137.3240 C   0  0  0  0  0  2  0  0  0  0  0  0
  186.1060  176.6340  136.6640 N   0  0  0  0  0  2  0  0  0  0  0  0
  183.3550  177.1200  134.6030 O   0  0  0  0  0  1  0  0  0  0  0  0
  182.8730  175.5750  136.3570 C   0  0  2  0  0  3  0  0  0  0  0  0
  183.9520  176.3190  135.5750 C   0  0  2  0  0  3  0  0  0  0  0  0
  184.0870  177.2240  137.8660 C   0  0  0  0  0  2  0  0  0  0  0  0
  183.3130  175.6100  138.1210 S   0  0  0  0  0  0  0  0  0  0  0  0
  184.7710  177.1910  136.5160 C   0  0  1  0  0  3  0  0  0  0  0  0
  183.4700  170.7810  136.6380 C   0  0  0  0  0  1  0  0  0  0  0  0
  183.7060  173.1840  136.0190 N   0  0  0  0  0  0  0  0  0  0  0  0
  185.0540  172.7150  136.4630 C   0  0  0  0  0  0  0  0  0  0  0  0
  184.2440  171.7990  135.8180 C   0  0  0  0  0  0  0  0  0  0  0  0
  182.6800  174.1640  135.8690 C   0  0  0  0  0  0  0  0  0  0  0  0
  184.4790  171.5040  134.3460 C   0  0  0  0  0  1  0  0  0  0  0  0
  181.6320  173.8570  135.2420 O   0  0  0  0  0  0  0  0  0  0  0  0
  185.1660  172.6800  137.8550 O   0  0  0  0  0  1  0  0  0  0  0  0
  186.0850  173.3450  135.7620 O   0  0  0  0  0  1  0  0  0  0  0  0
  1  2  1  1  0  0  0
  1 49  1  0  0  0  0
  1 19  1  0  0  0  0
  3  2  1  0  0  0  0
  3  4  1  0  0  0  0
  5  4  1  0  0  0  0
  6  5  1  6  0  0  0
  6  9  1  0  0  0  0
  6  8  1  0  0  0  0
  7  6  1  0  0  0  0
  7  8  1  0  0  0  0
 10 15  1  0  0  0  0
 10  9  2  0  0  0  0
 11 16  1  0  0  0  0
 12 15  2  0  0  0  0
 12 14  1  0  0  0  0
 13 11  1  0  0  0  0
 14 16  1  0  0  0  0
 15 11  1  0  0  0  0
 17 18  1  0  0  0  0
 18 10  1  0  0  0  0
 19 20  1  0  0  0  0
 20 27  1  0  0  0  0
 21 26  1  0  0  0  0
 22 24  2  0  0  0  0
 22 29  1  0  0  0  0
 23 21  1  0  0  0  0
 25 22  1  0  0  0  0
 26 34  1  0  0  0  0
 26 24  1  0  0  0  0
 27 28  1  0  0  0  0
 27 21  2  0  0  0  0
 28 25  2  0  0  0  0
 29 30  3  0  0  0  0
 30 31  1  0  0  0  0
 31 32  1  0  0  0  0
 32 33  1  0  0  0  0
 35 38  1  0  0  0  0
 35 34  1  0  0  0  0
 36 37  1  0  0  0  0
 38 36  1  0  0  0  0
 38 37  1  0  0  0  0
 39 45  1  0  0  0  0
 40 48  1  0  0  0  0
 41 40  1  0  0  0  0
 42 44  1  0  0  0  0
 43 47  1  0  0  0  0
 44 40  1  0  0  0  0
 44 39  2  0  0  0  0
 46 41  1  0  0  0  0
 47 46  1  0  0  0  0
 47 42  1  0  0  0  0
 48 45  2  0  0  0  0
 48 38  1  0  0  0  0
 50 49  1  0  0  0  0
 52 61  1  6  0  0  0
 52 55  1  0  0  0  0
 53 51  1  6  0  0  0
 53 52  1  0  0  0  0
 53 56  1  0  0  0  0
 54 55  1  0  0  0  0
 56 50  1  1  0  0  0
 56 54  1  0  0  0  0
 58 59  1  0  0  0  0
 59 64  1  0  0  0  0
 60 58  1  0  0  0  0
 60 59  1  0  0  0  0
 60 57  1  0  0  0  0
 61 58  1  0  0  0  0
 62 60  1  0  0  0  0
 63 61  2  0  0  0  0
 65 59  1  0  0  0  0
M  END
>  <MODEL>
4

>  <REMARK>
 VINA RESULT:      -6.2      2.460      8.791
  Name = 
  22 active torsions:
  status: ('A' for Active; 'I' for Inactive)
    1  A    between atoms: C_2  and  C_36
    2  A    between atoms: C_8  and  C_9
    3  A    between atoms: C_10  and  O_32
    4  A    between atoms: C_11  and  C_27
    5  A    between atoms: C_11  and  C_48
    6  A    between atoms: C_12  and  C_33
    7  A    between atoms: C_12  and  C_50
    8  A    between atoms: C_14  and  C_43
    9  A    between atoms: C_14  and  C_52
   10  A    between atoms: C_18  and  C_21
   11  A    between atoms: C_18  and  N_54
   12  A    between atoms: N_20  and  C_29
   13  A    between atoms: C_21  and  C_50
   14  A    between atoms: C_21  and  C_52
   15  A    between atoms: C_27  and  C_62
   16  A    between atoms: C_29  and  N_58
   17  A    between atoms: O_32  and  C_40
   18  A    between atoms: C_33  and  N_58
   19  A    between atoms: N_39  and  C_48
   20  A    between atoms: C_42  and  N_54
   21  A    between atoms: C_46  and  C_57
   22  A    between atoms: C_57  and  C_60
                            x       y       z     vdW  Elec       q    Type
                         _______ _______ _______ _____ _____    ______ ____

>  <TORSDO>
F 22

$$$$
=
 OpenBabel10222421333D

 65 72  0  0  1  0  0  0  0  0999 V2000
  191.7770  175.9600  137.7610 C   0  0  2  0  0  3  0  0  0  0  0  0
  190.7350  176.3610  136.7240 C   0  0  0  0  0  2  0  0  0  0  0  0
  190.4130  175.1950  135.8050 C   0  0  0  0  0  2  0  0  0  0  0  0
  188.9530  175.2560  135.4000 C   0  0  0  0  0  2  0  0  0  0  0  0
  188.1110  175.1520  136.5830 N   0  0  0  0  0  2  0  0  0  0  0  0
  187.4690  173.8440  136.5920 C   0  0  1  0  0  0  0  0  0  0  0  0
  188.0350  172.9840  135.5480 N   0  0  0  0  0  2  0  0  0  0  0  0
  188.2290  172.6620  136.9750 C   0  0  0  0  0  2  0  0  0  0  0  0
  186.0080  173.7960  136.5630 N   0  0  0  0  0  0  0  0  0  0  0  0
  185.2320  174.7770  136.2060 C   0  0  0  0  0  0  0  0  0  0  0  0
  182.8900  174.9560  137.2930 N   0  0  0  0  0  0  0  0  0  0  0  0
  183.0470  174.0720  135.2600 C   0  0  0  0  0  3  0  0  0  0  0  0
  183.2300  175.7450  138.4640 C   0  0  0  0  0  1  0  0  0  0  0  0
  181.7220  174.1130  135.6790 O   0  0  0  0  0  0  0  0  0  0  0  0
  183.7660  174.5920  136.2340 C   0  0  0  0  0  0  0  0  0  0  0  0
  181.5650  174.6780  136.9320 N   0  0  0  0  0  2  0  0  0  0  0  0
  184.7760  176.9100  135.1640 N   0  0  0  0  0  1  0  0  0  0  0  0
  185.7990  176.1110  135.8140 C   0  0  0  0  0  2  0  0  0  0  0  0
  191.6270  176.8410  138.9920 C   0  0  0  0  0  2  0  0  0  0  0  0
  190.2200  177.4150  139.0640 C   0  0  0  0  0  2  0  0  0  0  0  0
  188.7630  178.2160  140.8620 C   0  0  0  0  0  0  0  0  0  0  0  0
  189.8070  177.0860  143.5600 C   0  0  0  0  0  0  0  0  0  0  0  0
  188.3590  179.1750  139.9840 F   0  0  0  0  0  0  0  0  0  0  0  0
  188.8580  177.9960  143.3680 C   0  0  0  0  0  3  0  0  0  0  0  0
  190.1750  176.0590  142.5800 C   0  0  0  0  0  3  0  0  0  0  0  0
  188.1320  178.1710  142.1490 N   0  0  0  0  0  0  0  0  0  0  0  0
  189.6660  177.3110  140.4530 C   0  0  0  0  0  0  0  0  0  0  0  0
  190.1120  176.1560  141.2540 C   0  0  0  0  0  3  0  0  0  0  0  0
  190.4120  177.0080  144.8600 C   0  0  0  0  0  0  0  0  0  0  0  0
  190.9230  176.9460  145.9510 C   0  0  0  0  0  0  0  0  0  0  0  0
  191.5080  176.8760  147.1860 O   0  0  0  0  0  0  0  0  0  0  0  0
  192.6160  176.0210  147.4230 C   0  0  0  0  0  2  0  0  0  0  0  0
  192.7120  175.6680  148.8970 C   0  0  0  0  0  1  0  0  0  0  0  0
  186.7950  178.7260  142.2760 C   0  0  0  0  0  2  0  0  0  0  0  0
  185.9450  177.8120  143.1520 C   0  0  0  0  0  2  0  0  0  0  0  0
  185.3420  179.7020  144.8660 C   0  0  0  0  0  2  0  0  0  0  0  0
  184.9980  178.3580  145.5040 C   0  0  0  0  0  2  0  0  0  0  0  0
  184.8970  178.5370  144.0050 C   0  0  0  0  0  0  0  0  0  0  0  0
  181.3520  178.8250  143.4620 N   0  0  0  0  0  0  0  0  0  0  0  0
  183.1700  178.7660  142.1890 N   0  0  0  0  0  0  0  0  0  0  0  0
  183.9930  178.7750  140.9850 C   0  0  0  0  0  2  0  0  0  0  0  0
  181.0520  179.0930  140.9590 C   0  0  0  0  0  2  0  0  0  0  0  0
  181.1420  179.1580  138.6170 C   0  0  0  0  0  1  0  0  0  0  0  0
  181.8370  178.8520  142.2080 C   0  0  0  0  0  0  0  0  0  0  0  0
  182.4020  178.6820  144.2670 N   0  0  0  0  0  0  0  0  0  0  0  0
  183.1570  179.3000  139.8080 C   0  0  0  0  0  2  0  0  0  0  0  0
  181.8330  178.6600  139.7920 N   0  0  0  0  0  0  0  0  0  0  0  0
  183.5000  178.6290  143.4830 C   0  0  0  0  0  0  0  0  0  0  0  0
  193.1790  176.1420  137.2000 C   0  0  0  0  0  2  0  0  0  0  0  0
  193.7630  174.8520  136.8690 N   0  0  0  0  0  2  0  0  0  0  0  0
  195.7360  173.8130  139.5300 O   0  0  0  0  0  1  0  0  0  0  0  0
  196.2480  172.6050  137.5360 C   0  0  2  0  0  3  0  0  0  0  0  0
  195.2600  173.5220  138.2530 C   0  0  2  0  0  3  0  0  0  0  0  0
  196.1360  174.8690  136.3800 C   0  0  0  0  0  2  0  0  0  0  0  0
  196.4180  173.1750  135.8170 S   0  0  0  0  0  0  0  0  0  0  0  0
  195.0860  174.8160  137.4700 C   0  0  1  0  0  3  0  0  0  0  0  0
  197.0010  167.9330  138.5410 C   0  0  0  0  0  1  0  0  0  0  0  0
  196.7780  170.1140  137.3550 N   0  0  0  0  0  0  0  0  0  0  0  0
  198.1420  169.5860  137.0420 C   0  0  0  0  0  0  0  0  0  0  0  0
  197.1270  168.6620  137.2140 C   0  0  0  0  0  0  0  0  0  0  0  0
  195.8370  171.1590  137.5950 C   0  0  0  0  0  0  0  0  0  0  0  0
  196.4630  168.0480  135.9930 C   0  0  0  0  0  1  0  0  0  0  0  0
  194.6270  170.8590  137.7750 O   0  0  0  0  0  0  0  0  0  0  0  0
  199.0470  169.8210  138.0790 O   0  0  0  0  0  1  0  0  0  0  0  0
  198.5530  169.9320  135.7530 O   0  0  0  0  0  1  0  0  0  0  0  0
  1  2  1  6  0  0  0
  1 19  1  0  0  0  0
  3  2  1  0  0  0  0
  4  3  1  0  0  0  0
  4  5  1  0  0  0  0
  5  6  1  0  0  0  0
  6  9  1  1  0  0  0
  6  8  1  0  0  0  0
  7  6  1  0  0  0  0
  7  8  1  0  0  0  0
 10 15  1  0  0  0  0
 10  9  2  0  0  0  0
 11 13  1  0  0  0  0
 12 14  1  0  0  0  0
 12 15  2  0  0  0  0
 14 16  1  0  0  0  0
 15 11  1  0  0  0  0
 16 11  1  0  0  0  0
 17 18  1  0  0  0  0
 18 10  1  0  0  0  0
 19 20  1  0  0  0  0
 20 27  1  0  0  0  0
 21 26  1  0  0  0  0
 22 29  1  0  0  0  0
 23 21  1  0  0  0  0
 24 22  2  0  0  0  0
 25 22  1  0  0  0  0
 26 34  1  0  0  0  0
 26 24  1  0  0  0  0
 27 21  2  0  0  0  0
 27 28  1  0  0  0  0
 28 25  2  0  0  0  0
 29 30  3  0  0  0  0
 30 31  1  0  0  0  0
 31 32  1  0  0  0  0
 32 33  1  0  0  0  0
 34 35  1  0  0  0  0
 35 38  1  0  0  0  0
 36 37  1  0  0  0  0
 38 36  1  0  0  0  0
 38 37  1  0  0  0  0
 39 45  1  0  0  0  0
 40 44  1  0  0  0  0
 40 48  1  0  0  0  0
 41 40  1  0  0  0  0
 42 44  1  0  0  0  0
 43 47  1  0  0  0  0
 44 39  2  0  0  0  0
 46 41  1  0  0  0  0
 47 46  1  0  0  0  0
 47 42  1  0  0  0  0
 48 38  1  0  0  0  0
 48 45  2  0  0  0  0
 49  1  1  0  0  0  0
 50 49  1  0  0  0  0
 52 61  1  6  0  0  0
 52 53  1  0  0  0  0
 53 51  1  1  0  0  0
 54 56  1  0  0  0  0
 55 54  1  0  0  0  0
 55 52  1  0  0  0  0
 56 50  1  6  0  0  0
 56 53  1  0  0  0  0
 58 61  1  0  0  0  0
 59 60  1  0  0  0  0
 59 58  1  0  0  0  0
 59 64  1  0  0  0  0
 60 58  1  0  0  0  0
 60 57  1  0  0  0  0
 61 63  2  0  0  0  0
 62 60  1  0  0  0  0
 65 59  1  0  0  0  0
M  END
>  <MODEL>
5

>  <REMARK>
 VINA RESULT:      -5.7      1.948      2.623
  Name = 
  22 active torsions:
  status: ('A' for Active; 'I' for Inactive)
    1  A    between atoms: C_2  and  C_36
    2  A    between atoms: C_8  and  C_9
    3  A    between atoms: C_10  and  O_32
    4  A    between atoms: C_11  and  C_27
    5  A    between atoms: C_11  and  C_48
    6  A    between atoms: C_12  and  C_33
    7  A    between atoms: C_12  and  C_50
    8  A    between atoms: C_14  and  C_43
    9  A    between atoms: C_14  and  C_52
   10  A    between atoms: C_18  and  C_21
   11  A    between atoms: C_18  and  N_54
   12  A    between atoms: N_20  and  C_29
   13  A    between atoms: C_21  and  C_50
   14  A    between atoms: C_21  and  C_52
   15  A    between atoms: C_27  and  C_62
   16  A    between atoms: C_29  and  N_58
   17  A    between atoms: O_32  and  C_40
   18  A    between atoms: C_33  and  N_58
   19  A    between atoms: N_39  and  C_48
   20  A    between atoms: C_42  and  N_54
   21  A    between atoms: C_46  and  C_57
   22  A    between atoms: C_57  and  C_60
                            x       y       z     vdW  Elec       q    Type
                         _______ _______ _______ _____ _____    ______ ____

>  <TORSDO>
F 22

$$$$
=
 OpenBabel10222421333D

 65 72  0  0  1  0  0  0  0  0999 V2000
  189.1160  176.9040  138.9570 C   0  0  2  0  0  3  0  0  0  0  0  0
  187.8540  176.9680  138.1040 C   0  0  0  0  0  2  0  0  0  0  0  0
  187.7900  178.2770  137.3360 C   0  0  0  0  0  2  0  0  0  0  0  0
  186.7710  178.1610  136.2190 C   0  0  0  0  0  2  0  0  0  0  0  0
  185.6800  177.2930  136.6390 N   0  0  0  0  0  2  0  0  0  0  0  0
  185.3840  176.3540  135.5650 C   0  0  1  0  0  0  0  0  0  0  0  0
  184.8870  177.0630  134.3820 N   0  0  0  0  0  2  0  0  0  0  0  0
  186.1850  176.3620  134.3490 C   0  0  0  0  0  2  0  0  0  0  0  0
  184.5330  175.2060  135.8730 N   0  0  0  0  0  0  0  0  0  0  0  0
  183.3990  175.2610  136.5060 C   0  0  0  0  0  0  0  0  0  0  0  0
  183.1140  172.6890  136.5530 N   0  0  0  0  0  0  0  0  0  0  0  0
  181.4180  173.9520  137.2340 C   0  0  0  0  0  3  0  0  0  0  0  0
  184.4760  172.2910  136.2380 C   0  0  0  0  0  1  0  0  0  0  0  0
  181.1040  172.6030  137.3480 O   0  0  0  0  0  0  0  0  0  0  0  0
  182.6450  174.0140  136.7590 C   0  0  0  0  0  0  0  0  0  0  0  0
  182.1370  171.7690  136.9580 N   0  0  0  0  0  2  0  0  0  0  0  0
  181.8110  177.0510  136.1590 N   0  0  0  0  0  1  0  0  0  0  0  0
  182.8650  176.5630  137.0300 C   0  0  0  0  0  2  0  0  0  0  0  0
  188.9430  177.7940  140.1790 C   0  0  0  0  0  2  0  0  0  0  0  0
  188.6830  176.9490  141.4170 C   0  0  0  0  0  2  0  0  0  0  0  0
  187.3160  176.9930  143.4470 C   0  0  0  0  0  0  0  0  0  0  0  0
  184.7020  178.5600  142.8480 C   0  0  0  0  0  0  0  0  0  0  0  0
  188.0720  175.9430  143.8700 F   0  0  0  0  0  0  0  0  0  0  0  0
  185.0020  177.8570  143.9350 C   0  0  0  0  0  3  0  0  0  0  0  0
  185.6970  179.1820  141.9680 C   0  0  0  0  0  3  0  0  0  0  0  0
  186.3280  177.5180  144.3460 N   0  0  0  0  0  0  0  0  0  0  0  0
  187.5880  177.5400  142.2520 C   0  0  0  0  0  0  0  0  0  0  0  0
  186.9290  178.7450  141.7170 C   0  0  0  0  0  3  0  0  0  0  0  0
  183.3190  178.8550  142.5970 C   0  0  0  0  0  0  0  0  0  0  0  0
  182.1570  179.1020  142.3900 C   0  0  0  0  0  0  0  0  0  0  0  0
  180.8370  179.3780  142.1580 O   0  0  0  0  0  0  0  0  0  0  0  0
  180.0840  178.6170  141.2260 C   0  0  0  0  0  2  0  0  0  0  0  0
  180.7960  178.5590  139.8850 C   0  0  0  0  0  1  0  0  0  0  0  0
  186.5240  177.3160  145.7720 C   0  0  0  0  0  2  0  0  0  0  0  0
  187.4100  178.4270  146.3260 C   0  0  0  0  0  2  0  0  0  0  0  0
  188.2920  177.4990  148.6140 C   0  0  0  0  0  2  0  0  0  0  0  0
  188.9870  178.8320  148.3450 C   0  0  0  0  0  2  0  0  0  0  0  0
  188.5770  177.9410  147.1930 C   0  0  0  0  0  0  0  0  0  0  0  0
  191.1940  175.7270  146.1000 N   0  0  0  0  0  0  0  0  0  0  0  0
  190.2450  177.5860  145.3420 N   0  0  0  0  0  0  0  0  0  0  0  0
  189.9760  178.7210  144.4670 C   0  0  0  0  0  2  0  0  0  0  0  0
  191.9770  176.6270  143.8620 C   0  0  0  0  0  2  0  0  0  0  0  0
  192.5450  177.8170  141.9240 C   0  0  0  0  0  1  0  0  0  0  0  0
  191.1790  176.6550  145.1260 C   0  0  0  0  0  0  0  0  0  0  0  0
  190.2680  176.0940  146.9820 N   0  0  0  0  0  0  0  0  0  0  0  0
  190.6190  178.4630  143.0960 C   0  0  0  0  0  2  0  0  0  0  0  0
  191.9940  177.9670  143.2590 N   0  0  0  0  0  0  0  0  0  0  0  0
  189.7100  177.2340  146.5230 C   0  0  0  0  0  0  0  0  0  0  0  0
  190.3170  177.3950  138.1630 C   0  0  0  0  0  2  0  0  0  0  0  0
  191.1410  176.2730  137.7460 N   0  0  0  0  0  2  0  0  0  0  0  0
  193.0250  176.5720  134.8460 O   0  0  0  0  0  1  0  0  0  0  0  0
  192.2610  174.3340  135.1670 C   0  0  2  0  0  3  0  0  0  0  0  0
  192.4810  175.7070  135.7940 C   0  0  2  0  0  3  0  0  0  0  0  0
  190.0330  175.4000  135.7770 C   0  0  0  0  0  2  0  0  0  0  0  0
  190.6480  173.7010  135.7190 S   0  0  0  0  0  0  0  0  0  0  0  0
  191.1580  176.2720  136.2920 C   0  0  1  0  0  3  0  0  0  0  0  0
  195.6920  172.5000  138.0440 C   0  0  0  0  0  1  0  0  0  0  0  0
  194.4970  173.7740  136.2660 N   0  0  0  0  0  0  0  0  0  0  0  0
  195.2980  174.7660  137.0470 C   0  0  0  0  0  0  0  0  0  0  0  0
  195.8250  173.4950  136.9040 C   0  0  0  0  0  0  0  0  0  0  0  0
  193.3680  173.3680  135.4940 C   0  0  0  0  0  0  0  0  0  0  0  0
  196.9010  173.2480  135.8600 C   0  0  0  0  0  1  0  0  0  0  0  0
  193.3460  172.2050  135.0110 O   0  0  0  0  0  0  0  0  0  0  0  0
  194.6690  175.1230  138.2420 O   0  0  0  0  0  1  0  0  0  0  0  0
  195.7690  175.8070  136.2450 O   0  0  0  0  0  1  0  0  0  0  0  0
  1  2  1  6  0  0  0
  1 19  1  0  0  0  0
  3  2  1  0  0  0  0
  4  5  1  0  0  0  0
  4  3  1  0  0  0  0
  6  9  1  1  0  0  0
  6  5  1  0  0  0  0
  7  6  1  0  0  0  0
  8  7  1  0  0  0  0
  8  6  1  0  0  0  0
  9 10  2  0  0  0  0
 10 15  1  0  0  0  0
 10 18  1  0  0  0  0
 11 15  1  0  0  0  0
 11 16  1  0  0  0  0
 12 14  1  0  0  0  0
 13 11  1  0  0  0  0
 15 12  2  0  0  0  0
 16 14  1  0  0  0  0
 17 18  1  0  0  0  0
 19 20  1  0  0  0  0
 20 27  1  0  0  0  0
 21 23  1  0  0  0  0
 21 26  1  0  0  0  0
 22 24  2  0  0  0  0
 24 26  1  0  0  0  0
 25 22  1  0  0  0  0
 26 34  1  0  0  0  0
 27 21  2  0  0  0  0
 28 25  2  0  0  0  0
 28 27  1  0  0  0  0
 29 22  1  0  0  0  0
 30 29  3  0  0  0  0
 31 30  1  0  0  0  0
 32 31  1  0  0  0  0
 33 32  1  0  0  0  0
 34 35  1  0  0  0  0
 35 38  1  0  0  0  0
 37 36  1  0  0  0  0
 38 37  1  0  0  0  0
 38 36  1  0  0  0  0
 39 45  1  0  0  0  0
 40 48  1  0  0  0  0
 41 40  1  0  0  0  0
 42 44  1  0  0  0  0
 43 47  1  0  0  0  0
 44 40  1  0  0  0  0
 44 39  2  0  0  0  0
 46 47  1  0  0  0  0
 46 41  1  0  0  0  0
 47 42  1  0  0  0  0
 48 45  2  0  0  0  0
 48 38  1  0  0  0  0
 49  1  1  0  0  0  0
 50 49  1  0  0  0  0
 52 61  1  1  0  0  0
 52 55  1  0  0  0  0
 52 53  1  0  0  0  0
 53 51  1  6  0  0  0
 53 56  1  0  0  0  0
 54 56  1  0  0  0  0
 55 54  1  0  0  0  0
 56 50  1  1  0  0  0
 58 60  1  0  0  0  0
 58 59  1  0  0  0  0
 59 64  1  0  0  0  0
 60 59  1  0  0  0  0
 60 57  1  0  0  0  0
 61 58  1  0  0  0  0
 62 60  1  0  0  0  0
 63 61  2  0  0  0  0
 65 59  1  0  0  0  0
M  END
>  <MODEL>
6

>  <REMARK>
 VINA RESULT:      -5.6      2.623      5.838
  Name = 
  22 active torsions:
  status: ('A' for Active; 'I' for Inactive)
    1  A    between atoms: C_2  and  C_36
    2  A    between atoms: C_8  and  C_9
    3  A    between atoms: C_10  and  O_32
    4  A    between atoms: C_11  and  C_27
    5  A    between atoms: C_11  and  C_48
    6  A    between atoms: C_12  and  C_33
    7  A    between atoms: C_12  and  C_50
    8  A    between atoms: C_14  and  C_43
    9  A    between atoms: C_14  and  C_52
   10  A    between atoms: C_18  and  C_21
   11  A    between atoms: C_18  and  N_54
   12  A    between atoms: N_20  and  C_29
   13  A    between atoms: C_21  and  C_50
   14  A    between atoms: C_21  and  C_52
   15  A    between atoms: C_27  and  C_62
   16  A    between atoms: C_29  and  N_58
   17  A    between atoms: O_32  and  C_40
   18  A    between atoms: C_33  and  N_58
   19  A    between atoms: N_39  and  C_48
   20  A    between atoms: C_42  and  N_54
   21  A    between atoms: C_46  and  C_57
   22  A    between atoms: C_57  and  C_60
                            x       y       z     vdW  Elec       q    Type
                         _______ _______ _______ _____ _____    ______ ____

>  <TORSDO>
F 22

$$$$
=
 OpenBabel10222421333D

 65 72  0  0  1  0  0  0  0  0999 V2000
  190.7960  176.2580  139.4360 C   0  0  2  0  0  3  0  0  0  0  0  0
  189.6610  176.0570  138.4390 C   0  0  0  0  0  2  0  0  0  0  0  0
  189.4360  177.3150  137.6180 C   0  0  0  0  0  2  0  0  0  0  0  0
  188.7200  176.9590  136.3300 C   0  0  0  0  0  2  0  0  0  0  0  0
  187.5090  176.2100  136.6320 N   0  0  0  0  0  2  0  0  0  0  0  0
  186.4690  176.5910  135.6860 C   0  0  1  0  0  0  0  0  0  0  0  0
  186.4980  178.0360  135.4410 N   0  0  0  0  0  2  0  0  0  0  0  0
  186.8320  177.0840  134.3650 C   0  0  0  0  0  2  0  0  0  0  0  0
  185.1030  176.1400  135.9490 N   0  0  0  0  0  0  0  0  0  0  0  0
  184.7520  174.9130  136.1950 C   0  0  0  0  0  0  0  0  0  0  0  0
  182.5950  174.8560  137.6240 N   0  0  0  0  0  0  0  0  0  0  0  0
  182.5170  174.0360  135.5600 C   0  0  0  0  0  3  0  0  0  0  0  0
  183.0400  175.6460  138.7590 C   0  0  0  0  0  1  0  0  0  0  0  0
  181.2730  173.9490  136.1720 O   0  0  0  0  0  0  0  0  0  0  0  0
  183.3280  174.5970  136.4340 C   0  0  0  0  0  0  0  0  0  0  0  0
  181.2590  174.4680  137.4550 N   0  0  0  0  0  2  0  0  0  0  0  0
  185.6600  173.0370  137.4220 N   0  0  0  0  0  1  0  0  0  0  0  0
  185.7620  173.8020  136.1920 C   0  0  0  0  0  2  0  0  0  0  0  0
  190.3730  177.2810  140.4800 C   0  0  0  0  0  2  0  0  0  0  0  0
  189.5090  176.6230  141.5460 C   0  0  0  0  0  2  0  0  0  0  0  0
  187.3680  176.9610  142.6850 C   0  0  0  0  0  0  0  0  0  0  0  0
  185.5570  178.7310  140.8860 C   0  0  0  0  0  0  0  0  0  0  0  0
  187.7000  175.8760  143.4370 F   0  0  0  0  0  0  0  0  0  0  0  0
  185.2230  178.0870  141.9990 C   0  0  0  0  0  3  0  0  0  0  0  0
  186.9170  179.1800  140.5700 C   0  0  0  0  0  3  0  0  0  0  0  0
  186.1490  177.6500  142.9970 N   0  0  0  0  0  0  0  0  0  0  0  0
  188.2340  177.3840  141.7510 C   0  0  0  0  0  0  0  0  0  0  0  0
  188.0590  178.6040  140.9420 C   0  0  0  0  0  3  0  0  0  0  0  0
  184.5020  179.1430  140.0040 C   0  0  0  0  0  0  0  0  0  0  0  0
  183.6170  179.4860  139.2590 C   0  0  0  0  0  0  0  0  0  0  0  0
  182.6170  179.8760  138.4110 O   0  0  0  0  0  0  0  0  0  0  0  0
  181.6360  178.9530  137.9630 C   0  0  0  0  0  2  0  0  0  0  0  0
  182.0390  178.3520  136.6270 C   0  0  0  0  0  1  0  0  0  0  0  0
  185.6270  177.5400  144.3490 C   0  0  0  0  0  2  0  0  0  0  0  0
  186.1800  178.6780  145.2020 C   0  0  0  0  0  2  0  0  0  0  0  0
  186.8240  177.4080  147.4040 C   0  0  0  0  0  2  0  0  0  0  0  0
  187.1650  178.8840  147.5920 C   0  0  0  0  0  2  0  0  0  0  0  0
  187.2460  178.2540  146.2200 C   0  0  0  0  0  0  0  0  0  0  0  0
  190.4220  178.1780  144.5300 N   0  0  0  0  0  0  0  0  0  0  0  0
  189.5690  177.2990  146.3830 N   0  0  0  0  0  0  0  0  0  0  0  0
  189.4970  176.5300  147.6190 C   0  0  0  0  0  2  0  0  0  0  0  0
  191.9590  176.7980  146.0010 C   0  0  0  0  0  2  0  0  0  0  0  0
  193.0320  175.3600  147.5090 C   0  0  0  0  0  1  0  0  0  0  0  0
  190.6480  177.3950  145.6000 C   0  0  0  0  0  0  0  0  0  0  0  0
  189.1510  178.5650  144.6110 N   0  0  0  0  0  0  0  0  0  0  0  0
  190.9210  176.1990  148.0900 C   0  0  0  0  0  2  0  0  0  0  0  0
  191.7340  175.7120  146.9650 N   0  0  0  0  0  0  0  0  0  0  0  0
  188.6370  178.0120  145.7290 C   0  0  0  0  0  0  0  0  0  0  0  0
  192.0380  176.7730  138.7260 C   0  0  0  0  0  2  0  0  0  0  0  0
  192.7440  175.6770  138.0820 N   0  0  0  0  0  2  0  0  0  0  0  0
  194.3010  177.2470  135.4060 O   0  0  0  0  0  1  0  0  0  0  0  0
  194.5360  174.8750  135.2870 C   0  0  2  0  0  3  0  0  0  0  0  0
  194.1750  176.0770  136.1540 C   0  0  2  0  0  3  0  0  0  0  0  0
  192.0740  174.8040  135.9230 C   0  0  0  0  0  2  0  0  0  0  0  0
  193.3370  173.5480  135.6150 S   0  0  0  0  0  0  0  0  0  0  0  0
  192.7430  175.9500  136.6540 C   0  0  1  0  0  3  0  0  0  0  0  0
  197.8930  172.1750  137.4910 C   0  0  0  0  0  1  0  0  0  0  0  0
  196.4100  174.0630  136.8210 N   0  0  0  0  0  0  0  0  0  0  0  0
  196.2410  173.8790  138.2960 C   0  0  0  0  0  0  0  0  0  0  0  0
  197.4890  173.6140  137.7610 C   0  0  0  0  0  0  0  0  0  0  0  0
  195.9480  174.4050  135.5160 C   0  0  0  0  0  0  0  0  0  0  0  0
  198.5870  174.6570  137.8820 C   0  0  0  0  0  1  0  0  0  0  0  0
  196.7650  174.3910  134.5580 O   0  0  0  0  0  0  0  0  0  0  0  0
  195.3790  172.8220  138.5970 O   0  0  0  0  0  1  0  0  0  0  0  0
  196.0100  175.0900  138.9510 O   0  0  0  0  0  1  0  0  0  0  0  0
  1  2  1  6  0  0  0
  1 19  1  0  0  0  0
  3  2  1  0  0  0  0
  4  5  1  0  0  0  0
  4  3  1  0  0  0  0
  6  9  1  1  0  0  0
  6  5  1  0  0  0  0
  7  6  1  0  0  0  0
  8  7  1  0  0  0  0
  8  6  1  0  0  0  0
  9 10  2  0  0  0  0
 10 15  1  0  0  0  0
 11 13  1  0  0  0  0
 12 14  1  0  0  0  0
 12 15  2  0  0  0  0
 14 16  1  0  0  0  0
 15 11  1  0  0  0  0
 16 11  1  0  0  0  0
 18 10  1  0  0  0  0
 18 17  1  0  0  0  0
 19 20  1  0  0  0  0
 20 27  1  0  0  0  0
 21 26  1  0  0  0  0
 21 23  1  0  0  0  0
 22 24  2  0  0  0  0
 24 26  1  0  0  0  0
 25 22  1  0  0  0  0
 25 28  2  0  0  0  0
 26 34  1  0  0  0  0
 27 21  2  0  0  0  0
 28 27  1  0  0  0  0
 29 22  1  0  0  0  0
 30 29  3  0  0  0  0
 31 30  1  0  0  0  0
 32 31  1  0  0  0  0
 33 32  1  0  0  0  0
 34 35  1  0  0  0  0
 35 38  1  0  0  0  0
 36 37  1  0  0  0  0
 38 36  1  0  0  0  0
 38 37  1  0  0  0  0
 39 45  1  0  0  0  0
 39 44  2  0  0  0  0
 40 41  1  0  0  0  0
 41 46  1  0  0  0  0
 42 47  1  0  0  0  0
 44 42  1  0  0  0  0
 44 40  1  0  0  0  0
 45 48  2  0  0  0  0
 47 43  1  0  0  0  0
 47 46  1  0  0  0  0
 48 38  1  0  0  0  0
 48 40  1  0  0  0  0
 49  1  1  0  0  0  0
 50 49  1  0  0  0  0
 52 61  1  1  0  0  0
 52 55  1  0  0  0  0
 52 53  1  0  0  0  0
 53 51  1  6  0  0  0
 53 56  1  0  0  0  0
 54 56  1  0  0  0  0
 55 54  1  0  0  0  0
 56 50  1  1  0  0  0
 57 60  1  0  0  0  0
 58 60  1  0  0  0  0
 58 59  1  0  0  0  0
 59 64  1  0  0  0  0
 59 65  1  0  0  0  0
 60 62  1  0  0  0  0
 60 59  1  0  0  0  0
 61 58  1  0  0  0  0
 63 61  2  0  0  0  0
M  END
>  <MODEL>
7

>  <REMARK>
 VINA RESULT:      -5.5      2.464      6.061
  Name = 
  22 active torsions:
  status: ('A' for Active; 'I' for Inactive)
    1  A    between atoms: C_2  and  C_36
    2  A    between atoms: C_8  and  C_9
    3  A    between atoms: C_10  and  O_32
    4  A    between atoms: C_11  and  C_27
    5  A    between atoms: C_11  and  C_48
    6  A    between atoms: C_12  and  C_33
    7  A    between atoms: C_12  and  C_50
    8  A    between atoms: C_14  and  C_43
    9  A    between atoms: C_14  and  C_52
   10  A    between atoms: C_18  and  C_21
   11  A    between atoms: C_18  and  N_54
   12  A    between atoms: N_20  and  C_29
   13  A    between atoms: C_21  and  C_50
   14  A    between atoms: C_21  and  C_52
   15  A    between atoms: C_27  and  C_62
   16  A    between atoms: C_29  and  N_58
   17  A    between atoms: O_32  and  C_40
   18  A    between atoms: C_33  and  N_58
   19  A    between atoms: N_39  and  C_48
   20  A    between atoms: C_42  and  N_54
   21  A    between atoms: C_46  and  C_57
   22  A    between atoms: C_57  and  C_60
                            x       y       z     vdW  Elec       q    Type
                         _______ _______ _______ _____ _____    ______ ____

>  <TORSDO>
F 22

$$$$
=
 OpenBabel10222421333D

 65 72  0  0  1  0  0  0  0  0999 V2000
  190.0380  177.7650  138.4360 C   0  0  2  0  0  3  0  0  0  0  0  0
  189.4800  176.6070  139.2560 C   0  0  0  0  0  2  0  0  0  0  0  0
  190.4910  176.1460  140.2920 C   0  0  0  0  0  2  0  0  0  0  0  0
  190.6970  177.2390  141.3220 C   0  0  0  0  0  2  0  0  0  0  0  0
  190.3180  176.7480  142.6400 N   0  0  0  0  0  2  0  0  0  0  0  0
  190.2430  177.8750  143.5610 C   0  0  1  0  0  0  0  0  0  0  0  0
  191.4750  177.9790  144.3490 N   0  0  0  0  0  2  0  0  0  0  0  0
  191.1150  179.0260  143.3750 C   0  0  0  0  0  2  0  0  0  0  0  0
  189.0680  177.9790  144.4240 N   0  0  0  0  0  0  0  0  0  0  0  0
  187.8350  177.8440  144.0330 C   0  0  0  0  0  0  0  0  0  0  0  0
  186.8290  177.7570  146.4150 N   0  0  0  0  0  0  0  0  0  0  0  0
  185.5100  178.3640  144.7330 C   0  0  0  0  0  3  0  0  0  0  0  0
  188.0430  177.5280  147.1800 C   0  0  0  0  0  1  0  0  0  0  0  0
  184.8180  178.3950  145.9380 O   0  0  0  0  0  0  0  0  0  0  0  0
  186.7400  177.9850  145.0160 C   0  0  0  0  0  0  0  0  0  0  0  0
  185.6010  178.0470  147.0250 N   0  0  0  0  0  2  0  0  0  0  0  0
  187.0250  178.8240  141.9750 N   0  0  0  0  0  1  0  0  0  0  0  0
  187.5020  177.5970  142.5890 C   0  0  0  0  0  2  0  0  0  0  0  0
  188.9920  178.8670  138.3460 C   0  0  0  0  0  2  0  0  0  0  0  0
  188.1930  178.7350  137.0580 C   0  0  0  0  0  2  0  0  0  0  0  0
  186.2140  177.4680  136.3710 C   0  0  0  0  0  0  0  0  0  0  0  0
  183.8240  178.3150  138.1650 C   0  0  0  0  0  0  0  0  0  0  0  0
  186.8770  177.2370  135.2050 F   0  0  0  0  0  0  0  0  0  0  0  0
  183.7990  177.5470  137.0810 C   0  0  0  0  0  3  0  0  0  0  0  0
  184.9940  178.4770  139.0340 C   0  0  0  0  0  3  0  0  0  0  0  0
  184.9300  176.8530  136.5490 N   0  0  0  0  0  0  0  0  0  0  0  0
  186.8250  178.1850  137.3270 C   0  0  0  0  0  0  0  0  0  0  0  0
  186.2750  178.4200  138.6740 C   0  0  0  0  0  3  0  0  0  0  0  0
  182.5900  178.9080  138.5980 C   0  0  0  0  0  0  0  0  0  0  0  0
  181.5540  179.4110  138.9590 C   0  0  0  0  0  0  0  0  0  0  0  0
  180.3830  179.9860  139.3700 O   0  0  0  0  0  0  0  0  0  0  0  0
  179.9850  181.2600  138.8870 C   0  0  0  0  0  2  0  0  0  0  0  0
  180.3350  181.4070  137.4160 C   0  0  0  0  0  1  0  0  0  0  0  0
  184.6410  175.6420  135.7990 C   0  0  0  0  0  2  0  0  0  0  0  0
  184.4220  174.4830  136.7670 C   0  0  0  0  0  2  0  0  0  0  0  0
  181.9710  174.3250  135.8490 C   0  0  0  0  0  2  0  0  0  0  0  0
  181.9460  173.9580  137.3300 C   0  0  0  0  0  2  0  0  0  0  0  0
  183.1650  173.6490  136.4900 C   0  0  0  0  0  0  0  0  0  0  0  0
  182.8400  170.1460  135.7380 N   0  0  0  0  0  0  0  0  0  0  0  0
  184.4780  171.6450  135.7200 N   0  0  0  0  0  0  0  0  0  0  0  0
  185.8150  172.2020  135.5490 C   0  0  0  0  0  2  0  0  0  0  0  0
  185.1240  169.3920  134.9340 C   0  0  0  0  0  2  0  0  0  0  0  0
  187.3760  169.0210  134.4010 C   0  0  0  0  0  1  0  0  0  0  0  0
  184.1450  170.3690  135.5050 C   0  0  0  0  0  0  0  0  0  0  0  0
  182.3290  171.3040  136.1480 N   0  0  0  0  0  0  0  0  0  0  0  0
  186.6620  171.2330  134.7120 C   0  0  0  0  0  2  0  0  0  0  0  0
  186.4940  169.8540  135.1970 N   0  0  0  0  0  0  0  0  0  0  0  0
  183.3360  172.2040  136.1520 C   0  0  0  0  0  0  0  0  0  0  0  0
  190.3770  177.3010  137.0280 C   0  0  0  0  0  2  0  0  0  0  0  0
  190.2210  175.8590  136.9190 N   0  0  0  0  0  2  0  0  0  0  0  0
  192.6660  175.8880  134.4550 O   0  0  0  0  0  1  0  0  0  0  0  0
  192.3060  173.6870  135.3060 C   0  0  2  0  0  3  0  0  0  0  0  0
  192.0870  175.1840  135.5090 C   0  0  2  0  0  3  0  0  0  0  0  0
  189.8310  174.2520  135.1480 C   0  0  0  0  0  2  0  0  0  0  0  0
  190.7660  172.8180  135.7270 S   0  0  0  0  0  0  0  0  0  0  0  0
  190.5970  175.4900  135.5640 C   0  0  1  0  0  3  0  0  0  0  0  0
  196.2690  174.2130  138.0330 C   0  0  0  0  0  1  0  0  0  0  0  0
  194.7250  173.8360  136.1120 N   0  0  0  0  0  0  0  0  0  0  0  0
  195.6570  174.9350  135.7120 C   0  0  0  0  0  0  0  0  0  0  0  0
  196.1580  173.9480  136.5410 C   0  0  0  0  0  0  0  0  0  0  0  0
  193.4670  173.1630  136.1070 C   0  0  0  0  0  0  0  0  0  0  0  0
  197.0030  172.8340  135.9460 C   0  0  0  0  0  1  0  0  0  0  0  0
  193.3610  172.0670  136.7190 O   0  0  0  0  0  0  0  0  0  0  0  0
  195.2800  176.1660  136.2530 O   0  0  0  0  0  1  0  0  0  0  0  0
  195.9440  174.9050  134.3460 O   0  0  0  0  0  1  0  0  0  0  0  0
  1 49  1  6  0  0  0
  1  2  1  0  0  0  0
  2  3  1  0  0  0  0
  3  4  1  0  0  0  0
  4  5  1  0  0  0  0
  6  5  1  6  0  0  0
  6  7  1  0  0  0  0
  6  9  1  0  0  0  0
  8  6  1  0  0  0  0
  8  7  1  0  0  0  0
 10  9  2  0  0  0  0
 10 15  1  0  0  0  0
 11 16  1  0  0  0  0
 11 13  1  0  0  0  0
 12 15  2  0  0  0  0
 12 14  1  0  0  0  0
 14 16  1  0  0  0  0
 15 11  1  0  0  0  0
 17 18  1  0  0  0  0
 18 10  1  0  0  0  0
 19  1  1  0  0  0  0
 20 27  1  0  0  0  0
 20 19  1  0  0  0  0
 21 26  1  0  0  0  0
 21 27  2  0  0  0  0
 22 29  1  0  0  0  0
 22 25  1  0  0  0  0
 23 21  1  0  0  0  0
 24 22  2  0  0  0  0
 26 24  1  0  0  0  0
 27 28  1  0  0  0  0
 28 25  2  0  0  0  0
 29 30  3  0  0  0  0
 30 31  1  0  0  0  0
 32 31  1  0  0  0  0
 33 32  1  0  0  0  0
 34 26  1  0  0  0  0
 34 35  1  0  0  0  0
 36 38  1  0  0  0  0
 36 37  1  0  0  0  0
 38 35  1  0  0  0  0
 38 37  1  0  0  0  0
 39 45  1  0  0  0  0
 40 48  1  0  0  0  0
 41 40  1  0  0  0  0
 42 47  1  0  0  0  0
 42 44  1  0  0  0  0
 43 47  1  0  0  0  0
 44 40  1  0  0  0  0
 44 39  2  0  0  0  0
 45 48  2  0  0  0  0
 46 47  1  0  0  0  0
 46 41  1  0  0  0  0
 48 38  1  0  0  0  0
 50 49  1  0  0  0  0
 52 53  1  0  0  0  0
 52 55  1  0  0  0  0
 52 61  1  1  0  0  0
 53 51  1  6  0  0  0
 53 56  1  0  0  0  0
 54 56  1  0  0  0  0
 54 55  1  0  0  0  0
 56 50  1  1  0  0  0
 58 60  1  0  0  0  0
 59 58  1  0  0  0  0
 59 64  1  0  0  0  0
 59 60  1  0  0  0  0
 60 57  1  0  0  0  0
 61 58  1  0  0  0  0
 61 63  2  0  0  0  0
 62 60  1  0  0  0  0
 65 59  1  0  0  0  0
M  END
>  <MODEL>
8

>  <REMARK>
 VINA RESULT:      -5.4      2.694      8.151
  Name = 
  22 active torsions:
  status: ('A' for Active; 'I' for Inactive)
    1  A    between atoms: C_2  and  C_36
    2  A    between atoms: C_8  and  C_9
    3  A    between atoms: C_10  and  O_32
    4  A    between atoms: C_11  and  C_27
    5  A    between atoms: C_11  and  C_48
    6  A    between atoms: C_12  and  C_33
    7  A    between atoms: C_12  and  C_50
    8  A    between atoms: C_14  and  C_43
    9  A    between atoms: C_14  and  C_52
   10  A    between atoms: C_18  and  C_21
   11  A    between atoms: C_18  and  N_54
   12  A    between atoms: N_20  and  C_29
   13  A    between atoms: C_21  and  C_50
   14  A    between atoms: C_21  and  C_52
   15  A    between atoms: C_27  and  C_62
   16  A    between atoms: C_29  and  N_58
   17  A    between atoms: O_32  and  C_40
   18  A    between atoms: C_33  and  N_58
   19  A    between atoms: N_39  and  C_48
   20  A    between atoms: C_42  and  N_54
   21  A    between atoms: C_46  and  C_57
   22  A    between atoms: C_57  and  C_60
                            x       y       z     vdW  Elec       q    Type
                         _______ _______ _______ _____ _____    ______ ____

>  <TORSDO>
F 22

$$$$
=
 OpenBabel10222421333D

 65 72  0  0  1  0  0  0  0  0999 V2000
  190.0540  176.9110  139.6040 C   0  0  2  0  0  3  0  0  0  0  0  0
  190.6840  176.8180  138.2200 C   0  0  0  0  0  2  0  0  0  0  0  0
  190.6570  175.3860  137.7120 C   0  0  0  0  0  2  0  0  0  0  0  0
  191.2180  175.3360  136.3040 C   0  0  0  0  0  2  0  0  0  0  0  0
  192.3740  174.4510  136.2680 N   0  0  0  0  0  2  0  0  0  0  0  0
  193.5720  175.2470  136.0310 C   0  0  1  0  0  0  0  0  0  0  0  0
  194.2470  174.8080  134.8060 N   0  0  0  0  0  2  0  0  0  0  0  0
  193.6330  176.1470  134.8890 C   0  0  0  0  0  2  0  0  0  0  0  0
  194.5300  175.3870  137.1260 N   0  0  0  0  0  0  0  0  0  0  0  0
  195.2010  174.4140  137.6650 C   0  0  0  0  0  0  0  0  0  0  0  0
  197.5520  174.6410  138.7240 N   0  0  0  0  0  0  0  0  0  0  0  0
  195.7770  175.0710  139.9900 C   0  0  0  0  0  3  0  0  0  0  0  0
  198.3670  174.4790  137.5330 C   0  0  0  0  0  1  0  0  0  0  0  0
  196.9520  175.2650  140.7070 O   0  0  0  0  0  0  0  0  0  0  0  0
  196.1330  174.6990  138.7770 C   0  0  0  0  0  0  0  0  0  0  0  0
  198.0920  175.0330  139.9570 N   0  0  0  0  0  2  0  0  0  0  0  0
  195.4520  172.0800  138.2500 N   0  0  0  0  0  1  0  0  0  0  0  0
  195.0100  172.9950  137.2120 C   0  0  0  0  0  2  0  0  0  0  0  0
  188.6930  177.5820  139.4930 C   0  0  0  0  0  2  0  0  0  0  0  0
  188.4700  178.0970  138.0800 C   0  0  0  0  0  2  0  0  0  0  0  0
  186.0660  177.6380  138.1300 C   0  0  0  0  0  0  0  0  0  0  0  0
  185.4740  175.2470  136.2380 C   0  0  0  0  0  0  0  0  0  0  0  0
  186.0490  178.3400  139.2970 F   0  0  0  0  0  0  0  0  0  0  0  0
  184.6450  175.8380  137.0920 C   0  0  0  0  0  3  0  0  0  0  0  0
  186.6330  175.9050  135.6250 C   0  0  0  0  0  3  0  0  0  0  0  0
  184.8170  177.1580  137.6130 N   0  0  0  0  0  0  0  0  0  0  0  0
  187.2320  177.5050  137.4790 C   0  0  0  0  0  0  0  0  0  0  0  0
  187.3810  176.8700  136.1570 C   0  0  0  0  0  3  0  0  0  0  0  0
  185.1360  173.9320  135.7720 C   0  0  0  0  0  0  0  0  0  0  0  0
  184.8480  172.8280  135.3790 C   0  0  0  0  0  0  0  0  0  0  0  0
  184.5170  171.5770  134.9380 O   0  0  0  0  0  0  0  0  0  0  0  0
  183.9010  170.6350  135.8040 C   0  0  0  0  0  2  0  0  0  0  0  0
  182.4520  171.0130  136.0600 C   0  0  0  0  0  1  0  0  0  0  0  0
  183.6020  177.8560  138.0010 C   0  0  0  0  0  2  0  0  0  0  0  0
  182.7240  178.0700  136.7720 C   0  0  0  0  0  2  0  0  0  0  0  0
  180.3110  177.4210  137.5640 C   0  0  0  0  0  2  0  0  0  0  0  0
  180.2100  177.9690  136.1430 C   0  0  0  0  0  2  0  0  0  0  0  0
  181.2800  178.4810  137.0820 C   0  0  0  0  0  0  0  0  0  0  0  0
  180.8720  181.4930  139.0070 N   0  0  0  0  0  0  0  0  0  0  0  0
  180.8380  180.9480  136.8550 N   0  0  0  0  0  0  0  0  0  0  0  0
  180.7220  181.1060  135.4100 C   0  0  0  0  0  2  0  0  0  0  0  0
  180.5510  183.3590  137.3200 C   0  0  0  0  0  2  0  0  0  0  0  0
  180.1320  184.7830  135.5060 C   0  0  0  0  0  1  0  0  0  0  0  0
  180.7100  181.9340  137.7470 C   0  0  0  0  0  0  0  0  0  0  0  0
  181.0740  180.1810  138.9220 N   0  0  0  0  0  0  0  0  0  0  0  0
  180.8450  182.5950  135.0540 C   0  0  0  0  0  2  0  0  0  0  0  0
  180.0110  183.4070  135.9540 N   0  0  0  0  0  0  0  0  0  0  0  0
  181.0330  179.8560  137.6120 C   0  0  0  0  0  0  0  0  0  0  0  0
  190.9310  177.7400  140.5300 C   0  0  0  0  0  2  0  0  0  0  0  0
  191.8050  176.8760  141.3070 N   0  0  0  0  0  2  0  0  0  0  0  0
  191.2260  179.4870  143.5200 O   0  0  0  0  0  1  0  0  0  0  0  0
  189.4400  177.9040  143.5460 C   0  0  2  0  0  3  0  0  0  0  0  0
  190.6760  178.4180  142.8140 C   0  0  2  0  0  3  0  0  0  0  0  0
  191.2740  176.1420  143.5540 C   0  0  0  0  0  2  0  0  0  0  0  0
  189.4680  176.0860  143.5170 S   0  0  0  0  0  0  0  0  0  0  0  0
  191.7100  177.3080  142.6920 C   0  0  1  0  0  3  0  0  0  0  0  0
  185.1280  180.0810  143.8420 C   0  0  0  0  0  1  0  0  0  0  0  0
  186.9320  178.3670  143.6830 N   0  0  0  0  0  0  0  0  0  0  0  0
  186.0950  178.0090  144.8690 C   0  0  0  0  0  0  0  0  0  0  0  0
  185.4540  178.5980  143.7940 C   0  0  0  0  0  0  0  0  0  0  0  0
  188.1610  178.4410  142.9620 C   0  0  0  0  0  0  0  0  0  0  0  0
  184.6830  177.7250  142.8180 C   0  0  0  0  0  1  0  0  0  0  0  0
  188.1510  178.8880  141.7850 O   0  0  0  0  0  0  0  0  0  0  0  0
  186.4160  178.7790  145.9890 O   0  0  0  0  0  1  0  0  0  0  0  0
  186.0140  176.6270  145.0530 O   0  0  0  0  0  1  0  0  0  0  0  0
  1  2  1  6  0  0  0
  1 49  1  0  0  0  0
  3  2  1  0  0  0  0
  4  3  1  0  0  0  0
  5  4  1  0  0  0  0
  6  5  1  1  0  0  0
  6  9  1  0  0  0  0
  7  8  1  0  0  0  0
  7  6  1  0  0  0  0
  8  6  1  0  0  0  0
  9 10  2  0  0  0  0
 10 15  1  0  0  0  0
 11 15  1  0  0  0  0
 11 16  1  0  0  0  0
 12 14  1  0  0  0  0
 13 11  1  0  0  0  0
 15 12  2  0  0  0  0
 16 14  1  0  0  0  0
 18 10  1  0  0  0  0
 18 17  1  0  0  0  0
 19  1  1  0  0  0  0
 20 19  1  0  0  0  0
 21 23  1  0  0  0  0
 22 24  2  0  0  0  0
 24 26  1  0  0  0  0
 25 28  2  0  0  0  0
 25 22  1  0  0  0  0
 26 34  1  0  0  0  0
 26 21  1  0  0  0  0
 27 20  1  0  0  0  0
 27 21  2  0  0  0  0
 28 27  1  0  0  0  0
 29 22  1  0  0  0  0
 30 29  3  0  0  0  0
 31 30  1  0  0  0  0
 31 32  1  0  0  0  0
 32 33  1  0  0  0  0
 35 38  1  0  0  0  0
 35 34  1  0  0  0  0
 37 38  1  0  0  0  0
 37 36  1  0  0  0  0
 38 36  1  0  0  0  0
 38 48  1  0  0  0  0
 40 48  1  0  0  0  0
 40 44  1  0  0  0  0
 41 40  1  0  0  0  0
 42 44  1  0  0  0  0
 43 47  1  0  0  0  0
 44 39  2  0  0  0  0
 45 39  1  0  0  0  0
 46 41  1  0  0  0  0
 46 47  1  0  0  0  0
 47 42  1  0  0  0  0
 48 45  2  0  0  0  0
 49 50  1  0  0  0  0
 52 61  1  6  0  0  0
 53 51  1  1  0  0  0
 53 52  1  0  0  0  0
 55 52  1  0  0  0  0
 55 54  1  0  0  0  0
 56 50  1  6  0  0  0
 56 53  1  0  0  0  0
 56 54  1  0  0  0  0
 58 60  1  0  0  0  0
 58 59  1  0  0  0  0
 59 65  1  0  0  0  0
 59 64  1  0  0  0  0
 60 57  1  0  0  0  0
 60 59  1  0  0  0  0
 61 58  1  0  0  0  0
 62 60  1  0  0  0  0
 63 61  2  0  0  0  0
M  END
>  <MODEL>
9

>  <REMARK>
 VINA RESULT:      -5.3      3.038     10.228
  Name = 
  22 active torsions:
  status: ('A' for Active; 'I' for Inactive)
    1  A    between atoms: C_2  and  C_36
    2  A    between atoms: C_8  and  C_9
    3  A    between atoms: C_10  and  O_32
    4  A    between atoms: C_11  and  C_27
    5  A    between atoms: C_11  and  C_48
    6  A    between atoms: C_12  and  C_33
    7  A    between atoms: C_12  and  C_50
    8  A    between atoms: C_14  and  C_43
    9  A    between atoms: C_14  and  C_52
   10  A    between atoms: C_18  and  C_21
   11  A    between atoms: C_18  and  N_54
   12  A    between atoms: N_20  and  C_29
   13  A    between atoms: C_21  and  C_50
   14  A    between atoms: C_21  and  C_52
   15  A    between atoms: C_27  and  C_62
   16  A    between atoms: C_29  and  N_58
   17  A    between atoms: O_32  and  C_40
   18  A    between atoms: C_33  and  N_58
   19  A    between atoms: N_39  and  C_48
   20  A    between atoms: C_42  and  N_54
   21  A    between atoms: C_46  and  C_57
   22  A    between atoms: C_57  and  C_60
                            x       y       z     vdW  Elec       q    Type
                         _______ _______ _______ _____ _____    ______ ____

>  <TORSDO>
F 22

$$$$
