=
 OpenBabel10232410393D

 48 52  0  0  1  0  0  0  0  0999 V2000
  188.1090  178.5930  141.3720 F   0  0  0  0  0  0  0  0  0  0  0  0
  181.1930  178.6490  140.5710 C   0  0  0  0  0  3  0  0  0  0  0  0
  187.6210  178.3850  140.1230 C   0  0  0  0  0  0  0  0  0  0  0  0
  188.4930  178.1160  139.0570 C   0  0  0  0  0  0  0  0  0  0  0  0
  181.9940  178.4680  139.4420 C   0  0  0  0  0  0  0  0  0  0  0  0
  186.6000  177.9510  137.5530 C   0  0  0  0  0  2  0  0  0  0  0  0
  186.2390  178.4220  139.9040 C   0  0  0  0  0  0  0  0  0  0  0  0
  185.3770  178.6620  140.9740 O   0  0  0  0  0  0  0  0  0  0  0  0
  181.7720  178.8380  141.8240 C   0  0  0  0  0  3  0  0  0  0  0  0
  185.7260  178.2040  138.6150 C   0  0  0  0  0  0  0  0  0  0  0  0
  183.9850  178.6540  140.8440 C   0  0  0  0  0  0  0  0  0  0  0  0
  183.1600  178.8370  141.9800 C   0  0  0  0  0  0  0  0  0  0  0  0
  187.9800  177.9050  137.7730 C   0  0  0  0  0  3  0  0  0  0  0  0
  183.3980  178.4640  139.5730 C   0  0  0  0  0  0  0  0  0  0  0  0
  184.2530  178.2440  138.3490 C   0  0  0  0  0  3  0  0  0  0  0  0
  180.6280  179.1200  135.9900 O   0  0  0  0  0  0  0  0  0  0  0  0
  181.1950  179.3490  137.2400 C   0  0  0  0  0  0  0  0  0  0  0  0
  181.3660  178.2670  138.1690 N   0  0  0  0  0  0  0  0  0  0  0  0
  181.5490  180.5190  137.5510 O   0  0  0  0  0  1  0  0  0  0  0  0
  180.9070  176.9290  137.8230 C   0  0  0  0  0  2  0  0  0  0  0  0
  181.6040  176.4520  136.5510 C   0  0  0  0  0  2  0  0  0  0  0  0
  184.2680  173.8420  137.6420 C   0  0  0  0  0  2  0  0  0  0  0  0
  182.8960  174.3910  137.2270 C   0  0  0  0  0  2  0  0  0  0  0  0
  182.9840  175.8690  136.8330 C   0  0  0  0  0  3  0  0  0  0  0  0
  185.4460  174.5190  136.9280 C   0  0  0  0  0  2  0  0  0  0  0  0
  183.9510  176.1050  135.6600 C   0  0  0  0  0  2  0  0  0  0  0  0
  185.0430  175.0340  135.5490 C   0  0  0  0  0  2  0  0  0  0  0  0
  183.6590  179.0280  143.2790 O   0  0  0  0  0  0  0  0  0  0  0  0
  183.7750  178.8170  145.6770 C   0  0  0  0  0  1  0  0  0  0  0  0
  182.8780  179.0040  144.4670 C   0  0  0  0  0  2  0  0  0  0  0  0
  189.9680  178.0520  139.2770 C   0  0  0  0  0  2  0  0  0  0  0  0
  190.8150  175.8490  138.8620 O   0  0  0  0  0  1  0  0  0  0  0  0
  190.3750  176.7060  139.8740 C   0  0  1  0  0  3  0  0  0  0  0  0
  192.6400  177.5250  140.3650 N   0  0  0  0  0  1  0  0  0  0  0  0
  191.4720  176.8650  140.9300 C   0  0  1  0  0  3  0  0  0  0  0  0
  190.9830  177.6560  142.1320 C   0  0  0  0  0  2  0  0  0  0  0  0
  190.6670  176.7450  143.3160 C   0  0  1  0  0  3  0  0  0  0  0  0
  189.8930  177.4910  144.4110 C   0  0  2  0  0  3  0  0  0  0  0  0
  190.0540  178.8780  144.3100 O   0  0  0  0  0  1  0  0  0  0  0  0
  190.2250  176.9870  145.8210 C   0  0  1  0  0  3  0  0  0  0  0  0
  191.7290  176.8300  146.0340 C   0  0  0  0  0  2  0  0  0  0  0  0
  192.0610  175.7730  147.4790 S   0  0  0  0  0  1  0  0  0  0  0  0
  189.6940  177.8610  146.7750 O   0  0  0  0  0  0  0  0  0  0  0  0
  188.2520  177.8450  148.6560 C   0  0  0  0  0  2  0  0  0  0  0  0
  187.4090  178.0340  147.4120 C   0  0  0  0  0  2  0  0  0  0  0  0
  188.6450  177.1560  147.3650 C   0  0  0  0  0  3  0  0  0  0  0  0
  188.5930  175.9890  143.1140 C   0  0  0  0  0  1  0  0  0  0  0  0
  189.9270  175.6430  142.8800 O   0  0  0  0  0  0  0  0  0  0  0  0
  2  9  1  0  0  0  0
  3  1  1  0  0  0  0
  4 31  1  0  0  0  0
  4  3  1  0  0  0  0
  5 14  1  0  0  0  0
  5  2  2  0  0  0  0
  6 13  1  0  0  0  0
  6 10  1  0  0  0  0
  7  3  2  0  0  0  0
  7  8  1  0  0  0  0
  9 12  2  0  0  0  0
 10  7  1  0  0  0  0
 11  8  1  0  0  0  0
 11 12  1  0  0  0  0
 12 28  1  0  0  0  0
 13  4  2  0  0  0  0
 14 11  2  0  0  0  0
 15 10  2  0  0  0  0
 15 14  1  0  0  0  0
 16 17  2  0  0  0  0
 17 19  1  0  0  0  0
 17 18  1  0  0  0  0
 18  5  1  0  0  0  0
 20 18  1  0  0  0  0
 21 24  1  0  0  0  0
 21 20  1  0  0  0  0
 23 22  1  0  0  0  0
 24 23  1  0  0  0  0
 25 22  1  0  0  0  0
 26 24  1  0  0  0  0
 27 26  1  0  0  0  0
 27 25  1  0  0  0  0
 28 30  1  0  0  0  0
 30 29  1  0  0  0  0
 31 33  1  0  0  0  0
 33 32  1  6  0  0  0
 33 35  1  0  0  0  0
 35 34  1  6  0  0  0
 35 36  1  0  0  0  0
 37 36  1  6  0  0  0
 37 38  1  0  0  0  0
 38 39  1  1  0  0  0
 38 40  1  0  0  0  0
 40 41  1  6  0  0  0
 40 43  1  0  0  0  0
 41 42  1  0  0  0  0
 43 46  1  0  0  0  0
 45 44  1  0  0  0  0
 46 45  1  0  0  0  0
 46 44  1  0  0  0  0
 48 47  1  0  0  0  0
 48 37  1  0  0  0  0
M  END
>  <MODEL>
1

>  <REMARK>
 VINA RESULT:      -7.4      0.000      0.000
  Name = 
  17 active torsions:
  status: ('A' for Active; 'I' for Inactive)
    1  A    between atoms: C_1  and  C_6
    2  A    between atoms: C_1  and  C_22
    3  A    between atoms: C_3  and  C_22
    4  A    between atoms: C_6  and  C_9
    5  A    between atoms: C_6  and  O_48
    6  A    between atoms: C_7  and  C_26
    7  A    between atoms: O_8  and  C_22
    8  A    between atoms: O_8  and  C_41
    9  A    between atoms: C_9  and  C_45
   10  A    between atoms: C_15  and  C_18
   11  A    between atoms: C_15  and  C_47
   12  A    between atoms: O_20  and  C_24
   13  A    between atoms: O_20  and  C_39
   14  A    between atoms: C_21  and  N_34
   15  A    between atoms: C_26  and  C_44
   16  A    between atoms: N_34  and  C_44
   17  A    between atoms: C_45  and  C_47
                            x       y       z     vdW  Elec       q    Type
                         _______ _______ _______ _____ _____    ______ ____

>  <TORSDO>
F 17

$$$$
=
 OpenBabel10232410393D

 48 52  0  0  1  0  0  0  0  0999 V2000
  192.1590  177.0990  141.0510 F   0  0  0  0  0  0  0  0  0  0  0  0
  187.8840  177.7320  146.5090 C   0  0  0  0  0  3  0  0  0  0  0  0
  190.8480  177.3370  140.7970 C   0  0  0  0  0  0  0  0  0  0  0  0
  190.3820  177.3940  139.4740 C   0  0  0  0  0  0  0  0  0  0  0  0
  187.3570  177.8960  145.2270 C   0  0  0  0  0  0  0  0  0  0  0  0
  188.1390  177.8210  140.2840 C   0  0  0  0  0  2  0  0  0  0  0  0
  189.9550  177.5070  141.8610 C   0  0  0  0  0  0  0  0  0  0  0  0
  190.4200  177.4200  143.1720 O   0  0  0  0  0  0  0  0  0  0  0  0
  189.2400  177.4700  146.6880 C   0  0  0  0  0  3  0  0  0  0  0  0
  188.5950  177.7500  141.6040 C   0  0  0  0  0  0  0  0  0  0  0  0
  189.5780  177.5180  144.2840 C   0  0  0  0  0  0  0  0  0  0  0  0
  190.0980  177.3550  145.5910 C   0  0  0  0  0  0  0  0  0  0  0  0
  189.0290  177.6420  139.2210 C   0  0  0  0  0  3  0  0  0  0  0  0
  188.2020  177.7860  144.1030 C   0  0  0  0  0  0  0  0  0  0  0  0
  187.6170  177.9430  142.7210 C   0  0  0  0  0  3  0  0  0  0  0  0
  183.8680  179.1600  145.8870 O   0  0  0  0  0  0  0  0  0  0  0  0
  185.2170  178.8770  146.0770 C   0  0  0  0  0  0  0  0  0  0  0  0
  185.9550  178.1560  145.0780 N   0  0  0  0  0  0  0  0  0  0  0  0
  185.7820  179.2540  147.1390 O   0  0  0  0  0  1  0  0  0  0  0  0
  185.2830  177.6780  143.8770 C   0  0  0  0  0  2  0  0  0  0  0  0
  184.5520  178.8320  143.1960 C   0  0  0  0  0  2  0  0  0  0  0  0
  181.9250  178.1530  140.4130 C   0  0  0  0  0  2  0  0  0  0  0  0
  182.4950  178.6730  141.7400 C   0  0  0  0  0  2  0  0  0  0  0  0
  184.0060  178.4410  141.8270 C   0  0  0  0  0  3  0  0  0  0  0  0
  182.9190  178.2230  139.2460 C   0  0  0  0  0  2  0  0  0  0  0  0
  184.7720  179.1400  140.6900 C   0  0  0  0  0  2  0  0  0  0  0  0
  183.9230  179.3580  139.4310 C   0  0  0  0  0  2  0  0  0  0  0  0
  191.4490  177.0840  145.8600 O   0  0  0  0  0  0  0  0  0  0  0  0
  192.3000  175.8540  147.7500 C   0  0  0  0  0  1  0  0  0  0  0  0
  191.9650  175.8240  146.2700 C   0  0  0  0  0  2  0  0  0  0  0  0
  191.3180  177.1940  138.3270 C   0  0  0  0  0  2  0  0  0  0  0  0
  190.6680  175.2050  137.1610 O   0  0  0  0  0  1  0  0  0  0  0  0
  191.5830  175.7090  138.0890 C   0  0  1  0  0  3  0  0  0  0  0  0
  193.9760  176.1350  138.4490 N   0  0  0  0  0  1  0  0  0  0  0  0
  193.0100  175.4620  137.5950 C   0  0  1  0  0  3  0  0  0  0  0  0
  193.3360  173.9780  137.5420 C   0  0  0  0  0  2  0  0  0  0  0  0
  194.5180  173.6930  136.6170 C   0  0  1  0  0  3  0  0  0  0  0  0
  195.6740  173.0220  137.3710 C   0  0  2  0  0  3  0  0  0  0  0  0
  195.2560  172.4800  138.5920 O   0  0  0  0  0  1  0  0  0  0  0  0
  196.8820  173.9510  137.5510 C   0  0  1  0  0  3  0  0  0  0  0  0
  197.2160  174.7110  136.2690 C   0  0  0  0  0  2  0  0  0  0  0  0
  198.9520  174.4330  135.7970 S   0  0  0  0  0  1  0  0  0  0  0  0
  196.6380  174.8510  138.5930 O   0  0  0  0  0  0  0  0  0  0  0  0
  198.6290  175.3630  139.7720 C   0  0  0  0  0  2  0  0  0  0  0  0
  197.4650  175.4670  140.7370 C   0  0  0  0  0  2  0  0  0  0  0  0
  197.4520  174.4190  139.6400 C   0  0  0  0  0  3  0  0  0  0  0  0
  192.9240  172.2780  136.0080 C   0  0  0  0  0  1  0  0  0  0  0  0
  194.1050  172.8770  135.5610 O   0  0  0  0  0  0  0  0  0  0  0  0
  2  9  1  0  0  0  0
  3  1  1  0  0  0  0
  3  7  2  0  0  0  0
  4  3  1  0  0  0  0
  5  2  2  0  0  0  0
  6 10  1  0  0  0  0
  7  8  1  0  0  0  0
  8 11  1  0  0  0  0
 10  7  1  0  0  0  0
 10 15  2  0  0  0  0
 11 12  1  0  0  0  0
 12 28  1  0  0  0  0
 12  9  2  0  0  0  0
 13  4  2  0  0  0  0
 13  6  1  0  0  0  0
 14 11  2  0  0  0  0
 14  5  1  0  0  0  0
 15 14  1  0  0  0  0
 16 17  2  0  0  0  0
 17 19  1  0  0  0  0
 18  5  1  0  0  0  0
 18 17  1  0  0  0  0
 20 18  1  0  0  0  0
 21 20  1  0  0  0  0
 22 23  1  0  0  0  0
 23 24  1  0  0  0  0
 24 21  1  0  0  0  0
 25 27  1  0  0  0  0
 25 22  1  0  0  0  0
 26 24  1  0  0  0  0
 27 26  1  0  0  0  0
 28 30  1  0  0  0  0
 30 29  1  0  0  0  0
 31  4  1  0  0  0  0
 33 32  1  6  0  0  0
 33 31  1  0  0  0  0
 35 33  1  0  0  0  0
 35 34  1  1  0  0  0
 36 35  1  0  0  0  0
 37 38  1  0  0  0  0
 37 36  1  1  0  0  0
 38 40  1  0  0  0  0
 38 39  1  1  0  0  0
 40 41  1  6  0  0  0
 40 43  1  0  0  0  0
 42 41  1  0  0  0  0
 43 46  1  0  0  0  0
 44 45  1  0  0  0  0
 46 44  1  0  0  0  0
 46 45  1  0  0  0  0
 48 47  1  0  0  0  0
 48 37  1  0  0  0  0
M  END
>  <MODEL>
2

>  <REMARK>
 VINA RESULT:      -7.2      4.253      7.950
  Name = 
  17 active torsions:
  status: ('A' for Active; 'I' for Inactive)
    1  A    between atoms: C_1  and  C_6
    2  A    between atoms: C_1  and  C_22
    3  A    between atoms: C_3  and  C_22
    4  A    between atoms: C_6  and  C_9
    5  A    between atoms: C_6  and  O_48
    6  A    between atoms: C_7  and  C_26
    7  A    between atoms: O_8  and  C_22
    8  A    between atoms: O_8  and  C_41
    9  A    between atoms: C_9  and  C_45
   10  A    between atoms: C_15  and  C_18
   11  A    between atoms: C_15  and  C_47
   12  A    between atoms: O_20  and  C_24
   13  A    between atoms: O_20  and  C_39
   14  A    between atoms: C_21  and  N_34
   15  A    between atoms: C_26  and  C_44
   16  A    between atoms: N_34  and  C_44
   17  A    between atoms: C_45  and  C_47
                            x       y       z     vdW  Elec       q    Type
                         _______ _______ _______ _____ _____    ______ ____

>  <TORSDO>
F 17

$$$$
=
 OpenBabel10232410393D

 48 52  0  0  1  0  0  0  0  0999 V2000
  186.9970  178.7530  141.0520 F   0  0  0  0  0  0  0  0  0  0  0  0
  180.4050  177.9450  138.9620 C   0  0  0  0  0  3  0  0  0  0  0  0
  186.7870  178.4030  139.7580 C   0  0  0  0  0  0  0  0  0  0  0  0
  187.8750  178.1650  138.9030 C   0  0  0  0  0  0  0  0  0  0  0  0
  181.4270  177.7810  138.0250 C   0  0  0  0  0  0  0  0  0  0  0  0
  186.3430  177.6760  137.0910 C   0  0  0  0  0  2  0  0  0  0  0  0
  185.4790  178.2630  139.2800 C   0  0  0  0  0  0  0  0  0  0  0  0
  184.4040  178.4740  140.1420 O   0  0  0  0  0  0  0  0  0  0  0  0
  180.7030  178.2860  140.2790 C   0  0  0  0  0  3  0  0  0  0  0  0
  185.2550  177.8980  137.9420 C   0  0  0  0  0  0  0  0  0  0  0  0
  183.0720  178.2940  139.7540 C   0  0  0  0  0  0  0  0  0  0  0  0
  182.0260  178.4580  140.6930 C   0  0  0  0  0  0  0  0  0  0  0  0
  187.6490  177.8070  137.5700 C   0  0  0  0  0  3  0  0  0  0  0  0
  182.7700  177.9500  138.4170 C   0  0  0  0  0  0  0  0  0  0  0  0
  183.8670  177.7480  137.4010 C   0  0  0  0  0  3  0  0  0  0  0  0
  180.6500  178.0370  134.3460 O   0  0  0  0  0  0  0  0  0  0  0  0
  180.9320  178.4150  135.6550 C   0  0  0  0  0  0  0  0  0  0  0  0
  181.0860  177.4210  136.6790 N   0  0  0  0  0  0  0  0  0  0  0  0
  181.0430  179.6400  135.9320 O   0  0  0  0  0  1  0  0  0  0  0  0
  180.9050  176.0110  136.3620 C   0  0  0  0  0  2  0  0  0  0  0  0
  181.4430  175.1480  137.5010 C   0  0  0  0  0  2  0  0  0  0  0  0
  184.9390  173.4510  137.4570 C   0  0  0  0  0  2  0  0  0  0  0  0
  183.7620  174.2780  137.9920 C   0  0  0  0  0  2  0  0  0  0  0  0
  182.5620  174.2200  137.0420 C   0  0  0  0  0  3  0  0  0  0  0  0
  184.5100  172.2410  136.6160 C   0  0  0  0  0  2  0  0  0  0  0  0
  182.0560  172.7830  136.8270 C   0  0  0  0  0  2  0  0  0  0  0  0
  183.1400  171.7190  137.0420 C   0  0  0  0  0  2  0  0  0  0  0  0
  182.2370  178.7950  142.0400 O   0  0  0  0  0  0  0  0  0  0  0  0
  180.6830  178.4120  143.8420 C   0  0  0  0  0  1  0  0  0  0  0  0
  181.2820  179.4260  142.8850 C   0  0  0  0  0  2  0  0  0  0  0  0
  189.2770  178.2890  139.4020 C   0  0  0  0  0  2  0  0  0  0  0  0
  190.6780  176.4890  138.6690 O   0  0  0  0  0  1  0  0  0  0  0  0
  189.8680  176.9180  139.7240 C   0  0  1  0  0  3  0  0  0  0  0  0
  191.9870  177.5400  140.8020 N   0  0  0  0  0  1  0  0  0  0  0  0
  190.6790  176.9430  141.0220 C   0  0  1  0  0  3  0  0  0  0  0  0
  189.9580  177.7090  142.1190 C   0  0  0  0  0  2  0  0  0  0  0  0
  190.1400  177.0450  143.4830 C   0  0  1  0  0  3  0  0  0  0  0  0
  188.7970  176.5920  144.0720 C   0  0  2  0  0  3  0  0  0  0  0  0
  188.0340  175.8770  143.1400 O   0  0  0  0  0  1  0  0  0  0  0  0
  187.9980  177.7480  144.6870 C   0  0  1  0  0  3  0  0  0  0  0  0
  186.5740  177.3320  145.0490 C   0  0  0  0  0  2  0  0  0  0  0  0
  185.5520  178.7970  145.3980 S   0  0  0  0  0  1  0  0  0  0  0  0
  188.6600  178.2310  145.8210 O   0  0  0  0  0  0  0  0  0  0  0  0
  189.9000  177.2030  147.5600 C   0  0  0  0  0  2  0  0  0  0  0  0
  188.6030  177.7260  148.1450 C   0  0  0  0  0  2  0  0  0  0  0  0
  188.6310  177.1750  146.7320 C   0  0  0  0  0  3  0  0  0  0  0  0
  191.7450  175.9480  144.5480 C   0  0  0  0  0  1  0  0  0  0  0  0
  191.0000  175.9500  143.3650 O   0  0  0  0  0  0  0  0  0  0  0  0
  2  9  1  0  0  0  0
  3  1  1  0  0  0  0
  4 31  1  0  0  0  0
  4  3  1  0  0  0  0
  5 14  1  0  0  0  0
  5  2  2  0  0  0  0
  6 13  1  0  0  0  0
  6 10  1  0  0  0  0
  7  3  2  0  0  0  0
  7  8  1  0  0  0  0
  9 12  2  0  0  0  0
 10  7  1  0  0  0  0
 11  8  1  0  0  0  0
 11 12  1  0  0  0  0
 12 28  1  0  0  0  0
 13  4  2  0  0  0  0
 14 11  2  0  0  0  0
 15 10  2  0  0  0  0
 15 14  1  0  0  0  0
 16 17  2  0  0  0  0
 17 19  1  0  0  0  0
 17 18  1  0  0  0  0
 18  5  1  0  0  0  0
 20 18  1  0  0  0  0
 20 21  1  0  0  0  0
 22 23  1  0  0  0  0
 24 21  1  0  0  0  0
 24 23  1  0  0  0  0
 25 27  1  0  0  0  0
 25 22  1  0  0  0  0
 26 27  1  0  0  0  0
 26 24  1  0  0  0  0
 28 30  1  0  0  0  0
 30 29  1  0  0  0  0
 31 33  1  0  0  0  0
 33 32  1  6  0  0  0
 33 35  1  0  0  0  0
 35 34  1  6  0  0  0
 35 36  1  0  0  0  0
 37 36  1  6  0  0  0
 37 38  1  0  0  0  0
 38 39  1  6  0  0  0
 38 40  1  0  0  0  0
 40 41  1  1  0  0  0
 40 43  1  0  0  0  0
 41 42  1  0  0  0  0
 43 46  1  0  0  0  0
 44 45  1  0  0  0  0
 46 44  1  0  0  0  0
 46 45  1  0  0  0  0
 48 37  1  0  0  0  0
 48 47  1  0  0  0  0
M  END
>  <MODEL>
3

>  <REMARK>
 VINA RESULT:      -7.1      1.730      2.256
  Name = 
  17 active torsions:
  status: ('A' for Active; 'I' for Inactive)
    1  A    between atoms: C_1  and  C_6
    2  A    between atoms: C_1  and  C_22
    3  A    between atoms: C_3  and  C_22
    4  A    between atoms: C_6  and  C_9
    5  A    between atoms: C_6  and  O_48
    6  A    between atoms: C_7  and  C_26
    7  A    between atoms: O_8  and  C_22
    8  A    between atoms: O_8  and  C_41
    9  A    between atoms: C_9  and  C_45
   10  A    between atoms: C_15  and  C_18
   11  A    between atoms: C_15  and  C_47
   12  A    between atoms: O_20  and  C_24
   13  A    between atoms: O_20  and  C_39
   14  A    between atoms: C_21  and  N_34
   15  A    between atoms: C_26  and  C_44
   16  A    between atoms: N_34  and  C_44
   17  A    between atoms: C_45  and  C_47
                            x       y       z     vdW  Elec       q    Type
                         _______ _______ _______ _____ _____    ______ ____

>  <TORSDO>
F 17

$$$$
=
 OpenBabel10232410393D

 48 52  0  0  1  0  0  0  0  0999 V2000
  186.5880  179.6250  142.0760 F   0  0  0  0  0  0  0  0  0  0  0  0
  184.9030  177.1930  135.7740 C   0  0  0  0  0  3  0  0  0  0  0  0
  185.3140  179.2010  141.8880 C   0  0  0  0  0  0  0  0  0  0  0  0
  184.3710  179.3070  142.9220 C   0  0  0  0  0  0  0  0  0  0  0  0
  183.9320  177.1780  136.7760 C   0  0  0  0  0  0  0  0  0  0  0  0
  182.6850  178.3270  141.4850 C   0  0  0  0  0  3  0  0  0  0  0  0
  184.9350  178.6700  140.6490 C   0  0  2  0  0  3  0  0  0  0  0  0
  185.8690  178.5940  139.6170 O   0  0  0  0  0  0  0  0  0  0  0  0
  186.1860  177.6630  136.0410 C   0  0  0  0  0  3  0  0  0  0  0  0
  183.6160  178.2320  140.4460 C   0  0  0  0  0  0  0  0  0  0  0  0
  185.5500  178.1320  138.3360 C   0  0  0  0  0  0  0  0  0  0  0  0
  186.5250  178.1410  137.3100 C   0  0  0  0  0  0  0  0  0  0  0  0
  183.0600  178.8640  142.7200 C   0  0  0  0  0  3  0  0  0  0  0  0
  184.2480  177.6530  138.0660 C   0  0  0  0  0  0  0  0  0  0  0  0
  183.1830  177.6530  139.1350 C   0  0  0  0  0  3  0  0  0  0  0  0
  180.3070  177.0950  135.7460 O   0  0  0  0  0  0  0  0  0  0  0  0
  181.5590  177.5910  136.0920 C   0  0  0  0  0  0  0  0  0  0  0  0
  182.6180  176.6950  136.4650 N   0  0  0  0  0  0  0  0  0  0  0  0
  181.7530  178.8380  136.0830 O   0  0  0  0  0  1  0  0  0  0  0  0
  182.3720  175.2600  136.5250 C   0  0  0  0  0  2  0  0  0  0  0  0
  183.4310  174.5880  137.3950 C   0  0  0  0  0  2  0  0  0  0  0  0
  186.4990  172.3780  136.4990 C   0  0  0  0  0  2  0  0  0  0  0  0
  185.5790  173.2610  137.3520 C   0  0  0  0  0  2  0  0  0  0  0  0
  184.2850  173.6010  136.6070 C   0  0  0  0  0  3  0  0  0  0  0  0
  185.7460  171.4570  135.5300 C   0  0  0  0  0  2  0  0  0  0  0  0
  183.4870  172.3450  136.2160 C   0  0  0  0  0  2  0  0  0  0  0  0
  184.3630  171.0940  136.0630 C   0  0  0  0  0  2  0  0  0  0  0  0
  187.8390  178.6030  137.4910 O   0  0  0  0  0  0  0  0  0  0  0  0
  189.9390  177.4210  137.4590 C   0  0  0  0  0  1  0  0  0  0  0  0
  188.9480  178.2570  136.6700 C   0  0  0  0  0  2  0  0  0  0  0  0
  184.7530  179.8900  144.2430 C   0  0  0  0  0  2  0  0  0  0  0  0
  184.8330  177.5430  144.7190 O   0  0  0  0  0  1  0  0  0  0  0  0
  184.8390  178.8060  145.3160 C   0  0  1  0  0  3  0  0  0  0  0  0
  185.8220  179.8030  147.3360 N   0  0  0  0  0  1  0  0  0  0  0  0
  186.0940  178.9650  146.1790 C   0  0  1  0  0  3  0  0  0  0  0  0
  186.6240  177.6200  146.6490 C   0  0  0  0  0  2  0  0  0  0  0  0
  188.1120  177.4620  146.3420 C   0  0  1  0  0  3  0  0  0  0  0  0
  188.4050  177.6770  144.8510 C   0  0  2  0  0  3  0  0  0  0  0  0
  187.7570  176.7280  144.0500 O   0  0  0  0  0  1  0  0  0  0  0  0
  189.9060  177.7420  144.5450 C   0  0  1  0  0  3  0  0  0  0  0  0
  190.5970  176.3990  144.7740 C   0  0  0  0  0  2  0  0  0  0  0  0
  191.7460  176.5050  146.1820 S   0  0  0  0  0  1  0  0  0  0  0  0
  190.1040  178.1640  143.2260 O   0  0  0  0  0  0  0  0  0  0  0  0
  190.1110  176.9330  141.2000 C   0  0  0  0  0  2  0  0  0  0  0  0
  191.4760  177.5670  141.3760 C   0  0  0  0  0  2  0  0  0  0  0  0
  190.7040  177.0780  142.5870 C   0  0  0  0  0  3  0  0  0  0  0  0
  188.7790  177.8830  148.4140 C   0  0  0  0  0  1  0  0  0  0  0  0
  188.8510  178.3690  147.1050 O   0  0  0  0  0  0  0  0  0  0  0  0
  2  9  2  0  0  0  0
  2  5  1  0  0  0  0
  3  1  1  0  0  0  0
  3  4  2  0  0  0  0
  4 31  1  0  0  0  0
  5 14  2  0  0  0  0
  6 13  2  0  0  0  0
  7  8  1  6  0  0  0
  7  3  1  0  0  0  0
  9 12  1  0  0  0  0
 10  7  1  0  0  0  0
 10  6  1  0  0  0  0
 11  8  1  0  0  0  0
 12 28  1  0  0  0  0
 12 11  2  0  0  0  0
 13  4  1  0  0  0  0
 14 11  1  0  0  0  0
 14 15  1  0  0  0  0
 15 10  2  0  0  0  0
 16 17  2  0  0  0  0
 17 18  1  0  0  0  0
 18 20  1  0  0  0  0
 18  5  1  0  0  0  0
 19 17  1  0  0  0  0
 20 21  1  0  0  0  0
 22 23  1  0  0  0  0
 24 23  1  0  0  0  0
 24 21  1  0  0  0  0
 25 27  1  0  0  0  0
 25 22  1  0  0  0  0
 26 24  1  0  0  0  0
 27 26  1  0  0  0  0
 30 29  1  0  0  0  0
 30 28  1  0  0  0  0
 31 33  1  0  0  0  0
 33 32  1  6  0  0  0
 33 35  1  0  0  0  0
 35 36  1  0  0  0  0
 35 34  1  1  0  0  0
 37 36  1  6  0  0  0
 37 48  1  0  0  0  0
 38 39  1  6  0  0  0
 38 37  1  0  0  0  0
 40 41  1  6  0  0  0
 40 38  1  0  0  0  0
 41 42  1  0  0  0  0
 43 40  1  0  0  0  0
 44 45  1  0  0  0  0
 44 46  1  0  0  0  0
 45 46  1  0  0  0  0
 46 43  1  0  0  0  0
 48 47  1  0  0  0  0
M  END
>  <MODEL>
4

>  <REMARK>
 VINA RESULT:      -6.9      2.216      5.188
  Name = 
  17 active torsions:
  status: ('A' for Active; 'I' for Inactive)
    1  A    between atoms: C_1  and  C_6
    2  A    between atoms: C_1  and  C_22
    3  A    between atoms: C_3  and  C_22
    4  A    between atoms: C_6  and  C_9
    5  A    between atoms: C_6  and  O_48
    6  A    between atoms: C_7  and  C_26
    7  A    between atoms: O_8  and  C_22
    8  A    between atoms: O_8  and  C_41
    9  A    between atoms: C_9  and  C_45
   10  A    between atoms: C_15  and  C_18
   11  A    between atoms: C_15  and  C_47
   12  A    between atoms: O_20  and  C_24
   13  A    between atoms: O_20  and  C_39
   14  A    between atoms: C_21  and  N_34
   15  A    between atoms: C_26  and  C_44
   16  A    between atoms: N_34  and  C_44
   17  A    between atoms: C_45  and  C_47
                            x       y       z     vdW  Elec       q    Type
                         _______ _______ _______ _____ _____    ______ ____

>  <TORSDO>
F 17

$$$$
=
 OpenBabel10232410393D

 48 52  0  0  1  0  0  0  0  0999 V2000
  184.5570  179.0590  138.6810 F   0  0  0  0  0  0  0  0  0  0  0  0
  191.0310  177.4810  140.6990 C   0  0  0  0  0  3  0  0  0  0  0  0
  184.7630  178.8230  140.0010 C   0  0  0  0  0  0  0  0  0  0  0  0
  183.6860  178.8470  140.9010 C   0  0  0  0  0  0  0  0  0  0  0  0
  190.0340  177.5780  141.6710 C   0  0  0  0  0  0  0  0  0  0  0  0
  185.1980  178.3280  142.7220 C   0  0  0  0  0  3  0  0  0  0  0  0
  186.0530  178.5370  140.4620 C   0  0  2  0  0  3  0  0  0  0  0  0
  187.1130  178.4860  139.5570 O   0  0  0  0  0  0  0  0  0  0  0  0
  190.7360  177.7200  139.3590 C   0  0  0  0  0  3  0  0  0  0  0  0
  186.2720  178.2880  141.8270 C   0  0  0  0  0  0  0  0  0  0  0  0
  188.4170  178.1480  139.9330 C   0  0  0  0  0  0  0  0  0  0  0  0
  189.4380  178.0470  138.9580 C   0  0  0  0  0  0  0  0  0  0  0  0
  183.9080  178.6060  142.2610 C   0  0  0  0  0  3  0  0  0  0  0  0
  188.7160  177.9080  141.2930 C   0  0  0  0  0  0  0  0  0  0  0  0
  187.6420  177.9860  142.3500 C   0  0  0  0  0  3  0  0  0  0  0  0
  191.0440  175.7690  144.8200 O   0  0  0  0  0  1  0  0  0  0  0  0
  190.6720  175.9890  143.4980 C   0  0  0  0  0  0  0  0  0  0  0  0
  190.3700  177.3170  143.0410 N   0  0  0  0  0  0  0  0  0  0  0  0
  190.5950  175.0100  142.7070 O   0  0  0  0  0  0  0  0  0  0  0  0
  190.4100  178.4370  143.9720 C   0  0  0  0  0  2  0  0  0  0  0  0
  190.3220  177.9230  145.4070 C   0  0  0  0  0  2  0  0  0  0  0  0
  186.4960  177.7800  146.0720 C   0  0  0  0  0  2  0  0  0  0  0  0
  187.8640  177.3560  145.5210 C   0  0  0  0  0  2  0  0  0  0  0  0
  188.9830  178.2540  146.0570 C   0  0  0  0  0  3  0  0  0  0  0  0
  186.5620  178.4030  147.4730 C   0  0  0  0  0  2  0  0  0  0  0  0
  189.0740  178.2220  147.5920 C   0  0  0  0  0  2  0  0  0  0  0  0
  187.7460  177.8650  148.2710 C   0  0  0  0  0  2  0  0  0  0  0  0
  189.2270  178.2650  137.5860 O   0  0  0  0  0  0  0  0  0  0  0  0
  188.8880  176.0150  136.7930 C   0  0  0  0  0  1  0  0  0  0  0  0
  189.5650  177.3520  136.5510 C   0  0  0  0  0  2  0  0  0  0  0  0
  182.3000  179.1300  140.4240 C   0  0  0  0  0  2  0  0  0  0  0  0
  180.0740  178.2560  140.5580 O   0  0  0  0  0  1  0  0  0  0  0  0
  181.4200  177.8860  140.5240 C   0  0  1  0  0  3  0  0  0  0  0  0
  181.2820  175.5690  139.7170 N   0  0  0  0  0  1  0  0  0  0  0  0
  181.6640  176.9260  139.3580 C   0  0  1  0  0  3  0  0  0  0  0  0
  180.8980  177.3490  138.1140 C   0  0  0  0  0  2  0  0  0  0  0  0
  181.8350  177.6090  136.9370 C   0  0  1  0  0  3  0  0  0  0  0  0
  181.7180  176.5110  135.8710 C   0  0  2  0  0  3  0  0  0  0  0  0
  180.6920  175.6050  136.1660 O   0  0  0  0  0  1  0  0  0  0  0  0
  183.0480  175.7910  135.6130 C   0  0  1  0  0  3  0  0  0  0  0  0
  184.0130  176.6460  134.7930 C   0  0  0  0  0  2  0  0  0  0  0  0
  185.4490  177.1300  135.8020 S   0  0  0  0  0  1  0  0  0  0  0  0
  183.6390  175.4350  136.8300 O   0  0  0  0  0  0  0  0  0  0  0  0
  184.6350  173.3790  136.1990 C   0  0  0  0  0  2  0  0  0  0  0  0
  184.6290  173.4600  137.7120 C   0  0  0  0  0  2  0  0  0  0  0  0
  183.4820  174.0510  136.9150 C   0  0  0  0  0  3  0  0  0  0  0  0
  180.3550  179.2600  136.9780 C   0  0  0  0  0  1  0  0  0  0  0  0
  181.5460  178.8520  136.3690 O   0  0  0  0  0  0  0  0  0  0  0  0
  1  3  1  0  0  0  0
  2  5  1  0  0  0  0
  3  7  1  0  0  0  0
  3  4  2  0  0  0  0
  4 13  1  0  0  0  0
  5 18  1  0  0  0  0
  7  8  1  6  0  0  0
  7 10  1  0  0  0  0
  8 11  1  0  0  0  0
  9  2  2  0  0  0  0
 10 15  2  0  0  0  0
 10  6  1  0  0  0  0
 11 14  1  0  0  0  0
 12  9  1  0  0  0  0
 12 11  2  0  0  0  0
 13  6  2  0  0  0  0
 14  5  2  0  0  0  0
 14 15  1  0  0  0  0
 17 16  1  0  0  0  0
 18 17  1  0  0  0  0
 18 20  1  0  0  0  0
 19 17  2  0  0  0  0
 20 21  1  0  0  0  0
 21 24  1  0  0  0  0
 22 25  1  0  0  0  0
 23 24  1  0  0  0  0
 23 22  1  0  0  0  0
 24 26  1  0  0  0  0
 25 27  1  0  0  0  0
 26 27  1  0  0  0  0
 28 12  1  0  0  0  0
 30 29  1  0  0  0  0
 30 28  1  0  0  0  0
 31 33  1  0  0  0  0
 31  4  1  0  0  0  0
 33 32  1  6  0  0  0
 35 34  1  1  0  0  0
 35 33  1  0  0  0  0
 36 35  1  0  0  0  0
 37 36  1  1  0  0  0
 38 39  1  1  0  0  0
 38 37  1  0  0  0  0
 40 41  1  1  0  0  0
 40 38  1  0  0  0  0
 40 43  1  0  0  0  0
 41 42  1  0  0  0  0
 43 46  1  0  0  0  0
 44 46  1  0  0  0  0
 44 45  1  0  0  0  0
 46 45  1  0  0  0  0
 48 37  1  0  0  0  0
 48 47  1  0  0  0  0
M  END
>  <MODEL>
5

>  <REMARK>
 VINA RESULT:      -6.9      2.734     10.085
  Name = 
  17 active torsions:
  status: ('A' for Active; 'I' for Inactive)
    1  A    between atoms: C_1  and  C_6
    2  A    between atoms: C_1  and  C_22
    3  A    between atoms: C_3  and  C_22
    4  A    between atoms: C_6  and  C_9
    5  A    between atoms: C_6  and  O_48
    6  A    between atoms: C_7  and  C_26
    7  A    between atoms: O_8  and  C_22
    8  A    between atoms: O_8  and  C_41
    9  A    between atoms: C_9  and  C_45
   10  A    between atoms: C_15  and  C_18
   11  A    between atoms: C_15  and  C_47
   12  A    between atoms: O_20  and  C_24
   13  A    between atoms: O_20  and  C_39
   14  A    between atoms: C_21  and  N_34
   15  A    between atoms: C_26  and  C_44
   16  A    between atoms: N_34  and  C_44
   17  A    between atoms: C_45  and  C_47
                            x       y       z     vdW  Elec       q    Type
                         _______ _______ _______ _____ _____    ______ ____

>  <TORSDO>
F 17

$$$$
=
 OpenBabel10232410393D

 48 52  0  0  1  0  0  0  0  0999 V2000
  187.1990  178.6430  142.0190 F   0  0  0  0  0  0  0  0  0  0  0  0
  180.4700  178.8120  140.2400 C   0  0  0  0  0  3  0  0  0  0  0  0
  186.8920  178.4750  140.7080 C   0  0  0  0  0  0  0  0  0  0  0  0
  187.9060  178.2240  139.7700 C   0  0  0  0  0  0  0  0  0  0  0  0
  181.4230  178.6510  139.2330 C   0  0  0  0  0  0  0  0  0  0  0  0
  186.2470  178.1250  138.0070 C   0  0  0  0  0  2  0  0  0  0  0  0
  185.5560  178.5360  140.2950 C   0  0  0  0  0  0  0  0  0  0  0  0
  184.5530  178.7580  141.2370 O   0  0  0  0  0  0  0  0  0  0  0  0
  180.8650  178.9580  141.5680 C   0  0  0  0  0  3  0  0  0  0  0  0
  185.2320  178.3600  138.9400 C   0  0  0  0  0  0  0  0  0  0  0  0
  183.1930  178.7720  140.9100 C   0  0  0  0  0  0  0  0  0  0  0  0
  182.2160  178.9350  141.9210 C   0  0  0  0  0  0  0  0  0  0  0  0
  187.5800  178.0550  138.4200 C   0  0  0  0  0  3  0  0  0  0  0  0
  182.7930  178.6250  139.5620 C   0  0  0  0  0  0  0  0  0  0  0  0
  183.8130  178.4270  138.4670 C   0  0  0  0  0  3  0  0  0  0  0  0
  180.4640  179.4380  135.6740 O   0  0  0  0  0  0  0  0  0  0  0  0
  180.8440  179.6210  136.9990 C   0  0  0  0  0  0  0  0  0  0  0  0
  180.9820  178.4930  137.8770 N   0  0  0  0  0  0  0  0  0  0  0  0
  181.0600  180.7890  137.4220 O   0  0  0  0  0  1  0  0  0  0  0  0
  180.6800  177.1520  137.3960 C   0  0  0  0  0  2  0  0  0  0  0  0
  181.8330  176.6370  136.5370 C   0  0  0  0  0  2  0  0  0  0  0  0
  182.3380  172.8800  135.6810 C   0  0  0  0  0  2  0  0  0  0  0  0
  182.2000  174.3900  135.4450 C   0  0  0  0  0  2  0  0  0  0  0  0
  182.1070  175.1550  136.7690 C   0  0  0  0  0  3  0  0  0  0  0  0
  183.0680  172.5240  136.9840 C   0  0  0  0  0  2  0  0  0  0  0  0
  183.3450  174.9390  137.6570 C   0  0  0  0  0  2  0  0  0  0  0  0
  184.0620  173.6100  137.3840 C   0  0  0  0  0  2  0  0  0  0  0  0
  182.5260  179.0830  143.2830 O   0  0  0  0  0  0  0  0  0  0  0  0
  184.4210  178.4310  144.6210 C   0  0  0  0  0  1  0  0  0  0  0  0
  183.7760  179.5280  143.7940 C   0  0  0  0  0  2  0  0  0  0  0  0
  189.3340  178.1340  140.1960 C   0  0  0  0  0  2  0  0  0  0  0  0
  190.9010  176.3340  139.9910 O   0  0  0  0  0  1  0  0  0  0  0  0
  189.6980  176.7060  140.5970 C   0  0  1  0  0  3  0  0  0  0  0  0
  190.5950  175.3770  142.4600 N   0  0  0  0  0  1  0  0  0  0  0  0
  189.8160  176.5570  142.1150 C   0  0  1  0  0  3  0  0  0  0  0  0
  190.4560  177.7810  142.7500 C   0  0  0  0  0  2  0  0  0  0  0  0
  189.6190  178.3170  143.9100 C   0  0  1  0  0  3  0  0  0  0  0  0
  189.1020  177.1800  144.8030 C   0  0  2  0  0  3  0  0  0  0  0  0
  187.7660  176.8660  144.5250 O   0  0  0  0  0  1  0  0  0  0  0  0
  189.3180  177.4540  146.2970 C   0  0  1  0  0  3  0  0  0  0  0  0
  187.9990  177.6820  147.0340 C   0  0  0  0  0  2  0  0  0  0  0  0
  188.3070  178.0450  148.7910 S   0  0  0  0  0  1  0  0  0  0  0  0
  190.0150  176.3900  146.8780 O   0  0  0  0  0  0  0  0  0  0  0  0
  192.1450  176.1810  147.8970 C   0  0  0  0  0  2  0  0  0  0  0  0
  192.1720  175.4330  146.5790 C   0  0  0  0  0  2  0  0  0  0  0  0
  191.3630  176.7090  146.7110 C   0  0  0  0  0  3  0  0  0  0  0  0
  191.6430  179.2070  144.0720 C   0  0  0  0  0  1  0  0  0  0  0  0
  190.3800  179.2070  144.6710 O   0  0  0  0  0  0  0  0  0  0  0  0
  2  9  1  0  0  0  0
  3  1  1  0  0  0  0
  4 31  1  0  0  0  0
  4  3  1  0  0  0  0
  5 14  1  0  0  0  0
  5  2  2  0  0  0  0
  6 13  1  0  0  0  0
  6 10  1  0  0  0  0
  7  3  2  0  0  0  0
  7  8  1  0  0  0  0
  9 12  2  0  0  0  0
 10  7  1  0  0  0  0
 11  8  1  0  0  0  0
 11 12  1  0  0  0  0
 12 28  1  0  0  0  0
 13  4  2  0  0  0  0
 14 11  2  0  0  0  0
 15 10  2  0  0  0  0
 15 14  1  0  0  0  0
 16 17  2  0  0  0  0
 17 19  1  0  0  0  0
 17 18  1  0  0  0  0
 18  5  1  0  0  0  0
 20 18  1  0  0  0  0
 21 24  1  0  0  0  0
 21 20  1  0  0  0  0
 22 25  1  0  0  0  0
 23 22  1  0  0  0  0
 23 24  1  0  0  0  0
 24 26  1  0  0  0  0
 25 27  1  0  0  0  0
 27 26  1  0  0  0  0
 28 30  1  0  0  0  0
 30 29  1  0  0  0  0
 31 33  1  0  0  0  0
 33 32  1  6  0  0  0
 33 35  1  0  0  0  0
 35 34  1  6  0  0  0
 35 36  1  0  0  0  0
 37 36  1  6  0  0  0
 37 48  1  0  0  0  0
 37 38  1  0  0  0  0
 38 39  1  1  0  0  0
 38 40  1  0  0  0  0
 40 43  1  0  0  0  0
 40 41  1  1  0  0  0
 41 42  1  0  0  0  0
 45 46  1  0  0  0  0
 45 44  1  0  0  0  0
 46 43  1  0  0  0  0
 46 44  1  0  0  0  0
 47 48  1  0  0  0  0
M  END
>  <MODEL>
6

>  <REMARK>
 VINA RESULT:      -6.8      1.430      2.143
  Name = 
  17 active torsions:
  status: ('A' for Active; 'I' for Inactive)
    1  A    between atoms: C_1  and  C_6
    2  A    between atoms: C_1  and  C_22
    3  A    between atoms: C_3  and  C_22
    4  A    between atoms: C_6  and  C_9
    5  A    between atoms: C_6  and  O_48
    6  A    between atoms: C_7  and  C_26
    7  A    between atoms: O_8  and  C_22
    8  A    between atoms: O_8  and  C_41
    9  A    between atoms: C_9  and  C_45
   10  A    between atoms: C_15  and  C_18
   11  A    between atoms: C_15  and  C_47
   12  A    between atoms: O_20  and  C_24
   13  A    between atoms: O_20  and  C_39
   14  A    between atoms: C_21  and  N_34
   15  A    between atoms: C_26  and  C_44
   16  A    between atoms: N_34  and  C_44
   17  A    between atoms: C_45  and  C_47
                            x       y       z     vdW  Elec       q    Type
                         _______ _______ _______ _____ _____    ______ ____

>  <TORSDO>
F 17

$$$$
=
 OpenBabel10232410393D

 48 52  0  0  1  0  0  0  0  0999 V2000
  184.4840  179.0940  138.6580 F   0  0  0  0  0  0  0  0  0  0  0  0
  190.9540  177.4060  140.6000 C   0  0  0  0  0  3  0  0  0  0  0  0
  184.7070  178.8780  139.9790 C   0  0  0  0  0  0  0  0  0  0  0  0
  183.6460  178.9440  140.8960 C   0  0  0  0  0  0  0  0  0  0  0  0
  189.9760  177.5440  141.5860 C   0  0  0  0  0  0  0  0  0  0  0  0
  185.1760  178.4240  142.7010 C   0  0  0  0  0  3  0  0  0  0  0  0
  185.9980  178.5710  140.4240 C   0  0  2  0  0  3  0  0  0  0  0  0
  187.0410  178.4790  139.5030 O   0  0  0  0  0  0  0  0  0  0  0  0
  190.6420  177.6260  139.2610 C   0  0  0  0  0  3  0  0  0  0  0  0
  186.2340  178.3430  141.7900 C   0  0  0  0  0  0  0  0  0  0  0  0
  188.3430  178.1180  139.8640 C   0  0  0  0  0  0  0  0  0  0  0  0
  189.3450  177.9760  138.8750 C   0  0  0  0  0  0  0  0  0  0  0  0
  183.8850  178.7220  142.2560 C   0  0  0  0  0  3  0  0  0  0  0  0
  188.6590  177.8960  141.2240 C   0  0  0  0  0  0  0  0  0  0  0  0
  187.6050  178.0190  142.2960 C   0  0  0  0  0  3  0  0  0  0  0  0
  191.1270  175.8010  144.7240 O   0  0  0  0  0  1  0  0  0  0  0  0
  190.7410  176.0000  143.4030 C   0  0  0  0  0  0  0  0  0  0  0  0
  190.3280  177.3010  142.9550 N   0  0  0  0  0  0  0  0  0  0  0  0
  190.7510  175.0240  142.6040 O   0  0  0  0  0  0  0  0  0  0  0  0
  190.2700  178.4120  143.8950 C   0  0  0  0  0  2  0  0  0  0  0  0
  190.2150  177.8810  145.3260 C   0  0  0  0  0  2  0  0  0  0  0  0
  186.3890  177.9920  145.9950 C   0  0  0  0  0  2  0  0  0  0  0  0
  187.7160  177.5260  145.3810 C   0  0  0  0  0  2  0  0  0  0  0  0
  188.9080  178.2390  146.0250 C   0  0  0  0  0  3  0  0  0  0  0  0
  186.5030  178.4120  147.4660 C   0  0  0  0  0  2  0  0  0  0  0  0
  188.9890  177.9920  147.5410 C   0  0  0  0  0  2  0  0  0  0  0  0
  187.6310  177.6660  148.1750 C   0  0  0  0  0  2  0  0  0  0  0  0
  189.1160  178.1730  137.5030 O   0  0  0  0  0  0  0  0  0  0  0  0
  188.0100  176.3590  136.3660 C   0  0  0  0  0  1  0  0  0  0  0  0
  189.2780  177.1820  136.4960 C   0  0  0  0  0  2  0  0  0  0  0  0
  182.2590  179.2490  140.4350 C   0  0  0  0  0  2  0  0  0  0  0  0
  180.2630  178.7740  141.6730 O   0  0  0  0  0  1  0  0  0  0  0  0
  181.2750  178.1830  140.9130 C   0  0  1  0  0  3  0  0  0  0  0  0
  180.9260  178.0970  138.4820 N   0  0  0  0  0  1  0  0  0  0  0  0
  180.6600  177.4160  139.7390 C   0  0  1  0  0  3  0  0  0  0  0  0
  181.1900  175.9930  139.6600 C   0  0  0  0  0  2  0  0  0  0  0  0
  180.4080  175.1560  138.6490 C   0  0  1  0  0  3  0  0  0  0  0  0
  181.2180  174.9220  137.3670 C   0  0  2  0  0  3  0  0  0  0  0  0
  180.6540  173.9190  136.5690 O   0  0  0  0  0  1  0  0  0  0  0  0
  182.7030  174.6530  137.6440 C   0  0  1  0  0  3  0  0  0  0  0  0
  183.1900  173.3740  136.9660 C   0  0  0  0  0  2  0  0  0  0  0  0
  184.8800  172.9690  137.5090 S   0  0  0  0  0  1  0  0  0  0  0  0
  183.4700  175.7430  137.2180 O   0  0  0  0  0  0  0  0  0  0  0  0
  183.1100  177.3590  135.5220 C   0  0  0  0  0  2  0  0  0  0  0  0
  184.3390  176.5520  135.1570 C   0  0  0  0  0  2  0  0  0  0  0  0
  183.1740  175.8840  135.8620 C   0  0  0  0  0  3  0  0  0  0  0  0
  179.9820  174.1800  140.5930 C   0  0  0  0  0  1  0  0  0  0  0  0
  180.0600  173.9300  139.2200 O   0  0  0  0  0  0  0  0  0  0  0  0
  1  3  1  0  0  0  0
  2  5  1  0  0  0  0
  3  7  1  0  0  0  0
  3  4  2  0  0  0  0
  4 13  1  0  0  0  0
  5 18  1  0  0  0  0
  7  8  1  6  0  0  0
  7 10  1  0  0  0  0
  8 11  1  0  0  0  0
  9  2  2  0  0  0  0
 10 15  2  0  0  0  0
 10  6  1  0  0  0  0
 11 14  1  0  0  0  0
 12  9  1  0  0  0  0
 12 11  2  0  0  0  0
 13  6  2  0  0  0  0
 14  5  2  0  0  0  0
 14 15  1  0  0  0  0
 17 16  1  0  0  0  0
 18 17  1  0  0  0  0
 18 20  1  0  0  0  0
 19 17  2  0  0  0  0
 20 21  1  0  0  0  0
 21 24  1  0  0  0  0
 22 25  1  0  0  0  0
 23 22  1  0  0  0  0
 23 24  1  0  0  0  0
 24 26  1  0  0  0  0
 25 27  1  0  0  0  0
 26 27  1  0  0  0  0
 28 12  1  0  0  0  0
 29 30  1  0  0  0  0
 30 28  1  0  0  0  0
 31  4  1  0  0  0  0
 31 33  1  0  0  0  0
 33 32  1  6  0  0  0
 35 34  1  6  0  0  0
 35 33  1  0  0  0  0
 36 35  1  0  0  0  0
 37 48  1  0  0  0  0
 37 36  1  1  0  0  0
 38 39  1  1  0  0  0
 38 40  1  0  0  0  0
 38 37  1  0  0  0  0
 40 41  1  6  0  0  0
 41 42  1  0  0  0  0
 43 40  1  0  0  0  0
 44 46  1  0  0  0  0
 45 44  1  0  0  0  0
 45 46  1  0  0  0  0
 46 43  1  0  0  0  0
 48 47  1  0  0  0  0
M  END
>  <MODEL>
7

>  <REMARK>
 VINA RESULT:      -6.7      2.874     10.037
  Name = 
  17 active torsions:
  status: ('A' for Active; 'I' for Inactive)
    1  A    between atoms: C_1  and  C_6
    2  A    between atoms: C_1  and  C_22
    3  A    between atoms: C_3  and  C_22
    4  A    between atoms: C_6  and  C_9
    5  A    between atoms: C_6  and  O_48
    6  A    between atoms: C_7  and  C_26
    7  A    between atoms: O_8  and  C_22
    8  A    between atoms: O_8  and  C_41
    9  A    between atoms: C_9  and  C_45
   10  A    between atoms: C_15  and  C_18
   11  A    between atoms: C_15  and  C_47
   12  A    between atoms: O_20  and  C_24
   13  A    between atoms: O_20  and  C_39
   14  A    between atoms: C_21  and  N_34
   15  A    between atoms: C_26  and  C_44
   16  A    between atoms: N_34  and  C_44
   17  A    between atoms: C_45  and  C_47
                            x       y       z     vdW  Elec       q    Type
                         _______ _______ _______ _____ _____    ______ ____

>  <TORSDO>
F 17

$$$$
=
 OpenBabel10232410393D

 48 52  0  0  1  0  0  0  0  0999 V2000
  188.5550  178.1930  137.8320 F   0  0  0  0  0  0  0  0  0  0  0  0
  184.1550  178.9350  143.1760 C   0  0  0  0  0  3  0  0  0  0  0  0
  188.9970  177.8320  139.0620 C   0  0  0  0  0  0  0  0  0  0  0  0
  190.3140  177.3790  139.2380 C   0  0  0  0  0  0  0  0  0  0  0  0
  185.4160  178.3890  143.4210 C   0  0  0  0  0  0  0  0  0  0  0  0
  189.8980  177.0950  141.6080 C   0  0  0  0  0  3  0  0  0  0  0  0
  188.1380  177.9290  140.1640 C   0  0  2  0  0  3  0  0  0  0  0  0
  186.8400  178.4060  139.9860 O   0  0  0  0  0  0  0  0  0  0  0  0
  183.7820  179.3000  141.8850 C   0  0  0  0  0  3  0  0  0  0  0  0
  188.5900  177.5590  141.4410 C   0  0  0  0  0  0  0  0  0  0  0  0
  185.9460  178.5880  141.0460 C   0  0  0  0  0  0  0  0  0  0  0  0
  184.6640  179.1400  140.8120 C   0  0  0  0  0  0  0  0  0  0  0  0
  190.7590  177.0060  140.5110 C   0  0  0  0  0  3  0  0  0  0  0  0
  186.3240  178.2150  142.3560 C   0  0  0  0  0  0  0  0  0  0  0  0
  187.6920  177.6450  142.6370 C   0  0  0  0  0  3  0  0  0  0  0  0
  185.3060  178.0380  147.1720 O   0  0  0  0  0  1  0  0  0  0  0  0
  184.9690  178.4390  145.8840 C   0  0  0  0  0  0  0  0  0  0  0  0
  185.7710  178.0320  144.7640 N   0  0  0  0  0  0  0  0  0  0  0  0
  183.9560  179.1690  145.7110 O   0  0  0  0  0  0  0  0  0  0  0  0
  186.9700  177.2310  144.9760 C   0  0  0  0  0  2  0  0  0  0  0  0
  187.9770  178.0160  145.8130 C   0  0  0  0  0  2  0  0  0  0  0  0
  191.6060  176.7040  145.3490 C   0  0  0  0  0  2  0  0  0  0  0  0
  190.3800  177.6070  145.1540 C   0  0  0  0  0  2  0  0  0  0  0  0
  189.2410  177.2120  146.0980 C   0  0  0  0  0  3  0  0  0  0  0  0
  191.7610  176.1760  146.7820 C   0  0  0  0  0  2  0  0  0  0  0  0
  189.6490  177.3010  147.5780 C   0  0  0  0  0  2  0  0  0  0  0  0
  191.1580  177.1380  147.8020 C   0  0  0  0  0  2  0  0  0  0  0  0
  184.2090  179.5400  139.5450 O   0  0  0  0  0  0  0  0  0  0  0  0
  183.7280  177.8900  137.8550 C   0  0  0  0  0  1  0  0  0  0  0  0
  183.1580  178.9150  138.8180 C   0  0  0  0  0  2  0  0  0  0  0  0
  191.2490  177.2900  138.0780 C   0  0  0  0  0  2  0  0  0  0  0  0
  190.5990  175.0010  138.3630 O   0  0  0  0  0  1  0  0  0  0  0  0
  191.4810  175.8350  137.6720 C   0  0  1  0  0  3  0  0  0  0  0  0
  190.2940  176.5350  135.6370 N   0  0  0  0  0  1  0  0  0  0  0  0
  191.3080  175.6360  136.1640 C   0  0  1  0  0  3  0  0  0  0  0  0
  192.6120  175.8590  135.4160 C   0  0  0  0  0  2  0  0  0  0  0  0
  193.8210  175.7370  136.3410 C   0  0  1  0  0  3  0  0  0  0  0  0
  194.6260  174.4630  136.0500 C   0  0  2  0  0  3  0  0  0  0  0  0
  193.8330  173.3120  136.1440 O   0  0  0  0  0  1  0  0  0  0  0  0
  195.8890  174.3490  136.9140 C   0  0  1  0  0  3  0  0  0  0  0  0
  195.5930  173.7450  138.2860 C   0  0  0  0  0  2  0  0  0  0  0  0
  196.4710  174.6640  139.5890 S   0  0  0  0  0  1  0  0  0  0  0  0
  196.8500  173.5800  136.2500 O   0  0  0  0  0  0  0  0  0  0  0  0
  199.0790  174.2600  136.6830 C   0  0  0  0  0  2  0  0  0  0  0  0
  199.0080  173.7440  135.2610 C   0  0  0  0  0  2  0  0  0  0  0  0
  197.8310  174.4920  135.8570 C   0  0  0  0  0  3  0  0  0  0  0  0
  194.9370  176.9180  134.8320 C   0  0  0  0  0  1  0  0  0  0  0  0
  194.6420  176.8580  136.1980 O   0  0  0  0  0  0  0  0  0  0  0  0
  1  3  1  0  0  0  0
  2  5  1  0  0  0  0
  3  4  2  0  0  0  0
  4 13  1  0  0  0  0
  5 18  1  0  0  0  0
  7  3  1  1  0  0  0
  7 10  1  0  0  0  0
  8  7  1  0  0  0  0
  8 11  1  0  0  0  0
  9  2  2  0  0  0  0
 10  6  1  0  0  0  0
 10 15  2  0  0  0  0
 11 14  1  0  0  0  0
 12 11  2  0  0  0  0
 12  9  1  0  0  0  0
 13  6  2  0  0  0  0
 14 15  1  0  0  0  0
 14  5  2  0  0  0  0
 17 16  1  0  0  0  0
 18 20  1  0  0  0  0
 18 17  1  0  0  0  0
 19 17  2  0  0  0  0
 20 21  1  0  0  0  0
 21 24  1  0  0  0  0
 22 25  1  0  0  0  0
 23 22  1  0  0  0  0
 23 24  1  0  0  0  0
 24 26  1  0  0  0  0
 25 27  1  0  0  0  0
 26 27  1  0  0  0  0
 28 12  1  0  0  0  0
 29 30  1  0  0  0  0
 30 28  1  0  0  0  0
 31  4  1  0  0  0  0
 33 31  1  0  0  0  0
 33 32  1  1  0  0  0
 35 34  1  6  0  0  0
 35 33  1  0  0  0  0
 36 35  1  0  0  0  0
 37 36  1  6  0  0  0
 38 39  1  1  0  0  0
 38 37  1  0  0  0  0
 38 40  1  0  0  0  0
 40 41  1  1  0  0  0
 41 42  1  0  0  0  0
 43 40  1  0  0  0  0
 45 46  1  0  0  0  0
 45 44  1  0  0  0  0
 46 43  1  0  0  0  0
 46 44  1  0  0  0  0
 47 48  1  0  0  0  0
 48 37  1  0  0  0  0
M  END
>  <MODEL>
8

>  <REMARK>
 VINA RESULT:      -6.7      4.220      8.668
  Name = 
  17 active torsions:
  status: ('A' for Active; 'I' for Inactive)
    1  A    between atoms: C_1  and  C_6
    2  A    between atoms: C_1  and  C_22
    3  A    between atoms: C_3  and  C_22
    4  A    between atoms: C_6  and  C_9
    5  A    between atoms: C_6  and  O_48
    6  A    between atoms: C_7  and  C_26
    7  A    between atoms: O_8  and  C_22
    8  A    between atoms: O_8  and  C_41
    9  A    between atoms: C_9  and  C_45
   10  A    between atoms: C_15  and  C_18
   11  A    between atoms: C_15  and  C_47
   12  A    between atoms: O_20  and  C_24
   13  A    between atoms: O_20  and  C_39
   14  A    between atoms: C_21  and  N_34
   15  A    between atoms: C_26  and  C_44
   16  A    between atoms: N_34  and  C_44
   17  A    between atoms: C_45  and  C_47
                            x       y       z     vdW  Elec       q    Type
                         _______ _______ _______ _____ _____    ______ ____

>  <TORSDO>
F 17

$$$$
=
 OpenBabel10232410393D

 48 52  0  0  1  0  0  0  0  0999 V2000
  188.9870  178.0270  138.0240 F   0  0  0  0  0  0  0  0  0  0  0  0
  184.1760  178.9570  142.9700 C   0  0  0  0  0  3  0  0  0  0  0  0
  189.3400  177.7460  139.3030 C   0  0  0  0  0  0  0  0  0  0  0  0
  190.6490  177.3370  139.6030 C   0  0  0  0  0  0  0  0  0  0  0  0
  185.4260  178.4560  143.3400 C   0  0  0  0  0  0  0  0  0  0  0  0
  190.0590  177.1750  141.9480 C   0  0  0  0  0  3  0  0  0  0  0  0
  188.3980  177.8830  140.3290 C   0  0  2  0  0  3  0  0  0  0  0  0
  187.1080  178.3170  140.0270 O   0  0  0  0  0  0  0  0  0  0  0  0
  183.8960  179.2400  141.6350 C   0  0  0  0  0  3  0  0  0  0  0  0
  188.7580  177.5970  141.6560 C   0  0  0  0  0  0  0  0  0  0  0  0
  186.1320  178.5360  141.0040 C   0  0  0  0  0  0  0  0  0  0  0  0
  184.8600  179.0420  140.6430 C   0  0  0  0  0  0  0  0  0  0  0  0
  191.0030  177.0460  140.9250 C   0  0  0  0  0  3  0  0  0  0  0  0
  186.4150  178.2470  142.3580 C   0  0  0  0  0  0  0  0  0  0  0  0
  187.7700  177.7270  142.7740 C   0  0  0  0  0  3  0  0  0  0  0  0
  185.0930  178.4080  147.0940 O   0  0  0  0  0  1  0  0  0  0  0  0
  184.8530  178.7270  145.7620 C   0  0  0  0  0  0  0  0  0  0  0  0
  185.6840  178.1840  144.7240 N   0  0  0  0  0  0  0  0  0  0  0  0
  183.9020  179.5040  145.4760 O   0  0  0  0  0  0  0  0  0  0  0  0
  186.8130  177.3290  145.0650 C   0  0  0  0  0  2  0  0  0  0  0  0
  187.6470  177.9820  146.1640 C   0  0  0  0  0  2  0  0  0  0  0  0
  191.2960  176.7680  145.6050 C   0  0  0  0  0  2  0  0  0  0  0  0
  190.0350  177.6250  145.4270 C   0  0  0  0  0  2  0  0  0  0  0  0
  188.9460  177.2290  146.4280 C   0  0  0  0  0  3  0  0  0  0  0  0
  191.5230  176.2980  147.0490 C   0  0  0  0  0  2  0  0  0  0  0  0
  189.4070  177.3850  147.8870 C   0  0  0  0  0  2  0  0  0  0  0  0
  190.9280  177.2770  148.0570 C   0  0  0  0  0  2  0  0  0  0  0  0
  184.4960  179.3590  139.3240 O   0  0  0  0  0  0  0  0  0  0  0  0
  184.6140  177.5560  137.7290 C   0  0  0  0  0  1  0  0  0  0  0  0
  183.7170  178.5310  138.4690 C   0  0  0  0  0  2  0  0  0  0  0  0
  191.6720  177.2060  138.5240 C   0  0  0  0  0  2  0  0  0  0  0  0
  190.6090  175.4970  137.2240 O   0  0  0  0  0  1  0  0  0  0  0  0
  191.7370  175.7720  138.0010 C   0  0  1  0  0  3  0  0  0  0  0  0
  193.8500  176.7110  137.1680 N   0  0  0  0  0  1  0  0  0  0  0  0
  193.0050  175.5270  137.1780 C   0  0  1  0  0  3  0  0  0  0  0  0
  193.8010  174.3480  137.7140 C   0  0  0  0  0  2  0  0  0  0  0  0
  195.0750  174.1150  136.9040 C   0  0  1  0  0  3  0  0  0  0  0  0
  196.0150  173.1260  137.6060 C   0  0  2  0  0  3  0  0  0  0  0  0
  195.3890  172.4860  138.6830 O   0  0  0  0  0  1  0  0  0  0  0  0
  197.3440  173.7670  138.0260 C   0  0  1  0  0  3  0  0  0  0  0  0
  198.2910  173.9530  136.8420 C   0  0  0  0  0  2  0  0  0  0  0  0
  198.5920  172.3620  136.0110 S   0  0  0  0  0  1  0  0  0  0  0  0
  197.1020  174.9980  138.6450 O   0  0  0  0  0  0  0  0  0  0  0  0
  197.8290  175.4450  140.8570 C   0  0  0  0  0  2  0  0  0  0  0  0
  196.4010  175.9330  140.7170 C   0  0  0  0  0  2  0  0  0  0  0  0
  196.8520  174.6860  139.9820 C   0  0  0  0  0  3  0  0  0  0  0  0
  195.4660  174.4420  134.7460 C   0  0  0  0  0  1  0  0  0  0  0  0
  194.7460  173.6360  135.6330 O   0  0  0  0  0  0  0  0  0  0  0  0
  1  3  1  0  0  0  0
  2  5  1  0  0  0  0
  3  4  2  0  0  0  0
  4 13  1  0  0  0  0
  5 18  1  0  0  0  0
  7  3  1  1  0  0  0
  7 10  1  0  0  0  0
  8  7  1  0  0  0  0
  8 11  1  0  0  0  0
  9  2  2  0  0  0  0
 10  6  1  0  0  0  0
 10 15  2  0  0  0  0
 11 14  1  0  0  0  0
 12 11  2  0  0  0  0
 12  9  1  0  0  0  0
 13  6  2  0  0  0  0
 14 15  1  0  0  0  0
 14  5  2  0  0  0  0
 17 16  1  0  0  0  0
 18 20  1  0  0  0  0
 18 17  1  0  0  0  0
 19 17  2  0  0  0  0
 20 21  1  0  0  0  0
 21 24  1  0  0  0  0
 22 25  1  0  0  0  0
 23 22  1  0  0  0  0
 23 24  1  0  0  0  0
 24 26  1  0  0  0  0
 25 27  1  0  0  0  0
 26 27  1  0  0  0  0
 28 12  1  0  0  0  0
 29 30  1  0  0  0  0
 30 28  1  0  0  0  0
 31  4  1  0  0  0  0
 33 32  1  6  0  0  0
 33 31  1  0  0  0  0
 35 34  1  1  0  0  0
 35 36  1  0  0  0  0
 35 33  1  0  0  0  0
 37 38  1  0  0  0  0
 37 36  1  1  0  0  0
 38 40  1  0  0  0  0
 38 39  1  1  0  0  0
 40 41  1  6  0  0  0
 40 43  1  0  0  0  0
 42 41  1  0  0  0  0
 43 46  1  0  0  0  0
 45 44  1  0  0  0  0
 46 45  1  0  0  0  0
 46 44  1  0  0  0  0
 47 48  1  0  0  0  0
 48 37  1  0  0  0  0
M  END
>  <MODEL>
9

>  <REMARK>
 VINA RESULT:      -6.7      4.261      8.349
  Name = 
  17 active torsions:
  status: ('A' for Active; 'I' for Inactive)
    1  A    between atoms: C_1  and  C_6
    2  A    between atoms: C_1  and  C_22
    3  A    between atoms: C_3  and  C_22
    4  A    between atoms: C_6  and  C_9
    5  A    between atoms: C_6  and  O_48
    6  A    between atoms: C_7  and  C_26
    7  A    between atoms: O_8  and  C_22
    8  A    between atoms: O_8  and  C_41
    9  A    between atoms: C_9  and  C_45
   10  A    between atoms: C_15  and  C_18
   11  A    between atoms: C_15  and  C_47
   12  A    between atoms: O_20  and  C_24
   13  A    between atoms: O_20  and  C_39
   14  A    between atoms: C_21  and  N_34
   15  A    between atoms: C_26  and  C_44
   16  A    between atoms: N_34  and  C_44
   17  A    between atoms: C_45  and  C_47
                            x       y       z     vdW  Elec       q    Type
                         _______ _______ _______ _____ _____    ______ ____

>  <TORSDO>
F 17

$$$$
