=
 OpenBabel10232411113D

 36 40  0  0  1  0  0  0  0  0999 V2000
  191.6480  176.4010  145.4280 C   0  0  0  0  0  3  0  0  0  0  0  0
  189.4210  177.2100  145.8620 C   0  0  0  0  0  0  0  0  0  0  0  0
  191.0270  176.9900  147.6190 N   0  0  0  0  0  0  0  0  0  0  0  0
  187.5520  178.1370  147.7340 C   0  0  0  0  0  3  0  0  0  0  0  0
  190.3810  176.7390  144.9530 C   0  0  0  0  0  0  0  0  0  0  0  0
  188.1260  177.5590  145.4550 C   0  0  0  0  0  3  0  0  0  0  0  0
  188.8410  177.7940  148.1510 C   0  0  0  0  0  3  0  0  0  0  0  0
  189.7750  177.3300  147.2200 C   0  0  0  0  0  0  0  0  0  0  0  0
  191.9350  176.5400  146.7500 N   0  0  0  0  0  0  0  0  0  0  0  0
  187.1880  178.0210  146.3850 C   0  0  0  0  0  0  0  0  0  0  0  0
  185.8340  178.3760  145.9410 C   0  0  0  0  0  0  0  0  0  0  0  0
  183.7670  178.8920  146.0630 N   0  0  0  0  0  0  0  0  0  0  0  0
  184.8260  178.5970  146.7510 O   0  0  0  0  0  0  0  0  0  0  0  0
  185.4720  178.5200  144.6510 N   0  0  0  0  0  0  0  0  0  0  0  0
  184.1670  178.8350  144.7790 C   0  0  0  0  0  0  0  0  0  0  0  0
  183.2680  179.1540  143.6270 C   0  0  2  0  0  3  0  0  0  0  0  0
  181.9320  178.8760  143.9460 O   0  0  0  0  0  1  0  0  0  0  0  0
  183.2150  178.0040  140.1060 C   0  0  0  0  0  2  0  0  0  0  0  0
  183.7020  178.4530  142.4120 N   0  0  0  0  0  0  0  0  0  0  0  0
  184.7440  179.2480  141.7780 C   0  0  0  0  0  2  0  0  0  0  0  0
  184.8230  178.8300  140.0090 S   0  0  0  0  0  0  0  0  0  0  0  0
  182.6140  178.3550  141.4460 C   0  0  0  0  0  2  0  0  0  0  0  0
  190.0710  176.5660  143.5010 C   0  0  0  0  0  2  0  0  0  0  0  0
  190.4630  177.8170  142.7320 C   0  0  0  0  0  2  0  0  0  0  0  0
  190.3960  176.1650  140.9530 N   0  0  0  0  0  1  0  0  0  0  0  0
  190.2960  177.5850  141.2400 C   0  0  1  0  0  3  0  0  0  0  0  0
  188.9740  178.1090  140.7650 C   0  0  0  0  0  0  0  0  0  0  0  0
  188.2940  178.8220  141.4890 O   0  0  0  0  0  0  0  0  0  0  0  0
  188.5090  177.7830  139.3770 C   0  0  0  0  0  2  0  0  0  0  0  0
  188.8770  179.3450  137.5240 N   0  0  0  0  0  1  0  0  0  0  0  0
  189.4760  178.2590  138.2870 C   0  0  2  0  0  3  0  0  0  0  0  0
  189.0570  175.8920  137.5370 C   0  0  0  0  0  2  0  0  0  0  0  0
  191.3840  175.2210  137.2400 C   0  0  0  0  0  2  0  0  0  0  0  0
  189.9220  177.1250  137.3600 C   0  0  0  0  0  3  0  0  0  0  0  0
  189.9600  174.6970  137.2900 C   0  0  0  0  0  2  0  0  0  0  0  0
  191.3250  176.6640  137.6880 C   0  0  0  0  0  2  0  0  0  0  0  0
  1  9  1  0  0  0  0
  2  8  1  0  0  0  0
  4  7  1  0  0  0  0
  5  1  2  0  0  0  0
  5  2  1  0  0  0  0
  6  2  2  0  0  0  0
  6 10  1  0  0  0  0
  8  3  1  0  0  0  0
  8  7  2  0  0  0  0
  9  3  2  0  0  0  0
 10  4  2  0  0  0  0
 11 10  1  0  0  0  0
 11 13  1  0  0  0  0
 12 13  1  0  0  0  0
 14 15  1  0  0  0  0
 14 11  2  0  0  0  0
 15 12  2  0  0  0  0
 16 17  1  1  0  0  0
 16 15  1  0  0  0  0
 18 22  1  0  0  0  0
 19 16  1  0  0  0  0
 20 19  1  0  0  0  0
 21 18  1  0  0  0  0
 21 20  1  0  0  0  0
 22 19  1  0  0  0  0
 23  5  1  0  0  0  0
 24 23  1  0  0  0  0
 26 25  1  1  0  0  0
 26 24  1  0  0  0  0
 27 26  1  0  0  0  0
 27 28  2  0  0  0  0
 29 27  1  0  0  0  0
 31 30  1  6  0  0  0
 31 29  1  0  0  0  0
 33 35  1  0  0  0  0
 33 36  1  0  0  0  0
 34 32  1  0  0  0  0
 34 36  1  0  0  0  0
 34 31  1  0  0  0  0
 35 32  1  0  0  0  0
M  END
>  <MODEL>
1

>  <REMARK>
 VINA RESULT:      -9.9      0.000      0.000
  Name = 
  10 active torsions:
  status: ('A' for Active; 'I' for Inactive)
    1  A    between atoms: N_5  and  C_7
    2  A    between atoms: C_7  and  C_32
    3  A    between atoms: C_11  and  C_21
    4  A    between atoms: C_14  and  C_35
    5  A    between atoms: C_20  and  C_31
    6  A    between atoms: C_20  and  C_34
    7  A    between atoms: C_21  and  C_25
    8  A    between atoms: C_25  and  C_31
    9  A    between atoms: C_26  and  C_27
   10  A    between atoms: C_27  and  C_34
                            x       y       z     vdW  Elec       q    Type
                         _______ _______ _______ _____ _____    ______ ____

>  <TORSDO>
F 10

$$$$
=
 OpenBabel10232411113D

 36 40  0  0  1  0  0  0  0  0999 V2000
  187.1580  177.9740  146.7480 C   0  0  0  0  0  3  0  0  0  0  0  0
  185.9170  178.3180  144.7130 C   0  0  0  0  0  0  0  0  0  0  0  0
  184.9090  178.6530  146.8550 N   0  0  0  0  0  0  0  0  0  0  0  0
  183.4890  179.0160  143.4990 C   0  0  0  0  0  3  0  0  0  0  0  0
  187.1160  177.9710  145.3540 C   0  0  0  0  0  0  0  0  0  0  0  0
  185.8020  178.3280  143.3160 C   0  0  0  0  0  3  0  0  0  0  0  0
  183.5930  179.0130  144.8930 C   0  0  0  0  0  3  0  0  0  0  0  0
  184.8020  178.6640  145.5010 C   0  0  0  0  0  0  0  0  0  0  0  0
  186.0520  178.3190  147.4590 N   0  0  0  0  0  0  0  0  0  0  0  0
  184.5910  178.6740  142.7040 C   0  0  0  0  0  0  0  0  0  0  0  0
  184.4860  178.6710  141.2390 C   0  0  0  0  0  0  0  0  0  0  0  0
  184.7360  179.3180  139.2220 N   0  0  0  0  0  0  0  0  0  0  0  0
  184.9870  179.6020  140.4630 O   0  0  0  0  0  0  0  0  0  0  0  0
  183.8690  177.7090  140.5250 N   0  0  0  0  0  0  0  0  0  0  0  0
  184.0450  178.1640  139.2670 C   0  0  0  0  0  0  0  0  0  0  0  0
  183.5840  177.4370  138.0440 C   0  0  2  0  0  3  0  0  0  0  0  0
  183.2510  176.1110  138.3500 O   0  0  0  0  0  1  0  0  0  0  0  0
  186.4470  176.4440  135.9140 C   0  0  0  0  0  2  0  0  0  0  0  0
  184.5840  177.5230  136.9730 N   0  0  0  0  0  0  0  0  0  0  0  0
  183.9540  177.1010  135.7300 C   0  0  0  0  0  2  0  0  0  0  0  0
  185.2370  176.5350  134.5710 S   0  0  0  0  0  0  0  0  0  0  0  0
  185.6870  176.5990  137.2100 C   0  0  0  0  0  2  0  0  0  0  0  0
  188.3340  177.5730  144.5830 C   0  0  0  0  0  2  0  0  0  0  0  0
  189.3680  176.9710  145.5200 C   0  0  0  0  0  2  0  0  0  0  0  0
  191.7000  177.0940  146.1920 N   0  0  0  0  0  1  0  0  0  0  0  0
  190.7560  177.4710  145.1540 C   0  0  1  0  0  3  0  0  0  0  0  0
  191.1950  176.9040  143.8360 C   0  0  0  0  0  0  0  0  0  0  0  0
  191.4790  175.7200  143.7360 O   0  0  0  0  0  0  0  0  0  0  0  0
  191.2440  177.7970  142.6320 C   0  0  0  0  0  2  0  0  0  0  0  0
  192.4000  177.6050  140.4790 N   0  0  0  0  0  1  0  0  0  0  0  0
  191.3560  177.0250  141.3120 C   0  0  2  0  0  3  0  0  0  0  0  0
  190.1930  177.4000  139.1110 C   0  0  0  0  0  2  0  0  0  0  0  0
  188.0890  178.2690  139.9890 C   0  0  0  0  0  2  0  0  0  0  0  0
  190.0270  176.9640  140.5530 C   0  0  0  0  0  3  0  0  0  0  0  0
  188.8910  178.0750  138.7160 C   0  0  0  0  0  2  0  0  0  0  0  0
  189.0140  177.9260  141.1350 C   0  0  0  0  0  2  0  0  0  0  0  0
  1  9  1  0  0  0  0
  2  5  1  0  0  0  0
  2  8  1  0  0  0  0
  3  9  2  0  0  0  0
  4  7  1  0  0  0  0
  5  1  2  0  0  0  0
  6  2  2  0  0  0  0
  7  8  2  0  0  0  0
  8  3  1  0  0  0  0
 10  6  1  0  0  0  0
 10  4  2  0  0  0  0
 11 10  1  0  0  0  0
 12 15  2  0  0  0  0
 12 13  1  0  0  0  0
 13 11  1  0  0  0  0
 14 11  2  0  0  0  0
 15 14  1  0  0  0  0
 16 17  1  1  0  0  0
 16 15  1  0  0  0  0
 18 22  1  0  0  0  0
 19 22  1  0  0  0  0
 19 16  1  0  0  0  0
 20 19  1  0  0  0  0
 21 20  1  0  0  0  0
 21 18  1  0  0  0  0
 23  5  1  0  0  0  0
 23 24  1  0  0  0  0
 26 24  1  0  0  0  0
 26 25  1  1  0  0  0
 27 26  1  0  0  0  0
 28 27  2  0  0  0  0
 29 27  1  0  0  0  0
 31 30  1  6  0  0  0
 31 29  1  0  0  0  0
 32 34  1  0  0  0  0
 33 36  1  0  0  0  0
 34 36  1  0  0  0  0
 34 31  1  0  0  0  0
 35 32  1  0  0  0  0
 35 33  1  0  0  0  0
M  END
>  <MODEL>
2

>  <REMARK>
 VINA RESULT:      -9.8      2.561      5.024
  Name = 
  10 active torsions:
  status: ('A' for Active; 'I' for Inactive)
    1  A    between atoms: N_5  and  C_7
    2  A    between atoms: C_7  and  C_32
    3  A    between atoms: C_11  and  C_21
    4  A    between atoms: C_14  and  C_35
    5  A    between atoms: C_20  and  C_31
    6  A    between atoms: C_20  and  C_34
    7  A    between atoms: C_21  and  C_25
    8  A    between atoms: C_25  and  C_31
    9  A    between atoms: C_26  and  C_27
   10  A    between atoms: C_27  and  C_34
                            x       y       z     vdW  Elec       q    Type
                         _______ _______ _______ _____ _____    ______ ____

>  <TORSDO>
F 10

$$$$
=
 OpenBabel10232411113D

 36 40  0  0  1  0  0  0  0  0999 V2000
  189.4710  177.1020  146.8040 C   0  0  0  0  0  3  0  0  0  0  0  0
  187.4330  177.7320  145.6870 C   0  0  0  0  0  0  0  0  0  0  0  0
  187.6800  177.9780  148.0520 N   0  0  0  0  0  0  0  0  0  0  0  0
  184.8310  178.7560  145.8870 C   0  0  0  0  0  3  0  0  0  0  0  0
  188.7380  177.2210  145.6240 C   0  0  0  0  0  0  0  0  0  0  0  0
  186.6380  177.8710  144.5410 C   0  0  0  0  0  3  0  0  0  0  0  0
  185.6170  178.6240  147.0360 C   0  0  0  0  0  3  0  0  0  0  0  0
  186.9140  178.1130  146.9400 C   0  0  0  0  0  0  0  0  0  0  0  0
  188.9200  177.4870  147.9860 N   0  0  0  0  0  0  0  0  0  0  0  0
  185.3370  178.3800  144.6360 C   0  0  0  0  0  0  0  0  0  0  0  0
  184.5150  178.5110  143.4250 C   0  0  0  0  0  0  0  0  0  0  0  0
  182.7760  178.7420  142.2120 N   0  0  0  0  0  0  0  0  0  0  0  0
  183.2110  178.6450  143.4310 O   0  0  0  0  0  0  0  0  0  0  0  0
  185.0090  178.5150  142.1710 N   0  0  0  0  0  0  0  0  0  0  0  0
  183.8790  178.6540  141.4460 C   0  0  0  0  0  0  0  0  0  0  0  0
  183.8510  178.7650  139.9550 C   0  0  2  0  0  3  0  0  0  0  0  0
  184.5670  179.8910  139.5270 O   0  0  0  0  0  1  0  0  0  0  0  0
  180.9940  179.5310  137.7270 C   0  0  0  0  0  2  0  0  0  0  0  0
  182.4720  178.7630  139.4530 N   0  0  0  0  0  0  0  0  0  0  0  0
  182.2510  177.5130  138.7400 C   0  0  0  0  0  2  0  0  0  0  0  0
  180.8870  177.7320  137.5570 S   0  0  0  0  0  0  0  0  0  0  0  0
  182.2650  179.8320  138.4840 C   0  0  0  0  0  2  0  0  0  0  0  0
  189.3480  176.7770  144.3330 C   0  0  0  0  0  2  0  0  0  0  0  0
  190.1560  177.9100  143.7220 C   0  0  0  0  0  2  0  0  0  0  0  0
  191.6740  176.0200  143.5590 N   0  0  0  0  0  1  0  0  0  0  0  0
  191.4100  177.3600  143.0640 C   0  0  1  0  0  3  0  0  0  0  0  0
  191.2590  177.3310  141.5720 C   0  0  0  0  0  0  0  0  0  0  0  0
  192.1890  177.6590  140.8500 O   0  0  0  0  0  0  0  0  0  0  0  0
  189.9680  176.8580  140.9730 C   0  0  0  0  0  2  0  0  0  0  0  0
  188.1660  178.5140  140.8490 N   0  0  0  0  0  1  0  0  0  0  0  0
  189.2750  177.9210  140.1140 C   0  0  2  0  0  3  0  0  0  0  0  0
  189.7580  177.7410  137.6500 C   0  0  0  0  0  2  0  0  0  0  0  0
  187.4610  177.9190  136.8460 C   0  0  0  0  0  2  0  0  0  0  0  0
  188.8010  177.3710  138.7650 C   0  0  0  0  0  3  0  0  0  0  0  0
  188.9130  177.9180  136.4010 C   0  0  0  0  0  2  0  0  0  0  0  0
  187.4760  177.9800  138.3570 C   0  0  0  0  0  2  0  0  0  0  0  0
  1  9  1  0  0  0  0
  2  8  1  0  0  0  0
  4  7  1  0  0  0  0
  5  2  1  0  0  0  0
  5  1  2  0  0  0  0
  6 10  1  0  0  0  0
  6  2  2  0  0  0  0
  8  7  2  0  0  0  0
  8  3  1  0  0  0  0
  9  3  2  0  0  0  0
 10  4  2  0  0  0  0
 11 13  1  0  0  0  0
 11 10  1  0  0  0  0
 12 13  1  0  0  0  0
 14 11  2  0  0  0  0
 15 14  1  0  0  0  0
 15 12  2  0  0  0  0
 16 17  1  1  0  0  0
 16 15  1  0  0  0  0
 18 22  1  0  0  0  0
 19 16  1  0  0  0  0
 20 19  1  0  0  0  0
 21 18  1  0  0  0  0
 21 20  1  0  0  0  0
 22 19  1  0  0  0  0
 23  5  1  0  0  0  0
 24 23  1  0  0  0  0
 26 25  1  1  0  0  0
 26 24  1  0  0  0  0
 27 26  1  0  0  0  0
 28 27  2  0  0  0  0
 29 27  1  0  0  0  0
 31 30  1  1  0  0  0
 31 29  1  0  0  0  0
 32 34  1  0  0  0  0
 33 36  1  0  0  0  0
 34 31  1  0  0  0  0
 35 33  1  0  0  0  0
 35 32  1  0  0  0  0
 36 34  1  0  0  0  0
M  END
>  <MODEL>
3

>  <REMARK>
 VINA RESULT:      -9.6      2.161      3.216
  Name = 
  10 active torsions:
  status: ('A' for Active; 'I' for Inactive)
    1  A    between atoms: N_5  and  C_7
    2  A    between atoms: C_7  and  C_32
    3  A    between atoms: C_11  and  C_21
    4  A    between atoms: C_14  and  C_35
    5  A    between atoms: C_20  and  C_31
    6  A    between atoms: C_20  and  C_34
    7  A    between atoms: C_21  and  C_25
    8  A    between atoms: C_25  and  C_31
    9  A    between atoms: C_26  and  C_27
   10  A    between atoms: C_27  and  C_34
                            x       y       z     vdW  Elec       q    Type
                         _______ _______ _______ _____ _____    ______ ____

>  <TORSDO>
F 10

$$$$
=
 OpenBabel10232411113D

 36 40  0  0  1  0  0  0  0  0999 V2000
  191.6650  176.8400  145.0200 C   0  0  0  0  0  3  0  0  0  0  0  0
  189.3810  177.4100  145.5310 C   0  0  0  0  0  0  0  0  0  0  0  0
  190.9200  176.7850  147.2510 N   0  0  0  0  0  0  0  0  0  0  0  0
  187.3860  177.7170  147.4760 C   0  0  0  0  0  3  0  0  0  0  0  0
  190.4030  177.2430  144.5840 C   0  0  0  0  0  0  0  0  0  0  0  0
  188.0880  177.8050  145.1610 C   0  0  0  0  0  3  0  0  0  0  0  0
  188.6730  177.3250  147.8560 C   0  0  0  0  0  3  0  0  0  0  0  0
  189.6690  177.1700  146.8890 C   0  0  0  0  0  0  0  0  0  0  0  0
  191.8870  176.6250  146.3450 N   0  0  0  0  0  0  0  0  0  0  0  0
  187.0870  177.9580  146.1280 C   0  0  0  0  0  0  0  0  0  0  0  0
  185.7360  178.3650  145.7220 C   0  0  0  0  0  0  0  0  0  0  0  0
  183.7250  179.0560  145.8950 N   0  0  0  0  0  0  0  0  0  0  0  0
  184.8030  178.7600  146.5540 O   0  0  0  0  0  0  0  0  0  0  0  0
  185.3020  178.3870  144.4450 N   0  0  0  0  0  0  0  0  0  0  0  0
  184.0340  178.8180  144.6070 C   0  0  0  0  0  0  0  0  0  0  0  0
  183.0880  179.0710  143.4780 C   0  0  2  0  0  3  0  0  0  0  0  0
  181.7820  178.7060  143.8320 O   0  0  0  0  0  1  0  0  0  0  0  0
  183.1040  178.0300  139.9230 C   0  0  0  0  0  2  0  0  0  0  0  0
  183.5370  178.3960  142.2540 N   0  0  0  0  0  0  0  0  0  0  0  0
  184.6170  179.1790  141.6740 C   0  0  0  0  0  2  0  0  0  0  0  0
  184.7350  178.8130  139.8960 S   0  0  0  0  0  0  0  0  0  0  0  0
  182.4740  178.3570  141.2560 C   0  0  0  0  0  2  0  0  0  0  0  0
  190.1650  177.4590  143.1240 C   0  0  0  0  0  2  0  0  0  0  0  0
  191.3270  176.8990  142.3200 C   0  0  0  0  0  2  0  0  0  0  0  0
  192.7360  177.3970  140.4040 N   0  0  0  0  0  1  0  0  0  0  0  0
  191.4150  177.5990  140.9740 C   0  0  1  0  0  3  0  0  0  0  0  0
  190.3690  177.0790  140.0340 C   0  0  0  0  0  0  0  0  0  0  0  0
  190.4760  175.9640  139.5450 O   0  0  0  0  0  0  0  0  0  0  0  0
  189.1680  177.9240  139.7290 C   0  0  0  0  0  2  0  0  0  0  0  0
  189.0070  179.4710  137.8340 N   0  0  0  0  0  1  0  0  0  0  0  0
  188.8990  178.0730  138.2270 C   0  0  2  0  0  3  0  0  0  0  0  0
  187.6710  176.0530  137.3600 C   0  0  0  0  0  2  0  0  0  0  0  0
  186.0830  177.2220  135.9230 C   0  0  0  0  0  2  0  0  0  0  0  0
  187.5430  177.4950  137.8120 C   0  0  0  0  0  3  0  0  0  0  0  0
  186.6230  175.8490  136.2810 C   0  0  0  0  0  2  0  0  0  0  0  0
  186.9750  178.2270  136.6160 C   0  0  0  0  0  2  0  0  0  0  0  0
  1  9  1  0  0  0  0
  2  8  1  0  0  0  0
  4  7  1  0  0  0  0
  5  1  2  0  0  0  0
  5  2  1  0  0  0  0
  6  2  2  0  0  0  0
  6 10  1  0  0  0  0
  8  3  1  0  0  0  0
  8  7  2  0  0  0  0
  9  3  2  0  0  0  0
 10  4  2  0  0  0  0
 11 10  1  0  0  0  0
 11 13  1  0  0  0  0
 12 13  1  0  0  0  0
 14 15  1  0  0  0  0
 14 11  2  0  0  0  0
 15 12  2  0  0  0  0
 16 17  1  1  0  0  0
 16 15  1  0  0  0  0
 18 22  1  0  0  0  0
 19 16  1  0  0  0  0
 20 19  1  0  0  0  0
 21 18  1  0  0  0  0
 21 20  1  0  0  0  0
 22 19  1  0  0  0  0
 23  5  1  0  0  0  0
 24 23  1  0  0  0  0
 26 25  1  6  0  0  0
 26 24  1  0  0  0  0
 27 26  1  0  0  0  0
 28 27  2  0  0  0  0
 29 27  1  0  0  0  0
 31 30  1  1  0  0  0
 31 29  1  0  0  0  0
 32 34  1  0  0  0  0
 33 35  1  0  0  0  0
 33 36  1  0  0  0  0
 34 31  1  0  0  0  0
 35 32  1  0  0  0  0
 36 34  1  0  0  0  0
M  END
>  <MODEL>
4

>  <REMARK>
 VINA RESULT:      -9.6      1.378      1.775
  Name = 
  10 active torsions:
  status: ('A' for Active; 'I' for Inactive)
    1  A    between atoms: N_5  and  C_7
    2  A    between atoms: C_7  and  C_32
    3  A    between atoms: C_11  and  C_21
    4  A    between atoms: C_14  and  C_35
    5  A    between atoms: C_20  and  C_31
    6  A    between atoms: C_20  and  C_34
    7  A    between atoms: C_21  and  C_25
    8  A    between atoms: C_25  and  C_31
    9  A    between atoms: C_26  and  C_27
   10  A    between atoms: C_27  and  C_34
                            x       y       z     vdW  Elec       q    Type
                         _______ _______ _______ _____ _____    ______ ____

>  <TORSDO>
F 10

$$$$
=
 OpenBabel10232411113D

 36 40  0  0  1  0  0  0  0  0999 V2000
  187.0810  177.7530  146.7610 C   0  0  0  0  0  3  0  0  0  0  0  0
  185.8900  178.2290  144.7220 C   0  0  0  0  0  0  0  0  0  0  0  0
  184.9170  178.6710  146.8610 N   0  0  0  0  0  0  0  0  0  0  0  0
  183.5540  179.1850  143.5020 C   0  0  0  0  0  3  0  0  0  0  0  0
  187.0420  177.7540  145.3670 C   0  0  0  0  0  0  0  0  0  0  0  0
  185.7800  178.2500  143.3250 C   0  0  0  0  0  3  0  0  0  0  0  0
  183.6540  179.1700  144.8960 C   0  0  0  0  0  3  0  0  0  0  0  0
  184.8160  178.6930  145.5080 C   0  0  0  0  0  0  0  0  0  0  0  0
  186.0150  178.2150  147.4690 N   0  0  0  0  0  0  0  0  0  0  0  0
  184.6160  178.7250  142.7100 C   0  0  0  0  0  0  0  0  0  0  0  0
  184.5160  178.7330  141.2450 C   0  0  0  0  0  0  0  0  0  0  0  0
  184.8850  179.3110  139.2250 N   0  0  0  0  0  0  0  0  0  0  0  0
  185.1820  179.5510  140.4650 O   0  0  0  0  0  0  0  0  0  0  0  0
  183.7330  177.8980  140.5340 N   0  0  0  0  0  0  0  0  0  0  0  0
  183.9930  178.3050  139.2740 C   0  0  0  0  0  0  0  0  0  0  0  0
  183.4080  177.6690  138.0530 C   0  0  2  0  0  3  0  0  0  0  0  0
  182.3770  178.4590  137.5260 O   0  0  0  0  0  1  0  0  0  0  0  0
  181.1800  174.7100  138.1080 C   0  0  0  0  0  2  0  0  0  0  0  0
  182.9630  176.2990  138.3360 N   0  0  0  0  0  0  0  0  0  0  0  0
  183.5410  175.4190  137.3310 C   0  0  0  0  0  2  0  0  0  0  0  0
  182.5280  173.9140  137.2000 S   0  0  0  0  0  0  0  0  0  0  0  0
  181.5160  176.1790  138.2050 C   0  0  0  0  0  2  0  0  0  0  0  0
  188.2120  177.2270  144.6000 C   0  0  0  0  0  2  0  0  0  0  0  0
  189.4780  177.9610  145.0110 C   0  0  0  0  0  2  0  0  0  0  0  0
  191.6460  178.7200  144.2200 N   0  0  0  0  0  1  0  0  0  0  0  0
  190.3530  178.2120  143.7950 C   0  0  1  0  0  3  0  0  0  0  0  0
  190.5360  176.9530  143.0020 C   0  0  0  0  0  0  0  0  0  0  0  0
  191.2290  176.0440  143.4360 O   0  0  0  0  0  0  0  0  0  0  0  0
  189.8300  176.8020  141.6880 C   0  0  0  0  0  2  0  0  0  0  0  0
  191.9760  177.6570  140.8710 N   0  0  0  0  0  1  0  0  0  0  0  0
  190.7600  176.9600  140.4790 C   0  0  2  0  0  3  0  0  0  0  0  0
  188.6060  177.8960  139.5710 C   0  0  0  0  0  2  0  0  0  0  0  0
  188.9250  177.2590  137.2370 C   0  0  0  0  0  2  0  0  0  0  0  0
  190.0810  177.6700  139.3040 C   0  0  0  0  0  3  0  0  0  0  0  0
  187.9090  177.8010  138.2250 C   0  0  0  0  0  2  0  0  0  0  0  0
  190.1240  176.8220  138.0510 C   0  0  0  0  0  2  0  0  0  0  0  0
  1  9  1  0  0  0  0
  2  5  1  0  0  0  0
  2  8  1  0  0  0  0
  3  9  2  0  0  0  0
  4  7  1  0  0  0  0
  5  1  2  0  0  0  0
  6  2  2  0  0  0  0
  7  8  2  0  0  0  0
  8  3  1  0  0  0  0
 10  6  1  0  0  0  0
 10  4  2  0  0  0  0
 11 10  1  0  0  0  0
 12 15  2  0  0  0  0
 12 13  1  0  0  0  0
 13 11  1  0  0  0  0
 14 11  2  0  0  0  0
 15 14  1  0  0  0  0
 16 17  1  1  0  0  0
 16 19  1  0  0  0  0
 16 15  1  0  0  0  0
 18 22  1  0  0  0  0
 20 19  1  0  0  0  0
 21 20  1  0  0  0  0
 21 18  1  0  0  0  0
 22 19  1  0  0  0  0
 23 24  1  0  0  0  0
 23  5  1  0  0  0  0
 26 25  1  1  0  0  0
 26 24  1  0  0  0  0
 27 28  2  0  0  0  0
 27 26  1  0  0  0  0
 29 27  1  0  0  0  0
 31 30  1  1  0  0  0
 31 29  1  0  0  0  0
 33 36  1  0  0  0  0
 33 35  1  0  0  0  0
 34 32  1  0  0  0  0
 34 31  1  0  0  0  0
 35 32  1  0  0  0  0
 36 34  1  0  0  0  0
M  END
>  <MODEL>
5

>  <REMARK>
 VINA RESULT:      -9.2      2.607      4.653
  Name = 
  10 active torsions:
  status: ('A' for Active; 'I' for Inactive)
    1  A    between atoms: N_5  and  C_7
    2  A    between atoms: C_7  and  C_32
    3  A    between atoms: C_11  and  C_21
    4  A    between atoms: C_14  and  C_35
    5  A    between atoms: C_20  and  C_31
    6  A    between atoms: C_20  and  C_34
    7  A    between atoms: C_21  and  C_25
    8  A    between atoms: C_25  and  C_31
    9  A    between atoms: C_26  and  C_27
   10  A    between atoms: C_27  and  C_34
                            x       y       z     vdW  Elec       q    Type
                         _______ _______ _______ _____ _____    ______ ____

>  <TORSDO>
F 10

$$$$
=
 OpenBabel10232411113D

 36 40  0  0  1  0  0  0  0  0999 V2000
  187.7700  177.5180  147.4480 C   0  0  0  0  0  3  0  0  0  0  0  0
  188.8830  177.3370  145.3200 C   0  0  0  0  0  0  0  0  0  0  0  0
  190.1180  177.6020  147.3510 N   0  0  0  0  0  0  0  0  0  0  0  0
  191.2980  177.2980  143.8970 C   0  0  0  0  0  3  0  0  0  0  0  0
  187.6940  177.3640  146.0640 C   0  0  0  0  0  0  0  0  0  0  0  0
  188.8800  177.1940  143.9260 C   0  0  0  0  0  3  0  0  0  0  0  0
  191.3130  177.4390  145.2880 C   0  0  0  0  0  3  0  0  0  0  0  0
  190.1110  177.4600  146.0000 C   0  0  0  0  0  0  0  0  0  0  0  0
  188.9830  177.6300  148.0520 N   0  0  0  0  0  0  0  0  0  0  0  0
  190.0830  177.1760  143.2100 C   0  0  0  0  0  0  0  0  0  0  0  0
  190.0600  177.0320  141.7490 C   0  0  0  0  0  0  0  0  0  0  0  0
  190.4960  176.2400  139.8160 N   0  0  0  0  0  0  0  0  0  0  0  0
  190.7200  176.1120  141.0880 O   0  0  0  0  0  0  0  0  0  0  0  0
  189.3530  177.8260  140.9200 N   0  0  0  0  0  0  0  0  0  0  0  0
  189.6660  177.2950  139.7190 C   0  0  0  0  0  0  0  0  0  0  0  0
  189.1030  177.7780  138.4210 C   0  0  2  0  0  3  0  0  0  0  0  0
  188.9420  179.1700  138.4360 O   0  0  0  0  0  1  0  0  0  0  0  0
  185.6980  177.2610  137.0600 C   0  0  0  0  0  2  0  0  0  0  0  0
  187.8530  177.0800  138.0970 N   0  0  0  0  0  0  0  0  0  0  0  0
  188.0790  176.2700  136.9100 C   0  0  0  0  0  2  0  0  0  0  0  0
  186.4880  175.9560  136.0870 S   0  0  0  0  0  0  0  0  0  0  0  0
  186.7970  178.0270  137.7550 C   0  0  0  0  0  2  0  0  0  0  0  0
  186.3540  177.2600  145.4100 C   0  0  0  0  0  2  0  0  0  0  0  0
  185.8390  178.6460  145.0570 C   0  0  0  0  0  2  0  0  0  0  0  0
  183.6080  179.5370  144.6970 N   0  0  0  0  0  1  0  0  0  0  0  0
  184.5570  178.5340  144.2470 C   0  0  1  0  0  3  0  0  0  0  0  0
  184.8340  178.7140  142.7850 C   0  0  0  0  0  0  0  0  0  0  0  0
  185.9750  178.6250  142.3560 O   0  0  0  0  0  0  0  0  0  0  0  0
  183.6930  178.9660  141.8450 C   0  0  0  0  0  2  0  0  0  0  0  0
  184.4790  179.7860  139.6740 N   0  0  0  0  0  1  0  0  0  0  0  0
  184.0160  178.6070  140.3910 C   0  0  2  0  0  3  0  0  0  0  0  0
  181.5340  178.1850  140.4200 C   0  0  0  0  0  2  0  0  0  0  0  0
  181.5700  175.9210  139.5120 C   0  0  0  0  0  2  0  0  0  0  0  0
  182.8300  177.9620  139.6670 C   0  0  0  0  0  3  0  0  0  0  0  0
  180.6780  176.9560  140.1720 C   0  0  0  0  0  2  0  0  0  0  0  0
  182.9820  176.4580  139.5930 C   0  0  0  0  0  2  0  0  0  0  0  0
  1  9  1  0  0  0  0
  2  8  1  0  0  0  0
  2  5  1  0  0  0  0
  3  9  2  0  0  0  0
  4  7  1  0  0  0  0
  5  1  2  0  0  0  0
  6  2  2  0  0  0  0
  7  8  2  0  0  0  0
  8  3  1  0  0  0  0
 10  4  2  0  0  0  0
 10  6  1  0  0  0  0
 11 10  1  0  0  0  0
 12 13  1  0  0  0  0
 13 11  1  0  0  0  0
 14 11  2  0  0  0  0
 15 12  2  0  0  0  0
 15 14  1  0  0  0  0
 16 17  1  1  0  0  0
 16 15  1  0  0  0  0
 18 22  1  0  0  0  0
 19 16  1  0  0  0  0
 20 19  1  0  0  0  0
 21 20  1  0  0  0  0
 21 18  1  0  0  0  0
 22 19  1  0  0  0  0
 23  5  1  0  0  0  0
 24 23  1  0  0  0  0
 26 25  1  1  0  0  0
 26 24  1  0  0  0  0
 27 26  1  0  0  0  0
 28 27  2  0  0  0  0
 29 27  1  0  0  0  0
 31 30  1  6  0  0  0
 31 29  1  0  0  0  0
 33 36  1  0  0  0  0
 33 35  1  0  0  0  0
 34 31  1  0  0  0  0
 34 32  1  0  0  0  0
 35 32  1  0  0  0  0
 36 34  1  0  0  0  0
M  END
>  <MODEL>
6

>  <REMARK>
 VINA RESULT:      -9.1      2.036      6.181
  Name = 
  10 active torsions:
  status: ('A' for Active; 'I' for Inactive)
    1  A    between atoms: N_5  and  C_7
    2  A    between atoms: C_7  and  C_32
    3  A    between atoms: C_11  and  C_21
    4  A    between atoms: C_14  and  C_35
    5  A    between atoms: C_20  and  C_31
    6  A    between atoms: C_20  and  C_34
    7  A    between atoms: C_21  and  C_25
    8  A    between atoms: C_25  and  C_31
    9  A    between atoms: C_26  and  C_27
   10  A    between atoms: C_27  and  C_34
                            x       y       z     vdW  Elec       q    Type
                         _______ _______ _______ _____ _____    ______ ____

>  <TORSDO>
F 10

$$$$
=
 OpenBabel10232411113D

 36 40  0  0  1  0  0  0  0  0999 V2000
  184.1120  178.6870  145.8320 C   0  0  0  0  0  3  0  0  0  0  0  0
  186.0230  178.1910  144.4540 C   0  0  0  0  0  0  0  0  0  0  0  0
  186.1710  178.1620  146.8400 N   0  0  0  0  0  0  0  0  0  0  0  0
  188.7390  177.5080  144.3130 C   0  0  0  0  0  3  0  0  0  0  0  0
  184.6680  178.5350  144.5620 C   0  0  0  0  0  0  0  0  0  0  0  0
  186.6490  178.0310  143.2090 C   0  0  0  0  0  3  0  0  0  0  0  0
  188.1250  177.6630  145.5590 C   0  0  0  0  0  3  0  0  0  0  0  0
  186.7720  178.0040  145.6330 C   0  0  0  0  0  0  0  0  0  0  0  0
  184.8810  178.4930  146.9360 N   0  0  0  0  0  0  0  0  0  0  0  0
  188.0050  177.6920  143.1330 C   0  0  0  0  0  0  0  0  0  0  0  0
  188.6450  177.5350  141.8200 C   0  0  0  0  0  0  0  0  0  0  0  0
  190.0190  176.8440  140.3420 N   0  0  0  0  0  0  0  0  0  0  0  0
  189.6920  176.7780  141.5960 O   0  0  0  0  0  0  0  0  0  0  0  0
  188.2250  178.1470  140.6950 N   0  0  0  0  0  0  0  0  0  0  0  0
  189.1230  177.6880  139.7980 C   0  0  0  0  0  0  0  0  0  0  0  0
  189.0950  178.0250  138.3410 C   0  0  2  0  0  3  0  0  0  0  0  0
  188.9800  179.4090  138.1530 O   0  0  0  0  0  1  0  0  0  0  0  0
  186.6760  177.1480  135.6780 C   0  0  0  0  0  2  0  0  0  0  0  0
  188.0340  177.2830  137.6510 N   0  0  0  0  0  0  0  0  0  0  0  0
  188.6330  176.1190  137.0150 C   0  0  0  0  0  2  0  0  0  0  0  0
  187.5760  175.5790  135.6370 S   0  0  0  0  0  0  0  0  0  0  0  0
  187.4470  178.0810  136.5800 C   0  0  0  0  0  2  0  0  0  0  0  0
  183.8160  178.7690  143.3550 C   0  0  0  0  0  2  0  0  0  0  0  0
  182.4910  179.3900  143.7660 C   0  0  0  0  0  2  0  0  0  0  0  0
  180.2810  178.4300  144.0750 N   0  0  0  0  0  1  0  0  0  0  0  0
  181.3410  178.6470  143.1060 C   0  0  1  0  0  3  0  0  0  0  0  0
  180.8120  179.4180  141.9340 C   0  0  0  0  0  0  0  0  0  0  0  0
  180.2520  180.4920  142.1020 O   0  0  0  0  0  0  0  0  0  0  0  0
  181.0090  178.8790  140.5490 C   0  0  0  0  0  2  0  0  0  0  0  0
  182.2830  180.0060  138.7830 N   0  0  0  0  0  1  0  0  0  0  0  0
  182.3990  179.1790  139.9760 C   0  0  2  0  0  3  0  0  0  0  0  0
  183.7580  177.9210  138.2690 C   0  0  0  0  0  2  0  0  0  0  0  0
  182.9820  175.6740  138.8170 C   0  0  0  0  0  2  0  0  0  0  0  0
  183.1990  177.9070  139.6790 C   0  0  0  0  0  3  0  0  0  0  0  0
  183.7720  176.4770  137.8010 C   0  0  0  0  0  2  0  0  0  0  0  0
  182.3190  176.6770  139.7350 C   0  0  0  0  0  2  0  0  0  0  0  0
  1  9  1  0  0  0  0
  2  5  1  0  0  0  0
  2  8  1  0  0  0  0
  3  9  2  0  0  0  0
  4  7  1  0  0  0  0
  5  1  2  0  0  0  0
  6  2  2  0  0  0  0
  7  8  2  0  0  0  0
  8  3  1  0  0  0  0
 10  6  1  0  0  0  0
 10  4  2  0  0  0  0
 11 10  1  0  0  0  0
 12 13  1  0  0  0  0
 13 11  1  0  0  0  0
 14 11  2  0  0  0  0
 15 12  2  0  0  0  0
 15 14  1  0  0  0  0
 16 17  1  1  0  0  0
 16 15  1  0  0  0  0
 18 22  1  0  0  0  0
 19 16  1  0  0  0  0
 20 19  1  0  0  0  0
 21 18  1  0  0  0  0
 21 20  1  0  0  0  0
 22 19  1  0  0  0  0
 23 24  1  0  0  0  0
 23  5  1  0  0  0  0
 26 24  1  0  0  0  0
 26 25  1  1  0  0  0
 27 28  2  0  0  0  0
 27 26  1  0  0  0  0
 29 27  1  0  0  0  0
 31 30  1  6  0  0  0
 31 29  1  0  0  0  0
 32 34  1  0  0  0  0
 33 36  1  0  0  0  0
 34 36  1  0  0  0  0
 34 31  1  0  0  0  0
 35 32  1  0  0  0  0
 35 33  1  0  0  0  0
M  END
>  <MODEL>
7

>  <REMARK>
 VINA RESULT:      -8.9      2.722      6.911
  Name = 
  10 active torsions:
  status: ('A' for Active; 'I' for Inactive)
    1  A    between atoms: N_5  and  C_7
    2  A    between atoms: C_7  and  C_32
    3  A    between atoms: C_11  and  C_21
    4  A    between atoms: C_14  and  C_35
    5  A    between atoms: C_20  and  C_31
    6  A    between atoms: C_20  and  C_34
    7  A    between atoms: C_21  and  C_25
    8  A    between atoms: C_25  and  C_31
    9  A    between atoms: C_26  and  C_27
   10  A    between atoms: C_27  and  C_34
                            x       y       z     vdW  Elec       q    Type
                         _______ _______ _______ _____ _____    ______ ____

>  <TORSDO>
F 10

$$$$
=
 OpenBabel10232411113D

 36 40  0  0  1  0  0  0  0  0999 V2000
  188.2030  178.1360  140.6500 C   0  0  0  0  0  3  0  0  0  0  0  0
  189.9100  177.3520  139.1430 C   0  0  0  0  0  0  0  0  0  0  0  0
  187.8220  178.1870  138.3300 N   0  0  0  0  0  0  0  0  0  0  0  0
  190.7110  176.8780  136.4990 C   0  0  0  0  0  3  0  0  0  0  0  0
  189.4750  177.6000  140.4540 C   0  0  0  0  0  0  0  0  0  0  0  0
  191.1730  176.8060  138.8740 C   0  0  0  0  0  3  0  0  0  0  0  0
  189.4500  177.4250  136.7560 C   0  0  0  0  0  3  0  0  0  0  0  0
  189.0470  177.6620  138.0730 C   0  0  0  0  0  0  0  0  0  0  0  0
  187.4130  178.4180  139.5800 N   0  0  0  0  0  0  0  0  0  0  0  0
  191.5770  176.5660  137.5560 C   0  0  0  0  0  0  0  0  0  0  0  0
  192.9010  175.9870  137.2930 C   0  0  0  0  0  0  0  0  0  0  0  0
  194.7700  175.6430  136.3220 N   0  0  0  0  0  0  0  0  0  0  0  0
  193.6650  176.3220  136.2810 O   0  0  0  0  0  0  0  0  0  0  0  0
  193.4850  175.0490  138.0650 N   0  0  0  0  0  0  0  0  0  0  0  0
  194.6500  174.8610  137.4110 C   0  0  0  0  0  0  0  0  0  0  0  0
  195.7270  173.9330  137.8740 C   0  0  2  0  0  3  0  0  0  0  0  0
  195.3430  173.2720  139.0490 O   0  0  0  0  0  1  0  0  0  0  0  0
  198.8680  175.0610  139.4790 C   0  0  0  0  0  2  0  0  0  0  0  0
  197.0020  174.6430  138.0320 N   0  0  0  0  0  0  0  0  0  0  0  0
  198.0320  173.8870  137.3350 C   0  0  0  0  0  2  0  0  0  0  0  0
  199.6570  174.2980  138.0400 S   0  0  0  0  0  0  0  0  0  0  0  0
  197.4050  174.6940  139.4320 C   0  0  0  0  0  2  0  0  0  0  0  0
  190.3270  177.2780  141.6400 C   0  0  0  0  0  2  0  0  0  0  0  0
  189.9090  178.1300  142.8270 C   0  0  0  0  0  2  0  0  0  0  0  0
  191.2480  179.6870  144.1250 N   0  0  0  0  0  1  0  0  0  0  0  0
  191.0730  178.2840  143.7920 C   0  0  1  0  0  3  0  0  0  0  0  0
  190.8360  177.4900  145.0420 C   0  0  0  0  0  0  0  0  0  0  0  0
  191.7310  177.3450  145.8620 O   0  0  0  0  0  0  0  0  0  0  0  0
  189.4780  176.9070  145.2970 C   0  0  0  0  0  2  0  0  0  0  0  0
  188.9800  177.5360  147.6130 N   0  0  0  0  0  1  0  0  0  0  0  0
  188.6130  177.7700  146.2230 C   0  0  2  0  0  3  0  0  0  0  0  0
  186.7210  177.7530  144.5620 C   0  0  0  0  0  2  0  0  0  0  0  0
  184.9910  178.6670  146.0190 C   0  0  0  0  0  2  0  0  0  0  0  0
  187.1140  177.5400  146.0100 C   0  0  0  0  0  3  0  0  0  0  0  0
  185.3090  178.3080  144.5790 C   0  0  0  0  0  2  0  0  0  0  0  0
  186.2880  178.5420  146.7870 C   0  0  0  0  0  2  0  0  0  0  0  0
  2  5  2  0  0  0  0
  3  9  1  0  0  0  0
  4  7  2  0  0  0  0
  4 10  1  0  0  0  0
  5  1  1  0  0  0  0
  5 23  1  0  0  0  0
  6  2  1  0  0  0  0
  7  8  1  0  0  0  0
  8  3  2  0  0  0  0
  8  2  1  0  0  0  0
  9  1  2  0  0  0  0
 10  6  2  0  0  0  0
 11 10  1  0  0  0  0
 11 14  2  0  0  0  0
 12 15  2  0  0  0  0
 13 12  1  0  0  0  0
 13 11  1  0  0  0  0
 15 16  1  0  0  0  0
 15 14  1  0  0  0  0
 16 19  1  0  0  0  0
 16 17  1  1  0  0  0
 19 22  1  0  0  0  0
 20 19  1  0  0  0  0
 20 21  1  0  0  0  0
 21 18  1  0  0  0  0
 22 18  1  0  0  0  0
 23 24  1  0  0  0  0
 24 26  1  0  0  0  0
 26 25  1  1  0  0  0
 26 27  1  0  0  0  0
 27 29  1  0  0  0  0
 27 28  2  0  0  0  0
 29 31  1  0  0  0  0
 31 30  1  1  0  0  0
 32 35  1  0  0  0  0
 32 34  1  0  0  0  0
 33 36  1  0  0  0  0
 34 31  1  0  0  0  0
 34 36  1  0  0  0  0
 35 33  1  0  0  0  0
M  END
>  <MODEL>
8

>  <REMARK>
 VINA RESULT:      -8.9      4.637     10.568
  Name = 
  10 active torsions:
  status: ('A' for Active; 'I' for Inactive)
    1  A    between atoms: N_5  and  C_7
    2  A    between atoms: C_7  and  C_32
    3  A    between atoms: C_11  and  C_21
    4  A    between atoms: C_14  and  C_35
    5  A    between atoms: C_20  and  C_31
    6  A    between atoms: C_20  and  C_34
    7  A    between atoms: C_21  and  C_25
    8  A    between atoms: C_25  and  C_31
    9  A    between atoms: C_26  and  C_27
   10  A    between atoms: C_27  and  C_34
                            x       y       z     vdW  Elec       q    Type
                         _______ _______ _______ _____ _____    ______ ____

>  <TORSDO>
F 10

$$$$
=
 OpenBabel10232411113D

 36 40  0  0  1  0  0  0  0  0999 V2000
  188.4730  177.2940  146.5460 C   0  0  0  0  0  3  0  0  0  0  0  0
  189.3990  177.2030  144.3250 C   0  0  0  0  0  0  0  0  0  0  0  0
  190.8070  177.2580  146.2570 N   0  0  0  0  0  0  0  0  0  0  0  0
  191.6860  177.1330  142.7040 C   0  0  0  0  0  3  0  0  0  0  0  0
  188.2770  177.2420  145.1660 C   0  0  0  0  0  0  0  0  0  0  0  0
  189.2760  177.1580  142.9290 C   0  0  0  0  0  3  0  0  0  0  0  0
  191.8210  177.1750  144.0950 C   0  0  0  0  0  3  0  0  0  0  0  0
  190.6830  177.2110  144.9060 C   0  0  0  0  0  0  0  0  0  0  0  0
  189.7350  177.2980  147.0520 N   0  0  0  0  0  0  0  0  0  0  0  0
  190.4140  177.1250  142.1150 C   0  0  0  0  0  0  0  0  0  0  0  0
  190.2650  177.0850  140.6550 C   0  0  0  0  0  0  0  0  0  0  0  0
  190.4330  176.3670  138.6520 N   0  0  0  0  0  0  0  0  0  0  0  0
  190.7240  176.1210  139.8930 O   0  0  0  0  0  0  0  0  0  0  0  0
  189.6360  178.0320  139.9310 N   0  0  0  0  0  0  0  0  0  0  0  0
  189.7750  177.5410  138.6810 C   0  0  0  0  0  0  0  0  0  0  0  0
  189.2050  178.1910  137.4610 C   0  0  2  0  0  3  0  0  0  0  0  0
  188.6100  179.4180  137.7830 O   0  0  0  0  0  1  0  0  0  0  0  0
  186.1400  176.1980  136.8690 C   0  0  0  0  0  2  0  0  0  0  0  0
  188.2730  177.2890  136.7720 N   0  0  0  0  0  0  0  0  0  0  0  0
  187.5530  178.0610  135.7700 C   0  0  0  0  0  2  0  0  0  0  0  0
  185.9800  177.2300  135.3910 S   0  0  0  0  0  0  0  0  0  0  0  0
  187.2680  176.7700  137.6920 C   0  0  0  0  0  2  0  0  0  0  0  0
  186.8850  177.2560  144.6210 C   0  0  0  0  0  2  0  0  0  0  0  0
  186.1590  178.5090  145.0830 C   0  0  0  0  0  2  0  0  0  0  0  0
  184.1110  178.7900  146.3590 N   0  0  0  0  0  1  0  0  0  0  0  0
  184.6610  178.2570  145.1240 C   0  0  1  0  0  3  0  0  0  0  0  0
  183.9820  178.8930  143.9480 C   0  0  0  0  0  0  0  0  0  0  0  0
  182.7620  178.9180  143.8780 O   0  0  0  0  0  0  0  0  0  0  0  0
  184.8120  179.5330  142.8760 C   0  0  0  0  0  2  0  0  0  0  0  0
  186.3620  178.8350  141.1100 N   0  0  0  0  0  1  0  0  0  0  0  0
  185.0290  178.6280  141.6580 C   0  0  2  0  0  3  0  0  0  0  0  0
  182.9970  177.6590  140.5310 C   0  0  0  0  0  2  0  0  0  0  0  0
  183.4870  178.4050  138.2610 C   0  0  0  0  0  2  0  0  0  0  0  0
  183.9610  178.8280  140.5790 C   0  0  0  0  0  3  0  0  0  0  0  0
  182.5740  177.5120  139.0800 C   0  0  0  0  0  2  0  0  0  0  0  0
  184.5760  178.8800  139.1970 C   0  0  0  0  0  2  0  0  0  0  0  0
  1  9  1  0  0  0  0
  2  8  1  0  0  0  0
  2  5  1  0  0  0  0
  3  9  2  0  0  0  0
  4  7  1  0  0  0  0
  5  1  2  0  0  0  0
  6  2  2  0  0  0  0
  7  8  2  0  0  0  0
  8  3  1  0  0  0  0
 10  4  2  0  0  0  0
 10  6  1  0  0  0  0
 11 10  1  0  0  0  0
 12 15  2  0  0  0  0
 12 13  1  0  0  0  0
 13 11  1  0  0  0  0
 14 11  2  0  0  0  0
 15 14  1  0  0  0  0
 16 17  1  1  0  0  0
 16 15  1  0  0  0  0
 18 22  1  0  0  0  0
 19 16  1  0  0  0  0
 19 22  1  0  0  0  0
 20 19  1  0  0  0  0
 21 20  1  0  0  0  0
 21 18  1  0  0  0  0
 23 24  1  0  0  0  0
 23  5  1  0  0  0  0
 24 26  1  0  0  0  0
 26 25  1  1  0  0  0
 27 26  1  0  0  0  0
 28 27  2  0  0  0  0
 29 27  1  0  0  0  0
 31 30  1  6  0  0  0
 31 29  1  0  0  0  0
 32 34  1  0  0  0  0
 33 35  1  0  0  0  0
 33 36  1  0  0  0  0
 34 31  1  0  0  0  0
 35 32  1  0  0  0  0
 36 34  1  0  0  0  0
M  END
>  <MODEL>
9

>  <REMARK>
 VINA RESULT:      -8.9      1.957      6.314
  Name = 
  10 active torsions:
  status: ('A' for Active; 'I' for Inactive)
    1  A    between atoms: N_5  and  C_7
    2  A    between atoms: C_7  and  C_32
    3  A    between atoms: C_11  and  C_21
    4  A    between atoms: C_14  and  C_35
    5  A    between atoms: C_20  and  C_31
    6  A    between atoms: C_20  and  C_34
    7  A    between atoms: C_21  and  C_25
    8  A    between atoms: C_25  and  C_31
    9  A    between atoms: C_26  and  C_27
   10  A    between atoms: C_27  and  C_34
                            x       y       z     vdW  Elec       q    Type
                         _______ _______ _______ _____ _____    ______ ____

>  <TORSDO>
F 10

$$$$
