=
 OpenBabel10232408023D

 46 50  0  0  1  0  0  0  0  0999 V2000
  182.7700  178.3980  142.5290 C   0  0  0  0  0  1  0  0  0  0  0  0
  185.0910  177.5940  142.9470 C   0  0  0  0  0  2  0  0  0  0  0  0
  186.9860  178.6480  141.6590 C   0  0  0  0  0  0  0  0  0  0  0  0
  189.2950  178.0680  142.1400 C   0  0  0  0  0  0  0  0  0  0  0  0
  186.5550  177.7910  142.6840 C   0  0  0  0  0  0  0  0  0  0  0  0
  190.7220  178.2040  141.7390 C   0  0  0  0  0  1  0  0  0  0  0  0
  188.8700  177.2090  143.1870 C   0  0  0  0  0  0  0  0  0  0  0  0
  184.6460  179.1640  141.0170 C   0  0  2  0  0  3  0  0  0  0  0  0
  186.0570  179.3850  140.9130 O   0  0  0  0  0  0  0  0  0  0  0  0
  184.2420  178.7830  142.4650 C   0  0  1  0  0  0  0  0  0  0  0  0
  188.3480  178.7780  141.3930 C   0  0  0  0  0  3  0  0  0  0  0  0
  187.4910  177.0750  143.4290 C   0  0  0  0  0  3  0  0  0  0  0  0
  183.9120  176.1950  137.6040 N   0  0  0  0  0  0  0  0  0  0  0  0
  183.2360  175.5890  138.7440 C   0  0  0  0  0  2  0  0  0  0  0  0
  182.8130  177.6570  140.0400 C   0  0  0  0  0  3  0  0  0  0  0  0
  186.5600  178.6310  137.2630 N   0  0  0  0  0  2  0  0  0  0  0  0
  185.6260  177.6820  136.6250 C   0  0  2  0  0  3  0  0  0  0  0  0
  184.1920  178.1940  139.9500 C   0  0  1  0  0  3  0  0  0  0  0  0
  184.9820  177.9900  138.8810 C   0  0  0  0  0  0  0  0  0  0  0  0
  180.9180  176.1970  139.6430 C   0  0  0  0  0  1  0  0  0  0  0  0
  184.6880  177.2320  137.6940 C   0  0  0  0  0  0  0  0  0  0  0  0
  186.1270  178.7700  138.5960 N   0  0  0  0  0  0  0  0  0  0  0  0
  182.3460  176.5560  139.4480 C   0  0  0  0  0  0  0  0  0  0  0  0
  187.7990  174.0530  135.4760 O   0  0  0  0  0  0  0  0  0  0  0  0
  187.5230  176.0030  136.7460 N   0  0  0  0  0  2  0  0  0  0  0  0
  185.9860  176.0040  134.9770 O   0  0  0  0  0  0  0  0  0  0  0  0
  188.2230  174.8050  136.3920 C   0  0  0  0  0  0  0  0  0  0  0  0
  186.3830  176.5260  136.0540 C   0  0  0  0  0  0  0  0  0  0  0  0
  189.4430  174.4160  137.1560 C   0  0  0  0  0  2  0  0  0  0  0  0
  191.8060  175.0310  136.6750 C   0  0  0  0  0  1  0  0  0  0  0  0
  190.6130  176.0760  138.5720 C   0  0  0  0  0  1  0  0  0  0  0  0
  190.4620  175.5420  137.1610 C   0  0  0  0  0  3  0  0  0  0  0  0
  190.0390  176.8940  145.3940 C   0  0  0  0  0  2  0  0  0  0  0  0
  191.9920  175.4970  145.4040 O   0  0  0  0  0  0  0  0  0  0  0  0
  191.9810  175.3790  144.0030 C   0  0  0  0  0  2  0  0  0  0  0  0
  189.7940  176.4710  144.0120 N   0  0  0  0  0  0  0  0  0  0  0  0
  190.5380  175.3180  143.5000 C   0  0  0  0  0  2  0  0  0  0  0  0
  191.5330  176.7930  145.7000 C   0  0  0  0  0  2  0  0  0  0  0  0
  184.4650  180.0080  143.3630 C   0  0  0  0  0  2  0  0  0  0  0  0
  185.0780  179.6480  144.7100 C   0  0  0  0  0  2  0  0  0  0  0  0
  184.0450  179.1630  145.6070 N   0  0  0  0  0  2  0  0  0  0  0  0
  184.7190  178.3460  146.6000 C   0  0  0  0  0  2  0  0  0  0  0  0
  185.9090  179.9620  147.8670 O   0  0  0  0  0  1  0  0  0  0  0  0
  186.0730  178.9420  146.9300 C   0  0  1  0  0  3  0  0  0  0  0  0
  188.1100  178.4750  148.0800 O   0  0  0  0  0  1  0  0  0  0  0  0
  186.9950  177.8740  147.4970 C   0  0  0  0  0  2  0  0  0  0  0  0
  3  5  1  0  0  0  0
  4  7  2  0  0  0  0
  5  2  1  0  0  0  0
  5 12  2  0  0  0  0
  6  4  1  0  0  0  0
  7 12  1  0  0  0  0
  7 36  1  0  0  0  0
  8  9  1  1  0  0  0
  8 10  1  0  0  0  0
  9  3  1  0  0  0  0
 10  1  1  1  0  0  0
 10  2  1  0  0  0  0
 10 39  1  0  0  0  0
 11  3  2  0  0  0  0
 11  4  1  0  0  0  0
 13 21  2  0  0  0  0
 13 14  1  0  0  0  0
 14 23  1  0  0  0  0
 16 22  1  0  0  0  0
 17 28  1  1  0  0  0
 17 16  1  0  0  0  0
 17 21  1  0  0  0  0
 18 15  1  6  0  0  0
 18  8  1  0  0  0  0
 19 18  1  0  0  0  0
 21 19  1  0  0  0  0
 22 19  2  0  0  0  0
 23 20  1  0  0  0  0
 23 15  2  0  0  0  0
 24 27  2  0  0  0  0
 26 28  2  0  0  0  0
 27 25  1  0  0  0  0
 27 29  1  0  0  0  0
 28 25  1  0  0  0  0
 29 32  1  0  0  0  0
 30 32  1  0  0  0  0
 32 31  1  0  0  0  0
 33 38  1  0  0  0  0
 34 38  1  0  0  0  0
 35 34  1  0  0  0  0
 36 33  1  0  0  0  0
 37 35  1  0  0  0  0
 37 36  1  0  0  0  0
 39 40  1  0  0  0  0
 40 41  1  0  0  0  0
 41 42  1  0  0  0  0
 42 44  1  0  0  0  0
 44 46  1  0  0  0  0
 44 43  1  1  0  0  0
 46 45  1  0  0  0  0
M  END
>  <MODEL>
1

>  <REMARK>
 VINA RESULT:      -7.8      0.000      0.000
  Name = 
  11 active torsions:
  status: ('A' for Active; 'I' for Inactive)
    1  A    between atoms: C_4  and  C_34
    2  A    between atoms: C_4  and  C_42
    3  A    between atoms: N_6  and  C_42
    4  A    between atoms: N_6  and  C_44
    5  A    between atoms: N_18  and  C_22
    6  A    between atoms: C_23  and  C_40
    7  A    between atoms: C_24  and  C_46
    8  A    between atoms: C_25  and  C_33
    9  A    between atoms: C_25  and  C_44
   10  A    between atoms: C_27  and  C_29
   11  A    between atoms: C_37  and  C_46
                            x       y       z     vdW  Elec       q    Type
                         _______ _______ _______ _____ _____    ______ ____

>  <TORSDO>
F 11

$$$$
=
 OpenBabel10232408023D

 46 50  0  0  1  0  0  0  0  0999 V2000
  190.9710  176.0280  137.9120 C   0  0  0  0  0  1  0  0  0  0  0  0
  188.8180  174.8600  137.4530 C   0  0  0  0  0  2  0  0  0  0  0  0
  186.8180  176.2360  136.7710 C   0  0  0  0  0  0  0  0  0  0  0  0
  184.7360  175.1700  136.1150 C   0  0  0  0  0  0  0  0  0  0  0  0
  187.4080  174.9760  136.9530 C   0  0  0  0  0  0  0  0  0  0  0  0
  183.3030  175.3520  135.7530 C   0  0  0  0  0  1  0  0  0  0  0  0
  185.3280  173.8910  136.2840 C   0  0  0  0  0  0  0  0  0  0  0  0
  188.8630  177.3850  137.5780 C   0  0  2  0  0  3  0  0  0  0  0  0
  187.5590  177.4050  136.9860 O   0  0  0  0  0  0  0  0  0  0  0  0
  189.6520  176.1190  137.1540 C   0  0  1  0  0  0  0  0  0  0  0  0
  185.4890  176.3240  136.3580 C   0  0  0  0  0  3  0  0  0  0  0  0
  186.6630  173.8200  136.7200 C   0  0  0  0  0  3  0  0  0  0  0  0
  187.8920  177.9960  142.0140 N   0  0  0  0  0  0  0  0  0  0  0  0
  188.9230  176.9660  142.0220 C   0  0  0  0  0  2  0  0  0  0  0  0
  190.0070  177.5390  139.8700 C   0  0  0  0  0  3  0  0  0  0  0  0
  185.5450  179.1750  139.5320 N   0  0  0  0  0  2  0  0  0  0  0  0
  186.0550  179.2310  140.9170 C   0  0  2  0  0  3  0  0  0  0  0  0
  188.7600  177.6060  139.0700 C   0  0  1  0  0  3  0  0  0  0  0  0
  187.5870  178.0180  139.5850 C   0  0  0  0  0  0  0  0  0  0  0  0
  191.4470  177.3320  141.8100 C   0  0  0  0  0  1  0  0  0  0  0  0
  187.3080  178.4220  140.9360 C   0  0  0  0  0  0  0  0  0  0  0  0
  186.4950  178.4420  138.7940 N   0  0  0  0  0  0  0  0  0  0  0  0
  190.0990  177.3420  141.1860 C   0  0  0  0  0  0  0  0  0  0  0  0
  183.0280  178.1270  143.8890 O   0  0  0  0  0  0  0  0  0  0  0  0
  185.1340  178.9440  143.2630 N   0  0  0  0  0  2  0  0  0  0  0  0
  184.0870  177.9850  141.3980 O   0  0  0  0  0  0  0  0  0  0  0  0
  184.1380  178.6090  144.2360 C   0  0  0  0  0  0  0  0  0  0  0  0
  185.0390  178.6710  141.8590 C   0  0  0  0  0  0  0  0  0  0  0  0
  184.4010  178.8840  145.6770 C   0  0  0  0  0  2  0  0  0  0  0  0
  186.3980  177.4040  145.7940 C   0  0  0  0  0  1  0  0  0  0  0  0
  186.1270  179.2540  147.4130 C   0  0  0  0  0  1  0  0  0  0  0  0
  185.8880  178.8220  145.9790 C   0  0  0  0  0  3  0  0  0  0  0  0
  184.4240  172.2070  134.6460 C   0  0  0  0  0  2  0  0  0  0  0  0
  182.7430  170.6940  135.4530 O   0  0  0  0  0  0  0  0  0  0  0  0
  182.6540  171.3650  136.6850 C   0  0  0  0  0  2  0  0  0  0  0  0
  184.6170  172.6630  136.0260 N   0  0  0  0  0  0  0  0  0  0  0  0
  184.0380  171.8610  137.1060 C   0  0  0  0  0  2  0  0  0  0  0  0
  183.0000  171.6760  134.4800 C   0  0  0  0  0  2  0  0  0  0  0  0
  189.9580  176.2230  135.6530 C   0  0  0  0  0  2  0  0  0  0  0  0
  191.1300  175.3470  135.2280 C   0  0  0  0  0  2  0  0  0  0  0  0
  192.1420  176.1600  134.5800 N   0  0  0  0  0  2  0  0  0  0  0  0
  193.4220  175.5620  134.9160 C   0  0  0  0  0  2  0  0  0  0  0  0
  194.6650  175.8120  136.9220 O   0  0  0  0  0  1  0  0  0  0  0  0
  194.2200  176.5040  135.7960 C   0  0  1  0  0  3  0  0  0  0  0  0
  195.6360  178.3820  135.4010 O   0  0  0  0  0  1  0  0  0  0  0  0
  195.4120  177.0560  135.0310 C   0  0  0  0  0  2  0  0  0  0  0  0
  3  5  1  0  0  0  0
  3  9  1  0  0  0  0
  4  7  2  0  0  0  0
  4 11  1  0  0  0  0
  5  2  1  0  0  0  0
  6  4  1  0  0  0  0
  7 12  1  0  0  0  0
  8  9  1  1  0  0  0
  8 18  1  0  0  0  0
 10  2  1  0  0  0  0
 10  8  1  0  0  0  0
 10  1  1  1  0  0  0
 11  3  2  0  0  0  0
 12  5  2  0  0  0  0
 13 14  1  0  0  0  0
 15 23  2  0  0  0  0
 16 17  1  0  0  0  0
 17 21  1  0  0  0  0
 17 28  1  1  0  0  0
 18 19  1  0  0  0  0
 18 15  1  6  0  0  0
 19 21  1  0  0  0  0
 21 13  2  0  0  0  0
 22 16  1  0  0  0  0
 22 19  2  0  0  0  0
 23 20  1  0  0  0  0
 23 14  1  0  0  0  0
 24 27  2  0  0  0  0
 25 27  1  0  0  0  0
 26 28  2  0  0  0  0
 27 29  1  0  0  0  0
 28 25  1  0  0  0  0
 29 32  1  0  0  0  0
 30 32  1  0  0  0  0
 32 31  1  0  0  0  0
 33 36  1  0  0  0  0
 34 35  1  0  0  0  0
 35 37  1  0  0  0  0
 36  7  1  0  0  0  0
 36 37  1  0  0  0  0
 38 33  1  0  0  0  0
 38 34  1  0  0  0  0
 39 10  1  0  0  0  0
 40 39  1  0  0  0  0
 41 42  1  0  0  0  0
 41 40  1  0  0  0  0
 42 44  1  0  0  0  0
 44 43  1  1  0  0  0
 46 45  1  0  0  0  0
 46 44  1  0  0  0  0
M  END
>  <MODEL>
2

>  <REMARK>
 VINA RESULT:      -7.6      3.187      9.713
  Name = 
  11 active torsions:
  status: ('A' for Active; 'I' for Inactive)
    1  A    between atoms: C_4  and  C_34
    2  A    between atoms: C_4  and  C_42
    3  A    between atoms: N_6  and  C_42
    4  A    between atoms: N_6  and  C_44
    5  A    between atoms: N_18  and  C_22
    6  A    between atoms: C_23  and  C_40
    7  A    between atoms: C_24  and  C_46
    8  A    between atoms: C_25  and  C_33
    9  A    between atoms: C_25  and  C_44
   10  A    between atoms: C_27  and  C_29
   11  A    between atoms: C_37  and  C_46
                            x       y       z     vdW  Elec       q    Type
                         _______ _______ _______ _____ _____    ______ ____

>  <TORSDO>
F 11

$$$$
=
 OpenBabel10232408023D

 46 50  0  0  1  0  0  0  0  0999 V2000
  190.5320  176.6800  137.6680 C   0  0  0  0  0  1  0  0  0  0  0  0
  188.4790  175.3080  137.3330 C   0  0  0  0  0  2  0  0  0  0  0  0
  186.2780  176.4900  136.9900 C   0  0  0  0  0  0  0  0  0  0  0  0
  184.2620  175.2420  136.4610 C   0  0  0  0  0  0  0  0  0  0  0  0
  187.0170  175.2970  136.9950 C   0  0  0  0  0  0  0  0  0  0  0  0
  182.7860  175.2830  136.2680 C   0  0  0  0  0  1  0  0  0  0  0  0
  185.0040  174.0320  136.4510 C   0  0  0  0  0  0  0  0  0  0  0  0
  188.2660  177.8030  137.6790 C   0  0  2  0  0  3  0  0  0  0  0  0
  186.9090  177.7170  137.2300 O   0  0  0  0  0  0  0  0  0  0  0  0
  189.1340  176.6750  137.0630 C   0  0  1  0  0  0  0  0  0  0  0  0
  184.9090  176.4540  136.7260 C   0  0  0  0  0  3  0  0  0  0  0  0
  186.3790  174.0840  136.7370 C   0  0  0  0  0  3  0  0  0  0  0  0
  187.7340  178.0520  142.2230 N   0  0  0  0  0  0  0  0  0  0  0  0
  188.7120  176.9870  142.0460 C   0  0  0  0  0  2  0  0  0  0  0  0
  189.6200  177.7090  139.8560 C   0  0  0  0  0  3  0  0  0  0  0  0
  185.2260  179.5360  140.0850 N   0  0  0  0  0  0  0  0  0  0  0  0
  185.8630  179.4500  141.4150 C   0  0  2  0  0  3  0  0  0  0  0  0
  188.3100  177.8940  139.1870 C   0  0  0  0  0  0  0  0  0  0  0  0
  187.2100  178.3020  139.8440 C   0  0  0  0  0  0  0  0  0  0  0  0
  191.2210  177.2760  141.6260 C   0  0  0  0  0  1  0  0  0  0  0  0
  187.0740  178.5950  141.2460 C   0  0  0  0  0  0  0  0  0  0  0  0
  186.0700  178.8370  139.2010 N   0  0  0  0  0  0  0  0  0  0  0  0
  189.8230  177.3920  141.1370 C   0  0  0  0  0  0  0  0  0  0  0  0
  183.0820  178.1960  144.5630 O   0  0  0  0  0  0  0  0  0  0  0  0
  185.1620  178.9670  143.8040 N   0  0  0  0  0  2  0  0  0  0  0  0
  183.8800  178.2610  141.9740 O   0  0  0  0  0  0  0  0  0  0  0  0
  184.2480  178.5830  144.8380 C   0  0  0  0  0  0  0  0  0  0  0  0
  184.9120  178.8460  142.3980 C   0  0  0  0  0  0  0  0  0  0  0  0
  184.6680  178.6940  146.2640 C   0  0  0  0  0  2  0  0  0  0  0  0
  186.6560  177.2650  145.8190 C   0  0  0  0  0  1  0  0  0  0  0  0
  186.5590  178.6540  147.8620 C   0  0  0  0  0  1  0  0  0  0  0  0
  186.1770  178.5840  146.3960 C   0  0  0  0  0  3  0  0  0  0  0  0
  184.2910  172.3000  134.7690 C   0  0  0  0  0  2  0  0  0  0  0  0
  182.7170  170.6440  135.5080 O   0  0  0  0  0  0  0  0  0  0  0  0
  182.5350  171.2910  136.7430 C   0  0  0  0  0  2  0  0  0  0  0  0
  184.4040  172.7530  136.1580 N   0  0  0  0  0  0  0  0  0  0  0  0
  183.8600  171.8940  137.2120 C   0  0  0  0  0  2  0  0  0  0  0  0
  182.9220  171.6560  134.5530 C   0  0  0  0  0  2  0  0  0  0  0  0
  189.2540  176.9300  135.5540 C   0  0  0  0  0  2  0  0  0  0  0  0
  190.5860  176.4630  134.9810 C   0  0  0  0  0  2  0  0  0  0  0  0
  190.4220  175.1690  134.3470 N   0  0  0  0  0  2  0  0  0  0  0  0
  191.4710  174.3180  134.8790 C   0  0  0  0  0  2  0  0  0  0  0  0
  191.6510  172.0600  135.5880 O   0  0  0  0  0  1  0  0  0  0  0  0
  191.1770  172.8670  134.5530 C   0  0  1  0  0  3  0  0  0  0  0  0
  189.1630  172.0390  135.5240 O   0  0  0  0  0  1  0  0  0  0  0  0
  189.6810  172.6570  134.3860 C   0  0  0  0  0  2  0  0  0  0  0  0
  3  5  1  0  0  0  0
  3  9  1  0  0  0  0
  4 11  1  0  0  0  0
  5  2  1  0  0  0  0
  6  4  1  0  0  0  0
  7  4  2  0  0  0  0
  7 12  1  0  0  0  0
  8 18  1  1  0  0  0
  9  8  1  0  0  0  0
 10  2  1  0  0  0  0
 10  1  1  1  0  0  0
 10  8  1  0  0  0  0
 11  3  2  0  0  0  0
 12  5  2  0  0  0  0
 14 13  1  0  0  0  0
 15 23  2  0  0  0  0
 16 17  1  0  0  0  0
 17 28  1  1  0  0  0
 18 19  2  0  0  0  0
 18 15  1  0  0  0  0
 19 21  1  0  0  0  0
 21 17  1  0  0  0  0
 21 13  2  0  0  0  0
 22 19  1  0  0  0  0
 22 16  2  0  0  0  0
 23 20  1  0  0  0  0
 23 14  1  0  0  0  0
 24 27  2  0  0  0  0
 25 27  1  0  0  0  0
 26 28  2  0  0  0  0
 27 29  1  0  0  0  0
 28 25  1  0  0  0  0
 29 32  1  0  0  0  0
 30 32  1  0  0  0  0
 32 31  1  0  0  0  0
 33 36  1  0  0  0  0
 34 35  1  0  0  0  0
 35 37  1  0  0  0  0
 36  7  1  0  0  0  0
 36 37  1  0  0  0  0
 38 33  1  0  0  0  0
 38 34  1  0  0  0  0
 39 10  1  0  0  0  0
 40 39  1  0  0  0  0
 41 42  1  0  0  0  0
 41 40  1  0  0  0  0
 44 42  1  0  0  0  0
 44 43  1  1  0  0  0
 46 44  1  0  0  0  0
 46 45  1  0  0  0  0
M  END
>  <MODEL>
3

>  <REMARK>
 VINA RESULT:      -7.3      2.798      9.676
  Name = 
  11 active torsions:
  status: ('A' for Active; 'I' for Inactive)
    1  A    between atoms: C_4  and  C_34
    2  A    between atoms: C_4  and  C_42
    3  A    between atoms: N_6  and  C_42
    4  A    between atoms: N_6  and  C_44
    5  A    between atoms: N_18  and  C_22
    6  A    between atoms: C_23  and  C_40
    7  A    between atoms: C_24  and  C_46
    8  A    between atoms: C_25  and  C_33
    9  A    between atoms: C_25  and  C_44
   10  A    between atoms: C_27  and  C_29
   11  A    between atoms: C_37  and  C_46
                            x       y       z     vdW  Elec       q    Type
                         _______ _______ _______ _____ _____    ______ ____

>  <TORSDO>
F 11

$$$$
=
 OpenBabel10232408023D

 46 50  0  0  1  0  0  0  0  0999 V2000
  188.1940  179.4530  137.0210 C   0  0  0  0  0  1  0  0  0  0  0  0
  190.1000  177.9080  136.5890 C   0  0  0  0  0  2  0  0  0  0  0  0
  189.7480  175.4330  136.9210 C   0  0  0  0  0  0  0  0  0  0  0  0
  191.4840  173.8380  136.3370 C   0  0  0  0  0  0  0  0  0  0  0  0
  190.5610  176.4840  136.4720 C   0  0  0  0  0  0  0  0  0  0  0  0
  191.9360  172.4190  136.3740 C   0  0  0  0  0  1  0  0  0  0  0  0
  192.3090  174.8930  135.8680 C   0  0  0  0  0  0  0  0  0  0  0  0
  188.0000  177.0200  137.6800 C   0  0  2  0  0  3  0  0  0  0  0  0
  188.4660  175.6910  137.4200 O   0  0  0  0  0  0  0  0  0  0  0  0
  188.5670  178.0260  136.6440 C   0  0  1  0  0  0  0  0  0  0  0  0
  190.2150  174.1210  136.8540 C   0  0  0  0  0  3  0  0  0  0  0  0
  191.8300  176.2120  135.9620 C   0  0  0  0  0  3  0  0  0  0  0  0
  188.0810  178.0810  142.1370 N   0  0  0  0  0  0  0  0  0  0  0  0
  189.0750  177.0220  142.0130 C   0  0  0  0  0  2  0  0  0  0  0  0
  189.6420  177.3510  139.6240 C   0  0  0  0  0  3  0  0  0  0  0  0
  185.2400  179.0980  140.1490 N   0  0  0  0  0  0  0  0  0  0  0  0
  186.0550  179.2680  141.3680 C   0  0  2  0  0  3  0  0  0  0  0  0
  188.2450  177.3840  139.1260 C   0  0  0  0  0  0  0  0  0  0  0  0
  187.2270  177.8830  139.8510 C   0  0  0  0  0  0  0  0  0  0  0  0
  191.4870  177.2820  141.1960 C   0  0  0  0  0  1  0  0  0  0  0  0
  187.2690  178.4230  141.1830 C   0  0  0  0  0  0  0  0  0  0  0  0
  185.9870  178.2670  139.2910 N   0  0  0  0  0  0  0  0  0  0  0  0
  190.0310  177.2780  140.8980 C   0  0  0  0  0  0  0  0  0  0  0  0
  183.8450  178.5360  145.0820 O   0  0  0  0  0  0  0  0  0  0  0  0
  185.7800  179.0960  143.8840 N   0  0  0  0  0  2  0  0  0  0  0  0
  184.1630  178.2660  142.4050 O   0  0  0  0  0  0  0  0  0  0  0  0
  185.0550  178.8830  145.1010 C   0  0  0  0  0  0  0  0  0  0  0  0
  185.2760  178.8340  142.5680 C   0  0  0  0  0  0  0  0  0  0  0  0
  185.7300  179.1280  146.4080 C   0  0  0  0  0  2  0  0  0  0  0  0
  187.4520  178.3180  148.0100 C   0  0  0  0  0  1  0  0  0  0  0  0
  187.6050  177.7190  145.6150 C   0  0  0  0  0  1  0  0  0  0  0  0
  186.6510  177.9760  146.7660 C   0  0  0  0  0  3  0  0  0  0  0  0
  193.8190  173.5710  134.3490 C   0  0  0  0  0  2  0  0  0  0  0  0
  196.1850  173.8070  134.6870 O   0  0  0  0  0  0  0  0  0  0  0  0
  195.9960  174.5800  135.8460 C   0  0  0  0  0  2  0  0  0  0  0  0
  193.6150  174.6680  135.3000 N   0  0  0  0  0  0  0  0  0  0  0  0
  194.7740  175.4830  135.6730 C   0  0  0  0  0  2  0  0  0  0  0  0
  195.1390  172.8670  134.6590 C   0  0  0  0  0  2  0  0  0  0  0  0
  187.9490  177.7060  135.2760 C   0  0  0  0  0  2  0  0  0  0  0  0
  186.4320  177.5790  135.3290 C   0  0  0  0  0  2  0  0  0  0  0  0
  186.0130  176.3830  134.6220 N   0  0  0  0  0  2  0  0  0  0  0  0
  184.9590  175.7850  135.4220 C   0  0  0  0  0  2  0  0  0  0  0  0
  186.5830  174.0620  135.2520 O   0  0  0  0  0  1  0  0  0  0  0  0
  185.3450  174.3730  135.8160 C   0  0  1  0  0  3  0  0  0  0  0  0
  184.9960  172.9890  137.7270 O   0  0  0  0  0  1  0  0  0  0  0  0
  185.4300  174.2530  137.3290 C   0  0  0  0  0  2  0  0  0  0  0  0
  2 10  1  0  0  0  0
  3  9  1  0  0  0  0
  4  6  1  0  0  0  0
  4 11  2  0  0  0  0
  5  2  1  0  0  0  0
  5  3  2  0  0  0  0
  7 12  2  0  0  0  0
  7  4  1  0  0  0  0
  8 18  1  1  0  0  0
  9  8  1  0  0  0  0
 10  1  1  1  0  0  0
 10  8  1  0  0  0  0
 11  3  1  0  0  0  0
 12  5  1  0  0  0  0
 14 13  1  0  0  0  0
 15 23  2  0  0  0  0
 16 17  1  0  0  0  0
 17 28  1  1  0  0  0
 18 15  1  0  0  0  0
 18 19  2  0  0  0  0
 19 21  1  0  0  0  0
 21 17  1  0  0  0  0
 21 13  2  0  0  0  0
 22 19  1  0  0  0  0
 22 16  2  0  0  0  0
 23 20  1  0  0  0  0
 23 14  1  0  0  0  0
 24 27  2  0  0  0  0
 25 27  1  0  0  0  0
 26 28  2  0  0  0  0
 27 29  1  0  0  0  0
 28 25  1  0  0  0  0
 29 32  1  0  0  0  0
 31 32  1  0  0  0  0
 32 30  1  0  0  0  0
 33 38  1  0  0  0  0
 33 36  1  0  0  0  0
 34 35  1  0  0  0  0
 36 37  1  0  0  0  0
 36  7  1  0  0  0  0
 37 35  1  0  0  0  0
 38 34  1  0  0  0  0
 39 40  1  0  0  0  0
 39 10  1  0  0  0  0
 41 40  1  0  0  0  0
 41 42  1  0  0  0  0
 42 44  1  0  0  0  0
 44 43  1  6  0  0  0
 44 46  1  0  0  0  0
 46 45  1  0  0  0  0
M  END
>  <MODEL>
4

>  <REMARK>
 VINA RESULT:      -7.1      2.740      8.890
  Name = 
  11 active torsions:
  status: ('A' for Active; 'I' for Inactive)
    1  A    between atoms: C_4  and  C_34
    2  A    between atoms: C_4  and  C_42
    3  A    between atoms: N_6  and  C_42
    4  A    between atoms: N_6  and  C_44
    5  A    between atoms: N_18  and  C_22
    6  A    between atoms: C_23  and  C_40
    7  A    between atoms: C_24  and  C_46
    8  A    between atoms: C_25  and  C_33
    9  A    between atoms: C_25  and  C_44
   10  A    between atoms: C_27  and  C_29
   11  A    between atoms: C_37  and  C_46
                            x       y       z     vdW  Elec       q    Type
                         _______ _______ _______ _____ _____    ______ ____

>  <TORSDO>
F 11

$$$$
=
 OpenBabel10232408023D

 46 50  0  0  1  0  0  0  0  0999 V2000
  189.0890  177.6370  136.0040 C   0  0  0  0  0  1  0  0  0  0  0  0
  191.4000  176.7100  135.9110 C   0  0  0  0  0  2  0  0  0  0  0  0
  191.8700  174.5160  137.0620 C   0  0  0  0  0  0  0  0  0  0  0  0
  194.0390  173.4410  136.8590 C   0  0  0  0  0  0  0  0  0  0  0  0
  192.3020  175.5500  136.2180 C   0  0  0  0  0  0  0  0  0  0  0  0
  194.9270  172.3350  137.3110 C   0  0  0  0  0  1  0  0  0  0  0  0
  194.4800  174.4760  135.9940 C   0  0  0  0  0  0  0  0  0  0  0  0
  189.6890  175.6380  137.4320 C   0  0  2  0  0  3  0  0  0  0  0  0
  190.5670  174.5150  137.5740 O   0  0  0  0  0  0  0  0  0  0  0  0
  189.9120  176.3570  136.0760 C   0  0  1  0  0  0  0  0  0  0  0  0
  192.7400  173.4730  137.3790 C   0  0  0  0  0  3  0  0  0  0  0  0
  193.5970  175.5300  135.7010 C   0  0  0  0  0  3  0  0  0  0  0  0
  189.3160  178.2400  141.1870 N   0  0  0  0  0  0  0  0  0  0  0  0
  190.4220  177.3420  141.4940 C   0  0  0  0  0  2  0  0  0  0  0  0
  191.1330  176.8550  139.1710 C   0  0  0  0  0  3  0  0  0  0  0  0
  186.5440  178.1020  138.8710 N   0  0  0  0  0  2  0  0  0  0  0  0
  187.2410  178.8020  139.9690 C   0  0  2  0  0  3  0  0  0  0  0  0
  189.7830  176.5290  138.6510 C   0  0  1  0  0  3  0  0  0  0  0  0
  188.6650  177.1220  139.1070 C   0  0  0  0  0  0  0  0  0  0  0  0
  192.8490  177.5920  140.7180 C   0  0  0  0  0  1  0  0  0  0  0  0
  188.5480  178.1080  140.1470 C   0  0  0  0  0  0  0  0  0  0  0  0
  187.4380  177.1190  138.4050 N   0  0  0  0  0  0  0  0  0  0  0  0
  191.4290  177.2960  140.3950 C   0  0  0  0  0  0  0  0  0  0  0  0
  185.3210  178.7790  143.9100 O   0  0  0  0  0  0  0  0  0  0  0  0
  186.9180  178.0330  142.3650 N   0  0  0  0  0  2  0  0  0  0  0  0
  185.3120  179.3310  141.2570 O   0  0  0  0  0  0  0  0  0  0  0  0
  186.3100  178.0410  143.6610 C   0  0  0  0  0  0  0  0  0  0  0  0
  186.4220  178.7360  141.2180 C   0  0  0  0  0  0  0  0  0  0  0  0
  186.8920  177.2010  144.7480 C   0  0  0  0  0  2  0  0  0  0  0  0
  189.2950  177.7370  145.1070 C   0  0  0  0  0  1  0  0  0  0  0  0
  187.7550  177.5840  147.0360 C   0  0  0  0  0  1  0  0  0  0  0  0
  187.8770  177.9990  145.5830 C   0  0  0  0  0  3  0  0  0  0  0  0
  196.1320  173.5320  134.3460 C   0  0  0  0  0  2  0  0  0  0  0  0
  198.4490  174.0540  134.7030 O   0  0  0  0  0  0  0  0  0  0  0  0
  198.1750  174.6730  135.9350 C   0  0  0  0  0  2  0  0  0  0  0  0
  195.7970  174.4890  135.4040 N   0  0  0  0  0  0  0  0  0  0  0  0
  196.8390  175.4130  135.8570 C   0  0  0  0  0  2  0  0  0  0  0  0
  197.5410  172.9880  134.5810 C   0  0  0  0  0  2  0  0  0  0  0  0
  189.4500  175.4160  134.9530 C   0  0  0  0  0  2  0  0  0  0  0  0
  187.9350  175.3760  134.8030 C   0  0  0  0  0  2  0  0  0  0  0  0
  187.4460  174.0440  135.1050 N   0  0  0  0  0  2  0  0  0  0  0  0
  186.2700  174.2200  135.9390 C   0  0  0  0  0  2  0  0  0  0  0  0
  185.5360  173.0570  137.8730 O   0  0  0  0  0  1  0  0  0  0  0  0
  185.8450  172.8880  136.5240 C   0  0  1  0  0  3  0  0  0  0  0  0
  184.3470  171.0570  136.2190 O   0  0  0  0  0  1  0  0  0  0  0  0
  184.6280  172.3530  135.7860 C   0  0  0  0  0  2  0  0  0  0  0  0
  2 10  1  0  0  0  0
  2  5  1  0  0  0  0
  3 11  1  0  0  0  0
  3  9  1  0  0  0  0
  4  6  1  0  0  0  0
  4 11  2  0  0  0  0
  5  3  2  0  0  0  0
  7  4  1  0  0  0  0
  8  9  1  1  0  0  0
  8 18  1  0  0  0  0
 10  1  1  6  0  0  0
 10  8  1  0  0  0  0
 12  7  2  0  0  0  0
 12  5  1  0  0  0  0
 13 14  1  0  0  0  0
 15 23  2  0  0  0  0
 16 17  1  0  0  0  0
 17 21  1  0  0  0  0
 17 28  1  1  0  0  0
 18 19  1  0  0  0  0
 18 15  1  6  0  0  0
 19 21  1  0  0  0  0
 21 13  2  0  0  0  0
 22 16  1  0  0  0  0
 22 19  2  0  0  0  0
 23 20  1  0  0  0  0
 23 14  1  0  0  0  0
 25 27  1  0  0  0  0
 27 24  2  0  0  0  0
 27 29  1  0  0  0  0
 28 26  2  0  0  0  0
 28 25  1  0  0  0  0
 29 32  1  0  0  0  0
 30 32  1  0  0  0  0
 32 31  1  0  0  0  0
 33 38  1  0  0  0  0
 33 36  1  0  0  0  0
 34 35  1  0  0  0  0
 36 37  1  0  0  0  0
 36  7  1  0  0  0  0
 37 35  1  0  0  0  0
 38 34  1  0  0  0  0
 39 10  1  0  0  0  0
 40 39  1  0  0  0  0
 40 41  1  0  0  0  0
 41 42  1  0  0  0  0
 42 44  1  0  0  0  0
 44 43  1  1  0  0  0
 46 45  1  0  0  0  0
 46 44  1  0  0  0  0
M  END
>  <MODEL>
5

>  <REMARK>
 VINA RESULT:      -7.1      3.435      9.354
  Name = 
  11 active torsions:
  status: ('A' for Active; 'I' for Inactive)
    1  A    between atoms: C_4  and  C_34
    2  A    between atoms: C_4  and  C_42
    3  A    between atoms: N_6  and  C_42
    4  A    between atoms: N_6  and  C_44
    5  A    between atoms: N_18  and  C_22
    6  A    between atoms: C_23  and  C_40
    7  A    between atoms: C_24  and  C_46
    8  A    between atoms: C_25  and  C_33
    9  A    between atoms: C_25  and  C_44
   10  A    between atoms: C_27  and  C_29
   11  A    between atoms: C_37  and  C_46
                            x       y       z     vdW  Elec       q    Type
                         _______ _______ _______ _____ _____    ______ ____

>  <TORSDO>
F 11

$$$$
=
 OpenBabel10232408023D

 46 50  0  0  1  0  0  0  0  0999 V2000
  182.9320  178.3070  142.1570 C   0  0  0  0  0  1  0  0  0  0  0  0
  185.2320  177.5210  142.7080 C   0  0  0  0  0  2  0  0  0  0  0  0
  187.1940  178.6560  141.6030 C   0  0  0  0  0  0  0  0  0  0  0  0
  189.4730  178.0910  142.2260 C   0  0  0  0  0  0  0  0  0  0  0  0
  186.7070  177.7510  142.5590 C   0  0  0  0  0  0  0  0  0  0  0  0
  190.9230  178.2650  141.9350 C   0  0  0  0  0  1  0  0  0  0  0  0
  188.9900  177.1830  143.2040 C   0  0  0  0  0  0  0  0  0  0  0  0
  184.8980  179.1630  140.8160 C   0  0  2  0  0  3  0  0  0  0  0  0
  186.3080  179.4090  140.8240 O   0  0  0  0  0  0  0  0  0  0  0  0
  184.3980  178.7170  142.2140 C   0  0  1  0  0  0  0  0  0  0  0  0
  188.5700  178.8170  141.4420 C   0  0  0  0  0  3  0  0  0  0  0  0
  187.6000  177.0190  143.3410 C   0  0  0  0  0  3  0  0  0  0  0  0
  184.4650  176.3010  137.2630 N   0  0  0  0  0  0  0  0  0  0  0  0
  183.6610  175.6820  138.3090 C   0  0  0  0  0  2  0  0  0  0  0  0
  183.1460  177.7250  139.6120 C   0  0  0  0  0  3  0  0  0  0  0  0
  187.1830  178.6840  137.2690 N   0  0  0  0  0  2  0  0  0  0  0  0
  186.3020  177.7730  136.5110 C   0  0  2  0  0  3  0  0  0  0  0  0
  184.5380  178.2320  139.6800 C   0  0  1  0  0  3  0  0  0  0  0  0
  185.4320  178.0370  138.6940 C   0  0  0  0  0  0  0  0  0  0  0  0
  181.2740  176.3190  138.9780 C   0  0  0  0  0  1  0  0  0  0  0  0
  185.2490  177.3170  137.4630 C   0  0  0  0  0  0  0  0  0  0  0  0
  186.6160  178.7980  138.5530 N   0  0  0  0  0  0  0  0  0  0  0  0
  182.7220  176.6510  138.9440 C   0  0  0  0  0  0  0  0  0  0  0  0
  188.2820  174.4140  134.5080 O   0  0  0  0  0  0  0  0  0  0  0  0
  186.4170  175.4670  135.4580 N   0  0  0  0  0  2  0  0  0  0  0  0
  188.3500  176.6790  135.9940 O   0  0  0  0  0  0  0  0  0  0  0  0
  187.0540  174.3790  134.7800 C   0  0  0  0  0  0  0  0  0  0  0  0
  187.0910  176.6150  135.9890 C   0  0  0  0  0  0  0  0  0  0  0  0
  186.2380  173.2090  134.3460 C   0  0  0  0  0  2  0  0  0  0  0  0
  186.9870  170.8640  134.7120 C   0  0  0  0  0  1  0  0  0  0  0  0
  184.9410  171.7010  135.8200 C   0  0  0  0  0  1  0  0  0  0  0  0
  186.3340  172.0760  135.3530 C   0  0  0  0  0  3  0  0  0  0  0  0
  190.1670  176.9120  145.4120 C   0  0  0  0  0  2  0  0  0  0  0  0
  192.0030  175.3650  145.4870 O   0  0  0  0  0  0  0  0  0  0  0  0
  191.9580  175.1610  144.0970 C   0  0  0  0  0  2  0  0  0  0  0  0
  189.8660  176.4250  144.0630 N   0  0  0  0  0  0  0  0  0  0  0  0
  190.5060  175.1860  143.6160 C   0  0  0  0  0  2  0  0  0  0  0  0
  191.6540  176.7090  145.7060 C   0  0  0  0  0  2  0  0  0  0  0  0
  184.5340  179.9060  143.1760 C   0  0  0  0  0  2  0  0  0  0  0  0
  183.9550  179.6190  144.5550 C   0  0  0  0  0  2  0  0  0  0  0  0
  185.0010  179.7150  145.5560 N   0  0  0  0  0  2  0  0  0  0  0  0
  184.6740  178.7390  146.5810 C   0  0  0  0  0  2  0  0  0  0  0  0
  186.2530  177.0730  145.9810 O   0  0  0  0  0  1  0  0  0  0  0  0
  185.9200  177.9770  146.9890 C   0  0  1  0  0  3  0  0  0  0  0  0
  187.8780  178.4750  148.2550 O   0  0  0  0  0  1  0  0  0  0  0  0
  187.0750  178.9390  147.2140 C   0  0  0  0  0  2  0  0  0  0  0  0
  3  5  1  0  0  0  0
  4  7  2  0  0  0  0
  5  2  1  0  0  0  0
  5 12  2  0  0  0  0
  6  4  1  0  0  0  0
  7 12  1  0  0  0  0
  7 36  1  0  0  0  0
  8  9  1  1  0  0  0
  8 10  1  0  0  0  0
  9  3  1  0  0  0  0
 10  1  1  6  0  0  0
 10  2  1  0  0  0  0
 10 39  1  0  0  0  0
 11  3  2  0  0  0  0
 11  4  1  0  0  0  0
 13 21  2  0  0  0  0
 13 14  1  0  0  0  0
 14 23  1  0  0  0  0
 16 22  1  0  0  0  0
 17 28  1  1  0  0  0
 17 16  1  0  0  0  0
 17 21  1  0  0  0  0
 18 15  1  6  0  0  0
 18  8  1  0  0  0  0
 19 18  1  0  0  0  0
 21 19  1  0  0  0  0
 22 19  2  0  0  0  0
 23 20  1  0  0  0  0
 23 15  2  0  0  0  0
 24 27  2  0  0  0  0
 25 28  1  0  0  0  0
 27 25  1  0  0  0  0
 28 26  2  0  0  0  0
 29 27  1  0  0  0  0
 29 32  1  0  0  0  0
 30 32  1  0  0  0  0
 32 31  1  0  0  0  0
 33 38  1  0  0  0  0
 34 38  1  0  0  0  0
 35 34  1  0  0  0  0
 36 33  1  0  0  0  0
 37 36  1  0  0  0  0
 37 35  1  0  0  0  0
 39 40  1  0  0  0  0
 40 41  1  0  0  0  0
 41 42  1  0  0  0  0
 42 44  1  0  0  0  0
 44 43  1  6  0  0  0
 44 46  1  0  0  0  0
 46 45  1  0  0  0  0
M  END
>  <MODEL>
6

>  <REMARK>
 VINA RESULT:      -5.9      1.469      2.051
  Name = 
  11 active torsions:
  status: ('A' for Active; 'I' for Inactive)
    1  A    between atoms: C_4  and  C_34
    2  A    between atoms: C_4  and  C_42
    3  A    between atoms: N_6  and  C_42
    4  A    between atoms: N_6  and  C_44
    5  A    between atoms: N_18  and  C_22
    6  A    between atoms: C_23  and  C_40
    7  A    between atoms: C_24  and  C_46
    8  A    between atoms: C_25  and  C_33
    9  A    between atoms: C_25  and  C_44
   10  A    between atoms: C_27  and  C_29
   11  A    between atoms: C_37  and  C_46
                            x       y       z     vdW  Elec       q    Type
                         _______ _______ _______ _____ _____    ______ ____

>  <TORSDO>
F 11

$$$$
=
 OpenBabel10232408023D

 46 50  0  0  1  0  0  0  0  0999 V2000
  186.7380  175.8980  135.6290 C   0  0  0  0  0  1  0  0  0  0  0  0
  187.9110  176.0630  137.8210 C   0  0  0  0  0  2  0  0  0  0  0  0
  190.2870  176.9070  137.8600 C   0  0  0  0  0  0  0  0  0  0  0  0
  191.4400  177.2860  139.9640 C   0  0  0  0  0  0  0  0  0  0  0  0
  189.1320  176.5240  138.5610 C   0  0  0  0  0  0  0  0  0  0  0  0
  192.7260  177.6220  140.6370 C   0  0  0  0  0  1  0  0  0  0  0  0
  190.2730  176.9130  140.6810 C   0  0  0  0  0  0  0  0  0  0  0  0
  189.2170  176.3930  135.6830 C   0  0  2  0  0  3  0  0  0  0  0  0
  190.2920  176.9310  136.4610 O   0  0  0  0  0  0  0  0  0  0  0  0
  187.8510  176.6110  136.3850 C   0  0  1  0  0  0  0  0  0  0  0  0
  191.4300  177.2810  138.5650 C   0  0  0  0  0  3  0  0  0  0  0  0
  189.1360  176.5200  139.9550 C   0  0  0  0  0  3  0  0  0  0  0  0
  190.7290  172.1590  134.7940 N   0  0  0  0  0  0  0  0  0  0  0  0
  189.4430  171.9400  135.4430 C   0  0  0  0  0  2  0  0  0  0  0  0
  188.3870  174.1050  134.8660 C   0  0  0  0  0  3  0  0  0  0  0  0
  193.0830  174.9010  134.7550 N   0  0  0  0  0  2  0  0  0  0  0  0
  192.7420  173.5220  134.3520 C   0  0  2  0  0  3  0  0  0  0  0  0
  189.5180  174.9610  135.3000 C   0  0  1  0  0  3  0  0  0  0  0  0
  190.8020  174.5720  135.2040 C   0  0  0  0  0  0  0  0  0  0  0  0
  187.1350  172.0950  134.3460 C   0  0  0  0  0  1  0  0  0  0  0  0
  191.3130  173.3170  134.7230 C   0  0  0  0  0  0  0  0  0  0  0  0
  191.8940  175.4690  135.2520 N   0  0  0  0  0  0  0  0  0  0  0  0
  188.3620  172.7720  134.8410 C   0  0  0  0  0  0  0  0  0  0  0  0
  195.0230  170.7910  136.9130 O   0  0  0  0  0  0  0  0  0  0  0  0
  194.2500  172.9170  136.3010 N   0  0  0  0  0  2  0  0  0  0  0  0
  193.7890  171.3970  134.5780 O   0  0  0  0  0  0  0  0  0  0  0  0
  194.9750  172.0260  137.1550 C   0  0  0  0  0  0  0  0  0  0  0  0
  193.6270  172.5490  135.0640 C   0  0  0  0  0  0  0  0  0  0  0  0
  195.6390  172.5610  138.3780 C   0  0  0  0  0  2  0  0  0  0  0  0
  197.2410  174.2830  137.5670 C   0  0  0  0  0  1  0  0  0  0  0  0
  195.9270  174.6810  139.6230 C   0  0  0  0  0  1  0  0  0  0  0  0
  195.9030  174.0500  138.2450 C   0  0  0  0  0  3  0  0  0  0  0  0
  189.8420  178.1530  142.8290 C   0  0  0  0  0  2  0  0  0  0  0  0
  190.6860  177.1640  144.8480 O   0  0  0  0  0  0  0  0  0  0  0  0
  191.3640  176.1590  144.1360 C   0  0  0  0  0  2  0  0  0  0  0  0
  190.2090  176.9220  142.1220 N   0  0  0  0  0  0  0  0  0  0  0  0
  190.5380  175.7390  142.9200 C   0  0  0  0  0  2  0  0  0  0  0  0
  190.7410  178.3230  144.0540 C   0  0  0  0  0  2  0  0  0  0  0  0
  187.5500  178.1170  136.3910 C   0  0  0  0  0  2  0  0  0  0  0  0
  186.0960  178.4260  136.7210 C   0  0  0  0  0  2  0  0  0  0  0  0
  186.0070  179.0280  138.0380 N   0  0  0  0  0  2  0  0  0  0  0  0
  184.7120  178.6470  138.5740 C   0  0  0  0  0  2  0  0  0  0  0  0
  185.6250  179.5600  140.5650 O   0  0  0  0  0  1  0  0  0  0  0  0
  184.7820  178.5580  140.0850 C   0  0  1  0  0  3  0  0  0  0  0  0
  183.3180  178.0240  141.8910 O   0  0  0  0  0  1  0  0  0  0  0  0
  183.3960  178.7260  140.6880 C   0  0  0  0  0  2  0  0  0  0  0  0
  2  5  1  0  0  0  0
  3  5  2  0  0  0  0
  3 11  1  0  0  0  0
  4  6  1  0  0  0  0
  4  7  1  0  0  0  0
  5 12  1  0  0  0  0
  7 36  1  0  0  0  0
  8 10  1  0  0  0  0
  8  9  1  1  0  0  0
  9  3  1  0  0  0  0
 10  1  1  6  0  0  0
 10 39  1  0  0  0  0
 10  2  1  0  0  0  0
 11  4  2  0  0  0  0
 12  7  2  0  0  0  0
 13 14  1  0  0  0  0
 16 22  1  0  0  0  0
 17 21  1  0  0  0  0
 17 16  1  0  0  0  0
 17 28  1  1  0  0  0
 18 15  1  6  0  0  0
 18  8  1  0  0  0  0
 19 22  2  0  0  0  0
 19 18  1  0  0  0  0
 20 23  1  0  0  0  0
 21 13  2  0  0  0  0
 21 19  1  0  0  0  0
 23 15  2  0  0  0  0
 23 14  1  0  0  0  0
 24 27  2  0  0  0  0
 25 27  1  0  0  0  0
 26 28  2  0  0  0  0
 27 29  1  0  0  0  0
 28 25  1  0  0  0  0
 30 32  1  0  0  0  0
 32 29  1  0  0  0  0
 32 31  1  0  0  0  0
 33 38  1  0  0  0  0
 35 34  1  0  0  0  0
 36 33  1  0  0  0  0
 36 37  1  0  0  0  0
 37 35  1  0  0  0  0
 38 34  1  0  0  0  0
 39 40  1  0  0  0  0
 40 41  1  0  0  0  0
 41 42  1  0  0  0  0
 42 44  1  0  0  0  0
 44 43  1  1  0  0  0
 44 46  1  0  0  0  0
 46 45  1  0  0  0  0
M  END
>  <MODEL>
7

>  <REMARK>
 VINA RESULT:      -5.8      3.355      6.720
  Name = 
  11 active torsions:
  status: ('A' for Active; 'I' for Inactive)
    1  A    between atoms: C_4  and  C_34
    2  A    between atoms: C_4  and  C_42
    3  A    between atoms: N_6  and  C_42
    4  A    between atoms: N_6  and  C_44
    5  A    between atoms: N_18  and  C_22
    6  A    between atoms: C_23  and  C_40
    7  A    between atoms: C_24  and  C_46
    8  A    between atoms: C_25  and  C_33
    9  A    between atoms: C_25  and  C_44
   10  A    between atoms: C_27  and  C_29
   11  A    between atoms: C_37  and  C_46
                            x       y       z     vdW  Elec       q    Type
                         _______ _______ _______ _____ _____    ______ ____

>  <TORSDO>
F 11

$$$$
=
 OpenBabel10232408023D

 46 50  0  0  1  0  0  0  0  0999 V2000
  188.8420  176.4710  135.8030 C   0  0  0  0  0  1  0  0  0  0  0  0
  188.9810  176.3660  138.2890 C   0  0  0  0  0  2  0  0  0  0  0  0
  191.0070  177.3440  139.4290 C   0  0  0  0  0  0  0  0  0  0  0  0
  191.1380  177.4630  141.8510 C   0  0  0  0  0  0  0  0  0  0  0  0
  189.7240  176.7830  139.5240 C   0  0  0  0  0  0  0  0  0  0  0  0
  191.9810  177.7720  143.0390 C   0  0  0  0  0  1  0  0  0  0  0  0
  189.8360  176.9090  141.9570 C   0  0  0  0  0  0  0  0  0  0  0  0
  190.9980  177.1090  136.9600 C   0  0  2  0  0  3  0  0  0  0  0  0
  191.5830  177.5870  138.1760 O   0  0  0  0  0  0  0  0  0  0  0  0
  189.4500  177.1270  137.0360 C   0  0  1  0  0  0  0  0  0  0  0  0
  191.7040  177.6760  140.5890 C   0  0  0  0  0  3  0  0  0  0  0  0
  189.1540  176.5620  140.7780 C   0  0  0  0  0  3  0  0  0  0  0  0
  193.3930  173.2990  136.0940 N   0  0  0  0  0  0  0  0  0  0  0  0
  192.1660  172.8070  136.7080 C   0  0  0  0  0  2  0  0  0  0  0  0
  190.6910  174.7060  136.1120 C   0  0  0  0  0  3  0  0  0  0  0  0
  195.1150  176.4760  136.1290 N   0  0  0  0  0  0  0  0  0  0  0  0
  195.0830  175.0600  135.7120 C   0  0  2  0  0  3  0  0  0  0  0  0
  191.6040  175.7770  136.5790 C   0  0  0  0  0  0  0  0  0  0  0  0
  192.9440  175.6690  136.5160 C   0  0  0  0  0  0  0  0  0  0  0  0
  189.9060  172.4810  135.5500 C   0  0  0  0  0  1  0  0  0  0  0  0
  193.7200  174.5540  136.0440 C   0  0  0  0  0  0  0  0  0  0  0  0
  193.8200  176.7750  136.5970 N   0  0  0  0  0  0  0  0  0  0  0  0
  190.9490  173.3970  136.0800 C   0  0  0  0  0  0  0  0  0  0  0  0
  198.4720  172.8210  137.3610 O   0  0  0  0  0  0  0  0  0  0  0  0
  196.7010  173.1110  135.8540 N   0  0  0  0  0  2  0  0  0  0  0  0
  196.5350  174.7060  137.5630 O   0  0  0  0  0  0  0  0  0  0  0  0
  197.8230  172.3890  136.3730 C   0  0  0  0  0  0  0  0  0  0  0  0
  196.1350  174.2880  136.4430 C   0  0  0  0  0  0  0  0  0  0  0  0
  198.2610  171.1330  135.6990 C   0  0  0  0  0  2  0  0  0  0  0  0
  197.6010  169.4010  137.3600 C   0  0  0  0  0  1  0  0  0  0  0  0
  197.4580  168.9180  134.9390 C   0  0  0  0  0  1  0  0  0  0  0  0
  197.3000  169.9950  135.9950 C   0  0  0  0  0  3  0  0  0  0  0  0
  187.7210  176.6190  143.2930 C   0  0  0  0  0  2  0  0  0  0  0  0
  187.8850  176.9080  145.6710 O   0  0  0  0  0  0  0  0  0  0  0  0
  189.2200  177.3400  145.5810 C   0  0  0  0  0  2  0  0  0  0  0  0
  189.1840  176.6890  143.2250 N   0  0  0  0  0  0  0  0  0  0  0  0
  189.9400  176.5690  144.4740 C   0  0  0  0  0  2  0  0  0  0  0  0
  187.2320  177.3850  144.5210 C   0  0  0  0  0  2  0  0  0  0  0  0
  188.9890  178.5910  137.0870 C   0  0  0  0  0  2  0  0  0  0  0  0
  187.5160  178.7580  136.7380 C   0  0  0  0  0  2  0  0  0  0  0  0
  186.7070  178.6130  137.9340 N   0  0  0  0  0  2  0  0  0  0  0  0
  185.6510  177.6740  137.6010 C   0  0  0  0  0  2  0  0  0  0  0  0
  183.3910  177.1790  138.1330 O   0  0  0  0  0  1  0  0  0  0  0  0
  184.3090  178.2250  138.0430 C   0  0  1  0  0  3  0  0  0  0  0  0
  184.3460  180.2900  139.2360 O   0  0  0  0  0  1  0  0  0  0  0  0
  184.4390  178.9070  139.3950 C   0  0  0  0  0  2  0  0  0  0  0  0
  2  5  1  0  0  0  0
  3  5  2  0  0  0  0
  3 11  1  0  0  0  0
  4  7  1  0  0  0  0
  4  6  1  0  0  0  0
  5 12  1  0  0  0  0
  7 36  1  0  0  0  0
  8 18  1  1  0  0  0
  8 10  1  0  0  0  0
  8  9  1  0  0  0  0
  9  3  1  0  0  0  0
 10  1  1  6  0  0  0
 10 39  1  0  0  0  0
 10  2  1  0  0  0  0
 11  4  2  0  0  0  0
 12  7  2  0  0  0  0
 13 14  1  0  0  0  0
 15 18  1  0  0  0  0
 16 22  2  0  0  0  0
 17 21  1  0  0  0  0
 17 16  1  0  0  0  0
 17 28  1  1  0  0  0
 19 18  2  0  0  0  0
 19 22  1  0  0  0  0
 20 23  1  0  0  0  0
 21 13  2  0  0  0  0
 21 19  1  0  0  0  0
 23 15  2  0  0  0  0
 23 14  1  0  0  0  0
 25 27  1  0  0  0  0
 25 28  1  0  0  0  0
 27 24  2  0  0  0  0
 28 26  2  0  0  0  0
 29 32  1  0  0  0  0
 29 27  1  0  0  0  0
 31 32  1  0  0  0  0
 32 30  1  0  0  0  0
 33 38  1  0  0  0  0
 35 34  1  0  0  0  0
 36 33  1  0  0  0  0
 36 37  1  0  0  0  0
 37 35  1  0  0  0  0
 38 34  1  0  0  0  0
 40 39  1  0  0  0  0
 40 41  1  0  0  0  0
 42 41  1  0  0  0  0
 42 44  1  0  0  0  0
 44 43  1  1  0  0  0
 44 46  1  0  0  0  0
 45 46  1  0  0  0  0
M  END
>  <MODEL>
8

>  <REMARK>
 VINA RESULT:      -5.8      4.423      7.959
  Name = 
  11 active torsions:
  status: ('A' for Active; 'I' for Inactive)
    1  A    between atoms: C_4  and  C_34
    2  A    between atoms: C_4  and  C_42
    3  A    between atoms: N_6  and  C_42
    4  A    between atoms: N_6  and  C_44
    5  A    between atoms: N_18  and  C_22
    6  A    between atoms: C_23  and  C_40
    7  A    between atoms: C_24  and  C_46
    8  A    between atoms: C_25  and  C_33
    9  A    between atoms: C_25  and  C_44
   10  A    between atoms: C_27  and  C_29
   11  A    between atoms: C_37  and  C_46
                            x       y       z     vdW  Elec       q    Type
                         _______ _______ _______ _____ _____    ______ ____

>  <TORSDO>
F 11

$$$$
=
 OpenBabel10232408023D

 46 50  0  0  1  0  0  0  0  0999 V2000
  188.7000  176.2180  135.6920 C   0  0  0  0  0  1  0  0  0  0  0  0
  188.9670  176.1740  138.1690 C   0  0  0  0  0  2  0  0  0  0  0  0
  190.9950  177.2760  139.1860 C   0  0  0  0  0  0  0  0  0  0  0  0
  191.2390  177.4540  141.5960 C   0  0  0  0  0  0  0  0  0  0  0  0
  189.7480  176.6550  139.3560 C   0  0  0  0  0  0  0  0  0  0  0  0
  192.1230  177.8300  142.7330 C   0  0  0  0  0  1  0  0  0  0  0  0
  189.9730  176.8380  141.7780 C   0  0  0  0  0  0  0  0  0  0  0  0
  190.8760  176.9870  136.7250 C   0  0  2  0  0  3  0  0  0  0  0  0
  191.4960  177.5200  137.9010 O   0  0  0  0  0  0  0  0  0  0  0  0
  189.3340  176.9300  136.8790 C   0  0  1  0  0  0  0  0  0  0  0  0
  191.7310  177.6670  140.3030 C   0  0  0  0  0  3  0  0  0  0  0  0
  189.2530  176.4320  140.6410 C   0  0  0  0  0  3  0  0  0  0  0  0
  193.4190  173.2890  135.7970 N   0  0  0  0  0  0  0  0  0  0  0  0
  192.2710  172.7510  136.5150 C   0  0  0  0  0  2  0  0  0  0  0  0
  190.6480  174.5430  135.9750 C   0  0  0  0  0  3  0  0  0  0  0  0
  194.9510  176.5570  135.6080 N   0  0  0  0  0  2  0  0  0  0  0  0
  194.9710  175.1280  135.2360 C   0  0  2  0  0  3  0  0  0  0  0  0
  191.5290  175.6790  136.3410 C   0  0  1  0  0  3  0  0  0  0  0  0
  192.8640  175.6430  136.1800 C   0  0  0  0  0  0  0  0  0  0  0  0
  189.9550  172.2600  135.5410 C   0  0  0  0  0  1  0  0  0  0  0  0
  193.6680  174.5590  135.6840 C   0  0  0  0  0  0  0  0  0  0  0  0
  193.6790  176.7990  136.1620 N   0  0  0  0  0  0  0  0  0  0  0  0
  190.9790  173.2510  135.9630 C   0  0  0  0  0  0  0  0  0  0  0  0
  198.0160  173.1540  137.6960 O   0  0  0  0  0  0  0  0  0  0  0  0
  196.6650  174.9800  137.1190 N   0  0  0  0  0  2  0  0  0  0  0  0
  196.5680  173.3740  135.4150 O   0  0  0  0  0  0  0  0  0  0  0  0
  197.6410  174.3300  137.9410 C   0  0  0  0  0  0  0  0  0  0  0  0
  196.1170  174.4420  135.9090 C   0  0  0  0  0  0  0  0  0  0  0  0
  198.1820  175.0400  139.1360 C   0  0  0  0  0  2  0  0  0  0  0  0
  195.8400  175.0400  139.9770 C   0  0  0  0  0  1  0  0  0  0  0  0
  197.6860  175.7900  141.4420 C   0  0  0  0  0  1  0  0  0  0  0  0
  197.2950  174.8160  140.3480 C   0  0  0  0  0  3  0  0  0  0  0  0
  187.9680  176.8550  143.3000 C   0  0  0  0  0  2  0  0  0  0  0  0
  188.3910  176.8130  145.6630 O   0  0  0  0  0  0  0  0  0  0  0  0
  189.7770  176.9540  145.4720 C   0  0  0  0  0  2  0  0  0  0  0  0
  189.3970  176.6140  143.0810 N   0  0  0  0  0  0  0  0  0  0  0  0
  190.2080  176.1840  144.2230 C   0  0  0  0  0  2  0  0  0  0  0  0
  187.7700  177.5550  144.6430 C   0  0  0  0  0  2  0  0  0  0  0  0
  188.8030  178.3700  136.9250 C   0  0  0  0  0  2  0  0  0  0  0  0
  187.2840  178.4420  136.8280 C   0  0  0  0  0  2  0  0  0  0  0  0
  186.7250  178.7880  138.1210 N   0  0  0  0  0  2  0  0  0  0  0  0
  185.3680  178.2700  138.1310 C   0  0  0  0  0  2  0  0  0  0  0  0
  184.4790  180.1900  139.2060 O   0  0  0  0  0  1  0  0  0  0  0  0
  184.6160  178.8070  139.3320 C   0  0  1  0  0  3  0  0  0  0  0  0
  182.7290  178.3280  140.7100 O   0  0  0  0  0  1  0  0  0  0  0  0
  183.2410  178.1650  139.4220 C   0  0  0  0  0  2  0  0  0  0  0  0
  2  5  1  0  0  0  0
  3  5  2  0  0  0  0
  3 11  1  0  0  0  0
  4  7  1  0  0  0  0
  4  6  1  0  0  0  0
  5 12  1  0  0  0  0
  7 36  1  0  0  0  0
  8 10  1  0  0  0  0
  8  9  1  1  0  0  0
  9  3  1  0  0  0  0
 10  1  1  6  0  0  0
 10 39  1  0  0  0  0
 10  2  1  0  0  0  0
 11  4  2  0  0  0  0
 12  7  2  0  0  0  0
 13 14  1  0  0  0  0
 16 22  1  0  0  0  0
 17 16  1  0  0  0  0
 17 21  1  0  0  0  0
 17 28  1  1  0  0  0
 18 15  1  6  0  0  0
 18  8  1  0  0  0  0
 19 18  1  0  0  0  0
 20 23  1  0  0  0  0
 21 13  2  0  0  0  0
 21 19  1  0  0  0  0
 22 19  2  0  0  0  0
 23 15  2  0  0  0  0
 23 14  1  0  0  0  0
 24 27  2  0  0  0  0
 25 27  1  0  0  0  0
 26 28  2  0  0  0  0
 27 29  1  0  0  0  0
 28 25  1  0  0  0  0
 29 32  1  0  0  0  0
 30 32  1  0  0  0  0
 32 31  1  0  0  0  0
 33 38  1  0  0  0  0
 35 34  1  0  0  0  0
 36 33  1  0  0  0  0
 36 37  1  0  0  0  0
 37 35  1  0  0  0  0
 38 34  1  0  0  0  0
 40 39  1  0  0  0  0
 40 41  1  0  0  0  0
 41 42  1  0  0  0  0
 42 44  1  0  0  0  0
 44 43  1  6  0  0  0
 44 46  1  0  0  0  0
 46 45  1  0  0  0  0
M  END
>  <MODEL>
9

>  <REMARK>
 VINA RESULT:      -5.7      4.065      7.655
  Name = 
  11 active torsions:
  status: ('A' for Active; 'I' for Inactive)
    1  A    between atoms: C_4  and  C_34
    2  A    between atoms: C_4  and  C_42
    3  A    between atoms: N_6  and  C_42
    4  A    between atoms: N_6  and  C_44
    5  A    between atoms: N_18  and  C_22
    6  A    between atoms: C_23  and  C_40
    7  A    between atoms: C_24  and  C_46
    8  A    between atoms: C_25  and  C_33
    9  A    between atoms: C_25  and  C_44
   10  A    between atoms: C_27  and  C_29
   11  A    between atoms: C_37  and  C_46
                            x       y       z     vdW  Elec       q    Type
                         _______ _______ _______ _____ _____    ______ ____

>  <TORSDO>
F 11

$$$$
