=
 OpenBabel10232409463D

 25 27  0  0  1  0  0  0  0  0999 V2000
  185.3730  178.5300  145.9230 C   0  0  0  0  0  3  0  0  0  0  0  0
  186.6130  178.0570  145.4750 C   0  0  0  0  0  0  0  0  0  0  0  0
  189.6940  177.1880  147.2080 C   0  0  0  0  0  0  0  0  0  0  0  0
  188.1350  177.2620  143.5670 C   0  0  2  0  0  3  0  0  0  0  0  0
  188.8640  177.3140  146.0360 C   0  0  0  0  0  0  0  0  0  0  0  0
  187.7200  177.8470  146.4200 C   0  0  0  0  0  0  0  0  0  0  0  0
  184.4940  178.3770  143.6740 C   0  0  0  0  0  3  0  0  0  0  0  0
  183.1210  179.1510  145.4600 F   0  0  0  0  0  0  0  0  0  0  0  0
  189.0110  177.6660  148.3130 O   0  0  0  0  0  0  0  0  0  0  0  0
  190.8610  176.7160  147.2470 O   0  0  0  0  0  0  0  0  0  0  0  0
  190.1950  176.3120  144.3530 O   0  0  0  0  0  0  0  0  0  0  0  0
  184.3180  178.6920  145.0230 C   0  0  0  0  0  0  0  0  0  0  0  0
  187.7180  178.1140  147.9020 C   0  0  0  0  0  2  0  0  0  0  0  0
  186.7970  177.7410  144.1080 C   0  0  0  0  0  0  0  0  0  0  0  0
  189.1320  176.9170  144.6490 C   0  0  0  0  0  0  0  0  0  0  0  0
  185.7280  177.9040  143.2180 C   0  0  0  0  0  3  0  0  0  0  0  0
  188.6790  178.2370  142.7290 O   0  0  0  0  0  0  0  0  0  0  0  0
  188.8280  177.6060  141.4910 C   0  0  0  0  0  2  0  0  0  0  0  0
  188.5010  178.5790  140.3740 C   0  0  2  0  0  3  0  0  0  0  0  0
  187.0870  178.4970  140.0520 N   0  0  0  0  0  1  0  0  0  0  0  0
  189.3260  178.2260  139.1470 C   0  0  0  0  0  2  0  0  0  0  0  0
  189.1220  179.1840  138.1150 O   0  0  0  0  0  0  0  0  0  0  0  0
  189.0720  177.9340  136.0030 N   0  0  0  0  0  1  0  0  0  0  0  0
  187.3880  179.4000  136.6290 O   0  0  0  0  0  0  0  0  0  0  0  0
  188.4900  178.8640  136.9110 C   0  0  0  0  0  0  0  0  0  0  0  0
  2  1  1  0  0  0  0
  2  6  1  0  0  0  0
  3 10  2  0  0  0  0
  3  9  1  0  0  0  0
  4 17  1  6  0  0  0
  4 14  1  0  0  0  0
  4 15  1  0  0  0  0
  5  6  2  0  0  0  0
  5  3  1  0  0  0  0
  6 13  1  0  0  0  0
  7 12  1  0  0  0  0
 11 15  2  0  0  0  0
 12  8  1  0  0  0  0
 12  1  2  0  0  0  0
 13  9  1  0  0  0  0
 14  2  2  0  0  0  0
 15  5  1  0  0  0  0
 16  7  2  0  0  0  0
 16 14  1  0  0  0  0
 18 17  1  0  0  0  0
 19 20  1  6  0  0  0
 19 18  1  0  0  0  0
 21 19  1  0  0  0  0
 22 21  1  0  0  0  0
 23 25  1  0  0  0  0
 24 25  2  0  0  0  0
 25 22  1  0  0  0  0
M  END
>  <MODEL>
1

>  <REMARK>
 VINA RESULT:      -9.0      0.000      0.000
  Name = 
  6 active torsions:
  status: ('A' for Active; 'I' for Inactive)
    1  A    between atoms: C_2  and  C_21
    2  A    between atoms: C_2  and  C_25
    3  A    between atoms: C_5  and  O_18
    4  A    between atoms: O_7  and  C_17
    5  A    between atoms: O_7  and  C_21
    6  A    between atoms: O_18  and  C_25
                            x       y       z     vdW  Elec       q    Type
                         _______ _______ _______ _____ _____    ______ ____

>  <TORSDO>
F 6

$$$$
=
 OpenBabel10232409463D

 25 27  0  0  1  0  0  0  0  0999 V2000
  185.5590  178.5020  145.8550 C   0  0  0  0  0  3  0  0  0  0  0  0
  186.7610  178.0090  145.3320 C   0  0  0  0  0  0  0  0  0  0  0  0
  189.9230  177.0720  146.8740 C   0  0  0  0  0  0  0  0  0  0  0  0
  188.1510  177.1990  143.3320 C   0  0  2  0  0  3  0  0  0  0  0  0
  189.0270  177.2220  145.7540 C   0  0  0  0  0  0  0  0  0  0  0  0
  187.9180  177.7730  146.2080 C   0  0  0  0  0  0  0  0  0  0  0  0
  184.5450  178.3790  143.6610 C   0  0  0  0  0  3  0  0  0  0  0  0
  183.2950  179.1670  145.5300 F   0  0  0  0  0  0  0  0  0  0  0  0
  189.3160  177.5560  148.0190 O   0  0  0  0  0  0  0  0  0  0  0  0
  191.0810  176.5800  146.8400 O   0  0  0  0  0  0  0  0  0  0  0  0
  190.2370  176.2060  143.9890 O   0  0  0  0  0  0  0  0  0  0  0  0
  184.4560  178.6890  145.0200 C   0  0  0  0  0  0  0  0  0  0  0  0
  188.0090  178.0300  147.6890 C   0  0  0  0  0  2  0  0  0  0  0  0
  186.8570  177.6990  143.9540 C   0  0  0  0  0  0  0  0  0  0  0  0
  189.2050  176.8280  144.3510 C   0  0  0  0  0  0  0  0  0  0  0  0
  185.7410  177.8870  143.1300 C   0  0  0  0  0  3  0  0  0  0  0  0
  188.6630  178.1690  142.4680 O   0  0  0  0  0  0  0  0  0  0  0  0
  188.8610  177.5040  141.2550 C   0  0  0  0  0  2  0  0  0  0  0  0
  188.6180  178.4560  140.0990 C   0  0  2  0  0  3  0  0  0  0  0  0
  187.1990  178.4960  139.7890 N   0  0  0  0  0  1  0  0  0  0  0  0
  189.3940  177.9750  138.8850 C   0  0  0  0  0  2  0  0  0  0  0  0
  190.7160  177.5980  139.2530 O   0  0  0  0  0  0  0  0  0  0  0  0
  192.7210  176.4670  138.3990 N   0  0  0  0  0  1  0  0  0  0  0  0
  190.6680  175.4030  138.5900 O   0  0  0  0  0  0  0  0  0  0  0  0
  191.3380  176.4560  138.7420 C   0  0  0  0  0  0  0  0  0  0  0  0
  2  1  1  0  0  0  0
  2  6  1  0  0  0  0
  3  9  1  0  0  0  0
  4 17  1  6  0  0  0
  4 14  1  0  0  0  0
  4 15  1  0  0  0  0
  5  6  2  0  0  0  0
  5  3  1  0  0  0  0
  6 13  1  0  0  0  0
  7 12  1  0  0  0  0
 10  3  2  0  0  0  0
 11 15  2  0  0  0  0
 12  8  1  0  0  0  0
 12  1  2  0  0  0  0
 13  9  1  0  0  0  0
 14  2  2  0  0  0  0
 15  5  1  0  0  0  0
 16  7  2  0  0  0  0
 16 14  1  0  0  0  0
 18 17  1  0  0  0  0
 19 20  1  6  0  0  0
 19 18  1  0  0  0  0
 21 22  1  0  0  0  0
 21 19  1  0  0  0  0
 23 25  1  0  0  0  0
 24 25  2  0  0  0  0
 25 22  1  0  0  0  0
M  END
>  <MODEL>
2

>  <REMARK>
 VINA RESULT:      -8.9      1.466      1.758
  Name = 
  6 active torsions:
  status: ('A' for Active; 'I' for Inactive)
    1  A    between atoms: C_2  and  C_21
    2  A    between atoms: C_2  and  C_25
    3  A    between atoms: C_5  and  O_18
    4  A    between atoms: O_7  and  C_17
    5  A    between atoms: O_7  and  C_21
    6  A    between atoms: O_18  and  C_25
                            x       y       z     vdW  Elec       q    Type
                         _______ _______ _______ _____ _____    ______ ____

>  <TORSDO>
F 6

$$$$
=
 OpenBabel10232409463D

 25 27  0  0  1  0  0  0  0  0999 V2000
  185.5170  178.5610  145.8420 C   0  0  0  0  0  3  0  0  0  0  0  0
  186.7780  178.0720  145.4780 C   0  0  0  0  0  0  0  0  0  0  0  0
  189.7520  177.2430  147.4060 C   0  0  0  0  0  0  0  0  0  0  0  0
  188.4010  177.2220  143.6820 C   0  0  2  0  0  3  0  0  0  0  0  0
  188.9900  177.3400  146.1860 C   0  0  0  0  0  0  0  0  0  0  0  0
  187.8290  177.8860  146.4890 C   0  0  0  0  0  0  0  0  0  0  0  0
  184.7650  178.3480  143.5510 C   0  0  0  0  0  3  0  0  0  0  0  0
  183.2970  179.1740  145.2350 F   0  0  0  0  0  0  0  0  0  0  0  0
  189.0100  177.7540  148.4560 O   0  0  0  0  0  0  0  0  0  0  0  0
  190.9130  176.7700  147.5230 O   0  0  0  0  0  0  0  0  0  0  0  0
  190.4100  176.2880  144.6080 O   0  0  0  0  0  0  0  0  0  0  0  0
  184.5150  178.7010  144.8790 C   0  0  0  0  0  0  0  0  0  0  0  0
  187.7440  178.1930  147.9610 C   0  0  0  0  0  2  0  0  0  0  0  0
  187.0370  177.7190  144.1330 C   0  0  0  0  0  0  0  0  0  0  0  0
  189.3350  176.9030  144.8270 C   0  0  0  0  0  0  0  0  0  0  0  0
  186.0210  177.8600  143.1790 C   0  0  0  0  0  3  0  0  0  0  0  0
  188.9960  178.1720  142.8490 O   0  0  0  0  0  0  0  0  0  0  0  0
  188.8910  177.6390  141.5610 C   0  0  0  0  0  2  0  0  0  0  0  0
  190.1700  176.9090  141.2000 C   0  0  2  0  0  3  0  0  0  0  0  0
  191.3150  177.6480  141.7030 N   0  0  0  0  0  1  0  0  0  0  0  0
  190.2650  176.7860  139.6880 C   0  0  0  0  0  2  0  0  0  0  0  0
  190.0450  178.0490  139.0690 O   0  0  0  0  0  0  0  0  0  0  0  0
  188.8940  179.5000  137.4580 N   0  0  0  0  0  1  0  0  0  0  0  0
  188.7050  177.1880  137.4190 O   0  0  0  0  0  0  0  0  0  0  0  0
  189.1990  178.2050  137.9690 C   0  0  0  0  0  0  0  0  0  0  0  0
  2  1  1  0  0  0  0
  2  6  1  0  0  0  0
  3 10  2  0  0  0  0
  3  9  1  0  0  0  0
  4 17  1  6  0  0  0
  4 14  1  0  0  0  0
  4 15  1  0  0  0  0
  5  6  2  0  0  0  0
  5  3  1  0  0  0  0
  6 13  1  0  0  0  0
  7 12  1  0  0  0  0
 11 15  2  0  0  0  0
 12  8  1  0  0  0  0
 12  1  2  0  0  0  0
 13  9  1  0  0  0  0
 14  2  2  0  0  0  0
 15  5  1  0  0  0  0
 16  7  2  0  0  0  0
 16 14  1  0  0  0  0
 18 17  1  0  0  0  0
 19 18  1  0  0  0  0
 19 20  1  6  0  0  0
 21 19  1  0  0  0  0
 22 21  1  0  0  0  0
 23 25  1  0  0  0  0
 24 25  2  0  0  0  0
 25 22  1  0  0  0  0
M  END
>  <MODEL>
3

>  <REMARK>
 VINA RESULT:      -8.8      1.292      1.398
  Name = 
  6 active torsions:
  status: ('A' for Active; 'I' for Inactive)
    1  A    between atoms: C_2  and  C_21
    2  A    between atoms: C_2  and  C_25
    3  A    between atoms: C_5  and  O_18
    4  A    between atoms: O_7  and  C_17
    5  A    between atoms: O_7  and  C_21
    6  A    between atoms: O_18  and  C_25
                            x       y       z     vdW  Elec       q    Type
                         _______ _______ _______ _____ _____    ______ ____

>  <TORSDO>
F 6

$$$$
=
 OpenBabel10232409463D

 25 27  0  0  1  0  0  0  0  0999 V2000
  185.3220  178.3990  145.2080 C   0  0  0  0  0  3  0  0  0  0  0  0
  186.1470  178.1870  144.0970 C   0  0  0  0  0  0  0  0  0  0  0  0
  185.6820  178.7630  140.5330 C   0  0  0  0  0  0  0  0  0  0  0  0
  188.3970  177.4540  143.1030 C   0  0  2  0  0  3  0  0  0  0  0  0
  186.4480  178.3600  141.6860 C   0  0  0  0  0  0  0  0  0  0  0  0
  185.6590  178.4630  142.7380 C   0  0  0  0  0  0  0  0  0  0  0  0
  187.1210  177.7280  146.6820 C   0  0  0  0  0  3  0  0  0  0  0  0
  185.0070  178.3740  147.5690 F   0  0  0  0  0  0  0  0  0  0  0  0
  184.4020  179.1100  140.9260 O   0  0  0  0  0  0  0  0  0  0  0  0
  186.0930  178.8030  139.3430 O   0  0  0  0  0  0  0  0  0  0  0  0
  188.5950  177.9640  140.7650 O   0  0  0  0  0  0  0  0  0  0  0  0
  185.8080  178.1670  146.4970 C   0  0  0  0  0  0  0  0  0  0  0  0
  184.2910  178.9510  142.3410 C   0  0  0  0  0  2  0  0  0  0  0  0
  187.4770  177.7370  144.2800 C   0  0  0  0  0  0  0  0  0  0  0  0
  187.8520  177.9410  141.7810 C   0  0  0  0  0  0  0  0  0  0  0  0
  187.9510  177.5130  145.5780 C   0  0  0  0  0  3  0  0  0  0  0  0
  188.6500  176.0830  143.0240 O   0  0  0  0  0  0  0  0  0  0  0  0
  189.9750  175.9850  142.5900 C   0  0  0  0  0  2  0  0  0  0  0  0
  190.8330  177.0000  143.3210 C   0  0  2  0  0  3  0  0  0  0  0  0
  191.8240  177.5500  142.4120 N   0  0  0  0  0  1  0  0  0  0  0  0
  191.5310  176.3190  144.4860 C   0  0  0  0  0  2  0  0  0  0  0  0
  191.5070  177.1510  145.6400 O   0  0  0  0  0  0  0  0  0  0  0  0
  192.3650  175.5710  147.3120 N   0  0  0  0  0  1  0  0  0  0  0  0
  190.6990  177.1140  147.7860 O   0  0  0  0  0  0  0  0  0  0  0  0
  191.4920  176.6320  146.9370 C   0  0  0  0  0  0  0  0  0  0  0  0
  1 12  1  0  0  0  0
  2 14  1  0  0  0  0
  2  1  2  0  0  0  0
  3  9  1  0  0  0  0
  3  5  1  0  0  0  0
  4 17  1  6  0  0  0
  4 14  1  0  0  0  0
  5 15  1  0  0  0  0
  5  6  2  0  0  0  0
  6  2  1  0  0  0  0
  9 13  1  0  0  0  0
 10  3  2  0  0  0  0
 11 15  2  0  0  0  0
 12  7  2  0  0  0  0
 12  8  1  0  0  0  0
 13  6  1  0  0  0  0
 14 16  2  0  0  0  0
 15  4  1  0  0  0  0
 16  7  1  0  0  0  0
 18 17  1  0  0  0  0
 18 19  1  0  0  0  0
 19 20  1  6  0  0  0
 19 21  1  0  0  0  0
 21 22  1  0  0  0  0
 22 25  1  0  0  0  0
 25 23  1  0  0  0  0
 25 24  2  0  0  0  0
M  END
>  <MODEL>
4

>  <REMARK>
 VINA RESULT:      -8.6      2.888      6.162
  Name = 
  6 active torsions:
  status: ('A' for Active; 'I' for Inactive)
    1  A    between atoms: C_2  and  C_21
    2  A    between atoms: C_2  and  C_25
    3  A    between atoms: C_5  and  O_18
    4  A    between atoms: O_7  and  C_17
    5  A    between atoms: O_7  and  C_21
    6  A    between atoms: O_18  and  C_25
                            x       y       z     vdW  Elec       q    Type
                         _______ _______ _______ _____ _____    ______ ____

>  <TORSDO>
F 6

$$$$
=
 OpenBabel10232409463D

 25 27  0  0  1  0  0  0  0  0999 V2000
  186.4400  178.3000  147.1640 C   0  0  0  0  0  3  0  0  0  0  0  0
  186.5970  178.1500  145.7800 C   0  0  0  0  0  0  0  0  0  0  0  0
  184.3510  178.7050  142.9690 C   0  0  0  0  0  0  0  0  0  0  0  0
  188.0670  177.5790  143.7550 C   0  0  2  0  0  3  0  0  0  0  0  0
  185.6190  178.3520  143.5580 C   0  0  0  0  0  0  0  0  0  0  0  0
  185.4700  178.3960  144.8680 C   0  0  0  0  0  0  0  0  0  0  0  0
  188.7740  177.7510  147.4940 C   0  0  0  0  0  3  0  0  0  0  0  0
  187.3710  178.2440  149.3550 F   0  0  0  0  0  0  0  0  0  0  0  0
  183.4310  178.9600  143.9700 O   0  0  0  0  0  0  0  0  0  0  0  0
  184.0970  178.7780  141.7380 O   0  0  0  0  0  0  0  0  0  0  0  0
  187.0180  178.1110  141.6620 O   0  0  0  0  0  0  0  0  0  0  0  0
  187.5260  178.0980  148.0180 C   0  0  0  0  0  0  0  0  0  0  0  0
  184.0650  178.7890  145.2390 C   0  0  0  0  0  2  0  0  0  0  0  0
  187.8580  177.7930  145.2460 C   0  0  0  0  0  0  0  0  0  0  0  0
  186.8980  178.0330  142.9120 C   0  0  0  0  0  0  0  0  0  0  0  0
  188.9390  177.5980  146.1150 C   0  0  0  0  0  3  0  0  0  0  0  0
  188.3240  176.2300  143.5060 O   0  0  0  0  0  0  0  0  0  0  0  0
  189.3210  176.2270  142.5260 C   0  0  0  0  0  2  0  0  0  0  0  0
  190.5030  177.0570  142.9910 C   0  0  2  0  0  3  0  0  0  0  0  0
  191.1820  177.6300  141.8420 N   0  0  0  0  0  1  0  0  0  0  0  0
  191.4650  176.1670  143.7620 C   0  0  0  0  0  2  0  0  0  0  0  0
  191.6770  176.6780  145.0730 O   0  0  0  0  0  0  0  0  0  0  0  0
  192.0410  176.3590  147.4800 N   0  0  0  0  0  1  0  0  0  0  0  0
  192.3620  174.6640  145.9290 O   0  0  0  0  0  0  0  0  0  0  0  0
  192.0390  175.8600  146.1450 C   0  0  0  0  0  0  0  0  0  0  0  0
  1 12  1  0  0  0  0
  2  1  2  0  0  0  0
  3  5  1  0  0  0  0
  3  9  1  0  0  0  0
  4 17  1  1  0  0  0
  4 14  1  0  0  0  0
  5  6  2  0  0  0  0
  6 13  1  0  0  0  0
  6  2  1  0  0  0  0
  7 12  2  0  0  0  0
  9 13  1  0  0  0  0
 10  3  2  0  0  0  0
 11 15  2  0  0  0  0
 12  8  1  0  0  0  0
 14  2  1  0  0  0  0
 14 16  2  0  0  0  0
 15  5  1  0  0  0  0
 15  4  1  0  0  0  0
 16  7  1  0  0  0  0
 18 19  1  0  0  0  0
 18 17  1  0  0  0  0
 19 20  1  6  0  0  0
 19 21  1  0  0  0  0
 21 22  1  0  0  0  0
 22 25  1  0  0  0  0
 24 25  2  0  0  0  0
 25 23  1  0  0  0  0
M  END
>  <MODEL>
5

>  <REMARK>
 VINA RESULT:      -8.4      3.135      5.950
  Name = 
  6 active torsions:
  status: ('A' for Active; 'I' for Inactive)
    1  A    between atoms: C_2  and  C_21
    2  A    between atoms: C_2  and  C_25
    3  A    between atoms: C_5  and  O_18
    4  A    between atoms: O_7  and  C_17
    5  A    between atoms: O_7  and  C_21
    6  A    between atoms: O_18  and  C_25
                            x       y       z     vdW  Elec       q    Type
                         _______ _______ _______ _____ _____    ______ ____

>  <TORSDO>
F 6

$$$$
=
 OpenBabel10232409463D

 25 27  0  0  1  0  0  0  0  0999 V2000
  187.2890  177.9940  147.2640 C   0  0  0  0  0  3  0  0  0  0  0  0
  187.1580  177.9590  145.8700 C   0  0  0  0  0  0  0  0  0  0  0  0
  184.3680  178.6510  143.6360 C   0  0  0  0  0  0  0  0  0  0  0  0
  188.1880  177.6040  143.5460 C   0  0  2  0  0  3  0  0  0  0  0  0
  185.7370  178.2990  143.9210 C   0  0  0  0  0  0  0  0  0  0  0  0
  185.8620  178.2350  145.2330 C   0  0  0  0  0  0  0  0  0  0  0  0
  189.6510  177.5060  147.0610 C   0  0  0  0  0  3  0  0  0  0  0  0
  188.6550  177.8000  149.2050 F   0  0  0  0  0  0  0  0  0  0  0  0
  183.6700  178.7930  144.8230 O   0  0  0  0  0  0  0  0  0  0  0  0
  183.8630  178.8110  142.4940 O   0  0  0  0  0  0  0  0  0  0  0  0
  186.7170  178.2600  141.7650 O   0  0  0  0  0  0  0  0  0  0  0  0
  188.5320  177.7650  147.8570 C   0  0  0  0  0  0  0  0  0  0  0  0
  184.5570  178.5450  145.9160 C   0  0  0  0  0  2  0  0  0  0  0  0
  188.2880  177.6920  145.0610 C   0  0  0  0  0  0  0  0  0  0  0  0
  186.8600  178.0790  143.0020 C   0  0  0  0  0  0  0  0  0  0  0  0
  189.5290  177.4690  145.6700 C   0  0  0  0  0  3  0  0  0  0  0  0
  188.4140  176.2880  143.1360 O   0  0  0  0  0  0  0  0  0  0  0  0
  189.7800  176.2290  142.8480 C   0  0  0  0  0  2  0  0  0  0  0  0
  190.1150  177.2070  141.7380 C   0  0  2  0  0  3  0  0  0  0  0  0
  189.5070  176.7640  140.4950 N   0  0  0  0  0  1  0  0  0  0  0  0
  191.6240  177.2770  141.5730 C   0  0  0  0  0  2  0  0  0  0  0  0
  191.9660  177.5990  140.2290 O   0  0  0  0  0  0  0  0  0  0  0  0
  193.2090  176.9100  138.2270 N   0  0  0  0  0  1  0  0  0  0  0  0
  194.1680  176.9670  140.3380 O   0  0  0  0  0  0  0  0  0  0  0  0
  193.1460  177.1520  139.6300 C   0  0  0  0  0  0  0  0  0  0  0  0
  1 12  1  0  0  0  0
  2  1  2  0  0  0  0
  3  5  1  0  0  0  0
  3  9  1  0  0  0  0
  4 17  1  1  0  0  0
  4 14  1  0  0  0  0
  5  6  2  0  0  0  0
  6  2  1  0  0  0  0
  6 13  1  0  0  0  0
  7 12  2  0  0  0  0
  9 13  1  0  0  0  0
 10  3  2  0  0  0  0
 11 15  2  0  0  0  0
 12  8  1  0  0  0  0
 14 16  2  0  0  0  0
 14  2  1  0  0  0  0
 15  4  1  0  0  0  0
 15  5  1  0  0  0  0
 16  7  1  0  0  0  0
 18 17  1  0  0  0  0
 19 20  1  6  0  0  0
 19 18  1  0  0  0  0
 21 19  1  0  0  0  0
 22 21  1  0  0  0  0
 23 25  1  0  0  0  0
 25 22  1  0  0  0  0
 25 24  2  0  0  0  0
M  END
>  <MODEL>
6

>  <REMARK>
 VINA RESULT:      -8.3      3.061      4.654
  Name = 
  6 active torsions:
  status: ('A' for Active; 'I' for Inactive)
    1  A    between atoms: C_2  and  C_21
    2  A    between atoms: C_2  and  C_25
    3  A    between atoms: C_5  and  O_18
    4  A    between atoms: O_7  and  C_17
    5  A    between atoms: O_7  and  C_21
    6  A    between atoms: O_18  and  C_25
                            x       y       z     vdW  Elec       q    Type
                         _______ _______ _______ _____ _____    ______ ____

>  <TORSDO>
F 6

$$$$
=
 OpenBabel10232409463D

 25 27  0  0  1  0  0  0  0  0999 V2000
  187.2990  177.9030  146.9410 C   0  0  0  0  0  3  0  0  0  0  0  0
  187.0760  177.9960  145.5610 C   0  0  0  0  0  0  0  0  0  0  0  0
  184.1080  178.7320  143.5860 C   0  0  0  0  0  0  0  0  0  0  0  0
  187.9640  177.9310  143.1540 C   0  0  2  0  0  3  0  0  0  0  0  0
  185.5100  178.4370  143.7480 C   0  0  0  0  0  0  0  0  0  0  0  0
  185.7270  178.2530  145.0360 C   0  0  0  0  0  0  0  0  0  0  0  0
  189.6650  177.5810  146.5440 C   0  0  0  0  0  3  0  0  0  0  0  0
  188.8020  177.6040  148.7640 F   0  0  0  0  0  0  0  0  0  0  0  0
  183.4860  178.7160  144.8220 O   0  0  0  0  0  0  0  0  0  0  0  0
  183.5190  178.9710  142.4990 O   0  0  0  0  0  0  0  0  0  0  0  0
  186.3430  178.6660  141.5420 O   0  0  0  0  0  0  0  0  0  0  0  0
  188.5910  177.6930  147.4290 C   0  0  0  0  0  0  0  0  0  0  0  0
  184.4560  178.4170  145.8270 C   0  0  0  0  0  2  0  0  0  0  0  0
  188.1620  177.8770  144.6600 C   0  0  0  0  0  0  0  0  0  0  0  0
  186.5790  178.3750  142.7440 C   0  0  0  0  0  0  0  0  0  0  0  0
  189.4510  177.6710  145.1650 C   0  0  0  0  0  3  0  0  0  0  0  0
  188.2320  176.6770  142.6000 O   0  0  0  0  0  0  0  0  0  0  0  0
  189.4970  176.8020  142.0190 C   0  0  0  0  0  2  0  0  0  0  0  0
  189.3710  176.8220  140.5080 C   0  0  2  0  0  3  0  0  0  0  0  0
  190.5130  176.1510  139.9120 N   0  0  0  0  0  1  0  0  0  0  0  0
  189.3180  178.2640  140.0300 C   0  0  0  0  0  2  0  0  0  0  0  0
  188.4080  178.3980  138.9440 O   0  0  0  0  0  0  0  0  0  0  0  0
  189.0910  177.7010  136.6910 N   0  0  0  0  0  1  0  0  0  0  0  0
  188.9700  179.9280  137.3310 O   0  0  0  0  0  0  0  0  0  0  0  0
  188.8280  178.7200  137.6520 C   0  0  0  0  0  0  0  0  0  0  0  0
  1 12  1  0  0  0  0
  2  1  2  0  0  0  0
  3  5  1  0  0  0  0
  3  9  1  0  0  0  0
  4 17  1  1  0  0  0
  4 14  1  0  0  0  0
  5  6  2  0  0  0  0
  6  2  1  0  0  0  0
  6 13  1  0  0  0  0
  7 12  2  0  0  0  0
  9 13  1  0  0  0  0
 10  3  2  0  0  0  0
 11 15  2  0  0  0  0
 12  8  1  0  0  0  0
 14 16  2  0  0  0  0
 14  2  1  0  0  0  0
 15  4  1  0  0  0  0
 15  5  1  0  0  0  0
 16  7  1  0  0  0  0
 18 17  1  0  0  0  0
 19 20  1  6  0  0  0
 19 18  1  0  0  0  0
 21 19  1  0  0  0  0
 22 21  1  0  0  0  0
 23 25  1  0  0  0  0
 24 25  2  0  0  0  0
 25 22  1  0  0  0  0
M  END
>  <MODEL>
7

>  <REMARK>
 VINA RESULT:      -8.0      2.469      4.078
  Name = 
  6 active torsions:
  status: ('A' for Active; 'I' for Inactive)
    1  A    between atoms: C_2  and  C_21
    2  A    between atoms: C_2  and  C_25
    3  A    between atoms: C_5  and  O_18
    4  A    between atoms: O_7  and  C_17
    5  A    between atoms: O_7  and  C_21
    6  A    between atoms: O_18  and  C_25
                            x       y       z     vdW  Elec       q    Type
                         _______ _______ _______ _____ _____    ______ ____

>  <TORSDO>
F 6

$$$$
=
 OpenBabel10232409463D

 25 27  0  0  1  0  0  0  0  0999 V2000
  189.2570  177.1460  146.1330 C   0  0  0  0  0  3  0  0  0  0  0  0
  188.8870  177.3990  144.8060 C   0  0  0  0  0  0  0  0  0  0  0  0
  185.7070  178.2460  143.2500 C   0  0  0  0  0  0  0  0  0  0  0  0
  189.5180  177.6690  142.3330 C   0  0  2  0  0  3  0  0  0  0  0  0
  187.1260  177.9940  143.2310 C   0  0  0  0  0  0  0  0  0  0  0  0
  187.4830  177.6620  144.4570 C   0  0  0  0  0  0  0  0  0  0  0  0
  191.5760  176.9760  145.4620 C   0  0  0  0  0  3  0  0  0  0  0  0
  190.9510  176.6890  147.7430 F   0  0  0  0  0  0  0  0  0  0  0  0
  185.2190  178.0510  144.5300 O   0  0  0  0  0  0  0  0  0  0  0  0
  185.0000  178.5930  142.2670 O   0  0  0  0  0  0  0  0  0  0  0  0
  187.7150  178.5280  141.0000 O   0  0  0  0  0  0  0  0  0  0  0  0
  190.5980  176.9330  146.4580 C   0  0  0  0  0  0  0  0  0  0  0  0
  186.2980  177.6720  145.3860 C   0  0  0  0  0  2  0  0  0  0  0  0
  189.8740  177.4380  143.7930 C   0  0  0  0  0  0  0  0  0  0  0  0
  188.0840  178.1020  142.1240 C   0  0  0  0  0  0  0  0  0  0  0  0
  191.2160  177.2270  144.1350 C   0  0  0  0  0  3  0  0  0  0  0  0
  189.7630  176.5060  141.6000 O   0  0  0  0  0  0  0  0  0  0  0  0
  190.5570  176.9170  140.5260 C   0  0  0  0  0  2  0  0  0  0  0  0
  189.9770  176.3920  139.2260 C   0  0  2  0  0  3  0  0  0  0  0  0
  190.9010  175.4460  138.6240 N   0  0  0  0  0  1  0  0  0  0  0  0
  189.7460  177.5560  138.2760 C   0  0  0  0  0  2  0  0  0  0  0  0
  188.5060  177.4070  137.5950 O   0  0  0  0  0  0  0  0  0  0  0  0
  186.2440  178.3050  137.9210 N   0  0  0  0  0  1  0  0  0  0  0  0
  187.9570  179.5430  136.9660 O   0  0  0  0  0  0  0  0  0  0  0  0
  187.5880  178.4530  137.4730 C   0  0  0  0  0  0  0  0  0  0  0  0
  1 12  1  0  0  0  0
  2  1  2  0  0  0  0
  3  9  1  0  0  0  0
  4 17  1  6  0  0  0
  4 14  1  0  0  0  0
  5  3  1  0  0  0  0
  5  6  2  0  0  0  0
  6  2  1  0  0  0  0
  6 13  1  0  0  0  0
  7 12  2  0  0  0  0
  9 13  1  0  0  0  0
 10  3  2  0  0  0  0
 11 15  2  0  0  0  0
 12  8  1  0  0  0  0
 14 16  2  0  0  0  0
 14  2  1  0  0  0  0
 15  4  1  0  0  0  0
 15  5  1  0  0  0  0
 16  7  1  0  0  0  0
 18 17  1  0  0  0  0
 19 20  1  6  0  0  0
 19 18  1  0  0  0  0
 21 19  1  0  0  0  0
 22 21  1  0  0  0  0
 24 25  2  0  0  0  0
 25 22  1  0  0  0  0
 25 23  1  0  0  0  0
M  END
>  <MODEL>
8

>  <REMARK>
 VINA RESULT:      -8.0      2.802      4.392
  Name = 
  6 active torsions:
  status: ('A' for Active; 'I' for Inactive)
    1  A    between atoms: C_2  and  C_21
    2  A    between atoms: C_2  and  C_25
    3  A    between atoms: C_5  and  O_18
    4  A    between atoms: O_7  and  C_17
    5  A    between atoms: O_7  and  C_21
    6  A    between atoms: O_18  and  C_25
                            x       y       z     vdW  Elec       q    Type
                         _______ _______ _______ _____ _____    ______ ____

>  <TORSDO>
F 6

$$$$
=
 OpenBabel10232409463D

 25 27  0  0  1  0  0  0  0  0999 V2000
  183.2450  178.9260  144.1040 C   0  0  0  0  0  3  0  0  0  0  0  0
  184.5800  178.5050  144.0490 C   0  0  0  0  0  0  0  0  0  0  0  0
  187.0760  177.8820  146.6240 C   0  0  0  0  0  0  0  0  0  0  0  0
  186.6120  177.7200  142.6930 C   0  0  2  0  0  3  0  0  0  0  0  0
  186.6080  177.9140  145.2610 C   0  0  0  0  0  0  0  0  0  0  0  0
  185.3810  178.3970  145.2770 C   0  0  0  0  0  0  0  0  0  0  0  0
  183.0470  178.6320  141.7090 C   0  0  0  0  0  3  0  0  0  0  0  0
  181.1920  179.4000  142.9920 F   0  0  0  0  0  0  0  0  0  0  0  0
  186.0880  178.3660  147.4640 O   0  0  0  0  0  0  0  0  0  0  0  0
  188.2030  177.4790  147.0150 O   0  0  0  0  0  0  0  0  0  0  0  0
  188.4040  176.9200  144.0780 O   0  0  0  0  0  0  0  0  0  0  0  0
  182.4830  178.9920  142.9350 C   0  0  0  0  0  0  0  0  0  0  0  0
  184.9470  178.7230  146.6820 C   0  0  0  0  0  2  0  0  0  0  0  0
  185.1570  178.1450  142.8080 C   0  0  0  0  0  0  0  0  0  0  0  0
  187.2750  177.4750  144.0290 C   0  0  0  0  0  0  0  0  0  0  0  0
  184.3790  178.2120  141.6460 C   0  0  0  0  0  3  0  0  0  0  0  0
  187.3300  178.6890  141.9890 O   0  0  0  0  0  0  0  0  0  0  0  0
  187.6300  178.0950  140.7600 C   0  0  0  0  0  2  0  0  0  0  0  0
  189.0930  178.3140  140.4250 C   0  0  2  0  0  3  0  0  0  0  0  0
  189.2500  178.4570  138.9880 N   0  0  0  0  0  1  0  0  0  0  0  0
  189.9010  177.1230  140.9120 C   0  0  0  0  0  2  0  0  0  0  0  0
  191.1660  177.5450  141.4080 O   0  0  0  0  0  0  0  0  0  0  0  0
  191.6150  178.6400  143.5590 N   0  0  0  0  0  1  0  0  0  0  0  0
  191.7070  176.3380  143.2810 O   0  0  0  0  0  0  0  0  0  0  0  0
  191.5040  177.4650  142.7600 C   0  0  0  0  0  0  0  0  0  0  0  0
  2  1  1  0  0  0  0
  2  6  1  0  0  0  0
  3 10  2  0  0  0  0
  3  9  1  0  0  0  0
  4 17  1  1  0  0  0
  4 14  1  0  0  0  0
  4 15  1  0  0  0  0
  5  6  2  0  0  0  0
  5  3  1  0  0  0  0
  6 13  1  0  0  0  0
  7 12  1  0  0  0  0
 12  8  1  0  0  0  0
 12  1  2  0  0  0  0
 13  9  1  0  0  0  0
 14  2  2  0  0  0  0
 15 11  2  0  0  0  0
 15  5  1  0  0  0  0
 16  7  2  0  0  0  0
 16 14  1  0  0  0  0
 18 17  1  0  0  0  0
 19 20  1  6  0  0  0
 19 18  1  0  0  0  0
 19 21  1  0  0  0  0
 21 22  1  0  0  0  0
 22 25  1  0  0  0  0
 25 24  2  0  0  0  0
 25 23  1  0  0  0  0
M  END
>  <MODEL>
9

>  <REMARK>
 VINA RESULT:      -7.9      2.250      3.583
  Name = 
  6 active torsions:
  status: ('A' for Active; 'I' for Inactive)
    1  A    between atoms: C_2  and  C_21
    2  A    between atoms: C_2  and  C_25
    3  A    between atoms: C_5  and  O_18
    4  A    between atoms: O_7  and  C_17
    5  A    between atoms: O_7  and  C_21
    6  A    between atoms: O_18  and  C_25
                            x       y       z     vdW  Elec       q    Type
                         _______ _______ _______ _____ _____    ______ ____

>  <TORSDO>
F 6

$$$$
