=
 OpenBabel10232412003D

 41 44  0  0  1  0  0  0  0  0999 V2000
  192.3180  176.8400  148.0180 O   0  0  0  0  0  1  0  0  0  0  0  0
  191.5710  176.6260  145.7360 C   0  0  0  0  0  3  0  0  0  0  0  0
  190.0070  177.2550  147.4740 C   0  0  0  0  0  3  0  0  0  0  0  0
  188.2410  177.1620  144.2630 N   0  0  0  0  0  0  0  0  0  0  0  0
  186.9740  177.5130  144.6210 C   0  0  0  0  0  0  0  0  0  0  0  0
  189.2520  177.0570  145.1660 C   0  0  0  0  0  0  0  0  0  0  0  0
  186.6800  177.7770  145.9600 C   0  0  0  0  0  3  0  0  0  0  0  0
  191.2990  176.9070  147.0780 C   0  0  0  0  0  0  0  0  0  0  0  0
  190.5620  176.6870  144.7690 C   0  0  0  0  0  0  0  0  0  0  0  0
  188.9850  177.3320  146.5270 C   0  0  0  0  0  0  0  0  0  0  0  0
  187.6930  177.6860  146.9160 C   0  0  0  0  0  3  0  0  0  0  0  0
  190.9150  176.3750  143.4130 N   0  0  0  0  0  2  0  0  0  0  0  0
  190.8510  177.3040  142.2950 C   0  0  0  0  0  2  0  0  0  0  0  0
  188.7200  176.7770  141.3380 O   0  0  0  0  0  0  0  0  0  0  0  0
  190.1100  176.6680  141.1360 C   0  0  1  0  0  3  0  0  0  0  0  0
  190.4920  177.3720  139.8500 C   0  0  2  0  0  3  0  0  0  0  0  0
  189.3310  179.1960  138.8900 O   0  0  0  0  0  1  0  0  0  0  0  0
  189.1960  177.8690  139.2940 C   0  0  2  0  0  3  0  0  0  0  0  0
  188.2650  177.7880  140.4730 C   0  0  0  0  0  2  0  0  0  0  0  0
  193.3380  175.6750  137.8060 C   0  0  0  0  0  0  0  0  0  0  0  0
  194.5840  175.8420  137.6980 O   0  0  0  0  0  0  0  0  0  0  0  0
  191.1680  176.4300  138.9000 C   0  0  0  0  0  0  0  0  0  0  0  0
  190.4770  175.5690  138.2890 O   0  0  0  0  0  0  0  0  0  0  0  0
  193.2820  177.4280  139.4370 O   0  0  0  0  0  1  0  0  0  0  0  0
  192.5940  176.5130  138.7110 N   0  0  0  0  0  0  0  0  0  0  0  0
  192.2930  173.9950  134.6930 N   0  0  0  0  0  2  0  0  0  0  0  0
  192.9760  172.8700  135.2160 C   0  0  0  0  0  0  0  0  0  0  0  0
  192.6730  174.6300  136.9620 C   0  0  1  0  0  3  0  0  0  0  0  0
  192.3920  175.1530  135.5570 C   0  0  0  0  0  2  0  0  0  0  0  0
  192.6840  171.6840  134.8010 N   0  0  0  0  0  2  0  0  0  0  0  0
  193.6920  173.1180  136.8270 S   0  0  0  0  0  0  0  0  0  0  0  0
  185.9670  177.6160  143.6600 O   0  0  0  0  0  0  0  0  0  0  0  0
  183.9780  178.8350  144.2850 C   0  0  0  0  0  1  0  0  0  0  0  0
  185.2440  178.8260  143.4430 C   0  0  2  0  0  3  0  0  0  0  0  0
  185.6120  179.6110  141.2450 O   0  0  0  0  0  0  0  0  0  0  0  0
  184.8960  178.9640  141.9960 C   0  0  0  0  0  0  0  0  0  0  0  0
  183.6830  178.2720  141.4640 C   0  0  0  0  0  2  0  0  0  0  0  0
  183.2380  178.8720  140.1370 C   0  0  0  0  0  2  0  0  0  0  0  0
  182.0050  178.5870  138.1680 C   0  0  0  0  0  1  0  0  0  0  0  0
  182.2850  178.0000  139.4680 N   0  0  0  0  0  0  0  0  0  0  0  0
  182.9730  176.7480  139.2160 C   0  0  0  0  0  1  0  0  0  0  0  0
  2  8  1  0  0  0  0
  4  5  2  0  0  0  0
  4  6  1  0  0  0  0
  5  7  1  0  0  0  0
  6 10  2  0  0  0  0
  7 11  2  0  0  0  0
  8  3  2  0  0  0  0
  8  1  1  0  0  0  0
  9  6  1  0  0  0  0
  9  2  2  0  0  0  0
 10 11  1  0  0  0  0
 10  3  1  0  0  0  0
 12  9  1  0  0  0  0
 13 12  1  0  0  0  0
 15 14  1  0  0  0  0
 15 13  1  1  0  0  0
 16 22  1  6  0  0  0
 16 15  1  0  0  0  0
 18 17  1  1  0  0  0
 18 16  1  0  0  0  0
 18 19  1  0  0  0  0
 19 14  1  0  0  0  0
 20 25  1  0  0  0  0
 21 20  2  0  0  0  0
 23 22  2  0  0  0  0
 25 22  1  0  0  0  0
 25 24  1  0  0  0  0
 26 27  1  0  0  0  0
 26 29  1  0  0  0  0
 27 31  1  0  0  0  0
 28 20  1  1  0  0  0
 29 28  1  0  0  0  0
 30 27  2  0  0  0  0
 31 28  1  0  0  0  0
 32  5  1  0  0  0  0
 34 32  1  0  0  0  0
 34 33  1  1  0  0  0
 35 36  2  0  0  0  0
 36 34  1  0  0  0  0
 37 36  1  0  0  0  0
 38 37  1  0  0  0  0
 39 40  1  0  0  0  0
 40 38  1  0  0  0  0
 41 40  1  0  0  0  0
M  END
>  <MODEL>
1

>  <REMARK>
 VINA RESULT:      -9.2      0.000      0.000
  Name = 
  11 active torsions:
  status: ('A' for Active; 'I' for Inactive)
    1  A    between atoms: C_4  and  N_9
    2  A    between atoms: C_4  and  C_18
    3  A    between atoms: C_6  and  C_25
    4  A    between atoms: C_7  and  N_16
    5  A    between atoms: C_7  and  C_29
    6  A    between atoms: N_9  and  C_30
    7  A    between atoms: C_13  and  C_29
    8  A    between atoms: C_13  and  C_39
    9  A    between atoms: C_17  and  O_33
   10  A    between atoms: C_19  and  C_34
   11  A    between atoms: O_33  and  C_39
                            x       y       z     vdW  Elec       q    Type
                         _______ _______ _______ _____ _____    ______ ____

>  <TORSDO>
F 11

$$$$
=
 OpenBabel10232412003D

 41 44  0  0  1  0  0  0  0  0999 V2000
  192.2750  176.8580  148.0940 O   0  0  0  0  0  1  0  0  0  0  0  0
  191.4000  176.6660  145.8560 C   0  0  0  0  0  3  0  0  0  0  0  0
  189.9400  177.2840  147.6850 C   0  0  0  0  0  3  0  0  0  0  0  0
  187.9940  177.2250  144.5780 N   0  0  0  0  0  0  0  0  0  0  0  0
  186.7510  177.5770  145.0100 C   0  0  0  0  0  0  0  0  0  0  0  0
  189.0540  177.1090  145.4220 C   0  0  0  0  0  0  0  0  0  0  0  0
  186.5340  177.8290  146.3660 C   0  0  0  0  0  3  0  0  0  0  0  0
  191.2060  176.9360  147.2130 C   0  0  0  0  0  0  0  0  0  0  0  0
  190.3380  176.7390  144.9480 C   0  0  0  0  0  0  0  0  0  0  0  0
  188.8660  177.3720  146.7980 C   0  0  0  0  0  0  0  0  0  0  0  0
  187.5990  177.7270  147.2620 C   0  0  0  0  0  3  0  0  0  0  0  0
  190.6140  176.4380  143.5720 N   0  0  0  0  0  2  0  0  0  0  0  0
  190.6200  177.4080  142.4870 C   0  0  0  0  0  2  0  0  0  0  0  0
  188.9640  176.4470  141.0480 O   0  0  0  0  0  0  0  0  0  0  0  0
  190.3420  176.7120  141.1690 C   0  0  1  0  0  3  0  0  0  0  0  0
  190.7890  177.6030  140.0280 C   0  0  2  0  0  3  0  0  0  0  0  0
  189.4180  179.1520  138.8820 O   0  0  0  0  0  1  0  0  0  0  0  0
  189.5580  177.8030  139.2030 C   0  0  2  0  0  3  0  0  0  0  0  0
  188.4520  177.3840  140.1330 C   0  0  0  0  0  2  0  0  0  0  0  0
  192.5460  175.0880  137.6310 C   0  0  0  0  0  0  0  0  0  0  0  0
  192.1790  174.0810  136.9670 O   0  0  0  0  0  0  0  0  0  0  0  0
  191.8790  176.9510  139.2310 C   0  0  0  0  0  0  0  0  0  0  0  0
  193.0470  177.4270  139.2780 O   0  0  0  0  0  0  0  0  0  0  0  0
  190.2870  175.3750  138.3720 O   0  0  0  0  0  1  0  0  0  0  0  0
  191.5730  175.8040  138.4160 N   0  0  0  0  0  0  0  0  0  0  0  0
  196.1980  174.5730  137.5350 N   0  0  0  0  0  2  0  0  0  0  0  0
  196.1540  175.3670  136.3620 C   0  0  0  0  0  0  0  0  0  0  0  0
  193.9910  175.4820  137.6070 C   0  0  1  0  0  3  0  0  0  0  0  0
  194.8820  174.3460  138.0970 C   0  0  0  0  0  2  0  0  0  0  0  0
  197.2140  175.9820  135.9560 N   0  0  0  0  0  2  0  0  0  0  0  0
  194.5350  175.9640  135.9290 S   0  0  0  0  0  0  0  0  0  0  0  0
  185.6910  177.6910  144.1090 O   0  0  0  0  0  0  0  0  0  0  0  0
  183.8320  179.2060  144.3830 C   0  0  0  0  0  1  0  0  0  0  0  0
  185.1690  178.9550  143.7060 C   0  0  2  0  0  3  0  0  0  0  0  0
  185.7530  179.6720  141.5320 O   0  0  0  0  0  0  0  0  0  0  0  0
  185.0050  178.9940  142.2200 C   0  0  0  0  0  0  0  0  0  0  0  0
  183.9400  178.1650  141.5790 C   0  0  0  0  0  2  0  0  0  0  0  0
  183.3280  178.8780  140.3800 C   0  0  0  0  0  2  0  0  0  0  0  0
  181.7250  177.2680  139.8190 C   0  0  0  0  0  1  0  0  0  0  0  0
  181.8970  178.6270  140.3040 N   0  0  0  0  0  0  0  0  0  0  0  0
  181.3990  178.6460  141.6660 C   0  0  0  0  0  1  0  0  0  0  0  0
  2  8  1  0  0  0  0
  4  5  2  0  0  0  0
  4  6  1  0  0  0  0
  5  7  1  0  0  0  0
  6 10  2  0  0  0  0
  7 11  2  0  0  0  0
  8  3  2  0  0  0  0
  8  1  1  0  0  0  0
  9  6  1  0  0  0  0
  9  2  2  0  0  0  0
 10 11  1  0  0  0  0
 10  3  1  0  0  0  0
 12  9  1  0  0  0  0
 13 12  1  0  0  0  0
 14 15  1  0  0  0  0
 15 13  1  1  0  0  0
 16 22  1  6  0  0  0
 16 15  1  0  0  0  0
 18 17  1  1  0  0  0
 18 16  1  0  0  0  0
 18 19  1  0  0  0  0
 19 14  1  0  0  0  0
 20 25  1  0  0  0  0
 21 20  2  0  0  0  0
 22 23  2  0  0  0  0
 24 25  1  0  0  0  0
 25 22  1  0  0  0  0
 26 29  1  0  0  0  0
 27 26  1  0  0  0  0
 28 20  1  6  0  0  0
 28 29  1  0  0  0  0
 30 27  2  0  0  0  0
 31 27  1  0  0  0  0
 31 28  1  0  0  0  0
 32  5  1  0  0  0  0
 34 32  1  0  0  0  0
 34 33  1  1  0  0  0
 35 36  2  0  0  0  0
 36 34  1  0  0  0  0
 37 36  1  0  0  0  0
 38 37  1  0  0  0  0
 39 40  1  0  0  0  0
 40 38  1  0  0  0  0
 40 41  1  0  0  0  0
M  END
>  <MODEL>
2

>  <REMARK>
 VINA RESULT:      -8.8      1.514      2.017
  Name = 
  11 active torsions:
  status: ('A' for Active; 'I' for Inactive)
    1  A    between atoms: C_4  and  N_9
    2  A    between atoms: C_4  and  C_18
    3  A    between atoms: C_6  and  C_25
    4  A    between atoms: C_7  and  N_16
    5  A    between atoms: C_7  and  C_29
    6  A    between atoms: N_9  and  C_30
    7  A    between atoms: C_13  and  C_29
    8  A    between atoms: C_13  and  C_39
    9  A    between atoms: C_17  and  O_33
   10  A    between atoms: C_19  and  C_34
   11  A    between atoms: O_33  and  C_39
                            x       y       z     vdW  Elec       q    Type
                         _______ _______ _______ _____ _____    ______ ____

>  <TORSDO>
F 11

$$$$
=
 OpenBabel10232412003D

 41 44  0  0  1  0  0  0  0  0999 V2000
  183.5440  176.6000  135.0850 O   0  0  0  0  0  1  0  0  0  0  0  0
  185.3160  177.3460  136.5390 C   0  0  0  0  0  3  0  0  0  0  0  0
  183.0250  177.3300  137.3210 C   0  0  0  0  0  3  0  0  0  0  0  0
  185.1960  178.5210  140.0250 N   0  0  0  0  0  0  0  0  0  0  0  0
  184.3060  178.7490  141.0300 C   0  0  0  0  0  0  0  0  0  0  0  0
  184.8150  178.0690  138.8010 C   0  0  0  0  0  0  0  0  0  0  0  0
  182.9450  178.5200  140.8160 C   0  0  0  0  0  3  0  0  0  0  0  0
  183.9600  177.0920  136.3140 C   0  0  0  0  0  0  0  0  0  0  0  0
  185.7610  177.8420  137.7690 C   0  0  0  0  0  0  0  0  0  0  0  0
  183.4450  177.8160  138.5600 C   0  0  0  0  0  0  0  0  0  0  0  0
  182.5150  178.0500  139.5750 C   0  0  0  0  0  3  0  0  0  0  0  0
  187.1670  178.0880  137.9220 N   0  0  0  0  0  2  0  0  0  0  0  0
  188.2240  177.1480  137.5830 C   0  0  0  0  0  2  0  0  0  0  0  0
  189.3200  178.7210  139.0160 O   0  0  0  0  0  0  0  0  0  0  0  0
  189.5380  177.6080  138.1820 C   0  0  1  0  0  3  0  0  0  0  0  0
  190.1430  176.4790  138.9910 C   0  0  2  0  0  3  0  0  0  0  0  0
  189.8270  176.1330  141.3090 O   0  0  0  0  0  1  0  0  0  0  0  0
  190.3000  177.0440  140.3660 C   0  0  2  0  0  3  0  0  0  0  0  0
  189.4100  178.2570  140.3400 C   0  0  0  0  0  2  0  0  0  0  0  0
  192.7920  174.2840  137.1690 C   0  0  0  0  0  0  0  0  0  0  0  0
  192.7820  173.1570  136.6010 O   0  0  0  0  0  0  0  0  0  0  0  0
  191.4640  176.0560  138.4220 C   0  0  0  0  0  0  0  0  0  0  0  0
  192.4620  176.8190  138.5460 O   0  0  0  0  0  0  0  0  0  0  0  0
  190.4460  174.0500  137.5890 O   0  0  0  0  0  1  0  0  0  0  0  0
  191.5690  174.7960  137.7310 N   0  0  0  0  0  0  0  0  0  0  0  0
  196.3870  174.7630  137.8450 N   0  0  0  0  0  2  0  0  0  0  0  0
  196.4570  175.1900  136.4960 C   0  0  0  0  0  0  0  0  0  0  0  0
  194.0860  175.0320  137.2670 C   0  0  1  0  0  3  0  0  0  0  0  0
  195.0530  174.3400  138.2220 C   0  0  0  0  0  2  0  0  0  0  0  0
  197.4290  175.9440  136.1050 N   0  0  0  0  0  2  0  0  0  0  0  0
  194.8980  175.1990  135.6370 S   0  0  0  0  0  0  0  0  0  0  0  0
  184.7400  179.2060  142.2750 O   0  0  0  0  0  0  0  0  0  0  0  0
  183.3840  179.2520  144.2720 C   0  0  0  0  0  1  0  0  0  0  0  0
  184.4510  178.5080  143.4850 C   0  0  2  0  0  3  0  0  0  0  0  0
  185.6620  178.5820  145.5120 O   0  0  0  0  0  0  0  0  0  0  0  0
  185.6910  178.3710  144.3080 C   0  0  0  0  0  0  0  0  0  0  0  0
  186.9610  177.9340  143.6530 C   0  0  0  0  0  2  0  0  0  0  0  0
  187.7650  177.0110  144.5610 C   0  0  0  0  0  2  0  0  0  0  0  0
  188.9210  177.4480  146.5480 C   0  0  0  0  0  1  0  0  0  0  0  0
  188.9140  177.7080  145.1190 N   0  0  0  0  0  0  0  0  0  0  0  0
  190.0950  177.0610  144.5760 C   0  0  0  0  0  1  0  0  0  0  0  0
  1  8  1  0  0  0  0
  2  9  1  0  0  0  0
  3 10  2  0  0  0  0
  4  5  2  0  0  0  0
  5 32  1  0  0  0  0
  6  4  1  0  0  0  0
  7  5  1  0  0  0  0
  8  2  2  0  0  0  0
  8  3  1  0  0  0  0
  9 12  1  0  0  0  0
  9  6  2  0  0  0  0
 10  6  1  0  0  0  0
 10 11  1  0  0  0  0
 11  7  2  0  0  0  0
 13 12  1  0  0  0  0
 14 19  1  0  0  0  0
 15 13  1  1  0  0  0
 15 16  1  0  0  0  0
 15 14  1  0  0  0  0
 16 22  1  6  0  0  0
 16 18  1  0  0  0  0
 18 17  1  1  0  0  0
 19 18  1  0  0  0  0
 20 25  1  0  0  0  0
 21 20  2  0  0  0  0
 22 23  2  0  0  0  0
 24 25  1  0  0  0  0
 25 22  1  0  0  0  0
 26 29  1  0  0  0  0
 27 26  1  0  0  0  0
 28 20  1  6  0  0  0
 28 29  1  0  0  0  0
 30 27  2  0  0  0  0
 31 27  1  0  0  0  0
 31 28  1  0  0  0  0
 32 34  1  0  0  0  0
 34 33  1  1  0  0  0
 34 36  1  0  0  0  0
 36 35  2  0  0  0  0
 37 36  1  0  0  0  0
 37 38  1  0  0  0  0
 38 40  1  0  0  0  0
 40 39  1  0  0  0  0
 41 40  1  0  0  0  0
M  END
>  <MODEL>
3

>  <REMARK>
 VINA RESULT:      -8.2      2.479      6.509
  Name = 
  11 active torsions:
  status: ('A' for Active; 'I' for Inactive)
    1  A    between atoms: C_4  and  N_9
    2  A    between atoms: C_4  and  C_18
    3  A    between atoms: C_6  and  C_25
    4  A    between atoms: C_7  and  N_16
    5  A    between atoms: C_7  and  C_29
    6  A    between atoms: N_9  and  C_30
    7  A    between atoms: C_13  and  C_29
    8  A    between atoms: C_13  and  C_39
    9  A    between atoms: C_17  and  O_33
   10  A    between atoms: C_19  and  C_34
   11  A    between atoms: O_33  and  C_39
                            x       y       z     vdW  Elec       q    Type
                         _______ _______ _______ _____ _____    ______ ____

>  <TORSDO>
F 11

$$$$
=
 OpenBabel10232412003D

 41 44  0  0  1  0  0  0  0  0999 V2000
  193.4290  177.3840  139.9480 O   0  0  0  0  0  1  0  0  0  0  0  0
  191.0250  177.2080  140.0160 C   0  0  0  0  0  3  0  0  0  0  0  0
  192.2870  177.4300  142.0700 C   0  0  0  0  0  3  0  0  0  0  0  0
  188.7150  177.2630  142.8810 N   0  0  0  0  0  0  0  0  0  0  0  0
  188.7240  177.3620  144.2390 C   0  0  0  0  0  0  0  0  0  0  0  0
  189.8570  177.2700  142.1420 C   0  0  0  0  0  0  0  0  0  0  0  0
  189.9380  177.4730  144.9190 C   0  0  0  0  0  3  0  0  0  0  0  0
  192.2490  177.3400  140.6780 C   0  0  0  0  0  0  0  0  0  0  0  0
  189.8220  177.1630  140.7280 C   0  0  0  0  0  0  0  0  0  0  0  0
  191.1000  177.3950  142.8030 C   0  0  0  0  0  0  0  0  0  0  0  0
  191.1310  177.4910  144.1940 C   0  0  0  0  0  3  0  0  0  0  0  0
  188.6060  177.0150  139.9790 N   0  0  0  0  0  2  0  0  0  0  0  0
  187.7800  178.1120  139.4990 C   0  0  0  0  0  2  0  0  0  0  0  0
  187.7450  179.0670  137.3040 O   0  0  0  0  0  0  0  0  0  0  0  0
  187.4420  177.9040  138.0360 C   0  0  1  0  0  3  0  0  0  0  0  0
  188.2470  176.7400  137.4960 C   0  0  2  0  0  3  0  0  0  0  0  0
  190.3520  176.9100  136.4290 O   0  0  0  0  0  1  0  0  0  0  0  0
  189.0210  177.3170  136.3530 C   0  0  2  0  0  3  0  0  0  0  0  0
  188.9280  178.7990  136.5920 C   0  0  0  0  0  2  0  0  0  0  0  0
  187.1190  173.1650  136.4450 C   0  0  0  0  0  0  0  0  0  0  0  0
  187.6870  172.0440  136.3350 O   0  0  0  0  0  0  0  0  0  0  0  0
  187.3500  175.6290  137.0410 C   0  0  0  0  0  0  0  0  0  0  0  0
  186.1360  175.8740  136.8010 O   0  0  0  0  0  0  0  0  0  0  0  0
  189.1860  174.0940  137.2210 O   0  0  0  0  0  1  0  0  0  0  0  0
  187.8850  174.2980  136.8980 N   0  0  0  0  0  0  0  0  0  0  0  0
  183.9280  172.1510  134.8980 N   0  0  0  0  0  2  0  0  0  0  0  0
  183.4010  172.2560  136.2100 C   0  0  0  0  0  0  0  0  0  0  0  0
  185.6740  173.2830  136.0680 C   0  0  1  0  0  3  0  0  0  0  0  0
  185.3500  172.4230  134.8510 C   0  0  0  0  0  2  0  0  0  0  0  0
  182.1350  172.4300  136.3870 N   0  0  0  0  0  2  0  0  0  0  0  0
  184.5720  172.7860  137.4400 S   0  0  0  0  0  0  0  0  0  0  0  0
  187.5280  177.3580  144.9600 O   0  0  0  0  0  0  0  0  0  0  0  0
  187.5180  177.5590  147.3650 C   0  0  0  0  0  1  0  0  0  0  0  0
  187.2860  178.2600  146.0360 C   0  0  2  0  0  3  0  0  0  0  0  0
  185.2680  179.0300  146.9930 O   0  0  0  0  0  0  0  0  0  0  0  0
  185.8850  178.7770  145.9690 C   0  0  0  0  0  0  0  0  0  0  0  0
  185.2570  179.0190  144.6340 C   0  0  0  0  0  2  0  0  0  0  0  0
  183.7430  179.1500  144.7490 C   0  0  0  0  0  2  0  0  0  0  0  0
  181.8160  179.1320  143.4220 C   0  0  0  0  0  1  0  0  0  0  0  0
  183.0800  178.4540  143.6570 N   0  0  0  0  0  0  0  0  0  0  0  0
  183.8910  178.6700  142.4740 C   0  0  0  0  0  1  0  0  0  0  0  0
  1  8  1  0  0  0  0
  2  8  2  0  0  0  0
  2  9  1  0  0  0  0
  3 10  2  0  0  0  0
  4  5  2  0  0  0  0
  5  7  1  0  0  0  0
  5 32  1  0  0  0  0
  6 10  1  0  0  0  0
  6  4  1  0  0  0  0
  8  3  1  0  0  0  0
  9  6  2  0  0  0  0
 10 11  1  0  0  0  0
 11  7  2  0  0  0  0
 12  9  1  0  0  0  0
 13 12  1  0  0  0  0
 14 15  1  0  0  0  0
 15 13  1  1  0  0  0
 16 22  1  6  0  0  0
 16 15  1  0  0  0  0
 18 17  1  1  0  0  0
 18 19  1  0  0  0  0
 18 16  1  0  0  0  0
 19 14  1  0  0  0  0
 20 25  1  0  0  0  0
 21 20  2  0  0  0  0
 23 22  2  0  0  0  0
 25 22  1  0  0  0  0
 25 24  1  0  0  0  0
 26 27  1  0  0  0  0
 27 30  2  0  0  0  0
 27 31  1  0  0  0  0
 28 20  1  1  0  0  0
 28 31  1  0  0  0  0
 29 26  1  0  0  0  0
 29 28  1  0  0  0  0
 32 34  1  0  0  0  0
 34 33  1  1  0  0  0
 36 34  1  0  0  0  0
 36 35  2  0  0  0  0
 37 38  1  0  0  0  0
 37 36  1  0  0  0  0
 39 40  1  0  0  0  0
 40 38  1  0  0  0  0
 41 40  1  0  0  0  0
M  END
>  <MODEL>
4

>  <REMARK>
 VINA RESULT:      -8.1      3.568      5.534
  Name = 
  11 active torsions:
  status: ('A' for Active; 'I' for Inactive)
    1  A    between atoms: C_4  and  N_9
    2  A    between atoms: C_4  and  C_18
    3  A    between atoms: C_6  and  C_25
    4  A    between atoms: C_7  and  N_16
    5  A    between atoms: C_7  and  C_29
    6  A    between atoms: N_9  and  C_30
    7  A    between atoms: C_13  and  C_29
    8  A    between atoms: C_13  and  C_39
    9  A    between atoms: C_17  and  O_33
   10  A    between atoms: C_19  and  C_34
   11  A    between atoms: O_33  and  C_39
                            x       y       z     vdW  Elec       q    Type
                         _______ _______ _______ _____ _____    ______ ____

>  <TORSDO>
F 11

$$$$
=
 OpenBabel10232412003D

 41 44  0  0  1  0  0  0  0  0999 V2000
  189.3200  178.2150  138.0490 O   0  0  0  0  0  1  0  0  0  0  0  0
  187.8630  178.4500  139.9550 C   0  0  0  0  0  3  0  0  0  0  0  0
  190.0250  177.3910  140.2010 C   0  0  0  0  0  3  0  0  0  0  0  0
  188.3610  177.4650  143.4660 N   0  0  0  0  0  0  0  0  0  0  0  0
  189.2820  176.8680  144.2720 C   0  0  0  0  0  0  0  0  0  0  0  0
  188.5630  177.6430  142.1340 C   0  0  0  0  0  0  0  0  0  0  0  0
  190.4850  176.4110  143.7310 C   0  0  0  0  0  3  0  0  0  0  0  0
  189.0710  178.0180  139.4000 C   0  0  0  0  0  0  0  0  0  0  0  0
  187.5880  178.2650  141.3140 C   0  0  0  0  0  0  0  0  0  0  0  0
  189.7780  177.2020  141.5610 C   0  0  0  0  0  0  0  0  0  0  0  0
  190.7330  176.5820  142.3690 C   0  0  0  0  0  3  0  0  0  0  0  0
  186.3220  178.7260  141.8090 N   0  0  0  0  0  2  0  0  0  0  0  0
  185.2000  179.1410  140.9820 C   0  0  0  0  0  2  0  0  0  0  0  0
  183.2720  178.2850  142.1150 O   0  0  0  0  0  0  0  0  0  0  0  0
  184.1170  178.0810  141.0070 C   0  0  1  0  0  3  0  0  0  0  0  0
  183.3060  178.1620  139.7300 C   0  0  2  0  0  3  0  0  0  0  0  0
  181.3210  179.4150  139.4440 O   0  0  0  0  0  1  0  0  0  0  0  0
  181.9020  178.3910  140.1900 C   0  0  2  0  0  3  0  0  0  0  0  0
  182.0780  178.8350  141.6160 C   0  0  0  0  0  2  0  0  0  0  0  0
  184.5060  175.6730  136.9870 C   0  0  0  0  0  0  0  0  0  0  0  0
  185.3210  175.7260  136.0250 O   0  0  0  0  0  0  0  0  0  0  0  0
  183.4210  176.8940  138.9380 C   0  0  0  0  0  0  0  0  0  0  0  0
  182.7200  175.8970  139.2660 O   0  0  0  0  0  0  0  0  0  0  0  0
  185.0950  177.9220  137.5620 O   0  0  0  0  0  1  0  0  0  0  0  0
  184.3360  176.8300  137.8280 N   0  0  0  0  0  0  0  0  0  0  0  0
  182.3640  172.8190  136.0540 N   0  0  0  0  0  2  0  0  0  0  0  0
  183.4210  172.0200  136.5550 C   0  0  0  0  0  0  0  0  0  0  0  0
  183.7200  174.4150  137.1990 C   0  0  1  0  0  3  0  0  0  0  0  0
  182.6650  174.2340  136.1130 C   0  0  0  0  0  2  0  0  0  0  0  0
  183.1940  170.8080  136.9360 N   0  0  0  0  0  2  0  0  0  0  0  0
  184.7960  172.9370  137.2150 S   0  0  0  0  0  0  0  0  0  0  0  0
  189.0370  176.7120  145.6380 O   0  0  0  0  0  0  0  0  0  0  0  0
  190.8140  176.6680  147.2710 C   0  0  0  0  0  1  0  0  0  0  0  0
  189.7100  177.4900  146.6250 C   0  0  2  0  0  3  0  0  0  0  0  0
  189.1410  178.4210  148.7200 O   0  0  0  0  0  0  0  0  0  0  0  0
  188.7410  177.9510  147.6660 C   0  0  0  0  0  0  0  0  0  0  0  0
  187.2740  177.8670  147.3900 C   0  0  0  0  0  2  0  0  0  0  0  0
  186.6320  179.2490  147.3800 C   0  0  0  0  0  2  0  0  0  0  0  0
  185.6460  179.0780  145.2650 C   0  0  0  0  0  1  0  0  0  0  0  0
  185.3560  179.2210  146.6810 N   0  0  0  0  0  0  0  0  0  0  0  0
  184.6850  178.0020  147.0910 C   0  0  0  0  0  1  0  0  0  0  0  0
  1  8  1  0  0  0  0
  2  9  1  0  0  0  0
  3 10  2  0  0  0  0
  4  5  2  0  0  0  0
  5 32  1  0  0  0  0
  6  4  1  0  0  0  0
  7  5  1  0  0  0  0
  8  2  2  0  0  0  0
  8  3  1  0  0  0  0
  9 12  1  0  0  0  0
  9  6  2  0  0  0  0
 10  6  1  0  0  0  0
 10 11  1  0  0  0  0
 11  7  2  0  0  0  0
 13 12  1  0  0  0  0
 15 13  1  6  0  0  0
 15 14  1  0  0  0  0
 16 22  1  1  0  0  0
 16 18  1  0  0  0  0
 16 15  1  0  0  0  0
 18 17  1  6  0  0  0
 18 19  1  0  0  0  0
 19 14  1  0  0  0  0
 20 25  1  0  0  0  0
 21 20  2  0  0  0  0
 22 23  2  0  0  0  0
 24 25  1  0  0  0  0
 25 22  1  0  0  0  0
 26 29  1  0  0  0  0
 26 27  1  0  0  0  0
 27 30  2  0  0  0  0
 27 31  1  0  0  0  0
 28 20  1  6  0  0  0
 28 31  1  0  0  0  0
 29 28  1  0  0  0  0
 32 34  1  0  0  0  0
 34 33  1  1  0  0  0
 34 36  1  0  0  0  0
 36 35  2  0  0  0  0
 37 36  1  0  0  0  0
 38 37  1  0  0  0  0
 39 40  1  0  0  0  0
 40 41  1  0  0  0  0
 40 38  1  0  0  0  0
M  END
>  <MODEL>
5

>  <REMARK>
 VINA RESULT:      -8.1      3.779      7.407
  Name = 
  11 active torsions:
  status: ('A' for Active; 'I' for Inactive)
    1  A    between atoms: C_4  and  N_9
    2  A    between atoms: C_4  and  C_18
    3  A    between atoms: C_6  and  C_25
    4  A    between atoms: C_7  and  N_16
    5  A    between atoms: C_7  and  C_29
    6  A    between atoms: N_9  and  C_30
    7  A    between atoms: C_13  and  C_29
    8  A    between atoms: C_13  and  C_39
    9  A    between atoms: C_17  and  O_33
   10  A    between atoms: C_19  and  C_34
   11  A    between atoms: O_33  and  C_39
                            x       y       z     vdW  Elec       q    Type
                         _______ _______ _______ _____ _____    ______ ____

>  <TORSDO>
F 11

$$$$
=
 OpenBabel10232412003D

 41 44  0  0  1  0  0  0  0  0999 V2000
  192.0200  176.7170  147.7390 O   0  0  0  0  0  1  0  0  0  0  0  0
  191.5280  176.7990  145.3810 C   0  0  0  0  0  3  0  0  0  0  0  0
  189.7580  177.0990  147.0040 C   0  0  0  0  0  3  0  0  0  0  0  0
  188.3420  177.3870  143.6340 N   0  0  0  0  0  0  0  0  0  0  0  0
  187.0270  177.6240  143.8940 C   0  0  0  0  0  0  0  0  0  0  0  0
  189.2590  177.2000  144.6210 C   0  0  0  0  0  0  0  0  0  0  0  0
  186.5800  177.6780  145.2160 C   0  0  0  0  0  3  0  0  0  0  0  0
  191.1020  176.8710  146.7100 C   0  0  0  0  0  0  0  0  0  0  0  0
  190.6230  176.9520  144.3250 C   0  0  0  0  0  0  0  0  0  0  0  0
  188.8360  177.2630  145.9690 C   0  0  0  0  0  0  0  0  0  0  0  0
  187.4910  177.4980  146.2560 C   0  0  0  0  0  3  0  0  0  0  0  0
  191.1340  176.8550  142.9870 N   0  0  0  0  0  2  0  0  0  0  0  0
  190.4760  176.1680  141.8870 C   0  0  0  0  0  2  0  0  0  0  0  0
  191.4770  178.0380  140.7780 O   0  0  0  0  0  0  0  0  0  0  0  0
  190.4950  177.0380  140.6460 C   0  0  1  0  0  3  0  0  0  0  0  0
  190.8040  176.1800  139.4370 C   0  0  2  0  0  3  0  0  0  0  0  0
  192.9610  175.7960  138.5450 O   0  0  0  0  0  1  0  0  0  0  0  0
  192.0340  176.7920  138.8460 C   0  0  2  0  0  3  0  0  0  0  0  0
  192.5560  177.6540  139.9630 C   0  0  0  0  0  2  0  0  0  0  0  0
  188.4880  175.0400  136.5230 C   0  0  0  0  0  0  0  0  0  0  0  0
  188.4660  174.0610  135.7280 O   0  0  0  0  0  0  0  0  0  0  0  0
  189.6660  176.1930  138.4610 C   0  0  0  0  0  0  0  0  0  0  0  0
  188.8390  177.1460  138.4910 O   0  0  0  0  0  0  0  0  0  0  0  0
  190.4220  174.0960  137.5740 O   0  0  0  0  0  1  0  0  0  0  0  0
  189.5270  175.1140  137.5170 N   0  0  0  0  0  0  0  0  0  0  0  0
  185.9830  177.1210  134.7890 N   0  0  0  0  0  2  0  0  0  0  0  0
  185.0830  176.6390  135.7720 C   0  0  0  0  0  0  0  0  0  0  0  0
  187.4480  176.1100  136.3800 C   0  0  1  0  0  3  0  0  0  0  0  0
  187.3080  176.5530  134.9270 C   0  0  0  0  0  2  0  0  0  0  0  0
  184.0080  177.2980  136.0450 N   0  0  0  0  0  2  0  0  0  0  0  0
  185.8130  175.5500  136.9760 S   0  0  0  0  0  0  0  0  0  0  0  0
  186.1190  177.8180  142.8510 O   0  0  0  0  0  0  0  0  0  0  0  0
  184.1340  178.7900  143.8200 C   0  0  0  0  0  1  0  0  0  0  0  0
  185.2490  178.9460  142.7990 C   0  0  2  0  0  3  0  0  0  0  0  0
  185.3470  179.5330  140.5130 O   0  0  0  0  0  0  0  0  0  0  0  0
  184.6710  179.0870  141.4280 C   0  0  0  0  0  0  0  0  0  0  0  0
  183.2670  178.6410  141.1760 C   0  0  0  0  0  2  0  0  0  0  0  0
  182.7670  179.1230  139.8190 C   0  0  0  0  0  2  0  0  0  0  0  0
  180.9000  180.3390  139.1040 C   0  0  0  0  0  1  0  0  0  0  0  0
  181.3130  179.1160  139.7710 N   0  0  0  0  0  0  0  0  0  0  0  0
  180.9320  178.0210  138.8990 C   0  0  0  0  0  1  0  0  0  0  0  0
  2  8  1  0  0  0  0
  4  5  2  0  0  0  0
  4  6  1  0  0  0  0
  5  7  1  0  0  0  0
  6 10  2  0  0  0  0
  7 11  2  0  0  0  0
  8  3  2  0  0  0  0
  8  1  1  0  0  0  0
  9  6  1  0  0  0  0
  9  2  2  0  0  0  0
 10 11  1  0  0  0  0
 10  3  1  0  0  0  0
 12  9  1  0  0  0  0
 13 12  1  0  0  0  0
 15 14  1  0  0  0  0
 15 13  1  1  0  0  0
 16 22  1  6  0  0  0
 16 15  1  0  0  0  0
 18 17  1  1  0  0  0
 18 16  1  0  0  0  0
 18 19  1  0  0  0  0
 19 14  1  0  0  0  0
 20 25  1  0  0  0  0
 21 20  2  0  0  0  0
 22 23  2  0  0  0  0
 25 24  1  0  0  0  0
 25 22  1  0  0  0  0
 26 29  1  0  0  0  0
 26 27  1  0  0  0  0
 27 30  2  0  0  0  0
 27 31  1  0  0  0  0
 28 20  1  6  0  0  0
 28 31  1  0  0  0  0
 29 28  1  0  0  0  0
 32  5  1  0  0  0  0
 34 32  1  0  0  0  0
 34 33  1  1  0  0  0
 35 36  2  0  0  0  0
 36 34  1  0  0  0  0
 37 36  1  0  0  0  0
 38 37  1  0  0  0  0
 39 40  1  0  0  0  0
 40 38  1  0  0  0  0
 41 40  1  0  0  0  0
M  END
>  <MODEL>
6

>  <REMARK>
 VINA RESULT:      -8.0      2.508      3.700
  Name = 
  11 active torsions:
  status: ('A' for Active; 'I' for Inactive)
    1  A    between atoms: C_4  and  N_9
    2  A    between atoms: C_4  and  C_18
    3  A    between atoms: C_6  and  C_25
    4  A    between atoms: C_7  and  N_16
    5  A    between atoms: C_7  and  C_29
    6  A    between atoms: N_9  and  C_30
    7  A    between atoms: C_13  and  C_29
    8  A    between atoms: C_13  and  C_39
    9  A    between atoms: C_17  and  O_33
   10  A    between atoms: C_19  and  C_34
   11  A    between atoms: O_33  and  C_39
                            x       y       z     vdW  Elec       q    Type
                         _______ _______ _______ _____ _____    ______ ____

>  <TORSDO>
F 11

$$$$
=
 OpenBabel10232412003D

 41 44  0  0  1  0  0  0  0  0999 V2000
  191.9720  176.9250  146.2740 O   0  0  0  0  0  1  0  0  0  0  0  0
  190.7650  177.4240  144.2480 C   0  0  0  0  0  3  0  0  0  0  0  0
  189.5820  177.2190  146.3500 C   0  0  0  0  0  3  0  0  0  0  0  0
  187.1750  178.0280  143.7050 N   0  0  0  0  0  0  0  0  0  0  0  0
  185.9990  178.0770  144.3920 C   0  0  0  0  0  0  0  0  0  0  0  0
  188.3600  177.7410  144.3080 C   0  0  0  0  0  0  0  0  0  0  0  0
  185.9870  177.8240  145.7650 C   0  0  0  0  0  3  0  0  0  0  0  0
  190.7740  177.1890  145.6250 C   0  0  0  0  0  0  0  0  0  0  0  0
  189.5700  177.6930  143.5710 C   0  0  0  0  0  0  0  0  0  0  0  0
  188.3780  177.4930  145.6990 C   0  0  0  0  0  0  0  0  0  0  0  0
  187.1840  177.5330  146.4200 C   0  0  0  0  0  3  0  0  0  0  0  0
  189.6390  177.9140  142.1540 N   0  0  0  0  0  2  0  0  0  0  0  0
  190.7270  177.4810  141.2910 C   0  0  0  0  0  2  0  0  0  0  0  0
  188.7940  176.6040  140.1820 O   0  0  0  0  0  0  0  0  0  0  0  0
  190.2000  176.5390  140.2270 C   0  0  1  0  0  3  0  0  0  0  0  0
  190.7700  176.9350  138.8800 C   0  0  2  0  0  3  0  0  0  0  0  0
  189.7370  178.3960  137.3320 O   0  0  0  0  0  1  0  0  0  0  0  0
  189.5700  177.1990  138.0280 C   0  0  2  0  0  3  0  0  0  0  0  0
  188.4620  177.3460  139.0340 C   0  0  0  0  0  2  0  0  0  0  0  0
  193.9050  175.0980  137.4810 C   0  0  0  0  0  0  0  0  0  0  0  0
  195.1090  175.4130  137.2770 O   0  0  0  0  0  0  0  0  0  0  0  0
  191.6130  175.8360  138.3070 C   0  0  0  0  0  0  0  0  0  0  0  0
  191.0870  174.7140  138.0700 O   0  0  0  0  0  0  0  0  0  0  0  0
  193.5230  177.2860  138.3770 O   0  0  0  0  0  1  0  0  0  0  0  0
  193.0110  176.0740  138.0510 N   0  0  0  0  0  0  0  0  0  0  0  0
  193.3700  172.2090  135.2510 N   0  0  0  0  0  2  0  0  0  0  0  0
  194.1000  171.4810  136.2220 C   0  0  0  0  0  0  0  0  0  0  0  0
  193.4400  173.7280  137.0910 C   0  0  1  0  0  3  0  0  0  0  0  0
  193.2610  173.6150  135.5810 C   0  0  0  0  0  2  0  0  0  0  0  0
  193.9720  170.1990  136.3030 N   0  0  0  0  0  2  0  0  0  0  0  0
  194.6110  172.4340  137.6360 S   0  0  0  0  0  0  0  0  0  0  0  0
  184.8060  178.3830  143.7360 O   0  0  0  0  0  0  0  0  0  0  0  0
  185.5820  179.1630  141.5880 C   0  0  0  0  0  1  0  0  0  0  0  0
  184.6480  178.2210  142.3290 C   0  0  2  0  0  3  0  0  0  0  0  0
  182.3990  178.7880  142.7810 O   0  0  0  0  0  0  0  0  0  0  0  0
  183.2310  178.4920  141.9350 C   0  0  0  0  0  0  0  0  0  0  0  0
  182.8470  178.4350  140.4920 C   0  0  0  0  0  2  0  0  0  0  0  0
  182.8800  177.0060  139.9650 C   0  0  0  0  0  2  0  0  0  0  0  0
  181.4630  177.8610  138.3100 C   0  0  0  0  0  1  0  0  0  0  0  0
  182.5900  176.9730  138.5400 N   0  0  0  0  0  0  0  0  0  0  0  0
  183.7300  177.5710  137.8710 C   0  0  0  0  0  1  0  0  0  0  0  0
  2  8  1  0  0  0  0
  4  6  1  0  0  0  0
  4  5  2  0  0  0  0
  5  7  1  0  0  0  0
  6 10  2  0  0  0  0
  7 11  2  0  0  0  0
  8  1  1  0  0  0  0
  8  3  2  0  0  0  0
  9  2  2  0  0  0  0
  9  6  1  0  0  0  0
 10  3  1  0  0  0  0
 10 11  1  0  0  0  0
 12  9  1  0  0  0  0
 13 12  1  0  0  0  0
 14 15  1  0  0  0  0
 15 13  1  1  0  0  0
 16 22  1  6  0  0  0
 16 15  1  0  0  0  0
 18 17  1  1  0  0  0
 18 16  1  0  0  0  0
 18 19  1  0  0  0  0
 19 14  1  0  0  0  0
 20 25  1  0  0  0  0
 21 20  2  0  0  0  0
 23 22  2  0  0  0  0
 25 22  1  0  0  0  0
 25 24  1  0  0  0  0
 26 29  1  0  0  0  0
 26 27  1  0  0  0  0
 27 30  2  0  0  0  0
 27 31  1  0  0  0  0
 28 20  1  6  0  0  0
 28 31  1  0  0  0  0
 29 28  1  0  0  0  0
 32  5  1  0  0  0  0
 34 33  1  6  0  0  0
 34 32  1  0  0  0  0
 36 34  1  0  0  0  0
 36 35  2  0  0  0  0
 37 36  1  0  0  0  0
 38 37  1  0  0  0  0
 39 40  1  0  0  0  0
 40 38  1  0  0  0  0
 41 40  1  0  0  0  0
M  END
>  <MODEL>
7

>  <REMARK>
 VINA RESULT:      -8.0      1.368      1.622
  Name = 
  11 active torsions:
  status: ('A' for Active; 'I' for Inactive)
    1  A    between atoms: C_4  and  N_9
    2  A    between atoms: C_4  and  C_18
    3  A    between atoms: C_6  and  C_25
    4  A    between atoms: C_7  and  N_16
    5  A    between atoms: C_7  and  C_29
    6  A    between atoms: N_9  and  C_30
    7  A    between atoms: C_13  and  C_29
    8  A    between atoms: C_13  and  C_39
    9  A    between atoms: C_17  and  O_33
   10  A    between atoms: C_19  and  C_34
   11  A    between atoms: O_33  and  C_39
                            x       y       z     vdW  Elec       q    Type
                         _______ _______ _______ _____ _____    ______ ____

>  <TORSDO>
F 11

$$$$
=
 OpenBabel10232412003D

 41 44  0  0  1  0  0  0  0  0999 V2000
  181.0360  178.1790  135.4340 O   0  0  0  0  0  1  0  0  0  0  0  0
  182.9810  177.5800  136.7260 C   0  0  0  0  0  3  0  0  0  0  0  0
  181.0480  178.5460  137.8150 C   0  0  0  0  0  3  0  0  0  0  0  0
  183.6040  177.8330  140.3450 N   0  0  0  0  0  0  0  0  0  0  0  0
  182.9970  178.2460  141.4920 C   0  0  0  0  0  0  0  0  0  0  0  0
  183.0040  177.9250  139.1280 C   0  0  0  0  0  0  0  0  0  0  0  0
  181.7120  178.7900  141.4390 C   0  0  0  0  0  3  0  0  0  0  0  0
  181.6870  178.1020  136.6570 C   0  0  0  0  0  0  0  0  0  0  0  0
  183.6580  177.4900  137.9470 C   0  0  0  0  0  0  0  0  0  0  0  0
  181.6980  178.4600  139.0470 C   0  0  0  0  0  0  0  0  0  0  0  0
  181.0610  178.8950  140.2100 C   0  0  0  0  0  3  0  0  0  0  0  0
  184.9890  176.9520  137.9360 N   0  0  0  0  0  2  0  0  0  0  0  0
  185.8120  176.7770  136.7500 C   0  0  0  0  0  2  0  0  0  0  0  0
  187.2470  174.9780  136.0870 O   0  0  0  0  0  0  0  0  0  0  0  0
  187.0350  175.9470  137.0860 C   0  0  1  0  0  3  0  0  0  0  0  0
  188.2450  176.8530  137.1790 C   0  0  2  0  0  3  0  0  0  0  0  0
  189.7300  177.3400  135.4030 O   0  0  0  0  0  1  0  0  0  0  0  0
  189.2040  176.3030  136.1720 C   0  0  2  0  0  3  0  0  0  0  0  0
  188.3330  175.4260  135.3140 C   0  0  0  0  0  2  0  0  0  0  0  0
  188.9200  177.8890  140.8700 C   0  0  0  0  0  0  0  0  0  0  0  0
  188.4950  178.7970  141.6370 O   0  0  0  0  0  0  0  0  0  0  0  0
  188.8320  176.8300  138.5580 C   0  0  0  0  0  0  0  0  0  0  0  0
  189.6820  175.9450  138.8520 O   0  0  0  0  0  0  0  0  0  0  0  0
  187.4500  178.6970  139.1600 O   0  0  0  0  0  1  0  0  0  0  0  0
  188.4050  177.8060  139.5280 N   0  0  0  0  0  0  0  0  0  0  0  0
  192.0620  176.8990  142.5300 N   0  0  0  0  0  2  0  0  0  0  0  0
  191.2280  176.1190  143.3690 C   0  0  0  0  0  0  0  0  0  0  0  0
  189.9730  176.9510  141.3760 C   0  0  1  0  0  3  0  0  0  0  0  0
  191.3070  177.6650  141.5600 C   0  0  0  0  0  2  0  0  0  0  0  0
  191.7150  175.1090  144.0090 N   0  0  0  0  0  2  0  0  0  0  0  0
  189.4960  176.1920  142.9700 S   0  0  0  0  0  0  0  0  0  0  0  0
  183.6450  178.1260  142.7220 O   0  0  0  0  0  0  0  0  0  0  0  0
  185.6020  179.5330  142.5850 C   0  0  0  0  0  1  0  0  0  0  0  0
  184.3180  179.2220  143.3370 C   0  0  2  0  0  3  0  0  0  0  0  0
  183.7900  179.0890  145.6360 O   0  0  0  0  0  0  0  0  0  0  0  0
  184.6260  178.9010  144.7640 C   0  0  0  0  0  0  0  0  0  0  0  0
  185.9550  178.3120  145.1120 C   0  0  0  0  0  2  0  0  0  0  0  0
  186.2580  178.4660  146.5970 C   0  0  0  0  0  2  0  0  0  0  0  0
  188.4560  177.8970  146.0290 C   0  0  0  0  0  1  0  0  0  0  0  0
  187.3910  177.6380  146.9830 N   0  0  0  0  0  0  0  0  0  0  0  0
  187.8530  178.1370  148.2640 C   0  0  0  0  0  1  0  0  0  0  0  0
  1  8  1  0  0  0  0
  2  9  1  0  0  0  0
  3 10  2  0  0  0  0
  4  5  2  0  0  0  0
  5 32  1  0  0  0  0
  6  4  1  0  0  0  0
  7  5  1  0  0  0  0
  8  2  2  0  0  0  0
  8  3  1  0  0  0  0
  9  6  2  0  0  0  0
 10  6  1  0  0  0  0
 10 11  1  0  0  0  0
 11  7  2  0  0  0  0
 12  9  1  0  0  0  0
 13 12  1  0  0  0  0
 14 15  1  0  0  0  0
 15 13  1  6  0  0  0
 15 16  1  0  0  0  0
 16 22  1  1  0  0  0
 18 17  1  6  0  0  0
 18 16  1  0  0  0  0
 19 14  1  0  0  0  0
 19 18  1  0  0  0  0
 20 21  2  0  0  0  0
 22 23  2  0  0  0  0
 22 25  1  0  0  0  0
 24 25  1  0  0  0  0
 25 20  1  0  0  0  0
 26 27  1  0  0  0  0
 27 30  2  0  0  0  0
 28 20  1  1  0  0  0
 28 29  1  0  0  0  0
 28 31  1  0  0  0  0
 29 26  1  0  0  0  0
 31 27  1  0  0  0  0
 32 34  1  0  0  0  0
 34 33  1  6  0  0  0
 34 36  1  0  0  0  0
 36 37  1  0  0  0  0
 36 35  2  0  0  0  0
 37 38  1  0  0  0  0
 38 40  1  0  0  0  0
 39 40  1  0  0  0  0
 40 41  1  0  0  0  0
M  END
>  <MODEL>
8

>  <REMARK>
 VINA RESULT:      -7.7      3.397      7.823
  Name = 
  11 active torsions:
  status: ('A' for Active; 'I' for Inactive)
    1  A    between atoms: C_4  and  N_9
    2  A    between atoms: C_4  and  C_18
    3  A    between atoms: C_6  and  C_25
    4  A    between atoms: C_7  and  N_16
    5  A    between atoms: C_7  and  C_29
    6  A    between atoms: N_9  and  C_30
    7  A    between atoms: C_13  and  C_29
    8  A    between atoms: C_13  and  C_39
    9  A    between atoms: C_17  and  O_33
   10  A    between atoms: C_19  and  C_34
   11  A    between atoms: O_33  and  C_39
                            x       y       z     vdW  Elec       q    Type
                         _______ _______ _______ _____ _____    ______ ____

>  <TORSDO>
F 11

$$$$
=
 OpenBabel10232412003D

 41 44  0  0  1  0  0  0  0  0999 V2000
  185.9980  177.3510  146.1290 O   0  0  0  0  0  1  0  0  0  0  0  0
  185.8180  178.3950  143.9640 C   0  0  0  0  0  3  0  0  0  0  0  0
  187.7250  176.9980  144.4860 C   0  0  0  0  0  3  0  0  0  0  0  0
  188.0530  178.2190  141.0450 N   0  0  0  0  0  0  0  0  0  0  0  0
  189.2260  177.6500  140.6490 C   0  0  0  0  0  0  0  0  0  0  0  0
  187.5390  178.0370  142.2900 C   0  0  0  0  0  0  0  0  0  0  0  0
  189.9450  176.8510  141.5400 C   0  0  0  0  0  3  0  0  0  0  0  0
  186.5140  177.5810  144.8620 C   0  0  0  0  0  0  0  0  0  0  0  0
  186.3170  178.6420  142.6800 C   0  0  0  0  0  0  0  0  0  0  0  0
  188.2390  177.2220  143.2080 C   0  0  0  0  0  0  0  0  0  0  0  0
  189.4460  176.6360  142.8250 C   0  0  0  0  0  3  0  0  0  0  0  0
  185.5510  179.4970  141.8180 N   0  0  0  0  0  2  0  0  0  0  0  0
  184.9380  179.0900  140.5640 C   0  0  0  0  0  2  0  0  0  0  0  0
  183.2080  178.4380  142.0850 O   0  0  0  0  0  0  0  0  0  0  0  0
  183.7840  178.1450  140.8340 C   0  0  1  0  0  3  0  0  0  0  0  0
  182.7420  178.3010  139.7460 C   0  0  2  0  0  3  0  0  0  0  0  0
  180.8720  179.7480  139.8390 O   0  0  0  0  0  1  0  0  0  0  0  0
  181.4900  178.6720  140.4760 C   0  0  2  0  0  3  0  0  0  0  0  0
  181.9970  179.1030  141.8250 C   0  0  0  0  0  2  0  0  0  0  0  0
  181.8460  175.9070  136.8100 C   0  0  0  0  0  0  0  0  0  0  0  0
  181.3910  176.0550  135.6430 O   0  0  0  0  0  0  0  0  0  0  0  0
  182.5680  177.0250  138.9790 C   0  0  0  0  0  0  0  0  0  0  0  0
  182.8680  175.9300  139.5280 O   0  0  0  0  0  0  0  0  0  0  0  0
  181.8180  178.2870  137.0810 O   0  0  0  0  0  1  0  0  0  0  0  0
  182.0740  177.0720  137.6260 N   0  0  0  0  0  0  0  0  0  0  0  0
  181.1660  172.3240  137.3640 N   0  0  0  0  0  2  0  0  0  0  0  0
  182.4090  172.1150  136.7160 C   0  0  0  0  0  0  0  0  0  0  0  0
  182.1010  174.5200  137.3160 C   0  0  1  0  0  3  0  0  0  0  0  0
  180.8040  173.7250  137.4250 C   0  0  0  0  0  2  0  0  0  0  0  0
  183.0620  171.0180  136.9060 N   0  0  0  0  0  2  0  0  0  0  0  0
  183.2550  173.6040  136.2330 S   0  0  0  0  0  0  0  0  0  0  0  0
  189.7150  177.8560  139.3580 O   0  0  0  0  0  0  0  0  0  0  0  0
  190.0000  176.4860  137.3910 C   0  0  0  0  0  1  0  0  0  0  0  0
  189.0500  177.3510  138.2030 C   0  0  2  0  0  3  0  0  0  0  0  0
  188.9910  179.6100  137.5130 O   0  0  0  0  0  0  0  0  0  0  0  0
  188.5450  178.4820  137.3640 C   0  0  0  0  0  0  0  0  0  0  0  0
  187.5170  178.2130  136.3140 C   0  0  0  0  0  2  0  0  0  0  0  0
  186.5010  177.1790  136.7840 C   0  0  0  0  0  2  0  0  0  0  0  0
  184.8620  176.8830  135.1400 C   0  0  0  0  0  1  0  0  0  0  0  0
  186.0880  176.3220  135.6830 N   0  0  0  0  0  0  0  0  0  0  0  0
  187.0970  176.4580  134.6500 C   0  0  0  0  0  1  0  0  0  0  0  0
  2  8  1  0  0  0  0
  3  8  2  0  0  0  0
  4  6  1  0  0  0  0
  5  4  2  0  0  0  0
  5  7  1  0  0  0  0
  6  9  1  0  0  0  0
  6 10  2  0  0  0  0
  7 11  2  0  0  0  0
  8  1  1  0  0  0  0
  9  2  2  0  0  0  0
 10  3  1  0  0  0  0
 11 10  1  0  0  0  0
 12  9  1  0  0  0  0
 13 12  1  0  0  0  0
 15 13  1  6  0  0  0
 15 14  1  0  0  0  0
 16 22  1  1  0  0  0
 16 18  1  0  0  0  0
 16 15  1  0  0  0  0
 18 17  1  6  0  0  0
 18 19  1  0  0  0  0
 19 14  1  0  0  0  0
 20 25  1  0  0  0  0
 21 20  2  0  0  0  0
 22 23  2  0  0  0  0
 24 25  1  0  0  0  0
 25 22  1  0  0  0  0
 26 29  1  0  0  0  0
 27 30  2  0  0  0  0
 27 26  1  0  0  0  0
 28 20  1  6  0  0  0
 28 29  1  0  0  0  0
 31 27  1  0  0  0  0
 31 28  1  0  0  0  0
 32  5  1  0  0  0  0
 34 33  1  6  0  0  0
 34 32  1  0  0  0  0
 36 35  2  0  0  0  0
 36 34  1  0  0  0  0
 37 38  1  0  0  0  0
 37 36  1  0  0  0  0
 39 40  1  0  0  0  0
 40 38  1  0  0  0  0
 41 40  1  0  0  0  0
M  END
>  <MODEL>
9

>  <REMARK>
 VINA RESULT:      -7.6      3.834      7.715
  Name = 
  11 active torsions:
  status: ('A' for Active; 'I' for Inactive)
    1  A    between atoms: C_4  and  N_9
    2  A    between atoms: C_4  and  C_18
    3  A    between atoms: C_6  and  C_25
    4  A    between atoms: C_7  and  N_16
    5  A    between atoms: C_7  and  C_29
    6  A    between atoms: N_9  and  C_30
    7  A    between atoms: C_13  and  C_29
    8  A    between atoms: C_13  and  C_39
    9  A    between atoms: C_17  and  O_33
   10  A    between atoms: C_19  and  C_34
   11  A    between atoms: O_33  and  C_39
                            x       y       z     vdW  Elec       q    Type
                         _______ _______ _______ _____ _____    ______ ____

>  <TORSDO>
F 11

$$$$
