=
 OpenBabel10222421313D

 34 36  0  0  1  0  0  0  0  0999 V2000
  190.2160  176.7580  138.9870 N   0  0  0  0  0  0  0  0  0  0  0  0
  189.9270  177.3480  141.4240 C   0  0  0  0  0  0  0  0  0  0  0  0
  190.1510  177.0720  143.6530 C   0  0  1  0  0  3  0  0  0  0  0  0
  193.2300  177.3090  139.8960 C   0  0  0  0  0  1  0  0  0  0  0  0
  192.0010  177.5810  142.0600 N   0  0  0  0  0  0  0  0  0  0  0  0
  190.6750  177.2150  140.2800 C   0  0  0  0  0  0  0  0  0  0  0  0
  188.8700  176.5100  143.1910 N   0  0  0  0  0  0  0  0  0  0  0  0
  190.7340  177.6070  142.4390 N   0  0  0  0  0  0  0  0  0  0  0  0
  188.7560  176.6500  141.8990 C   0  0  0  0  0  3  0  0  0  0  0  0
  191.9890  177.4100  140.7170 C   0  0  0  0  0  0  0  0  0  0  0  0
  189.8940  178.1920  144.6420 C   0  0  0  0  0  1  0  0  0  0  0  0
  190.2980  175.4300  138.6800 O   0  0  0  0  0  0  0  0  0  0  0  0
  192.4210  174.1760  135.2770 C   0  0  0  0  0  3  0  0  0  0  0  0
  192.3910  174.9210  137.6360 C   0  0  0  0  0  2  0  0  0  0  0  0
  190.2450  174.2960  136.5840 C   0  0  1  0  0  3  0  0  0  0  0  0
  193.0870  174.5930  136.3510 C   0  0  0  0  0  3  0  0  0  0  0  0
  190.9190  174.1040  135.2220 C   0  0  0  0  0  2  0  0  0  0  0  0
  190.9410  175.3520  137.4320 C   0  0  1  0  0  3  0  0  0  0  0  0
  188.7270  174.5290  136.5060 C   0  0  1  0  0  3  0  0  0  0  0  0
  188.1920  174.9540  135.1360 C   0  0  0  0  0  2  0  0  0  0  0  0
  188.0320  176.4610  135.0540 C   0  0  0  0  0  1  0  0  0  0  0  0
  187.9960  173.2940  137.0070 C   0  0  0  0  0  2  0  0  0  0  0  0
  186.6860  173.2860  136.5200 O   0  0  0  0  0  0  0  0  0  0  0  0
  185.9190  172.9280  137.6240 C   0  0  0  0  0  2  0  0  0  0  0  0
  184.7110  174.9200  136.8290 C   0  0  0  0  0  1  0  0  0  0  0  0
  184.5610  173.5880  137.5200 C   0  0  0  0  0  2  0  0  0  0  0  0
  189.8860  177.7570  137.9600 C   0  0  0  0  0  2  0  0  0  0  0  0
  188.6270  178.5660  138.2680 C   0  0  1  0  0  3  0  0  0  0  0  0
  188.3940  179.4540  137.2170 O   0  0  0  0  0  1  0  0  0  0  0  0
  187.4100  177.6600  138.4440 C   0  0  0  0  0  2  0  0  0  0  0  0
  186.1820  178.2570  137.7560 C   0  0  0  0  0  2  0  0  0  0  0  0
  185.0740  178.5030  138.7250 C   0  0  0  0  0  0  0  0  0  0  0  0
  184.0360  177.7910  138.6900 O   0  0  0  0  0  0  0  0  0  0  0  0
  185.1720  179.5350  139.6450 O   0  0  0  0  0  1  0  0  0  0  0  0
  1  6  1  0  0  0  0
  2  9  1  0  0  0  0
  2  8  1  0  0  0  0
  3 11  1  1  0  0  0
  4 10  1  0  0  0  0
  5  8  1  0  0  0  0
  6 10  1  0  0  0  0
  6  2  2  0  0  0  0
  7  3  1  0  0  0  0
  8  3  1  0  0  0  0
  9  7  2  0  0  0  0
 10  5  2  0  0  0  0
 12  1  1  0  0  0  0
 13 16  2  0  0  0  0
 15 19  1  6  0  0  0
 15 18  1  0  0  0  0
 16 14  1  0  0  0  0
 17 13  1  0  0  0  0
 17 15  1  0  0  0  0
 18 14  1  0  0  0  0
 18 12  1  1  0  0  0
 19 20  1  6  0  0  0
 19 22  1  0  0  0  0
 21 20  1  0  0  0  0
 23 22  1  0  0  0  0
 23 24  1  0  0  0  0
 25 26  1  0  0  0  0
 26 24  1  0  0  0  0
 27 28  1  0  0  0  0
 27  1  1  0  0  0  0
 28 29  1  6  0  0  0
 28 30  1  0  0  0  0
 31 30  1  0  0  0  0
 31 32  1  0  0  0  0
 32 34  1  0  0  0  0
 33 32  2  0  0  0  0
M  END
>  <MODEL>
1

>  <REMARK>
 VINA RESULT:      -5.4      0.000      0.000
  Name = 
  14 active torsions:
  status: ('A' for Active; 'I' for Inactive)
    1  A    between atoms: C_3  and  C_14
    2  A    between atoms: C_3  and  C_31
    3  A    between atoms: C_5  and  C_9
    4  A    between atoms: C_5  and  C_19
    5  A    between atoms: C_5  and  C_34
    6  A    between atoms: N_7  and  O_13
    7  A    between atoms: N_7  and  C_14
    8  A    between atoms: N_7  and  C_21
    9  A    between atoms: O_10  and  C_16
   10  A    between atoms: O_10  and  C_34
   11  A    between atoms: O_13  and  C_29
   12  A    between atoms: C_15  and  C_18
   13  A    between atoms: C_16  and  C_24
   14  A    between atoms: C_18  and  C_31
                            x       y       z     vdW  Elec       q    Type
                         _______ _______ _______ _____ _____    ______ ____

>  <TORSDO>
F 14

$$$$
=
 OpenBabel10222421313D

 34 36  0  0  1  0  0  0  0  0999 V2000
  187.3560  178.3400  140.8690 N   0  0  0  0  0  0  0  0  0  0  0  0
  187.6740  177.5090  138.5080 C   0  0  0  0  0  0  0  0  0  0  0  0
  188.4920  177.5380  136.4030 C   0  0  1  0  0  3  0  0  0  0  0  0
  190.4580  177.5690  140.8510 C   0  0  0  0  0  1  0  0  0  0  0  0
  189.8210  177.1220  138.4720 N   0  0  0  0  0  0  0  0  0  0  0  0
  188.1050  177.7300  139.7920 C   0  0  0  0  0  0  0  0  0  0  0  0
  187.1770  178.1990  136.4540 N   0  0  0  0  0  0  0  0  0  0  0  0
  188.6990  177.1100  137.7730 N   0  0  0  0  0  0  0  0  0  0  0  0
  186.7190  178.2010  137.6760 C   0  0  0  0  0  3  0  0  0  0  0  0
  189.4710  177.4350  139.7420 C   0  0  0  0  0  0  0  0  0  0  0  0
  188.4260  176.3310  135.4880 C   0  0  0  0  0  1  0  0  0  0  0  0
  186.2240  179.0470  140.5790 O   0  0  0  0  0  0  0  0  0  0  0  0
  183.0430  178.9750  143.3230 C   0  0  0  0  0  3  0  0  0  0  0  0
  185.3510  179.6360  142.7290 C   0  0  0  0  0  2  0  0  0  0  0  0
  183.8800  178.7970  140.9310 C   0  0  1  0  0  3  0  0  0  0  0  0
  184.2230  179.4590  143.6990 C   0  0  0  0  0  3  0  0  0  0  0  0
  182.7710  178.4660  141.9340 C   0  0  0  0  0  2  0  0  0  0  0  0
  185.2690  178.6780  141.5430 C   0  0  1  0  0  3  0  0  0  0  0  0
  183.7710  178.0330  139.6000 C   0  0  1  0  0  3  0  0  0  0  0  0
  183.1130  176.6540  139.6800 C   0  0  0  0  0  2  0  0  0  0  0  0
  181.8650  176.5930  138.8180 C   0  0  0  0  0  1  0  0  0  0  0  0
  183.0680  178.9040  138.5710 C   0  0  0  0  0  2  0  0  0  0  0  0
  183.3010  180.2530  138.8500 O   0  0  0  0  0  0  0  0  0  0  0  0
  182.0800  180.8670  138.5890 C   0  0  0  0  0  2  0  0  0  0  0  0
  180.6950  181.0320  136.5600 C   0  0  0  0  0  1  0  0  0  0  0  0
  181.3430  180.0760  137.5300 C   0  0  0  0  0  2  0  0  0  0  0  0
  187.9500  178.3750  142.2130 C   0  0  0  0  0  2  0  0  0  0  0  0
  187.5080  177.2210  143.1130 C   0  0  1  0  0  3  0  0  0  0  0  0
  188.2190  176.0750  142.7570 O   0  0  0  0  0  1  0  0  0  0  0  0
  187.7590  177.5360  144.5870 C   0  0  0  0  0  2  0  0  0  0  0  0
  186.4900  177.3230  145.4120 C   0  0  0  0  0  2  0  0  0  0  0  0
  186.4690  178.1960  146.6230 C   0  0  0  0  0  0  0  0  0  0  0  0
  187.4300  178.1700  147.4360 O   0  0  0  0  0  1  0  0  0  0  0  0
  185.3780  179.0140  146.8700 O   0  0  0  0  0  0  0  0  0  0  0  0
  1 27  1  0  0  0  0
  2  6  2  0  0  0  0
  3 11  1  6  0  0  0
  3  7  1  0  0  0  0
  3  8  1  0  0  0  0
  5 10  2  0  0  0  0
  6  1  1  0  0  0  0
  7  9  2  0  0  0  0
  8  5  1  0  0  0  0
  8  2  1  0  0  0  0
  9  2  1  0  0  0  0
 10  6  1  0  0  0  0
 10  4  1  0  0  0  0
 12  1  1  0  0  0  0
 13 16  2  0  0  0  0
 14 16  1  0  0  0  0
 15 19  1  6  0  0  0
 15 18  1  0  0  0  0
 15 17  1  0  0  0  0
 17 13  1  0  0  0  0
 18 12  1  6  0  0  0
 18 14  1  0  0  0  0
 19 22  1  6  0  0  0
 19 20  1  0  0  0  0
 21 20  1  0  0  0  0
 22 23  1  0  0  0  0
 24 23  1  0  0  0  0
 25 26  1  0  0  0  0
 26 24  1  0  0  0  0
 27 28  1  0  0  0  0
 28 29  1  6  0  0  0
 28 30  1  0  0  0  0
 30 31  1  0  0  0  0
 31 32  1  0  0  0  0
 32 34  2  0  0  0  0
 32 33  1  0  0  0  0
M  END
>  <MODEL>
2

>  <REMARK>
 VINA RESULT:      -4.9      3.522      7.472
  Name = 
  14 active torsions:
  status: ('A' for Active; 'I' for Inactive)
    1  A    between atoms: C_3  and  C_14
    2  A    between atoms: C_3  and  C_31
    3  A    between atoms: C_5  and  C_9
    4  A    between atoms: C_5  and  C_19
    5  A    between atoms: C_5  and  C_34
    6  A    between atoms: N_7  and  O_13
    7  A    between atoms: N_7  and  C_14
    8  A    between atoms: N_7  and  C_21
    9  A    between atoms: O_10  and  C_16
   10  A    between atoms: O_10  and  C_34
   11  A    between atoms: O_13  and  C_29
   12  A    between atoms: C_15  and  C_18
   13  A    between atoms: C_16  and  C_24
   14  A    between atoms: C_18  and  C_31
                            x       y       z     vdW  Elec       q    Type
                         _______ _______ _______ _____ _____    ______ ____

>  <TORSDO>
F 14

$$$$
=
 OpenBabel10222421313D

 34 36  0  0  1  0  0  0  0  0999 V2000
  183.5580  178.0810  139.9730 N   0  0  0  0  0  0  0  0  0  0  0  0
  184.7140  177.6960  137.7630 C   0  0  0  0  0  0  0  0  0  0  0  0
  186.0060  176.5930  136.2760 C   0  0  1  0  0  3  0  0  0  0  0  0
  182.0570  175.4770  138.8850 C   0  0  0  0  0  1  0  0  0  0  0  0
  183.7770  175.8390  137.1040 N   0  0  0  0  0  0  0  0  0  0  0  0
  183.7430  177.4270  138.6960 C   0  0  0  0  0  0  0  0  0  0  0  0
  186.8040  177.5880  137.0120 N   0  0  0  0  0  0  0  0  0  0  0  0
  184.6740  176.7690  136.8200 N   0  0  0  0  0  0  0  0  0  0  0  0
  186.0590  178.2060  137.8870 C   0  0  0  0  0  3  0  0  0  0  0  0
  183.1400  176.2580  138.2220 C   0  0  0  0  0  0  0  0  0  0  0  0
  186.0080  176.9240  134.7960 C   0  0  0  0  0  1  0  0  0  0  0  0
  183.8890  177.4160  141.1190 O   0  0  0  0  0  0  0  0  0  0  0  0
  183.8110  179.4520  144.7940 C   0  0  0  0  0  3  0  0  0  0  0  0
  182.6230  178.3780  142.9090 C   0  0  0  0  0  2  0  0  0  0  0  0
  185.0600  178.0240  143.1040 C   0  0  1  0  0  3  0  0  0  0  0  0
  182.6720  179.2150  144.1500 C   0  0  0  0  0  3  0  0  0  0  0  0
  185.1510  179.0000  144.2810 C   0  0  0  0  0  2  0  0  0  0  0  0
  183.9400  178.3850  142.1370 C   0  0  1  0  0  3  0  0  0  0  0  0
  186.3950  177.7920  142.3760 C   0  0  1  0  0  3  0  0  0  0  0  0
  186.8340  178.9090  141.4260 C   0  0  0  0  0  2  0  0  0  0  0  0
  188.2260  178.6460  140.8780 C   0  0  0  0  0  1  0  0  0  0  0  0
  187.4850  177.4970  143.3940 C   0  0  0  0  0  2  0  0  0  0  0  0
  187.8390  176.1460  143.3330 O   0  0  0  0  0  0  0  0  0  0  0  0
  189.2310  176.1640  143.3220 C   0  0  0  0  0  2  0  0  0  0  0  0
  191.1080  176.7860  144.7870 C   0  0  0  0  0  1  0  0  0  0  0  0
  189.7230  177.1730  144.3360 C   0  0  0  0  0  2  0  0  0  0  0  0
  182.8120  179.3470  140.0180 C   0  0  0  0  0  2  0  0  0  0  0  0
  181.4310  179.2730  139.3650 C   0  0  1  0  0  3  0  0  0  0  0  0
  180.6210  178.4240  140.1190 O   0  0  0  0  0  1  0  0  0  0  0  0
  180.7800  180.6520  139.2810 C   0  0  0  0  0  2  0  0  0  0  0  0
  180.9140  181.2320  137.8730 C   0  0  0  0  0  2  0  0  0  0  0  0
  181.5280  182.5930  137.8950 C   0  0  0  0  0  0  0  0  0  0  0  0
  180.9440  183.5560  137.3330 O   0  0  0  0  0  0  0  0  0  0  0  0
  182.7560  182.7910  138.5050 O   0  0  0  0  0  1  0  0  0  0  0  0
  1 27  1  0  0  0  0
  1 12  1  0  0  0  0
  2  9  1  0  0  0  0
  2  6  2  0  0  0  0
  3 11  1  6  0  0  0
  3  8  1  0  0  0  0
  3  7  1  0  0  0  0
  5 10  2  0  0  0  0
  6  1  1  0  0  0  0
  7  9  2  0  0  0  0
  8  5  1  0  0  0  0
  8  2  1  0  0  0  0
 10  6  1  0  0  0  0
 10  4  1  0  0  0  0
 14 16  1  0  0  0  0
 15 19  1  6  0  0  0
 15 17  1  0  0  0  0
 16 13  2  0  0  0  0
 17 13  1  0  0  0  0
 18 12  1  6  0  0  0
 18 14  1  0  0  0  0
 18 15  1  0  0  0  0
 19 20  1  1  0  0  0
 19 22  1  0  0  0  0
 21 20  1  0  0  0  0
 23 22  1  0  0  0  0
 24 23  1  0  0  0  0
 24 26  1  0  0  0  0
 26 25  1  0  0  0  0
 28 27  1  0  0  0  0
 28 29  1  1  0  0  0
 30 28  1  0  0  0  0
 31 32  1  0  0  0  0
 31 30  1  0  0  0  0
 32 34  1  0  0  0  0
 33 32  2  0  0  0  0
M  END
>  <MODEL>
3

>  <REMARK>
 VINA RESULT:      -4.8      4.416      8.603
  Name = 
  14 active torsions:
  status: ('A' for Active; 'I' for Inactive)
    1  A    between atoms: C_3  and  C_14
    2  A    between atoms: C_3  and  C_31
    3  A    between atoms: C_5  and  C_9
    4  A    between atoms: C_5  and  C_19
    5  A    between atoms: C_5  and  C_34
    6  A    between atoms: N_7  and  O_13
    7  A    between atoms: N_7  and  C_14
    8  A    between atoms: N_7  and  C_21
    9  A    between atoms: O_10  and  C_16
   10  A    between atoms: O_10  and  C_34
   11  A    between atoms: O_13  and  C_29
   12  A    between atoms: C_15  and  C_18
   13  A    between atoms: C_16  and  C_24
   14  A    between atoms: C_18  and  C_31
                            x       y       z     vdW  Elec       q    Type
                         _______ _______ _______ _____ _____    ______ ____

>  <TORSDO>
F 14

$$$$
=
 OpenBabel10222421313D

 34 36  0  0  1  0  0  0  0  0999 V2000
  186.7560  177.9350  142.7000 N   0  0  0  0  0  0  0  0  0  0  0  0
  184.3070  178.2620  143.2160 C   0  0  0  0  0  0  0  0  0  0  0  0
  182.3610  179.3990  143.3460 C   0  0  1  0  0  3  0  0  0  0  0  0
  185.5230  178.4010  139.7890 C   0  0  0  0  0  1  0  0  0  0  0  0
  183.5070  178.7190  141.2380 N   0  0  0  0  0  0  0  0  0  0  0  0
  185.3620  178.1050  142.3520 C   0  0  0  0  0  0  0  0  0  0  0  0
  183.0840  179.4680  144.6270 N   0  0  0  0  0  0  0  0  0  0  0  0
  183.2260  178.5770  142.5220 N   0  0  0  0  0  0  0  0  0  0  0  0
  184.2190  178.8300  144.5400 C   0  0  0  0  0  3  0  0  0  0  0  0
  184.8060  178.3650  141.0950 C   0  0  0  0  0  0  0  0  0  0  0  0
  181.0260  178.7080  143.5450 C   0  0  0  0  0  1  0  0  0  0  0  0
  187.0970  177.0330  143.6680 O   0  0  0  0  0  0  0  0  0  0  0  0
  187.7510  178.2700  147.6310 C   0  0  0  0  0  3  0  0  0  0  0  0
  186.2260  177.4690  145.8550 C   0  0  0  0  0  2  0  0  0  0  0  0
  188.6580  177.3590  145.4390 C   0  0  1  0  0  3  0  0  0  0  0  0
  186.5100  178.0400  147.2100 C   0  0  0  0  0  3  0  0  0  0  0  0
  188.9600  178.0840  146.7550 C   0  0  0  0  0  2  0  0  0  0  0  0
  187.3230  177.7780  144.8400 C   0  0  1  0  0  3  0  0  0  0  0  0
  189.7980  177.4290  144.4090 C   0  0  1  0  0  3  0  0  0  0  0  0
  190.6580  178.6950  144.4570 C   0  0  0  0  0  2  0  0  0  0  0  0
  191.6100  178.7540  143.2760 C   0  0  0  0  0  1  0  0  0  0  0  0
  190.6670  176.1870  144.5280 C   0  0  0  0  0  2  0  0  0  0  0  0
  191.8650  176.5040  145.1750 O   0  0  0  0  0  0  0  0  0  0  0  0
  192.0220  175.4870  146.1110 C   0  0  0  0  0  2  0  0  0  0  0  0
  192.8580  175.7450  148.4120 C   0  0  0  0  0  1  0  0  0  0  0  0
  191.7000  176.0250  147.4880 C   0  0  0  0  0  2  0  0  0  0  0  0
  187.7400  178.8890  142.1710 C   0  0  0  0  0  2  0  0  0  0  0  0
  188.8600  178.2360  141.3620 C   0  0  1  0  0  3  0  0  0  0  0  0
  188.5860  176.8750  141.2310 O   0  0  0  0  0  1  0  0  0  0  0  0
  188.9850  178.8630  139.9750 C   0  0  0  0  0  2  0  0  0  0  0  0
  189.1500  177.7860  138.9030 C   0  0  0  0  0  2  0  0  0  0  0  0
  188.9810  178.3460  137.5290 C   0  0  0  0  0  0  0  0  0  0  0  0
  188.8980  177.5720  136.5400 O   0  0  0  0  0  0  0  0  0  0  0  0
  188.9460  179.7180  137.3380 O   0  0  0  0  0  1  0  0  0  0  0  0
  1 12  1  0  0  0  0
  2  9  1  0  0  0  0
  3 11  1  1  0  0  0
  3  7  1  0  0  0  0
  4 10  1  0  0  0  0
  5  8  1  0  0  0  0
  6  1  1  0  0  0  0
  6  2  2  0  0  0  0
  8  2  1  0  0  0  0
  8  3  1  0  0  0  0
  9  7  2  0  0  0  0
 10  5  2  0  0  0  0
 10  6  1  0  0  0  0
 14 16  1  0  0  0  0
 15 19  1  6  0  0  0
 15 17  1  0  0  0  0
 16 13  2  0  0  0  0
 17 13  1  0  0  0  0
 18 12  1  6  0  0  0
 18 15  1  0  0  0  0
 18 14  1  0  0  0  0
 19 20  1  1  0  0  0
 19 22  1  0  0  0  0
 21 20  1  0  0  0  0
 22 23  1  0  0  0  0
 23 24  1  0  0  0  0
 24 26  1  0  0  0  0
 26 25  1  0  0  0  0
 27  1  1  0  0  0  0
 28 29  1  6  0  0  0
 28 27  1  0  0  0  0
 30 28  1  0  0  0  0
 31 30  1  0  0  0  0
 32 31  1  0  0  0  0
 33 32  2  0  0  0  0
 34 32  1  0  0  0  0
M  END
>  <MODEL>
4

>  <REMARK>
 VINA RESULT:      -4.8      3.857      8.496
  Name = 
  14 active torsions:
  status: ('A' for Active; 'I' for Inactive)
    1  A    between atoms: C_3  and  C_14
    2  A    between atoms: C_3  and  C_31
    3  A    between atoms: C_5  and  C_9
    4  A    between atoms: C_5  and  C_19
    5  A    between atoms: C_5  and  C_34
    6  A    between atoms: N_7  and  O_13
    7  A    between atoms: N_7  and  C_14
    8  A    between atoms: N_7  and  C_21
    9  A    between atoms: O_10  and  C_16
   10  A    between atoms: O_10  and  C_34
   11  A    between atoms: O_13  and  C_29
   12  A    between atoms: C_15  and  C_18
   13  A    between atoms: C_16  and  C_24
   14  A    between atoms: C_18  and  C_31
                            x       y       z     vdW  Elec       q    Type
                         _______ _______ _______ _____ _____    ______ ____

>  <TORSDO>
F 14

$$$$
=
 OpenBabel10222421313D

 34 36  0  0  1  0  0  0  0  0999 V2000
  186.1240  178.0600  142.3660 N   0  0  0  0  0  0  0  0  0  0  0  0
  183.8320  178.3480  141.3510 C   0  0  0  0  0  0  0  0  0  0  0  0
  181.6170  177.9790  141.1210 C   0  0  1  0  0  3  0  0  0  0  0  0
  184.5000  179.4060  144.7680 C   0  0  0  0  0  1  0  0  0  0  0  0
  182.7050  179.1340  143.0450 N   0  0  0  0  0  0  0  0  0  0  0  0
  184.7560  178.5310  142.3490 C   0  0  0  0  0  0  0  0  0  0  0  0
  182.3810  177.1020  140.2180 N   0  0  0  0  0  0  0  0  0  0  0  0
  182.6490  178.7550  141.7790 N   0  0  0  0  0  0  0  0  0  0  0  0
  183.6610  177.3010  140.3720 C   0  0  0  0  0  3  0  0  0  0  0  0
  184.0090  179.0710  143.4000 C   0  0  0  0  0  0  0  0  0  0  0  0
  180.7190  178.8940  140.3110 C   0  0  0  0  0  1  0  0  0  0  0  0
  186.4780  177.0670  143.2340 O   0  0  0  0  0  0  0  0  0  0  0  0
  188.1550  177.9610  146.9820 C   0  0  0  0  0  3  0  0  0  0  0  0
  186.1820  177.4630  145.5770 C   0  0  0  0  0  2  0  0  0  0  0  0
  188.4240  177.0900  144.6100 C   0  0  1  0  0  3  0  0  0  0  0  0
  186.8330  177.9080  146.8500 C   0  0  0  0  0  3  0  0  0  0  0  0
  189.1030  177.6880  145.8460 C   0  0  0  0  0  2  0  0  0  0  0  0
  187.0550  177.7030  144.3490 C   0  0  1  0  0  3  0  0  0  0  0  0
  189.3040  177.0890  143.3490 C   0  0  1  0  0  3  0  0  0  0  0  0
  190.2110  178.3110  143.1730 C   0  0  0  0  0  2  0  0  0  0  0  0
  191.2770  178.0530  142.1240 C   0  0  0  0  0  1  0  0  0  0  0  0
  190.1190  175.8060  143.2990 C   0  0  0  0  0  2  0  0  0  0  0  0
  191.4590  176.0820  143.5830 O   0  0  0  0  0  0  0  0  0  0  0  0
  191.7100  175.3650  144.7490 C   0  0  0  0  0  2  0  0  0  0  0  0
  191.9830  175.5810  147.1860 C   0  0  0  0  0  1  0  0  0  0  0  0
  191.9730  176.3350  145.8810 C   0  0  0  0  0  2  0  0  0  0  0  0
  187.1410  178.8120  141.6170 C   0  0  0  0  0  2  0  0  0  0  0  0
  187.4450  178.2300  140.2360 C   0  0  1  0  0  3  0  0  0  0  0  0
  186.5770  178.8010  139.3050 O   0  0  0  0  0  1  0  0  0  0  0  0
  188.8880  178.5070  139.8200 C   0  0  0  0  0  2  0  0  0  0  0  0
  189.1600  177.9770  138.4120 C   0  0  0  0  0  2  0  0  0  0  0  0
  190.2690  176.9770  138.4060 C   0  0  0  0  0  0  0  0  0  0  0  0
  191.0490  176.9070  137.4200 O   0  0  0  0  0  0  0  0  0  0  0  0
  190.4220  176.1030  139.4700 O   0  0  0  0  0  1  0  0  0  0  0  0
  1 12  1  0  0  0  0
  2  8  1  0  0  0  0
  2  6  2  0  0  0  0
  3 11  1  6  0  0  0
  3  8  1  0  0  0  0
  5 10  2  0  0  0  0
  6  1  1  0  0  0  0
  6 10  1  0  0  0  0
  7  9  2  0  0  0  0
  7  3  1  0  0  0  0
  8  5  1  0  0  0  0
  9  2  1  0  0  0  0
 10  4  1  0  0  0  0
 14 16  1  0  0  0  0
 15 19  1  6  0  0  0
 15 17  1  0  0  0  0
 16 13  2  0  0  0  0
 17 13  1  0  0  0  0
 18 12  1  6  0  0  0
 18 15  1  0  0  0  0
 18 14  1  0  0  0  0
 19 20  1  1  0  0  0
 21 20  1  0  0  0  0
 22 19  1  0  0  0  0
 22 23  1  0  0  0  0
 23 24  1  0  0  0  0
 24 26  1  0  0  0  0
 26 25  1  0  0  0  0
 27  1  1  0  0  0  0
 28 29  1  6  0  0  0
 28 27  1  0  0  0  0
 30 28  1  0  0  0  0
 31 30  1  0  0  0  0
 32 31  1  0  0  0  0
 32 34  1  0  0  0  0
 33 32  2  0  0  0  0
M  END
>  <MODEL>
5

>  <REMARK>
 VINA RESULT:      -4.8      3.580      8.291
  Name = 
  14 active torsions:
  status: ('A' for Active; 'I' for Inactive)
    1  A    between atoms: C_3  and  C_14
    2  A    between atoms: C_3  and  C_31
    3  A    between atoms: C_5  and  C_9
    4  A    between atoms: C_5  and  C_19
    5  A    between atoms: C_5  and  C_34
    6  A    between atoms: N_7  and  O_13
    7  A    between atoms: N_7  and  C_14
    8  A    between atoms: N_7  and  C_21
    9  A    between atoms: O_10  and  C_16
   10  A    between atoms: O_10  and  C_34
   11  A    between atoms: O_13  and  C_29
   12  A    between atoms: C_15  and  C_18
   13  A    between atoms: C_16  and  C_24
   14  A    between atoms: C_18  and  C_31
                            x       y       z     vdW  Elec       q    Type
                         _______ _______ _______ _____ _____    ______ ____

>  <TORSDO>
F 14

$$$$
=
 OpenBabel10222421313D

 34 36  0  0  1  0  0  0  0  0999 V2000
  189.4570  176.7630  138.2560 N   0  0  0  0  0  0  0  0  0  0  0  0
  188.6220  174.5730  137.3190 C   0  0  0  0  0  0  0  0  0  0  0  0
  188.2720  173.0100  135.7290 C   0  0  1  0  0  3  0  0  0  0  0  0
  192.1870  175.2770  137.5120 C   0  0  0  0  0  1  0  0  0  0  0  0
  190.4870  173.6350  136.6890 N   0  0  0  0  0  0  0  0  0  0  0  0
  189.6170  175.4200  137.7430 C   0  0  0  0  0  0  0  0  0  0  0  0
  187.1070  173.9050  135.8360 N   0  0  0  0  0  0  0  0  0  0  0  0
  189.1720  173.5150  136.7460 N   0  0  0  0  0  0  0  0  0  0  0  0
  187.3230  174.8210  136.7400 C   0  0  0  0  0  3  0  0  0  0  0  0
  190.7940  174.7700  137.3590 C   0  0  0  0  0  0  0  0  0  0  0  0
  187.8610  171.5890  136.0610 C   0  0  0  0  0  1  0  0  0  0  0  0
  188.8710  176.9460  139.4760 O   0  0  0  0  0  0  0  0  0  0  0  0
  191.9820  177.6640  142.2090 C   0  0  0  0  0  3  0  0  0  0  0  0
  191.1770  177.4490  139.8800 C   0  0  0  0  0  2  0  0  0  0  0  0
  189.4970  177.5870  141.6850 C   0  0  1  0  0  3  0  0  0  0  0  0
  192.2570  177.5670  140.9110 C   0  0  0  0  0  3  0  0  0  0  0  0
  190.5870  177.5540  142.7610 C   0  0  0  0  0  2  0  0  0  0  0  0
  189.8980  176.8240  140.4300 C   0  0  1  0  0  3  0  0  0  0  0  0
  188.1040  177.1740  142.1900 C   0  0  1  0  0  3  0  0  0  0  0  0
  188.0900  176.2210  143.3880 C   0  0  0  0  0  2  0  0  0  0  0  0
  187.5520  176.9120  144.6290 C   0  0  0  0  0  1  0  0  0  0  0  0
  187.2800  178.4170  142.4830 C   0  0  0  0  0  2  0  0  0  0  0  0
  186.3090  178.5890  141.4940 O   0  0  0  0  0  0  0  0  0  0  0  0
  185.1090  178.3260  142.1490 C   0  0  0  0  0  2  0  0  0  0  0  0
  183.8100  178.8000  144.1850 C   0  0  0  0  0  1  0  0  0  0  0  0
  184.9950  179.2290  143.3570 C   0  0  0  0  0  2  0  0  0  0  0  0
  189.7190  177.8980  137.3610 C   0  0  0  0  0  2  0  0  0  0  0  0
  188.4540  178.5880  136.8520 C   0  0  1  0  0  3  0  0  0  0  0  0
  187.9570  177.8720  135.7630 O   0  0  0  0  0  1  0  0  0  0  0  0
  187.3840  178.6640  137.9390 C   0  0  0  0  0  2  0  0  0  0  0  0
  186.0690  178.0550  137.4530 C   0  0  0  0  0  2  0  0  0  0  0  0
  184.9300  178.4210  138.3460 C   0  0  0  0  0  0  0  0  0  0  0  0
  184.8600  179.5780  138.8350 O   0  0  0  0  0  1  0  0  0  0  0  0
  183.9650  177.4780  138.6620 O   0  0  0  0  0  0  0  0  0  0  0  0
  1 12  1  0  0  0  0
  2  6  2  0  0  0  0
  3  7  1  0  0  0  0
  3 11  1  1  0  0  0
  3  8  1  0  0  0  0
  5  8  1  0  0  0  0
  5 10  2  0  0  0  0
  6  1  1  0  0  0  0
  7  9  2  0  0  0  0
  8  2  1  0  0  0  0
  9  2  1  0  0  0  0
 10  4  1  0  0  0  0
 10  6  1  0  0  0  0
 13 17  1  0  0  0  0
 14 18  1  0  0  0  0
 14 16  1  0  0  0  0
 15 19  1  1  0  0  0
 15 17  1  0  0  0  0
 16 13  2  0  0  0  0
 18 12  1  6  0  0  0
 18 15  1  0  0  0  0
 19 22  1  1  0  0  0
 19 20  1  0  0  0  0
 20 21  1  0  0  0  0
 23 24  1  0  0  0  0
 23 22  1  0  0  0  0
 24 26  1  0  0  0  0
 26 25  1  0  0  0  0
 27  1  1  0  0  0  0
 28 29  1  6  0  0  0
 28 27  1  0  0  0  0
 28 30  1  0  0  0  0
 31 30  1  0  0  0  0
 31 32  1  0  0  0  0
 32 34  2  0  0  0  0
 32 33  1  0  0  0  0
M  END
>  <MODEL>
6

>  <REMARK>
 VINA RESULT:      -4.5      2.291      5.969
  Name = 
  14 active torsions:
  status: ('A' for Active; 'I' for Inactive)
    1  A    between atoms: C_3  and  C_14
    2  A    between atoms: C_3  and  C_31
    3  A    between atoms: C_5  and  C_9
    4  A    between atoms: C_5  and  C_19
    5  A    between atoms: C_5  and  C_34
    6  A    between atoms: N_7  and  O_13
    7  A    between atoms: N_7  and  C_14
    8  A    between atoms: N_7  and  C_21
    9  A    between atoms: O_10  and  C_16
   10  A    between atoms: O_10  and  C_34
   11  A    between atoms: O_13  and  C_29
   12  A    between atoms: C_15  and  C_18
   13  A    between atoms: C_16  and  C_24
   14  A    between atoms: C_18  and  C_31
                            x       y       z     vdW  Elec       q    Type
                         _______ _______ _______ _____ _____    ______ ____

>  <TORSDO>
F 14

$$$$
=
 OpenBabel10222421313D

 34 36  0  0  1  0  0  0  0  0999 V2000
  184.9220  176.7080  137.5740 N   0  0  0  0  0  0  0  0  0  0  0  0
  185.1970  174.3710  136.6610 C   0  0  0  0  0  0  0  0  0  0  0  0
  184.5290  172.4390  135.7030 C   0  0  1  0  0  3  0  0  0  0  0  0
  184.3220  177.1370  134.4640 C   0  0  0  0  0  1  0  0  0  0  0  0
  184.6470  174.6570  134.5700 N   0  0  0  0  0  0  0  0  0  0  0  0
  185.0040  175.7230  136.5170 C   0  0  0  0  0  0  0  0  0  0  0  0
  184.4900  172.3260  137.1710 N   0  0  0  0  0  0  0  0  0  0  0  0
  185.0240  173.7840  135.4880 N   0  0  0  0  0  0  0  0  0  0  0  0
  184.8530  173.4530  137.7200 C   0  0  0  0  0  3  0  0  0  0  0  0
  184.6930  175.8730  135.1620 C   0  0  0  0  0  0  0  0  0  0  0  0
  185.5090  171.4300  135.1360 C   0  0  0  0  0  1  0  0  0  0  0  0
  183.8030  176.7580  138.3550 O   0  0  0  0  0  0  0  0  0  0  0  0
  181.4610  180.2470  138.4180 C   0  0  0  0  0  3  0  0  0  0  0  0
  182.1910  178.1710  137.2880 C   0  0  0  0  0  2  0  0  0  0  0  0
  182.8020  178.4830  139.6610 C   0  0  1  0  0  3  0  0  0  0  0  0
  181.4860  179.4920  137.3230 C   0  0  0  0  0  3  0  0  0  0  0  0
  182.2200  179.9000  139.6690 C   0  0  0  0  0  2  0  0  0  0  0  0
  183.3370  178.0840  138.2920 C   0  0  1  0  0  3  0  0  0  0  0  0
  183.8250  178.2170  140.7780 C   0  0  1  0  0  3  0  0  0  0  0  0
  185.0310  179.1590  140.8090 C   0  0  0  0  0  2  0  0  0  0  0  0
  186.2770  178.4360  141.2870 C   0  0  0  0  0  1  0  0  0  0  0  0
  183.1170  178.2100  142.1240 C   0  0  0  0  0  2  0  0  0  0  0  0
  183.5730  179.2740  142.9070 O   0  0  0  0  0  0  0  0  0  0  0  0
  183.4860  178.7950  144.2100 C   0  0  0  0  0  2  0  0  0  0  0  0
  185.7270  178.0350  144.8900 C   0  0  0  0  0  1  0  0  0  0  0  0
  184.7430  179.1750  144.9630 C   0  0  0  0  0  2  0  0  0  0  0  0
  185.9390  177.7670  137.6330 C   0  0  0  0  0  2  0  0  0  0  0  0
  187.2710  177.3810  136.9910 C   0  0  1  0  0  3  0  0  0  0  0  0
  187.8700  178.5290  136.4730 O   0  0  0  0  0  1  0  0  0  0  0  0
  188.2120  176.7330  138.0050 C   0  0  0  0  0  2  0  0  0  0  0  0
  188.9660  177.7950  138.8040 C   0  0  0  0  0  2  0  0  0  0  0  0
  189.7790  177.1850  139.8980 C   0  0  0  0  0  0  0  0  0  0  0  0
  189.6720  177.6150  141.0770 O   0  0  0  0  0  1  0  0  0  0  0  0
  190.6750  176.1680  139.6130 O   0  0  0  0  0  0  0  0  0  0  0  0
  1 27  1  0  0  0  0
  1 12  1  0  0  0  0
  2  9  1  0  0  0  0
  3 11  1  6  0  0  0
  3  7  1  0  0  0  0
  4 10  1  0  0  0  0
  5 10  2  0  0  0  0
  5  8  1  0  0  0  0
  6  2  2  0  0  0  0
  6  1  1  0  0  0  0
  7  9  2  0  0  0  0
  8  3  1  0  0  0  0
  8  2  1  0  0  0  0
 10  6  1  0  0  0  0
 13 17  1  0  0  0  0
 14 16  1  0  0  0  0
 14 18  1  0  0  0  0
 15 17  1  0  0  0  0
 15 19  1  1  0  0  0
 16 13  2  0  0  0  0
 18 12  1  1  0  0  0
 18 15  1  0  0  0  0
 19 20  1  1  0  0  0
 19 22  1  0  0  0  0
 20 21  1  0  0  0  0
 22 23  1  0  0  0  0
 23 24  1  0  0  0  0
 24 26  1  0  0  0  0
 25 26  1  0  0  0  0
 28 29  1  1  0  0  0
 28 27  1  0  0  0  0
 28 30  1  0  0  0  0
 30 31  1  0  0  0  0
 31 32  1  0  0  0  0
 32 33  1  0  0  0  0
 34 32  2  0  0  0  0
M  END
>  <MODEL>
7

>  <REMARK>
 VINA RESULT:      -4.5      3.709      8.398
  Name = 
  14 active torsions:
  status: ('A' for Active; 'I' for Inactive)
    1  A    between atoms: C_3  and  C_14
    2  A    between atoms: C_3  and  C_31
    3  A    between atoms: C_5  and  C_9
    4  A    between atoms: C_5  and  C_19
    5  A    between atoms: C_5  and  C_34
    6  A    between atoms: N_7  and  O_13
    7  A    between atoms: N_7  and  C_14
    8  A    between atoms: N_7  and  C_21
    9  A    between atoms: O_10  and  C_16
   10  A    between atoms: O_10  and  C_34
   11  A    between atoms: O_13  and  C_29
   12  A    between atoms: C_15  and  C_18
   13  A    between atoms: C_16  and  C_24
   14  A    between atoms: C_18  and  C_31
                            x       y       z     vdW  Elec       q    Type
                         _______ _______ _______ _____ _____    ______ ____

>  <TORSDO>
F 14

$$$$
=
 OpenBabel10222421313D

 34 36  0  0  1  0  0  0  0  0999 V2000
  184.1090  178.1010  139.6330 N   0  0  0  0  0  0  0  0  0  0  0  0
  182.7760  176.8910  137.8640 C   0  0  0  0  0  0  0  0  0  0  0  0
  180.9210  176.0290  136.9090 C   0  0  1  0  0  3  0  0  0  0  0  0
  182.2290  180.4300  138.5120 C   0  0  0  0  0  1  0  0  0  0  0  0
  181.4040  178.4570  137.2110 N   0  0  0  0  0  0  0  0  0  0  0  0
  183.1680  178.0220  138.5370 C   0  0  0  0  0  0  0  0  0  0  0  0
  181.6160  175.0020  137.7030 N   0  0  0  0  0  0  0  0  0  0  0  0
  181.7690  177.1950  137.0620 N   0  0  0  0  0  0  0  0  0  0  0  0
  182.6740  175.5100  138.2720 C   0  0  0  0  0  3  0  0  0  0  0  0
  182.2970  179.0090  138.0660 C   0  0  0  0  0  0  0  0  0  0  0  0
  180.8750  175.6100  135.4520 C   0  0  0  0  0  1  0  0  0  0  0  0
  183.7770  177.5530  140.8390 O   0  0  0  0  0  0  0  0  0  0  0  0
  180.7230  179.2670  143.1610 C   0  0  0  0  0  3  0  0  0  0  0  0
  181.4400  177.8420  141.2710 C   0  0  0  0  0  2  0  0  0  0  0  0
  183.1460  178.5460  142.9120 C   0  0  1  0  0  3  0  0  0  0  0  0
  180.4090  178.5880  142.0610 C   0  0  0  0  0  3  0  0  0  0  0  0
  182.1370  179.4370  143.6440 C   0  0  0  0  0  2  0  0  0  0  0  0
  182.8420  178.4250  141.4250 C   0  0  1  0  0  3  0  0  0  0  0  0
  184.6160  178.9180  143.1710 C   0  0  1  0  0  3  0  0  0  0  0  0
  184.8580  179.9040  144.3170 C   0  0  0  0  0  2  0  0  0  0  0  0
  185.2250  179.1750  145.5970 C   0  0  0  0  0  1  0  0  0  0  0  0
  185.4330  177.6530  143.3710 C   0  0  0  0  0  2  0  0  0  0  0  0
  186.6340  177.7440  142.6630 O   0  0  0  0  0  0  0  0  0  0  0  0
  187.5220  176.9690  143.4010 C   0  0  0  0  0  2  0  0  0  0  0  0
  188.5520  177.2800  145.6160 C   0  0  0  0  0  1  0  0  0  0  0  0
  188.3950  177.8760  144.2400 C   0  0  0  0  0  2  0  0  0  0  0  0
  185.2930  178.9590  139.4890 C   0  0  0  0  0  2  0  0  0  0  0  0
  186.4970  178.2500  138.8660 C   0  0  1  0  0  3  0  0  0  0  0  0
  186.7330  178.7900  137.6020 O   0  0  0  0  0  1  0  0  0  0  0  0
  187.7470  178.4140  139.7290 C   0  0  0  0  0  2  0  0  0  0  0  0
  189.0110  178.1550  138.9090 C   0  0  0  0  0  2  0  0  0  0  0  0
  190.0440  177.4290  139.7060 C   0  0  0  0  0  0  0  0  0  0  0  0
  190.8560  176.6580  139.1300 O   0  0  0  0  0  0  0  0  0  0  0  0
  190.0920  177.5790  141.0830 O   0  0  0  0  0  1  0  0  0  0  0  0
  1 12  1  0  0  0  0
  2  9  1  0  0  0  0
  2  6  2  0  0  0  0
  3 11  1  6  0  0  0
  3  8  1  0  0  0  0
  3  7  1  0  0  0  0
  5 10  2  0  0  0  0
  6  1  1  0  0  0  0
  7  9  2  0  0  0  0
  8  5  1  0  0  0  0
  8  2  1  0  0  0  0
 10  4  1  0  0  0  0
 10  6  1  0  0  0  0
 13 17  1  0  0  0  0
 14 18  1  0  0  0  0
 14 16  1  0  0  0  0
 15 19  1  6  0  0  0
 15 17  1  0  0  0  0
 16 13  2  0  0  0  0
 18 12  1  6  0  0  0
 18 15  1  0  0  0  0
 19 22  1  1  0  0  0
 19 20  1  0  0  0  0
 20 21  1  0  0  0  0
 23 22  1  0  0  0  0
 23 24  1  0  0  0  0
 24 26  1  0  0  0  0
 26 25  1  0  0  0  0
 27  1  1  0  0  0  0
 28 29  1  6  0  0  0
 28 27  1  0  0  0  0
 28 30  1  0  0  0  0
 31 32  1  0  0  0  0
 31 30  1  0  0  0  0
 32 34  1  0  0  0  0
 33 32  2  0  0  0  0
M  END
>  <MODEL>
8

>  <REMARK>
 VINA RESULT:      -4.5      4.353      9.265
  Name = 
  14 active torsions:
  status: ('A' for Active; 'I' for Inactive)
    1  A    between atoms: C_3  and  C_14
    2  A    between atoms: C_3  and  C_31
    3  A    between atoms: C_5  and  C_9
    4  A    between atoms: C_5  and  C_19
    5  A    between atoms: C_5  and  C_34
    6  A    between atoms: N_7  and  O_13
    7  A    between atoms: N_7  and  C_14
    8  A    between atoms: N_7  and  C_21
    9  A    between atoms: O_10  and  C_16
   10  A    between atoms: O_10  and  C_34
   11  A    between atoms: O_13  and  C_29
   12  A    between atoms: C_15  and  C_18
   13  A    between atoms: C_16  and  C_24
   14  A    between atoms: C_18  and  C_31
                            x       y       z     vdW  Elec       q    Type
                         _______ _______ _______ _____ _____    ______ ____

>  <TORSDO>
F 14

$$$$
=
 OpenBabel10222421313D

 34 36  0  0  1  0  0  0  0  0999 V2000
  185.3420  178.6630  140.6490 N   0  0  0  0  0  0  0  0  0  0  0  0
  187.8200  178.2390  140.8720 C   0  0  0  0  0  0  0  0  0  0  0  0
  189.7170  177.0170  140.8130 C   0  0  1  0  0  3  0  0  0  0  0  0
  186.1780  178.0210  137.6320 C   0  0  0  0  0  1  0  0  0  0  0  0
  188.3450  177.6660  138.8340 N   0  0  0  0  0  0  0  0  0  0  0  0
  186.6730  178.4120  140.1390 C   0  0  0  0  0  0  0  0  0  0  0  0
  189.1590  177.0350  142.1750 N   0  0  0  0  0  0  0  0  0  0  0  0
  188.7920  177.8450  140.0660 N   0  0  0  0  0  0  0  0  0  0  0  0
  188.0500  177.7220  142.2000 C   0  0  0  0  0  3  0  0  0  0  0  0
  187.0550  178.0750  138.8370 C   0  0  0  0  0  0  0  0  0  0  0  0
  191.0950  177.6510  140.8130 C   0  0  0  0  0  1  0  0  0  0  0  0
  184.2600  178.2550  139.9230 O   0  0  0  0  0  0  0  0  0  0  0  0
  181.3760  181.1290  138.8860 C   0  0  0  0  0  3  0  0  0  0  0  0
  183.6860  180.2580  138.7440 C   0  0  0  0  0  2  0  0  0  0  0  0
  181.9480  178.7980  139.7180 C   0  0  1  0  0  3  0  0  0  0  0  0
  182.6430  181.3090  138.5230 C   0  0  0  0  0  3  0  0  0  0  0  0
  180.9040  179.9160  139.6400 C   0  0  0  0  0  2  0  0  0  0  0  0
  183.3590  179.3350  139.9150 C   0  0  1  0  0  3  0  0  0  0  0  0
  181.6080  177.6910  140.7300 C   0  0  1  0  0  3  0  0  0  0  0  0
  180.3850  177.9540  141.6130 C   0  0  0  0  0  2  0  0  0  0  0  0
  180.7700  178.7190  142.8660 C   0  0  0  0  0  1  0  0  0  0  0  0
  181.4680  176.3630  140.0030 C   0  0  0  0  0  2  0  0  0  0  0  0
  180.9850  176.5780  138.7090 O   0  0  0  0  0  0  0  0  0  0  0  0
  181.5910  175.5800  137.9530 C   0  0  0  0  0  2  0  0  0  0  0  0
  182.7610  177.2890  136.6220 C   0  0  0  0  0  1  0  0  0  0  0  0
  182.9460  176.0660  137.4840 C   0  0  0  0  0  2  0  0  0  0  0  0
  185.1860  179.5440  141.8160 C   0  0  0  0  0  2  0  0  0  0  0  0
  184.4170  178.9060  142.9730 C   0  0  1  0  0  3  0  0  0  0  0  0
  184.8760  177.6010  143.1520 O   0  0  0  0  0  1  0  0  0  0  0  0
  184.6060  179.6920  144.2680 C   0  0  0  0  0  2  0  0  0  0  0  0
  184.4200  178.7870  145.4860 C   0  0  0  0  0  2  0  0  0  0  0  0
  185.6110  178.8230  146.3860 C   0  0  0  0  0  0  0  0  0  0  0  0
  185.5980  179.5420  147.4190 O   0  0  0  0  0  1  0  0  0  0  0  0
  186.7430  178.0890  146.0690 O   0  0  0  0  0  0  0  0  0  0  0  0
  1 27  1  0  0  0  0
  2  9  1  0  0  0  0
  3 11  1  1  0  0  0
  3  7  1  0  0  0  0
  4 10  1  0  0  0  0
  5 10  2  0  0  0  0
  5  8  1  0  0  0  0
  6  1  1  0  0  0  0
  6  2  2  0  0  0  0
  7  9  2  0  0  0  0
  8  3  1  0  0  0  0
  8  2  1  0  0  0  0
 10  6  1  0  0  0  0
 12  1  1  0  0  0  0
 13 17  1  0  0  0  0
 14 18  1  0  0  0  0
 15 18  1  0  0  0  0
 15 19  1  1  0  0  0
 16 14  1  0  0  0  0
 16 13  2  0  0  0  0
 17 15  1  0  0  0  0
 18 12  1  6  0  0  0
 19 22  1  6  0  0  0
 19 20  1  0  0  0  0
 20 21  1  0  0  0  0
 23 22  1  0  0  0  0
 24 23  1  0  0  0  0
 25 26  1  0  0  0  0
 26 24  1  0  0  0  0
 27 28  1  0  0  0  0
 28 29  1  1  0  0  0
 28 30  1  0  0  0  0
 30 31  1  0  0  0  0
 31 32  1  0  0  0  0
 32 33  1  0  0  0  0
 34 32  2  0  0  0  0
M  END
>  <MODEL>
9

>  <REMARK>
 VINA RESULT:      -4.5      3.822      7.501
  Name = 
  14 active torsions:
  status: ('A' for Active; 'I' for Inactive)
    1  A    between atoms: C_3  and  C_14
    2  A    between atoms: C_3  and  C_31
    3  A    between atoms: C_5  and  C_9
    4  A    between atoms: C_5  and  C_19
    5  A    between atoms: C_5  and  C_34
    6  A    between atoms: N_7  and  O_13
    7  A    between atoms: N_7  and  C_14
    8  A    between atoms: N_7  and  C_21
    9  A    between atoms: O_10  and  C_16
   10  A    between atoms: O_10  and  C_34
   11  A    between atoms: O_13  and  C_29
   12  A    between atoms: C_15  and  C_18
   13  A    between atoms: C_16  and  C_24
   14  A    between atoms: C_18  and  C_31
                            x       y       z     vdW  Elec       q    Type
                         _______ _______ _______ _____ _____    ______ ____

>  <TORSDO>
F 14

$$$$
