=
 OpenBabel10232412263D

 38 42  0  0  1  0  0  0  0  0999 V2000
  180.1460  172.7700  137.7770 C   0  0  0  0  0  3  0  0  0  0  0  0
  185.1100  176.8140  137.8910 N   0  0  0  0  0  0  0  0  0  0  0  0
  180.2780  174.0300  138.0490 N   0  0  0  0  0  0  0  0  0  0  0  0
  180.8740  172.4060  136.5660 C   0  0  0  0  0  2  0  0  0  0  0  0
  181.1060  179.5350  139.6710 C   0  0  0  0  0  0  0  0  0  0  0  0
  181.3980  173.5320  136.1230 C   0  0  2  0  0  3  0  0  0  0  0  0
  183.3180  176.6940  139.5410 C   0  0  0  0  0  2  0  0  0  0  0  0
  182.5290  173.5870  135.2660 N   0  0  0  0  0  0  0  0  0  0  0  0
  184.7620  175.9050  137.0310 C   0  0  0  0  0  3  0  0  0  0  0  0
  180.9380  178.3460  139.1760 C   0  0  0  0  0  0  0  0  0  0  0  0
  183.3860  180.0780  138.7600 C   0  0  0  0  0  2  0  0  0  0  0  0
  180.9140  177.1570  138.6500 C   0  0  0  0  0  3  0  0  0  0  0  0
  181.0480  174.6740  136.9960 C   0  0  2  0  0  3  0  0  0  0  0  0
  183.4360  175.3160  136.7410 C   0  0  0  0  0  0  0  0  0  0  0  0
  183.4760  174.4350  135.5380 C   0  0  0  0  0  3  0  0  0  0  0  0
  184.3250  177.6150  138.8210 C   0  0  2  0  0  0  0  0  0  0  0  0
  182.1030  176.2340  138.7260 C   0  0  1  0  0  3  0  0  0  0  0  0
  183.6250  178.7430  138.0230 C   0  0  0  0  0  2  0  0  0  0  0  0
  182.2980  175.3800  137.4970 C   0  0  0  0  0  0  0  0  0  0  0  0
  182.5030  179.9630  140.0060 C   0  0  0  0  0  2  0  0  0  0  0  0
  184.9490  178.5680  141.0280 C   0  0  0  0  0  0  0  0  0  0  0  0
  185.3220  178.2160  139.8190 C   0  0  0  0  0  0  0  0  0  0  0  0
  184.5820  178.9160  142.2340 C   0  0  0  0  0  3  0  0  0  0  0  0
  185.3150  178.4940  143.4360 C   0  0  0  0  0  0  0  0  0  0  0  0
  186.4660  177.6950  143.3580 C   0  0  0  0  0  3  0  0  0  0  0  0
  184.8400  178.8950  144.6900 C   0  0  0  0  0  3  0  0  0  0  0  0
  185.5090  178.5090  145.8560 C   0  0  0  0  0  3  0  0  0  0  0  0
  187.1360  177.3080  144.5220 C   0  0  0  0  0  3  0  0  0  0  0  0
  186.6560  177.7110  145.7730 C   0  0  0  0  0  0  0  0  0  0  0  0
  187.3830  177.3160  147.0140 C   0  0  0  0  0  2  0  0  0  0  0  0
  189.7200  176.9910  146.6310 O   0  0  0  0  0  1  0  0  0  0  0  0
  189.0940  178.3630  148.4640 C   0  0  0  0  0  1  0  0  0  0  0  0
  188.7740  177.9280  147.0500 C   0  0  2  0  0  3  0  0  0  0  0  0
  187.0280  178.8130  138.2610 O   0  0  0  0  0  0  0  0  0  0  0  0
  187.7630  178.2430  140.3460 O   0  0  0  0  0  1  0  0  0  0  0  0
  186.7370  178.4400  139.4290 C   0  0  0  0  0  0  0  0  0  0  0  0
  179.9820  181.7110  139.4100 C   0  0  0  0  0  1  0  0  0  0  0  0
  180.0030  180.3680  139.8680 O   0  0  0  0  0  0  0  0  0  0  0  0
  1  3  2  0  0  0  0
  2 16  1  0  0  0  0
  4  1  1  0  0  0  0
  5 38  1  0  0  0  0
  5 20  1  0  0  0  0
  6  4  1  1  0  0  0
  6 13  1  0  0  0  0
  8 15  2  0  0  0  0
  8  6  1  0  0  0  0
  9  2  2  0  0  0  0
 10  5  2  0  0  0  0
 11 20  1  0  0  0  0
 12 10  2  0  0  0  0
 13 19  1  1  0  0  0
 13  3  1  0  0  0  0
 14  9  1  0  0  0  0
 14 19  2  0  0  0  0
 15 14  1  0  0  0  0
 16  7  1  0  0  0  0
 16 22  1  1  0  0  0
 17 12  1  6  0  0  0
 17  7  1  0  0  0  0
 18 11  1  0  0  0  0
 18 16  1  0  0  0  0
 19 17  1  0  0  0  0
 21 23  2  0  0  0  0
 22 21  2  0  0  0  0
 23 24  1  0  0  0  0
 24 26  1  0  0  0  0
 25 24  2  0  0  0  0
 25 28  1  0  0  0  0
 26 27  2  0  0  0  0
 28 29  2  0  0  0  0
 29 27  1  0  0  0  0
 29 30  1  0  0  0  0
 30 33  1  0  0  0  0
 31 33  1  0  0  0  0
 33 32  1  1  0  0  0
 34 36  2  0  0  0  0
 36 22  1  0  0  0  0
 36 35  1  0  0  0  0
 37 38  1  0  0  0  0
M  END
>  <MODEL>
1

>  <REMARK>
 VINA RESULT:      -7.4      0.000      0.000
  Name = 
  6 active torsions:
  status: ('A' for Active; 'I' for Inactive)
    1  A    between atoms: C_3  and  C_36
    2  A    between atoms: C_11  and  O_38
    3  A    between atoms: C_12  and  C_24
    4  A    between atoms: C_12  and  C_30
    5  A    between atoms: C_21  and  C_25
    6  A    between atoms: C_25  and  C_32
                            x       y       z     vdW  Elec       q    Type
                         _______ _______ _______ _____ _____    ______ ____

>  <TORSDO>
F 6

$$$$
=
 OpenBabel10232412263D

 38 42  0  0  1  0  0  0  0  0999 V2000
  187.9050  169.7320  135.6460 C   0  0  0  0  0  3  0  0  0  0  0  0
  192.3070  174.2550  136.7300 N   0  0  0  0  0  0  0  0  0  0  0  0
  187.9130  171.0240  135.5530 N   0  0  0  0  0  0  0  0  0  0  0  0
  189.1060  169.1460  135.0610 C   0  0  0  0  0  2  0  0  0  0  0  0
  187.9730  176.8220  135.6200 C   0  0  0  0  0  0  0  0  0  0  0  0
  189.7920  170.1650  134.5800 C   0  0  2  0  0  3  0  0  0  0  0  0
  189.9520  174.3630  137.3570 C   0  0  0  0  0  2  0  0  0  0  0  0
  191.1920  170.1270  134.3460 N   0  0  0  0  0  0  0  0  0  0  0  0
  192.3850  173.1080  136.1260 C   0  0  0  0  0  3  0  0  0  0  0  0
  188.0370  175.5310  135.4890 C   0  0  0  0  0  0  0  0  0  0  0  0
  190.4230  177.3830  135.7040 C   0  0  0  0  0  2  0  0  0  0  0  0
  188.2430  174.2510  135.3940 C   0  0  0  0  0  3  0  0  0  0  0  0
  189.0940  171.4480  134.8140 C   0  0  2  0  0  3  0  0  0  0  0  0
  191.3360  172.2970  135.4690 C   0  0  0  0  0  0  0  0  0  0  0  0
  191.9170  171.1320  134.7400 C   0  0  0  0  0  3  0  0  0  0  0  0
  191.1910  175.1730  136.9210 C   0  0  2  0  0  0  0  0  0  0  0  0
  189.2480  173.5460  136.2690 C   0  0  1  0  0  3  0  0  0  0  0  0
  190.9570  175.9390  135.5950 C   0  0  0  0  0  2  0  0  0  0  0  0
  189.9780  172.4200  135.5790 C   0  0  0  0  0  0  0  0  0  0  0  0
  189.0610  177.5010  136.3950 C   0  0  0  0  0  2  0  0  0  0  0  0
  190.7570  176.6110  138.8990 C   0  0  0  0  0  0  0  0  0  0  0  0
  191.6200  176.1480  138.0240 C   0  0  0  0  0  0  0  0  0  0  0  0
  189.9010  177.0710  139.7750 C   0  0  0  0  0  3  0  0  0  0  0  0
  190.1580  177.0400  141.2210 C   0  0  0  0  0  0  0  0  0  0  0  0
  191.3370  177.5630  141.7750 C   0  0  0  0  0  3  0  0  0  0  0  0
  189.1990  176.4640  142.0630 C   0  0  0  0  0  3  0  0  0  0  0  0
  189.4110  176.4130  143.4440 C   0  0  0  0  0  3  0  0  0  0  0  0
  191.5500  177.5120  143.1560 C   0  0  0  0  0  3  0  0  0  0  0  0
  190.5890  176.9340  143.9920 C   0  0  0  0  0  0  0  0  0  0  0  0
  190.8060  176.9000  145.4670 C   0  0  0  0  0  2  0  0  0  0  0  0
  192.0760  174.9200  145.0390 O   0  0  0  0  0  1  0  0  0  0  0  0
  191.9800  175.6920  147.2810 C   0  0  0  0  0  1  0  0  0  0  0  0
  192.0360  176.0770  145.8180 C   0  0  2  0  0  3  0  0  0  0  0  0
  193.5560  176.8480  139.2330 O   0  0  0  0  0  1  0  0  0  0  0  0
  193.7830  176.8040  136.9610 O   0  0  0  0  0  0  0  0  0  0  0  0
  193.0270  176.6160  138.1120 C   0  0  0  0  0  0  0  0  0  0  0  0
  185.5600  177.2020  135.3030 C   0  0  0  0  0  1  0  0  0  0  0  0
  186.9170  177.5280  135.0420 O   0  0  0  0  0  0  0  0  0  0  0  0
  2 16  1  0  0  0  0
  3  1  2  0  0  0  0
  4  1  1  0  0  0  0
  5 20  1  0  0  0  0
  6 13  1  0  0  0  0
  6  4  1  1  0  0  0
  8  6  1  0  0  0  0
  8 15  2  0  0  0  0
  9  2  2  0  0  0  0
 10  5  2  0  0  0  0
 11 20  1  0  0  0  0
 12 10  2  0  0  0  0
 13  3  1  1  0  0  0
 13 19  1  0  0  0  0
 14 19  2  0  0  0  0
 14  9  1  0  0  0  0
 15 14  1  0  0  0  0
 16  7  1  0  0  0  0
 16 22  1  1  0  0  0
 17 12  1  6  0  0  0
 17  7  1  0  0  0  0
 18 11  1  0  0  0  0
 18 16  1  0  0  0  0
 19 17  1  0  0  0  0
 21 23  2  0  0  0  0
 22 36  1  0  0  0  0
 22 21  2  0  0  0  0
 23 24  1  0  0  0  0
 24 25  2  0  0  0  0
 24 26  1  0  0  0  0
 25 28  1  0  0  0  0
 26 27  2  0  0  0  0
 27 29  1  0  0  0  0
 28 29  2  0  0  0  0
 29 30  1  0  0  0  0
 30 33  1  0  0  0  0
 31 33  1  0  0  0  0
 33 32  1  1  0  0  0
 35 36  2  0  0  0  0
 36 34  1  0  0  0  0
 38 37  1  0  0  0  0
 38  5  1  0  0  0  0
M  END
>  <MODEL>
2

>  <REMARK>
 VINA RESULT:      -7.3      5.634      7.346
  Name = 
  6 active torsions:
  status: ('A' for Active; 'I' for Inactive)
    1  A    between atoms: C_3  and  C_36
    2  A    between atoms: C_11  and  O_38
    3  A    between atoms: C_12  and  C_24
    4  A    between atoms: C_12  and  C_30
    5  A    between atoms: C_21  and  C_25
    6  A    between atoms: C_25  and  C_32
                            x       y       z     vdW  Elec       q    Type
                         _______ _______ _______ _____ _____    ______ ____

>  <TORSDO>
F 6

$$$$
=
 OpenBabel10232412263D

 38 42  0  0  1  0  0  0  0  0999 V2000
  187.8210  170.2770  135.2730 C   0  0  0  0  0  3  0  0  0  0  0  0
  191.7570  174.8390  137.4420 N   0  0  0  0  0  0  0  0  0  0  0  0
  187.7790  171.5710  135.2910 N   0  0  0  0  0  0  0  0  0  0  0  0
  189.1290  169.7890  134.8470 C   0  0  0  0  0  2  0  0  0  0  0  0
  187.5340  177.3370  135.8520 C   0  0  0  0  0  0  0  0  0  0  0  0
  189.8310  170.8720  134.5730 C   0  0  2  0  0  3  0  0  0  0  0  0
  189.3290  174.8040  137.6800 C   0  0  0  0  0  2  0  0  0  0  0  0
  191.2510  170.9070  134.5710 N   0  0  0  0  0  0  0  0  0  0  0  0
  191.9890  173.7540  136.7660 C   0  0  0  0  0  3  0  0  0  0  0  0
  187.6830  176.0670  135.6260 C   0  0  0  0  0  0  0  0  0  0  0  0
  189.9070  177.9760  136.3860 C   0  0  0  0  0  2  0  0  0  0  0  0
  187.9660  174.8090  135.4600 C   0  0  0  0  0  3  0  0  0  0  0  0
  189.0400  172.1030  134.7940 C   0  0  2  0  0  3  0  0  0  0  0  0
  191.1020  172.9690  135.8790 C   0  0  0  0  0  0  0  0  0  0  0  0
  191.8510  171.8970  135.1610 C   0  0  0  0  0  3  0  0  0  0  0  0
  190.5800  175.6940  137.5230 C   0  0  2  0  0  0  0  0  0  0  0  0
  188.8520  174.0630  136.4250 C   0  0  1  0  0  3  0  0  0  0  0  0
  190.5240  176.5680  136.2450 C   0  0  0  0  0  2  0  0  0  0  0  0
  189.7390  173.0320  135.7740 C   0  0  0  0  0  0  0  0  0  0  0  0
  188.4480  177.9820  136.8500 C   0  0  0  0  0  2  0  0  0  0  0  0
  189.7500  177.0210  139.4530 C   0  0  0  0  0  0  0  0  0  0  0  0
  190.7760  176.5800  138.7600 C   0  0  0  0  0  0  0  0  0  0  0  0
  188.7320  177.4580  140.1470 C   0  0  0  0  0  3  0  0  0  0  0  0
  188.6580  177.3260  141.6090 C   0  0  0  0  0  0  0  0  0  0  0  0
  189.7910  177.0330  142.3840 C   0  0  0  0  0  3  0  0  0  0  0  0
  187.4180  177.4890  142.2380 C   0  0  0  0  0  3  0  0  0  0  0  0
  187.3090  177.3670  143.6270 C   0  0  0  0  0  3  0  0  0  0  0  0
  189.6830  176.9100  143.7720 C   0  0  0  0  0  3  0  0  0  0  0  0
  188.4410  177.0730  144.3960 C   0  0  0  0  0  0  0  0  0  0  0  0
  188.3290  176.9640  145.8780 C   0  0  0  0  0  2  0  0  0  0  0  0
  190.4700  176.5580  146.8630 O   0  0  0  0  0  1  0  0  0  0  0  0
  189.1180  178.2450  147.8430 C   0  0  0  0  0  1  0  0  0  0  0  0
  189.5480  177.5620  146.5630 C   0  0  2  0  0  3  0  0  0  0  0  0
  192.3550  177.3410  140.3790 O   0  0  0  0  0  1  0  0  0  0  0  0
  193.1950  176.9750  138.2880 O   0  0  0  0  0  0  0  0  0  0  0  0
  192.1380  176.9840  139.1900 C   0  0  0  0  0  0  0  0  0  0  0  0
  185.4370  177.4160  134.5610 C   0  0  0  0  0  1  0  0  0  0  0  0
  186.5500  178.0540  135.1690 O   0  0  0  0  0  0  0  0  0  0  0  0
  1  3  2  0  0  0  0
  2 16  1  0  0  0  0
  4  1  1  0  0  0  0
  5 20  1  0  0  0  0
  6 13  1  0  0  0  0
  6  4  1  1  0  0  0
  8  6  1  0  0  0  0
  8 15  2  0  0  0  0
  9  2  2  0  0  0  0
 10  5  2  0  0  0  0
 11 20  1  0  0  0  0
 12 10  2  0  0  0  0
 13  3  1  1  0  0  0
 13 19  1  0  0  0  0
 14  9  1  0  0  0  0
 15 14  1  0  0  0  0
 16  7  1  0  0  0  0
 16 22  1  1  0  0  0
 17 12  1  6  0  0  0
 17  7  1  0  0  0  0
 18 11  1  0  0  0  0
 18 16  1  0  0  0  0
 19 14  2  0  0  0  0
 19 17  1  0  0  0  0
 21 23  2  0  0  0  0
 22 36  1  0  0  0  0
 22 21  2  0  0  0  0
 23 24  1  0  0  0  0
 24 26  2  0  0  0  0
 24 25  1  0  0  0  0
 25 28  2  0  0  0  0
 26 27  1  0  0  0  0
 27 29  2  0  0  0  0
 28 29  1  0  0  0  0
 29 30  1  0  0  0  0
 30 33  1  0  0  0  0
 33 31  1  0  0  0  0
 33 32  1  1  0  0  0
 35 36  2  0  0  0  0
 36 34  1  0  0  0  0
 37 38  1  0  0  0  0
 38  5  1  0  0  0  0
M  END
>  <MODEL>
3

>  <REMARK>
 VINA RESULT:      -7.1      4.880      6.606
  Name = 
  6 active torsions:
  status: ('A' for Active; 'I' for Inactive)
    1  A    between atoms: C_3  and  C_36
    2  A    between atoms: C_11  and  O_38
    3  A    between atoms: C_12  and  C_24
    4  A    between atoms: C_12  and  C_30
    5  A    between atoms: C_21  and  C_25
    6  A    between atoms: C_25  and  C_32
                            x       y       z     vdW  Elec       q    Type
                         _______ _______ _______ _____ _____    ______ ____

>  <TORSDO>
F 6

$$$$
=
 OpenBabel10232412263D

 38 42  0  0  1  0  0  0  0  0999 V2000
  191.8190  175.6690  144.2200 C   0  0  0  0  0  3  0  0  0  0  0  0
  187.7020  178.2390  140.0420 N   0  0  0  0  0  0  0  0  0  0  0  0
  191.8490  175.8920  142.9440 N   0  0  0  0  0  0  0  0  0  0  0  0
  191.3090  176.8230  144.9530 C   0  0  0  0  0  2  0  0  0  0  0  0
  191.6480  176.5420  137.1850 C   0  0  0  0  0  0  0  0  0  0  0  0
  191.0890  177.7470  144.0370 C   0  0  2  0  0  3  0  0  0  0  0  0
  189.0620  176.2480  139.6780 C   0  0  0  0  0  2  0  0  0  0  0  0
  190.1880  178.8300  144.2170 N   0  0  0  0  0  0  0  0  0  0  0  0
  188.0630  178.6120  141.2330 C   0  0  0  0  0  3  0  0  0  0  0  0
  191.7100  176.5350  138.4830 C   0  0  0  0  0  0  0  0  0  0  0  0
  189.7350  178.1380  136.8420 C   0  0  0  0  0  2  0  0  0  0  0  0
  191.6420  176.5940  139.7800 C   0  0  0  0  0  3  0  0  0  0  0  0
  191.4370  177.2640  142.6830 C   0  0  2  0  0  3  0  0  0  0  0  0
  189.3010  178.3290  141.9920 C   0  0  0  0  0  0  0  0  0  0  0  0
  189.3640  179.1210  143.2550 C   0  0  0  0  0  3  0  0  0  0  0  0
  188.4000  177.4740  139.0160 C   0  0  2  0  0  0  0  0  0  0  0  0
  190.3240  176.5120  140.5070 C   0  0  1  0  0  3  0  0  0  0  0  0
  189.4330  178.4040  138.3320 C   0  0  0  0  0  2  0  0  0  0  0  0
  190.2490  177.3760  141.7410 C   0  0  0  0  0  0  0  0  0  0  0  0
  190.3050  176.7470  136.5510 C   0  0  0  0  0  2  0  0  0  0  0  0
  187.3780  175.8560  137.4330 C   0  0  0  0  0  0  0  0  0  0  0  0
  187.3320  177.0370  138.0050 C   0  0  0  0  0  0  0  0  0  0  0  0
  187.4170  174.6790  136.8640 C   0  0  0  0  0  3  0  0  0  0  0  0
  186.2530  173.7830  136.8220 C   0  0  0  0  0  0  0  0  0  0  0  0
  185.0300  174.1290  137.4180 C   0  0  0  0  0  3  0  0  0  0  0  0
  186.3780  172.5470  136.1760 C   0  0  0  0  0  3  0  0  0  0  0  0
  185.2930  171.6660  136.1190 C   0  0  0  0  0  3  0  0  0  0  0  0
  183.9450  173.2490  137.3630 C   0  0  0  0  0  3  0  0  0  0  0  0
  184.0760  172.0150  136.7160 C   0  0  0  0  0  0  0  0  0  0  0  0
  182.9120  171.0870  136.6380 C   0  0  0  0  0  2  0  0  0  0  0  0
  180.8570  171.6650  137.7150 O   0  0  0  0  0  1  0  0  0  0  0  0
  180.8100  171.3640  135.3610 C   0  0  0  0  0  1  0  0  0  0  0  0
  181.6040  171.8570  136.5510 C   0  0  2  0  0  3  0  0  0  0  0  0
  185.0280  177.6190  137.7950 O   0  0  0  0  0  1  0  0  0  0  0  0
  186.5070  179.2060  137.0830 O   0  0  0  0  0  0  0  0  0  0  0  0
  186.2300  177.9570  137.6270 C   0  0  0  0  0  0  0  0  0  0  0  0
  193.8130  175.4330  136.7990 C   0  0  0  0  0  1  0  0  0  0  0  0
  192.8100  176.3680  136.4320 O   0  0  0  0  0  0  0  0  0  0  0  0
  1  4  1  0  0  0  0
  2  9  2  0  0  0  0
  3  1  2  0  0  0  0
  5 10  2  0  0  0  0
  6  8  1  0  0  0  0
  6  4  1  1  0  0  0
  9 14  1  0  0  0  0
 10 12  2  0  0  0  0
 11 18  1  0  0  0  0
 12 17  1  0  0  0  0
 13 19  1  6  0  0  0
 13  3  1  0  0  0  0
 13  6  1  0  0  0  0
 14 15  1  0  0  0  0
 15  8  2  0  0  0  0
 16 22  1  6  0  0  0
 16  7  1  0  0  0  0
 16  2  1  0  0  0  0
 17  7  1  6  0  0  0
 17 19  1  0  0  0  0
 18 16  1  0  0  0  0
 19 14  2  0  0  0  0
 20 11  1  0  0  0  0
 20  5  1  0  0  0  0
 21 22  2  0  0  0  0
 23 21  2  0  0  0  0
 24 23  1  0  0  0  0
 24 25  1  0  0  0  0
 26 24  2  0  0  0  0
 27 26  1  0  0  0  0
 27 29  2  0  0  0  0
 28 25  2  0  0  0  0
 29 28  1  0  0  0  0
 30 29  1  0  0  0  0
 33 32  1  6  0  0  0
 33 30  1  0  0  0  0
 33 31  1  0  0  0  0
 35 36  2  0  0  0  0
 36 34  1  0  0  0  0
 36 22  1  0  0  0  0
 38 37  1  0  0  0  0
 38  5  1  0  0  0  0
M  END
>  <MODEL>
4

>  <REMARK>
 VINA RESULT:      -6.7      4.440     10.207
  Name = 
  6 active torsions:
  status: ('A' for Active; 'I' for Inactive)
    1  A    between atoms: C_3  and  C_36
    2  A    between atoms: C_11  and  O_38
    3  A    between atoms: C_12  and  C_24
    4  A    between atoms: C_12  and  C_30
    5  A    between atoms: C_21  and  C_25
    6  A    between atoms: C_25  and  C_32
                            x       y       z     vdW  Elec       q    Type
                         _______ _______ _______ _____ _____    ______ ____

>  <TORSDO>
F 6

$$$$
=
 OpenBabel10232412263D

 38 42  0  0  1  0  0  0  0  0999 V2000
  190.4810  176.1070  143.0740 C   0  0  0  0  0  3  0  0  0  0  0  0
  187.2240  177.3590  137.7040 N   0  0  0  0  0  0  0  0  0  0  0  0
  190.8030  176.1930  141.8220 N   0  0  0  0  0  0  0  0  0  0  0  0
  189.6180  177.2110  143.4820 C   0  0  0  0  0  2  0  0  0  0  0  0
  191.9970  176.1720  136.1470 C   0  0  0  0  0  0  0  0  0  0  0  0
  189.4950  177.9700  142.4100 C   0  0  2  0  0  3  0  0  0  0  0  0
  188.9380  175.6450  137.9770 C   0  0  0  0  0  2  0  0  0  0  0  0
  188.4140  178.8690  142.2060 N   0  0  0  0  0  0  0  0  0  0  0  0
  187.1990  177.9200  138.8750 C   0  0  0  0  0  3  0  0  0  0  0  0
  191.7220  176.3160  137.4090 C   0  0  0  0  0  0  0  0  0  0  0  0
  190.0040  177.3170  135.1250 C   0  0  0  0  0  2  0  0  0  0  0  0
  191.3110  176.4990  138.6290 C   0  0  0  0  0  3  0  0  0  0  0  0
  190.2550  177.4220  141.2660 C   0  0  2  0  0  3  0  0  0  0  0  0
  188.2270  177.9690  139.9380 C   0  0  0  0  0  0  0  0  0  0  0  0
  187.8310  178.8880  141.0440 C   0  0  0  0  0  3  0  0  0  0  0  0
  188.2790  176.6400  137.0000 C   0  0  2  0  0  0  0  0  0  0  0  0
  189.8810  176.2390  139.0300 C   0  0  1  0  0  3  0  0  0  0  0  0
  189.2880  177.6750  136.4440 C   0  0  0  0  0  2  0  0  0  0  0  0
  189.3500  177.1980  140.0650 C   0  0  0  0  0  0  0  0  0  0  0  0
  190.8490  176.0410  135.1920 C   0  0  0  0  0  2  0  0  0  0  0  0
  187.9690  174.6870  135.4970 C   0  0  0  0  0  0  0  0  0  0  0  0
  187.5950  175.8970  135.8450 C   0  0  0  0  0  0  0  0  0  0  0  0
  188.3350  173.4800  135.1500 C   0  0  0  0  0  3  0  0  0  0  0  0
  187.3730  172.3830  134.9740 C   0  0  0  0  0  0  0  0  0  0  0  0
  185.9870  172.6070  134.9710 C   0  0  0  0  0  3  0  0  0  0  0  0
  187.8600  171.0800  134.8130 C   0  0  0  0  0  3  0  0  0  0  0  0
  186.9740  170.0110  134.6470 C   0  0  0  0  0  3  0  0  0  0  0  0
  185.1010  171.5390  134.8040 C   0  0  0  0  0  3  0  0  0  0  0  0
  185.5930  170.2380  134.6460 C   0  0  0  0  0  0  0  0  0  0  0  0
  184.6480  169.1020  134.4470 C   0  0  0  0  0  2  0  0  0  0  0  0
  183.9670  167.9480  136.4270 O   0  0  0  0  0  1  0  0  0  0  0  0
  182.2590  168.8110  135.0230 C   0  0  0  0  0  1  0  0  0  0  0  0
  183.6480  169.0180  135.5890 C   0  0  2  0  0  3  0  0  0  0  0  0
  185.3470  176.0500  135.0610 O   0  0  0  0  0  1  0  0  0  0  0  0
  186.7470  177.7060  134.3470 O   0  0  0  0  0  0  0  0  0  0  0  0
  186.5060  176.5440  135.0710 C   0  0  0  0  0  0  0  0  0  0  0  0
  194.3290  175.4310  136.4260 C   0  0  0  0  0  1  0  0  0  0  0  0
  193.3260  176.1490  135.7240 O   0  0  0  0  0  0  0  0  0  0  0  0
  1  4  1  0  0  0  0
  2  9  2  0  0  0  0
  3  1  2  0  0  0  0
  5 10  2  0  0  0  0
  6  4  1  6  0  0  0
  8  6  1  0  0  0  0
  9 14  1  0  0  0  0
 10 12  2  0  0  0  0
 11 20  1  0  0  0  0
 11 18  1  0  0  0  0
 12 17  1  0  0  0  0
 13 19  1  6  0  0  0
 13  3  1  0  0  0  0
 13  6  1  0  0  0  0
 14 19  2  0  0  0  0
 14 15  1  0  0  0  0
 15  8  2  0  0  0  0
 16 22  1  6  0  0  0
 16  2  1  0  0  0  0
 16  7  1  0  0  0  0
 17  7  1  6  0  0  0
 17 19  1  0  0  0  0
 18 16  1  0  0  0  0
 20  5  1  0  0  0  0
 21 22  2  0  0  0  0
 23 21  2  0  0  0  0
 24 23  1  0  0  0  0
 25 24  1  0  0  0  0
 26 24  2  0  0  0  0
 27 26  1  0  0  0  0
 28 25  2  0  0  0  0
 29 27  2  0  0  0  0
 29 28  1  0  0  0  0
 30 29  1  0  0  0  0
 30 33  1  0  0  0  0
 33 32  1  6  0  0  0
 33 31  1  0  0  0  0
 34 36  1  0  0  0  0
 35 36  2  0  0  0  0
 36 22  1  0  0  0  0
 38  5  1  0  0  0  0
 38 37  1  0  0  0  0
M  END
>  <MODEL>
5

>  <REMARK>
 VINA RESULT:      -6.5      5.101     10.606
  Name = 
  6 active torsions:
  status: ('A' for Active; 'I' for Inactive)
    1  A    between atoms: C_3  and  C_36
    2  A    between atoms: C_11  and  O_38
    3  A    between atoms: C_12  and  C_24
    4  A    between atoms: C_12  and  C_30
    5  A    between atoms: C_21  and  C_25
    6  A    between atoms: C_25  and  C_32
                            x       y       z     vdW  Elec       q    Type
                         _______ _______ _______ _____ _____    ______ ____

>  <TORSDO>
F 6

$$$$
=
 OpenBabel10232412263D

 38 42  0  0  1  0  0  0  0  0999 V2000
  187.5780  172.2130  136.0230 C   0  0  0  0  0  3  0  0  0  0  0  0
  185.5050  178.1650  137.1510 N   0  0  0  0  0  0  0  0  0  0  0  0
  186.4070  172.7580  136.1150 N   0  0  0  0  0  0  0  0  0  0  0  0
  188.4810  173.0180  135.2080 C   0  0  0  0  0  2  0  0  0  0  0  0
  181.2490  175.2550  136.9990 C   0  0  0  0  0  0  0  0  0  0  0  0
  187.7570  174.0390  134.7910 C   0  0  2  0  0  3  0  0  0  0  0  0
  184.5720  176.1170  138.0920 C   0  0  0  0  0  2  0  0  0  0  0  0
  188.3140  175.2760  134.3720 N   0  0  0  0  0  0  0  0  0  0  0  0
  186.4530  177.7170  136.3850 C   0  0  0  0  0  3  0  0  0  0  0  0
  182.4070  174.7620  136.6780 C   0  0  0  0  0  0  0  0  0  0  0  0
  181.7520  177.7140  136.8390 C   0  0  0  0  0  2  0  0  0  0  0  0
  183.6200  174.4040  136.3760 C   0  0  0  0  0  3  0  0  0  0  0  0
  186.3680  173.9600  135.2940 C   0  0  2  0  0  3  0  0  0  0  0  0
  186.6340  176.3860  135.7630 C   0  0  0  0  0  0  0  0  0  0  0  0
  187.7790  176.3780  134.8060 C   0  0  0  0  0  3  0  0  0  0  0  0
  184.2670  177.5530  137.6160 C   0  0  2  0  0  0  0  0  0  0  0  0
  184.8200  175.0700  137.0000 C   0  0  1  0  0  3  0  0  0  0  0  0
  183.2420  177.5830  136.4550 C   0  0  0  0  0  2  0  0  0  0  0  0
  185.9960  175.2160  136.0670 C   0  0  0  0  0  0  0  0  0  0  0  0
  181.2230  176.5730  137.7130 C   0  0  0  0  0  2  0  0  0  0  0  0
  183.4990  177.8930  139.9540 C   0  0  0  0  0  0  0  0  0  0  0  0
  183.7700  178.4180  138.7810 C   0  0  0  0  0  0  0  0  0  0  0  0
  183.2320  177.3740  141.1250 C   0  0  0  0  0  3  0  0  0  0  0  0
  183.7640  177.9320  142.3760 C   0  0  0  0  0  0  0  0  0  0  0  0
  182.9230  178.4760  143.3600 C   0  0  0  0  0  3  0  0  0  0  0  0
  185.1490  177.9260  142.5810 C   0  0  0  0  0  3  0  0  0  0  0  0
  185.6910  178.4520  143.7570 C   0  0  0  0  0  3  0  0  0  0  0  0
  183.4650  179.0030  144.5360 C   0  0  0  0  0  3  0  0  0  0  0  0
  184.8490  178.9950  144.7350 C   0  0  0  0  0  0  0  0  0  0  0  0
  185.4250  179.5370  145.9990 C   0  0  0  0  0  2  0  0  0  0  0  0
  185.9790  177.3110  146.6730 O   0  0  0  0  0  1  0  0  0  0  0  0
  186.9180  179.0950  147.9230 C   0  0  0  0  0  1  0  0  0  0  0  0
  186.4890  178.6050  146.5570 C   0  0  2  0  0  3  0  0  0  0  0  0
  184.4860  180.6940  138.8380 O   0  0  0  0  0  1  0  0  0  0  0  0
  182.3300  180.3620  138.1640 O   0  0  0  0  0  0  0  0  0  0  0  0
  183.5560  179.8760  138.6000 C   0  0  0  0  0  0  0  0  0  0  0  0
  180.1120  173.2400  136.1540 C   0  0  0  0  0  1  0  0  0  0  0  0
  180.0830  174.5610  136.6710 O   0  0  0  0  0  0  0  0  0  0  0  0
  1  3  2  0  0  0  0
  2 16  1  0  0  0  0
  4  1  1  0  0  0  0
  5 20  1  0  0  0  0
  6  4  1  1  0  0  0
  6 13  1  0  0  0  0
  8  6  1  0  0  0  0
  8 15  2  0  0  0  0
  9  2  2  0  0  0  0
 10  5  2  0  0  0  0
 11 20  1  0  0  0  0
 12 10  2  0  0  0  0
 13 19  1  1  0  0  0
 13  3  1  0  0  0  0
 14 19  2  0  0  0  0
 14  9  1  0  0  0  0
 15 14  1  0  0  0  0
 16  7  1  0  0  0  0
 16 22  1  1  0  0  0
 17 12  1  6  0  0  0
 17  7  1  0  0  0  0
 18 11  1  0  0  0  0
 18 16  1  0  0  0  0
 19 17  1  0  0  0  0
 21 23  2  0  0  0  0
 22 21  2  0  0  0  0
 23 24  1  0  0  0  0
 24 26  2  0  0  0  0
 24 25  1  0  0  0  0
 25 28  2  0  0  0  0
 26 27  1  0  0  0  0
 27 29  2  0  0  0  0
 28 29  1  0  0  0  0
 29 30  1  0  0  0  0
 30 33  1  0  0  0  0
 33 31  1  0  0  0  0
 33 32  1  1  0  0  0
 35 36  2  0  0  0  0
 36 22  1  0  0  0  0
 36 34  1  0  0  0  0
 37 38  1  0  0  0  0
 38  5  1  0  0  0  0
M  END
>  <MODEL>
6

>  <REMARK>
 VINA RESULT:      -5.9      2.622      4.403
  Name = 
  6 active torsions:
  status: ('A' for Active; 'I' for Inactive)
    1  A    between atoms: C_3  and  C_36
    2  A    between atoms: C_11  and  O_38
    3  A    between atoms: C_12  and  C_24
    4  A    between atoms: C_12  and  C_30
    5  A    between atoms: C_21  and  C_25
    6  A    between atoms: C_25  and  C_32
                            x       y       z     vdW  Elec       q    Type
                         _______ _______ _______ _____ _____    ______ ____

>  <TORSDO>
F 6

$$$$
=
 OpenBabel10232412263D

 38 42  0  0  1  0  0  0  0  0999 V2000
  197.1060  171.7370  137.1940 C   0  0  0  0  0  3  0  0  0  0  0  0
  193.2670  176.8370  136.6840 N   0  0  0  0  0  0  0  0  0  0  0  0
  195.8740  171.9070  136.8300 N   0  0  0  0  0  0  0  0  0  0  0  0
  197.9850  172.7310  136.5880 C   0  0  0  0  0  2  0  0  0  0  0  0
  190.2610  172.7730  135.6590 C   0  0  0  0  0  0  0  0  0  0  0  0
  197.2050  173.4600  135.8130 C   0  0  2  0  0  3  0  0  0  0  0  0
  192.6480  174.6590  137.5900 C   0  0  0  0  0  2  0  0  0  0  0  0
  197.5220  174.7820  135.4040 N   0  0  0  0  0  0  0  0  0  0  0  0
  194.5040  176.6540  136.3320 C   0  0  0  0  0  3  0  0  0  0  0  0
  191.5460  172.6360  135.7970 C   0  0  0  0  0  0  0  0  0  0  0  0
  190.1160  175.2560  135.2880 C   0  0  0  0  0  2  0  0  0  0  0  0
  192.8370  172.6450  135.9480 C   0  0  0  0  0  3  0  0  0  0  0  0
  195.8020  172.9930  135.8630 C   0  0  2  0  0  3  0  0  0  0  0  0
  195.2350  175.4090  136.0110 C   0  0  0  0  0  0  0  0  0  0  0  0
  196.5970  175.6930  135.4730 C   0  0  0  0  0  3  0  0  0  0  0  0
  192.1550  175.9060  136.8270 C   0  0  2  0  0  0  0  0  0  0  0  0
  193.5250  173.6770  136.8060 C   0  0  1  0  0  3  0  0  0  0  0  0
  191.6240  175.5610  135.4140 C   0  0  0  0  0  2  0  0  0  0  0  0
  194.8670  174.1190  136.2770 C   0  0  0  0  0  0  0  0  0  0  0  0
  189.6420  174.0590  136.1170 C   0  0  0  0  0  2  0  0  0  0  0  0
  190.1430  177.3490  137.0320 C   0  0  0  0  0  0  0  0  0  0  0  0
  191.0770  176.6450  137.6300 C   0  0  0  0  0  0  0  0  0  0  0  0
  189.2100  178.0490  136.4400 C   0  0  0  0  0  3  0  0  0  0  0  0
  187.7840  177.8910  136.7570 C   0  0  0  0  0  0  0  0  0  0  0  0
  187.2720  178.1850  138.0300 C   0  0  0  0  0  3  0  0  0  0  0  0
  186.9200  177.4250  135.7590 C   0  0  0  0  0  3  0  0  0  0  0  0
  185.5570  177.2580  136.0250 C   0  0  0  0  0  3  0  0  0  0  0  0
  185.9100  178.0180  138.2980 C   0  0  0  0  0  3  0  0  0  0  0  0
  185.0510  177.5520  137.2970 C   0  0  0  0  0  0  0  0  0  0  0  0
  183.5950  177.3950  137.5750 C   0  0  0  0  0  2  0  0  0  0  0  0
  182.7940  175.8430  139.2090 O   0  0  0  0  0  1  0  0  0  0  0  0
  182.3920  178.1490  139.6030 C   0  0  0  0  0  1  0  0  0  0  0  0
  183.3490  177.1140  139.0490 C   0  0  2  0  0  3  0  0  0  0  0  0
  190.1090  176.0960  139.7420 O   0  0  0  0  0  0  0  0  0  0  0  0
  192.1510  177.1130  139.8350 O   0  0  0  0  0  1  0  0  0  0  0  0
  191.0790  176.6010  139.1140 C   0  0  0  0  0  0  0  0  0  0  0  0
  188.1910  171.4440  135.5310 C   0  0  0  0  0  1  0  0  0  0  0  0
  189.5090  171.7420  135.0950 O   0  0  0  0  0  0  0  0  0  0  0  0
  2 16  1  0  0  0  0
  3  1  2  0  0  0  0
  4  1  1  0  0  0  0
  5 10  2  0  0  0  0
  5 20  1  0  0  0  0
  6 13  1  0  0  0  0
  6  4  1  1  0  0  0
  8 15  2  0  0  0  0
  8  6  1  0  0  0  0
  9  2  2  0  0  0  0
 10 12  2  0  0  0  0
 11 18  1  0  0  0  0
 11 20  1  0  0  0  0
 13 19  1  1  0  0  0
 13  3  1  0  0  0  0
 14 19  2  0  0  0  0
 14  9  1  0  0  0  0
 15 14  1  0  0  0  0
 16  7  1  0  0  0  0
 16 22  1  1  0  0  0
 17 12  1  6  0  0  0
 17  7  1  0  0  0  0
 18 16  1  0  0  0  0
 19 17  1  0  0  0  0
 21 22  2  0  0  0  0
 22 36  1  0  0  0  0
 23 24  1  0  0  0  0
 23 21  2  0  0  0  0
 24 25  1  0  0  0  0
 25 28  2  0  0  0  0
 26 27  1  0  0  0  0
 26 24  2  0  0  0  0
 27 29  2  0  0  0  0
 29 30  1  0  0  0  0
 29 28  1  0  0  0  0
 30 33  1  0  0  0  0
 33 31  1  0  0  0  0
 33 32  1  6  0  0  0
 36 34  2  0  0  0  0
 36 35  1  0  0  0  0
 38 37  1  0  0  0  0
 38  5  1  0  0  0  0
M  END
>  <MODEL>
7

>  <REMARK>
 VINA RESULT:      -5.7      7.395     10.990
  Name = 
  6 active torsions:
  status: ('A' for Active; 'I' for Inactive)
    1  A    between atoms: C_3  and  C_36
    2  A    between atoms: C_11  and  O_38
    3  A    between atoms: C_12  and  C_24
    4  A    between atoms: C_12  and  C_30
    5  A    between atoms: C_21  and  C_25
    6  A    between atoms: C_25  and  C_32
                            x       y       z     vdW  Elec       q    Type
                         _______ _______ _______ _____ _____    ______ ____

>  <TORSDO>
F 6

$$$$
=
 OpenBabel10232412263D

 38 42  0  0  1  0  0  0  0  0999 V2000
  180.9750  179.3990  136.8030 C   0  0  0  0  0  3  0  0  0  0  0  0
  187.0080  177.9510  138.3880 N   0  0  0  0  0  0  0  0  0  0  0  0
  181.7490  178.3860  136.5760 N   0  0  0  0  0  0  0  0  0  0  0  0
  181.0410  179.8220  138.1970 C   0  0  0  0  0  2  0  0  0  0  0  0
  185.4740  174.1380  135.2700 C   0  0  0  0  0  0  0  0  0  0  0  0
  181.8610  178.9690  138.7810 C   0  0  2  0  0  3  0  0  0  0  0  0
  185.9660  177.5800  136.2140 C   0  0  0  0  0  2  0  0  0  0  0  0
  182.5660  179.2540  139.9800 N   0  0  0  0  0  0  0  0  0  0  0  0
  186.0350  178.4590  139.0830 C   0  0  0  0  0  3  0  0  0  0  0  0
  184.6350  175.0350  135.6920 C   0  0  0  0  0  0  0  0  0  0  0  0
  187.3440  174.4710  136.9190 C   0  0  0  0  0  2  0  0  0  0  0  0
  183.9050  175.9870  136.1930 C   0  0  0  0  0  3  0  0  0  0  0  0
  182.3640  177.9590  137.8240 C   0  0  2  0  0  3  0  0  0  0  0  0
  184.5700  178.3640  138.8950 C   0  0  0  0  0  0  0  0  0  0  0  0
  183.8290  178.9520  140.0480 C   0  0  0  0  0  3  0  0  0  0  0  0
  187.0080  177.0670  137.2290 C   0  0  2  0  0  0  0  0  0  0  0  0
  184.4930  177.3270  136.5550 C   0  0  1  0  0  3  0  0  0  0  0  0
  186.7010  175.6280  137.7120 C   0  0  0  0  0  2  0  0  0  0  0  0
  183.8840  177.9530  137.7850 C   0  0  0  0  0  0  0  0  0  0  0  0
  186.9380  174.4140  135.4440 C   0  0  0  0  0  2  0  0  0  0  0  0
  189.4860  177.0060  137.3970 C   0  0  0  0  0  0  0  0  0  0  0  0
  188.4220  177.1340  136.6380 C   0  0  0  0  0  0  0  0  0  0  0  0
  190.5480  176.8750  138.1500 C   0  0  0  0  0  3  0  0  0  0  0  0
  191.6390  175.9490  137.8200 C   0  0  0  0  0  0  0  0  0  0  0  0
  191.3990  174.7080  137.2100 C   0  0  0  0  0  3  0  0  0  0  0  0
  192.9530  176.3170  138.1350 C   0  0  0  0  0  3  0  0  0  0  0  0
  194.0170  175.4590  137.8400 C   0  0  0  0  0  3  0  0  0  0  0  0
  192.4620  173.8490  136.9150 C   0  0  0  0  0  3  0  0  0  0  0  0
  193.7720  174.2220  137.2330 C   0  0  0  0  0  0  0  0  0  0  0  0
  194.9080  173.3160  136.8990 C   0  0  0  0  0  2  0  0  0  0  0  0
  196.3120  173.1570  138.8280 O   0  0  0  0  0  1  0  0  0  0  0  0
  195.8570  171.1540  137.6400 C   0  0  0  0  0  1  0  0  0  0  0  0
  195.3200  172.4890  138.1070 C   0  0  2  0  0  3  0  0  0  0  0  0
  187.8230  178.1060  134.5420 O   0  0  0  0  0  1  0  0  0  0  0  0
  189.6930  176.7970  134.5150 O   0  0  0  0  0  0  0  0  0  0  0  0
  188.6220  177.3740  135.1860 C   0  0  0  0  0  0  0  0  0  0  0  0
  183.6940  172.4680  134.9380 C   0  0  0  0  0  1  0  0  0  0  0  0
  185.0010  172.9630  134.6850 O   0  0  0  0  0  0  0  0  0  0  0  0
  1  4  1  0  0  0  0
  2  9  2  0  0  0  0
  3  1  2  0  0  0  0
  5 20  1  0  0  0  0
  5 10  2  0  0  0  0
  6  4  1  6  0  0  0
  6  8  1  0  0  0  0
  7 17  1  0  0  0  0
  7 16  1  0  0  0  0
  8 15  2  0  0  0  0
 10 12  2  0  0  0  0
 11 18  1  0  0  0  0
 13  3  1  6  0  0  0
 13  6  1  0  0  0  0
 14  9  1  0  0  0  0
 14 15  1  0  0  0  0
 16 22  1  6  0  0  0
 16 18  1  0  0  0  0
 16  2  1  0  0  0  0
 17 12  1  1  0  0  0
 17 19  1  0  0  0  0
 19 13  1  0  0  0  0
 19 14  2  0  0  0  0
 20 11  1  0  0  0  0
 21 23  2  0  0  0  0
 22 21  2  0  0  0  0
 24 26  1  0  0  0  0
 24 23  1  0  0  0  0
 25 24  2  0  0  0  0
 27 26  2  0  0  0  0
 28 25  1  0  0  0  0
 28 29  2  0  0  0  0
 29 27  1  0  0  0  0
 30 29  1  0  0  0  0
 30 33  1  0  0  0  0
 33 32  1  6  0  0  0
 33 31  1  0  0  0  0
 34 36  1  0  0  0  0
 35 36  2  0  0  0  0
 36 22  1  0  0  0  0
 38 37  1  0  0  0  0
 38  5  1  0  0  0  0
M  END
>  <MODEL>
8

>  <REMARK>
 VINA RESULT:      -5.7      5.191      7.845
  Name = 
  6 active torsions:
  status: ('A' for Active; 'I' for Inactive)
    1  A    between atoms: C_3  and  C_36
    2  A    between atoms: C_11  and  O_38
    3  A    between atoms: C_12  and  C_24
    4  A    between atoms: C_12  and  C_30
    5  A    between atoms: C_21  and  C_25
    6  A    between atoms: C_25  and  C_32
                            x       y       z     vdW  Elec       q    Type
                         _______ _______ _______ _____ _____    ______ ____

>  <TORSDO>
F 6

$$$$
=
 OpenBabel10232412263D

 38 42  0  0  1  0  0  0  0  0999 V2000
  186.5170  177.1520  145.5540 C   0  0  0  0  0  3  0  0  0  0  0  0
  182.1080  178.5070  141.1120 N   0  0  0  0  0  0  0  0  0  0  0  0
  186.5700  177.5090  144.3100 N   0  0  0  0  0  0  0  0  0  0  0  0
  185.5570  177.9570  146.3020 C   0  0  0  0  0  2  0  0  0  0  0  0
  186.6260  178.6710  138.6290 C   0  0  0  0  0  0  0  0  0  0  0  0
  185.0880  178.8340  145.4350 C   0  0  2  0  0  3  0  0  0  0  0  0
  184.1340  177.1930  140.7700 C   0  0  0  0  0  2  0  0  0  0  0  0
  183.8390  179.4920  145.5840 N   0  0  0  0  0  0  0  0  0  0  0  0
  182.2040  178.8520  142.3610 C   0  0  0  0  0  3  0  0  0  0  0  0
  186.5780  178.5450  139.9210 C   0  0  0  0  0  0  0  0  0  0  0  0
  184.2940  179.4980  138.1760 C   0  0  0  0  0  2  0  0  0  0  0  0
  186.3840  178.4320  141.2020 C   0  0  0  0  0  3  0  0  0  0  0  0
  185.7030  178.6600  144.1010 C   0  0  2  0  0  3  0  0  0  0  0  0
  183.3900  178.9530  143.2400 C   0  0  0  0  0  0  0  0  0  0  0  0
  183.0490  179.5700  144.5540 C   0  0  0  0  0  3  0  0  0  0  0  0
  183.1230  178.1630  140.1240 C   0  0  2  0  0  0  0  0  0  0  0  0
  185.1340  177.8020  141.7600 C   0  0  1  0  0  3  0  0  0  0  0  0
  183.7910  179.4710  139.6350 C   0  0  0  0  0  2  0  0  0  0  0  0
  184.6410  178.4400  143.0350 C   0  0  0  0  0  0  0  0  0  0  0  0
  185.3610  178.4470  137.8570 C   0  0  0  0  0  2  0  0  0  0  0  0
  182.9540  176.5450  138.2460 C   0  0  0  0  0  0  0  0  0  0  0  0
  182.3820  177.4840  138.9650 C   0  0  0  0  0  0  0  0  0  0  0  0
  183.5190  175.6070  137.5310 C   0  0  0  0  0  3  0  0  0  0  0  0
  182.8630  174.3210  137.2570 C   0  0  0  0  0  0  0  0  0  0  0  0
  183.5870  173.1200  137.1920 C   0  0  0  0  0  3  0  0  0  0  0  0
  181.4790  174.3020  137.0460 C   0  0  0  0  0  3  0  0  0  0  0  0
  180.8220  173.0970  136.7780 C   0  0  0  0  0  3  0  0  0  0  0  0
  182.9310  171.9150  136.9250 C   0  0  0  0  0  3  0  0  0  0  0  0
  181.5480  171.9020  136.7140 C   0  0  0  0  0  0  0  0  0  0  0  0
  180.8450  170.6140  136.4500 C   0  0  0  0  0  2  0  0  0  0  0  0
  179.9820  169.8750  134.3460 O   0  0  0  0  0  1  0  0  0  0  0  0
  181.9270  168.7930  135.1690 C   0  0  0  0  0  1  0  0  0  0  0  0
  181.1630  170.0950  135.0560 C   0  0  2  0  0  3  0  0  0  0  0  0
  180.0180  177.1600  138.9020 O   0  0  0  0  0  1  0  0  0  0  0  0
  180.7670  179.0960  137.9510 O   0  0  0  0  0  0  0  0  0  0  0  0
  181.0000  177.8950  138.6100 C   0  0  0  0  0  0  0  0  0  0  0  0
  189.0880  178.7400  138.6040 C   0  0  0  0  0  1  0  0  0  0  0  0
  187.8290  179.0120  138.0080 O   0  0  0  0  0  0  0  0  0  0  0  0
  1  4  1  0  0  0  0
  2  9  2  0  0  0  0
  3  1  2  0  0  0  0
  5 10  2  0  0  0  0
  6  8  1  0  0  0  0
  6  4  1  6  0  0  0
  9 14  1  0  0  0  0
 10 12  2  0  0  0  0
 11 18  1  0  0  0  0
 12 17  1  0  0  0  0
 13 19  1  6  0  0  0
 13  3  1  0  0  0  0
 13  6  1  0  0  0  0
 14 15  1  0  0  0  0
 15  8  2  0  0  0  0
 16 22  1  6  0  0  0
 16  7  1  0  0  0  0
 16  2  1  0  0  0  0
 17  7  1  6  0  0  0
 17 19  1  0  0  0  0
 18 16  1  0  0  0  0
 19 14  2  0  0  0  0
 20 11  1  0  0  0  0
 20  5  1  0  0  0  0
 21 22  2  0  0  0  0
 23 21  2  0  0  0  0
 24 23  1  0  0  0  0
 25 24  1  0  0  0  0
 26 24  2  0  0  0  0
 27 26  1  0  0  0  0
 28 25  2  0  0  0  0
 29 27  2  0  0  0  0
 29 28  1  0  0  0  0
 30 29  1  0  0  0  0
 31 33  1  0  0  0  0
 33 32  1  1  0  0  0
 33 30  1  0  0  0  0
 35 36  2  0  0  0  0
 36 34  1  0  0  0  0
 36 22  1  0  0  0  0
 38 37  1  0  0  0  0
 38  5  1  0  0  0  0
M  END
>  <MODEL>
9

>  <REMARK>
 VINA RESULT:      -5.5      3.123      9.149
  Name = 
  6 active torsions:
  status: ('A' for Active; 'I' for Inactive)
    1  A    between atoms: C_3  and  C_36
    2  A    between atoms: C_11  and  O_38
    3  A    between atoms: C_12  and  C_24
    4  A    between atoms: C_12  and  C_30
    5  A    between atoms: C_21  and  C_25
    6  A    between atoms: C_25  and  C_32
                            x       y       z     vdW  Elec       q    Type
                         _______ _______ _______ _____ _____    ______ ____

>  <TORSDO>
F 6

$$$$
