=
 OpenBabel10232409403D

 58 66  0  0  1  0  0  0  0  0999 V2000
  188.8100  177.1350  139.2330 C   0  0  1  0  0  3  0  0  0  0  0  0
  190.8960  178.0790  139.9310 O   0  0  0  0  0  0  0  0  0  0  0  0
  192.1400  177.6370  140.4800 C   0  0  0  0  0  2  0  0  0  0  0  0
  190.8400  177.3110  142.5370 C   0  0  0  0  0  3  0  0  0  0  0  0
  189.5420  177.4740  141.7080 C   0  0  1  0  0  3  0  0  0  0  0  0
  192.0400  177.4420  141.9500 C   0  0  0  0  0  3  0  0  0  0  0  0
  189.9250  177.1320  140.2560 C   0  0  1  0  0  3  0  0  0  0  0  0
  188.3290  176.8030  142.2290 O   0  0  0  0  0  0  0  0  0  0  0  0
  188.5990  177.3230  145.3210 C   0  0  0  0  0  0  0  0  0  0  0  0
  187.3690  177.4780  143.0250 C   0  0  0  0  0  0  0  0  0  0  0  0
  185.1790  178.5500  143.0910 C   0  0  0  0  0  3  0  0  0  0  0  0
  187.4770  177.6590  144.4890 C   0  0  0  0  0  0  0  0  0  0  0  0
  189.7070  177.0070  147.4100 C   0  0  0  0  0  2  0  0  0  0  0  0
  186.2970  178.3260  146.5400 C   0  0  0  0  0  3  0  0  0  0  0  0
  186.2390  177.9770  142.4110 C   0  0  0  0  0  3  0  0  0  0  0  0
  191.8020  177.1170  146.4610 O   0  0  0  0  0  1  0  0  0  0  0  0
  187.3590  177.9420  147.3310 C   0  0  0  0  0  3  0  0  0  0  0  0
  188.4920  177.4490  146.6940 C   0  0  0  0  0  0  0  0  0  0  0  0
  189.9490  176.8380  144.9730 C   0  0  0  0  0  2  0  0  0  0  0  0
  186.3530  178.2050  145.1530 C   0  0  0  0  0  0  0  0  0  0  0  0
  190.6140  176.4940  146.3270 C   0  0  2  0  0  3  0  0  0  0  0  0
  185.2150  178.6410  144.4710 C   0  0  0  0  0  3  0  0  0  0  0  0
  188.5180  175.7970  138.6160 C   0  0  0  0  0  2  0  0  0  0  0  0
  189.0720  175.6310  137.2670 N   0  0  0  0  0  0  0  0  0  0  0  0
  187.5240  174.2740  136.2250 C   0  0  0  0  0  0  0  0  0  0  0  0
  188.0480  175.5760  136.2290 C   0  0  2  0  0  3  0  0  0  0  0  0
  188.4030  174.8550  135.1410 O   0  0  0  0  0  0  0  0  0  0  0  0
  186.8990  173.3430  136.8250 O   0  0  0  0  0  0  0  0  0  0  0  0
  191.4070  175.2540  137.8060 C   0  0  0  0  0  2  0  0  0  0  0  0
  191.5500  174.9160  136.3690 C   0  0  2  0  0  3  0  0  0  0  0  0
  190.2450  174.5720  137.1910 C   0  0  2  0  0  3  0  0  0  0  0  0
  192.7360  173.8960  136.5240 C   0  0  1  0  0  3  0  0  0  0  0  0
  194.8210  171.7220  136.8090 C   0  0  1  0  0  3  0  0  0  0  0  0
  192.7150  172.6810  135.7930 O   0  0  0  0  0  0  0  0  0  0  0  0
  195.0710  174.9490  138.3510 O   0  0  0  0  0  0  0  0  0  0  0  0
  195.2430  168.1740  138.1990 C   0  0  0  0  0  1  0  0  0  0  0  0
  195.4430  170.4780  137.4450 C   0  0  0  0  0  3  0  0  0  0  0  0
  193.3070  170.2040  135.6030 C   0  0  2  0  0  3  0  0  0  0  0  0
  193.5350  169.2290  136.6790 O   0  0  0  0  0  0  0  0  0  0  0  0
  193.6830  171.6440  136.1120 C   0  0  2  0  0  3  0  0  0  0  0  0
  193.9100  174.5410  136.4260 O   0  0  0  0  0  0  0  0  0  0  0  0
  196.8960  172.8790  137.7130 C   0  0  0  0  0  1  0  0  0  0  0  0
  194.8900  174.1850  137.3240 C   0  0  0  0  0  0  0  0  0  0  0  0
  195.5140  172.9540  137.2290 N   0  0  0  0  0  0  0  0  0  0  0  0
  194.7130  169.3630  137.4010 C   0  0  0  0  0  0  0  0  0  0  0  0
  192.0090  170.0170  134.9210 C   0  0  0  0  0  2  0  0  0  0  0  0
  191.5390  168.7080  135.0770 O   0  0  0  0  0  1  0  0  0  0  0  0
  187.7220  178.1990  139.4900 C   0  0  0  0  0  2  0  0  0  0  0  0
  186.9170  178.5700  138.3310 N   0  0  0  0  0  2  0  0  0  0  0  0
  185.5000  178.2680  138.5480 C   0  0  0  0  0  2  0  0  0  0  0  0
  184.9400  179.3430  139.5150 C   0  0  1  0  0  3  0  0  0  0  0  0
  183.9980  180.1840  139.0070 O   0  0  0  0  0  0  0  0  0  0  0  0
  183.6020  179.1440  139.8680 N   0  0  0  0  0  0  0  0  0  0  0  0
  182.5400  178.4620  139.0610 C   0  0  0  0  0  2  0  0  0  0  0  0
  182.1190  177.1900  139.6370 C   0  0  0  0  0  2  0  0  0  0  0  0
  181.0110  176.4990  138.8400 C   0  0  0  0  0  2  0  0  0  0  0  0
  180.0020  175.0400  140.1630 C   0  0  0  0  0  1  0  0  0  0  0  0
  180.9280  175.1320  139.1370 O   0  0  0  0  0  0  0  0  0  0  0  0
  1 23  1  1  0  0  0
  1 48  1  0  0  0  0
  2  7  1  0  0  0  0
  2  3  1  0  0  0  0
  3  6  1  0  0  0  0
  5  8  1  1  0  0  0
  5  4  1  0  0  0  0
  6  4  2  0  0  0  0
  7  1  1  6  0  0  0
  7  5  1  0  0  0  0
  8 10  1  0  0  0  0
  9 18  1  0  0  0  0
 10 12  1  0  0  0  0
 11 22  2  0  0  0  0
 12 20  1  0  0  0  0
 12  9  2  0  0  0  0
 14 17  1  0  0  0  0
 15 10  2  0  0  0  0
 15 11  1  0  0  0  0
 18 17  2  0  0  0  0
 18 13  1  0  0  0  0
 19  9  1  0  0  0  0
 19 21  1  0  0  0  0
 20 14  2  0  0  0  0
 21 16  1  6  0  0  0
 21 13  1  0  0  0  0
 22 20  1  0  0  0  0
 24 23  1  0  0  0  0
 25 26  1  0  0  0  0
 25 28  2  0  0  0  0
 26 24  1  1  0  0  0
 27 25  1  0  0  0  0
 27 26  1  0  0  0  0
 30 32  1  0  0  0  0
 30 31  1  0  0  0  0
 30 29  1  1  0  0  0
 31 24  1  6  0  0  0
 31 29  1  0  0  0  0
 32 34  1  6  0  0  0
 33 44  1  0  0  0  0
 33 37  1  1  0  0  0
 38 46  1  1  0  0  0
 38 40  1  0  0  0  0
 38 39  1  0  0  0  0
 39 45  1  0  0  0  0
 40 34  1  1  0  0  0
 40 33  1  0  0  0  0
 41 32  1  0  0  0  0
 41 43  1  0  0  0  0
 43 35  2  0  0  0  0
 44 43  1  0  0  0  0
 44 42  1  0  0  0  0
 45 37  2  0  0  0  0
 45 36  1  0  0  0  0
 46 47  1  0  0  0  0
 49 50  1  0  0  0  0
 49 48  1  0  0  0  0
 51 50  1  6  0  0  0
 51 53  1  0  0  0  0
 52 51  1  0  0  0  0
 52 53  1  0  0  0  0
 54 55  1  0  0  0  0
 54 53  1  0  0  0  0
 56 58  1  0  0  0  0
 56 55  1  0  0  0  0
 58 57  1  0  0  0  0
M  END
>  <MODEL>
1

>  <REMARK>
 VINA RESULT:      -8.5      0.000      0.000
  Name = 
  17 active torsions:
  status: ('A' for Active; 'I' for Inactive)
    1  A    between atoms: C_2  and  C_26
    2  A    between atoms: C_3  and  O_14
    3  A    between atoms: C_5  and  C_29
    4  A    between atoms: C_10  and  N_44
    5  A    between atoms: C_13  and  C_49
    6  A    between atoms: O_14  and  C_38
    7  A    between atoms: C_22  and  C_30
    8  A    between atoms: C_22  and  O_45
    9  A    between atoms: C_30  and  C_31
   10  A    between atoms: C_31  and  N_48
   11  A    between atoms: N_32  and  C_36
   12  A    between atoms: N_32  and  C_49
   13  A    between atoms: C_36  and  C_53
   14  A    between atoms: N_44  and  C_51
   15  A    between atoms: N_44  and  C_52
   16  A    between atoms: C_52  and  C_53
   17  A    between atoms: C_53  and  C_58
                            x       y       z     vdW  Elec       q    Type
                         _______ _______ _______ _____ _____    ______ ____

>  <TORSDO>
F 17

$$$$
=
 OpenBabel10232409403D

 58 66  0  0  1  0  0  0  0  0999 V2000
  189.2170  177.0260  139.1680 C   0  0  1  0  0  3  0  0  0  0  0  0
  191.1510  177.9920  140.1970 O   0  0  0  0  0  0  0  0  0  0  0  0
  192.2190  177.5880  141.0580 C   0  0  0  0  0  2  0  0  0  0  0  0
  190.4860  177.5640  142.7970 C   0  0  0  0  0  3  0  0  0  0  0  0
  189.4100  177.6570  141.6860 C   0  0  1  0  0  3  0  0  0  0  0  0
  191.7900  177.5860  142.4810 C   0  0  0  0  0  3  0  0  0  0  0  0
  190.0810  177.1220  140.4060 C   0  0  1  0  0  3  0  0  0  0  0  0
  188.0780  177.0930  141.9990 O   0  0  0  0  0  0  0  0  0  0  0  0
  187.5540  177.6900  145.0440 C   0  0  0  0  0  0  0  0  0  0  0  0
  187.0140  177.8860  142.4980 C   0  0  0  0  0  0  0  0  0  0  0  0
  185.0120  179.1700  141.9590 C   0  0  0  0  0  3  0  0  0  0  0  0
  186.7410  178.1060  143.9350 C   0  0  0  0  0  0  0  0  0  0  0  0
  188.0160  177.3370  147.3580 C   0  0  0  0  0  2  0  0  0  0  0  0
  185.1260  178.9550  145.5830 C   0  0  0  0  0  3  0  0  0  0  0  0
  186.1510  178.4720  141.5960 C   0  0  0  0  0  3  0  0  0  0  0  0
  190.2890  177.2080  147.0150 O   0  0  0  0  0  1  0  0  0  0  0  0
  185.8880  178.4960  146.6360 C   0  0  0  0  0  3  0  0  0  0  0  0
  187.0930  177.8720  146.3350 C   0  0  0  0  0  0  0  0  0  0  0  0
  188.8900  177.0620  145.0800 C   0  0  0  0  0  2  0  0  0  0  0  0
  185.5420  178.7820  144.2650 C   0  0  0  0  0  0  0  0  0  0  0  0
  189.1240  176.7010  146.5660 C   0  0  2  0  0  3  0  0  0  0  0  0
  184.6830  179.3050  143.2960 C   0  0  0  0  0  3  0  0  0  0  0  0
  189.0970  175.6450  138.5890 C   0  0  0  0  0  2  0  0  0  0  0  0
  189.3340  175.5850  137.1420 N   0  0  0  0  0  0  0  0  0  0  0  0
  188.2760  173.6440  136.4810 C   0  0  0  0  0  0  0  0  0  0  0  0
  188.2020  175.0420  136.3980 C   0  0  2  0  0  3  0  0  0  0  0  0
  188.5410  174.4500  135.2300 O   0  0  0  0  0  0  0  0  0  0  0  0
  188.2570  172.5860  137.1870 O   0  0  0  0  0  0  0  0  0  0  0  0
  191.6550  176.2440  136.8970 C   0  0  0  0  0  2  0  0  0  0  0  0
  191.5310  175.6960  135.5240 C   0  0  2  0  0  3  0  0  0  0  0  0
  190.7770  175.0610  136.7580 C   0  0  2  0  0  3  0  0  0  0  0  0
  193.0320  175.2600  135.3510 C   0  0  1  0  0  3  0  0  0  0  0  0
  195.8410  174.1590  135.1140 C   0  0  1  0  0  3  0  0  0  0  0  0
  193.3320  173.9580  134.8770 O   0  0  0  0  0  0  0  0  0  0  0  0
  195.0890  177.5680  135.9350 O   0  0  0  0  0  0  0  0  0  0  0  0
  198.1690  171.5830  136.7380 C   0  0  0  0  0  1  0  0  0  0  0  0
  197.1030  173.4680  135.6320 C   0  0  0  0  0  3  0  0  0  0  0  0
  194.8680  171.9170  134.8410 C   0  0  2  0  0  3  0  0  0  0  0  0
  195.8070  171.4560  135.8730 O   0  0  0  0  0  0  0  0  0  0  0  0
  194.7040  173.4780  134.9410 C   0  0  2  0  0  3  0  0  0  0  0  0
  193.7160  176.2190  134.7040 O   0  0  0  0  0  0  0  0  0  0  0  0
  197.3590  176.1920  134.9470 C   0  0  0  0  0  1  0  0  0  0  0  0
  194.9680  176.5190  135.1870 C   0  0  0  0  0  0  0  0  0  0  0  0
  196.0100  175.6230  135.0400 N   0  0  0  0  0  0  0  0  0  0  0  0
  196.9610  172.2080  136.0450 C   0  0  0  0  0  0  0  0  0  0  0  0
  193.6470  171.0870  134.7600 C   0  0  0  0  0  2  0  0  0  0  0  0
  193.0680  170.9150  136.0230 O   0  0  0  0  0  1  0  0  0  0  0  0
  188.0760  178.0640  139.1140 C   0  0  0  0  0  2  0  0  0  0  0  0
  186.7930  177.5650  138.6280 N   0  0  0  0  0  2  0  0  0  0  0  0
  186.3350  178.3220  137.4600 C   0  0  0  0  0  2  0  0  0  0  0  0
  185.5060  177.3550  136.5770 C   0  0  1  0  0  3  0  0  0  0  0  0
  184.9550  176.2810  137.2050 O   0  0  0  0  0  0  0  0  0  0  0  0
  184.1360  177.3690  136.8550 N   0  0  0  0  0  0  0  0  0  0  0  0
  183.4760  177.6920  138.1600 C   0  0  0  0  0  2  0  0  0  0  0  0
  182.4640  178.7360  138.0400 C   0  0  0  0  0  2  0  0  0  0  0  0
  182.3710  179.6360  139.2730 C   0  0  0  0  0  2  0  0  0  0  0  0
  180.6370  179.6650  140.6480 C   0  0  0  0  0  1  0  0  0  0  0  0
  181.8010  178.9690  140.3660 O   0  0  0  0  0  0  0  0  0  0  0  0
  1 23  1  1  0  0  0
  2  7  1  0  0  0  0
  2  3  1  0  0  0  0
  3  6  1  0  0  0  0
  5  8  1  1  0  0  0
  5  4  1  0  0  0  0
  6  4  2  0  0  0  0
  7  1  1  6  0  0  0
  7  5  1  0  0  0  0
  8 10  1  0  0  0  0
  9 19  1  0  0  0  0
  9 18  1  0  0  0  0
 10 12  1  0  0  0  0
 11 22  2  0  0  0  0
 12 20  1  0  0  0  0
 12  9  2  0  0  0  0
 14 17  1  0  0  0  0
 15 11  1  0  0  0  0
 15 10  2  0  0  0  0
 18 17  2  0  0  0  0
 18 13  1  0  0  0  0
 19 21  1  0  0  0  0
 20 14  2  0  0  0  0
 21 16  1  1  0  0  0
 21 13  1  0  0  0  0
 22 20  1  0  0  0  0
 24 23  1  0  0  0  0
 25 28  2  0  0  0  0
 26 25  1  0  0  0  0
 26 24  1  1  0  0  0
 27 26  1  0  0  0  0
 27 25  1  0  0  0  0
 30 31  1  0  0  0  0
 30 29  1  1  0  0  0
 31 29  1  0  0  0  0
 31 24  1  6  0  0  0
 32 41  1  6  0  0  0
 32 30  1  0  0  0  0
 33 37  1  1  0  0  0
 34 32  1  0  0  0  0
 37 45  2  0  0  0  0
 38 46  1  1  0  0  0
 38 40  1  0  0  0  0
 38 39  1  0  0  0  0
 39 45  1  0  0  0  0
 40 34  1  1  0  0  0
 40 33  1  0  0  0  0
 41 43  1  0  0  0  0
 42 44  1  0  0  0  0
 43 35  2  0  0  0  0
 44 33  1  0  0  0  0
 44 43  1  0  0  0  0
 45 36  1  0  0  0  0
 46 47  1  0  0  0  0
 48  1  1  0  0  0  0
 49 48  1  0  0  0  0
 50 49  1  0  0  0  0
 51 53  1  0  0  0  0
 51 52  1  0  0  0  0
 51 50  1  1  0  0  0
 53 52  1  0  0  0  0
 53 54  1  0  0  0  0
 55 54  1  0  0  0  0
 55 56  1  0  0  0  0
 56 58  1  0  0  0  0
 58 57  1  0  0  0  0
M  END
>  <MODEL>
2

>  <REMARK>
 VINA RESULT:      -7.7      1.909      2.293
  Name = 
  17 active torsions:
  status: ('A' for Active; 'I' for Inactive)
    1  A    between atoms: C_2  and  C_26
    2  A    between atoms: C_3  and  O_14
    3  A    between atoms: C_5  and  C_29
    4  A    between atoms: C_10  and  N_44
    5  A    between atoms: C_13  and  C_49
    6  A    between atoms: O_14  and  C_38
    7  A    between atoms: C_22  and  C_30
    8  A    between atoms: C_22  and  O_45
    9  A    between atoms: C_30  and  C_31
   10  A    between atoms: C_31  and  N_48
   11  A    between atoms: N_32  and  C_36
   12  A    between atoms: N_32  and  C_49
   13  A    between atoms: C_36  and  C_53
   14  A    between atoms: N_44  and  C_51
   15  A    between atoms: N_44  and  C_52
   16  A    between atoms: C_52  and  C_53
   17  A    between atoms: C_53  and  C_58
                            x       y       z     vdW  Elec       q    Type
                         _______ _______ _______ _____ _____    ______ ____

>  <TORSDO>
F 17

$$$$
=
 OpenBabel10232409403D

 58 66  0  0  1  0  0  0  0  0999 V2000
  186.0010  177.4740  137.9590 C   0  0  1  0  0  3  0  0  0  0  0  0
  186.8280  178.7010  136.0760 O   0  0  0  0  0  0  0  0  0  0  0  0
  186.9740  178.5240  134.6650 C   0  0  0  0  0  2  0  0  0  0  0  0
  188.7750  176.9760  135.2890 C   0  0  0  0  0  3  0  0  0  0  0  0
  188.2590  177.0100  136.7490 C   0  0  1  0  0  3  0  0  0  0  0  0
  188.1900  177.7310  134.3460 C   0  0  0  0  0  3  0  0  0  0  0  0
  186.7820  177.4360  136.6630 C   0  0  1  0  0  3  0  0  0  0  0  0
  188.5390  175.8200  137.5830 O   0  0  0  0  0  0  0  0  0  0  0  0
  191.5810  175.0410  137.3710 C   0  0  0  0  0  0  0  0  0  0  0  0
  189.0290  174.6060  137.0370 C   0  0  0  0  0  0  0  0  0  0  0  0
  188.4710  172.5060  135.9310 C   0  0  0  0  0  3  0  0  0  0  0  0
  190.4640  174.2800  136.8840 C   0  0  0  0  0  0  0  0  0  0  0  0
  193.8980  175.5730  137.5650 C   0  0  0  0  0  2  0  0  0  0  0  0
  192.0950  172.7470  135.8680 C   0  0  0  0  0  3  0  0  0  0  0  0
  188.1200  173.6720  136.5870 C   0  0  0  0  0  3  0  0  0  0  0  0
  193.5860  176.8010  139.4870 O   0  0  0  0  0  1  0  0  0  0  0  0
  193.1550  173.5200  136.2900 C   0  0  0  0  0  3  0  0  0  0  0  0
  192.8670  174.6550  137.0390 C   0  0  0  0  0  0  0  0  0  0  0  0
  191.6310  176.2430  138.2270 C   0  0  0  0  0  2  0  0  0  0  0  0
  190.7810  173.1020  136.1660 C   0  0  0  0  0  0  0  0  0  0  0  0
  193.1170  176.6720  138.2300 C   0  0  2  0  0  3  0  0  0  0  0  0
  189.8040  172.2260  135.6890 C   0  0  0  0  0  3  0  0  0  0  0  0
  186.2180  178.7060  138.7900 C   0  0  0  0  0  2  0  0  0  0  0  0
  185.3440  178.7910  139.9650 N   0  0  0  0  0  0  0  0  0  0  0  0
  183.0840  179.0940  140.3180 C   0  0  0  0  0  0  0  0  0  0  0  0
  184.2250  179.7100  139.7820 C   0  0  2  0  0  3  0  0  0  0  0  0
  183.3340  179.3150  138.8430 O   0  0  0  0  0  0  0  0  0  0  0  0
  182.4660  178.6170  141.3220 O   0  0  0  0  0  0  0  0  0  0  0  0
  187.1880  177.8370  141.2190 C   0  0  0  0  0  2  0  0  0  0  0  0
  186.1760  177.5980  142.2770 C   0  0  2  0  0  3  0  0  0  0  0  0
  186.1310  178.8660  141.3360 C   0  0  2  0  0  3  0  0  0  0  0  0
  187.1500  177.7010  143.5070 C   0  0  1  0  0  3  0  0  0  0  0  0
  189.2250  177.7680  145.7080 C   0  0  1  0  0  3  0  0  0  0  0  0
  188.5230  177.9810  143.2900 O   0  0  0  0  0  0  0  0  0  0  0  0
  185.7000  177.4510  146.2880 O   0  0  0  0  0  0  0  0  0  0  0  0
  192.2290  175.7800  147.0200 C   0  0  0  0  0  1  0  0  0  0  0  0
  190.2530  177.1510  146.6580 C   0  0  0  0  0  3  0  0  0  0  0  0
  190.9700  177.7170  143.9750 C   0  0  2  0  0  3  0  0  0  0  0  0
  191.5980  176.6260  144.7330 O   0  0  0  0  0  0  0  0  0  0  0  0
  189.4590  177.8450  144.3950 C   0  0  2  0  0  3  0  0  0  0  0  0
  186.6060  178.4780  144.4580 O   0  0  0  0  0  0  0  0  0  0  0  0
  187.9330  178.2220  147.8500 C   0  0  0  0  0  1  0  0  0  0  0  0
  186.7230  178.0400  145.7570 C   0  0  0  0  0  0  0  0  0  0  0  0
  187.9500  178.0520  146.3940 N   0  0  0  0  0  0  0  0  0  0  0  0
  191.3050  176.5610  146.0890 C   0  0  0  0  0  0  0  0  0  0  0  0
  191.2970  177.6810  142.5340 C   0  0  0  0  0  2  0  0  0  0  0  0
  190.9150  176.4630  141.9590 O   0  0  0  0  0  1  0  0  0  0  0  0
  184.6550  176.7210  137.9050 C   0  0  0  0  0  2  0  0  0  0  0  0
  183.9250  176.8240  136.6450 N   0  0  0  0  0  2  0  0  0  0  0  0
  182.5060  176.5110  136.8260 C   0  0  0  0  0  2  0  0  0  0  0  0
  182.3710  175.7230  138.1550 C   0  0  1  0  0  3  0  0  0  0  0  0
  181.1830  175.8380  138.8100 O   0  0  0  0  0  0  0  0  0  0  0  0
  181.4640  174.6620  138.0930 N   0  0  0  0  0  0  0  0  0  0  0  0
  180.2600  174.5430  137.2100 C   0  0  0  0  0  2  0  0  0  0  0  0
  180.3550  173.4340  136.2680 C   0  0  0  0  0  2  0  0  0  0  0  0
  181.7930  172.9830  136.0040 C   0  0  0  0  0  2  0  0  0  0  0  0
  183.0250  171.4550  137.0250 C   0  0  0  0  0  1  0  0  0  0  0  0
  181.9450  171.6000  136.1680 O   0  0  0  0  0  0  0  0  0  0  0  0
  1 48  1  6  0  0  0
  1 23  1  0  0  0  0
  2  7  1  0  0  0  0
  3  2  1  0  0  0  0
  4  5  1  0  0  0  0
  5  8  1  6  0  0  0
  6  3  1  0  0  0  0
  6  4  2  0  0  0  0
  7  5  1  0  0  0  0
  7  1  1  1  0  0  0
  9 19  1  0  0  0  0
 10  8  1  0  0  0  0
 11 15  1  0  0  0  0
 12 10  1  0  0  0  0
 12  9  2  0  0  0  0
 13 21  1  0  0  0  0
 14 20  2  0  0  0  0
 14 17  1  0  0  0  0
 15 10  2  0  0  0  0
 17 18  2  0  0  0  0
 18  9  1  0  0  0  0
 18 13  1  0  0  0  0
 19 21  1  0  0  0  0
 20 12  1  0  0  0  0
 21 16  1  1  0  0  0
 22 11  2  0  0  0  0
 22 20  1  0  0  0  0
 23 24  1  0  0  0  0
 25 28  2  0  0  0  0
 26 24  1  6  0  0  0
 26 25  1  0  0  0  0
 27 26  1  0  0  0  0
 27 25  1  0  0  0  0
 29 31  1  0  0  0  0
 30 29  1  6  0  0  0
 30 32  1  0  0  0  0
 31 24  1  6  0  0  0
 31 30  1  0  0  0  0
 32 34  1  6  0  0  0
 32 41  1  0  0  0  0
 33 44  1  0  0  0  0
 33 37  1  6  0  0  0
 38 46  1  6  0  0  0
 38 40  1  0  0  0  0
 38 39  1  0  0  0  0
 39 45  1  0  0  0  0
 40 34  1  6  0  0  0
 40 33  1  0  0  0  0
 41 43  1  0  0  0  0
 43 35  2  0  0  0  0
 43 44  1  0  0  0  0
 44 42  1  0  0  0  0
 45 37  2  0  0  0  0
 45 36  1  0  0  0  0
 47 46  1  0  0  0  0
 49 50  1  0  0  0  0
 49 48  1  0  0  0  0
 51 50  1  6  0  0  0
 51 52  1  0  0  0  0
 53 51  1  0  0  0  0
 53 52  1  0  0  0  0
 54 53  1  0  0  0  0
 55 54  1  0  0  0  0
 56 58  1  0  0  0  0
 56 55  1  0  0  0  0
 58 57  1  0  0  0  0
M  END
>  <MODEL>
3

>  <REMARK>
 VINA RESULT:      -7.5      3.179      8.890
  Name = 
  17 active torsions:
  status: ('A' for Active; 'I' for Inactive)
    1  A    between atoms: C_2  and  C_26
    2  A    between atoms: C_3  and  O_14
    3  A    between atoms: C_5  and  C_29
    4  A    between atoms: C_10  and  N_44
    5  A    between atoms: C_13  and  C_49
    6  A    between atoms: O_14  and  C_38
    7  A    between atoms: C_22  and  C_30
    8  A    between atoms: C_22  and  O_45
    9  A    between atoms: C_30  and  C_31
   10  A    between atoms: C_31  and  N_48
   11  A    between atoms: N_32  and  C_36
   12  A    between atoms: N_32  and  C_49
   13  A    between atoms: C_36  and  C_53
   14  A    between atoms: N_44  and  C_51
   15  A    between atoms: N_44  and  C_52
   16  A    between atoms: C_52  and  C_53
   17  A    between atoms: C_53  and  C_58
                            x       y       z     vdW  Elec       q    Type
                         _______ _______ _______ _____ _____    ______ ____

>  <TORSDO>
F 17

$$$$
=
 OpenBabel10232409403D

 58 66  0  0  1  0  0  0  0  0999 V2000
  187.6490  178.1560  138.4820 C   0  0  1  0  0  3  0  0  0  0  0  0
  187.8850  178.7800  136.1820 O   0  0  0  0  0  0  0  0  0  0  0  0
  187.0590  178.9270  135.0240 C   0  0  0  0  0  2  0  0  0  0  0  0
  187.0110  176.4730  135.0420 C   0  0  0  0  0  3  0  0  0  0  0  0
  187.6040  176.5010  136.4730 C   0  0  1  0  0  3  0  0  0  0  0  0
  186.8150  177.6160  134.3680 C   0  0  0  0  0  3  0  0  0  0  0  0
  187.2520  177.8860  137.0460 C   0  0  1  0  0  3  0  0  0  0  0  0
  187.2950  175.3450  137.3450 O   0  0  0  0  0  0  0  0  0  0  0  0
  184.3030  174.3870  137.1550 C   0  0  0  0  0  0  0  0  0  0  0  0
  186.8750  174.0920  136.8290 C   0  0  0  0  0  0  0  0  0  0  0  0
  187.5650  171.9370  135.9200 C   0  0  0  0  0  3  0  0  0  0  0  0
  185.4720  173.6280  136.8050 C   0  0  0  0  0  0  0  0  0  0  0  0
  181.9810  174.6640  137.6270 C   0  0  0  0  0  2  0  0  0  0  0  0
  183.9800  171.7060  136.4510 C   0  0  0  0  0  3  0  0  0  0  0  0
  187.8330  173.2280  136.3420 C   0  0  0  0  0  3  0  0  0  0  0  0
  182.0490  176.9380  137.2720 O   0  0  0  0  0  1  0  0  0  0  0  0
  182.8760  172.4300  136.8480 C   0  0  0  0  0  3  0  0  0  0  0  0
  183.0690  173.7640  137.1910 C   0  0  0  0  0  0  0  0  0  0  0  0
  184.1470  175.8130  137.5070 C   0  0  0  0  0  2  0  0  0  0  0  0
  185.2450  172.2870  136.4130 C   0  0  0  0  0  0  0  0  0  0  0  0
  182.6730  175.9570  137.9550 C   0  0  2  0  0  3  0  0  0  0  0  0
  186.2730  171.4470  135.9810 C   0  0  0  0  0  3  0  0  0  0  0  0
  186.9150  177.3350  139.5040 C   0  0  0  0  0  2  0  0  0  0  0  0
  186.1720  178.1340  140.4850 N   0  0  0  0  0  0  0  0  0  0  0  0
  184.1470  179.1930  140.1760 C   0  0  0  0  0  0  0  0  0  0  0  0
  185.5170  179.2990  139.8980 C   0  0  2  0  0  3  0  0  0  0  0  0
  184.7670  179.0200  138.8080 O   0  0  0  0  0  0  0  0  0  0  0  0
  183.2010  179.1490  141.0260 O   0  0  0  0  0  0  0  0  0  0  0  0
  187.5700  177.0300  142.1330 C   0  0  0  0  0  2  0  0  0  0  0  0
  186.5490  177.4810  143.1100 C   0  0  2  0  0  3  0  0  0  0  0  0
  186.9480  178.3430  141.8480 C   0  0  2  0  0  3  0  0  0  0  0  0
  187.5090  177.6100  144.3490 C   0  0  1  0  0  3  0  0  0  0  0  0
  189.5550  177.7170  146.5750 C   0  0  1  0  0  3  0  0  0  0  0  0
  188.8890  177.8620  144.1420 O   0  0  0  0  0  0  0  0  0  0  0  0
  186.0190  177.4720  147.1160 O   0  0  0  0  0  0  0  0  0  0  0  0
  192.5110  175.7290  147.9920 C   0  0  0  0  0  1  0  0  0  0  0  0
  190.5610  177.1170  147.5580 C   0  0  0  0  0  3  0  0  0  0  0  0
  191.3210  177.5840  144.8690 C   0  0  2  0  0  3  0  0  0  0  0  0
  191.9230  176.5090  145.6700 O   0  0  0  0  0  0  0  0  0  0  0  0
  189.8070  177.7480  145.2630 C   0  0  2  0  0  3  0  0  0  0  0  0
  186.9640  178.4250  145.2670 O   0  0  0  0  0  0  0  0  0  0  0  0
  188.2420  178.2600  148.6840 C   0  0  0  0  0  1  0  0  0  0  0  0
  187.0570  178.0270  146.5810 C   0  0  0  0  0  0  0  0  0  0  0  0
  188.2760  178.0430  147.2340 N   0  0  0  0  0  0  0  0  0  0  0  0
  191.6110  176.4930  147.0230 C   0  0  0  0  0  0  0  0  0  0  0  0
  191.6670  177.4960  143.4340 C   0  0  0  0  0  2  0  0  0  0  0  0
  191.3140  176.2500  142.9040 O   0  0  0  0  0  1  0  0  0  0  0  0
  189.1160  178.6020  138.6560 C   0  0  0  0  0  2  0  0  0  0  0  0
  190.0120  177.6080  139.2390 N   0  0  0  0  0  2  0  0  0  0  0  0
  190.9180  177.0530  138.2290 C   0  0  0  0  0  2  0  0  0  0  0  0
  190.5330  175.5640  138.0310 C   0  0  1  0  0  3  0  0  0  0  0  0
  190.8500  175.0100  136.8280 O   0  0  0  0  0  0  0  0  0  0  0  0
  191.6310  174.7010  137.9560 N   0  0  0  0  0  0  0  0  0  0  0  0
  193.0120  175.0260  137.4740 C   0  0  0  0  0  2  0  0  0  0  0  0
  193.9010  173.8700  137.4830 C   0  0  0  0  0  2  0  0  0  0  0  0
  195.3020  174.1870  138.0110 C   0  0  0  0  0  2  0  0  0  0  0  0
  196.2890  174.8500  139.8780 C   0  0  0  0  0  1  0  0  0  0  0  0
  195.2770  175.1870  138.9930 O   0  0  0  0  0  0  0  0  0  0  0  0
  1 48  1  6  0  0  0
  1 23  1  0  0  0  0
  2  7  1  0  0  0  0
  3  2  1  0  0  0  0
  4  5  1  0  0  0  0
  5  7  1  0  0  0  0
  5  8  1  1  0  0  0
  6  3  1  0  0  0  0
  6  4  2  0  0  0  0
  7  1  1  1  0  0  0
  9 18  1  0  0  0  0
  9 19  1  0  0  0  0
 10  8  1  0  0  0  0
 11 22  2  0  0  0  0
 11 15  1  0  0  0  0
 12 10  1  0  0  0  0
 12  9  2  0  0  0  0
 13 21  1  0  0  0  0
 14 17  1  0  0  0  0
 15 10  2  0  0  0  0
 17 18  2  0  0  0  0
 18 13  1  0  0  0  0
 19 21  1  0  0  0  0
 20 14  2  0  0  0  0
 20 12  1  0  0  0  0
 21 16  1  6  0  0  0
 22 20  1  0  0  0  0
 23 24  1  0  0  0  0
 25 28  2  0  0  0  0
 26 25  1  0  0  0  0
 26 24  1  1  0  0  0
 27 26  1  0  0  0  0
 27 25  1  0  0  0  0
 30 29  1  6  0  0  0
 30 32  1  0  0  0  0
 31 24  1  6  0  0  0
 31 29  1  0  0  0  0
 31 30  1  0  0  0  0
 32 34  1  6  0  0  0
 32 41  1  0  0  0  0
 33 44  1  0  0  0  0
 33 37  1  6  0  0  0
 38 46  1  6  0  0  0
 38 40  1  0  0  0  0
 38 39  1  0  0  0  0
 39 45  1  0  0  0  0
 40 34  1  6  0  0  0
 40 33  1  0  0  0  0
 41 43  1  0  0  0  0
 43 35  2  0  0  0  0
 43 44  1  0  0  0  0
 44 42  1  0  0  0  0
 45 37  2  0  0  0  0
 45 36  1  0  0  0  0
 47 46  1  0  0  0  0
 48 49  1  0  0  0  0
 50 49  1  0  0  0  0
 51 50  1  6  0  0  0
 52 53  1  0  0  0  0
 52 51  1  0  0  0  0
 53 51  1  0  0  0  0
 54 55  1  0  0  0  0
 54 53  1  0  0  0  0
 55 56  1  0  0  0  0
 56 58  1  0  0  0  0
 58 57  1  0  0  0  0
M  END
>  <MODEL>
4

>  <REMARK>
 VINA RESULT:      -7.5      2.632     10.124
  Name = 
  17 active torsions:
  status: ('A' for Active; 'I' for Inactive)
    1  A    between atoms: C_2  and  C_26
    2  A    between atoms: C_3  and  O_14
    3  A    between atoms: C_5  and  C_29
    4  A    between atoms: C_10  and  N_44
    5  A    between atoms: C_13  and  C_49
    6  A    between atoms: O_14  and  C_38
    7  A    between atoms: C_22  and  C_30
    8  A    between atoms: C_22  and  O_45
    9  A    between atoms: C_30  and  C_31
   10  A    between atoms: C_31  and  N_48
   11  A    between atoms: N_32  and  C_36
   12  A    between atoms: N_32  and  C_49
   13  A    between atoms: C_36  and  C_53
   14  A    between atoms: N_44  and  C_51
   15  A    between atoms: N_44  and  C_52
   16  A    between atoms: C_52  and  C_53
   17  A    between atoms: C_53  and  C_58
                            x       y       z     vdW  Elec       q    Type
                         _______ _______ _______ _____ _____    ______ ____

>  <TORSDO>
F 17

$$$$
=
 OpenBabel10232409403D

 58 66  0  0  1  0  0  0  0  0999 V2000
  191.8730  175.4210  137.6200 C   0  0  1  0  0  3  0  0  0  0  0  0
  192.9060  176.6850  135.8680 O   0  0  0  0  0  0  0  0  0  0  0  0
  193.3110  176.4960  134.5090 C   0  0  0  0  0  2  0  0  0  0  0  0
  195.1020  175.1300  135.4850 C   0  0  0  0  0  3  0  0  0  0  0  0
  194.3390  175.1430  136.8330 C   0  0  1  0  0  3  0  0  0  0  0  0
  194.6280  175.8120  134.4310 C   0  0  0  0  0  3  0  0  0  0  0  0
  192.8680  175.4310  136.4790 C   0  0  1  0  0  3  0  0  0  0  0  0
  194.5710  173.9980  137.7410 O   0  0  0  0  0  0  0  0  0  0  0  0
  197.5670  173.0570  137.5320 C   0  0  0  0  0  0  0  0  0  0  0  0
  194.9910  172.7270  137.2720 C   0  0  0  0  0  0  0  0  0  0  0  0
  194.3100  170.5860  136.3240 C   0  0  0  0  0  3  0  0  0  0  0  0
  196.4050  172.3210  137.1180 C   0  0  0  0  0  0  0  0  0  0  0  0
  199.9100  173.4870  137.6500 C   0  0  0  0  0  2  0  0  0  0  0  0
  197.9390  170.6430  136.1830 C   0  0  0  0  0  3  0  0  0  0  0  0
  194.0290  171.8110  136.9040 C   0  0  0  0  0  3  0  0  0  0  0  0
  199.6970  174.8570  139.4870 O   0  0  0  0  0  1  0  0  0  0  0  0
  199.0440  171.3900  136.5320 C   0  0  0  0  0  3  0  0  0  0  0  0
  198.8250  172.5860  137.2060 C   0  0  0  0  0  0  0  0  0  0  0  0
  197.6920  174.3110  138.3020 C   0  0  0  0  0  2  0  0  0  0  0  0
  196.6510  171.0820  136.4780 C   0  0  0  0  0  0  0  0  0  0  0  0
  199.1970  174.6650  138.2500 C   0  0  2  0  0  3  0  0  0  0  0  0
  195.6230  170.2250  136.0800 C   0  0  0  0  0  3  0  0  0  0  0  0
  191.4030  176.7780  138.0600 C   0  0  0  0  0  2  0  0  0  0  0  0
  189.9580  176.8570  138.3000 N   0  0  0  0  0  0  0  0  0  0  0  0
  188.1900  177.4110  136.9250 C   0  0  0  0  0  0  0  0  0  0  0  0
  189.3150  177.9450  137.5700 C   0  0  2  0  0  3  0  0  0  0  0  0
  189.4510  177.8670  136.2270 O   0  0  0  0  0  0  0  0  0  0  0  0
  187.0520  176.8480  136.9930 O   0  0  0  0  0  0  0  0  0  0  0  0
  188.8500  177.9070  140.1850 C   0  0  0  0  0  2  0  0  0  0  0  0
  190.1210  177.6560  140.9060 C   0  0  2  0  0  3  0  0  0  0  0  0
  189.5570  176.6600  139.8180 C   0  0  2  0  0  3  0  0  0  0  0  0
  189.5030  177.5070  142.3450 C   0  0  1  0  0  3  0  0  0  0  0  0
  188.0960  177.3900  145.0210 C   0  0  1  0  0  3  0  0  0  0  0  0
  188.0980  177.3860  142.4930 O   0  0  0  0  0  0  0  0  0  0  0  0
  191.6590  177.3000  144.6270 O   0  0  0  0  0  0  0  0  0  0  0  0
  185.8160  179.4940  147.2730 C   0  0  0  0  0  1  0  0  0  0  0  0
  187.4410  177.9900  146.2650 C   0  0  0  0  0  3  0  0  0  0  0  0
  185.9740  177.8040  143.8490 C   0  0  2  0  0  3  0  0  0  0  0  0
  185.7080  178.8570  144.8390 O   0  0  0  0  0  0  0  0  0  0  0  0
  187.5140  177.4850  143.8210 C   0  0  2  0  0  3  0  0  0  0  0  0
  190.1810  176.5790  143.0400 O   0  0  0  0  0  0  0  0  0  0  0  0
  189.8440  176.5740  146.6760 C   0  0  0  0  0  1  0  0  0  0  0  0
  190.4680  176.8760  144.3530 C   0  0  0  0  0  0  0  0  0  0  0  0
  189.4620  176.9090  145.3000 N   0  0  0  0  0  0  0  0  0  0  0  0
  186.3570  178.7390  146.0610 C   0  0  0  0  0  0  0  0  0  0  0  0
  185.2820  178.0340  142.5620 C   0  0  0  0  0  2  0  0  0  0  0  0
  183.9560  178.4340  142.7660 O   0  0  0  0  0  1  0  0  0  0  0  0
  190.9770  174.1650  137.6610 C   0  0  0  0  0  2  0  0  0  0  0  0
  190.0660  174.0030  136.5320 N   0  0  0  0  0  2  0  0  0  0  0  0
  188.6910  173.7820  136.9860 C   0  0  0  0  0  2  0  0  0  0  0  0
  187.8230  173.5230  135.7270 C   0  0  1  0  0  3  0  0  0  0  0  0
  187.2950  172.2750  135.5990 O   0  0  0  0  0  0  0  0  0  0  0  0
  186.4660  173.3360  136.0050 N   0  0  0  0  0  0  0  0  0  0  0  0
  185.8610  172.7930  137.2630 C   0  0  0  0  0  2  0  0  0  0  0  0
  184.6860  173.5410  137.6960 C   0  0  0  0  0  2  0  0  0  0  0  0
  183.7590  173.9350  136.5440 C   0  0  0  0  0  2  0  0  0  0  0  0
  183.3570  175.4100  138.1450 C   0  0  0  0  0  1  0  0  0  0  0  0
  183.0220  175.0910  136.8390 O   0  0  0  0  0  0  0  0  0  0  0  0
  1 48  1  6  0  0  0
  1 23  1  0  0  0  0
  2  7  1  0  0  0  0
  3  2  1  0  0  0  0
  4  5  1  0  0  0  0
  5  8  1  6  0  0  0
  6  3  1  0  0  0  0
  6  4  2  0  0  0  0
  7  5  1  0  0  0  0
  7  1  1  1  0  0  0
  9 19  1  0  0  0  0
 10  8  1  0  0  0  0
 11 15  1  0  0  0  0
 12 10  1  0  0  0  0
 12  9  2  0  0  0  0
 13 21  1  0  0  0  0
 14 20  2  0  0  0  0
 14 17  1  0  0  0  0
 15 10  2  0  0  0  0
 17 18  2  0  0  0  0
 18  9  1  0  0  0  0
 18 13  1  0  0  0  0
 20 12  1  0  0  0  0
 21 19  1  0  0  0  0
 21 16  1  1  0  0  0
 22 11  2  0  0  0  0
 22 20  1  0  0  0  0
 23 24  1  0  0  0  0
 25 28  2  0  0  0  0
 25 26  1  0  0  0  0
 26 24  1  1  0  0  0
 27 25  1  0  0  0  0
 27 26  1  0  0  0  0
 30 29  1  6  0  0  0
 30 32  1  0  0  0  0
 31 24  1  6  0  0  0
 31 29  1  0  0  0  0
 31 30  1  0  0  0  0
 32 34  1  6  0  0  0
 32 41  1  0  0  0  0
 33 44  1  0  0  0  0
 33 37  1  6  0  0  0
 38 46  1  6  0  0  0
 38 39  1  0  0  0  0
 39 45  1  0  0  0  0
 40 34  1  6  0  0  0
 40 38  1  0  0  0  0
 40 33  1  0  0  0  0
 41 43  1  0  0  0  0
 43 35  2  0  0  0  0
 43 44  1  0  0  0  0
 44 42  1  0  0  0  0
 45 37  2  0  0  0  0
 45 36  1  0  0  0  0
 46 47  1  0  0  0  0
 49 50  1  0  0  0  0
 49 48  1  0  0  0  0
 51 53  1  0  0  0  0
 51 50  1  1  0  0  0
 52 51  1  0  0  0  0
 52 53  1  0  0  0  0
 53 54  1  0  0  0  0
 54 55  1  0  0  0  0
 56 58  1  0  0  0  0
 56 55  1  0  0  0  0
 58 57  1  0  0  0  0
M  END
>  <MODEL>
5

>  <REMARK>
 VINA RESULT:      -7.1      2.441     10.096
  Name = 
  17 active torsions:
  status: ('A' for Active; 'I' for Inactive)
    1  A    between atoms: C_2  and  C_26
    2  A    between atoms: C_3  and  O_14
    3  A    between atoms: C_5  and  C_29
    4  A    between atoms: C_10  and  N_44
    5  A    between atoms: C_13  and  C_49
    6  A    between atoms: O_14  and  C_38
    7  A    between atoms: C_22  and  C_30
    8  A    between atoms: C_22  and  O_45
    9  A    between atoms: C_30  and  C_31
   10  A    between atoms: C_31  and  N_48
   11  A    between atoms: N_32  and  C_36
   12  A    between atoms: N_32  and  C_49
   13  A    between atoms: C_36  and  C_53
   14  A    between atoms: N_44  and  C_51
   15  A    between atoms: N_44  and  C_52
   16  A    between atoms: C_52  and  C_53
   17  A    between atoms: C_53  and  C_58
                            x       y       z     vdW  Elec       q    Type
                         _______ _______ _______ _____ _____    ______ ____

>  <TORSDO>
F 17

$$$$
=
 OpenBabel10232409403D

 58 66  0  0  1  0  0  0  0  0999 V2000
  185.0840  178.8700  139.5580 C   0  0  1  0  0  3  0  0  0  0  0  0
  183.2630  177.9330  140.7990 O   0  0  0  0  0  0  0  0  0  0  0  0
  182.2800  178.3620  141.7440 C   0  0  0  0  0  2  0  0  0  0  0  0
  184.1710  178.4490  143.3080 C   0  0  0  0  0  3  0  0  0  0  0  0
  185.1360  178.3230  142.1020 C   0  0  1  0  0  3  0  0  0  0  0  0
  182.8430  178.4130  143.1190 C   0  0  0  0  0  3  0  0  0  0  0  0
  184.3430  178.8120  140.8760 C   0  0  1  0  0  3  0  0  0  0  0  0
  186.4890  178.9010  142.2680 O   0  0  0  0  0  0  0  0  0  0  0  0
  187.3760  177.9770  145.1420 C   0  0  0  0  0  0  0  0  0  0  0  0
  187.6280  178.1040  142.5480 C   0  0  0  0  0  0  0  0  0  0  0  0
  189.5950  176.9850  141.6410 C   0  0  0  0  0  3  0  0  0  0  0  0
  188.0700  177.7310  143.9090 C   0  0  0  0  0  0  0  0  0  0  0  0
  187.1690  178.0350  147.5180 C   0  0  0  0  0  2  0  0  0  0  0  0
  189.8890  176.7690  145.2550 C   0  0  0  0  0  3  0  0  0  0  0  0
  188.4010  177.6670  141.4930 C   0  0  0  0  0  3  0  0  0  0  0  0
  184.8690  178.1000  147.4440 O   0  0  0  0  0  1  0  0  0  0  0  0
  189.2380  177.0660  146.4330 C   0  0  0  0  0  3  0  0  0  0  0  0
  187.9870  177.6660  146.3440 C   0  0  0  0  0  0  0  0  0  0  0  0
  186.0330  178.5340  145.4000 C   0  0  0  0  0  2  0  0  0  0  0  0
  189.3200  177.0760  144.0210 C   0  0  0  0  0  0  0  0  0  0  0  0
  185.9580  178.7080  146.9360 C   0  0  2  0  0  3  0  0  0  0  0  0
  190.0790  176.7100  142.9080 C   0  0  0  0  0  3  0  0  0  0  0  0
  185.7850  177.5990  139.1720 C   0  0  0  0  0  2  0  0  0  0  0  0
  186.0240  177.4670  137.7300 N   0  0  0  0  0  0  0  0  0  0  0  0
  184.2950  176.0320  137.2080 C   0  0  0  0  0  0  0  0  0  0  0  0
  184.7960  177.3170  136.9560 C   0  0  2  0  0  3  0  0  0  0  0  0
  184.9060  176.4790  135.9000 O   0  0  0  0  0  0  0  0  0  0  0  0
  183.8250  175.1800  138.0280 O   0  0  0  0  0  0  0  0  0  0  0  0
  188.3740  177.0370  138.1520 C   0  0  0  0  0  2  0  0  0  0  0  0
  188.5170  177.1020  136.6770 C   0  0  2  0  0  3  0  0  0  0  0  0
  187.2310  176.5070  137.3740 C   0  0  2  0  0  3  0  0  0  0  0  0
  189.7380  176.1190  136.5550 C   0  0  1  0  0  3  0  0  0  0  0  0
  192.2580  174.4520  136.3900 C   0  0  1  0  0  3  0  0  0  0  0  0
  190.8210  176.2330  137.4630 O   0  0  0  0  0  0  0  0  0  0  0  0
  189.3600  173.9080  134.3500 O   0  0  0  0  0  0  0  0  0  0  0  0
  195.9800  174.7700  135.5280 C   0  0  0  0  0  1  0  0  0  0  0  0
  193.6650  174.1190  135.8920 C   0  0  0  0  0  3  0  0  0  0  0  0
  193.3150  176.0120  137.9700 C   0  0  2  0  0  3  0  0  0  0  0  0
  194.4510  176.0810  137.0400 O   0  0  0  0  0  0  0  0  0  0  0  0
  192.0430  175.4870  137.2070 C   0  0  2  0  0  3  0  0  0  0  0  0
  189.2980  174.8560  136.4280 O   0  0  0  0  0  0  0  0  0  0  0  0
  191.6080  172.3580  135.1020 C   0  0  0  0  0  1  0  0  0  0  0  0
  189.9360  174.0690  135.4960 C   0  0  0  0  0  0  0  0  0  0  0  0
  191.2310  173.6370  135.7130 N   0  0  0  0  0  0  0  0  0  0  0  0
  194.6210  175.0010  136.1850 C   0  0  0  0  0  0  0  0  0  0  0  0
  193.1810  177.2240  138.8070 C   0  0  0  0  0  2  0  0  0  0  0  0
  193.6480  176.9940  140.1070 O   0  0  0  0  0  1  0  0  0  0  0  0
  184.4600  179.8340  138.5270 C   0  0  0  0  0  2  0  0  0  0  0  0
  183.1520  180.3760  138.8830 N   0  0  0  0  0  2  0  0  0  0  0  0
  182.0760  179.6680  138.1850 C   0  0  0  0  0  2  0  0  0  0  0  0
  180.7330  180.1560  138.7880 C   0  0  1  0  0  3  0  0  0  0  0  0
  180.6330  181.4890  139.0490 O   0  0  0  0  0  0  0  0  0  0  0  0
  179.9820  180.9570  137.9220 N   0  0  0  0  0  0  0  0  0  0  0  0
  180.4930  181.8380  136.8240 C   0  0  0  0  0  2  0  0  0  0  0  0
  180.1280  183.2390  137.0050 C   0  0  0  0  0  2  0  0  0  0  0  0
  180.2810  184.0750  135.7330 C   0  0  0  0  0  2  0  0  0  0  0  0
  180.9500  185.5220  137.2680 C   0  0  0  0  0  1  0  0  0  0  0  0
  181.1130  185.1850  135.9340 O   0  0  0  0  0  0  0  0  0  0  0  0
  1 48  1  6  0  0  0
  2  7  1  0  0  0  0
  2  3  1  0  0  0  0
  3  6  1  0  0  0  0
  5  8  1  1  0  0  0
  5  4  1  0  0  0  0
  6  4  2  0  0  0  0
  7  1  1  6  0  0  0
  7  5  1  0  0  0  0
  8 10  1  0  0  0  0
  9 19  1  0  0  0  0
  9 18  1  0  0  0  0
 10 12  1  0  0  0  0
 11 22  2  0  0  0  0
 12 20  1  0  0  0  0
 12  9  2  0  0  0  0
 14 17  1  0  0  0  0
 15 11  1  0  0  0  0
 15 10  2  0  0  0  0
 18 17  2  0  0  0  0
 18 13  1  0  0  0  0
 19 21  1  0  0  0  0
 20 14  2  0  0  0  0
 21 16  1  1  0  0  0
 21 13  1  0  0  0  0
 22 20  1  0  0  0  0
 23  1  1  0  0  0  0
 24 23  1  0  0  0  0
 25 28  2  0  0  0  0
 26 25  1  0  0  0  0
 26 24  1  1  0  0  0
 27 26  1  0  0  0  0
 27 25  1  0  0  0  0
 30 31  1  0  0  0  0
 30 29  1  1  0  0  0
 31 24  1  6  0  0  0
 31 29  1  0  0  0  0
 32 41  1  1  0  0  0
 32 30  1  0  0  0  0
 32 34  1  0  0  0  0
 33 37  1  6  0  0  0
 33 40  1  0  0  0  0
 35 43  2  0  0  0  0
 36 45  1  0  0  0  0
 37 45  2  0  0  0  0
 38 46  1  6  0  0  0
 39 38  1  0  0  0  0
 40 34  1  6  0  0  0
 40 38  1  0  0  0  0
 42 44  1  0  0  0  0
 43 44  1  0  0  0  0
 43 41  1  0  0  0  0
 44 33  1  0  0  0  0
 45 39  1  0  0  0  0
 46 47  1  0  0  0  0
 48 49  1  0  0  0  0
 50 49  1  0  0  0  0
 51 50  1  6  0  0  0
 51 52  1  0  0  0  0
 53 51  1  0  0  0  0
 53 52  1  0  0  0  0
 54 55  1  0  0  0  0
 54 53  1  0  0  0  0
 56 58  1  0  0  0  0
 56 55  1  0  0  0  0
 58 57  1  0  0  0  0
M  END
>  <MODEL>
6

>  <REMARK>
 VINA RESULT:      -7.0      2.757      5.469
  Name = 
  17 active torsions:
  status: ('A' for Active; 'I' for Inactive)
    1  A    between atoms: C_2  and  C_26
    2  A    between atoms: C_3  and  O_14
    3  A    between atoms: C_5  and  C_29
    4  A    between atoms: C_10  and  N_44
    5  A    between atoms: C_13  and  C_49
    6  A    between atoms: O_14  and  C_38
    7  A    between atoms: C_22  and  C_30
    8  A    between atoms: C_22  and  O_45
    9  A    between atoms: C_30  and  C_31
   10  A    between atoms: C_31  and  N_48
   11  A    between atoms: N_32  and  C_36
   12  A    between atoms: N_32  and  C_49
   13  A    between atoms: C_36  and  C_53
   14  A    between atoms: N_44  and  C_51
   15  A    between atoms: N_44  and  C_52
   16  A    between atoms: C_52  and  C_53
   17  A    between atoms: C_53  and  C_58
                            x       y       z     vdW  Elec       q    Type
                         _______ _______ _______ _____ _____    ______ ____

>  <TORSDO>
F 17

$$$$
=
 OpenBabel10232409403D

 58 66  0  0  1  0  0  0  0  0999 V2000
  188.1700  175.4930  137.1520 C   0  0  1  0  0  3  0  0  0  0  0  0
  188.2140  173.1100  136.9170 O   0  0  0  0  0  0  0  0  0  0  0  0
  187.8840  172.1270  135.9330 C   0  0  0  0  0  2  0  0  0  0  0  0
  185.5620  172.6940  136.4940 C   0  0  0  0  0  3  0  0  0  0  0  0
  186.0800  173.9440  137.2470 C   0  0  1  0  0  3  0  0  0  0  0  0
  186.4260  171.8340  135.9330 C   0  0  0  0  0  3  0  0  0  0  0  0
  187.4630  174.2540  136.6450 C   0  0  1  0  0  3  0  0  0  0  0  0
  185.1500  175.0920  137.3510 O   0  0  0  0  0  0  0  0  0  0  0  0
  183.1940  177.1520  138.7060 C   0  0  0  0  0  0  0  0  0  0  0  0
  183.7460  174.9270  137.4580 C   0  0  0  0  0  0  0  0  0  0  0  0
  181.8360  173.4680  137.0440 C   0  0  0  0  0  3  0  0  0  0  0  0
  182.8460  175.8710  138.1540 C   0  0  0  0  0  0  0  0  0  0  0  0
  182.7850  179.1260  139.9810 C   0  0  0  0  0  2  0  0  0  0  0  0
  180.5820  176.2290  139.0430 C   0  0  0  0  0  3  0  0  0  0  0  0
  183.1720  173.8000  136.9070 C   0  0  0  0  0  3  0  0  0  0  0  0
  184.4880  180.2910  138.9610 O   0  0  0  0  0  1  0  0  0  0  0  0
  180.9460  177.4270  139.6190 C   0  0  0  0  0  3  0  0  0  0  0  0
  182.2540  177.8610  139.4310 C   0  0  0  0  0  0  0  0  0  0  0  0
  184.4520  177.9210  138.6420 C   0  0  0  0  0  2  0  0  0  0  0  0
  181.4970  175.4730  138.3150 C   0  0  0  0  0  0  0  0  0  0  0  0
  184.2360  179.1250  139.5880 C   0  0  2  0  0  3  0  0  0  0  0  0
  180.9940  174.2870  137.7750 C   0  0  0  0  0  3  0  0  0  0  0  0
  187.3020  176.7140  137.2620 C   0  0  0  0  0  2  0  0  0  0  0  0
  187.8730  177.7750  138.0980 N   0  0  0  0  0  0  0  0  0  0  0  0
  188.0880  179.5320  136.6180 C   0  0  0  0  0  0  0  0  0  0  0  0
  188.8270  178.6170  137.3830 C   0  0  2  0  0  3  0  0  0  0  0  0
  188.8860  178.3790  136.0530 O   0  0  0  0  0  0  0  0  0  0  0  0
  187.2640  180.4990  136.5610 O   0  0  0  0  0  0  0  0  0  0  0  0
  187.5750  178.2210  140.4640 C   0  0  0  0  0  2  0  0  0  0  0  0
  189.0570  178.2730  140.5090 C   0  0  2  0  0  3  0  0  0  0  0  0
  188.2750  177.2900  139.5500 C   0  0  2  0  0  3  0  0  0  0  0  0
  189.2250  177.7800  141.9920 C   0  0  1  0  0  3  0  0  0  0  0  0
  189.3190  176.9990  144.9140 C   0  0  1  0  0  3  0  0  0  0  0  0
  188.0730  177.5230  142.7780 O   0  0  0  0  0  0  0  0  0  0  0  0
  192.2170  177.2670  142.8190 O   0  0  0  0  0  0  0  0  0  0  0  0
  188.5280  178.4040  148.3920 C   0  0  0  0  0  1  0  0  0  0  0  0
  189.3860  177.2730  146.4170 C   0  0  0  0  0  3  0  0  0  0  0  0
  186.9120  177.4840  145.0530 C   0  0  2  0  0  3  0  0  0  0  0  0
  187.2090  178.2830  146.2500 O   0  0  0  0  0  0  0  0  0  0  0  0
  188.2250  177.2970  144.2070 C   0  0  2  0  0  3  0  0  0  0  0  0
  190.1220  176.7820  142.0450 O   0  0  0  0  0  0  0  0  0  0  0  0
  191.6250  175.9910  145.2770 C   0  0  0  0  0  1  0  0  0  0  0  0
  191.0310  176.8200  143.0770 C   0  0  0  0  0  0  0  0  0  0  0  0
  190.6260  176.5760  144.3760 N   0  0  0  0  0  0  0  0  0  0  0  0
  188.3710  177.9630  146.9390 C   0  0  0  0  0  0  0  0  0  0  0  0
  185.6840  177.9240  144.3560 C   0  0  0  0  0  2  0  0  0  0  0  0
  185.0160  178.9140  145.0870 O   0  0  0  0  0  1  0  0  0  0  0  0
  189.3380  175.2000  138.1170 C   0  0  0  0  0  2  0  0  0  0  0  0
  190.6630  175.1460  137.5040 N   0  0  0  0  0  2  0  0  0  0  0  0
  191.6290  175.9520  138.2560 C   0  0  0  0  0  2  0  0  0  0  0  0
  192.6410  176.5330  137.2350 C   0  0  1  0  0  3  0  0  0  0  0  0
  193.8560  176.9010  137.7270 O   0  0  0  0  0  0  0  0  0  0  0  0
  193.7420  175.7040  136.9970 N   0  0  0  0  0  0  0  0  0  0  0  0
  194.3520  174.7090  137.9360 C   0  0  0  0  0  2  0  0  0  0  0  0
  195.2500  173.7750  137.2670 C   0  0  0  0  0  2  0  0  0  0  0  0
  195.5640  172.5320  138.1010 C   0  0  0  0  0  2  0  0  0  0  0  0
  196.9930  172.3770  136.4190 C   0  0  0  0  0  1  0  0  0  0  0  0
  196.7690  171.9310  137.7110 O   0  0  0  0  0  0  0  0  0  0  0  0
  1 23  1  1  0  0  0
  1 48  1  0  0  0  0
  3  6  1  0  0  0  0
  3  2  1  0  0  0  0
  4  5  1  0  0  0  0
  5  8  1  6  0  0  0
  6  4  2  0  0  0  0
  7  2  1  0  0  0  0
  7  1  1  1  0  0  0
  7  5  1  0  0  0  0
  8 10  1  0  0  0  0
  9 18  1  0  0  0  0
 10 12  1  0  0  0  0
 11 22  2  0  0  0  0
 12 20  1  0  0  0  0
 12  9  2  0  0  0  0
 14 17  1  0  0  0  0
 15 11  1  0  0  0  0
 15 10  2  0  0  0  0
 18 17  2  0  0  0  0
 18 13  1  0  0  0  0
 19  9  1  0  0  0  0
 19 21  1  0  0  0  0
 20 14  2  0  0  0  0
 21 16  1  6  0  0  0
 21 13  1  0  0  0  0
 22 20  1  0  0  0  0
 23 24  1  0  0  0  0
 25 26  1  0  0  0  0
 26 24  1  1  0  0  0
 27 25  1  0  0  0  0
 27 26  1  0  0  0  0
 28 25  2  0  0  0  0
 30 29  1  1  0  0  0
 30 32  1  0  0  0  0
 31 24  1  6  0  0  0
 31 29  1  0  0  0  0
 31 30  1  0  0  0  0
 32 41  1  6  0  0  0
 32 34  1  0  0  0  0
 33 37  1  6  0  0  0
 35 43  2  0  0  0  0
 37 45  2  0  0  0  0
 38 46  1  6  0  0  0
 38 39  1  0  0  0  0
 39 45  1  0  0  0  0
 40 34  1  1  0  0  0
 40 33  1  0  0  0  0
 40 38  1  0  0  0  0
 41 43  1  0  0  0  0
 43 44  1  0  0  0  0
 44 33  1  0  0  0  0
 44 42  1  0  0  0  0
 45 36  1  0  0  0  0
 46 47  1  0  0  0  0
 49 48  1  0  0  0  0
 49 50  1  0  0  0  0
 51 52  1  0  0  0  0
 51 50  1  1  0  0  0
 53 51  1  0  0  0  0
 53 52  1  0  0  0  0
 53 54  1  0  0  0  0
 55 54  1  0  0  0  0
 55 56  1  0  0  0  0
 57 58  1  0  0  0  0
 58 56  1  0  0  0  0
M  END
>  <MODEL>
7

>  <REMARK>
 VINA RESULT:      -6.7      2.345      9.720
  Name = 
  17 active torsions:
  status: ('A' for Active; 'I' for Inactive)
    1  A    between atoms: C_2  and  C_26
    2  A    between atoms: C_3  and  O_14
    3  A    between atoms: C_5  and  C_29
    4  A    between atoms: C_10  and  N_44
    5  A    between atoms: C_13  and  C_49
    6  A    between atoms: O_14  and  C_38
    7  A    between atoms: C_22  and  C_30
    8  A    between atoms: C_22  and  O_45
    9  A    between atoms: C_30  and  C_31
   10  A    between atoms: C_31  and  N_48
   11  A    between atoms: N_32  and  C_36
   12  A    between atoms: N_32  and  C_49
   13  A    between atoms: C_36  and  C_53
   14  A    between atoms: N_44  and  C_51
   15  A    between atoms: N_44  and  C_52
   16  A    between atoms: C_52  and  C_53
   17  A    between atoms: C_53  and  C_58
                            x       y       z     vdW  Elec       q    Type
                         _______ _______ _______ _____ _____    ______ ____

>  <TORSDO>
F 17

$$$$
=
 OpenBabel10232409403D

 58 66  0  0  1  0  0  0  0  0999 V2000
  184.2390  177.6700  138.0170 C   0  0  1  0  0  3  0  0  0  0  0  0
  186.4440  178.5160  137.6220 O   0  0  0  0  0  0  0  0  0  0  0  0
  187.2980  178.7970  136.5100 C   0  0  0  0  0  2  0  0  0  0  0  0
  187.4880  176.3540  136.3480 C   0  0  0  0  0  3  0  0  0  0  0  0
  186.2900  176.2260  137.3220 C   0  0  1  0  0  3  0  0  0  0  0  0
  187.9720  177.5630  136.0250 C   0  0  0  0  0  3  0  0  0  0  0  0
  185.5180  177.5540  137.2170 C   0  0  1  0  0  3  0  0  0  0  0  0
  185.4730  174.9960  137.2160 O   0  0  0  0  0  0  0  0  0  0  0  0
  183.6750  172.5350  136.4310 C   0  0  0  0  0  0  0  0  0  0  0  0
  185.9390  173.8260  136.5620 C   0  0  0  0  0  0  0  0  0  0  0  0
  187.8690  172.6300  135.6730 C   0  0  0  0  0  3  0  0  0  0  0  0
  185.0970  172.6500  136.2560 C   0  0  0  0  0  0  0  0  0  0  0  0
  181.6060  171.3500  136.4870 C   0  0  0  0  0  2  0  0  0  0  0  0
  185.0860  170.3010  135.5290 C   0  0  0  0  0  3  0  0  0  0  0  0
  187.2700  173.7570  136.2090 C   0  0  0  0  0  3  0  0  0  0  0  0
  180.3540  173.2700  136.2800 O   0  0  0  0  0  1  0  0  0  0  0  0
  183.7310  170.1880  135.7590 C   0  0  0  0  0  3  0  0  0  0  0  0
  183.0570  171.3180  136.2060 C   0  0  0  0  0  0  0  0  0  0  0  0
  182.6670  173.5370  136.8290 C   0  0  0  0  0  2  0  0  0  0  0  0
  185.7560  171.5020  135.7550 C   0  0  0  0  0  0  0  0  0  0  0  0
  181.3550  172.7370  137.0080 C   0  0  2  0  0  3  0  0  0  0  0  0
  187.1220  171.4840  135.4700 C   0  0  0  0  0  3  0  0  0  0  0  0
  184.1520  178.8850  138.8950 C   0  0  0  0  0  2  0  0  0  0  0  0
  183.5850  178.6190  140.2220 N   0  0  0  0  0  0  0  0  0  0  0  0
  181.4340  179.1440  140.8700 C   0  0  0  0  0  0  0  0  0  0  0  0
  182.7150  179.6890  140.6990 C   0  0  2  0  0  3  0  0  0  0  0  0
  181.8180  180.1220  139.7830 O   0  0  0  0  0  0  0  0  0  0  0  0
  180.6630  178.3200  141.4580 O   0  0  0  0  0  0  0  0  0  0  0  0
  185.0060  179.1570  142.1130 C   0  0  0  0  0  2  0  0  0  0  0  0
  186.1000  178.5930  141.2860 C   0  0  2  0  0  3  0  0  0  0  0  0
  184.6300  178.0170  141.2480 C   0  0  2  0  0  3  0  0  0  0  0  0
  186.9970  178.0810  142.4720 C   0  0  1  0  0  3  0  0  0  0  0  0
  188.5380  177.2310  144.9340 C   0  0  1  0  0  3  0  0  0  0  0  0
  186.3850  177.6660  143.6830 O   0  0  0  0  0  0  0  0  0  0  0  0
  190.0540  177.9030  141.7550 O   0  0  0  0  0  0  0  0  0  0  0  0
  189.3700  178.4310  148.4780 C   0  0  0  0  0  1  0  0  0  0  0  0
  189.2860  177.4680  146.2460 C   0  0  0  0  0  3  0  0  0  0  0  0
  186.4530  177.4230  146.2250 C   0  0  2  0  0  3  0  0  0  0  0  0
  187.2090  178.2170  147.2030 O   0  0  0  0  0  0  0  0  0  0  0  0
  187.2170  177.4180  144.8500 C   0  0  2  0  0  3  0  0  0  0  0  0
  187.8980  177.1950  142.0160 O   0  0  0  0  0  0  0  0  0  0  0  0
  190.8200  176.4950  144.0900 C   0  0  0  0  0  1  0  0  0  0  0  0
  189.1800  177.3100  142.5010 C   0  0  0  0  0  0  0  0  0  0  0  0
  189.4650  176.9830  143.8140 N   0  0  0  0  0  0  0  0  0  0  0  0
  188.5820  178.0170  147.2380 C   0  0  0  0  0  0  0  0  0  0  0  0
  185.0070  177.7350  146.2230 C   0  0  0  0  0  2  0  0  0  0  0  0
  184.7140  178.7760  147.1120 O   0  0  0  0  0  1  0  0  0  0  0  0
  183.0100  177.0360  137.3320 C   0  0  0  0  0  2  0  0  0  0  0  0
  183.0180  177.0620  135.8720 N   0  0  0  0  0  2  0  0  0  0  0  0
  182.3370  178.2530  135.3570 C   0  0  0  0  0  2  0  0  0  0  0  0
  180.8160  177.9500  135.3510 C   0  0  1  0  0  3  0  0  0  0  0  0
  180.1840  177.9870  136.5560 O   0  0  0  0  0  0  0  0  0  0  0  0
  180.0170  179.0560  135.6570 N   0  0  0  0  0  0  0  0  0  0  0  0
  180.3830  180.2340  136.5060 C   0  0  0  0  0  2  0  0  0  0  0  0
  180.7090  181.4190  135.7200 C   0  0  0  0  0  2  0  0  0  0  0  0
  180.2080  182.7210  136.3490 C   0  0  0  0  0  2  0  0  0  0  0  0
  181.1820  184.7020  136.5140 C   0  0  0  0  0  1  0  0  0  0  0  0
  180.5910  183.8430  135.6010 O   0  0  0  0  0  0  0  0  0  0  0  0
  1 48  1  6  0  0  0
  1 23  1  0  0  0  0
  3  2  1  0  0  0  0
  4  5  1  0  0  0  0
  5  8  1  6  0  0  0
  6  4  2  0  0  0  0
  6  3  1  0  0  0  0
  7  5  1  0  0  0  0
  7  2  1  0  0  0  0
  7  1  1  1  0  0  0
  9 19  1  0  0  0  0
 10  8  1  0  0  0  0
 11 15  1  0  0  0  0
 12  9  1  0  0  0  0
 12 10  1  0  0  0  0
 13 21  1  0  0  0  0
 14 20  1  0  0  0  0
 14 17  2  0  0  0  0
 15 10  2  0  0  0  0
 17 18  1  0  0  0  0
 18  9  2  0  0  0  0
 18 13  1  0  0  0  0
 19 21  1  0  0  0  0
 20 12  2  0  0  0  0
 21 16  1  6  0  0  0
 22 11  2  0  0  0  0
 22 20  1  0  0  0  0
 23 24  1  0  0  0  0
 25 28  2  0  0  0  0
 26 24  1  6  0  0  0
 26 25  1  0  0  0  0
 27 26  1  0  0  0  0
 27 25  1  0  0  0  0
 30 29  1  1  0  0  0
 30 32  1  0  0  0  0
 31 24  1  6  0  0  0
 31 30  1  0  0  0  0
 31 29  1  0  0  0  0
 32 41  1  6  0  0  0
 32 34  1  0  0  0  0
 33 37  1  6  0  0  0
 35 43  2  0  0  0  0
 37 45  2  0  0  0  0
 38 46  1  6  0  0  0
 38 39  1  0  0  0  0
 39 45  1  0  0  0  0
 40 34  1  1  0  0  0
 40 33  1  0  0  0  0
 40 38  1  0  0  0  0
 41 43  1  0  0  0  0
 43 44  1  0  0  0  0
 44 42  1  0  0  0  0
 44 33  1  0  0  0  0
 45 36  1  0  0  0  0
 46 47  1  0  0  0  0
 49 48  1  0  0  0  0
 50 49  1  0  0  0  0
 51 50  1  1  0  0  0
 51 53  1  0  0  0  0
 51 52  1  0  0  0  0
 53 54  1  0  0  0  0
 53 52  1  0  0  0  0
 55 56  1  0  0  0  0
 55 54  1  0  0  0  0
 58 56  1  0  0  0  0
 58 57  1  0  0  0  0
M  END
>  <MODEL>
8

>  <REMARK>
 VINA RESULT:      -6.7      4.598     10.065
  Name = 
  17 active torsions:
  status: ('A' for Active; 'I' for Inactive)
    1  A    between atoms: C_2  and  C_26
    2  A    between atoms: C_3  and  O_14
    3  A    between atoms: C_5  and  C_29
    4  A    between atoms: C_10  and  N_44
    5  A    between atoms: C_13  and  C_49
    6  A    between atoms: O_14  and  C_38
    7  A    between atoms: C_22  and  C_30
    8  A    between atoms: C_22  and  O_45
    9  A    between atoms: C_30  and  C_31
   10  A    between atoms: C_31  and  N_48
   11  A    between atoms: N_32  and  C_36
   12  A    between atoms: N_32  and  C_49
   13  A    between atoms: C_36  and  C_53
   14  A    between atoms: N_44  and  C_51
   15  A    between atoms: N_44  and  C_52
   16  A    between atoms: C_52  and  C_53
   17  A    between atoms: C_53  and  C_58
                            x       y       z     vdW  Elec       q    Type
                         _______ _______ _______ _____ _____    ______ ____

>  <TORSDO>
F 17

$$$$
=
 OpenBabel10232409403D

 58 66  0  0  1  0  0  0  0  0999 V2000
  190.1330  175.1260  136.6840 C   0  0  1  0  0  3  0  0  0  0  0  0
  190.8360  175.7290  138.8920 O   0  0  0  0  0  0  0  0  0  0  0  0
  191.3230  176.8830  139.5820 C   0  0  0  0  0  2  0  0  0  0  0  0
  193.3870  176.4700  138.3190 C   0  0  0  0  0  3  0  0  0  0  0  0
  192.6040  175.4810  137.4190 C   0  0  1  0  0  3  0  0  0  0  0  0
  192.7790  177.0720  139.3530 C   0  0  0  0  0  3  0  0  0  0  0  0
  191.1240  175.8880  137.5370 C   0  0  1  0  0  3  0  0  0  0  0  0
  193.1120  175.2880  136.0420 O   0  0  0  0  0  0  0  0  0  0  0  0
  195.6920  173.5340  136.4580 C   0  0  0  0  0  0  0  0  0  0  0  0
  194.4230  175.6670  135.6540 C   0  0  0  0  0  0  0  0  0  0  0  0
  195.8300  177.4120  134.6950 C   0  0  0  0  0  3  0  0  0  0  0  0
  195.6350  174.8620  135.9130 C   0  0  0  0  0  0  0  0  0  0  0  0
  196.8040  171.6250  137.3580 C   0  0  0  0  0  2  0  0  0  0  0  0
  198.0940  174.8450  135.9100 C   0  0  0  0  0  3  0  0  0  0  0  0
  194.5950  176.8790  135.0180 C   0  0  0  0  0  3  0  0  0  0  0  0
  195.0270  170.2270  136.9280 O   0  0  0  0  0  1  0  0  0  0  0  0
  198.1330  173.5940  136.4900 C   0  0  0  0  0  3  0  0  0  0  0  0
  196.9200  172.9660  136.7480 C   0  0  0  0  0  0  0  0  0  0  0  0
  194.6150  172.5790  136.7900 C   0  0  0  0  0  2  0  0  0  0  0  0
  196.8810  175.4630  135.6130 C   0  0  0  0  0  0  0  0  0  0  0  0
  195.3250  171.4060  137.5070 C   0  0  2  0  0  3  0  0  0  0  0  0
  196.9850  176.7210  135.0170 C   0  0  0  0  0  3  0  0  0  0  0  0
  189.9860  173.6730  137.0340 C   0  0  0  0  0  2  0  0  0  0  0  0
  189.3210  172.8760  135.9970 N   0  0  0  0  0  0  0  0  0  0  0  0
  190.6530  171.5310  134.6790 C   0  0  0  0  0  0  0  0  0  0  0  0
  190.0800  172.8080  134.7520 C   0  0  2  0  0  3  0  0  0  0  0  0
  191.4220  172.8100  134.9220 O   0  0  0  0  0  0  0  0  0  0  0  0
  190.5120  170.2680  134.6060 O   0  0  0  0  0  0  0  0  0  0  0  0
  187.2300  172.8010  137.2250 C   0  0  0  0  0  2  0  0  0  0  0  0
  186.7520  171.9560  136.1030 C   0  0  2  0  0  3  0  0  0  0  0  0
  187.7660  173.1480  135.8890 C   0  0  2  0  0  3  0  0  0  0  0  0
  185.2360  172.3640  136.1840 C   0  0  1  0  0  3  0  0  0  0  0  0
  182.3970  173.3530  136.5320 C   0  0  1  0  0  3  0  0  0  0  0  0
  184.8840  173.7330  136.2920 O   0  0  0  0  0  0  0  0  0  0  0  0
  183.2590  169.9370  135.8670 O   0  0  0  0  0  0  0  0  0  0  0  0
  180.1100  174.9580  139.1570 C   0  0  0  0  0  1  0  0  0  0  0  0
  181.1520  173.7250  137.3380 C   0  0  0  0  0  3  0  0  0  0  0  0
  183.3090  175.5520  137.1510 C   0  0  2  0  0  3  0  0  0  0  0  0
  182.4190  175.5190  138.3200 O   0  0  0  0  0  0  0  0  0  0  0  0
  183.5090  174.0910  136.6020 C   0  0  2  0  0  3  0  0  0  0  0  0
  184.5370  171.7220  135.2340 O   0  0  0  0  0  0  0  0  0  0  0  0
  180.9130  171.5030  135.6180 C   0  0  0  0  0  1  0  0  0  0  0  0
  183.3190  171.2020  135.6050 C   0  0  0  0  0  0  0  0  0  0  0  0
  182.2530  172.0390  135.8770 N   0  0  0  0  0  0  0  0  0  0  0  0
  181.2910  174.7150  138.2200 C   0  0  0  0  0  0  0  0  0  0  0  0
  184.5080  176.3920  137.3630 C   0  0  0  0  0  2  0  0  0  0  0  0
  184.5690  177.4300  136.4250 O   0  0  0  0  0  1  0  0  0  0  0  0
  188.9660  175.9870  136.1550 C   0  0  0  0  0  2  0  0  0  0  0  0
  188.7340  177.2400  136.8660 N   0  0  0  0  0  2  0  0  0  0  0  0
  187.9170  177.0280  138.0640 C   0  0  0  0  0  2  0  0  0  0  0  0
  187.5200  178.4250  138.6070 C   0  0  1  0  0  3  0  0  0  0  0  0
  186.5400  178.4530  139.5510 O   0  0  0  0  0  0  0  0  0  0  0  0
  187.8790  178.6370  139.9410 N   0  0  0  0  0  0  0  0  0  0  0  0
  188.0320  177.6050  141.0160 C   0  0  0  0  0  2  0  0  0  0  0  0
  189.0080  177.9850  142.0310 C   0  0  0  0  0  2  0  0  0  0  0  0
  189.4800  176.8090  142.8890 C   0  0  0  0  0  2  0  0  0  0  0  0
  188.9040  177.6800  144.8400 C   0  0  0  0  0  1  0  0  0  0  0  0
  188.6510  176.6070  144.0010 O   0  0  0  0  0  0  0  0  0  0  0  0
  1 48  1  1  0  0  0
  1 23  1  0  0  0  0
  2  3  1  0  0  0  0
  4  6  2  0  0  0  0
  5  8  1  6  0  0  0
  5  7  1  0  0  0  0
  5  4  1  0  0  0  0
  6  3  1  0  0  0  0
  7  1  1  6  0  0  0
  7  2  1  0  0  0  0
  9 18  1  0  0  0  0
  9 19  1  0  0  0  0
 10 12  1  0  0  0  0
 10  8  1  0  0  0  0
 11 22  2  0  0  0  0
 11 15  1  0  0  0  0
 12  9  2  0  0  0  0
 13 21  1  0  0  0  0
 14 17  1  0  0  0  0
 15 10  2  0  0  0  0
 17 18  2  0  0  0  0
 18 13  1  0  0  0  0
 19 21  1  0  0  0  0
 20 14  2  0  0  0  0
 20 12  1  0  0  0  0
 21 16  1  6  0  0  0
 22 20  1  0  0  0  0
 24 23  1  0  0  0  0
 25 26  1  0  0  0  0
 25 27  1  0  0  0  0
 26 27  1  0  0  0  0
 26 24  1  1  0  0  0
 28 25  2  0  0  0  0
 30 32  1  0  0  0  0
 30 29  1  1  0  0  0
 31 24  1  1  0  0  0
 31 30  1  0  0  0  0
 31 29  1  0  0  0  0
 32 41  1  6  0  0  0
 32 34  1  0  0  0  0
 33 40  1  0  0  0  0
 33 37  1  1  0  0  0
 37 45  2  0  0  0  0
 38 46  1  1  0  0  0
 38 39  1  0  0  0  0
 40 34  1  1  0  0  0
 40 38  1  0  0  0  0
 41 43  1  0  0  0  0
 42 44  1  0  0  0  0
 43 35  2  0  0  0  0
 43 44  1  0  0  0  0
 44 33  1  0  0  0  0
 45 39  1  0  0  0  0
 45 36  1  0  0  0  0
 47 46  1  0  0  0  0
 48 49  1  0  0  0  0
 49 50  1  0  0  0  0
 51 50  1  1  0  0  0
 51 52  1  0  0  0  0
 51 53  1  0  0  0  0
 52 53  1  0  0  0  0
 53 54  1  0  0  0  0
 54 55  1  0  0  0  0
 55 56  1  0  0  0  0
 56 58  1  0  0  0  0
 58 57  1  0  0  0  0
M  END
>  <MODEL>
9

>  <REMARK>
 VINA RESULT:      -6.5      2.718      9.865
  Name = 
  17 active torsions:
  status: ('A' for Active; 'I' for Inactive)
    1  A    between atoms: C_2  and  C_26
    2  A    between atoms: C_3  and  O_14
    3  A    between atoms: C_5  and  C_29
    4  A    between atoms: C_10  and  N_44
    5  A    between atoms: C_13  and  C_49
    6  A    between atoms: O_14  and  C_38
    7  A    between atoms: C_22  and  C_30
    8  A    between atoms: C_22  and  O_45
    9  A    between atoms: C_30  and  C_31
   10  A    between atoms: C_31  and  N_48
   11  A    between atoms: N_32  and  C_36
   12  A    between atoms: N_32  and  C_49
   13  A    between atoms: C_36  and  C_53
   14  A    between atoms: N_44  and  C_51
   15  A    between atoms: N_44  and  C_52
   16  A    between atoms: C_52  and  C_53
   17  A    between atoms: C_53  and  C_58
                            x       y       z     vdW  Elec       q    Type
                         _______ _______ _______ _____ _____    ______ ____

>  <TORSDO>
F 17

$$$$
