=
 OpenBabel10232408553D

 51 53  0  0  1  0  0  0  0  0999 V2000
  183.9120  178.7030  145.4000 C   0  0  0  0  0  3  0  0  0  0  0  0
  183.6350  177.9380  142.0030 C   0  0  1  0  0  3  0  0  0  0  0  0
  185.0640  178.4760  141.9220 C   0  0  0  0  0  0  0  0  0  0  0  0
  183.2410  178.6090  144.2830 C   0  0  0  0  0  0  0  0  0  0  0  0
  186.1130  178.8940  144.1510 C   0  0  0  0  0  2  0  0  0  0  0  0
  185.2930  179.3020  145.3920 C   0  0  2  0  0  3  0  0  0  0  0  0
  185.5780  179.5350  142.8660 C   0  0  0  0  0  2  0  0  0  0  0  0
  185.9010  177.9100  141.0350 C   0  0  0  0  0  3  0  0  0  0  0  0
  182.7620  178.5280  143.0760 C   0  0  0  0  0  3  0  0  0  0  0  0
  182.0140  176.6660  138.6950 C   0  0  1  0  0  3  0  0  0  0  0  0
  182.6990  176.7520  140.0370 C   0  0  0  0  0  3  0  0  0  0  0  0
  183.9610  180.5570  138.6930 O   0  0  0  0  0  0  0  0  0  0  0  0
  183.3060  179.4890  138.7880 C   0  0  0  0  0  0  0  0  0  0  0  0
  183.3160  178.5600  137.6420 C   0  0  0  0  0  3  0  0  0  0  0  0
  182.6000  180.2760  140.9230 F   0  0  0  0  0  0  0  0  0  0  0  0
  180.5710  177.1400  138.7520 C   0  0  0  0  0  1  0  0  0  0  0  0
  182.7750  177.3250  137.5720 C   0  0  0  0  0  0  0  0  0  0  0  0
  182.5110  179.2160  140.0320 C   0  0  2  0  0  3  0  0  0  0  0  0
  182.9310  177.9190  140.6690 C   0  0  0  0  0  0  0  0  0  0  0  0
  182.8110  176.6250  136.3220 N   0  0  0  0  0  2  0  0  0  0  0  0
  185.6230  174.0930  135.7930 C   0  0  0  0  0  1  0  0  0  0  0  0
  184.3550  174.7030  136.2830 C   0  0  0  0  0  0  0  0  0  0  0  0
  183.6060  174.0500  137.0630 O   0  0  0  0  0  0  0  0  0  0  0  0
  183.9890  176.0140  135.8530 N   0  0  0  0  0  2  0  0  0  0  0  0
  187.8230  178.2070  139.4590 C   0  0  1  0  0  0  0  0  0  0  0  0
  189.0450  179.0380  139.1090 C   0  0  0  0  0  1  0  0  0  0  0  0
  188.1010  177.2320  140.4380 O   0  0  0  0  0  0  0  0  0  0  0  0
  187.3320  178.3420  140.8560 C   0  0  2  0  0  3  0  0  0  0  0  0
  187.3260  177.0150  137.2920 C   0  0  0  0  0  3  0  0  0  0  0  0
  186.9140  177.7020  138.3660 C   0  0  0  0  0  3  0  0  0  0  0  0
  188.7490  176.6540  137.0280 C   0  0  0  0  0  2  0  0  0  0  0  0
  188.8460  175.2830  136.6780 O   0  0  0  0  0  0  0  0  0  0  0  0
  189.9970  174.5370  136.9460 C   0  0  0  0  0  0  0  0  0  0  0  0
  189.9060  173.3740  137.4290 O   0  0  0  0  0  0  0  0  0  0  0  0
  191.2520  175.0960  136.6840 O   0  0  0  0  0  0  0  0  0  0  0  0
  192.2770  175.1460  137.6730 C   0  0  0  0  0  2  0  0  0  0  0  0
  192.2840  176.5090  138.3410 C   0  0  0  0  0  1  0  0  0  0  0  0
  186.0110  178.8220  146.6440 C   0  0  0  0  0  2  0  0  0  0  0  0
  186.7860  177.6200  146.3600 N   0  0  0  0  0  2  0  0  0  0  0  0
  188.4970  176.2010  147.8010 O   0  0  0  0  0  0  0  0  0  0  0  0
  188.1570  177.6220  147.4220 S   0  0  0  0  0  0  0  0  0  0  0  0
  187.8250  178.3970  148.6770 O   0  0  0  0  0  0  0  0  0  0  0  0
  189.5710  178.3920  146.6130 C   0  0  0  0  0  2  0  0  0  0  0  0
  189.2040  176.6820  144.9460 O   0  0  0  0  0  1  0  0  0  0  0  0
  190.1800  177.5510  145.4690 C   0  0  2  0  0  0  0  0  0  0  0  0
  191.3100  176.7370  146.0550 C   0  0  0  0  0  0  0  0  0  0  0  0
  191.9750  175.7850  145.2760 O   0  0  0  0  0  0  0  0  0  0  0  0
  191.7080  176.9620  147.2390 O   0  0  0  0  0  1  0  0  0  0  0  0
  190.6820  178.4820  144.3570 C   0  0  0  0  0  2  0  0  0  0  0  0
  191.3290  177.5790  142.1430 C   0  0  0  0  0  1  0  0  0  0  0  0
  190.1700  178.0900  142.9810 C   0  0  0  0  0  2  0  0  0  0  0  0
  2 19  1  6  0  0  0
  2  9  1  0  0  0  0
  3  2  1  0  0  0  0
  3  7  1  0  0  0  0
  4  1  2  0  0  0  0
  5  6  1  0  0  0  0
  6  1  1  0  0  0  0
  6 38  1  1  0  0  0
  7  5  1  0  0  0  0
  8  3  2  0  0  0  0
  9  4  2  0  0  0  0
 10 16  1  1  0  0  0
 10 11  1  0  0  0  0
 11 19  2  0  0  0  0
 12 13  2  0  0  0  0
 13 18  1  0  0  0  0
 14 13  1  0  0  0  0
 17 14  2  0  0  0  0
 17 10  1  0  0  0  0
 18 19  1  0  0  0  0
 18 15  1  1  0  0  0
 20 17  1  0  0  0  0
 21 22  1  0  0  0  0
 22 23  2  0  0  0  0
 24 22  1  0  0  0  0
 24 20  1  0  0  0  0
 25 26  1  6  0  0  0
 25 27  1  0  0  0  0
 25 28  1  0  0  0  0
 27 28  1  0  0  0  0
 28  8  1  6  0  0  0
 29 30  2  0  0  0  0
 30 25  1  0  0  0  0
 31 29  1  0  0  0  0
 32 33  1  0  0  0  0
 32 31  1  0  0  0  0
 33 34  2  0  0  0  0
 35 33  1  0  0  0  0
 35 36  1  0  0  0  0
 36 37  1  0  0  0  0
 39 38  1  0  0  0  0
 39 41  1  0  0  0  0
 41 40  2  0  0  0  0
 41 42  2  0  0  0  0
 43 41  1  0  0  0  0
 45 44  1  6  0  0  0
 45 46  1  0  0  0  0
 45 43  1  0  0  0  0
 46 48  1  0  0  0  0
 47 46  2  0  0  0  0
 49 45  1  0  0  0  0
 50 51  1  0  0  0  0
 51 49  1  0  0  0  0
M  END
>  <MODEL>
1

>  <REMARK>
 VINA RESULT:      -6.1      0.000      0.000
  Name = 
  18 active torsions:
  status: ('A' for Active; 'I' for Inactive)
    1  A    between atoms: C_3  and  C_51
    2  A    between atoms: C_8  and  C_32
    3  A    between atoms: C_10  and  C_12
    4  A    between atoms: C_11  and  O_27
    5  A    between atoms: C_12  and  N_36
    6  A    between atoms: C_13  and  C_44
    7  A    between atoms: C_13  and  C_45
    8  A    between atoms: S_16  and  C_18
    9  A    between atoms: S_16  and  N_36
   10  A    between atoms: O_17  and  C_46
   11  A    between atoms: O_17  and  C_47
   12  A    between atoms: C_18  and  C_45
   13  A    between atoms: C_21  and  C_39
   14  A    between atoms: C_24  and  C_45
   15  A    between atoms: N_25  and  N_43
   16  A    between atoms: O_27  and  C_46
   17  A    between atoms: C_29  and  C_47
   18  A    between atoms: N_43  and  C_48
                            x       y       z     vdW  Elec       q    Type
                         _______ _______ _______ _____ _____    ______ ____

>  <TORSDO>
F 18

$$$$
=
 OpenBabel10232408553D

 51 53  0  0  1  0  0  0  0  0999 V2000
  186.9240  174.9370  136.0590 C   0  0  0  0  0  3  0  0  0  0  0  0
  190.2290  174.8070  137.1840 C   0  0  1  0  0  3  0  0  0  0  0  0
  189.8860  176.1290  137.8730 C   0  0  0  0  0  0  0  0  0  0  0  0
  188.1900  174.6480  135.9120 C   0  0  0  0  0  0  0  0  0  0  0  0
  187.4540  176.6970  137.8090 C   0  0  0  0  0  2  0  0  0  0  0  0
  186.5270  176.2610  136.6560 C   0  0  2  0  0  3  0  0  0  0  0  0
  188.8540  177.0790  137.3160 C   0  0  0  0  0  2  0  0  0  0  0  0
  190.4650  176.3920  139.0570 C   0  0  0  0  0  3  0  0  0  0  0  0
  189.4830  174.5060  135.9130 C   0  0  0  0  0  3  0  0  0  0  0  0
  193.7410  173.1180  137.1470 C   0  0  1  0  0  3  0  0  0  0  0  0
  192.2630  173.3930  137.2810 C   0  0  0  0  0  3  0  0  0  0  0  0
  193.4860  177.3630  138.0690 O   0  0  0  0  0  0  0  0  0  0  0  0
  193.5080  176.1710  137.6730 C   0  0  0  0  0  0  0  0  0  0  0  0
  194.4820  175.2480  138.2880 C   0  0  0  0  0  3  0  0  0  0  0  0
  191.8280  176.8050  136.1090 F   0  0  0  0  0  0  0  0  0  0  0  0
  194.2210  173.2310  135.7100 C   0  0  0  0  0  1  0  0  0  0  0  0
  194.6040  173.9180  138.0900 C   0  0  0  0  0  0  0  0  0  0  0  0
  192.5830  175.7390  136.5730 C   0  0  2  0  0  3  0  0  0  0  0  0
  191.7120  174.5930  137.0160 C   0  0  0  0  0  0  0  0  0  0  0  0
  195.6910  173.2240  138.7150 N   0  0  0  0  0  2  0  0  0  0  0  0
  199.2070  173.7240  137.3090 C   0  0  0  0  0  1  0  0  0  0  0  0
  197.9430  173.9780  138.0550 C   0  0  0  0  0  0  0  0  0  0  0  0
  197.8060  175.0510  138.7070 O   0  0  0  0  0  0  0  0  0  0  0  0
  196.9060  172.9980  138.0410 N   0  0  0  0  0  2  0  0  0  0  0  0
  190.1760  177.4410  141.3100 C   0  0  1  0  0  0  0  0  0  0  0  0
  190.4000  178.6820  142.1570 C   0  0  0  0  0  1  0  0  0  0  0  0
  188.9950  177.5220  140.5450 O   0  0  0  0  0  0  0  0  0  0  0  0
  190.2130  177.6520  139.8390 C   0  0  2  0  0  3  0  0  0  0  0  0
  189.5960  175.4840  142.7910 C   0  0  0  0  0  3  0  0  0  0  0  0
  190.4050  176.0720  141.9000 C   0  0  0  0  0  3  0  0  0  0  0  0
  188.3510  176.1090  143.3280 C   0  0  0  0  0  2  0  0  0  0  0  0
  188.6350  176.7960  144.5360 O   0  0  0  0  0  0  0  0  0  0  0  0
  187.6270  177.4130  145.2820 C   0  0  0  0  0  0  0  0  0  0  0  0
  186.4410  177.4450  144.8470 O   0  0  0  0  0  0  0  0  0  0  0  0
  187.9450  178.0020  146.5090 O   0  0  0  0  0  0  0  0  0  0  0  0
  188.1520  177.2270  147.6880 C   0  0  0  0  0  2  0  0  0  0  0  0
  188.3220  178.1440  148.8850 C   0  0  0  0  0  1  0  0  0  0  0  0
  185.1070  176.1220  137.1820 C   0  0  0  0  0  2  0  0  0  0  0  0
  184.4540  177.4240  137.2400 N   0  0  0  0  0  2  0  0  0  0  0  0
  182.2860  175.9710  137.6960 O   0  0  0  0  0  0  0  0  0  0  0  0
  182.9860  177.2310  138.1440 S   0  0  0  0  0  0  0  0  0  0  0  0
  182.0760  178.4120  137.8900 O   0  0  0  0  0  0  0  0  0  0  0  0
  183.3470  177.1360  139.9060 C   0  0  0  0  0  2  0  0  0  0  0  0
  182.2660  179.2230  140.4680 O   0  0  0  0  0  1  0  0  0  0  0  0
  183.4730  178.5110  140.6000 C   0  0  2  0  0  0  0  0  0  0  0  0
  184.5790  179.2710  139.9050 C   0  0  0  0  0  0  0  0  0  0  0  0
  185.8980  178.8140  139.9650 O   0  0  0  0  0  1  0  0  0  0  0  0
  184.3040  180.2930  139.2040 O   0  0  0  0  0  0  0  0  0  0  0  0
  183.7860  178.3090  142.0890 C   0  0  0  0  0  2  0  0  0  0  0  0
  183.2740  179.0640  144.3920 C   0  0  0  0  0  1  0  0  0  0  0  0
  182.7010  178.8580  143.0010 C   0  0  0  0  0  2  0  0  0  0  0  0
  1  6  1  0  0  0  0
  2 19  1  6  0  0  0
  2  3  1  0  0  0  0
  3  8  2  0  0  0  0
  4  9  2  0  0  0  0
  4  1  2  0  0  0  0
  6 38  1  1  0  0  0
  6  5  1  0  0  0  0
  7  5  1  0  0  0  0
  7  3  1  0  0  0  0
  9  2  1  0  0  0  0
 10 16  1  6  0  0  0
 10 11  1  0  0  0  0
 10 17  1  0  0  0  0
 13 12  2  0  0  0  0
 13 14  1  0  0  0  0
 17 14  2  0  0  0  0
 17 20  1  0  0  0  0
 18 15  1  1  0  0  0
 18 19  1  0  0  0  0
 18 13  1  0  0  0  0
 19 11  2  0  0  0  0
 21 22  1  0  0  0  0
 22 23  2  0  0  0  0
 24 22  1  0  0  0  0
 24 20  1  0  0  0  0
 25 30  1  0  0  0  0
 25 26  1  1  0  0  0
 27 25  1  0  0  0  0
 28  8  1  6  0  0  0
 28 27  1  0  0  0  0
 28 25  1  0  0  0  0
 29 31  1  0  0  0  0
 30 29  2  0  0  0  0
 31 32  1  0  0  0  0
 32 33  1  0  0  0  0
 33 35  1  0  0  0  0
 34 33  2  0  0  0  0
 35 36  1  0  0  0  0
 36 37  1  0  0  0  0
 38 39  1  0  0  0  0
 39 41  1  0  0  0  0
 40 41  2  0  0  0  0
 41 43  1  0  0  0  0
 42 41  2  0  0  0  0
 43 45  1  0  0  0  0
 45 44  1  6  0  0  0
 45 49  1  0  0  0  0
 46 47  1  0  0  0  0
 46 45  1  0  0  0  0
 48 46  2  0  0  0  0
 49 51  1  0  0  0  0
 51 50  1  0  0  0  0
M  END
>  <MODEL>
2

>  <REMARK>
 VINA RESULT:      -5.8      4.115      9.866
  Name = 
  18 active torsions:
  status: ('A' for Active; 'I' for Inactive)
    1  A    between atoms: C_3  and  C_51
    2  A    between atoms: C_8  and  C_32
    3  A    between atoms: C_10  and  C_12
    4  A    between atoms: C_11  and  O_27
    5  A    between atoms: C_12  and  N_36
    6  A    between atoms: C_13  and  C_44
    7  A    between atoms: C_13  and  C_45
    8  A    between atoms: S_16  and  C_18
    9  A    between atoms: S_16  and  N_36
   10  A    between atoms: O_17  and  C_46
   11  A    between atoms: O_17  and  C_47
   12  A    between atoms: C_18  and  C_45
   13  A    between atoms: C_21  and  C_39
   14  A    between atoms: C_24  and  C_45
   15  A    between atoms: N_25  and  N_43
   16  A    between atoms: O_27  and  C_46
   17  A    between atoms: C_29  and  C_47
   18  A    between atoms: N_43  and  C_48
                            x       y       z     vdW  Elec       q    Type
                         _______ _______ _______ _____ _____    ______ ____

>  <TORSDO>
F 18

$$$$
=
 OpenBabel10232408553D

 51 53  0  0  1  0  0  0  0  0999 V2000
  191.7220  177.6090  140.1410 C   0  0  0  0  0  3  0  0  0  0  0  0
  192.9500  176.2150  137.1830 C   0  0  1  0  0  3  0  0  0  0  0  0
  191.6060  175.4850  137.1490 C   0  0  0  0  0  0  0  0  0  0  0  0
  192.6820  177.1350  139.3940 C   0  0  0  0  0  0  0  0  0  0  0  0
  189.9690  176.3060  138.8480 C   0  0  0  0  0  2  0  0  0  0  0  0
  190.4040  176.8850  140.2100 C   0  0  2  0  0  3  0  0  0  0  0  0
  190.8520  175.1340  138.4080 C   0  0  0  0  0  2  0  0  0  0  0  0
  191.0530  175.2390  135.9490 C   0  0  0  0  0  3  0  0  0  0  0  0
  193.4850  176.5610  138.5460 C   0  0  0  0  0  3  0  0  0  0  0  0
  195.7520  173.7870  135.9830 C   0  0  1  0  0  3  0  0  0  0  0  0
  194.6770  174.4820  136.7820 C   0  0  0  0  0  3  0  0  0  0  0  0
  195.8590  177.9190  134.6230 O   0  0  0  0  0  0  0  0  0  0  0  0
  195.7040  176.7150  134.9440 C   0  0  0  0  0  0  0  0  0  0  0  0
  196.9060  175.9120  135.2440 C   0  0  0  0  0  3  0  0  0  0  0  0
  193.3770  177.0590  134.5730 F   0  0  0  0  0  0  0  0  0  0  0  0
  195.2100  173.1500  134.7150 C   0  0  0  0  0  1  0  0  0  0  0  0
  196.9620  174.6440  135.7050 C   0  0  0  0  0  0  0  0  0  0  0  0
  194.3230  176.1270  134.9720 C   0  0  2  0  0  3  0  0  0  0  0  0
  194.0040  175.5580  136.3290 C   0  0  0  0  0  0  0  0  0  0  0  0
  198.2420  174.0120  135.8340 N   0  0  0  0  0  2  0  0  0  0  0  0
  199.9250  174.9420  139.1350 C   0  0  0  0  0  1  0  0  0  0  0  0
  198.9100  174.4360  138.1690 C   0  0  0  0  0  0  0  0  0  0  0  0
  197.8140  173.9770  138.5960 O   0  0  0  0  0  0  0  0  0  0  0  0
  199.1930  174.4590  136.7710 N   0  0  0  0  0  2  0  0  0  0  0  0
  188.7600  175.2900  134.9480 C   0  0  1  0  0  0  0  0  0  0  0  0
  187.6320  174.4690  134.3470 C   0  0  0  0  0  1  0  0  0  0  0  0
  188.7120  175.3150  136.3570 O   0  0  0  0  0  0  0  0  0  0  0  0
  189.7360  174.5330  135.7750 C   0  0  2  0  0  3  0  0  0  0  0  0
  188.3490  177.7130  134.3800 C   0  0  0  0  0  3  0  0  0  0  0  0
  189.1280  176.6240  134.3470 C   0  0  0  0  0  3  0  0  0  0  0  0
  187.0010  177.7550  135.0190 C   0  0  0  0  0  2  0  0  0  0  0  0
  187.0980  178.3070  136.3220 O   0  0  0  0  0  0  0  0  0  0  0  0
  186.2850  177.8620  137.3690 C   0  0  0  0  0  0  0  0  0  0  0  0
  185.7630  176.7120  137.3250 O   0  0  0  0  0  0  0  0  0  0  0  0
  186.0480  178.7040  138.4590 O   0  0  0  0  0  0  0  0  0  0  0  0
  184.7730  178.7820  139.0900 C   0  0  0  0  0  2  0  0  0  0  0  0
  184.9460  179.0810  140.5680 C   0  0  0  0  0  1  0  0  0  0  0  0
  189.3560  177.8790  140.6880 C   0  0  0  0  0  2  0  0  0  0  0  0
  188.1820  177.1800  141.1950 N   0  0  0  0  0  2  0  0  0  0  0  0
  189.3960  178.1180  143.3550 O   0  0  0  0  0  0  0  0  0  0  0  0
  188.2580  177.2240  142.9270 S   0  0  0  0  0  0  0  0  0  0  0  0
  188.5050  175.8300  143.4590 O   0  0  0  0  0  0  0  0  0  0  0  0
  186.7070  177.8440  143.6040 C   0  0  0  0  0  2  0  0  0  0  0  0
  186.2680  176.5910  145.6230 O   0  0  0  0  0  1  0  0  0  0  0  0
  186.6540  177.8590  145.1480 C   0  0  2  0  0  0  0  0  0  0  0  0
  185.6190  178.8810  145.5570 C   0  0  0  0  0  0  0  0  0  0  0  0
  185.2560  179.0220  146.9000 O   0  0  0  0  0  1  0  0  0  0  0  0
  185.1250  179.6660  144.6910 O   0  0  0  0  0  0  0  0  0  0  0  0
  188.0390  178.2130  145.7070 C   0  0  0  0  0  2  0  0  0  0  0  0
  188.3700  178.0190  148.1540 C   0  0  0  0  0  1  0  0  0  0  0  0
  188.4790  177.2870  146.8280 C   0  0  0  0  0  2  0  0  0  0  0  0
  1  6  1  0  0  0  0
  2 19  1  1  0  0  0
  2  9  1  0  0  0  0
  3  2  1  0  0  0  0
  3  7  1  0  0  0  0
  4  1  2  0  0  0  0
  5  6  1  0  0  0  0
  6 38  1  6  0  0  0
  7  5  1  0  0  0  0
  8  3  2  0  0  0  0
  9  4  2  0  0  0  0
 10 16  1  6  0  0  0
 10 11  1  0  0  0  0
 12 13  2  0  0  0  0
 13 18  1  0  0  0  0
 13 14  1  0  0  0  0
 14 17  2  0  0  0  0
 17 20  1  0  0  0  0
 17 10  1  0  0  0  0
 18 15  1  1  0  0  0
 18 19  1  0  0  0  0
 19 11  2  0  0  0  0
 20 24  1  0  0  0  0
 22 23  2  0  0  0  0
 22 21  1  0  0  0  0
 24 22  1  0  0  0  0
 25 26  1  6  0  0  0
 25 28  1  0  0  0  0
 25 27  1  0  0  0  0
 28  8  1  1  0  0  0
 28 27  1  0  0  0  0
 29 31  1  0  0  0  0
 30 29  2  0  0  0  0
 30 25  1  0  0  0  0
 31 32  1  0  0  0  0
 32 33  1  0  0  0  0
 33 35  1  0  0  0  0
 34 33  2  0  0  0  0
 35 36  1  0  0  0  0
 36 37  1  0  0  0  0
 38 39  1  0  0  0  0
 39 41  1  0  0  0  0
 41 40  2  0  0  0  0
 41 42  2  0  0  0  0
 41 43  1  0  0  0  0
 43 45  1  0  0  0  0
 45 46  1  0  0  0  0
 45 44  1  1  0  0  0
 45 49  1  0  0  0  0
 46 47  1  0  0  0  0
 48 46  2  0  0  0  0
 49 51  1  0  0  0  0
 51 50  1  0  0  0  0
M  END
>  <MODEL>
3

>  <REMARK>
 VINA RESULT:      -5.5      4.752      9.477
  Name = 
  18 active torsions:
  status: ('A' for Active; 'I' for Inactive)
    1  A    between atoms: C_3  and  C_51
    2  A    between atoms: C_8  and  C_32
    3  A    between atoms: C_10  and  C_12
    4  A    between atoms: C_11  and  O_27
    5  A    between atoms: C_12  and  N_36
    6  A    between atoms: C_13  and  C_44
    7  A    between atoms: C_13  and  C_45
    8  A    between atoms: S_16  and  C_18
    9  A    between atoms: S_16  and  N_36
   10  A    between atoms: O_17  and  C_46
   11  A    between atoms: O_17  and  C_47
   12  A    between atoms: C_18  and  C_45
   13  A    between atoms: C_21  and  C_39
   14  A    between atoms: C_24  and  C_45
   15  A    between atoms: N_25  and  N_43
   16  A    between atoms: O_27  and  C_46
   17  A    between atoms: C_29  and  C_47
   18  A    between atoms: N_43  and  C_48
                            x       y       z     vdW  Elec       q    Type
                         _______ _______ _______ _____ _____    ______ ____

>  <TORSDO>
F 18

$$$$
=
 OpenBabel10232408553D

 51 53  0  0  1  0  0  0  0  0999 V2000
  187.1580  178.5560  141.1920 C   0  0  0  0  0  3  0  0  0  0  0  0
  184.2750  178.0060  139.2970 C   0  0  1  0  0  3  0  0  0  0  0  0
  185.2610  177.6820  138.1730 C   0  0  0  0  0  0  0  0  0  0  0  0
  185.9250  178.8210  140.8520 C   0  0  0  0  0  0  0  0  0  0  0  0
  187.6340  177.5020  138.9330 C   0  0  0  0  0  2  0  0  0  0  0  0
  188.1890  178.3090  140.1240 C   0  0  2  0  0  3  0  0  0  0  0  0
  186.6310  178.3090  138.1020 C   0  0  0  0  0  2  0  0  0  0  0  0
  184.9120  176.7380  137.2820 C   0  0  0  0  0  3  0  0  0  0  0  0
  184.7460  178.9940  140.3300 C   0  0  0  0  0  3  0  0  0  0  0  0
  181.3820  179.3260  137.0450 C   0  0  1  0  0  3  0  0  0  0  0  0
  182.7330  178.9430  137.5970 C   0  0  0  0  0  3  0  0  0  0  0  0
  180.9020  179.5110  141.3650 O   0  0  0  0  0  0  0  0  0  0  0  0
  181.0450  179.3150  140.1330 C   0  0  0  0  0  0  0  0  0  0  0  0
  180.5220  180.3310  139.1990 C   0  0  0  0  0  3  0  0  0  0  0  0
  182.0240  177.2250  140.7200 F   0  0  0  0  0  0  0  0  0  0  0  0
  180.5040  178.1160  136.7750 C   0  0  0  0  0  1  0  0  0  0  0  0
  180.6600  180.3720  137.8560 C   0  0  0  0  0  0  0  0  0  0  0  0
  181.6960  178.0500  139.6540 C   0  0  2  0  0  3  0  0  0  0  0  0
  182.8950  178.3500  138.7950 C   0  0  0  0  0  0  0  0  0  0  0  0
  179.9830  181.4010  137.1240 N   0  0  0  0  0  2  0  0  0  0  0  0
  181.1120  184.9830  136.4220 C   0  0  0  0  0  1  0  0  0  0  0  0
  180.7540  183.5530  136.2010 C   0  0  0  0  0  0  0  0  0  0  0  0
  180.8390  183.0590  135.0420 O   0  0  0  0  0  0  0  0  0  0  0  0
  180.3020  182.7610  137.2980 N   0  0  0  0  0  2  0  0  0  0  0  0
  186.2470  174.9100  136.2140 C   0  0  1  0  0  0  0  0  0  0  0  0
  186.7150  174.2950  134.9060 C   0  0  0  0  0  1  0  0  0  0  0  0
  187.0680  175.9790  136.6260 O   0  0  0  0  0  0  0  0  0  0  0  0
  185.7890  176.3220  136.1320 C   0  0  2  0  0  3  0  0  0  0  0  0
  185.0110  172.9600  137.2280 C   0  0  0  0  0  3  0  0  0  0  0  0
  185.8150  174.0230  137.3550 C   0  0  0  0  0  3  0  0  0  0  0  0
  184.4250  172.5060  135.9330 C   0  0  0  0  0  2  0  0  0  0  0  0
  183.3780  171.5800  136.1720 O   0  0  0  0  0  0  0  0  0  0  0  0
  182.0800  172.0030  136.4720 C   0  0  0  0  0  0  0  0  0  0  0  0
  181.0830  171.3410  136.0660 O   0  0  0  0  0  0  0  0  0  0  0  0
  181.8950  173.1720  137.2160 O   0  0  0  0  0  0  0  0  0  0  0  0
  181.1920  174.2970  136.6940 C   0  0  0  0  0  2  0  0  0  0  0  0
  182.0340  174.9870  135.6380 C   0  0  0  0  0  1  0  0  0  0  0  0
  189.3360  177.5380  140.7590 C   0  0  0  0  0  2  0  0  0  0  0  0
  189.4660  177.8830  142.1690 N   0  0  0  0  0  2  0  0  0  0  0  0
  190.5190  175.4570  142.3250 O   0  0  0  0  0  0  0  0  0  0  0  0
  189.5970  176.4000  143.0580 S   0  0  0  0  0  0  0  0  0  0  0  0
  188.2330  175.7580  143.1750 O   0  0  0  0  0  0  0  0  0  0  0  0
  190.2390  176.7200  144.7110 C   0  0  0  0  0  2  0  0  0  0  0  0
  189.4260  178.8360  145.5490 O   0  0  0  0  0  1  0  0  0  0  0  0
  189.2430  177.4430  145.6460 C   0  0  2  0  0  0  0  0  0  0  0  0
  189.5400  176.9990  147.0590 C   0  0  0  0  0  0  0  0  0  0  0  0
  190.6750  176.2300  147.3350 O   0  0  0  0  0  0  0  0  0  0  0  0
  188.7970  177.3800  148.0140 O   0  0  0  0  0  1  0  0  0  0  0  0
  187.8060  177.0880  145.2400 C   0  0  0  0  0  2  0  0  0  0  0  0
  185.6730  178.1660  145.8920 C   0  0  0  0  0  1  0  0  0  0  0  0
  186.9260  178.3110  145.0460 C   0  0  0  0  0  2  0  0  0  0  0  0
  2 19  1  6  0  0  0
  2  9  1  0  0  0  0
  3  2  1  0  0  0  0
  4  1  2  0  0  0  0
  5  6  1  0  0  0  0
  6 38  1  1  0  0  0
  6  1  1  0  0  0  0
  7  3  1  0  0  0  0
  7  5  1  0  0  0  0
  8  3  2  0  0  0  0
  9  4  2  0  0  0  0
 10 16  1  1  0  0  0
 10 11  1  0  0  0  0
 10 17  1  0  0  0  0
 11 19  2  0  0  0  0
 13 12  2  0  0  0  0
 14 13  1  0  0  0  0
 17 14  2  0  0  0  0
 18 13  1  0  0  0  0
 18 15  1  1  0  0  0
 19 18  1  0  0  0  0
 20 24  1  0  0  0  0
 20 17  1  0  0  0  0
 22 21  1  0  0  0  0
 22 24  1  0  0  0  0
 23 22  2  0  0  0  0
 25 26  1  6  0  0  0
 25 27  1  0  0  0  0
 25 30  1  0  0  0  0
 28 25  1  0  0  0  0
 28 27  1  0  0  0  0
 28  8  1  1  0  0  0
 29 30  2  0  0  0  0
 31 32  1  0  0  0  0
 31 29  1  0  0  0  0
 32 33  1  0  0  0  0
 33 35  1  0  0  0  0
 34 33  2  0  0  0  0
 36 35  1  0  0  0  0
 37 36  1  0  0  0  0
 38 39  1  0  0  0  0
 39 41  1  0  0  0  0
 40 41  2  0  0  0  0
 41 42  2  0  0  0  0
 41 43  1  0  0  0  0
 43 45  1  0  0  0  0
 45 44  1  6  0  0  0
 45 46  1  0  0  0  0
 46 47  2  0  0  0  0
 46 48  1  0  0  0  0
 49 45  1  0  0  0  0
 51 49  1  0  0  0  0
 51 50  1  0  0  0  0
M  END
>  <MODEL>
4

>  <REMARK>
 VINA RESULT:      -5.5      2.850      5.757
  Name = 
  18 active torsions:
  status: ('A' for Active; 'I' for Inactive)
    1  A    between atoms: C_3  and  C_51
    2  A    between atoms: C_8  and  C_32
    3  A    between atoms: C_10  and  C_12
    4  A    between atoms: C_11  and  O_27
    5  A    between atoms: C_12  and  N_36
    6  A    between atoms: C_13  and  C_44
    7  A    between atoms: C_13  and  C_45
    8  A    between atoms: S_16  and  C_18
    9  A    between atoms: S_16  and  N_36
   10  A    between atoms: O_17  and  C_46
   11  A    between atoms: O_17  and  C_47
   12  A    between atoms: C_18  and  C_45
   13  A    between atoms: C_21  and  C_39
   14  A    between atoms: C_24  and  C_45
   15  A    between atoms: N_25  and  N_43
   16  A    between atoms: O_27  and  C_46
   17  A    between atoms: C_29  and  C_47
   18  A    between atoms: N_43  and  C_48
                            x       y       z     vdW  Elec       q    Type
                         _______ _______ _______ _____ _____    ______ ____

>  <TORSDO>
F 18

$$$$
=
 OpenBabel10232408553D

 51 53  0  0  1  0  0  0  0  0999 V2000
  189.5460  176.8410  135.0110 C   0  0  0  0  0  3  0  0  0  0  0  0
  187.2280  177.9590  137.3730 C   0  0  1  0  0  3  0  0  0  0  0  0
  188.1180  177.2180  138.3720 C   0  0  0  0  0  0  0  0  0  0  0  0
  188.3340  177.1420  135.3950 C   0  0  0  0  0  0  0  0  0  0  0  0
  190.2840  176.4350  137.4050 C   0  0  0  0  0  2  0  0  0  0  0  0
  190.4390  176.0410  135.9220 C   0  0  2  0  0  3  0  0  0  0  0  0
  188.9300  176.0080  137.9800 C   0  0  0  0  0  2  0  0  0  0  0  0
  188.2400  177.7310  139.6090 C   0  0  0  0  0  3  0  0  0  0  0  0
  187.2000  177.4090  135.9730 C   0  0  0  0  0  3  0  0  0  0  0  0
  184.2850  179.0820  139.6680 C   0  0  1  0  0  3  0  0  0  0  0  0
  185.6500  178.8140  139.0840 C   0  0  0  0  0  3  0  0  0  0  0  0
  183.7490  175.5540  137.1780 O   0  0  0  0  0  0  0  0  0  0  0  0
  183.9160  176.6460  137.7750 C   0  0  0  0  0  0  0  0  0  0  0  0
  183.3440  176.7990  139.1260 C   0  0  0  0  0  3  0  0  0  0  0  0
  185.0120  177.3990  135.7980 F   0  0  0  0  0  0  0  0  0  0  0  0
  183.4830  180.0660  138.8330 C   0  0  0  0  0  1  0  0  0  0  0  0
  183.4930  177.8360  139.9770 C   0  0  0  0  0  0  0  0  0  0  0  0
  184.6470  177.7620  137.0860 C   0  0  2  0  0  3  0  0  0  0  0  0
  185.8350  178.2110  137.8930 C   0  0  0  0  0  0  0  0  0  0  0  0
  182.7630  177.8270  141.2110 N   0  0  0  0  0  2  0  0  0  0  0  0
  183.2760  179.3610  144.6730 C   0  0  0  0  0  1  0  0  0  0  0  0
  182.6100  178.9280  143.4120 C   0  0  0  0  0  0  0  0  0  0  0  0
  181.3840  179.1740  143.2350 O   0  0  0  0  0  0  0  0  0  0  0  0
  183.3600  178.2240  142.4230 N   0  0  0  0  0  2  0  0  0  0  0  0
  188.4760  177.1810  142.0390 C   0  0  1  0  0  0  0  0  0  0  0  0
  189.0120  176.1880  143.0570 C   0  0  0  0  0  1  0  0  0  0  0  0
  189.4590  178.0980  141.6170 O   0  0  0  0  0  0  0  0  0  0  0  0
  189.0850  177.1040  140.6840 C   0  0  2  0  0  3  0  0  0  0  0  0
  186.5800  178.0790  143.4390 C   0  0  0  0  0  3  0  0  0  0  0  0
  187.1230  177.8170  142.2430 C   0  0  0  0  0  3  0  0  0  0  0  0
  187.2410  177.7730  144.7410 C   0  0  0  0  0  2  0  0  0  0  0  0
  186.2710  177.7050  145.7740 O   0  0  0  0  0  0  0  0  0  0  0  0
  186.3480  178.5210  146.9060 C   0  0  0  0  0  0  0  0  0  0  0  0
  185.6270  179.5550  146.9980 O   0  0  0  0  0  0  0  0  0  0  0  0
  187.2390  178.1880  147.9320 O   0  0  0  0  0  0  0  0  0  0  0  0
  188.1270  177.0790  147.8300 C   0  0  0  0  0  2  0  0  0  0  0  0
  189.5600  177.5710  147.7480 C   0  0  0  0  0  1  0  0  0  0  0  0
  191.8760  176.2850  135.4880 C   0  0  0  0  0  2  0  0  0  0  0  0
  192.5950  175.0220  135.3670 N   0  0  0  0  0  2  0  0  0  0  0  0
  193.1290  174.3150  137.8630 O   0  0  0  0  0  0  0  0  0  0  0  0
  193.7580  174.9600  136.6520 S   0  0  0  0  0  0  0  0  0  0  0  0
  194.1890  176.3640  137.0130 O   0  0  0  0  0  0  0  0  0  0  0  0
  195.2040  174.0150  136.1390 C   0  0  0  0  0  2  0  0  0  0  0  0
  196.7870  175.8100  136.4730 O   0  0  0  0  0  1  0  0  0  0  0  0
  196.5220  174.4680  136.8050 C   0  0  2  0  0  0  0  0  0  0  0  0
  197.6290  173.5930  136.2640 C   0  0  0  0  0  0  0  0  0  0  0  0
  198.7930  174.1650  135.7420 O   0  0  0  0  0  0  0  0  0  0  0  0
  197.5370  172.3300  136.3450 O   0  0  0  0  0  1  0  0  0  0  0  0
  196.4000  174.3340  138.3300 C   0  0  0  0  0  2  0  0  0  0  0  0
  197.2970  175.2240  140.4600 C   0  0  0  0  0  1  0  0  0  0  0  0
  197.6630  174.7540  139.0630 C   0  0  0  0  0  2  0  0  0  0  0  0
  1  4  2  0  0  0  0
  1  6  1  0  0  0  0
  2 19  1  1  0  0  0
  2  3  1  0  0  0  0
  3  8  2  0  0  0  0
  4  9  2  0  0  0  0
  5  7  1  0  0  0  0
  6 38  1  6  0  0  0
  6  5  1  0  0  0  0
  7  3  1  0  0  0  0
  9  2  1  0  0  0  0
 10 16  1  6  0  0  0
 10 17  1  0  0  0  0
 11 10  1  0  0  0  0
 12 13  2  0  0  0  0
 13 14  1  0  0  0  0
 14 17  2  0  0  0  0
 17 20  1  0  0  0  0
 18 15  1  6  0  0  0
 18 13  1  0  0  0  0
 18 19  1  0  0  0  0
 19 11  2  0  0  0  0
 20 24  1  0  0  0  0
 22 21  1  0  0  0  0
 23 22  2  0  0  0  0
 24 22  1  0  0  0  0
 25 30  1  0  0  0  0
 25 26  1  1  0  0  0
 27 25  1  0  0  0  0
 28  8  1  6  0  0  0
 28 27  1  0  0  0  0
 28 25  1  0  0  0  0
 29 31  1  0  0  0  0
 30 29  2  0  0  0  0
 31 32  1  0  0  0  0
 32 33  1  0  0  0  0
 33 34  2  0  0  0  0
 33 35  1  0  0  0  0
 36 35  1  0  0  0  0
 37 36  1  0  0  0  0
 39 38  1  0  0  0  0
 39 41  1  0  0  0  0
 41 42  2  0  0  0  0
 41 40  2  0  0  0  0
 43 41  1  0  0  0  0
 43 45  1  0  0  0  0
 45 44  1  6  0  0  0
 45 49  1  0  0  0  0
 46 48  1  0  0  0  0
 46 45  1  0  0  0  0
 47 46  2  0  0  0  0
 49 51  1  0  0  0  0
 51 50  1  0  0  0  0
M  END
>  <MODEL>
5

>  <REMARK>
 VINA RESULT:      -5.4      3.823      8.742
  Name = 
  18 active torsions:
  status: ('A' for Active; 'I' for Inactive)
    1  A    between atoms: C_3  and  C_51
    2  A    between atoms: C_8  and  C_32
    3  A    between atoms: C_10  and  C_12
    4  A    between atoms: C_11  and  O_27
    5  A    between atoms: C_12  and  N_36
    6  A    between atoms: C_13  and  C_44
    7  A    between atoms: C_13  and  C_45
    8  A    between atoms: S_16  and  C_18
    9  A    between atoms: S_16  and  N_36
   10  A    between atoms: O_17  and  C_46
   11  A    between atoms: O_17  and  C_47
   12  A    between atoms: C_18  and  C_45
   13  A    between atoms: C_21  and  C_39
   14  A    between atoms: C_24  and  C_45
   15  A    between atoms: N_25  and  N_43
   16  A    between atoms: O_27  and  C_46
   17  A    between atoms: C_29  and  C_47
   18  A    between atoms: N_43  and  C_48
                            x       y       z     vdW  Elec       q    Type
                         _______ _______ _______ _____ _____    ______ ____

>  <TORSDO>
F 18

$$$$
=
 OpenBabel10232408553D

 51 53  0  0  1  0  0  0  0  0999 V2000
  186.7530  176.8070  136.8270 C   0  0  0  0  0  3  0  0  0  0  0  0
  189.9420  175.5230  137.4480 C   0  0  1  0  0  3  0  0  0  0  0  0
  190.1040  176.7650  138.3260 C   0  0  0  0  0  0  0  0  0  0  0  0
  187.8400  176.1780  136.4680 C   0  0  0  0  0  0  0  0  0  0  0  0
  187.9820  178.0370  138.6750 C   0  0  0  0  0  2  0  0  0  0  0  0
  186.8560  178.0810  137.6220 C   0  0  2  0  0  3  0  0  0  0  0  0
  189.3750  178.0540  138.0350 C   0  0  0  0  0  2  0  0  0  0  0  0
  190.8510  176.6570  139.4380 C   0  0  0  0  0  3  0  0  0  0  0  0
  189.0160  175.6580  136.2700 C   0  0  0  0  0  3  0  0  0  0  0  0
  192.8310  172.9470  136.9960 C   0  0  1  0  0  3  0  0  0  0  0  0
  191.5290  173.6210  137.3550 C   0  0  0  0  0  3  0  0  0  0  0  0
  193.8470  177.1560  137.4240 O   0  0  0  0  0  0  0  0  0  0  0  0
  193.4870  175.9780  137.1790 C   0  0  0  0  0  0  0  0  0  0  0  0
  194.3010  174.8720  137.7190 C   0  0  0  0  0  3  0  0  0  0  0  0
  191.7400  176.9320  135.8710 F   0  0  0  0  0  0  0  0  0  0  0  0
  193.0220  172.8240  135.4940 C   0  0  0  0  0  1  0  0  0  0  0  0
  194.0410  173.5480  137.6670 C   0  0  0  0  0  0  0  0  0  0  0  0
  192.2800  175.7360  136.3210 C   0  0  2  0  0  3  0  0  0  0  0  0
  191.2570  174.9040  137.0470 C   0  0  0  0  0  0  0  0  0  0  0  0
  195.0210  172.6310  138.1690 N   0  0  0  0  0  2  0  0  0  0  0  0
  198.5850  173.0220  136.8500 C   0  0  0  0  0  1  0  0  0  0  0  0
  197.1210  172.7420  136.8840 C   0  0  0  0  0  0  0  0  0  0  0  0
  196.5300  172.3700  135.8310 O   0  0  0  0  0  0  0  0  0  0  0  0
  196.3980  172.9140  138.1020 N   0  0  0  0  0  2  0  0  0  0  0  0
  190.7420  177.4810  141.7980 C   0  0  1  0  0  0  0  0  0  0  0  0
  191.3800  178.3750  142.8490 C   0  0  0  0  0  1  0  0  0  0  0  0
  189.8560  178.1880  140.9610 O   0  0  0  0  0  0  0  0  0  0  0  0
  191.0890  177.8000  140.3880 C   0  0  2  0  0  3  0  0  0  0  0  0
  189.2830  175.8860  143.0970 C   0  0  0  0  0  3  0  0  0  0  0  0
  190.2310  176.1140  142.1790 C   0  0  0  0  0  3  0  0  0  0  0  0
  188.6010  176.9600  143.8760 C   0  0  0  0  0  2  0  0  0  0  0  0
  188.4030  176.5370  145.2160 O   0  0  0  0  0  0  0  0  0  0  0  0
  189.2250  176.9840  146.2540 C   0  0  0  0  0  0  0  0  0  0  0  0
  188.7910  177.0230  147.4400 O   0  0  0  0  0  0  0  0  0  0  0  0
  190.5290  177.3970  145.9660 O   0  0  0  0  0  0  0  0  0  0  0  0
  191.6380  176.5040  146.0400 C   0  0  0  0  0  2  0  0  0  0  0  0
  191.7980  175.9950  147.4610 C   0  0  0  0  0  1  0  0  0  0  0  0
  185.5240  178.2940  138.3250 C   0  0  0  0  0  2  0  0  0  0  0  0
  185.7330  178.6140  139.7310 N   0  0  0  0  0  2  0  0  0  0  0  0
  183.5750  177.4730  140.7610 O   0  0  0  0  0  0  0  0  0  0  0  0
  184.1720  178.8260  140.4560 S   0  0  0  0  0  0  0  0  0  0  0  0
  183.2620  179.5560  139.4930 O   0  0  0  0  0  0  0  0  0  0  0  0
  184.3140  179.7860  141.9740 C   0  0  0  0  0  2  0  0  0  0  0  0
  184.2800  177.6910  143.1770 O   0  0  0  0  0  1  0  0  0  0  0  0
  183.8580  179.0320  143.2430 C   0  0  2  0  0  0  0  0  0  0  0  0
  182.3480  179.0780  143.2820 C   0  0  0  0  0  0  0  0  0  0  0  0
  181.6390  179.8460  142.3530 O   0  0  0  0  0  0  0  0  0  0  0  0
  181.7120  178.3640  144.1170 O   0  0  0  0  0  1  0  0  0  0  0  0
  184.4680  179.6980  144.4840 C   0  0  0  0  0  2  0  0  0  0  0  0
  185.9510  178.7280  146.2150 C   0  0  0  0  0  1  0  0  0  0  0  0
  184.5290  178.7680  145.6850 C   0  0  0  0  0  2  0  0  0  0  0  0
  1  6  1  0  0  0  0
  2 19  1  6  0  0  0
  2  3  1  0  0  0  0
  3  8  2  0  0  0  0
  4  1  2  0  0  0  0
  6 38  1  1  0  0  0
  6  5  1  0  0  0  0
  7  3  1  0  0  0  0
  7  5  1  0  0  0  0
  9  4  2  0  0  0  0
  9  2  1  0  0  0  0
 10 16  1  6  0  0  0
 10 11  1  0  0  0  0
 10 17  1  0  0  0  0
 13 12  2  0  0  0  0
 13 14  1  0  0  0  0
 17 14  2  0  0  0  0
 17 20  1  0  0  0  0
 18 15  1  1  0  0  0
 18 19  1  0  0  0  0
 18 13  1  0  0  0  0
 19 11  2  0  0  0  0
 21 22  1  0  0  0  0
 22 24  1  0  0  0  0
 23 22  2  0  0  0  0
 24 20  1  0  0  0  0
 25 30  1  0  0  0  0
 25 26  1  1  0  0  0
 27 25  1  0  0  0  0
 28  8  1  6  0  0  0
 28 27  1  0  0  0  0
 28 25  1  0  0  0  0
 29 31  1  0  0  0  0
 30 29  2  0  0  0  0
 31 32  1  0  0  0  0
 32 33  1  0  0  0  0
 33 34  2  0  0  0  0
 35 36  1  0  0  0  0
 35 33  1  0  0  0  0
 36 37  1  0  0  0  0
 38 39  1  0  0  0  0
 39 41  1  0  0  0  0
 41 40  2  0  0  0  0
 41 43  1  0  0  0  0
 42 41  2  0  0  0  0
 43 45  1  0  0  0  0
 45 44  1  6  0  0  0
 45 46  1  0  0  0  0
 45 49  1  0  0  0  0
 46 48  1  0  0  0  0
 47 46  2  0  0  0  0
 49 51  1  0  0  0  0
 51 50  1  0  0  0  0
M  END
>  <MODEL>
6

>  <REMARK>
 VINA RESULT:      -5.2      4.030      9.171
  Name = 
  18 active torsions:
  status: ('A' for Active; 'I' for Inactive)
    1  A    between atoms: C_3  and  C_51
    2  A    between atoms: C_8  and  C_32
    3  A    between atoms: C_10  and  C_12
    4  A    between atoms: C_11  and  O_27
    5  A    between atoms: C_12  and  N_36
    6  A    between atoms: C_13  and  C_44
    7  A    between atoms: C_13  and  C_45
    8  A    between atoms: S_16  and  C_18
    9  A    between atoms: S_16  and  N_36
   10  A    between atoms: O_17  and  C_46
   11  A    between atoms: O_17  and  C_47
   12  A    between atoms: C_18  and  C_45
   13  A    between atoms: C_21  and  C_39
   14  A    between atoms: C_24  and  C_45
   15  A    between atoms: N_25  and  N_43
   16  A    between atoms: O_27  and  C_46
   17  A    between atoms: C_29  and  C_47
   18  A    between atoms: N_43  and  C_48
                            x       y       z     vdW  Elec       q    Type
                         _______ _______ _______ _____ _____    ______ ____

>  <TORSDO>
F 18

$$$$
=
 OpenBabel10232408553D

 51 53  0  0  1  0  0  0  0  0999 V2000
  191.7500  177.4830  140.0400 C   0  0  0  0  0  3  0  0  0  0  0  0
  193.0670  175.9490  137.1920 C   0  0  1  0  0  3  0  0  0  0  0  0
  191.6740  175.3330  137.0660 C   0  0  0  0  0  0  0  0  0  0  0  0
  192.7190  176.9200  139.3690 C   0  0  0  0  0  0  0  0  0  0  0  0
  189.9920  176.3110  138.6340 C   0  0  0  0  0  2  0  0  0  0  0  0
  190.3740  176.8710  140.0190 C   0  0  2  0  0  3  0  0  0  0  0  0
  190.8040  175.0630  138.2690 C   0  0  0  0  0  2  0  0  0  0  0  0
  191.1900  175.1160  135.8300 C   0  0  0  0  0  3  0  0  0  0  0  0
  193.5300  176.2690  138.5870 C   0  0  0  0  0  3  0  0  0  0  0  0
  195.6070  173.1900  136.1330 C   0  0  1  0  0  3  0  0  0  0  0  0
  194.5450  173.9880  136.8480 C   0  0  0  0  0  3  0  0  0  0  0  0
  196.5510  177.3400  135.2290 O   0  0  0  0  0  0  0  0  0  0  0  0
  196.1660  176.1560  135.4020 C   0  0  0  0  0  0  0  0  0  0  0  0
  197.1720  175.1420  135.7750 C   0  0  0  0  0  3  0  0  0  0  0  0
  194.0010  176.9150  134.7620 F   0  0  0  0  0  0  0  0  0  0  0  0
  195.1660  172.7550  134.7450 C   0  0  0  0  0  1  0  0  0  0  0  0
  196.9620  173.8510  136.1070 C   0  0  0  0  0  0  0  0  0  0  0  0
  194.7220  175.8080  135.1860 C   0  0  2  0  0  3  0  0  0  0  0  0
  194.1220  175.1950  136.4220 C   0  0  0  0  0  0  0  0  0  0  0  0
  198.0960  173.0050  136.3400 N   0  0  0  0  0  2  0  0  0  0  0  0
  197.9550  169.4200  137.6540 C   0  0  0  0  0  1  0  0  0  0  0  0
  198.0590  170.5680  136.7090 C   0  0  0  0  0  0  0  0  0  0  0  0
  198.1920  170.3500  135.4710 O   0  0  0  0  0  0  0  0  0  0  0  0
  198.0260  171.9030  137.2120 N   0  0  0  0  0  2  0  0  0  0  0  0
  188.8330  175.5060  135.0840 C   0  0  1  0  0  0  0  0  0  0  0  0
  187.6290  174.9230  134.3630 C   0  0  0  0  0  1  0  0  0  0  0  0
  188.8900  175.1120  136.4360 O   0  0  0  0  0  0  0  0  0  0  0  0
  189.8340  174.5180  135.5670 C   0  0  2  0  0  3  0  0  0  0  0  0
  188.4300  177.9940  135.1780 C   0  0  0  0  0  3  0  0  0  0  0  0
  189.2130  176.9510  134.8730 C   0  0  0  0  0  3  0  0  0  0  0  0
  187.0650  177.8690  135.7670 C   0  0  0  0  0  2  0  0  0  0  0  0
  187.1090  178.1530  137.1570 O   0  0  0  0  0  0  0  0  0  0  0  0
  185.9750  178.0330  137.9650 C   0  0  0  0  0  0  0  0  0  0  0  0
  185.0910  177.1700  137.7000 O   0  0  0  0  0  0  0  0  0  0  0  0
  185.8230  178.8830  139.0640 O   0  0  0  0  0  0  0  0  0  0  0  0
  184.5530  179.1210  139.6660 C   0  0  0  0  0  2  0  0  0  0  0  0
  184.6940  179.1410  141.1770 C   0  0  0  0  0  1  0  0  0  0  0  0
  189.3810  177.9550  140.4100 C   0  0  0  0  0  2  0  0  0  0  0  0
  188.1560  177.3620  140.9310 N   0  0  0  0  0  2  0  0  0  0  0  0
  188.3520  175.7880  143.0530 O   0  0  0  0  0  0  0  0  0  0  0  0
  188.3270  177.2430  142.6530 S   0  0  0  0  0  0  0  0  0  0  0  0
  187.1510  177.9150  143.3260 O   0  0  0  0  0  0  0  0  0  0  0  0
  189.8480  178.0490  143.1860 C   0  0  0  0  0  2  0  0  0  0  0  0
  190.5610  179.1620  145.2090 O   0  0  0  0  0  1  0  0  0  0  0  0
  190.1320  177.9220  144.7000 C   0  0  2  0  0  0  0  0  0  0  0  0
  191.2350  176.9030  144.8720 C   0  0  0  0  0  0  0  0  0  0  0  0
  191.5020  175.9720  143.8640 O   0  0  0  0  0  0  0  0  0  0  0  0
  191.9710  176.9340  145.9050 O   0  0  0  0  0  1  0  0  0  0  0  0
  188.8530  177.4860  145.4280 C   0  0  0  0  0  2  0  0  0  0  0  0
  188.5450  177.9840  147.8350 C   0  0  0  0  0  1  0  0  0  0  0  0
  189.1160  176.9890  146.8390 C   0  0  0  0  0  2  0  0  0  0  0  0
  2 19  1  1  0  0  0
  2  9  1  0  0  0  0
  3  2  1  0  0  0  0
  3  7  1  0  0  0  0
  4  1  2  0  0  0  0
  5  6  1  0  0  0  0
  6  1  1  0  0  0  0
  6 38  1  6  0  0  0
  7  5  1  0  0  0  0
  8  3  2  0  0  0  0
  9  4  2  0  0  0  0
 10 16  1  6  0  0  0
 10 11  1  0  0  0  0
 12 13  2  0  0  0  0
 13 14  1  0  0  0  0
 14 17  2  0  0  0  0
 17 10  1  0  0  0  0
 17 20  1  0  0  0  0
 18 15  1  1  0  0  0
 18 13  1  0  0  0  0
 18 19  1  0  0  0  0
 19 11  2  0  0  0  0
 20 24  1  0  0  0  0
 22 24  1  0  0  0  0
 22 21  1  0  0  0  0
 23 22  2  0  0  0  0
 25 26  1  6  0  0  0
 25 28  1  0  0  0  0
 25 27  1  0  0  0  0
 28  8  1  1  0  0  0
 28 27  1  0  0  0  0
 29 31  1  0  0  0  0
 30 25  1  0  0  0  0
 30 29  2  0  0  0  0
 31 32  1  0  0  0  0
 32 33  1  0  0  0  0
 33 35  1  0  0  0  0
 34 33  2  0  0  0  0
 35 36  1  0  0  0  0
 36 37  1  0  0  0  0
 38 39  1  0  0  0  0
 39 41  1  0  0  0  0
 41 40  2  0  0  0  0
 41 43  1  0  0  0  0
 41 42  2  0  0  0  0
 43 45  1  0  0  0  0
 45 46  1  0  0  0  0
 45 44  1  1  0  0  0
 45 49  1  0  0  0  0
 46 48  1  0  0  0  0
 47 46  2  0  0  0  0
 49 51  1  0  0  0  0
 51 50  1  0  0  0  0
M  END
>  <MODEL>
7

>  <REMARK>
 VINA RESULT:      -5.2      4.748      9.365
  Name = 
  18 active torsions:
  status: ('A' for Active; 'I' for Inactive)
    1  A    between atoms: C_3  and  C_51
    2  A    between atoms: C_8  and  C_32
    3  A    between atoms: C_10  and  C_12
    4  A    between atoms: C_11  and  O_27
    5  A    between atoms: C_12  and  N_36
    6  A    between atoms: C_13  and  C_44
    7  A    between atoms: C_13  and  C_45
    8  A    between atoms: S_16  and  C_18
    9  A    between atoms: S_16  and  N_36
   10  A    between atoms: O_17  and  C_46
   11  A    between atoms: O_17  and  C_47
   12  A    between atoms: C_18  and  C_45
   13  A    between atoms: C_21  and  C_39
   14  A    between atoms: C_24  and  C_45
   15  A    between atoms: N_25  and  N_43
   16  A    between atoms: O_27  and  C_46
   17  A    between atoms: C_29  and  C_47
   18  A    between atoms: N_43  and  C_48
                            x       y       z     vdW  Elec       q    Type
                         _______ _______ _______ _____ _____    ______ ____

>  <TORSDO>
F 18

$$$$
=
 OpenBabel10232408553D

 51 53  0  0  1  0  0  0  0  0999 V2000
  190.2240  176.7910  137.2310 C   0  0  0  0  0  3  0  0  0  0  0  0
  190.0330  176.6370  140.7160 C   0  0  1  0  0  3  0  0  0  0  0  0
  188.9850  177.7390  140.5540 C   0  0  0  0  0  0  0  0  0  0  0  0
  190.7510  176.6310  138.4160 C   0  0  0  0  0  0  0  0  0  0  0  0
  188.2960  178.1360  138.1860 C   0  0  0  0  0  2  0  0  0  0  0  0
  189.2480  177.9120  136.9940 C   0  0  2  0  0  3  0  0  0  0  0  0
  189.0200  178.7170  139.4050 C   0  0  0  0  0  2  0  0  0  0  0  0
  187.9580  177.7640  141.4210 C   0  0  0  0  0  3  0  0  0  0  0  0
  191.1090  176.5830  139.6660 C   0  0  0  0  0  3  0  0  0  0  0  0
  190.7150  175.5360  144.3910 C   0  0  1  0  0  3  0  0  0  0  0  0
  190.1840  175.6450  142.9830 C   0  0  0  0  0  3  0  0  0  0  0  0
  191.1690  179.7390  143.3620 O   0  0  0  0  0  0  0  0  0  0  0  0
  191.1460  178.5000  143.5690 C   0  0  0  0  0  0  0  0  0  0  0  0
  190.6370  178.0170  144.8670 C   0  0  0  0  0  3  0  0  0  0  0  0
  192.1640  178.2660  141.4280 F   0  0  0  0  0  0  0  0  0  0  0  0
  192.1850  175.1560  144.4260 C   0  0  0  0  0  1  0  0  0  0  0  0
  190.4280  176.7400  145.2520 C   0  0  0  0  0  0  0  0  0  0  0  0
  191.6680  177.5650  142.5180 C   0  0  2  0  0  3  0  0  0  0  0  0
  190.6160  176.5710  142.1050 C   0  0  0  0  0  0  0  0  0  0  0  0
  190.0210  176.4840  146.6030 N   0  0  0  0  0  2  0  0  0  0  0  0
  187.3470  178.2960  148.6430 C   0  0  0  0  0  1  0  0  0  0  0  0
  188.6830  177.8850  148.1280 C   0  0  0  0  0  0  0  0  0  0  0  0
  189.7270  178.4130  148.6050 O   0  0  0  0  0  0  0  0  0  0  0  0
  188.7710  176.9110  147.0890 N   0  0  0  0  0  2  0  0  0  0  0  0
  186.0350  178.8390  142.6090 C   0  0  1  0  0  0  0  0  0  0  0  0
  185.2490  180.1210  142.8240 C   0  0  0  0  0  1  0  0  0  0  0  0
  185.6100  178.1370  141.4630 O   0  0  0  0  0  0  0  0  0  0  0  0
  186.8600  178.7920  141.3720 C   0  0  2  0  0  3  0  0  0  0  0  0
  185.6890  177.9580  144.9470 C   0  0  0  0  0  3  0  0  0  0  0  0
  186.3410  177.9340  143.7760 C   0  0  0  0  0  3  0  0  0  0  0  0
  184.5670  178.8910  145.2580 C   0  0  0  0  0  2  0  0  0  0  0  0
  183.3320  178.3110  144.8700 O   0  0  0  0  0  0  0  0  0  0  0  0
  182.3870  179.0270  144.1290 C   0  0  0  0  0  0  0  0  0  0  0  0
  182.4380  180.2880  144.0800 O   0  0  0  0  0  0  0  0  0  0  0  0
  181.3790  178.3340  143.4520 O   0  0  0  0  0  0  0  0  0  0  0  0
  180.9640  178.6980  142.1380 C   0  0  0  0  0  2  0  0  0  0  0  0
  182.0850  178.4320  141.1500 C   0  0  0  0  0  1  0  0  0  0  0  0
  188.4300  177.5580  135.7610 C   0  0  0  0  0  2  0  0  0  0  0  0
  187.0320  177.3550  136.1170 N   0  0  0  0  0  2  0  0  0  0  0  0
  187.0160  175.0100  137.3490 O   0  0  0  0  0  0  0  0  0  0  0  0
  186.7110  175.6530  136.0190 S   0  0  0  0  0  0  0  0  0  0  0  0
  187.5960  175.0320  134.9610 O   0  0  0  0  0  0  0  0  0  0  0  0
  184.9860  175.3670  135.5830 C   0  0  0  0  0  2  0  0  0  0  0  0
  184.6360  176.4690  137.7050 O   0  0  0  0  0  1  0  0  0  0  0  0
  183.9850  175.7210  136.7060 C   0  0  2  0  0  0  0  0  0  0  0  0
  183.4890  174.4220  137.2990 C   0  0  0  0  0  0  0  0  0  0  0  0
  182.1190  174.1540  137.3680 O   0  0  0  0  0  0  0  0  0  0  0  0
  184.3190  173.5380  137.6740 O   0  0  0  0  0  1  0  0  0  0  0  0
  182.8290  176.5450  136.1230 C   0  0  0  0  0  2  0  0  0  0  0  0
  181.1200  177.5390  137.6160 C   0  0  0  0  0  1  0  0  0  0  0  0
  182.4780  177.7550  136.9720 C   0  0  0  0  0  2  0  0  0  0  0  0
  1  4  2  0  0  0  0
  2 19  1  1  0  0  0
  3  2  1  0  0  0  0
  3  8  2  0  0  0  0
  4  9  2  0  0  0  0
  5  7  1  0  0  0  0
  6 38  1  6  0  0  0
  6  1  1  0  0  0  0
  6  5  1  0  0  0  0
  7  3  1  0  0  0  0
  9  2  1  0  0  0  0
 10 16  1  6  0  0  0
 10 17  1  0  0  0  0
 11 10  1  0  0  0  0
 12 13  2  0  0  0  0
 13 14  1  0  0  0  0
 14 17  2  0  0  0  0
 17 20  1  0  0  0  0
 18 15  1  6  0  0  0
 18 13  1  0  0  0  0
 19 18  1  0  0  0  0
 19 11  2  0  0  0  0
 20 24  1  0  0  0  0
 22 23  2  0  0  0  0
 22 21  1  0  0  0  0
 24 22  1  0  0  0  0
 25 26  1  1  0  0  0
 25 30  1  0  0  0  0
 27 25  1  0  0  0  0
 28  8  1  1  0  0  0
 28 27  1  0  0  0  0
 28 25  1  0  0  0  0
 29 31  1  0  0  0  0
 30 29  2  0  0  0  0
 32 31  1  0  0  0  0
 33 32  1  0  0  0  0
 34 33  2  0  0  0  0
 35 33  1  0  0  0  0
 36 35  1  0  0  0  0
 37 36  1  0  0  0  0
 38 39  1  0  0  0  0
 41 39  1  0  0  0  0
 41 40  2  0  0  0  0
 42 41  2  0  0  0  0
 43 41  1  0  0  0  0
 43 45  1  0  0  0  0
 45 46  1  0  0  0  0
 45 44  1  1  0  0  0
 46 47  2  0  0  0  0
 46 48  1  0  0  0  0
 49 45  1  0  0  0  0
 49 51  1  0  0  0  0
 51 50  1  0  0  0  0
M  END
>  <MODEL>
8

>  <REMARK>
 VINA RESULT:      -5.2      3.067     10.128
  Name = 
  18 active torsions:
  status: ('A' for Active; 'I' for Inactive)
    1  A    between atoms: C_3  and  C_51
    2  A    between atoms: C_8  and  C_32
    3  A    between atoms: C_10  and  C_12
    4  A    between atoms: C_11  and  O_27
    5  A    between atoms: C_12  and  N_36
    6  A    between atoms: C_13  and  C_44
    7  A    between atoms: C_13  and  C_45
    8  A    between atoms: S_16  and  C_18
    9  A    between atoms: S_16  and  N_36
   10  A    between atoms: O_17  and  C_46
   11  A    between atoms: O_17  and  C_47
   12  A    between atoms: C_18  and  C_45
   13  A    between atoms: C_21  and  C_39
   14  A    between atoms: C_24  and  C_45
   15  A    between atoms: N_25  and  N_43
   16  A    between atoms: O_27  and  C_46
   17  A    between atoms: C_29  and  C_47
   18  A    between atoms: N_43  and  C_48
                            x       y       z     vdW  Elec       q    Type
                         _______ _______ _______ _____ _____    ______ ____

>  <TORSDO>
F 18

$$$$
=
 OpenBabel10232408553D

 51 53  0  0  1  0  0  0  0  0999 V2000
  187.4720  178.5780  141.5780 C   0  0  0  0  0  3  0  0  0  0  0  0
  184.6060  178.2060  139.6160 C   0  0  1  0  0  3  0  0  0  0  0  0
  185.5950  178.1510  138.4520 C   0  0  0  0  0  0  0  0  0  0  0  0
  186.2220  178.8250  141.2920 C   0  0  0  0  0  0  0  0  0  0  0  0
  187.9840  177.9810  139.1650 C   0  0  0  0  0  2  0  0  0  0  0  0
  188.5040  178.5920  140.4820 C   0  0  2  0  0  3  0  0  0  0  0  0
  186.9250  178.8630  138.4940 C   0  0  0  0  0  2  0  0  0  0  0  0
  185.2930  177.3650  137.4040 C   0  0  0  0  0  3  0  0  0  0  0  0
  185.0280  179.0170  140.8110 C   0  0  0  0  0  3  0  0  0  0  0  0
  181.6090  179.8830  137.7730 C   0  0  1  0  0  3  0  0  0  0  0  0
  182.9880  179.4830  138.2370 C   0  0  0  0  0  3  0  0  0  0  0  0
  181.0580  178.5970  141.8930 O   0  0  0  0  0  0  0  0  0  0  0  0
  181.2370  178.8300  140.6720 C   0  0  0  0  0  0  0  0  0  0  0  0
  180.6140  180.0360  140.0920 C   0  0  0  0  0  3  0  0  0  0  0  0
  182.4400  176.7750  140.5990 F   0  0  0  0  0  0  0  0  0  0  0  0
  180.8770  178.7440  137.0850 C   0  0  0  0  0  1  0  0  0  0  0  0
  180.7630  180.5260  138.8430 C   0  0  0  0  0  0  0  0  0  0  0  0
  182.0340  177.8650  139.8430 C   0  0  2  0  0  3  0  0  0  0  0  0
  183.2020  178.5500  139.1860 C   0  0  0  0  0  0  0  0  0  0  0  0
  179.9830  181.6630  138.4510 N   0  0  0  0  0  2  0  0  0  0  0  0
  181.2520  184.4540  136.1720 C   0  0  0  0  0  1  0  0  0  0  0  0
  180.5780  183.2030  136.6200 C   0  0  0  0  0  0  0  0  0  0  0  0
  179.9910  182.4700  135.7740 O   0  0  0  0  0  0  0  0  0  0  0  0
  180.5870  182.8530  138.0030 N   0  0  0  0  0  2  0  0  0  0  0  0
  186.5420  175.8090  135.8940 C   0  0  1  0  0  0  0  0  0  0  0  0
  187.0140  175.5430  134.4740 C   0  0  0  0  0  1  0  0  0  0  0  0
  187.4160  176.6620  136.5970 O   0  0  0  0  0  0  0  0  0  0  0  0
  186.1800  177.2180  136.1970 C   0  0  2  0  0  3  0  0  0  0  0  0
  186.6930  173.5520  137.0110 C   0  0  0  0  0  3  0  0  0  0  0  0
  186.0160  174.6760  136.7400 C   0  0  0  0  0  3  0  0  0  0  0  0
  188.0680  173.2640  136.5080 C   0  0  0  0  0  2  0  0  0  0  0  0
  189.0240  173.5600  137.5130 O   0  0  0  0  0  0  0  0  0  0  0  0
  190.3250  173.9610  137.1910 C   0  0  0  0  0  0  0  0  0  0  0  0
  190.6940  175.1520  137.3960 O   0  0  0  0  0  0  0  0  0  0  0  0
  191.2090  173.0340  136.6320 O   0  0  0  0  0  0  0  0  0  0  0  0
  191.6790  173.1510  135.2920 C   0  0  0  0  0  2  0  0  0  0  0  0
  191.1540  171.9970  134.4580 C   0  0  0  0  0  1  0  0  0  0  0  0
  189.7020  177.7900  140.9660 C   0  0  0  0  0  2  0  0  0  0  0  0
  189.8170  177.8680  142.4160 N   0  0  0  0  0  2  0  0  0  0  0  0
  191.9790  176.4110  142.8920 O   0  0  0  0  0  0  0  0  0  0  0  0
  190.4730  176.3600  142.9690 S   0  0  0  0  0  0  0  0  0  0  0  0
  189.9760  175.2380  142.0840 O   0  0  0  0  0  0  0  0  0  0  0  0
  189.9580  176.0410  144.6660 C   0  0  0  0  0  2  0  0  0  0  0  0
  191.2460  178.0290  145.1450 O   0  0  0  0  0  1  0  0  0  0  0  0
  190.1980  177.2240  145.6310 C   0  0  2  0  0  0  0  0  0  0  0  0
  190.5930  176.6460  146.9700 C   0  0  0  0  0  0  0  0  0  0  0  0
  189.6160  176.1760  147.8530 O   0  0  0  0  0  1  0  0  0  0  0  0
  191.8190  176.5210  147.2710 O   0  0  0  0  0  0  0  0  0  0  0  0
  188.9190  178.0650  145.7410 C   0  0  0  0  0  2  0  0  0  0  0  0
  186.5530  177.4840  146.1890 C   0  0  0  0  0  1  0  0  0  0  0  0
  187.6930  177.3520  145.1950 C   0  0  0  0  0  2  0  0  0  0  0  0
  2 19  1  6  0  0  0
  2  9  1  0  0  0  0
  3  7  1  0  0  0  0
  3  2  1  0  0  0  0
  4  1  2  0  0  0  0
  5  6  1  0  0  0  0
  6 38  1  1  0  0  0
  6  1  1  0  0  0  0
  7  5  1  0  0  0  0
  8  3  2  0  0  0  0
  9  4  2  0  0  0  0
 10 16  1  1  0  0  0
 10 11  1  0  0  0  0
 10 17  1  0  0  0  0
 11 19  2  0  0  0  0
 13 12  2  0  0  0  0
 14 13  1  0  0  0  0
 17 14  2  0  0  0  0
 18 15  1  1  0  0  0
 18 13  1  0  0  0  0
 19 18  1  0  0  0  0
 20 17  1  0  0  0  0
 21 22  1  0  0  0  0
 22 24  1  0  0  0  0
 23 22  2  0  0  0  0
 24 20  1  0  0  0  0
 25 26  1  6  0  0  0
 25 28  1  0  0  0  0
 25 27  1  0  0  0  0
 25 30  1  0  0  0  0
 28 27  1  0  0  0  0
 28  8  1  1  0  0  0
 30 29  2  0  0  0  0
 31 29  1  0  0  0  0
 31 32  1  0  0  0  0
 33 34  2  0  0  0  0
 33 32  1  0  0  0  0
 35 33  1  0  0  0  0
 36 35  1  0  0  0  0
 37 36  1  0  0  0  0
 38 39  1  0  0  0  0
 39 41  1  0  0  0  0
 40 41  2  0  0  0  0
 41 43  1  0  0  0  0
 42 41  2  0  0  0  0
 43 45  1  0  0  0  0
 45 44  1  6  0  0  0
 45 49  1  0  0  0  0
 45 46  1  0  0  0  0
 46 48  2  0  0  0  0
 46 47  1  0  0  0  0
 51 49  1  0  0  0  0
 51 50  1  0  0  0  0
M  END
>  <MODEL>
9

>  <REMARK>
 VINA RESULT:      -5.1      2.782      4.755
  Name = 
  18 active torsions:
  status: ('A' for Active; 'I' for Inactive)
    1  A    between atoms: C_3  and  C_51
    2  A    between atoms: C_8  and  C_32
    3  A    between atoms: C_10  and  C_12
    4  A    between atoms: C_11  and  O_27
    5  A    between atoms: C_12  and  N_36
    6  A    between atoms: C_13  and  C_44
    7  A    between atoms: C_13  and  C_45
    8  A    between atoms: S_16  and  C_18
    9  A    between atoms: S_16  and  N_36
   10  A    between atoms: O_17  and  C_46
   11  A    between atoms: O_17  and  C_47
   12  A    between atoms: C_18  and  C_45
   13  A    between atoms: C_21  and  C_39
   14  A    between atoms: C_24  and  C_45
   15  A    between atoms: N_25  and  N_43
   16  A    between atoms: O_27  and  C_46
   17  A    between atoms: C_29  and  C_47
   18  A    between atoms: N_43  and  C_48
                            x       y       z     vdW  Elec       q    Type
                         _______ _______ _______ _____ _____    ______ ____

>  <TORSDO>
F 18

$$$$
