=
 OpenBabel10232408003D

 46 51  0  0  1  0  0  0  0  0999 V2000
  186.2960  178.5020  139.2900 N   0  0  0  0  0  0  0  0  0  0  0  0
  185.3520  177.4610  137.3630 C   0  0  0  0  0  3  0  0  0  0  0  0
  185.2020  178.2120  138.5340 C   0  0  0  0  0  0  0  0  0  0  0  0
  186.6250  177.0430  136.9620 C   0  0  0  0  0  0  0  0  0  0  0  0
  187.5430  178.0930  138.9330 C   0  0  0  0  0  3  0  0  0  0  0  0
  187.7280  177.3520  137.7670 C   0  0  0  0  0  3  0  0  0  0  0  0
  186.7630  176.2590  135.6850 C   0  0  2  0  0  3  0  0  0  0  0  0
  188.9350  175.0730  135.1910 N   0  0  0  0  0  0  0  0  0  0  0  0
  189.4820  176.4270  135.2940 C   0  0  0  0  0  2  0  0  0  0  0  0
  187.6240  174.9890  135.8640 C   0  0  2  0  0  3  0  0  0  0  0  0
  188.6800  177.3810  134.4130 C   0  0  0  0  0  2  0  0  0  0  0  0
  187.1760  177.0960  134.4640 C   0  0  0  0  0  2  0  0  0  0  0  0
  186.5930  171.3330  135.2610 C   0  0  0  0  0  2  0  0  0  0  0  0
  185.0980  171.3060  135.5110 C   0  0  0  0  0  2  0  0  0  0  0  0
  185.8030  173.2840  136.2860 C   0  0  1  0  0  0  0  0  0  0  0  0
  187.0720  172.5130  136.0520 C   0  0  2  0  0  3  0  0  0  0  0  0
  185.7190  173.8360  137.5680 O   0  0  0  0  0  1  0  0  0  0  0  0
  186.8180  173.8200  135.2890 C   0  0  2  0  0  3  0  0  0  0  0  0
  184.6700  172.6140  135.7950 O   0  0  0  0  0  0  0  0  0  0  0  0
  189.8570  174.1960  135.9050 C   0  0  0  0  0  2  0  0  0  0  0  0
  191.2470  174.8190  135.9980 C   0  0  0  0  0  2  0  0  0  0  0  0
  191.8360  174.6840  137.4000 C   0  0  0  0  0  2  0  0  0  0  0  0
  191.1670  176.3420  138.7210 C   0  0  0  0  0  1  0  0  0  0  0  0
  190.8870  175.0150  138.3770 O   0  0  0  0  0  0  0  0  0  0  0  0
  183.8510  178.6270  139.0420 C   0  0  2  0  0  3  0  0  0  0  0  0
  183.7920  180.0100  139.2350 O   0  0  0  0  0  1  0  0  0  0  0  0
  183.3430  177.8750  140.2700 C   0  0  0  0  0  2  0  0  0  0  0  0
  182.5760  178.7780  141.2260 C   0  0  0  0  0  2  0  0  0  0  0  0
  182.6320  178.6840  144.0270 S   0  0  0  0  0  0  0  0  0  0  0  0
  184.6910  179.1070  142.6450 C   0  0  0  0  0  3  0  0  0  0  0  0
  184.1130  178.8700  144.8040 C   0  0  0  0  0  0  0  0  0  0  0  0
  184.2930  178.7620  146.2170 N   0  0  0  0  0  2  0  0  0  0  0  0
  185.1250  179.0920  143.9360 N   0  0  0  0  0  0  0  0  0  0  0  0
  183.3200  178.9070  142.5080 C   0  0  0  0  0  0  0  0  0  0  0  0
  185.6040  178.9330  146.8320 C   0  0  0  0  0  2  0  0  0  0  0  0
  186.5210  177.8040  146.4080 C   0  0  0  0  0  2  0  0  0  0  0  0
  187.9220  178.3330  146.0950 C   0  0  0  0  0  2  0  0  0  0  0  0
  188.7650  177.3320  145.2900 C   0  0  2  0  0  0  0  0  0  0  0  0
  189.6730  178.0930  144.2990 C   0  0  2  0  0  3  0  0  0  0  0  0
  187.9080  176.4420  144.5850 O   0  0  0  0  0  0  0  0  0  0  0  0
  187.9400  176.7850  143.2120 C   0  0  0  0  0  2  0  0  0  0  0  0
  189.5240  176.5900  146.2030 O   0  0  0  0  0  1  0  0  0  0  0  0
  189.3020  178.2790  141.9620 O   0  0  0  0  0  0  0  0  0  0  0  0
  189.0210  177.7640  143.0340 C   0  0  0  0  0  0  0  0  0  0  0  0
  191.9960  178.6950  144.2500 O   0  0  0  0  0  1  0  0  0  0  0  0
  191.1210  177.6080  144.2530 C   0  0  0  0  0  2  0  0  0  0  0  0
  2  3  1  0  0  0  0
  3 25  1  0  0  0  0
  3  1  2  0  0  0  0
  4  2  2  0  0  0  0
  4  6  1  0  0  0  0
  5  1  1  0  0  0  0
  6  5  2  0  0  0  0
  7 10  1  0  0  0  0
  7  4  1  1  0  0  0
  8  9  1  0  0  0  0
  8 20  1  0  0  0  0
 10  8  1  6  0  0  0
 11 12  1  0  0  0  0
 11  9  1  0  0  0  0
 12  7  1  0  0  0  0
 13 14  1  0  0  0  0
 14 19  1  0  0  0  0
 15 17  1  1  0  0  0
 16 13  1  6  0  0  0
 16 15  1  0  0  0  0
 18 10  1  1  0  0  0
 18 16  1  0  0  0  0
 18 15  1  0  0  0  0
 19 15  1  0  0  0  0
 20 21  1  0  0  0  0
 21 22  1  0  0  0  0
 22 24  1  0  0  0  0
 24 23  1  0  0  0  0
 25 26  1  1  0  0  0
 25 27  1  0  0  0  0
 27 28  1  0  0  0  0
 28 34  1  0  0  0  0
 29 31  1  0  0  0  0
 30 33  1  0  0  0  0
 31 32  1  0  0  0  0
 32 35  1  0  0  0  0
 33 31  2  0  0  0  0
 34 30  2  0  0  0  0
 34 29  1  0  0  0  0
 36 35  1  0  0  0  0
 37 36  1  0  0  0  0
 38 37  1  0  0  0  0
 38 42  1  1  0  0  0
 39 46  1  6  0  0  0
 39 38  1  0  0  0  0
 40 38  1  0  0  0  0
 41 40  1  0  0  0  0
 43 44  2  0  0  0  0
 44 41  1  0  0  0  0
 44 39  1  0  0  0  0
 45 46  1  0  0  0  0
M  END
>  <MODEL>
1

>  <REMARK>
 VINA RESULT:      -7.5      0.000      0.000
  Name = 
  15 active torsions:
  status: ('A' for Active; 'I' for Inactive)
    1  A    between atoms: C_1  and  C_39
    2  A    between atoms: N_2  and  C_25
    3  A    between atoms: C_9  and  C_23
    4  A    between atoms: C_11  and  C_34
    5  A    between atoms: C_12  and  C_21
    6  A    between atoms: C_12  and  C_40
    7  A    between atoms: C_16  and  C_29
    8  A    between atoms: O_17  and  C_41
    9  A    between atoms: N_18  and  C_33
   10  A    between atoms: C_23  and  C_32
   11  A    between atoms: C_25  and  C_42
   12  A    between atoms: C_32  and  C_33
   13  A    between atoms: C_35  and  C_40
   14  A    between atoms: C_35  and  C_45
   15  A    between atoms: C_41  and  C_42
                            x       y       z     vdW  Elec       q    Type
                         _______ _______ _______ _____ _____    ______ ____

>  <TORSDO>
F 15

$$$$
=
 OpenBabel10232408003D

 46 51  0  0  1  0  0  0  0  0999 V2000
  182.4050  178.4080  138.0370 N   0  0  0  0  0  0  0  0  0  0  0  0
  184.6430  177.6610  137.6870 C   0  0  0  0  0  3  0  0  0  0  0  0
  183.6710  178.2430  138.5090 C   0  0  0  0  0  0  0  0  0  0  0  0
  184.3000  177.2270  136.4030 C   0  0  0  0  0  0  0  0  0  0  0  0
  182.0490  178.0120  136.7860 C   0  0  0  0  0  3  0  0  0  0  0  0
  182.9910  177.4210  135.9460 C   0  0  0  0  0  3  0  0  0  0  0  0
  185.3570  176.5810  135.5480 C   0  0  2  0  0  3  0  0  0  0  0  0
  187.7790  176.7540  136.2340 N   0  0  0  0  0  0  0  0  0  0  0  0
  187.5130  178.1890  136.1280 C   0  0  0  0  0  2  0  0  0  0  0  0
  186.5180  176.0010  136.3860 C   0  0  2  0  0  3  0  0  0  0  0  0
  186.8650  178.5010  134.7810 C   0  0  0  0  0  2  0  0  0  0  0  0
  185.8380  177.4430  134.3700 C   0  0  0  0  0  2  0  0  0  0  0  0
  187.6770  172.3380  136.5660 C   0  0  0  0  0  2  0  0  0  0  0  0
  186.4470  171.5250  136.2120 C   0  0  0  0  0  2  0  0  0  0  0  0
  185.7120  173.6100  136.5630 C   0  0  1  0  0  0  0  0  0  0  0  0
  187.1210  173.6310  137.0830 C   0  0  2  0  0  3  0  0  0  0  0  0
  184.7750  174.0970  137.4790 O   0  0  0  0  0  1  0  0  0  0  0  0
  186.7190  174.5530  135.9250 C   0  0  2  0  0  3  0  0  0  0  0  0
  185.4030  172.4100  135.8980 O   0  0  0  0  0  0  0  0  0  0  0  0
  188.5580  176.5640  137.4530 C   0  0  0  0  0  2  0  0  0  0  0  0
  188.2860  177.6790  138.4590 C   0  0  0  0  0  2  0  0  0  0  0  0
  189.4350  177.8430  139.4490 C   0  0  0  0  0  2  0  0  0  0  0  0
  191.4640  177.2240  140.1140 C   0  0  0  0  0  1  0  0  0  0  0  0
  190.4870  176.9660  139.1470 O   0  0  0  0  0  0  0  0  0  0  0  0
  184.0040  178.7850  139.8690 C   0  0  2  0  0  3  0  0  0  0  0  0
  185.3820  178.9770  140.0090 O   0  0  0  0  0  1  0  0  0  0  0  0
  183.4310  178.0080  141.0520 C   0  0  0  0  0  2  0  0  0  0  0  0
  182.8090  178.9220  142.0990 C   0  0  0  0  0  2  0  0  0  0  0  0
  185.1870  178.4630  143.5110 S   0  0  0  0  0  0  0  0  0  0  0  0
  183.0180  179.0210  144.6570 C   0  0  0  0  0  3  0  0  0  0  0  0
  185.1660  178.6180  145.1860 C   0  0  0  0  0  0  0  0  0  0  0  0
  186.3210  178.4910  146.0150 N   0  0  0  0  0  2  0  0  0  0  0  0
  183.9340  178.9170  145.6580 N   0  0  0  0  0  0  0  0  0  0  0  0
  183.5410  178.7870  143.3870 C   0  0  0  0  0  0  0  0  0  0  0  0
  186.2370  178.6370  147.4640 C   0  0  0  0  0  2  0  0  0  0  0  0
  187.5700  178.2890  148.0940 C   0  0  0  0  0  2  0  0  0  0  0  0
  188.7070  178.4580  147.0840 C   0  0  0  0  0  2  0  0  0  0  0  0
  189.3140  177.1150  146.6490 C   0  0  2  0  0  0  0  0  0  0  0  0
  190.8390  177.2700  146.4620 C   0  0  2  0  0  3  0  0  0  0  0  0
  188.7110  176.6900  145.4320 O   0  0  0  0  0  0  0  0  0  0  0  0
  189.6480  176.8660  144.3850 C   0  0  0  0  0  2  0  0  0  0  0  0
  189.0180  176.1760  147.6440 O   0  0  0  0  0  1  0  0  0  0  0  0
  191.9580  177.4230  144.3740 O   0  0  0  0  0  0  0  0  0  0  0  0
  190.9390  177.1920  145.0060 C   0  0  0  0  0  0  0  0  0  0  0  0
  192.5600  176.6700  148.0250 O   0  0  0  0  0  1  0  0  0  0  0  0
  191.6770  176.1500  147.0780 C   0  0  0  0  0  2  0  0  0  0  0  0
  1  3  1  0  0  0  0
  2  3  2  0  0  0  0
  3 25  1  0  0  0  0
  4  2  1  0  0  0  0
  5  1  2  0  0  0  0
  6  4  2  0  0  0  0
  6  5  1  0  0  0  0
  7 10  1  0  0  0  0
  7  4  1  1  0  0  0
  8 20  1  0  0  0  0
  9  8  1  0  0  0  0
 10  8  1  6  0  0  0
 11  9  1  0  0  0  0
 12 11  1  0  0  0  0
 12  7  1  0  0  0  0
 14 13  1  0  0  0  0
 15 16  1  0  0  0  0
 15 17  1  1  0  0  0
 16 13  1  6  0  0  0
 18 10  1  1  0  0  0
 18 15  1  0  0  0  0
 18 16  1  0  0  0  0
 19 14  1  0  0  0  0
 19 15  1  0  0  0  0
 20 21  1  0  0  0  0
 21 22  1  0  0  0  0
 24 22  1  0  0  0  0
 24 23  1  0  0  0  0
 25 26  1  1  0  0  0
 25 27  1  0  0  0  0
 27 28  1  0  0  0  0
 28 34  1  0  0  0  0
 29 31  1  0  0  0  0
 30 33  1  0  0  0  0
 31 33  2  0  0  0  0
 31 32  1  0  0  0  0
 32 35  1  0  0  0  0
 34 29  1  0  0  0  0
 34 30  2  0  0  0  0
 35 36  1  0  0  0  0
 37 36  1  0  0  0  0
 38 37  1  0  0  0  0
 38 42  1  1  0  0  0
 39 38  1  0  0  0  0
 39 46  1  1  0  0  0
 40 38  1  0  0  0  0
 41 44  1  0  0  0  0
 41 40  1  0  0  0  0
 43 44  2  0  0  0  0
 44 39  1  0  0  0  0
 46 45  1  0  0  0  0
M  END
>  <MODEL>
2

>  <REMARK>
 VINA RESULT:      -7.3      1.748      2.497
  Name = 
  15 active torsions:
  status: ('A' for Active; 'I' for Inactive)
    1  A    between atoms: C_1  and  C_39
    2  A    between atoms: N_2  and  C_25
    3  A    between atoms: C_9  and  C_23
    4  A    between atoms: C_11  and  C_34
    5  A    between atoms: C_12  and  C_21
    6  A    between atoms: C_12  and  C_40
    7  A    between atoms: C_16  and  C_29
    8  A    between atoms: O_17  and  C_41
    9  A    between atoms: N_18  and  C_33
   10  A    between atoms: C_23  and  C_32
   11  A    between atoms: C_25  and  C_42
   12  A    between atoms: C_32  and  C_33
   13  A    between atoms: C_35  and  C_40
   14  A    between atoms: C_35  and  C_45
   15  A    between atoms: C_41  and  C_42
                            x       y       z     vdW  Elec       q    Type
                         _______ _______ _______ _____ _____    ______ ____

>  <TORSDO>
F 15

$$$$
=
 OpenBabel10232408003D

 46 51  0  0  1  0  0  0  0  0999 V2000
  184.5130  179.4740  141.8860 N   0  0  0  0  0  0  0  0  0  0  0  0
  185.0900  178.1770  143.8030 C   0  0  0  0  0  3  0  0  0  0  0  0
  184.1690  178.9630  143.1000 C   0  0  0  0  0  0  0  0  0  0  0  0
  186.3390  177.8960  143.2410 C   0  0  0  0  0  0  0  0  0  0  0  0
  185.7280  179.2320  141.3240 C   0  0  0  0  0  3  0  0  0  0  0  0
  186.6630  178.4450  141.9940 C   0  0  0  0  0  3  0  0  0  0  0  0
  187.3000  177.0280  144.0050 C   0  0  2  0  0  3  0  0  0  0  0  0
  189.7460  177.6480  144.0690 N   0  0  0  0  0  0  0  0  0  0  0  0
  189.6240  177.5200  142.6160 C   0  0  0  0  0  2  0  0  0  0  0  0
  188.4200  177.8460  144.6870 C   0  0  2  0  0  3  0  0  0  0  0  0
  188.9750  176.1850  142.2630 C   0  0  0  0  0  2  0  0  0  0  0  0
  187.8350  175.8210  143.2180 C   0  0  0  0  0  2  0  0  0  0  0  0
  189.1930  178.0750  148.4480 C   0  0  0  0  0  2  0  0  0  0  0  0
  187.8790  177.7580  149.1330 C   0  0  0  0  0  2  0  0  0  0  0  0
  187.3710  178.0820  146.9780 C   0  0  1  0  0  0  0  0  0  0  0  0
  188.7850  178.5780  147.0950 C   0  0  2  0  0  3  0  0  0  0  0  0
  186.5080  179.0050  146.3800 O   0  0  0  0  0  1  0  0  0  0  0  0
  188.4590  177.4100  146.1550 C   0  0  2  0  0  3  0  0  0  0  0  0
  186.9260  177.4450  148.1490 O   0  0  0  0  0  0  0  0  0  0  0  0
  190.5340  178.8500  144.3180 C   0  0  0  0  0  2  0  0  0  0  0  0
  191.9350  178.4970  144.8090 C   0  0  0  0  0  2  0  0  0  0  0  0
  192.0050  177.0710  145.3470 C   0  0  0  0  0  2  0  0  0  0  0  0
  191.8490  175.7280  147.1120 C   0  0  0  0  0  1  0  0  0  0  0  0
  192.0490  177.0640  146.7480 O   0  0  0  0  0  0  0  0  0  0  0  0
  182.8420  179.3470  143.6880 C   0  0  2  0  0  3  0  0  0  0  0  0
  182.9020  179.3740  145.0840 O   0  0  0  0  0  1  0  0  0  0  0  0
  181.6410  178.5410  143.2000 C   0  0  0  0  0  2  0  0  0  0  0  0
  180.9860  179.1620  141.9750 C   0  0  0  0  0  2  0  0  0  0  0  0
  181.8640  179.4160  139.3250 S   0  0  0  0  0  0  0  0  0  0  0  0
  182.0110  177.2520  140.5970 C   0  0  0  0  0  3  0  0  0  0  0  0
  182.5610  178.0780  138.5800 C   0  0  0  0  0  0  0  0  0  0  0  0
  183.1200  178.0950  137.2660 N   0  0  0  0  0  2  0  0  0  0  0  0
  182.5690  176.9900  139.3830 N   0  0  0  0  0  0  0  0  0  0  0  0
  181.5520  178.5580  140.7380 C   0  0  0  0  0  0  0  0  0  0  0  0
  183.7120  176.9000  136.6760 C   0  0  0  0  0  2  0  0  0  0  0  0
  185.1410  177.1850  136.2600 C   0  0  0  0  0  2  0  0  0  0  0  0
  186.0520  177.2790  137.4850 C   0  0  0  0  0  2  0  0  0  0  0  0
  187.4430  177.8370  137.1450 C   0  0  2  0  0  0  0  0  0  0  0  0
  188.4890  176.7020  137.2060 C   0  0  2  0  0  3  0  0  0  0  0  0
  187.7830  178.8670  138.0660 O   0  0  0  0  0  0  0  0  0  0  0  0
  188.7670  178.3660  138.9520 C   0  0  0  0  0  2  0  0  0  0  0  0
  187.3720  178.3930  135.8630 O   0  0  0  0  0  1  0  0  0  0  0  0
  190.0480  176.3640  138.9630 O   0  0  0  0  0  0  0  0  0  0  0  0
  189.2120  177.0700  138.4210 C   0  0  0  0  0  0  0  0  0  0  0  0
  189.2010  175.5780  135.2080 O   0  0  0  0  0  1  0  0  0  0  0  0
  189.4690  176.6710  136.0340 C   0  0  0  0  0  2  0  0  0  0  0  0
  1  3  1  0  0  0  0
  3 25  1  0  0  0  0
  3  2  2  0  0  0  0
  4  2  1  0  0  0  0
  5  1  2  0  0  0  0
  5  6  1  0  0  0  0
  6  4  2  0  0  0  0
  7  4  1  6  0  0  0
  7 10  1  0  0  0  0
  8 20  1  0  0  0  0
  9  8  1  0  0  0  0
 10  8  1  6  0  0  0
 11  9  1  0  0  0  0
 11 12  1  0  0  0  0
 12  7  1  0  0  0  0
 13 14  1  0  0  0  0
 15 17  1  6  0  0  0
 15 16  1  0  0  0  0
 15 19  1  0  0  0  0
 16 13  1  1  0  0  0
 18 10  1  6  0  0  0
 18 15  1  0  0  0  0
 18 16  1  0  0  0  0
 19 14  1  0  0  0  0
 20 21  1  0  0  0  0
 21 22  1  0  0  0  0
 22 24  1  0  0  0  0
 24 23  1  0  0  0  0
 25 26  1  1  0  0  0
 27 25  1  0  0  0  0
 28 27  1  0  0  0  0
 29 34  1  0  0  0  0
 30 34  2  0  0  0  0
 31 29  1  0  0  0  0
 31 33  2  0  0  0  0
 32 31  1  0  0  0  0
 33 30  1  0  0  0  0
 34 28  1  0  0  0  0
 35 32  1  0  0  0  0
 36 35  1  0  0  0  0
 36 37  1  0  0  0  0
 38 42  1  6  0  0  0
 38 39  1  0  0  0  0
 38 37  1  0  0  0  0
 38 40  1  0  0  0  0
 39 46  1  6  0  0  0
 39 44  1  0  0  0  0
 40 41  1  0  0  0  0
 44 41  1  0  0  0  0
 44 43  2  0  0  0  0
 45 46  1  0  0  0  0
M  END
>  <MODEL>
3

>  <REMARK>
 VINA RESULT:      -7.0      3.012      8.404
  Name = 
  15 active torsions:
  status: ('A' for Active; 'I' for Inactive)
    1  A    between atoms: C_1  and  C_39
    2  A    between atoms: N_2  and  C_25
    3  A    between atoms: C_9  and  C_23
    4  A    between atoms: C_11  and  C_34
    5  A    between atoms: C_12  and  C_21
    6  A    between atoms: C_12  and  C_40
    7  A    between atoms: C_16  and  C_29
    8  A    between atoms: O_17  and  C_41
    9  A    between atoms: N_18  and  C_33
   10  A    between atoms: C_23  and  C_32
   11  A    between atoms: C_25  and  C_42
   12  A    between atoms: C_32  and  C_33
   13  A    between atoms: C_35  and  C_40
   14  A    between atoms: C_35  and  C_45
   15  A    between atoms: C_41  and  C_42
                            x       y       z     vdW  Elec       q    Type
                         _______ _______ _______ _____ _____    ______ ____

>  <TORSDO>
F 15

$$$$
=
 OpenBabel10232408003D

 46 51  0  0  1  0  0  0  0  0999 V2000
  191.8130  177.2680  140.7620 N   0  0  0  0  0  0  0  0  0  0  0  0
  189.4740  176.9150  140.4490 C   0  0  0  0  0  3  0  0  0  0  0  0
  190.5600  177.1860  141.2900 C   0  0  0  0  0  0  0  0  0  0  0  0
  189.6790  176.7630  139.0740 C   0  0  0  0  0  0  0  0  0  0  0  0
  192.0420  177.1060  139.4320 C   0  0  0  0  0  3  0  0  0  0  0  0
  190.9810  176.8440  138.5660 C   0  0  0  0  0  3  0  0  0  0  0  0
  188.4920  176.4980  138.1880 C   0  0  2  0  0  3  0  0  0  0  0  0
  188.6910  176.8880  135.7030 N   0  0  0  0  0  0  0  0  0  0  0  0
  189.0080  178.2510  136.1310 C   0  0  0  0  0  2  0  0  0  0  0  0
  188.9010  175.9330  136.8090 C   0  0  2  0  0  3  0  0  0  0  0  0
  187.9450  178.7510  137.1060 C   0  0  0  0  0  2  0  0  0  0  0  0
  187.4970  177.6650  138.0880 C   0  0  0  0  0  2  0  0  0  0  0  0
  187.6790  172.7470  135.0350 C   0  0  0  0  0  2  0  0  0  0  0  0
  187.6780  171.6800  136.1110 C   0  0  0  0  0  2  0  0  0  0  0  0
  188.8020  173.4100  136.9780 C   0  0  1  0  0  0  0  0  0  0  0  0
  188.6800  173.7520  135.5200 C   0  0  2  0  0  3  0  0  0  0  0  0
  190.1130  173.4890  137.4580 O   0  0  0  0  0  1  0  0  0  0  0  0
  188.0580  174.6740  136.5770 C   0  0  2  0  0  3  0  0  0  0  0  0
  188.0530  172.2740  137.3280 O   0  0  0  0  0  0  0  0  0  0  0  0
  189.6370  176.5530  134.6440 C   0  0  0  0  0  2  0  0  0  0  0  0
  191.0440  176.3630  135.2050 C   0  0  0  0  0  2  0  0  0  0  0  0
  191.8540  175.3670  134.3790 C   0  0  0  0  0  2  0  0  0  0  0  0
  192.9630  175.2850  136.3050 C   0  0  0  0  0  1  0  0  0  0  0  0
  193.1360  175.1930  134.9190 O   0  0  0  0  0  0  0  0  0  0  0  0
  190.4030  177.2920  142.7790 C   0  0  2  0  0  3  0  0  0  0  0  0
  191.6290  177.1090  143.4260 O   0  0  0  0  0  1  0  0  0  0  0  0
  189.3150  176.4170  143.3960 C   0  0  0  0  0  2  0  0  0  0  0  0
  188.7090  177.0410  144.6450 C   0  0  0  0  0  2  0  0  0  0  0  0
  186.2180  177.9880  145.5170 S   0  0  0  0  0  0  0  0  0  0  0  0
  186.8360  177.8470  143.0820 C   0  0  0  0  0  3  0  0  0  0  0  0
  185.1190  178.5270  144.3640 C   0  0  0  0  0  0  0  0  0  0  0  0
  183.8510  179.1070  144.6770 N   0  0  0  0  0  2  0  0  0  0  0  0
  185.5870  178.3880  143.1030 N   0  0  0  0  0  0  0  0  0  0  0  0
  187.3430  177.5490  144.3450 C   0  0  0  0  0  0  0  0  0  0  0  0
  182.9410  179.5570  143.6290 C   0  0  0  0  0  2  0  0  0  0  0  0
  182.2940  178.3610  142.9620 C   0  0  0  0  0  2  0  0  0  0  0  0
  181.4680  178.7990  141.7510 C   0  0  0  0  0  2  0  0  0  0  0  0
  182.0780  178.3330  140.4200 C   0  0  2  0  0  0  0  0  0  0  0  0
  182.6900  179.5410  139.6760 C   0  0  2  0  0  3  0  0  0  0  0  0
  181.0720  177.7230  139.6200 O   0  0  0  0  0  0  0  0  0  0  0  0
  180.7420  178.6100  138.5660 C   0  0  0  0  0  2  0  0  0  0  0  0
  183.0530  177.3730  140.7160 O   0  0  0  0  0  1  0  0  0  0  0  0
  181.7210  180.6390  137.8080 O   0  0  0  0  0  0  0  0  0  0  0  0
  181.7330  179.6940  138.5840 C   0  0  0  0  0  0  0  0  0  0  0  0
  185.0640  179.6080  140.0260 O   0  0  0  0  0  1  0  0  0  0  0  0
  184.0790  179.2940  139.0890 C   0  0  0  0  0  2  0  0  0  0  0  0
  1  3  1  0  0  0  0
  2  3  2  0  0  0  0
  3 25  1  0  0  0  0
  4  2  1  0  0  0  0
  5  1  2  0  0  0  0
  6  4  2  0  0  0  0
  6  5  1  0  0  0  0
  7  4  1  6  0  0  0
  8  9  1  0  0  0  0
  9 11  1  0  0  0  0
 10  8  1  6  0  0  0
 10  7  1  0  0  0  0
 11 12  1  0  0  0  0
 12  7  1  0  0  0  0
 13 14  1  0  0  0  0
 14 19  1  0  0  0  0
 15 19  1  0  0  0  0
 15 17  1  1  0  0  0
 16 13  1  6  0  0  0
 16 18  1  0  0  0  0
 16 15  1  0  0  0  0
 18 10  1  1  0  0  0
 18 15  1  0  0  0  0
 20 21  1  0  0  0  0
 20  8  1  0  0  0  0
 22 24  1  0  0  0  0
 22 21  1  0  0  0  0
 24 23  1  0  0  0  0
 25 27  1  0  0  0  0
 25 26  1  1  0  0  0
 27 28  1  0  0  0  0
 30 33  1  0  0  0  0
 30 34  2  0  0  0  0
 31 32  1  0  0  0  0
 31 29  1  0  0  0  0
 33 31  2  0  0  0  0
 34 28  1  0  0  0  0
 34 29  1  0  0  0  0
 35 32  1  0  0  0  0
 36 35  1  0  0  0  0
 37 36  1  0  0  0  0
 38 42  1  1  0  0  0
 38 37  1  0  0  0  0
 39 46  1  6  0  0  0
 39 38  1  0  0  0  0
 40 38  1  0  0  0  0
 41 44  1  0  0  0  0
 41 40  1  0  0  0  0
 43 44  2  0  0  0  0
 44 39  1  0  0  0  0
 46 45  1  0  0  0  0
M  END
>  <MODEL>
4

>  <REMARK>
 VINA RESULT:      -6.8      2.088      5.453
  Name = 
  15 active torsions:
  status: ('A' for Active; 'I' for Inactive)
    1  A    between atoms: C_1  and  C_39
    2  A    between atoms: N_2  and  C_25
    3  A    between atoms: C_9  and  C_23
    4  A    between atoms: C_11  and  C_34
    5  A    between atoms: C_12  and  C_21
    6  A    between atoms: C_12  and  C_40
    7  A    between atoms: C_16  and  C_29
    8  A    between atoms: O_17  and  C_41
    9  A    between atoms: N_18  and  C_33
   10  A    between atoms: C_23  and  C_32
   11  A    between atoms: C_25  and  C_42
   12  A    between atoms: C_32  and  C_33
   13  A    between atoms: C_35  and  C_40
   14  A    between atoms: C_35  and  C_45
   15  A    between atoms: C_41  and  C_42
                            x       y       z     vdW  Elec       q    Type
                         _______ _______ _______ _____ _____    ______ ____

>  <TORSDO>
F 15

$$$$
=
 OpenBabel10232408003D

 46 51  0  0  1  0  0  0  0  0999 V2000
  183.8770  179.5280  142.6030 N   0  0  0  0  0  0  0  0  0  0  0  0
  185.6610  177.9660  142.3380 C   0  0  0  0  0  3  0  0  0  0  0  0
  184.6430  178.7540  141.7870 C   0  0  0  0  0  0  0  0  0  0  0  0
  185.9030  178.0050  143.7140 C   0  0  0  0  0  0  0  0  0  0  0  0
  184.0800  179.5710  143.9470 C   0  0  0  0  0  3  0  0  0  0  0  0
  185.0910  178.8050  144.5270 C   0  0  0  0  0  3  0  0  0  0  0  0
  187.0190  177.1690  144.2790 C   0  0  2  0  0  3  0  0  0  0  0  0
  189.4030  177.9570  144.0310 N   0  0  0  0  0  0  0  0  0  0  0  0
  189.0790  177.8960  142.6060 C   0  0  0  0  0  2  0  0  0  0  0  0
  188.1720  178.0290  144.8430 C   0  0  2  0  0  3  0  0  0  0  0  0
  188.4700  176.5380  142.2670 C   0  0  0  0  0  2  0  0  0  0  0  0
  187.5070  176.0450  143.3510 C   0  0  0  0  0  2  0  0  0  0  0  0
  189.4470  178.1280  148.4700 C   0  0  0  0  0  2  0  0  0  0  0  0
  188.2730  177.6590  149.3060 C   0  0  0  0  0  2  0  0  0  0  0  0
  187.4420  178.0490  147.2650 C   0  0  1  0  0  0  0  0  0  0  0  0
  188.8130  178.6620  147.2210 C   0  0  2  0  0  3  0  0  0  0  0  0
  186.4310  178.9210  146.8510 O   0  0  0  0  0  1  0  0  0  0  0  0
  188.4540  177.5210  146.2610 C   0  0  2  0  0  3  0  0  0  0  0  0
  187.2200  177.3150  148.4430 O   0  0  0  0  0  0  0  0  0  0  0  0
  190.1420  179.1980  144.2380 C   0  0  0  0  0  2  0  0  0  0  0  0
  191.6230  178.9210  144.4870 C   0  0  0  0  0  2  0  0  0  0  0  0
  191.8750  177.4580  144.8380 C   0  0  0  0  0  2  0  0  0  0  0  0
  191.8040  175.9130  146.4350 C   0  0  0  0  0  1  0  0  0  0  0  0
  191.9820  177.2850  146.2250 O   0  0  0  0  0  0  0  0  0  0  0  0
  184.3000  178.6980  140.3260 C   0  0  2  0  0  3  0  0  0  0  0  0
  184.5740  179.9170  139.7000 O   0  0  0  0  0  1  0  0  0  0  0  0
  182.8930  178.2090  139.9930 C   0  0  0  0  0  2  0  0  0  0  0  0
  182.6550  178.1090  138.4920 C   0  0  0  0  0  2  0  0  0  0  0  0
  183.7330  175.5640  138.0200 S   0  0  0  0  0  0  0  0  0  0  0  0
  184.6930  177.6520  136.9980 C   0  0  0  0  0  3  0  0  0  0  0  0
  185.0420  175.4310  136.9720 C   0  0  0  0  0  0  0  0  0  0  0  0
  185.6320  174.1910  136.5830 N   0  0  0  0  0  2  0  0  0  0  0  0
  185.4490  176.6330  136.5040 N   0  0  0  0  0  0  0  0  0  0  0  0
  183.6920  177.2400  137.8720 C   0  0  0  0  0  0  0  0  0  0  0  0
  186.7670  174.1420  135.6680 C   0  0  0  0  0  2  0  0  0  0  0  0
  188.0170  174.6300  136.3720 C   0  0  0  0  0  2  0  0  0  0  0  0
  188.6290  175.8170  135.6260 C   0  0  0  0  0  2  0  0  0  0  0  0
  189.4710  176.7190  136.5400 C   0  0  2  0  0  0  0  0  0  0  0  0
  188.9590  176.6100  137.9940 C   0  0  2  0  0  3  0  0  0  0  0  0
  189.3880  178.0670  136.0910 O   0  0  0  0  0  0  0  0  0  0  0  0
  188.5690  178.7880  136.9940 C   0  0  0  0  0  2  0  0  0  0  0  0
  190.8020  176.2980  136.4390 O   0  0  0  0  0  1  0  0  0  0  0  0
  187.6410  178.2380  139.1110 O   0  0  0  0  0  0  0  0  0  0  0  0
  188.3300  177.9190  138.1540 C   0  0  0  0  0  0  0  0  0  0  0  0
  190.5920  177.6970  139.3770 O   0  0  0  0  0  1  0  0  0  0  0  0
  190.0530  176.4530  139.0480 C   0  0  0  0  0  2  0  0  0  0  0  0
  1  5  1  0  0  0  0
  2  4  2  0  0  0  0
  3  2  1  0  0  0  0
  3  1  2  0  0  0  0
  4  6  1  0  0  0  0
  5  6  2  0  0  0  0
  7  4  1  6  0  0  0
  7 10  1  0  0  0  0
  8 20  1  0  0  0  0
  9  8  1  0  0  0  0
 10  8  1  6  0  0  0
 11  9  1  0  0  0  0
 11 12  1  0  0  0  0
 12  7  1  0  0  0  0
 13 14  1  0  0  0  0
 15 17  1  6  0  0  0
 15 19  1  0  0  0  0
 16 15  1  0  0  0  0
 16 13  1  1  0  0  0
 18 10  1  6  0  0  0
 18 16  1  0  0  0  0
 18 15  1  0  0  0  0
 19 14  1  0  0  0  0
 20 21  1  0  0  0  0
 21 22  1  0  0  0  0
 22 24  1  0  0  0  0
 24 23  1  0  0  0  0
 25 26  1  1  0  0  0
 25  3  1  0  0  0  0
 27 25  1  0  0  0  0
 28 27  1  0  0  0  0
 30 34  2  0  0  0  0
 31 29  1  0  0  0  0
 32 31  1  0  0  0  0
 33 31  2  0  0  0  0
 33 30  1  0  0  0  0
 34 29  1  0  0  0  0
 34 28  1  0  0  0  0
 35 36  1  0  0  0  0
 35 32  1  0  0  0  0
 37 36  1  0  0  0  0
 37 38  1  0  0  0  0
 38 42  1  6  0  0  0
 38 39  1  0  0  0  0
 39 44  1  0  0  0  0
 39 46  1  1  0  0  0
 40 38  1  0  0  0  0
 40 41  1  0  0  0  0
 41 44  1  0  0  0  0
 44 43  2  0  0  0  0
 46 45  1  0  0  0  0
M  END
>  <MODEL>
5

>  <REMARK>
 VINA RESULT:      -6.6      2.541      8.614
  Name = 
  15 active torsions:
  status: ('A' for Active; 'I' for Inactive)
    1  A    between atoms: C_1  and  C_39
    2  A    between atoms: N_2  and  C_25
    3  A    between atoms: C_9  and  C_23
    4  A    between atoms: C_11  and  C_34
    5  A    between atoms: C_12  and  C_21
    6  A    between atoms: C_12  and  C_40
    7  A    between atoms: C_16  and  C_29
    8  A    between atoms: O_17  and  C_41
    9  A    between atoms: N_18  and  C_33
   10  A    between atoms: C_23  and  C_32
   11  A    between atoms: C_25  and  C_42
   12  A    between atoms: C_32  and  C_33
   13  A    between atoms: C_35  and  C_40
   14  A    between atoms: C_35  and  C_45
   15  A    between atoms: C_41  and  C_42
                            x       y       z     vdW  Elec       q    Type
                         _______ _______ _______ _____ _____    ______ ____

>  <TORSDO>
F 15

$$$$
=
 OpenBabel10232408003D

 46 51  0  0  1  0  0  0  0  0999 V2000
  180.1550  176.5990  139.9990 N   0  0  0  0  0  0  0  0  0  0  0  0
  182.4940  176.8190  139.5870 C   0  0  0  0  0  3  0  0  0  0  0  0
  181.3310  177.2380  140.2440 C   0  0  0  0  0  0  0  0  0  0  0  0
  182.4450  175.7300  138.7110 C   0  0  0  0  0  0  0  0  0  0  0  0
  180.0750  175.5490  139.1390 C   0  0  0  0  0  3  0  0  0  0  0  0
  181.2160  175.1010  138.4750 C   0  0  0  0  0  3  0  0  0  0  0  0
  183.7130  175.2820  138.0370 C   0  0  2  0  0  3  0  0  0  0  0  0
  184.0090  175.6880  135.5640 N   0  0  0  0  0  0  0  0  0  0  0  0
  182.7950  174.8760  135.4750 C   0  0  0  0  0  2  0  0  0  0  0  0
  184.1600  176.2520  136.9200 C   0  0  2  0  0  3  0  0  0  0  0  0
  182.9720  173.5850  136.2700 C   0  0  0  0  0  2  0  0  0  0  0  0
  183.7140  173.8120  137.5910 C   0  0  0  0  0  2  0  0  0  0  0  0
  187.5920  177.8950  136.3560 C   0  0  0  0  0  2  0  0  0  0  0  0
  187.9570  178.4980  137.6980 C   0  0  0  0  0  2  0  0  0  0  0  0
  185.7960  177.9400  137.8570 C   0  0  1  0  0  0  0  0  0  0  0  0
  186.0950  177.8150  136.3900 C   0  0  2  0  0  3  0  0  0  0  0  0
  184.6740  178.7290  138.1280 O   0  0  0  0  0  1  0  0  0  0  0  0
  185.6320  176.5860  137.1840 C   0  0  2  0  0  3  0  0  0  0  0  0
  186.9510  178.1720  138.6230 O   0  0  0  0  0  0  0  0  0  0  0  0
  183.8340  176.8020  134.6380 C   0  0  0  0  0  2  0  0  0  0  0  0
  182.3560  177.0470  134.3460 C   0  0  0  0  0  2  0  0  0  0  0  0
  181.9000  178.4170  134.8380 C   0  0  0  0  0  2  0  0  0  0  0  0
  180.6850  178.5020  136.6980 C   0  0  0  0  0  1  0  0  0  0  0  0
  180.5800  178.3670  135.3090 O   0  0  0  0  0  0  0  0  0  0  0  0
  181.3180  178.4420  141.1410 C   0  0  2  0  0  3  0  0  0  0  0  0
  180.8050  179.5580  140.4740 O   0  0  0  0  0  1  0  0  0  0  0  0
  182.6380  178.7690  141.8330 C   0  0  0  0  0  2  0  0  0  0  0  0
  182.4460  179.1670  143.2900 C   0  0  0  0  0  2  0  0  0  0  0  0
  185.1450  178.4180  143.4000 S   0  0  0  0  0  0  0  0  0  0  0  0
  183.7710  178.8390  145.4650 C   0  0  0  0  0  3  0  0  0  0  0  0
  185.8810  178.2960  144.9080 C   0  0  0  0  0  0  0  0  0  0  0  0
  187.2650  178.0030  145.1010 N   0  0  0  0  0  2  0  0  0  0  0  0
  185.0210  178.5460  145.9210 N   0  0  0  0  0  0  0  0  0  0  0  0
  183.6540  178.8030  144.0780 C   0  0  0  0  0  0  0  0  0  0  0  0
  187.8440  177.9110  146.4370 C   0  0  0  0  0  2  0  0  0  0  0  0
  189.3180  177.5740  146.3360 C   0  0  0  0  0  2  0  0  0  0  0  0
  189.9270  178.1790  145.0700 C   0  0  0  0  0  2  0  0  0  0  0  0
  190.4490  177.1120  144.0970 C   0  0  2  0  0  0  0  0  0  0  0  0
  190.7040  177.7490  142.7130 C   0  0  2  0  0  3  0  0  0  0  0  0
  189.4980  176.0600  143.9850 O   0  0  0  0  0  0  0  0  0  0  0  0
  188.8650  176.1630  142.7220 C   0  0  0  0  0  2  0  0  0  0  0  0
  191.6290  176.5890  144.6390 O   0  0  0  0  0  1  0  0  0  0  0  0
  189.3060  177.5040  140.8100 O   0  0  0  0  0  0  0  0  0  0  0  0
  189.6070  177.1640  141.9450 C   0  0  0  0  0  0  0  0  0  0  0  0
  192.0350  177.7250  140.7150 O   0  0  0  0  0  1  0  0  0  0  0  0
  192.0300  177.3580  142.0620 C   0  0  0  0  0  2  0  0  0  0  0  0
  1  3  1  0  0  0  0
  2  3  2  0  0  0  0
  3 25  1  0  0  0  0
  4  2  1  0  0  0  0
  5  1  2  0  0  0  0
  6  4  2  0  0  0  0
  6  5  1  0  0  0  0
  7  4  1  6  0  0  0
  9  8  1  0  0  0  0
  9 11  1  0  0  0  0
 10  8  1  6  0  0  0
 10  7  1  0  0  0  0
 11 12  1  0  0  0  0
 12  7  1  0  0  0  0
 13 14  1  0  0  0  0
 14 19  1  0  0  0  0
 15 17  1  1  0  0  0
 15 19  1  0  0  0  0
 16 13  1  1  0  0  0
 16 18  1  0  0  0  0
 16 15  1  0  0  0  0
 18 10  1  6  0  0  0
 18 15  1  0  0  0  0
 20  8  1  0  0  0  0
 21 20  1  0  0  0  0
 21 22  1  0  0  0  0
 22 24  1  0  0  0  0
 24 23  1  0  0  0  0
 25 26  1  6  0  0  0
 25 27  1  0  0  0  0
 27 28  1  0  0  0  0
 28 34  1  0  0  0  0
 29 34  1  0  0  0  0
 29 31  1  0  0  0  0
 30 33  1  0  0  0  0
 31 32  1  0  0  0  0
 31 33  2  0  0  0  0
 32 35  1  0  0  0  0
 34 30  2  0  0  0  0
 36 35  1  0  0  0  0
 37 36  1  0  0  0  0
 38 42  1  1  0  0  0
 38 37  1  0  0  0  0
 39 46  1  6  0  0  0
 39 38  1  0  0  0  0
 40 38  1  0  0  0  0
 41 40  1  0  0  0  0
 43 44  2  0  0  0  0
 44 39  1  0  0  0  0
 44 41  1  0  0  0  0
 45 46  1  0  0  0  0
M  END
>  <MODEL>
6

>  <REMARK>
 VINA RESULT:      -6.5      2.826      5.237
  Name = 
  15 active torsions:
  status: ('A' for Active; 'I' for Inactive)
    1  A    between atoms: C_1  and  C_39
    2  A    between atoms: N_2  and  C_25
    3  A    between atoms: C_9  and  C_23
    4  A    between atoms: C_11  and  C_34
    5  A    between atoms: C_12  and  C_21
    6  A    between atoms: C_12  and  C_40
    7  A    between atoms: C_16  and  C_29
    8  A    between atoms: O_17  and  C_41
    9  A    between atoms: N_18  and  C_33
   10  A    between atoms: C_23  and  C_32
   11  A    between atoms: C_25  and  C_42
   12  A    between atoms: C_32  and  C_33
   13  A    between atoms: C_35  and  C_40
   14  A    between atoms: C_35  and  C_45
   15  A    between atoms: C_41  and  C_42
                            x       y       z     vdW  Elec       q    Type
                         _______ _______ _______ _____ _____    ______ ____

>  <TORSDO>
F 15

$$$$
=
 OpenBabel10232408003D

 46 51  0  0  1  0  0  0  0  0999 V2000
  189.5200  176.1050  137.9240 N   0  0  0  0  0  0  0  0  0  0  0  0
  187.4670  177.2920  138.1870 C   0  0  0  0  0  3  0  0  0  0  0  0
  188.7380  176.9430  138.6590 C   0  0  0  0  0  0  0  0  0  0  0  0
  187.0240  176.8030  136.9550 C   0  0  0  0  0  0  0  0  0  0  0  0
  189.1060  175.6010  136.7310 C   0  0  0  0  0  3  0  0  0  0  0  0
  187.8500  175.9350  136.2290 C   0  0  0  0  0  3  0  0  0  0  0  0
  185.6640  177.2130  136.4580 C   0  0  2  0  0  3  0  0  0  0  0  0
  183.6300  175.9260  137.2160 N   0  0  0  0  0  0  0  0  0  0  0  0
  184.3400  174.8050  136.5990 C   0  0  0  0  0  2  0  0  0  0  0  0
  184.5650  177.0260  137.5270 C   0  0  2  0  0  3  0  0  0  0  0  0
  184.7740  175.1790  135.1840 C   0  0  0  0  0  2  0  0  0  0  0  0
  185.2790  176.6220  135.0920 C   0  0  0  0  0  2  0  0  0  0  0  0
  181.8660  179.5040  138.6950 C   0  0  0  0  0  2  0  0  0  0  0  0
  182.6330  180.7460  139.1070 C   0  0  0  0  0  2  0  0  0  0  0  0
  184.1730  179.1410  138.8600 C   0  0  1  0  0  0  0  0  0  0  0  0
  182.8670  178.3970  138.8330 C   0  0  2  0  0  3  0  0  0  0  0  0
  185.0900  178.6170  139.7750 O   0  0  0  0  0  1  0  0  0  0  0  0
  183.8000  178.3500  137.6150 C   0  0  2  0  0  3  0  0  0  0  0  0
  183.9970  180.5350  138.8460 O   0  0  0  0  0  0  0  0  0  0  0  0
  183.0910  175.4330  138.4790 C   0  0  0  0  0  2  0  0  0  0  0  0
  181.6410  174.9840  138.3200 C   0  0  0  0  0  2  0  0  0  0  0  0
  180.9350  175.7350  137.1950 C   0  0  0  0  0  2  0  0  0  0  0  0
  180.7170  173.8560  136.0270 C   0  0  0  0  0  1  0  0  0  0  0  0
  179.9840  174.9200  136.5660 O   0  0  0  0  0  0  0  0  0  0  0  0
  189.2340  177.3870  140.0050 C   0  0  2  0  0  3  0  0  0  0  0  0
  189.3650  178.7790  140.0570 O   0  0  0  0  0  1  0  0  0  0  0  0
  190.4970  176.6940  140.5090 C   0  0  0  0  0  2  0  0  0  0  0  0
  191.3740  177.6210  141.3390 C   0  0  0  0  0  2  0  0  0  0  0  0
  190.3620  176.3760  143.6380 S   0  0  0  0  0  0  0  0  0  0  0  0
  190.7930  178.8510  143.5180 C   0  0  0  0  0  3  0  0  0  0  0  0
  190.0820  177.3190  145.0020 C   0  0  0  0  0  0  0  0  0  0  0  0
  189.6460  176.7990  146.2580 N   0  0  0  0  0  2  0  0  0  0  0  0
  190.3550  178.6260  144.7870 N   0  0  0  0  0  0  0  0  0  0  0  0
  190.8490  177.7050  142.7290 C   0  0  0  0  0  0  0  0  0  0  0  0
  189.4210  177.6710  147.4060 C   0  0  0  0  0  2  0  0  0  0  0  0
  187.9650  177.6080  147.8220 C   0  0  0  0  0  2  0  0  0  0  0  0
  187.1240  178.5820  146.9940 C   0  0  0  0  0  2  0  0  0  0  0  0
  186.1670  177.8640  146.0310 C   0  0  2  0  0  0  0  0  0  0  0  0
  186.1750  178.5780  144.6600 C   0  0  2  0  0  3  0  0  0  0  0  0
  184.8520  177.8620  146.5740 O   0  0  0  0  0  0  0  0  0  0  0  0
  184.0670  178.7890  145.8470 C   0  0  0  0  0  2  0  0  0  0  0  0
  186.6020  176.5390  145.9140 O   0  0  0  0  0  1  0  0  0  0  0  0
  184.4680  180.0150  143.8500 O   0  0  0  0  0  0  0  0  0  0  0  0
  184.8550  179.2030  144.6780 C   0  0  0  0  0  0  0  0  0  0  0  0
  187.3080  178.0440  142.6120 O   0  0  0  0  0  1  0  0  0  0  0  0
  186.2680  177.6460  143.4530 C   0  0  0  0  0  2  0  0  0  0  0  0
  1  3  1  0  0  0  0
  2  3  2  0  0  0  0
  3 25  1  0  0  0  0
  4  2  1  0  0  0  0
  5  1  2  0  0  0  0
  6  5  1  0  0  0  0
  6  4  2  0  0  0  0
  7  4  1  1  0  0  0
  7 10  1  0  0  0  0
  8 20  1  0  0  0  0
  9  8  1  0  0  0  0
 10  8  1  6  0  0  0
 11  9  1  0  0  0  0
 12 11  1  0  0  0  0
 12  7  1  0  0  0  0
 13 14  1  0  0  0  0
 15 17  1  1  0  0  0
 16 13  1  6  0  0  0
 16 15  1  0  0  0  0
 18 10  1  1  0  0  0
 18 16  1  0  0  0  0
 18 15  1  0  0  0  0
 19 15  1  0  0  0  0
 19 14  1  0  0  0  0
 21 20  1  0  0  0  0
 22 21  1  0  0  0  0
 23 24  1  0  0  0  0
 24 22  1  0  0  0  0
 25 26  1  6  0  0  0
 25 27  1  0  0  0  0
 27 28  1  0  0  0  0
 28 34  1  0  0  0  0
 29 31  1  0  0  0  0
 30 33  1  0  0  0  0
 31 32  1  0  0  0  0
 32 35  1  0  0  0  0
 33 31  2  0  0  0  0
 34 30  2  0  0  0  0
 34 29  1  0  0  0  0
 35 36  1  0  0  0  0
 37 36  1  0  0  0  0
 38 42  1  6  0  0  0
 38 40  1  0  0  0  0
 38 37  1  0  0  0  0
 39 46  1  6  0  0  0
 39 44  1  0  0  0  0
 39 38  1  0  0  0  0
 41 40  1  0  0  0  0
 43 44  2  0  0  0  0
 44 41  1  0  0  0  0
 45 46  1  0  0  0  0
M  END
>  <MODEL>
7

>  <REMARK>
 VINA RESULT:      -6.5      2.959      6.217
  Name = 
  15 active torsions:
  status: ('A' for Active; 'I' for Inactive)
    1  A    between atoms: C_1  and  C_39
    2  A    between atoms: N_2  and  C_25
    3  A    between atoms: C_9  and  C_23
    4  A    between atoms: C_11  and  C_34
    5  A    between atoms: C_12  and  C_21
    6  A    between atoms: C_12  and  C_40
    7  A    between atoms: C_16  and  C_29
    8  A    between atoms: O_17  and  C_41
    9  A    between atoms: N_18  and  C_33
   10  A    between atoms: C_23  and  C_32
   11  A    between atoms: C_25  and  C_42
   12  A    between atoms: C_32  and  C_33
   13  A    between atoms: C_35  and  C_40
   14  A    between atoms: C_35  and  C_45
   15  A    between atoms: C_41  and  C_42
                            x       y       z     vdW  Elec       q    Type
                         _______ _______ _______ _____ _____    ______ ____

>  <TORSDO>
F 15

$$$$
=
 OpenBabel10232408003D

 46 51  0  0  1  0  0  0  0  0999 V2000
  182.0680  176.2360  139.5360 N   0  0  0  0  0  0  0  0  0  0  0  0
  183.7980  176.6990  137.9600 C   0  0  0  0  0  3  0  0  0  0  0  0
  183.0950  177.0290  139.1250 C   0  0  0  0  0  0  0  0  0  0  0  0
  183.4620  175.5440  137.2480 C   0  0  0  0  0  0  0  0  0  0  0  0
  181.7080  175.1170  138.8510 C   0  0  0  0  0  3  0  0  0  0  0  0
  182.3950  174.7560  137.6930 C   0  0  0  0  0  3  0  0  0  0  0  0
  184.2500  175.1980  136.0130 C   0  0  2  0  0  3  0  0  0  0  0  0
  186.3500  176.4920  135.4820 N   0  0  0  0  0  0  0  0  0  0  0  0
  185.4270  177.6270  135.4800 C   0  0  0  0  0  2  0  0  0  0  0  0
  185.7730  175.3530  136.2240 C   0  0  2  0  0  3  0  0  0  0  0  0
  184.2290  177.3220  134.5850 C   0  0  0  0  0  2  0  0  0  0  0  0
  183.7500  175.8740  134.7270 C   0  0  0  0  0  2  0  0  0  0  0  0
  188.4290  172.5800  136.0020 C   0  0  0  0  0  2  0  0  0  0  0  0
  187.6590  171.2900  136.2040 C   0  0  0  0  0  2  0  0  0  0  0  0
  186.2470  172.9300  136.7750 C   0  0  1  0  0  0  0  0  0  0  0  0
  187.5780  173.6190  136.6700 C   0  0  2  0  0  3  0  0  0  0  0  0
  185.5880  173.1780  137.9820 O   0  0  0  0  0  1  0  0  0  0  0  0
  186.4220  174.0460  135.7570 C   0  0  2  0  0  3  0  0  0  0  0  0
  186.2940  171.5990  136.3250 O   0  0  0  0  0  0  0  0  0  0  0  0
  187.5440  176.9270  136.2000 C   0  0  0  0  0  2  0  0  0  0  0  0
  187.4370  178.3940  136.6060 C   0  0  0  0  0  2  0  0  0  0  0  0
  188.5900  178.8180  137.5110 C   0  0  0  0  0  2  0  0  0  0  0  0
  188.7080  178.2230  139.6500 C   0  0  0  0  0  1  0  0  0  0  0  0
  188.9790  177.7680  138.3540 O   0  0  0  0  0  0  0  0  0  0  0  0
  183.3720  178.2920  139.8880 C   0  0  2  0  0  3  0  0  0  0  0  0
  184.1350  179.1810  139.1260 O   0  0  0  0  0  1  0  0  0  0  0  0
  183.9670  178.1080  141.2830 C   0  0  0  0  0  2  0  0  0  0  0  0
  185.2000  178.9730  141.5050 C   0  0  0  0  0  2  0  0  0  0  0  0
  185.3820  179.1860  144.2940 S   0  0  0  0  0  0  0  0  0  0  0  0
  186.8520  177.6450  142.9560 C   0  0  0  0  0  3  0  0  0  0  0  0
  186.4850  178.2060  145.1020 C   0  0  0  0  0  0  0  0  0  0  0  0
  186.6210  178.1570  146.5230 N   0  0  0  0  0  2  0  0  0  0  0  0
  187.2040  177.4360  144.2550 N   0  0  0  0  0  0  0  0  0  0  0  0
  185.8530  178.6010  142.7890 C   0  0  0  0  0  0  0  0  0  0  0  0
  187.5980  177.2840  147.1640 C   0  0  0  0  0  2  0  0  0  0  0  0
  189.0000  177.7030  146.7690 C   0  0  0  0  0  2  0  0  0  0  0  0
  189.8660  176.4770  146.4700 C   0  0  0  0  0  2  0  0  0  0  0  0
  191.1450  176.8330  145.6970 C   0  0  2  0  0  0  0  0  0  0  0  0
  190.7760  177.5810  144.3960 C   0  0  2  0  0  3  0  0  0  0  0  0
  191.8650  175.6440  145.3910 O   0  0  0  0  0  0  0  0  0  0  0  0
  191.7190  175.3770  144.0080 C   0  0  0  0  0  2  0  0  0  0  0  0
  191.9360  177.6290  146.5330 O   0  0  0  0  0  1  0  0  0  0  0  0
  190.8000  176.6410  142.2170 O   0  0  0  0  0  0  0  0  0  0  0  0
  191.0840  176.5560  143.4020 C   0  0  0  0  0  0  0  0  0  0  0  0
  190.8010  179.9040  143.7910 O   0  0  0  0  0  1  0  0  0  0  0  0
  191.6210  178.8210  144.1090 C   0  0  0  0  0  2  0  0  0  0  0  0
  2  3  2  0  0  0  0
  3  1  1  0  0  0  0
  3 25  1  0  0  0  0
  4  6  2  0  0  0  0
  4  2  1  0  0  0  0
  5  1  2  0  0  0  0
  6  5  1  0  0  0  0
  7 10  1  0  0  0  0
  7  4  1  1  0  0  0
  8 20  1  0  0  0  0
  9  8  1  0  0  0  0
 10  8  1  6  0  0  0
 11 12  1  0  0  0  0
 11  9  1  0  0  0  0
 12  7  1  0  0  0  0
 13 14  1  0  0  0  0
 14 19  1  0  0  0  0
 15 17  1  1  0  0  0
 16 13  1  6  0  0  0
 16 15  1  0  0  0  0
 18 10  1  1  0  0  0
 18 16  1  0  0  0  0
 18 15  1  0  0  0  0
 19 15  1  0  0  0  0
 20 21  1  0  0  0  0
 21 22  1  0  0  0  0
 22 24  1  0  0  0  0
 24 23  1  0  0  0  0
 25 26  1  6  0  0  0
 25 27  1  0  0  0  0
 27 28  1  0  0  0  0
 28 34  1  0  0  0  0
 29 31  1  0  0  0  0
 30 33  1  0  0  0  0
 31 32  1  0  0  0  0
 32 35  1  0  0  0  0
 33 31  2  0  0  0  0
 34 30  2  0  0  0  0
 34 29  1  0  0  0  0
 36 35  1  0  0  0  0
 37 36  1  0  0  0  0
 38 37  1  0  0  0  0
 38 42  1  1  0  0  0
 39 46  1  6  0  0  0
 39 38  1  0  0  0  0
 40 38  1  0  0  0  0
 41 40  1  0  0  0  0
 43 44  2  0  0  0  0
 44 41  1  0  0  0  0
 44 39  1  0  0  0  0
 45 46  1  0  0  0  0
M  END
>  <MODEL>
8

>  <REMARK>
 VINA RESULT:      -6.2      2.152      3.091
  Name = 
  15 active torsions:
  status: ('A' for Active; 'I' for Inactive)
    1  A    between atoms: C_1  and  C_39
    2  A    between atoms: N_2  and  C_25
    3  A    between atoms: C_9  and  C_23
    4  A    between atoms: C_11  and  C_34
    5  A    between atoms: C_12  and  C_21
    6  A    between atoms: C_12  and  C_40
    7  A    between atoms: C_16  and  C_29
    8  A    between atoms: O_17  and  C_41
    9  A    between atoms: N_18  and  C_33
   10  A    between atoms: C_23  and  C_32
   11  A    between atoms: C_25  and  C_42
   12  A    between atoms: C_32  and  C_33
   13  A    between atoms: C_35  and  C_40
   14  A    between atoms: C_35  and  C_45
   15  A    between atoms: C_41  and  C_42
                            x       y       z     vdW  Elec       q    Type
                         _______ _______ _______ _____ _____    ______ ____

>  <TORSDO>
F 15

$$$$
=
 OpenBabel10232408003D

 46 51  0  0  1  0  0  0  0  0999 V2000
  190.8560  178.0420  138.9590 N   0  0  0  0  0  0  0  0  0  0  0  0
  188.9590  177.4700  140.2860 C   0  0  0  0  0  3  0  0  0  0  0  0
  189.5050  178.0300  139.1260 C   0  0  0  0  0  0  0  0  0  0  0  0
  189.8000  176.9010  141.2470 C   0  0  0  0  0  0  0  0  0  0  0  0
  191.6980  177.5120  139.8850 C   0  0  0  0  0  3  0  0  0  0  0  0
  191.1850  176.9380  141.0480 C   0  0  0  0  0  3  0  0  0  0  0  0
  189.1860  176.2820  142.4740 C   0  0  2  0  0  3  0  0  0  0  0  0
  189.8430  177.1420  144.7540 N   0  0  0  0  0  0  0  0  0  0  0  0
  191.1800  176.7460  144.3120 C   0  0  0  0  0  2  0  0  0  0  0  0
  188.9430  177.3160  143.5960 C   0  0  2  0  0  3  0  0  0  0  0  0
  191.1540  175.3120  143.7920 C   0  0  0  0  0  2  0  0  0  0  0  0
  189.8960  175.0130  142.9710 C   0  0  0  0  0  2  0  0  0  0  0  0
  185.6590  178.1770  145.4030 C   0  0  0  0  0  2  0  0  0  0  0  0
  184.5910  178.0840  144.3310 C   0  0  0  0  0  2  0  0  0  0  0  0
  186.5450  178.0420  143.2410 C   0  0  1  0  0  0  0  0  0  0  0  0
  186.9190  178.4500  144.6380 C   0  0  2  0  0  3  0  0  0  0  0  0
  187.0530  178.8970  142.2590 O   0  0  0  0  0  1  0  0  0  0  0  0
  187.4860  177.1550  144.0410 C   0  0  2  0  0  3  0  0  0  0  0  0
  185.1960  177.6640  143.1340 O   0  0  0  0  0  0  0  0  0  0  0  0
  189.9860  178.4420  145.4010 C   0  0  0  0  0  2  0  0  0  0  0  0
  189.7440  178.3360  146.9050 C   0  0  0  0  0  2  0  0  0  0  0  0
  189.2100  176.9620  147.2980 C   0  0  0  0  0  2  0  0  0  0  0  0
  187.9850  178.0050  148.8320 C   0  0  0  0  0  1  0  0  0  0  0  0
  187.9070  177.0570  147.8070 O   0  0  0  0  0  0  0  0  0  0  0  0
  188.6510  178.7120  138.0960 C   0  0  2  0  0  3  0  0  0  0  0  0
  187.2920  178.5120  138.3600 O   0  0  0  0  0  1  0  0  0  0  0  0
  188.9840  178.3940  136.6410 C   0  0  0  0  0  2  0  0  0  0  0  0
  188.3900  177.0680  136.1870 C   0  0  0  0  0  2  0  0  0  0  0  0
  190.0320  175.0480  137.2260 S   0  0  0  0  0  0  0  0  0  0  0  0
  190.0930  175.7310  134.8060 C   0  0  0  0  0  3  0  0  0  0  0  0
  191.0600  174.2310  136.1740 C   0  0  0  0  0  0  0  0  0  0  0  0
  191.8860  173.1310  136.5560 N   0  0  0  0  0  2  0  0  0  0  0  0
  190.9860  174.7080  134.9110 N   0  0  0  0  0  0  0  0  0  0  0  0
  189.4720  176.0630  136.0070 C   0  0  0  0  0  0  0  0  0  0  0  0
  192.7560  172.4630  135.5950 C   0  0  0  0  0  2  0  0  0  0  0  0
  194.1830  172.4660  136.1040 C   0  0  0  0  0  2  0  0  0  0  0  0
  194.2700  173.1580  137.4660 C   0  0  0  0  0  2  0  0  0  0  0  0
  195.1640  174.4070  137.4380 C   0  0  2  0  0  0  0  0  0  0  0  0
  196.5440  174.0470  136.8440 C   0  0  2  0  0  3  0  0  0  0  0  0
  195.3160  174.9170  138.7580 O   0  0  0  0  0  0  0  0  0  0  0  0
  196.6270  174.6190  139.2020 C   0  0  0  0  0  2  0  0  0  0  0  0
  194.5140  175.3730  136.6600 O   0  0  0  0  0  1  0  0  0  0  0  0
  198.5410  173.7530  138.0920 O   0  0  0  0  0  0  0  0  0  0  0  0
  197.3760  174.1180  138.0430 C   0  0  0  0  0  0  0  0  0  0  0  0
  197.6070  176.1620  136.4460 O   0  0  0  0  0  1  0  0  0  0  0  0
  197.0750  175.0390  135.8110 C   0  0  0  0  0  2  0  0  0  0  0  0
  1  3  2  0  0  0  0
  1  5  1  0  0  0  0
  2  4  2  0  0  0  0
  3  2  1  0  0  0  0
  5  6  2  0  0  0  0
  6  4  1  0  0  0  0
  7  4  1  6  0  0  0
  7 12  1  0  0  0  0
  7 10  1  0  0  0  0
  8 20  1  0  0  0  0
  9  8  1  0  0  0  0
 10  8  1  1  0  0  0
 11  9  1  0  0  0  0
 12 11  1  0  0  0  0
 14 13  1  0  0  0  0
 15 17  1  6  0  0  0
 15 18  1  0  0  0  0
 15 16  1  0  0  0  0
 16 13  1  1  0  0  0
 18 10  1  6  0  0  0
 18 16  1  0  0  0  0
 19 15  1  0  0  0  0
 19 14  1  0  0  0  0
 20 21  1  0  0  0  0
 21 22  1  0  0  0  0
 22 24  1  0  0  0  0
 24 23  1  0  0  0  0
 25 26  1  1  0  0  0
 25  3  1  0  0  0  0
 27 25  1  0  0  0  0
 28 27  1  0  0  0  0
 30 33  1  0  0  0  0
 30 34  2  0  0  0  0
 31 32  1  0  0  0  0
 31 29  1  0  0  0  0
 33 31  2  0  0  0  0
 34 28  1  0  0  0  0
 34 29  1  0  0  0  0
 35 36  1  0  0  0  0
 35 32  1  0  0  0  0
 36 37  1  0  0  0  0
 38 42  1  6  0  0  0
 38 37  1  0  0  0  0
 38 40  1  0  0  0  0
 39 46  1  6  0  0  0
 39 38  1  0  0  0  0
 39 44  1  0  0  0  0
 40 41  1  0  0  0  0
 44 43  2  0  0  0  0
 44 41  1  0  0  0  0
 46 45  1  0  0  0  0
M  END
>  <MODEL>
9

>  <REMARK>
 VINA RESULT:      -6.0      3.662      9.666
  Name = 
  15 active torsions:
  status: ('A' for Active; 'I' for Inactive)
    1  A    between atoms: C_1  and  C_39
    2  A    between atoms: N_2  and  C_25
    3  A    between atoms: C_9  and  C_23
    4  A    between atoms: C_11  and  C_34
    5  A    between atoms: C_12  and  C_21
    6  A    between atoms: C_12  and  C_40
    7  A    between atoms: C_16  and  C_29
    8  A    between atoms: O_17  and  C_41
    9  A    between atoms: N_18  and  C_33
   10  A    between atoms: C_23  and  C_32
   11  A    between atoms: C_25  and  C_42
   12  A    between atoms: C_32  and  C_33
   13  A    between atoms: C_35  and  C_40
   14  A    between atoms: C_35  and  C_45
   15  A    between atoms: C_41  and  C_42
                            x       y       z     vdW  Elec       q    Type
                         _______ _______ _______ _____ _____    ______ ____

>  <TORSDO>
F 15

$$$$
