=
 OpenBabel10232411343D

 48 53  0  0  1  0  0  0  0  0999 V2000
  189.0500  176.9460  138.5020 N   0  0  2  0  0  0  0  0  0  0  0  0
  188.2370  177.5150  139.5960 C   0  0  2  0  0  3  0  0  0  0  0  0
  183.2080  178.9430  141.1700 O   0  0  0  0  0  0  0  0  0  0  0  0
  187.1780  178.3830  139.1040 N   0  0  0  0  0  2  0  0  0  0  0  0
  185.0280  177.3950  137.2760 C   0  0  0  0  0  3  0  0  0  0  0  0
  184.5600  178.9080  141.5320 C   0  0  0  0  0  0  0  0  0  0  0  0
  189.7980  177.8230  137.5910 C   0  0  2  0  0  3  0  0  0  0  0  0
  188.9670  178.9680  137.0230 C   0  0  0  0  0  1  0  0  0  0  0  0
  182.6740  178.6030  139.8970 C   0  0  0  0  0  3  0  0  0  0  0  0
  189.2080  175.8120  136.3880 C   0  0  0  0  0  2  0  0  0  0  0  0
  185.3930  178.5490  140.6240 C   0  0  0  0  0  0  0  0  0  0  0  0
  186.9530  175.8240  137.5670 C   0  0  0  0  0  2  0  0  0  0  0  0
  183.3110  178.1700  138.7760 C   0  0  0  0  0  3  0  0  0  0  0  0
  188.4870  175.8320  137.7260 C   0  0  2  0  0  3  0  0  0  0  0  0
  185.8250  178.1570  139.4830 C   0  0  0  0  0  0  0  0  0  0  0  0
  186.3920  177.0030  136.7670 C   0  0  1  0  0  3  0  0  0  0  0  0
  184.7590  177.9100  138.4840 C   0  0  0  0  0  0  0  0  0  0  0  0
  190.2290  176.9340  136.4440 C   0  0  0  0  0  2  0  0  0  0  0  0
  185.0130  179.2560  142.8780 C   0  0  0  0  0  3  0  0  0  0  0  0
  185.2820  178.3340  143.7400 N   0  0  0  0  0  2  0  0  0  0  0  0
  189.0960  178.2260  140.6360 C   0  0  0  0  0  2  0  0  0  0  0  0
  189.0870  177.5240  141.8470 O   0  0  0  0  0  0  0  0  0  0  0  0
  190.2220  176.7820  141.8310 N   0  0  0  0  0  0  0  0  0  0  0  0
  191.3230  177.7320  141.9350 C   0  0  0  0  0  1  0  0  0  0  0  0
  189.1990  176.4250  143.9710 N   0  0  0  0  0  0  0  0  0  0  0  0
  189.7450  176.8010  145.0730 C   0  0  0  0  0  0  0  0  0  0  0  0
  191.1540  176.6830  145.1030 N   0  0  0  0  0  0  0  0  0  0  0  0
  191.5460  176.1400  143.8130 C   0  0  0  0  0  3  0  0  0  0  0  0
  190.2270  175.9610  143.0450 C   0  0  2  0  0  3  0  0  0  0  0  0
  187.7630  177.7750  146.0770 N   0  0  0  0  0  0  0  0  0  0  0  0
  189.4270  177.3820  147.5010 O   0  0  0  0  0  0  0  0  0  0  0  0
  188.9620  177.3210  146.1970 C   0  0  0  0  0  0  0  0  0  0  0  0
  187.3230  178.1870  147.3380 N   0  0  0  0  0  0  0  0  0  0  0  0
  188.3950  177.9440  148.2980 C   0  0  0  0  0  3  0  0  0  0  0  0
  186.3500  176.6880  135.2650 C   0  0  1  0  0  3  0  0  0  0  0  0
  184.0140  175.7070  134.9950 C   0  0  0  0  0  0  0  0  0  0  0  0
  184.9820  176.7340  134.7540 N   0  0  0  0  0  2  0  0  0  0  0  0
  182.7920  176.0100  134.9680 O   0  0  0  0  0  0  0  0  0  0  0  0
  186.0360  172.3780  134.9660 C   0  0  0  0  0  0  0  0  0  0  0  0
  185.1900  171.5910  135.8030 N   0  0  0  0  0  2  0  0  0  0  0  0
  185.5960  173.7360  134.4950 C   0  0  0  0  0  2  0  0  0  0  0  0
  187.1240  171.8650  134.4970 N   0  0  0  0  0  2  0  0  0  0  0  0
  183.2360  171.4530  137.0580 O   0  0  0  0  0  0  0  0  0  0  0  0
  183.9930  172.1510  136.3360 C   0  0  0  0  0  0  0  0  0  0  0  0
  183.6570  173.5510  136.0540 C   0  0  0  0  0  3  0  0  0  0  0  0
  184.4160  174.3080  135.2520 C   0  0  0  0  0  0  0  0  0  0  0  0
  186.3080  178.6990  134.3470 C   0  0  0  0  0  1  0  0  0  0  0  0
  187.1430  177.6000  134.5670 O   0  0  0  0  0  0  0  0  0  0  0  0
  1  2  1  0  0  0  0
  2 21  1  0  0  0  0
  3  6  1  0  0  0  0
  4 15  1  0  0  0  0
  4  2  1  0  0  0  0
  5 17  2  0  0  0  0
  6 19  1  0  0  0  0
  7  1  1  0  0  0  0
  8  7  1  0  0  0  0
  9  3  1  0  0  0  0
 10 18  1  0  0  0  0
 10 14  1  0  0  0  0
 11  6  2  0  0  0  0
 12 14  1  0  0  0  0
 13  9  2  0  0  0  0
 14  1  1  0  0  0  0
 15 11  2  0  0  0  0
 16  5  1  0  0  0  0
 16 12  1  0  0  0  0
 17 13  1  0  0  0  0
 17 15  1  0  0  0  0
 18  7  1  0  0  0  0
 19 20  2  0  0  0  0
 21 22  1  0  0  0  0
 23 22  1  0  0  0  0
 23 24  1  0  0  0  0
 23 29  1  0  0  0  0
 25 26  2  0  0  0  0
 26 27  1  0  0  0  0
 26 32  1  0  0  0  0
 28 27  2  0  0  0  0
 29 28  1  0  0  0  0
 29 25  1  0  0  0  0
 30 32  2  0  0  0  0
 30 33  1  0  0  0  0
 31 34  1  0  0  0  0
 32 31  1  0  0  0  0
 33 34  2  0  0  0  0
 35 16  1  0  0  0  0
 36 46  1  0  0  0  0
 37 36  1  0  0  0  0
 37 35  1  0  0  0  0
 38 36  2  0  0  0  0
 39 40  1  0  0  0  0
 40 44  1  0  0  0  0
 41 39  1  0  0  0  0
 41 46  1  0  0  0  0
 42 39  2  0  0  0  0
 44 43  2  0  0  0  0
 45 44  1  0  0  0  0
 46 45  2  0  0  0  0
 47 48  1  0  0  0  0
 48 35  1  0  0  0  0
M  END
>  <MODEL>
1

>  <REMARK>
 VINA RESULT:      -7.5      0.000      0.000
  Name = 
  10 active torsions:
  status: ('A' for Active; 'I' for Inactive)
    1  A    between atoms: C_2  and  C_6
    2  A    between atoms: C_6  and  O_10
    3  A    between atoms: C_7  and  C_15
    4  A    between atoms: O_10  and  N_19
    5  A    between atoms: C_14  and  C_40
    6  A    between atoms: C_18  and  N_29
    7  A    between atoms: C_18  and  O_33
    8  A    between atoms: C_18  and  C_43
    9  A    between atoms: N_19  and  C_45
   10  A    between atoms: C_21  and  C_30
                            x       y       z     vdW  Elec       q    Type
                         _______ _______ _______ _____ _____    ______ ____

>  <TORSDO>
F 10

$$$$
=
 OpenBabel10232411343D

 48 53  0  0  1  0  0  0  0  0999 V2000
  186.0210  177.2790  137.4200 N   0  0  2  0  0  0  0  0  0  0  0  0
  184.9140  176.3050  137.3210 C   0  0  2  0  0  3  0  0  0  0  0  0
  183.5410  171.2050  135.9360 O   0  0  0  0  0  0  0  0  0  0  0  0
  185.0260  175.4590  136.1430 N   0  0  0  0  0  2  0  0  0  0  0  0
  187.3780  173.6710  135.6810 C   0  0  0  0  0  3  0  0  0  0  0  0
  183.0660  172.4390  136.3970 C   0  0  0  0  0  0  0  0  0  0  0  0
  186.2310  178.2800  136.3670 C   0  0  2  0  0  3  0  0  0  0  0  0
  186.2330  177.6990  134.9590 C   0  0  0  0  0  1  0  0  0  0  0  0
  184.8650  170.9290  135.5000 C   0  0  0  0  0  3  0  0  0  0  0  0
  188.3710  177.7820  137.3760 C   0  0  0  0  0  2  0  0  0  0  0  0
  183.9030  173.4110  136.4130 C   0  0  0  0  0  0  0  0  0  0  0  0
  187.6800  175.3380  137.5220 C   0  0  0  0  0  2  0  0  0  0  0  0
  185.9470  171.7490  135.4370 C   0  0  0  0  0  3  0  0  0  0  0  0
  187.3310  176.7970  137.8810 C   0  0  2  0  0  3  0  0  0  0  0  0
  185.0100  174.0410  136.2670 C   0  0  0  0  0  0  0  0  0  0  0  0
  187.8230  175.0710  136.0210 C   0  0  1  0  0  3  0  0  0  0  0  0
  186.1290  173.1970  135.7860 C   0  0  0  0  0  0  0  0  0  0  0  0
  187.6010  178.8650  136.6410 C   0  0  0  0  0  2  0  0  0  0  0  0
  181.6870  172.6220  136.8480 C   0  0  0  0  0  3  0  0  0  0  0  0
  180.9420  171.6020  137.1150 N   0  0  0  0  0  2  0  0  0  0  0  0
  183.5490  176.9810  137.3890 C   0  0  0  0  0  2  0  0  0  0  0  0
  183.3200  177.5040  138.6670 O   0  0  0  0  0  0  0  0  0  0  0  0
  183.2670  178.8480  138.4920 N   0  0  0  0  0  0  0  0  0  0  0  0
  181.8720  179.1600  138.2100 C   0  0  0  0  0  1  0  0  0  0  0  0
  185.0550  179.4060  139.9910 N   0  0  0  0  0  0  0  0  0  0  0  0
  185.3030  178.7320  141.0570 C   0  0  0  0  0  0  0  0  0  0  0  0
  184.1560  178.2330  141.7190 N   0  0  0  0  0  0  0  0  0  0  0  0
  183.0110  178.6740  140.9410 C   0  0  0  0  0  3  0  0  0  0  0  0
  183.6130  179.4710  139.7720 C   0  0  2  0  0  3  0  0  0  0  0  0
  187.7180  178.7550  140.8350 N   0  0  0  0  0  0  0  0  0  0  0  0
  186.9710  177.9630  142.7770 O   0  0  0  0  0  0  0  0  0  0  0  0
  186.6680  178.4940  141.5330 C   0  0  0  0  0  0  0  0  0  0  0  0
  188.8410  178.4050  141.5900 N   0  0  0  0  0  0  0  0  0  0  0  0
  188.3860  177.8790  142.8720 C   0  0  0  0  0  3  0  0  0  0  0  0
  189.2590  175.3240  135.5430 C   0  0  1  0  0  3  0  0  0  0  0  0
  191.1870  173.7320  136.0330 C   0  0  0  0  0  0  0  0  0  0  0  0
  189.9780  174.0680  135.3440 N   0  0  0  0  0  2  0  0  0  0  0  0
  191.4720  172.5160  136.1970 O   0  0  0  0  0  0  0  0  0  0  0  0
  194.1700  176.2260  136.2670 C   0  0  0  0  0  0  0  0  0  0  0  0
  193.8620  176.8330  137.5210 N   0  0  0  0  0  2  0  0  0  0  0  0
  193.4020  175.0260  135.7890 C   0  0  0  0  0  2  0  0  0  0  0  0
  195.2050  176.6220  135.6060 N   0  0  0  0  0  2  0  0  0  0  0  0
  192.4510  176.9310  139.3690 O   0  0  0  0  0  0  0  0  0  0  0  0
  192.7150  176.4110  138.2540 C   0  0  0  0  0  0  0  0  0  0  0  0
  191.8320  175.3810  137.6960 C   0  0  0  0  0  3  0  0  0  0  0  0
  192.1080  174.7740  136.5340 C   0  0  0  0  0  0  0  0  0  0  0  0
  190.2650  176.9900  134.4930 C   0  0  0  0  0  1  0  0  0  0  0  0
  189.2410  176.0490  134.3500 O   0  0  0  0  0  0  0  0  0  0  0  0
  1 14  1  0  0  0  0
  2 21  1  0  0  0  0
  2  1  1  0  0  0  0
  3  6  1  0  0  0  0
  4 15  1  0  0  0  0
  4  2  1  0  0  0  0
  5 17  2  0  0  0  0
  5 16  1  0  0  0  0
  6 11  2  0  0  0  0
  6 19  1  0  0  0  0
  7 18  1  0  0  0  0
  7  1  1  0  0  0  0
  8  7  1  0  0  0  0
  9  3  1  0  0  0  0
 10 14  1  0  0  0  0
 12 14  1  0  0  0  0
 13  9  2  0  0  0  0
 13 17  1  0  0  0  0
 15 11  2  0  0  0  0
 16 12  1  0  0  0  0
 17 15  1  0  0  0  0
 18 10  1  0  0  0  0
 19 20  2  0  0  0  0
 21 22  1  0  0  0  0
 23 22  1  0  0  0  0
 23 29  1  0  0  0  0
 24 23  1  0  0  0  0
 25 26  2  0  0  0  0
 26 32  1  0  0  0  0
 26 27  1  0  0  0  0
 28 27  2  0  0  0  0
 29 25  1  0  0  0  0
 29 28  1  0  0  0  0
 30 32  2  0  0  0  0
 30 33  1  0  0  0  0
 31 34  1  0  0  0  0
 32 31  1  0  0  0  0
 33 34  2  0  0  0  0
 35 16  1  0  0  0  0
 36 38  2  0  0  0  0
 36 46  1  0  0  0  0
 37 35  1  0  0  0  0
 37 36  1  0  0  0  0
 39 40  1  0  0  0  0
 40 44  1  0  0  0  0
 41 39  1  0  0  0  0
 41 46  1  0  0  0  0
 42 39  2  0  0  0  0
 44 43  2  0  0  0  0
 45 44  1  0  0  0  0
 46 45  2  0  0  0  0
 48 47  1  0  0  0  0
 48 35  1  0  0  0  0
M  END
>  <MODEL>
2

>  <REMARK>
 VINA RESULT:      -7.2      2.700      6.986
  Name = 
  10 active torsions:
  status: ('A' for Active; 'I' for Inactive)
    1  A    between atoms: C_2  and  C_6
    2  A    between atoms: C_6  and  O_10
    3  A    between atoms: C_7  and  C_15
    4  A    between atoms: O_10  and  N_19
    5  A    between atoms: C_14  and  C_40
    6  A    between atoms: C_18  and  N_29
    7  A    between atoms: C_18  and  O_33
    8  A    between atoms: C_18  and  C_43
    9  A    between atoms: N_19  and  C_45
   10  A    between atoms: C_21  and  C_30
                            x       y       z     vdW  Elec       q    Type
                         _______ _______ _______ _____ _____    ______ ____

>  <TORSDO>
F 10

$$$$
=
 OpenBabel10232411343D

 48 53  0  0  1  0  0  0  0  0999 V2000
  187.6050  176.7260  135.1600 N   0  0  2  0  0  0  0  0  0  0  0  0
  186.5750  177.3740  135.9970 C   0  0  2  0  0  3  0  0  0  0  0  0
  185.4500  179.4340  140.9260 O   0  0  0  0  0  0  0  0  0  0  0  0
  186.6090  176.9080  137.3750 N   0  0  0  0  0  2  0  0  0  0  0  0
  189.0210  177.2390  139.1110 C   0  0  0  0  0  3  0  0  0  0  0  0
  184.9390  179.1540  139.6530 C   0  0  0  0  0  0  0  0  0  0  0  0
  187.6070  175.2690  134.9700 C   0  0  2  0  0  3  0  0  0  0  0  0
  187.4830  174.4810  136.2680 C   0  0  0  0  0  1  0  0  0  0  0  0
  186.7290  179.0550  141.4170 C   0  0  0  0  0  3  0  0  0  0  0  0
  189.8860  176.0560  134.7960 C   0  0  0  0  0  2  0  0  0  0  0  0
  185.6930  178.4790  138.8640 C   0  0  0  0  0  0  0  0  0  0  0  0
  189.4130  177.6970  136.6830 C   0  0  0  0  0  2  0  0  0  0  0  0
  187.7280  178.3710  140.7980 C   0  0  0  0  0  3  0  0  0  0  0  0
  188.9960  177.1850  135.2890 C   0  0  2  0  0  3  0  0  0  0  0  0
  186.7200  177.8350  138.4490 C   0  0  0  0  0  0  0  0  0  0  0  0
  189.3920  176.6310  137.7820 C   0  0  1  0  0  3  0  0  0  0  0  0
  187.8360  177.7800  139.4230 C   0  0  0  0  0  0  0  0  0  0  0  0
  188.9490  174.9490  134.3460 C   0  0  0  0  0  2  0  0  0  0  0  0
  183.6150  179.6070  139.2300 C   0  0  0  0  0  3  0  0  0  0  0  0
  183.4030  180.8510  138.9540 N   0  0  0  0  0  2  0  0  0  0  0  0
  185.1800  177.2320  135.4000 C   0  0  0  0  0  2  0  0  0  0  0  0
  184.4810  176.1900  136.0200 O   0  0  0  0  0  0  0  0  0  0  0  0
  183.3340  176.7550  136.4710 N   0  0  0  0  0  0  0  0  0  0  0  0
  182.6360  177.2430  135.2880 C   0  0  0  0  0  1  0  0  0  0  0  0
  183.2650  174.4320  137.0660 N   0  0  0  0  0  0  0  0  0  0  0  0
  182.6410  173.5540  136.3640 C   0  0  0  0  0  0  0  0  0  0  0  0
  181.4390  174.0150  135.7770 N   0  0  0  0  0  0  0  0  0  0  0  0
  181.2900  175.4010  136.1860 C   0  0  0  0  0  3  0  0  0  0  0  0
  182.5210  175.6880  137.0600 C   0  0  2  0  0  3  0  0  0  0  0  0
  182.5730  171.1490  136.6690 N   0  0  0  0  0  0  0  0  0  0  0  0
  184.3000  171.8850  135.4740 O   0  0  0  0  0  0  0  0  0  0  0  0
  183.1490  172.1920  136.1820 C   0  0  0  0  0  0  0  0  0  0  0  0
  183.3240  170.0270  136.3070 N   0  0  0  0  0  0  0  0  0  0  0  0
  184.4680  170.4750  135.5220 C   0  0  0  0  0  3  0  0  0  0  0  0
  190.7350  175.8930  137.8690 C   0  0  1  0  0  3  0  0  0  0  0  0
  192.9790  176.6780  138.7860 C   0  0  0  0  0  0  0  0  0  0  0  0
  191.5740  176.4470  138.9290 N   0  0  0  0  0  2  0  0  0  0  0  0
  193.5220  177.5660  139.4950 O   0  0  0  0  0  0  0  0  0  0  0  0
  195.2660  173.8870  137.3190 C   0  0  0  0  0  0  0  0  0  0  0  0
  195.3650  174.3560  135.9750 N   0  0  0  0  0  2  0  0  0  0  0  0
  194.6200  174.7340  138.3790 C   0  0  0  0  0  2  0  0  0  0  0  0
  195.8570  172.7900  137.6550 N   0  0  0  0  0  2  0  0  0  0  0  0
  194.8080  175.9860  134.4110 O   0  0  0  0  0  0  0  0  0  0  0  0
  194.7060  175.5600  135.5900 C   0  0  0  0  0  0  0  0  0  0  0  0
  193.8930  176.2900  136.5690 C   0  0  0  0  0  3  0  0  0  0  0  0
  193.8020  175.8890  137.8440 C   0  0  0  0  0  0  0  0  0  0  0  0
  191.1320  173.8850  137.0320 C   0  0  0  0  0  1  0  0  0  0  0  0
  190.5160  174.5350  138.1050 O   0  0  0  0  0  0  0  0  0  0  0  0
  1 14  1  0  0  0  0
  1  2  1  0  0  0  0
  2  4  1  0  0  0  0
  3  9  1  0  0  0  0
  4 15  1  0  0  0  0
  5 17  2  0  0  0  0
  6  3  1  0  0  0  0
  7  1  1  0  0  0  0
  7  8  1  0  0  0  0
 10 14  1  0  0  0  0
 11  6  2  0  0  0  0
 12 16  1  0  0  0  0
 13  9  2  0  0  0  0
 14 12  1  0  0  0  0
 15 11  2  0  0  0  0
 15 17  1  0  0  0  0
 16 35  1  0  0  0  0
 16  5  1  0  0  0  0
 17 13  1  0  0  0  0
 18 10  1  0  0  0  0
 18  7  1  0  0  0  0
 19  6  1  0  0  0  0
 20 19  2  0  0  0  0
 21  2  1  0  0  0  0
 21 22  1  0  0  0  0
 22 23  1  0  0  0  0
 23 29  1  0  0  0  0
 24 23  1  0  0  0  0
 26 25  2  0  0  0  0
 27 28  2  0  0  0  0
 27 26  1  0  0  0  0
 28 29  1  0  0  0  0
 29 25  1  0  0  0  0
 31 34  1  0  0  0  0
 31 32  1  0  0  0  0
 32 26  1  0  0  0  0
 32 30  2  0  0  0  0
 33 30  1  0  0  0  0
 34 33  2  0  0  0  0
 35 48  1  0  0  0  0
 35 37  1  0  0  0  0
 36 37  1  0  0  0  0
 36 38  2  0  0  0  0
 39 42  2  0  0  0  0
 39 41  1  0  0  0  0
 40 39  1  0  0  0  0
 43 44  2  0  0  0  0
 44 40  1  0  0  0  0
 44 45  1  0  0  0  0
 45 46  2  0  0  0  0
 46 41  1  0  0  0  0
 46 36  1  0  0  0  0
 47 48  1  0  0  0  0
M  END
>  <MODEL>
3

>  <REMARK>
 VINA RESULT:      -6.9      3.686      8.508
  Name = 
  10 active torsions:
  status: ('A' for Active; 'I' for Inactive)
    1  A    between atoms: C_2  and  C_6
    2  A    between atoms: C_6  and  O_10
    3  A    between atoms: C_7  and  C_15
    4  A    between atoms: O_10  and  N_19
    5  A    between atoms: C_14  and  C_40
    6  A    between atoms: C_18  and  N_29
    7  A    between atoms: C_18  and  O_33
    8  A    between atoms: C_18  and  C_43
    9  A    between atoms: N_19  and  C_45
   10  A    between atoms: C_21  and  C_30
                            x       y       z     vdW  Elec       q    Type
                         _______ _______ _______ _____ _____    ______ ____

>  <TORSDO>
F 10

$$$$
=
 OpenBabel10232411343D

 48 53  0  0  1  0  0  0  0  0999 V2000
  187.6350  176.5100  135.0700 N   0  0  2  0  0  0  0  0  0  0  0  0
  186.5910  177.1830  135.8700 C   0  0  2  0  0  3  0  0  0  0  0  0
  185.4030  179.4460  140.6940 O   0  0  0  0  0  0  0  0  0  0  0  0
  186.6190  176.7790  137.2670 N   0  0  0  0  0  2  0  0  0  0  0  0
  189.0130  177.2150  139.0050 C   0  0  0  0  0  3  0  0  0  0  0  0
  184.9050  179.1040  139.4300 C   0  0  0  0  0  0  0  0  0  0  0  0
  187.6550  175.0460  134.9450 C   0  0  2  0  0  3  0  0  0  0  0  0
  187.5290  174.3150  136.2760 C   0  0  0  0  0  1  0  0  0  0  0  0
  186.6820  179.1040  141.2100 C   0  0  0  0  0  3  0  0  0  0  0  0
  189.9260  175.8520  134.7540 C   0  0  0  0  0  2  0  0  0  0  0  0
  185.6730  178.4030  138.6780 C   0  0  0  0  0  0  0  0  0  0  0  0
  189.4190  177.5690  136.5620 C   0  0  0  0  0  2  0  0  0  0  0  0
  187.6930  178.4050  140.6300 C   0  0  0  0  0  3  0  0  0  0  0  0
  189.0190  176.9910  135.1890 C   0  0  2  0  0  3  0  0  0  0  0  0
  186.7110  177.7530  138.2990 C   0  0  0  0  0  0  0  0  0  0  0  0
  189.4020  176.5520  137.7070 C   0  0  1  0  0  3  0  0  0  0  0  0
  187.8190  177.7550  139.2840 C   0  0  0  0  0  0  0  0  0  0  0  0
  189.0050  174.7150  134.3470 C   0  0  0  0  0  2  0  0  0  0  0  0
  183.5800  179.5220  138.9770 C   0  0  0  0  0  3  0  0  0  0  0  0
  183.2110  180.7560  139.0760 N   0  0  0  0  0  2  0  0  0  0  0  0
  185.2020  176.9980  135.2690 C   0  0  0  0  0  2  0  0  0  0  0  0
  184.3780  176.2780  136.1420 O   0  0  0  0  0  0  0  0  0  0  0  0
  183.7590  175.3580  135.3610 N   0  0  0  0  0  0  0  0  0  0  0  0
  184.1560  174.0560  135.8840 C   0  0  0  0  0  1  0  0  0  0  0  0
  182.0530  176.5630  136.5410 N   0  0  0  0  0  0  0  0  0  0  0  0
  181.4400  176.0780  137.5630 C   0  0  0  0  0  0  0  0  0  0  0  0
  181.1950  174.6870  137.4960 N   0  0  0  0  0  0  0  0  0  0  0  0
  181.7370  174.2360  136.2260 C   0  0  0  0  0  3  0  0  0  0  0  0
  182.3160  175.5020  135.5740 C   0  0  2  0  0  3  0  0  0  0  0  0
  181.3450  176.6260  139.9240 N   0  0  0  0  0  0  0  0  0  0  0  0
  180.3070  178.0750  138.5910 O   0  0  0  0  0  0  0  0  0  0  0  0
  181.0450  176.9080  138.7030 C   0  0  0  0  0  0  0  0  0  0  0  0
  180.8110  177.6220  140.7460 N   0  0  0  0  0  0  0  0  0  0  0  0
  180.1190  178.5900  139.9020 C   0  0  0  0  0  3  0  0  0  0  0  0
  190.7520  175.8350  137.8370 C   0  0  1  0  0  3  0  0  0  0  0  0
  192.9800  176.6910  138.7290 C   0  0  0  0  0  0  0  0  0  0  0  0
  191.5770  176.4480  138.8760 N   0  0  0  0  0  2  0  0  0  0  0  0
  193.5080  177.6170  139.4010 O   0  0  0  0  0  0  0  0  0  0  0  0
  195.2240  173.8110  137.3710 C   0  0  0  0  0  0  0  0  0  0  0  0
  195.4150  174.2810  136.0370 N   0  0  0  0  0  2  0  0  0  0  0  0
  194.5590  174.6810  138.4000 C   0  0  0  0  0  2  0  0  0  0  0  0
  195.7510  172.6900  137.7320 N   0  0  0  0  0  2  0  0  0  0  0  0
  195.0100  175.9380  134.4540 O   0  0  0  0  0  0  0  0  0  0  0  0
  194.8280  175.5120  135.6240 C   0  0  0  0  0  0  0  0  0  0  0  0
  193.9950  176.2720  136.5620 C   0  0  0  0  0  3  0  0  0  0  0  0
  193.8190  175.8710  137.8280 C   0  0  0  0  0  0  0  0  0  0  0  0
  191.1190  173.7960  137.0630 C   0  0  0  0  0  1  0  0  0  0  0  0
  190.5470  174.4870  138.1350 O   0  0  0  0  0  0  0  0  0  0  0  0
  1 14  1  0  0  0  0
  1  2  1  0  0  0  0
  2  4  1  0  0  0  0
  3  9  1  0  0  0  0
  4 15  1  0  0  0  0
  5 17  2  0  0  0  0
  6  3  1  0  0  0  0
  7  1  1  0  0  0  0
  7  8  1  0  0  0  0
 10 14  1  0  0  0  0
 11  6  2  0  0  0  0
 12 16  1  0  0  0  0
 13  9  2  0  0  0  0
 14 12  1  0  0  0  0
 15 11  2  0  0  0  0
 15 17  1  0  0  0  0
 16 35  1  0  0  0  0
 16  5  1  0  0  0  0
 17 13  1  0  0  0  0
 18 10  1  0  0  0  0
 18  7  1  0  0  0  0
 19 20  2  0  0  0  0
 19  6  1  0  0  0  0
 21  2  1  0  0  0  0
 21 22  1  0  0  0  0
 23 29  1  0  0  0  0
 23 24  1  0  0  0  0
 23 22  1  0  0  0  0
 25 26  2  0  0  0  0
 26 32  1  0  0  0  0
 27 26  1  0  0  0  0
 28 27  2  0  0  0  0
 29 28  1  0  0  0  0
 29 25  1  0  0  0  0
 30 33  1  0  0  0  0
 31 32  1  0  0  0  0
 31 34  1  0  0  0  0
 32 30  2  0  0  0  0
 34 33  2  0  0  0  0
 35 48  1  0  0  0  0
 35 37  1  0  0  0  0
 36 37  1  0  0  0  0
 36 38  2  0  0  0  0
 39 42  2  0  0  0  0
 39 41  1  0  0  0  0
 40 39  1  0  0  0  0
 43 44  2  0  0  0  0
 44 40  1  0  0  0  0
 44 45  1  0  0  0  0
 45 46  2  0  0  0  0
 46 41  1  0  0  0  0
 46 36  1  0  0  0  0
 47 48  1  0  0  0  0
M  END
>  <MODEL>
4

>  <REMARK>
 VINA RESULT:      -6.8      3.791      8.043
  Name = 
  10 active torsions:
  status: ('A' for Active; 'I' for Inactive)
    1  A    between atoms: C_2  and  C_6
    2  A    between atoms: C_6  and  O_10
    3  A    between atoms: C_7  and  C_15
    4  A    between atoms: O_10  and  N_19
    5  A    between atoms: C_14  and  C_40
    6  A    between atoms: C_18  and  N_29
    7  A    between atoms: C_18  and  O_33
    8  A    between atoms: C_18  and  C_43
    9  A    between atoms: N_19  and  C_45
   10  A    between atoms: C_21  and  C_30
                            x       y       z     vdW  Elec       q    Type
                         _______ _______ _______ _____ _____    ______ ____

>  <TORSDO>
F 10

$$$$
=
 OpenBabel10232411343D

 48 53  0  0  1  0  0  0  0  0999 V2000
  189.2430  177.0130  139.0610 N   0  0  2  0  0  0  0  0  0  0  0  0
  188.3070  177.5910  140.0470 C   0  0  2  0  0  3  0  0  0  0  0  0
  183.1430  179.1000  140.9770 O   0  0  0  0  0  0  0  0  0  0  0  0
  187.3340  178.4800  139.4310 N   0  0  0  0  0  2  0  0  0  0  0  0
  185.4190  177.5410  137.3360 C   0  0  0  0  0  3  0  0  0  0  0  0
  184.4370  179.0390  141.5090 C   0  0  0  0  0  0  0  0  0  0  0  0
  190.1160  177.8820  138.2600 C   0  0  2  0  0  3  0  0  0  0  0  0
  189.3840  179.0440  137.5990 C   0  0  0  0  0  1  0  0  0  0  0  0
  182.7700  178.7760  139.6440 C   0  0  0  0  0  3  0  0  0  0  0  0
  189.6500  175.8880  136.9750 C   0  0  0  0  0  2  0  0  0  0  0  0
  185.3730  178.6700  140.7120 C   0  0  0  0  0  0  0  0  0  0  0  0
  187.2640  175.9340  137.8580 C   0  0  0  0  0  2  0  0  0  0  0  0
  183.5380  178.3370  138.6110 C   0  0  0  0  0  3  0  0  0  0  0  0
  188.7650  175.9130  138.2110 C   0  0  2  0  0  3  0  0  0  0  0  0
  185.9400  178.2760  139.6320 C   0  0  0  0  0  0  0  0  0  0  0  0
  186.8300  177.1270  137.0020 C   0  0  1  0  0  3  0  0  0  0  0  0
  185.0060  178.0540  138.5030 C   0  0  0  0  0  0  0  0  0  0  0  0
  190.6740  176.9920  137.1700 C   0  0  0  0  0  2  0  0  0  0  0  0
  184.7200  179.3710  142.9040 C   0  0  0  0  0  3  0  0  0  0  0  0
  184.6030  178.4780  143.8300 N   0  0  0  0  0  2  0  0  0  0  0  0
  189.0380  178.2800  141.1940 C   0  0  0  0  0  2  0  0  0  0  0  0
  189.3140  177.3710  142.2210 O   0  0  0  0  0  0  0  0  0  0  0  0
  188.2050  177.3740  143.0010 N   0  0  0  0  0  0  0  0  0  0  0  0
  187.9990  175.9890  143.4100 C   0  0  0  0  0  1  0  0  0  0  0  0
  189.8200  177.7660  144.7300 N   0  0  0  0  0  0  0  0  0  0  0  0
  189.6880  177.3030  145.9220 C   0  0  0  0  0  0  0  0  0  0  0  0
  188.3570  177.2760  146.3990 N   0  0  0  0  0  0  0  0  0  0  0  0
  187.5300  177.8160  145.3340 C   0  0  0  0  0  3  0  0  0  0  0  0
  188.5150  178.1520  144.2030 C   0  0  2  0  0  3  0  0  0  0  0  0
  191.3560  177.5060  147.6710 N   0  0  0  0  0  0  0  0  0  0  0  0
  191.4630  175.6160  146.5010 O   0  0  0  0  0  0  0  0  0  0  0  0
  190.8300  176.8310  146.7090 C   0  0  0  0  0  0  0  0  0  0  0  0
  192.4180  176.7630  148.1950 N   0  0  0  0  0  0  0  0  0  0  0  0
  192.5170  175.5150  147.4470 C   0  0  0  0  0  3  0  0  0  0  0  0
  186.9740  176.8210  135.5050 C   0  0  1  0  0  3  0  0  0  0  0  0
  185.3480  174.9520  134.9120 C   0  0  0  0  0  0  0  0  0  0  0  0
  185.7180  176.3340  134.9410 N   0  0  0  0  0  2  0  0  0  0  0  0
  184.1240  174.6530  134.8830 O   0  0  0  0  0  0  0  0  0  0  0  0
  188.7560  173.0940  134.5970 C   0  0  0  0  0  0  0  0  0  0  0  0
  188.3250  171.7710  134.9120 N   0  0  0  0  0  2  0  0  0  0  0  0
  187.7560  174.1970  134.3940 C   0  0  0  0  0  2  0  0  0  0  0  0
  190.0030  173.3140  134.3470 N   0  0  0  0  0  2  0  0  0  0  0  0
  186.5650  170.3500  135.4590 O   0  0  0  0  0  0  0  0  0  0  0  0
  186.9520  171.5190  135.2000 C   0  0  0  0  0  0  0  0  0  0  0  0
  185.9950  172.6300  135.2130 C   0  0  0  0  0  3  0  0  0  0  0  0
  186.3640  173.8780  134.8970 C   0  0  0  0  0  0  0  0  0  0  0  0
  188.6600  177.6650  134.3480 C   0  0  0  0  0  1  0  0  0  0  0  0
  187.3810  177.9700  134.8230 O   0  0  0  0  0  0  0  0  0  0  0  0
  1  2  1  0  0  0  0
  2 21  1  0  0  0  0
  3  6  1  0  0  0  0
  4 15  1  0  0  0  0
  4  2  1  0  0  0  0
  5 17  2  0  0  0  0
  6 19  1  0  0  0  0
  7  1  1  0  0  0  0
  8  7  1  0  0  0  0
  9  3  1  0  0  0  0
 10 18  1  0  0  0  0
 10 14  1  0  0  0  0
 11  6  2  0  0  0  0
 12 14  1  0  0  0  0
 13  9  2  0  0  0  0
 14  1  1  0  0  0  0
 15 11  2  0  0  0  0
 16  5  1  0  0  0  0
 16 12  1  0  0  0  0
 17 13  1  0  0  0  0
 17 15  1  0  0  0  0
 18  7  1  0  0  0  0
 19 20  2  0  0  0  0
 21 22  1  0  0  0  0
 22 23  1  0  0  0  0
 23 24  1  0  0  0  0
 23 29  1  0  0  0  0
 25 26  2  0  0  0  0
 26 27  1  0  0  0  0
 26 32  1  0  0  0  0
 28 27  2  0  0  0  0
 29 25  1  0  0  0  0
 29 28  1  0  0  0  0
 30 33  1  0  0  0  0
 31 32  1  0  0  0  0
 31 34  1  0  0  0  0
 32 30  2  0  0  0  0
 34 33  2  0  0  0  0
 35 16  1  0  0  0  0
 36 37  1  0  0  0  0
 37 35  1  0  0  0  0
 38 36  2  0  0  0  0
 39 40  1  0  0  0  0
 40 44  1  0  0  0  0
 41 39  1  0  0  0  0
 41 46  1  0  0  0  0
 42 39  2  0  0  0  0
 44 45  1  0  0  0  0
 44 43  2  0  0  0  0
 46 36  1  0  0  0  0
 46 45  2  0  0  0  0
 47 48  1  0  0  0  0
 48 35  1  0  0  0  0
M  END
>  <MODEL>
5

>  <REMARK>
 VINA RESULT:      -6.8      1.616      2.218
  Name = 
  10 active torsions:
  status: ('A' for Active; 'I' for Inactive)
    1  A    between atoms: C_2  and  C_6
    2  A    between atoms: C_6  and  O_10
    3  A    between atoms: C_7  and  C_15
    4  A    between atoms: O_10  and  N_19
    5  A    between atoms: C_14  and  C_40
    6  A    between atoms: C_18  and  N_29
    7  A    between atoms: C_18  and  O_33
    8  A    between atoms: C_18  and  C_43
    9  A    between atoms: N_19  and  C_45
   10  A    between atoms: C_21  and  C_30
                            x       y       z     vdW  Elec       q    Type
                         _______ _______ _______ _____ _____    ______ ____

>  <TORSDO>
F 10

$$$$
=
 OpenBabel10232411343D

 48 53  0  0  1  0  0  0  0  0999 V2000
  188.2100  177.5450  139.3980 N   0  0  2  0  0  0  0  0  0  0  0  0
  186.7580  177.7500  139.2210 C   0  0  2  0  0  3  0  0  0  0  0  0
  182.4960  176.9910  135.8930 O   0  0  0  0  0  0  0  0  0  0  0  0
  186.4110  178.0850  137.8490 N   0  0  0  0  0  2  0  0  0  0  0  0
  186.9920  176.2490  135.5620 C   0  0  0  0  0  3  0  0  0  0  0  0
  182.9210  177.5310  137.1130 C   0  0  0  0  0  0  0  0  0  0  0  0
  189.1580  178.6320  139.1200 C   0  0  2  0  0  3  0  0  0  0  0  0
  188.9340  179.3120  137.7750 C   0  0  0  0  0  1  0  0  0  0  0  0
  183.3330  176.4290  134.8910 C   0  0  0  0  0  3  0  0  0  0  0  0
  190.2770  176.5290  138.7070 C   0  0  0  0  0  2  0  0  0  0  0  0
  184.1840  177.5300  137.3370 C   0  0  0  0  0  0  0  0  0  0  0  0
  188.1160  175.6290  137.7090 C   0  0  0  0  0  2  0  0  0  0  0  0
  184.6840  176.2730  134.8750 C   0  0  0  0  0  3  0  0  0  0  0  0
  188.7940  176.2790  138.9330 C   0  0  2  0  0  3  0  0  0  0  0  0
  185.4350  177.3260  137.1440 C   0  0  0  0  0  0  0  0  0  0  0  0
  188.2160  176.4470  136.4190 C   0  0  1  0  0  3  0  0  0  0  0  0
  185.7460  176.6330  135.8710 C   0  0  0  0  0  0  0  0  0  0  0  0
  190.5230  177.9750  139.0980 C   0  0  0  0  0  2  0  0  0  0  0  0
  181.9800  178.0680  138.0950 C   0  0  0  0  0  3  0  0  0  0  0  0
  180.7380  178.2420  137.7880 N   0  0  0  0  0  2  0  0  0  0  0  0
  186.2020  178.7780  140.1990 C   0  0  0  0  0  2  0  0  0  0  0  0
  185.6790  178.1480  141.3340 O   0  0  0  0  0  0  0  0  0  0  0  0
  186.3880  178.6540  142.3740 N   0  0  0  0  0  0  0  0  0  0  0  0
  185.4020  179.0800  143.3600 C   0  0  0  0  0  1  0  0  0  0  0  0
  187.0170  177.5560  144.4120 N   0  0  0  0  0  0  0  0  0  0  0  0
  188.1700  177.7150  144.9590 C   0  0  0  0  0  0  0  0  0  0  0  0
  189.2410  177.8490  144.0450 N   0  0  0  0  0  0  0  0  0  0  0  0
  188.6600  177.7530  142.7170 C   0  0  0  0  0  3  0  0  0  0  0  0
  187.1560  177.5520  142.9600 C   0  0  2  0  0  3  0  0  0  0  0  0
  189.4990  177.7730  146.9870 N   0  0  0  0  0  0  0  0  0  0  0  0
  187.2980  177.7990  147.3180 O   0  0  0  0  0  0  0  0  0  0  0  0
  188.3470  177.7630  146.4130 C   0  0  0  0  0  0  0  0  0  0  0  0
  189.2970  177.8200  148.3700 N   0  0  0  0  0  0  0  0  0  0  0  0
  187.8600  177.8350  148.6220 C   0  0  0  0  0  3  0  0  0  0  0  0
  189.4950  176.1080  135.6410 C   0  0  1  0  0  3  0  0  0  0  0  0
  190.8720  174.0160  136.1090 C   0  0  0  0  0  0  0  0  0  0  0  0
  189.7090  174.6640  135.5820 N   0  0  0  0  0  2  0  0  0  0  0  0
  190.7830  172.8110  136.4660 O   0  0  0  0  0  0  0  0  0  0  0  0
  193.9410  176.2650  135.2760 C   0  0  0  0  0  0  0  0  0  0  0  0
  194.6740  176.1080  136.4900 N   0  0  0  0  0  2  0  0  0  0  0  0
  192.7230  175.4270  135.0040 C   0  0  0  0  0  2  0  0  0  0  0  0
  194.4050  177.0300  134.3460 N   0  0  0  0  0  2  0  0  0  0  0  0
  194.8190  175.1190  138.5910 O   0  0  0  0  0  0  0  0  0  0  0  0
  194.1650  175.2740  137.5270 C   0  0  0  0  0  0  0  0  0  0  0  0
  192.8670  174.6130  137.3590 C   0  0  0  0  0  3  0  0  0  0  0  0
  192.1670  174.7200  136.2220 C   0  0  0  0  0  0  0  0  0  0  0  0
  189.6430  177.9940  134.4960 C   0  0  0  0  0  1  0  0  0  0  0  0
  189.4140  176.6240  134.3460 O   0  0  0  0  0  0  0  0  0  0  0  0
  2  1  1  0  0  0  0
  2 21  1  0  0  0  0
  3  6  1  0  0  0  0
  4  2  1  0  0  0  0
  5 17  2  0  0  0  0
  5 16  1  0  0  0  0
  6 11  2  0  0  0  0
  6 19  1  0  0  0  0
  7  1  1  0  0  0  0
  8  7  1  0  0  0  0
  9  3  1  0  0  0  0
 10 14  1  0  0  0  0
 10 18  1  0  0  0  0
 12 14  1  0  0  0  0
 13  9  2  0  0  0  0
 13 17  1  0  0  0  0
 14  1  1  0  0  0  0
 15 11  2  0  0  0  0
 15  4  1  0  0  0  0
 16 12  1  0  0  0  0
 17 15  1  0  0  0  0
 18  7  1  0  0  0  0
 20 19  2  0  0  0  0
 21 22  1  0  0  0  0
 22 23  1  0  0  0  0
 23 29  1  0  0  0  0
 23 24  1  0  0  0  0
 25 26  2  0  0  0  0
 26 32  1  0  0  0  0
 27 26  1  0  0  0  0
 28 29  1  0  0  0  0
 28 27  2  0  0  0  0
 29 25  1  0  0  0  0
 30 33  1  0  0  0  0
 31 34  1  0  0  0  0
 32 30  2  0  0  0  0
 32 31  1  0  0  0  0
 33 34  2  0  0  0  0
 35 16  1  0  0  0  0
 36 46  1  0  0  0  0
 36 38  2  0  0  0  0
 37 35  1  0  0  0  0
 37 36  1  0  0  0  0
 39 40  1  0  0  0  0
 40 44  1  0  0  0  0
 41 39  1  0  0  0  0
 41 46  1  0  0  0  0
 42 39  2  0  0  0  0
 44 43  2  0  0  0  0
 45 44  1  0  0  0  0
 46 45  2  0  0  0  0
 48 47  1  0  0  0  0
 48 35  1  0  0  0  0
M  END
>  <MODEL>
6

>  <REMARK>
 VINA RESULT:      -6.4      2.798      5.241
  Name = 
  10 active torsions:
  status: ('A' for Active; 'I' for Inactive)
    1  A    between atoms: C_2  and  C_6
    2  A    between atoms: C_6  and  O_10
    3  A    between atoms: C_7  and  C_15
    4  A    between atoms: O_10  and  N_19
    5  A    between atoms: C_14  and  C_40
    6  A    between atoms: C_18  and  N_29
    7  A    between atoms: C_18  and  O_33
    8  A    between atoms: C_18  and  C_43
    9  A    between atoms: N_19  and  C_45
   10  A    between atoms: C_21  and  C_30
                            x       y       z     vdW  Elec       q    Type
                         _______ _______ _______ _____ _____    ______ ____

>  <TORSDO>
F 10

$$$$
=
 OpenBabel10232411343D

 48 53  0  0  1  0  0  0  0  0999 V2000
  186.9030  177.3530  137.5750 N   0  0  2  0  0  0  0  0  0  0  0  0
  185.7380  176.4500  137.4810 C   0  0  2  0  0  3  0  0  0  0  0  0
  184.0130  171.5020  135.9480 O   0  0  0  0  0  0  0  0  0  0  0  0
  185.7540  175.6500  136.2660 N   0  0  0  0  0  2  0  0  0  0  0  0
  187.9760  173.7510  135.6370 C   0  0  0  0  0  3  0  0  0  0  0  0
  183.6300  172.7400  136.4780 C   0  0  0  0  0  0  0  0  0  0  0  0
  187.1320  178.3850  136.5550 C   0  0  2  0  0  3  0  0  0  0  0  0
  187.0450  177.8650  135.1250 C   0  0  0  0  0  1  0  0  0  0  0  0
  185.3010  171.1680  135.4480 C   0  0  0  0  0  3  0  0  0  0  0  0
  189.2760  177.7220  137.4550 C   0  0  0  0  0  2  0  0  0  0  0  0
  184.5230  173.6610  136.4990 C   0  0  0  0  0  0  0  0  0  0  0  0
  188.4470  175.3180  137.5300 C   0  0  0  0  0  2  0  0  0  0  0  0
  186.4270  171.9270  135.3750 C   0  0  0  0  0  3  0  0  0  0  0  0
  188.1990  176.7770  137.9620 C   0  0  2  0  0  3  0  0  0  0  0  0
  185.6590  174.2320  136.3330 C   0  0  0  0  0  0  0  0  0  0  0  0
  188.5170  175.1070  136.0150 C   0  0  1  0  0  3  0  0  0  0  0  0
  186.7070  173.3450  135.7740 C   0  0  0  0  0  0  0  0  0  0  0  0
  188.5440  178.8780  136.7960 C   0  0  0  0  0  2  0  0  0  0  0  0
  182.2830  172.9820  136.9910 C   0  0  0  0  0  3  0  0  0  0  0  0
  181.7580  174.1610  136.9310 N   0  0  0  0  0  2  0  0  0  0  0  0
  184.4190  177.1990  137.6320 C   0  0  0  0  0  2  0  0  0  0  0  0
  184.0350  177.2580  138.9760 O   0  0  0  0  0  0  0  0  0  0  0  0
  182.7300  177.6300  138.9530 N   0  0  0  0  0  0  0  0  0  0  0  0
  181.9940  176.5460  139.5920 C   0  0  0  0  0  1  0  0  0  0  0  0
  183.6110  178.8050  140.8500 N   0  0  0  0  0  0  0  0  0  0  0  0
  183.0420  178.7870  142.0030 C   0  0  0  0  0  0  0  0  0  0  0  0
  181.6280  178.7770  141.9610 N   0  0  0  0  0  0  0  0  0  0  0  0
  181.2600  178.7970  140.5560 C   0  0  0  0  0  3  0  0  0  0  0  0
  182.5980  178.8180  139.8000 C   0  0  2  0  0  3  0  0  0  0  0  0
  183.4420  179.3940  144.3180 N   0  0  0  0  0  0  0  0  0  0  0  0
  184.9960  178.0780  143.4200 O   0  0  0  0  0  0  0  0  0  0  0  0
  183.8060  178.7680  143.2530 C   0  0  0  0  0  0  0  0  0  0  0  0
  184.3980  179.1600  145.3100 N   0  0  0  0  0  0  0  0  0  0  0  0
  185.4360  178.3000  144.7520 C   0  0  0  0  0  3  0  0  0  0  0  0
  189.9460  175.2970  135.4900 C   0  0  1  0  0  3  0  0  0  0  0  0
  191.5890  173.4110  135.9720 C   0  0  0  0  0  0  0  0  0  0  0  0
  190.5670  174.0140  135.1720 N   0  0  0  0  0  2  0  0  0  0  0  0
  191.7220  172.1580  135.9410 O   0  0  0  0  0  0  0  0  0  0  0  0
  194.8250  174.8390  137.6030 C   0  0  0  0  0  0  0  0  0  0  0  0
  194.2400  175.8480  138.4250 N   0  0  0  0  0  2  0  0  0  0  0  0
  193.9610  173.8440  136.8810 C   0  0  0  0  0  2  0  0  0  0  0  0
  196.1070  174.6930  137.5900 N   0  0  0  0  0  2  0  0  0  0  0  0
  192.3060  176.9000  139.1770 O   0  0  0  0  0  0  0  0  0  0  0  0
  192.8260  176.0240  138.4380 C   0  0  0  0  0  0  0  0  0  0  0  0
  191.9800  175.1950  137.5730 C   0  0  0  0  0  3  0  0  0  0  0  0
  192.4970  174.2230  136.8100 C   0  0  0  0  0  0  0  0  0  0  0  0
  191.1540  176.7790  134.3780 C   0  0  0  0  0  1  0  0  0  0  0  0
  189.9300  176.1060  134.3520 O   0  0  0  0  0  0  0  0  0  0  0  0
  1 14  1  0  0  0  0
  2  1  1  0  0  0  0
  2 21  1  0  0  0  0
  3  6  1  0  0  0  0
  4 15  1  0  0  0  0
  4  2  1  0  0  0  0
  5 17  2  0  0  0  0
  5 16  1  0  0  0  0
  6 11  2  0  0  0  0
  6 19  1  0  0  0  0
  7 18  1  0  0  0  0
  7  1  1  0  0  0  0
  8  7  1  0  0  0  0
  9  3  1  0  0  0  0
 10 14  1  0  0  0  0
 12 14  1  0  0  0  0
 13  9  2  0  0  0  0
 13 17  1  0  0  0  0
 15 11  2  0  0  0  0
 16 12  1  0  0  0  0
 17 15  1  0  0  0  0
 18 10  1  0  0  0  0
 20 19  2  0  0  0  0
 21 22  1  0  0  0  0
 23 22  1  0  0  0  0
 23 24  1  0  0  0  0
 23 29  1  0  0  0  0
 25 26  2  0  0  0  0
 26 32  1  0  0  0  0
 27 26  1  0  0  0  0
 28 27  2  0  0  0  0
 29 28  1  0  0  0  0
 29 25  1  0  0  0  0
 30 33  1  0  0  0  0
 31 34  1  0  0  0  0
 32 31  1  0  0  0  0
 32 30  2  0  0  0  0
 34 33  2  0  0  0  0
 35 16  1  0  0  0  0
 36 46  1  0  0  0  0
 37 35  1  0  0  0  0
 37 36  1  0  0  0  0
 38 36  2  0  0  0  0
 39 40  1  0  0  0  0
 40 44  1  0  0  0  0
 41 39  1  0  0  0  0
 42 39  2  0  0  0  0
 44 43  2  0  0  0  0
 45 44  1  0  0  0  0
 46 41  1  0  0  0  0
 46 45  2  0  0  0  0
 48 47  1  0  0  0  0
 48 35  1  0  0  0  0
M  END
>  <MODEL>
7

>  <REMARK>
 VINA RESULT:      -6.4      3.160      7.060
  Name = 
  10 active torsions:
  status: ('A' for Active; 'I' for Inactive)
    1  A    between atoms: C_2  and  C_6
    2  A    between atoms: C_6  and  O_10
    3  A    between atoms: C_7  and  C_15
    4  A    between atoms: O_10  and  N_19
    5  A    between atoms: C_14  and  C_40
    6  A    between atoms: C_18  and  N_29
    7  A    between atoms: C_18  and  O_33
    8  A    between atoms: C_18  and  C_43
    9  A    between atoms: N_19  and  C_45
   10  A    between atoms: C_21  and  C_30
                            x       y       z     vdW  Elec       q    Type
                         _______ _______ _______ _____ _____    ______ ____

>  <TORSDO>
F 10

$$$$
=
 OpenBabel10232411343D

 48 53  0  0  1  0  0  0  0  0999 V2000
  188.4740  176.1980  137.2150 N   0  0  2  0  0  0  0  0  0  0  0  0
  187.2780  175.3670  136.9690 C   0  0  2  0  0  3  0  0  0  0  0  0
  185.4650  170.5290  135.2040 O   0  0  0  0  0  0  0  0  0  0  0  0
  187.4010  174.5640  135.7620 N   0  0  0  0  0  2  0  0  0  0  0  0
  189.5660  172.5300  135.4150 C   0  0  0  0  0  3  0  0  0  0  0  0
  185.0930  171.7900  135.6860 C   0  0  0  0  0  0  0  0  0  0  0  0
  188.8950  177.2100  136.2380 C   0  0  2  0  0  3  0  0  0  0  0  0
  188.9610  176.6920  134.8070 C   0  0  0  0  0  1  0  0  0  0  0  0
  186.7840  170.1150  134.8720 C   0  0  0  0  0  3  0  0  0  0  0  0
  190.8610  176.4210  137.4030 C   0  0  0  0  0  2  0  0  0  0  0  0
  186.0320  172.6540  135.8260 C   0  0  0  0  0  0  0  0  0  0  0  0
  189.8840  174.0710  137.3600 C   0  0  0  0  0  2  0  0  0  0  0  0
  187.9540  170.8030  134.9470 C   0  0  0  0  0  3  0  0  0  0  0  0
  189.6720  175.5450  137.7630 C   0  0  2  0  0  3  0  0  0  0  0  0
  187.2120  173.1540  135.8100 C   0  0  0  0  0  0  0  0  0  0  0  0
  190.1350  173.8520  135.8650 C   0  0  1  0  0  3  0  0  0  0  0  0
  188.2660  172.2030  135.3860 C   0  0  0  0  0  0  0  0  0  0  0  0
  190.2910  177.6170  136.6610 C   0  0  0  0  0  2  0  0  0  0  0  0
  183.7090  172.1160  136.0230 C   0  0  0  0  0  3  0  0  0  0  0  0
  183.0990  171.4920  136.9750 N   0  0  0  0  0  2  0  0  0  0  0  0
  185.9990  176.1970  136.9520 C   0  0  0  0  0  2  0  0  0  0  0  0
  185.9630  177.0710  138.0440 O   0  0  0  0  0  0  0  0  0  0  0  0
  184.8360  177.8060  137.8690 N   0  0  0  0  0  0  0  0  0  0  0  0
  183.7340  176.9580  138.3050 C   0  0  0  0  0  1  0  0  0  0  0  0
  185.7000  178.5980  139.9620 N   0  0  0  0  0  0  0  0  0  0  0  0
  184.9760  178.7000  141.0190 C   0  0  0  0  0  0  0  0  0  0  0  0
  183.6400  179.1000  140.7800 N   0  0  0  0  0  0  0  0  0  0  0  0
  183.5180  179.2820  139.3440 C   0  0  0  0  0  3  0  0  0  0  0  0
  184.9100  178.9460  138.7860 C   0  0  2  0  0  3  0  0  0  0  0  0
  186.7210  178.0780  142.5850 N   0  0  0  0  0  0  0  0  0  0  0  0
  184.7330  178.4590  143.5120 O   0  0  0  0  0  0  0  0  0  0  0  0
  185.4970  178.4100  142.3570 C   0  0  0  0  0  0  0  0  0  0  0  0
  186.8680  177.8740  143.9600 N   0  0  0  0  0  0  0  0  0  0  0  0
  185.5790  178.1140  144.5990 C   0  0  0  0  0  3  0  0  0  0  0  0
  191.6280  173.9530  135.5290 C   0  0  1  0  0  3  0  0  0  0  0  0
  193.3990  172.2090  136.0880 C   0  0  0  0  0  0  0  0  0  0  0  0
  192.2270  172.6280  135.3830 N   0  0  0  0  0  2  0  0  0  0  0  0
  193.5690  170.9780  136.3020 O   0  0  0  0  0  0  0  0  0  0  0  0
  195.4230  174.6390  138.3620 C   0  0  0  0  0  0  0  0  0  0  0  0
  196.4270  175.0390  137.4310 N   0  0  0  0  0  2  0  0  0  0  0  0
  194.2460  173.8190  137.9130 C   0  0  0  0  0  2  0  0  0  0  0  0
  195.4510  175.1010  139.5670 N   0  0  0  0  0  2  0  0  0  0  0  0
  197.2860  174.8900  135.2740 O   0  0  0  0  0  0  0  0  0  0  0  0
  196.4120  174.5250  136.1020 C   0  0  0  0  0  0  0  0  0  0  0  0
  195.3860  173.5540  135.7080 C   0  0  0  0  0  3  0  0  0  0  0  0
  194.4140  173.1790  136.5510 C   0  0  0  0  0  0  0  0  0  0  0  0
  192.7070  175.6890  134.6850 C   0  0  0  0  0  1  0  0  0  0  0  0
  191.8010  174.6790  134.3490 O   0  0  0  0  0  0  0  0  0  0  0  0
  1 14  1  0  0  0  0
  2  1  1  0  0  0  0
  3  6  1  0  0  0  0
  4 15  1  0  0  0  0
  4  2  1  0  0  0  0
  5 16  1  0  0  0  0
  6 11  2  0  0  0  0
  6 19  1  0  0  0  0
  7 18  1  0  0  0  0
  7  1  1  0  0  0  0
  8  7  1  0  0  0  0
  9 13  2  0  0  0  0
  9  3  1  0  0  0  0
 10 14  1  0  0  0  0
 12 14  1  0  0  0  0
 13 17  1  0  0  0  0
 15 11  2  0  0  0  0
 16 12  1  0  0  0  0
 17  5  2  0  0  0  0
 17 15  1  0  0  0  0
 18 10  1  0  0  0  0
 19 20  2  0  0  0  0
 21  2  1  0  0  0  0
 21 22  1  0  0  0  0
 23 22  1  0  0  0  0
 23 24  1  0  0  0  0
 23 29  1  0  0  0  0
 25 26  2  0  0  0  0
 26 32  1  0  0  0  0
 27 26  1  0  0  0  0
 28 27  2  0  0  0  0
 29 28  1  0  0  0  0
 29 25  1  0  0  0  0
 30 33  1  0  0  0  0
 31 34  1  0  0  0  0
 32 30  2  0  0  0  0
 32 31  1  0  0  0  0
 33 34  2  0  0  0  0
 35 16  1  0  0  0  0
 36 38  2  0  0  0  0
 36 46  1  0  0  0  0
 37 35  1  0  0  0  0
 37 36  1  0  0  0  0
 39 42  2  0  0  0  0
 40 39  1  0  0  0  0
 41 39  1  0  0  0  0
 43 44  2  0  0  0  0
 44 40  1  0  0  0  0
 45 44  1  0  0  0  0
 45 46  2  0  0  0  0
 46 41  1  0  0  0  0
 48 47  1  0  0  0  0
 48 35  1  0  0  0  0
M  END
>  <MODEL>
8

>  <REMARK>
 VINA RESULT:      -6.2      3.880      7.860
  Name = 
  10 active torsions:
  status: ('A' for Active; 'I' for Inactive)
    1  A    between atoms: C_2  and  C_6
    2  A    between atoms: C_6  and  O_10
    3  A    between atoms: C_7  and  C_15
    4  A    between atoms: O_10  and  N_19
    5  A    between atoms: C_14  and  C_40
    6  A    between atoms: C_18  and  N_29
    7  A    between atoms: C_18  and  O_33
    8  A    between atoms: C_18  and  C_43
    9  A    between atoms: N_19  and  C_45
   10  A    between atoms: C_21  and  C_30
                            x       y       z     vdW  Elec       q    Type
                         _______ _______ _______ _____ _____    ______ ____

>  <TORSDO>
F 10

$$$$
=
 OpenBabel10232411343D

 48 53  0  0  1  0  0  0  0  0999 V2000
  189.7800  175.4950  135.8060 N   0  0  2  0  0  0  0  0  0  0  0  0
  189.1680  175.9500  137.0710 C   0  0  2  0  0  3  0  0  0  0  0  0
  190.1390  177.9840  142.0440 O   0  0  0  0  0  0  0  0  0  0  0  0
  189.9600  175.5780  138.2330 N   0  0  0  0  0  2  0  0  0  0  0  0
  192.7730  176.5160  138.6130 C   0  0  0  0  0  3  0  0  0  0  0  0
  189.1530  177.5310  141.1590 C   0  0  0  0  0  0  0  0  0  0  0  0
  190.0030  174.0650  135.5550 C   0  0  2  0  0  3  0  0  0  0  0  0
  190.6920  173.3410  136.7050 C   0  0  0  0  0  1  0  0  0  0  0  0
  191.5440  177.9170  141.8360 C   0  0  0  0  0  3  0  0  0  0  0  0
  191.6880  175.3150  134.3530 C   0  0  0  0  0  2  0  0  0  0  0  0
  189.5590  176.9930  140.0670 C   0  0  0  0  0  0  0  0  0  0  0  0
  191.8400  176.9150  136.3260 C   0  0  0  0  0  2  0  0  0  0  0  0
  192.2420  177.4310  140.7760 C   0  0  0  0  0  3  0  0  0  0  0  0
  190.9250  176.2500  135.2770 C   0  0  2  0  0  3  0  0  0  0  0  0
  190.3710  176.5640  139.1730 C   0  0  0  0  0  0  0  0  0  0  0  0
  192.5810  175.9310  137.2360 C   0  0  1  0  0  3  0  0  0  0  0  0
  191.8000  176.8050  139.4870 C   0  0  0  0  0  0  0  0  0  0  0  0
  190.9140  174.0090  134.3460 C   0  0  0  0  0  2  0  0  0  0  0  0
  187.7260  177.6640  141.4510 C   0  0  0  0  0  3  0  0  0  0  0  0
  187.1620  178.8250  141.4540 N   0  0  0  0  0  2  0  0  0  0  0  0
  187.7250  175.4780  137.2100 C   0  0  0  0  0  2  0  0  0  0  0  0
  186.8440  176.4140  136.6580 O   0  0  0  0  0  0  0  0  0  0  0  0
  186.2340  176.9930  137.7220 N   0  0  0  0  0  0  0  0  0  0  0  0
  186.7390  178.3600  137.7780 C   0  0  0  0  0  1  0  0  0  0  0  0
  184.1220  177.9080  138.3970 N   0  0  0  0  0  0  0  0  0  0  0  0
  183.2390  177.2220  139.0320 C   0  0  0  0  0  0  0  0  0  0  0  0
  183.1600  175.8640  138.6460 N   0  0  0  0  0  0  0  0  0  0  0  0
  184.1490  175.6780  137.5990 C   0  0  0  0  0  3  0  0  0  0  0  0
  184.8010  177.0590  137.4240 C   0  0  2  0  0  3  0  0  0  0  0  0
  182.8670  178.3380  141.1540 N   0  0  0  0  0  0  0  0  0  0  0  0
  181.0130  177.8500  140.0230 O   0  0  0  0  0  0  0  0  0  0  0  0
  182.3970  177.8080  140.0790 C   0  0  0  0  0  0  0  0  0  0  0  0
  181.7910  178.7900  141.9230 N   0  0  0  0  0  0  0  0  0  0  0  0
  180.5560  178.4830  141.2100 C   0  0  0  0  0  3  0  0  0  0  0  0
  193.9230  175.5060  136.6250 C   0  0  1  0  0  3  0  0  0  0  0  0
  194.9580  173.3380  137.4730 C   0  0  0  0  0  0  0  0  0  0  0  0
  194.0620  174.0520  136.6150 N   0  0  0  0  0  2  0  0  0  0  0  0
  194.6920  172.1420  137.7660 O   0  0  0  0  0  0  0  0  0  0  0  0
  197.4990  175.0220  139.8980 C   0  0  0  0  0  0  0  0  0  0  0  0
  198.6110  175.1470  139.0120 N   0  0  0  0  0  2  0  0  0  0  0  0
  196.1570  174.5850  139.3830 C   0  0  0  0  0  2  0  0  0  0  0  0
  197.6110  175.4200  141.1200 N   0  0  0  0  0  2  0  0  0  0  0  0
  199.4740  174.8260  136.8750 O   0  0  0  0  0  0  0  0  0  0  0  0
  198.5010  174.6990  137.6630 C   0  0  0  0  0  0  0  0  0  0  0  0
  197.2580  174.0730  137.2030 C   0  0  0  0  0  3  0  0  0  0  0  0
  196.1880  173.9650  138.0020 C   0  0  0  0  0  0  0  0  0  0  0  0
  195.2610  176.6520  135.2880 C   0  0  0  0  0  1  0  0  0  0  0  0
  194.0270  175.9970  135.3220 O   0  0  0  0  0  0  0  0  0  0  0  0
  1  2  1  0  0  0  0
  2 21  1  0  0  0  0
  2  4  1  0  0  0  0
  4 15  1  0  0  0  0
  5 17  2  0  0  0  0
  6 19  1  0  0  0  0
  6  3  1  0  0  0  0
  7  1  1  0  0  0  0
  7  8  1  0  0  0  0
  9  3  1  0  0  0  0
 10 14  1  0  0  0  0
 11  6  2  0  0  0  0
 12 16  1  0  0  0  0
 13  9  2  0  0  0  0
 14  1  1  0  0  0  0
 14 12  1  0  0  0  0
 15 17  1  0  0  0  0
 15 11  2  0  0  0  0
 16  5  1  0  0  0  0
 17 13  1  0  0  0  0
 18 10  1  0  0  0  0
 18  7  1  0  0  0  0
 19 20  2  0  0  0  0
 22 21  1  0  0  0  0
 22 23  1  0  0  0  0
 23 24  1  0  0  0  0
 25 26  2  0  0  0  0
 26 32  1  0  0  0  0
 27 26  1  0  0  0  0
 28 27  2  0  0  0  0
 29 28  1  0  0  0  0
 29 23  1  0  0  0  0
 29 25  1  0  0  0  0
 30 33  1  0  0  0  0
 31 32  1  0  0  0  0
 31 34  1  0  0  0  0
 32 30  2  0  0  0  0
 34 33  2  0  0  0  0
 35 16  1  0  0  0  0
 36 38  2  0  0  0  0
 36 46  1  0  0  0  0
 37 35  1  0  0  0  0
 37 36  1  0  0  0  0
 39 42  2  0  0  0  0
 40 39  1  0  0  0  0
 41 39  1  0  0  0  0
 43 44  2  0  0  0  0
 44 40  1  0  0  0  0
 45 44  1  0  0  0  0
 45 46  2  0  0  0  0
 46 41  1  0  0  0  0
 47 48  1  0  0  0  0
 48 35  1  0  0  0  0
M  END
>  <MODEL>
9

>  <REMARK>
 VINA RESULT:      -6.2      4.512      8.714
  Name = 
  10 active torsions:
  status: ('A' for Active; 'I' for Inactive)
    1  A    between atoms: C_2  and  C_6
    2  A    between atoms: C_6  and  O_10
    3  A    between atoms: C_7  and  C_15
    4  A    between atoms: O_10  and  N_19
    5  A    between atoms: C_14  and  C_40
    6  A    between atoms: C_18  and  N_29
    7  A    between atoms: C_18  and  O_33
    8  A    between atoms: C_18  and  C_43
    9  A    between atoms: N_19  and  C_45
   10  A    between atoms: C_21  and  C_30
                            x       y       z     vdW  Elec       q    Type
                         _______ _______ _______ _____ _____    ______ ____

>  <TORSDO>
F 10

$$$$
