=
 OpenBabel10232408563D

 56 63  0  0  1  0  0  0  0  0999 V2000
  188.1180  177.2910  138.4230 C   0  0  2  0  0  3  0  0  0  0  0  0
  187.0510  173.8180  135.7110 O   0  0  0  0  0  0  0  0  0  0  0  0
  190.2490  176.2690  137.5650 C   0  0  0  0  0  2  0  0  0  0  0  0
  188.1370  174.4040  135.9640 C   0  0  0  0  0  0  0  0  0  0  0  0
  189.3680  172.3980  135.8160 O   0  0  0  0  0  0  0  0  0  0  0  0
  188.7390  176.1080  137.6750 C   0  0  2  0  0  3  0  0  0  0  0  0
  189.4050  173.6540  135.9070 C   0  0  0  0  0  0  0  0  0  0  0  0
  188.1060  175.8590  136.3080 C   0  0  0  0  0  2  0  0  0  0  0  0
  190.9420  174.9230  137.3940 C   0  0  0  0  0  2  0  0  0  0  0  0
  190.7280  174.3750  135.9920 C   0  0  1  0  0  3  0  0  0  0  0  0
  191.9020  173.4730  135.6340 C   0  0  0  0  0  2  0  0  0  0  0  0
  193.0310  174.2720  135.1810 N   0  0  0  0  0  2  0  0  0  0  0  0
  194.1800  173.8800  135.9880 C   0  0  1  0  0  3  0  0  0  0  0  0
  195.1820  173.1440  135.1120 C   0  0  0  0  0  1  0  0  0  0  0  0
  194.8000  175.0800  136.7400 C   0  0  0  0  0  0  0  0  0  0  0  0
  194.4140  174.9800  138.2050 C   0  0  0  0  0  1  0  0  0  0  0  0
  194.2330  176.4060  136.2290 C   0  0  0  0  0  1  0  0  0  0  0  0
  196.2720  174.9830  136.6860 N   0  0  0  0  0  2  0  0  0  0  0  0
  196.1130  173.2080  138.6580 O   0  0  0  0  0  0  0  0  0  0  0  0
  197.4960  175.1900  139.0700 O   0  0  0  0  0  0  0  0  0  0  0  0
  197.0590  174.1930  138.0330 S   0  0  0  0  0  0  0  0  0  0  0  0
  198.2040  171.9380  137.3500 O   0  0  0  0  0  0  0  0  0  0  0  0
  198.8730  171.4510  136.2100 C   0  0  0  0  0  2  0  0  0  0  0  0
  199.4910  172.6010  135.4460 C   0  0  0  0  0  2  0  0  0  0  0  0
  198.4850  173.3140  137.4270 C   0  0  1  0  0  3  0  0  0  0  0  0
  198.8510  173.8030  136.0520 C   0  0  0  0  0  2  0  0  0  0  0  0
  187.0030  178.2680  137.3530 S   0  0  0  0  0  0  0  0  0  0  0  0
  185.5280  178.0620  138.4220 C   0  0  2  0  0  3  0  0  0  0  0  0
  179.9820  179.8700  140.8760 C   0  0  0  0  0  2  0  0  0  0  0  0
  184.3090  177.6770  137.6260 C   0  0  0  0  0  0  0  0  0  0  0  0
  184.4110  176.8800  136.6530 O   0  0  0  0  0  0  0  0  0  0  0  0
  180.7340  179.0260  139.8800 C   0  0  2  0  0  3  0  0  0  0  0  0
  180.4150  178.9150  141.9600 C   0  0  0  0  0  2  0  0  0  0  0  0
  182.5330  178.4290  141.7350 C   0  0  0  0  0  2  0  0  0  0  0  0
  184.1470  179.6530  139.6090 C   0  0  0  0  0  3  0  0  0  0  0  0
  182.6570  177.8170  140.4280 C   0  0  1  0  0  3  0  0  0  0  0  0
  181.2290  178.0760  140.9750 C   0  0  2  0  0  0  0  0  0  0  0  0
  181.8450  177.8130  137.2480 C   0  0  0  0  0  1  0  0  0  0  0  0
  183.0240  178.1750  138.0290 N   0  0  0  0  0  0  0  0  0  0  0  0
  181.8010  179.7410  139.3150 O   0  0  0  0  0  0  0  0  0  0  0  0
  182.8920  178.8560  139.3290 C   0  0  2  0  0  0  0  0  0  0  0  0
  185.3070  179.2730  139.1910 N   0  0  0  0  0  0  0  0  0  0  0  0
  189.1240  178.1680  139.1670 C   0  0  0  0  0  2  0  0  0  0  0  0
  188.7230  178.3920  140.4860 O   0  0  0  0  0  0  0  0  0  0  0  0
  189.0790  177.2240  141.1640 C   0  0  0  0  0  2  0  0  0  0  0  0
  185.8620  178.2220  144.2390 C   0  0  0  0  0  2  0  0  0  0  0  0
  186.6800  177.5140  143.1450 C   0  0  0  0  0  2  0  0  0  0  0  0
  189.9600  177.8920  144.6780 N   0  0  0  0  0  0  0  0  0  0  0  0
  188.1040  177.5890  143.4510 N   0  0  0  0  0  0  0  0  0  0  0  0
  187.7760  178.0450  145.7930 N   0  0  0  0  0  2  0  0  0  0  0  0
  189.1640  177.4640  142.6410 C   0  0  0  0  0  0  0  0  0  0  0  0
  188.6150  177.8180  144.6630 C   0  0  0  0  0  0  0  0  0  0  0  0
  190.3170  177.6640  143.3910 C   0  0  0  0  0  3  0  0  0  0  0  0
  186.3390  177.8170  145.6450 C   0  0  1  0  0  3  0  0  0  0  0  0
  184.2670  178.8080  146.3070 O   0  0  0  0  0  1  0  0  0  0  0  0
  185.5910  178.6040  146.7060 C   0  0  0  0  0  2  0  0  0  0  0  0
  1 43  1  6  0  0  0
  2  4  2  0  0  0  0
  3  6  1  0  0  0  0
  4  8  1  0  0  0  0
  5  7  2  0  0  0  0
  6  1  1  6  0  0  0
  7  4  1  0  0  0  0
  7 10  1  0  0  0  0
  8  6  1  0  0  0  0
  9  3  1  0  0  0  0
 10 11  1  1  0  0  0
 10  9  1  0  0  0  0
 12 11  1  0  0  0  0
 12 13  1  0  0  0  0
 13 14  1  6  0  0  0
 13 15  1  0  0  0  0
 15 16  1  0  0  0  0
 17 15  1  0  0  0  0
 18 15  1  0  0  0  0
 18 21  1  0  0  0  0
 21 19  2  0  0  0  0
 21 20  2  0  0  0  0
 22 25  1  0  0  0  0
 23 22  1  0  0  0  0
 24 26  1  0  0  0  0
 24 23  1  0  0  0  0
 25 21  1  6  0  0  0
 26 25  1  0  0  0  0
 27  1  1  0  0  0  0
 28 27  1  6  0  0  0
 28 42  1  0  0  0  0
 29 33  1  0  0  0  0
 30 39  1  0  0  0  0
 30 28  1  0  0  0  0
 31 30  2  0  0  0  0
 32 29  1  1  0  0  0
 32 37  1  0  0  0  0
 36 37  1  0  0  0  0
 36 34  1  1  0  0  0
 37 34  1  1  0  0  0
 37 33  1  0  0  0  0
 38 39  1  0  0  0  0
 39 41  1  0  0  0  0
 40 41  1  0  0  0  0
 40 32  1  0  0  0  0
 41 35  1  1  0  0  0
 41 36  1  0  0  0  0
 42 35  2  0  0  0  0
 43 44  1  0  0  0  0
 44 45  1  0  0  0  0
 45 51  1  0  0  0  0
 46 54  1  0  0  0  0
 47 49  1  0  0  0  0
 47 46  1  0  0  0  0
 49 52  1  0  0  0  0
 51 53  2  0  0  0  0
 51 49  1  0  0  0  0
 52 48  2  0  0  0  0
 52 50  1  0  0  0  0
 53 48  1  0  0  0  0
 54 50  1  0  0  0  0
 54 56  1  1  0  0  0
 55 56  1  0  0  0  0
M  END
>  <MODEL>
1

>  <REMARK>
 VINA RESULT:      -8.0      0.000      0.000
  Name = 
  15 active torsions:
  status: ('A' for Active; 'I' for Inactive)
    1  A    between atoms: C_2  and  C_11
    2  A    between atoms: C_2  and  N_25
    3  A    between atoms: N_3  and  C_11
    4  A    between atoms: N_3  and  S_47
    5  A    between atoms: C_5  and  S_19
    6  A    between atoms: S_19  and  C_35
    7  A    between atoms: C_21  and  C_35
    8  A    between atoms: C_24  and  C_35
    9  A    between atoms: C_24  and  O_52
   10  A    between atoms: N_25  and  C_27
   11  A    between atoms: C_27  and  C_49
   12  A    between atoms: C_28  and  S_47
   13  A    between atoms: C_32  and  CA_53
   14  A    between atoms: C_40  and  C_51
   15  A    between atoms: C_51  and  O_52
                            x       y       z     vdW  Elec       q    Type
                         _______ _______ _______ _____ _____    ______ ____

>  <TORSDO>
F 15

$$$$
=
 OpenBabel10232408563D

 56 63  0  0  1  0  0  0  0  0999 V2000
  190.5680  175.3770  138.4590 C   0  0  2  0  0  3  0  0  0  0  0  0
  189.0030  179.6120  138.0390 O   0  0  0  0  0  0  0  0  0  0  0  0
  188.3790  175.2970  137.2240 C   0  0  0  0  0  2  0  0  0  0  0  0
  188.6350  178.5110  137.5490 C   0  0  0  0  0  0  0  0  0  0  0  0
  186.3570  179.1100  137.6600 O   0  0  0  0  0  0  0  0  0  0  0  0
  189.3300  176.1710  138.0320 C   0  0  2  0  0  3  0  0  0  0  0  0
  187.2120  178.2860  137.2380 C   0  0  0  0  0  0  0  0  0  0  0  0
  189.6670  177.4610  137.2870 C   0  0  0  0  0  2  0  0  0  0  0  0
  186.9490  175.8140  137.2980 C   0  0  0  0  0  2  0  0  0  0  0  0
  186.7800  177.0700  136.4570 C   0  0  1  0  0  3  0  0  0  0  0  0
  185.3300  177.1620  135.9990 C   0  0  0  0  0  2  0  0  0  0  0  0
  184.4570  176.4910  136.9520 N   0  0  0  0  0  2  0  0  0  0  0  0
  183.0940  176.9090  136.6460 C   0  0  1  0  0  3  0  0  0  0  0  0
  182.7020  176.3790  135.2750 C   0  0  0  0  0  1  0  0  0  0  0  0
  182.0990  176.5050  137.7580 C   0  0  0  0  0  0  0  0  0  0  0  0
  181.6580  175.0730  137.5110 C   0  0  0  0  0  1  0  0  0  0  0  0
  180.8340  177.3650  137.7080 C   0  0  0  0  0  1  0  0  0  0  0  0
  182.7920  176.5120  139.0610 N   0  0  0  0  0  2  0  0  0  0  0  0
  181.3150  177.9850  140.7090 O   0  0  0  0  0  0  0  0  0  0  0  0
  182.7860  179.1990  139.1670 O   0  0  0  0  0  0  0  0  0  0  0  0
  182.6500  177.9670  140.0200 S   0  0  0  0  0  0  0  0  0  0  0  0
  185.0790  178.6110  140.7590 O   0  0  0  0  0  0  0  0  0  0  0  0
  185.6540  179.3060  141.8410 C   0  0  0  0  0  2  0  0  0  0  0  0
  184.7490  179.2140  143.0500 C   0  0  0  0  0  2  0  0  0  0  0  0
  183.9330  177.9650  141.2560 C   0  0  1  0  0  3  0  0  0  0  0  0
  183.4700  178.6960  142.4870 C   0  0  0  0  0  2  0  0  0  0  0  0
  191.8300  176.4460  139.2360 S   0  0  0  0  0  0  0  0  0  0  0  0
  190.7700  176.9590  140.6410 C   0  0  2  0  0  3  0  0  0  0  0  0
  188.8680  176.8350  146.6760 C   0  0  0  0  0  2  0  0  0  0  0  0
  191.4880  177.9050  141.5690 C   0  0  0  0  0  0  0  0  0  0  0  0
  192.2650  178.7840  141.1040 O   0  0  0  0  0  0  0  0  0  0  0  0
  189.6440  177.5270  145.5860 C   0  0  2  0  0  3  0  0  0  0  0  0
  187.5950  177.3400  146.0420 C   0  0  0  0  0  2  0  0  0  0  0  0
  187.6710  177.0620  143.8760 C   0  0  0  0  0  2  0  0  0  0  0  0
  189.9800  175.7760  142.5960 C   0  0  0  0  0  3  0  0  0  0  0  0
  188.8130  177.8290  143.4230 C   0  0  1  0  0  3  0  0  0  0  0  0
  188.3620  178.0030  144.8960 C   0  0  2  0  0  0  0  0  0  0  0  0
  191.9330  178.7430  143.8770 C   0  0  0  0  0  1  0  0  0  0  0  0
  191.2260  177.8360  142.9780 N   0  0  0  0  0  0  0  0  0  0  0  0
  190.3300  176.6000  144.7860 O   0  0  0  0  0  0  0  0  0  0  0  0
  190.1050  177.0100  143.4630 C   0  0  2  0  0  0  0  0  0  0  0  0
  190.2840  175.7850  141.3420 N   0  0  0  0  0  0  0  0  0  0  0  0
  191.1550  174.4830  137.3700 C   0  0  0  0  0  2  0  0  0  0  0  0
  192.1480  175.1500  136.6470 O   0  0  0  0  0  0  0  0  0  0  0  0
  193.0640  174.1520  136.3070 C   0  0  0  0  0  2  0  0  0  0  0  0
  196.3220  174.4920  139.4800 C   0  0  0  0  0  2  0  0  0  0  0  0
  195.2640  173.9290  138.5150 C   0  0  0  0  0  2  0  0  0  0  0  0
  196.2740  175.7970  135.5580 N   0  0  0  0  0  0  0  0  0  0  0  0
  195.3660  174.5870  137.2170 N   0  0  0  0  0  0  0  0  0  0  0  0
  197.6220  175.3540  137.5630 N   0  0  0  0  0  2  0  0  0  0  0  0
  194.4570  174.7010  136.2390 C   0  0  0  0  0  0  0  0  0  0  0  0
  196.4470  175.2290  136.7670 C   0  0  0  0  0  0  0  0  0  0  0  0
  195.0070  175.4610  135.2140 C   0  0  0  0  0  3  0  0  0  0  0  0
  197.7020  174.5860  138.8050 C   0  0  1  0  0  3  0  0  0  0  0  0
  198.3650  174.9750  141.0680 O   0  0  0  0  0  1  0  0  0  0  0  0
  198.7060  175.2380  139.7380 C   0  0  0  0  0  2  0  0  0  0  0  0
  1 43  1  6  0  0  0
  1 27  1  0  0  0  0
  3  9  1  0  0  0  0
  3  6  1  0  0  0  0
  4  2  2  0  0  0  0
  6  1  1  6  0  0  0
  7  4  1  0  0  0  0
  7  5  2  0  0  0  0
  8  4  1  0  0  0  0
  8  6  1  0  0  0  0
 10 11  1  1  0  0  0
 10  7  1  0  0  0  0
 10  9  1  0  0  0  0
 11 12  1  0  0  0  0
 13 14  1  6  0  0  0
 13 12  1  0  0  0  0
 13 15  1  0  0  0  0
 15 18  1  0  0  0  0
 16 15  1  0  0  0  0
 17 15  1  0  0  0  0
 18 21  1  0  0  0  0
 20 21  2  0  0  0  0
 21 19  2  0  0  0  0
 22 25  1  0  0  0  0
 22 23  1  0  0  0  0
 23 24  1  0  0  0  0
 25 21  1  6  0  0  0
 25 26  1  0  0  0  0
 26 24  1  0  0  0  0
 28 27  1  6  0  0  0
 28 42  1  0  0  0  0
 28 30  1  0  0  0  0
 30 39  1  0  0  0  0
 31 30  2  0  0  0  0
 32 29  1  1  0  0  0
 33 29  1  0  0  0  0
 36 41  1  0  0  0  0
 36 34  1  6  0  0  0
 36 37  1  0  0  0  0
 37 34  1  6  0  0  0
 37 32  1  0  0  0  0
 37 33  1  0  0  0  0
 39 41  1  0  0  0  0
 39 38  1  0  0  0  0
 40 32  1  0  0  0  0
 41 35  1  6  0  0  0
 41 40  1  0  0  0  0
 42 35  2  0  0  0  0
 44 43  1  0  0  0  0
 45 44  1  0  0  0  0
 47 46  1  0  0  0  0
 48 52  2  0  0  0  0
 49 47  1  0  0  0  0
 50 54  1  0  0  0  0
 51 45  1  0  0  0  0
 51 49  1  0  0  0  0
 52 49  1  0  0  0  0
 52 50  1  0  0  0  0
 53 48  1  0  0  0  0
 53 51  2  0  0  0  0
 54 46  1  0  0  0  0
 54 56  1  1  0  0  0
 56 55  1  0  0  0  0
M  END
>  <MODEL>
2

>  <REMARK>
 VINA RESULT:      -7.8      2.742     10.630
  Name = 
  15 active torsions:
  status: ('A' for Active; 'I' for Inactive)
    1  A    between atoms: C_2  and  C_11
    2  A    between atoms: C_2  and  N_25
    3  A    between atoms: N_3  and  C_11
    4  A    between atoms: N_3  and  S_47
    5  A    between atoms: C_5  and  S_19
    6  A    between atoms: S_19  and  C_35
    7  A    between atoms: C_21  and  C_35
    8  A    between atoms: C_24  and  C_35
    9  A    between atoms: C_24  and  O_52
   10  A    between atoms: N_25  and  C_27
   11  A    between atoms: C_27  and  C_49
   12  A    between atoms: C_28  and  S_47
   13  A    between atoms: C_32  and  CA_53
   14  A    between atoms: C_40  and  C_51
   15  A    between atoms: C_51  and  O_52
                            x       y       z     vdW  Elec       q    Type
                         _______ _______ _______ _____ _____    ______ ____

>  <TORSDO>
F 15

$$$$
=
 OpenBabel10232408563D

 56 63  0  0  1  0  0  0  0  0999 V2000
  190.2990  175.2270  137.1630 C   0  0  2  0  0  3  0  0  0  0  0  0
  187.9170  177.8620  134.3460 O   0  0  0  0  0  0  0  0  0  0  0  0
  187.9770  174.2840  136.9670 C   0  0  0  0  0  2  0  0  0  0  0  0
  187.6790  176.7460  134.8800 C   0  0  0  0  0  0  0  0  0  0  0  0
  185.3880  177.2450  135.1350 O   0  0  0  0  0  0  0  0  0  0  0  0
  188.8780  175.4700  136.6500 C   0  0  2  0  0  3  0  0  0  0  0  0
  186.2910  176.3680  135.2030 C   0  0  0  0  0  0  0  0  0  0  0  0
  188.8240  175.8280  135.1660 C   0  0  0  0  0  2  0  0  0  0  0  0
  186.5120  174.6980  137.0310 C   0  0  0  0  0  2  0  0  0  0  0  0
  185.9590  174.9630  135.6390 C   0  0  1  0  0  3  0  0  0  0  0  0
  184.4600  174.6990  135.6490 C   0  0  0  0  0  2  0  0  0  0  0  0
  183.9530  174.7240  137.0140 N   0  0  0  0  0  2  0  0  0  0  0  0
  182.6650  175.4050  136.9760 C   0  0  1  0  0  3  0  0  0  0  0  0
  181.5490  174.3790  137.1050 C   0  0  0  0  0  1  0  0  0  0  0  0
  182.5720  176.5350  138.0270 C   0  0  0  0  0  0  0  0  0  0  0  0
  181.9970  175.9540  139.3070 C   0  0  0  0  0  1  0  0  0  0  0  0
  181.6070  177.6340  137.5760 C   0  0  0  0  0  1  0  0  0  0  0  0
  183.9310  177.0100  138.3540 N   0  0  0  0  0  2  0  0  0  0  0  0
  183.0310  179.4350  138.9660 O   0  0  0  0  0  0  0  0  0  0  0  0
  185.4190  179.0220  139.3390 O   0  0  0  0  0  0  0  0  0  0  0  0
  184.0440  178.4120  139.3920 S   0  0  0  0  0  0  0  0  0  0  0  0
  184.8370  178.0630  141.8650 O   0  0  0  0  0  0  0  0  0  0  0  0
  184.3950  178.4820  143.1350 C   0  0  0  0  0  2  0  0  0  0  0  0
  182.9070  178.7530  143.0980 C   0  0  0  0  0  2  0  0  0  0  0  0
  183.6890  177.9150  141.0660 C   0  0  1  0  0  3  0  0  0  0  0  0
  182.5940  178.7710  141.6410 C   0  0  0  0  0  2  0  0  0  0  0  0
  191.1150  176.7790  137.6790 S   0  0  0  0  0  0  0  0  0  0  0  0
  190.8040  176.5420  139.4700 C   0  0  2  0  0  3  0  0  0  0  0  0
  190.6430  178.4120  145.5130 C   0  0  0  0  0  2  0  0  0  0  0  0
  189.5280  177.2120  139.9100 C   0  0  0  0  0  0  0  0  0  0  0  0
  188.5140  177.2030  139.1580 O   0  0  0  0  0  0  0  0  0  0  0  0
  189.9010  178.1390  144.2320 C   0  0  2  0  0  3  0  0  0  0  0  0
  190.7400  176.9220  145.7340 C   0  0  0  0  0  2  0  0  0  0  0  0
  191.3130  175.9220  143.8780 C   0  0  0  0  0  2  0  0  0  0  0  0
  191.8640  177.4600  141.4390 C   0  0  0  0  0  3  0  0  0  0  0  0
  190.2680  176.2360  142.9260 C   0  0  1  0  0  3  0  0  0  0  0  0
  190.0370  176.6240  144.4090 C   0  0  2  0  0  0  0  0  0  0  0  0
  188.2290  178.4620  141.6360 C   0  0  0  0  0  1  0  0  0  0  0  0
  189.4610  177.8000  141.2170 N   0  0  0  0  0  0  0  0  0  0  0  0
  190.6320  178.5820  143.1190 O   0  0  0  0  0  0  0  0  0  0  0  0
  190.5470  177.5420  142.1790 C   0  0  2  0  0  0  0  0  0  0  0  0
  191.9460  177.0100  140.2320 N   0  0  0  0  0  0  0  0  0  0  0  0
  191.1750  174.3920  136.2320 C   0  0  0  0  0  2  0  0  0  0  0  0
  192.1760  175.1700  135.6440 O   0  0  0  0  0  0  0  0  0  0  0  0
  193.1690  174.2550  135.2900 C   0  0  0  0  0  2  0  0  0  0  0  0
  196.0360  174.2880  138.8370 C   0  0  0  0  0  2  0  0  0  0  0  0
  195.1190  173.8210  137.6930 C   0  0  0  0  0  2  0  0  0  0  0  0
  196.3610  176.0870  135.1290 N   0  0  0  0  0  0  0  0  0  0  0  0
  195.3330  174.6440  136.5080 N   0  0  0  0  0  0  0  0  0  0  0  0
  197.4990  175.4330  137.2060 N   0  0  0  0  0  2  0  0  0  0  0  0
  194.5340  174.8540  135.4530 C   0  0  0  0  0  0  0  0  0  0  0  0
  196.4250  175.3730  136.2700 C   0  0  0  0  0  0  0  0  0  0  0  0
  195.1580  175.7570  134.6010 C   0  0  0  0  0  3  0  0  0  0  0  0
  197.4760  174.5140  138.3440 C   0  0  1  0  0  3  0  0  0  0  0  0
  199.6230  175.3460  138.9840 O   0  0  0  0  0  1  0  0  0  0  0  0
  198.3380  175.0720  139.4610 C   0  0  0  0  0  2  0  0  0  0  0  0
  1 43  1  6  0  0  0
  1 27  1  0  0  0  0
  2  4  2  0  0  0  0
  3  9  1  0  0  0  0
  4  8  1  0  0  0  0
  4  7  1  0  0  0  0
  5  7  2  0  0  0  0
  6  3  1  0  0  0  0
  6  1  1  6  0  0  0
  7 10  1  0  0  0  0
  8  6  1  0  0  0  0
 10 11  1  1  0  0  0
 10  9  1  0  0  0  0
 11 12  1  0  0  0  0
 13 12  1  0  0  0  0
 13 14  1  1  0  0  0
 13 15  1  0  0  0  0
 15 18  1  0  0  0  0
 15 16  1  0  0  0  0
 17 15  1  0  0  0  0
 18 21  1  0  0  0  0
 19 21  2  0  0  0  0
 20 21  2  0  0  0  0
 22 23  1  0  0  0  0
 24 23  1  0  0  0  0
 25 21  1  6  0  0  0
 25 26  1  0  0  0  0
 25 22  1  0  0  0  0
 26 24  1  0  0  0  0
 28 27  1  6  0  0  0
 28 30  1  0  0  0  0
 28 42  1  0  0  0  0
 29 33  1  0  0  0  0
 30 39  1  0  0  0  0
 31 30  2  0  0  0  0
 32 37  1  0  0  0  0
 32 29  1  1  0  0  0
 36 34  1  1  0  0  0
 36 37  1  0  0  0  0
 37 34  1  6  0  0  0
 37 33  1  0  0  0  0
 39 38  1  0  0  0  0
 39 41  1  0  0  0  0
 40 32  1  0  0  0  0
 41 35  1  6  0  0  0
 41 36  1  0  0  0  0
 41 40  1  0  0  0  0
 42 35  2  0  0  0  0
 44 43  1  0  0  0  0
 45 51  1  0  0  0  0
 45 44  1  0  0  0  0
 47 46  1  0  0  0  0
 48 52  2  0  0  0  0
 49 47  1  0  0  0  0
 50 54  1  0  0  0  0
 51 49  1  0  0  0  0
 52 49  1  0  0  0  0
 52 50  1  0  0  0  0
 53 48  1  0  0  0  0
 53 51  2  0  0  0  0
 54 46  1  0  0  0  0
 54 56  1  1  0  0  0
 55 56  1  0  0  0  0
M  END
>  <MODEL>
3

>  <REMARK>
 VINA RESULT:      -7.7      2.588     10.583
  Name = 
  15 active torsions:
  status: ('A' for Active; 'I' for Inactive)
    1  A    between atoms: C_2  and  C_11
    2  A    between atoms: C_2  and  N_25
    3  A    between atoms: N_3  and  C_11
    4  A    between atoms: N_3  and  S_47
    5  A    between atoms: C_5  and  S_19
    6  A    between atoms: S_19  and  C_35
    7  A    between atoms: C_21  and  C_35
    8  A    between atoms: C_24  and  C_35
    9  A    between atoms: C_24  and  O_52
   10  A    between atoms: N_25  and  C_27
   11  A    between atoms: C_27  and  C_49
   12  A    between atoms: C_28  and  S_47
   13  A    between atoms: C_32  and  CA_53
   14  A    between atoms: C_40  and  C_51
   15  A    between atoms: C_51  and  O_52
                            x       y       z     vdW  Elec       q    Type
                         _______ _______ _______ _____ _____    ______ ____

>  <TORSDO>
F 15

$$$$
=
 OpenBabel10232408563D

 56 63  0  0  1  0  0  0  0  0999 V2000
  188.2960  178.2620  140.0650 C   0  0  2  0  0  3  0  0  0  0  0  0
  184.4900  178.0390  142.5200 O   0  0  0  0  0  0  0  0  0  0  0  0
  186.3330  178.4920  138.5100 C   0  0  0  0  0  2  0  0  0  0  0  0
  184.7150  178.3270  141.3140 C   0  0  0  0  0  0  0  0  0  0  0  0
  182.7190  177.2970  140.5930 O   0  0  0  0  0  0  0  0  0  0  0  0
  186.7750  178.1520  139.9270 C   0  0  2  0  0  3  0  0  0  0  0  0
  183.7010  178.0260  140.2860 C   0  0  0  0  0  0  0  0  0  0  0  0
  186.0130  178.9790  140.9610 C   0  0  0  0  0  2  0  0  0  0  0  0
  184.9970  177.8430  138.1720 C   0  0  0  0  0  2  0  0  0  0  0  0
  183.8520  178.5520  138.8810 C   0  0  1  0  0  3  0  0  0  0  0  0
  182.5830  178.3760  138.0580 C   0  0  0  0  0  2  0  0  0  0  0  0
  182.7640  177.3200  137.0720 N   0  0  0  0  0  2  0  0  0  0  0  0
  181.5790  176.4730  137.1360 C   0  0  1  0  0  3  0  0  0  0  0  0
  180.4320  177.2580  137.7560 C   0  0  0  0  0  1  0  0  0  0  0  0
  181.2220  175.8680  135.7600 C   0  0  0  0  0  0  0  0  0  0  0  0
  180.8630  177.0010  134.8140 C   0  0  0  0  0  1  0  0  0  0  0  0
  179.9850  174.9710  135.8530 C   0  0  0  0  0  1  0  0  0  0  0  0
  182.4130  175.2080  135.1910 N   0  0  0  0  0  2  0  0  0  0  0  0
  182.3190  172.5520  135.1320 O   0  0  0  0  0  0  0  0  0  0  0  0
  182.4310  173.6000  137.3460 O   0  0  0  0  0  0  0  0  0  0  0  0
  182.8970  173.6940  135.9190 S   0  0  0  0  0  0  0  0  0  0  0  0
  185.2000  174.6000  135.0620 O   0  0  0  0  0  0  0  0  0  0  0  0
  186.4080  175.0110  135.6590 C   0  0  0  0  0  2  0  0  0  0  0  0
  186.5850  174.3170  136.9920 C   0  0  0  0  0  2  0  0  0  0  0  0
  184.6740  173.5790  135.8750 C   0  0  1  0  0  3  0  0  0  0  0  0
  185.2390  173.7340  137.2600 C   0  0  0  0  0  2  0  0  0  0  0  0
  189.0860  178.7920  138.5040 S   0  0  0  0  0  0  0  0  0  0  0  0
  189.7120  177.1270  138.0630 C   0  0  2  0  0  3  0  0  0  0  0  0
  192.7210  172.9790  134.3490 C   0  0  0  0  0  2  0  0  0  0  0  0
  191.1970  177.0080  138.2900 C   0  0  0  0  0  0  0  0  0  0  0  0
  191.7330  177.5610  139.2900 O   0  0  0  0  0  0  0  0  0  0  0  0
  192.7400  173.8630  135.5670 C   0  0  2  0  0  3  0  0  0  0  0  0
  191.8380  172.0160  135.1040 C   0  0  0  0  0  2  0  0  0  0  0  0
  190.2690  173.1060  136.1650 C   0  0  0  0  0  2  0  0  0  0  0  0
  190.0360  176.0240  135.9350 C   0  0  0  0  0  3  0  0  0  0  0  0
  190.9590  173.9970  137.0750 C   0  0  1  0  0  3  0  0  0  0  0  0
  191.8000  172.9260  136.3330 C   0  0  2  0  0  0  0  0  0  0  0  0
  193.4200  176.1030  137.6070 C   0  0  0  0  0  1  0  0  0  0  0  0
  191.9800  176.2050  137.3950 N   0  0  0  0  0  0  0  0  0  0  0  0
  192.1190  175.0950  135.3090 O   0  0  0  0  0  0  0  0  0  0  0  0
  191.2950  175.3380  136.4190 C   0  0  2  0  0  0  0  0  0  0  0  0
  189.3520  176.8150  136.6920 N   0  0  0  0  0  0  0  0  0  0  0  0
  188.9680  177.0300  140.6660 C   0  0  0  0  0  2  0  0  0  0  0  0
  189.8690  177.3850  141.6740 O   0  0  0  0  0  0  0  0  0  0  0  0
  190.0300  176.2200  142.4270 C   0  0  0  0  0  2  0  0  0  0  0  0
  186.9570  178.0410  145.2620 C   0  0  0  0  0  2  0  0  0  0  0  0
  187.6580  177.1140  144.2540 C   0  0  0  0  0  2  0  0  0  0  0  0
  190.8770  176.9180  145.9430 N   0  0  0  0  0  0  0  0  0  0  0  0
  189.0530  176.9190  144.6340 N   0  0  0  0  0  0  0  0  0  0  0  0
  188.7250  177.5790  146.9270 N   0  0  0  0  0  2  0  0  0  0  0  0
  190.0990  176.5320  143.8910 C   0  0  0  0  0  0  0  0  0  0  0  0
  189.5470  177.1160  145.8580 C   0  0  0  0  0  0  0  0  0  0  0  0
  191.2350  176.5420  144.6920 C   0  0  0  0  0  3  0  0  0  0  0  0
  187.2800  177.6380  146.7120 C   0  0  1  0  0  3  0  0  0  0  0  0
  185.6120  179.3120  147.0730 O   0  0  0  0  0  1  0  0  0  0  0  0
  186.6640  178.6250  147.6870 C   0  0  0  0  0  2  0  0  0  0  0  0
  1 43  1  6  0  0  0
  3  6  1  0  0  0  0
  4  2  2  0  0  0  0
  6  1  1  6  0  0  0
  6  8  1  0  0  0  0
  7  5  2  0  0  0  0
  7  4  1  0  0  0  0
  8  4  1  0  0  0  0
  9  3  1  0  0  0  0
  9 10  1  0  0  0  0
 10 11  1  6  0  0  0
 10  7  1  0  0  0  0
 12 13  1  0  0  0  0
 12 11  1  0  0  0  0
 13 14  1  6  0  0  0
 15 17  1  0  0  0  0
 15 13  1  0  0  0  0
 16 15  1  0  0  0  0
 18 15  1  0  0  0  0
 18 21  1  0  0  0  0
 19 21  2  0  0  0  0
 21 20  2  0  0  0  0
 22 23  1  0  0  0  0
 22 25  1  0  0  0  0
 23 24  1  0  0  0  0
 24 26  1  0  0  0  0
 25 21  1  1  0  0  0
 25 26  1  0  0  0  0
 27  1  1  0  0  0  0
 28 30  1  0  0  0  0
 28 27  1  6  0  0  0
 29 33  1  0  0  0  0
 30 31  2  0  0  0  0
 32 29  1  6  0  0  0
 32 37  1  0  0  0  0
 34 37  1  0  0  0  0
 35 42  2  0  0  0  0
 36 34  1  6  0  0  0
 37 33  1  1  0  0  0
 37 36  1  0  0  0  0
 39 38  1  0  0  0  0
 39 30  1  0  0  0  0
 40 32  1  0  0  0  0
 40 41  1  0  0  0  0
 41 35  1  6  0  0  0
 41 36  1  0  0  0  0
 41 39  1  0  0  0  0
 42 28  1  0  0  0  0
 43 44  1  0  0  0  0
 44 45  1  0  0  0  0
 45 51  1  0  0  0  0
 46 54  1  0  0  0  0
 47 49  1  0  0  0  0
 47 46  1  0  0  0  0
 49 52  1  0  0  0  0
 51 49  1  0  0  0  0
 51 53  2  0  0  0  0
 52 48  2  0  0  0  0
 52 50  1  0  0  0  0
 53 48  1  0  0  0  0
 54 50  1  0  0  0  0
 54 56  1  1  0  0  0
 55 56  1  0  0  0  0
M  END
>  <MODEL>
4

>  <REMARK>
 VINA RESULT:      -7.5      3.205      9.648
  Name = 
  15 active torsions:
  status: ('A' for Active; 'I' for Inactive)
    1  A    between atoms: C_2  and  C_11
    2  A    between atoms: C_2  and  N_25
    3  A    between atoms: N_3  and  C_11
    4  A    between atoms: N_3  and  S_47
    5  A    between atoms: C_5  and  S_19
    6  A    between atoms: S_19  and  C_35
    7  A    between atoms: C_21  and  C_35
    8  A    between atoms: C_24  and  C_35
    9  A    between atoms: C_24  and  O_52
   10  A    between atoms: N_25  and  C_27
   11  A    between atoms: C_27  and  C_49
   12  A    between atoms: C_28  and  S_47
   13  A    between atoms: C_32  and  CA_53
   14  A    between atoms: C_40  and  C_51
   15  A    between atoms: C_51  and  O_52
                            x       y       z     vdW  Elec       q    Type
                         _______ _______ _______ _____ _____    ______ ____

>  <TORSDO>
F 15

$$$$
=
 OpenBabel10232408563D

 56 63  0  0  1  0  0  0  0  0999 V2000
  186.5810  177.2870  137.4230 C   0  0  2  0  0  3  0  0  0  0  0  0
  190.9450  176.5100  136.4690 O   0  0  0  0  0  0  0  0  0  0  0  0
  187.9090  177.5040  139.5460 C   0  0  0  0  0  2  0  0  0  0  0  0
  190.3560  176.9320  137.5000 C   0  0  0  0  0  0  0  0  0  0  0  0
  191.8590  175.8160  138.9350 O   0  0  0  0  0  0  0  0  0  0  0  0
  187.9420  177.0650  138.0880 C   0  0  2  0  0  3  0  0  0  0  0  0
  190.9190  176.6500  138.8330 C   0  0  0  0  0  0  0  0  0  0  0  0
  189.0970  177.7210  137.3360 C   0  0  0  0  0  2  0  0  0  0  0  0
  188.9680  176.7830  140.3700 C   0  0  0  0  0  2  0  0  0  0  0  0
  190.3580  177.3210  140.0610 C   0  0  1  0  0  3  0  0  0  0  0  0
  191.2420  177.1230  141.2850 C   0  0  0  0  0  2  0  0  0  0  0  0
  190.8260  178.0140  142.3580 N   0  0  0  0  0  2  0  0  0  0  0  0
  190.5290  177.1780  143.5140 C   0  0  1  0  0  3  0  0  0  0  0  0
  191.1400  175.8000  143.3080 C   0  0  0  0  0  1  0  0  0  0  0  0
  190.9670  177.8410  144.8400 C   0  0  0  0  0  0  0  0  0  0  0  0
  191.9620  178.9430  144.5200 C   0  0  0  0  0  1  0  0  0  0  0  0
  191.6970  176.8440  145.7430 C   0  0  0  0  0  1  0  0  0  0  0  0
  189.8020  178.4950  145.4680 N   0  0  0  0  0  2  0  0  0  0  0  0
  189.0820  178.4180  148.0250 O   0  0  0  0  0  0  0  0  0  0  0  0
  189.6430  176.2740  146.9740 O   0  0  0  0  0  0  0  0  0  0  0  0
  189.0070  177.6190  146.7550 S   0  0  0  0  0  0  0  0  0  0  0  0
  186.4760  178.1410  147.1860 O   0  0  0  0  0  0  0  0  0  0  0  0
  185.3990  178.6180  146.4140 C   0  0  0  0  0  2  0  0  0  0  0  0
  185.6200  178.2780  144.9570 C   0  0  0  0  0  2  0  0  0  0  0  0
  187.2940  177.3930  146.3190 C   0  0  1  0  0  3  0  0  0  0  0  0
  187.0500  177.8610  144.9110 C   0  0  0  0  0  2  0  0  0  0  0  0
  186.7250  177.4380  135.6070 S   0  0  0  0  0  0  0  0  0  0  0  0
  185.9310  175.8260  135.2440 C   0  0  2  0  0  3  0  0  0  0  0  0
  182.4190  170.7610  136.6820 C   0  0  0  0  0  2  0  0  0  0  0  0
  184.4500  175.9720  135.0050 C   0  0  0  0  0  0  0  0  0  0  0  0
  184.0040  176.9710  134.3760 O   0  0  0  0  0  0  0  0  0  0  0  0
  182.5250  172.1020  136.0040 C   0  0  2  0  0  3  0  0  0  0  0  0
  183.2340  170.1680  135.5590 C   0  0  0  0  0  2  0  0  0  0  0  0
  184.9340  171.4600  135.0970 C   0  0  0  0  0  2  0  0  0  0  0  0
  185.4310  173.9120  136.6340 C   0  0  0  0  0  3  0  0  0  0  0  0
  184.3630  172.7320  134.7040 C   0  0  1  0  0  3  0  0  0  0  0  0
  183.4000  171.5300  134.8840 C   0  0  2  0  0  0  0  0  0  0  0  0
  182.1290  175.0800  135.2240 C   0  0  0  0  0  1  0  0  0  0  0  0
  183.5640  174.9310  135.4430 N   0  0  0  0  0  0  0  0  0  0  0  0
  183.2490  173.0120  136.7910 O   0  0  0  0  0  0  0  0  0  0  0  0
  184.1310  173.6510  135.9060 C   0  0  2  0  0  0  0  0  0  0  0  0
  186.2110  174.8890  136.3160 N   0  0  0  0  0  0  0  0  0  0  0  0
  185.7520  178.4140  138.0350 C   0  0  0  0  0  2  0  0  0  0  0  0
  184.3850  178.2060  137.8330 O   0  0  0  0  0  0  0  0  0  0  0  0
  184.0760  177.1040  138.6340 C   0  0  0  0  0  2  0  0  0  0  0  0
  182.4330  178.6270  142.6060 C   0  0  0  0  0  2  0  0  0  0  0  0
  183.1470  178.5460  141.2460 C   0  0  0  0  0  2  0  0  0  0  0  0
  180.4800  176.8910  139.4030 N   0  0  0  0  0  0  0  0  0  0  0  0
  182.3230  177.8190  140.2860 N   0  0  0  0  0  0  0  0  0  0  0  0
  180.2730  178.1400  141.5070 N   0  0  0  0  0  2  0  0  0  0  0  0
  182.6730  177.1950  139.1540 C   0  0  0  0  0  0  0  0  0  0  0  0
  181.0040  177.6410  140.3910 C   0  0  0  0  0  0  0  0  0  0  0  0
  181.5390  176.6050  138.6080 C   0  0  0  0  0  3  0  0  0  0  0  0
  180.9580  179.0340  142.4400 C   0  0  1  0  0  3  0  0  0  0  0  0
  180.0000  177.6870  144.1660 O   0  0  0  0  0  1  0  0  0  0  0  0
  180.2460  179.0080  143.7800 C   0  0  0  0  0  2  0  0  0  0  0  0
  1 43  1  1  0  0  0
  2  4  2  0  0  0  0
  3  9  1  0  0  0  0
  4  7  1  0  0  0  0
  6  1  1  6  0  0  0
  6  3  1  0  0  0  0
  7  5  2  0  0  0  0
  7 10  1  0  0  0  0
  8  4  1  0  0  0  0
  8  6  1  0  0  0  0
 10  9  1  0  0  0  0
 10 11  1  1  0  0  0
 11 12  1  0  0  0  0
 12 13  1  0  0  0  0
 13 14  1  6  0  0  0
 13 15  1  0  0  0  0
 15 18  1  0  0  0  0
 15 17  1  0  0  0  0
 16 15  1  0  0  0  0
 18 21  1  0  0  0  0
 21 20  2  0  0  0  0
 21 19  2  0  0  0  0
 23 22  1  0  0  0  0
 24 23  1  0  0  0  0
 25 21  1  1  0  0  0
 25 22  1  0  0  0  0
 26 24  1  0  0  0  0
 26 25  1  0  0  0  0
 27  1  1  0  0  0  0
 28 27  1  1  0  0  0
 28 42  1  0  0  0  0
 30 28  1  0  0  0  0
 30 39  1  0  0  0  0
 31 30  2  0  0  0  0
 32 29  1  1  0  0  0
 32 40  1  0  0  0  0
 33 29  1  0  0  0  0
 36 37  1  0  0  0  0
 36 34  1  1  0  0  0
 36 41  1  0  0  0  0
 37 34  1  1  0  0  0
 37 33  1  0  0  0  0
 37 32  1  0  0  0  0
 38 39  1  0  0  0  0
 39 41  1  0  0  0  0
 41 35  1  1  0  0  0
 41 40  1  0  0  0  0
 42 35  2  0  0  0  0
 44 43  1  0  0  0  0
 44 45  1  0  0  0  0
 45 51  1  0  0  0  0
 47 46  1  0  0  0  0
 48 52  2  0  0  0  0
 49 52  1  0  0  0  0
 49 47  1  0  0  0  0
 50 54  1  0  0  0  0
 51 49  1  0  0  0  0
 52 50  1  0  0  0  0
 53 51  2  0  0  0  0
 53 48  1  0  0  0  0
 54 46  1  0  0  0  0
 54 56  1  1  0  0  0
 56 55  1  0  0  0  0
M  END
>  <MODEL>
5

>  <REMARK>
 VINA RESULT:      -7.5      4.299      8.535
  Name = 
  15 active torsions:
  status: ('A' for Active; 'I' for Inactive)
    1  A    between atoms: C_2  and  C_11
    2  A    between atoms: C_2  and  N_25
    3  A    between atoms: N_3  and  C_11
    4  A    between atoms: N_3  and  S_47
    5  A    between atoms: C_5  and  S_19
    6  A    between atoms: S_19  and  C_35
    7  A    between atoms: C_21  and  C_35
    8  A    between atoms: C_24  and  C_35
    9  A    between atoms: C_24  and  O_52
   10  A    between atoms: N_25  and  C_27
   11  A    between atoms: C_27  and  C_49
   12  A    between atoms: C_28  and  S_47
   13  A    between atoms: C_32  and  CA_53
   14  A    between atoms: C_40  and  C_51
   15  A    between atoms: C_51  and  O_52
                            x       y       z     vdW  Elec       q    Type
                         _______ _______ _______ _____ _____    ______ ____

>  <TORSDO>
F 15

$$$$
=
 OpenBabel10232408563D

 56 63  0  0  1  0  0  0  0  0999 V2000
  190.7340  176.1150  136.8540 C   0  0  2  0  0  3  0  0  0  0  0  0
  188.4490  172.5500  135.2340 O   0  0  0  0  0  0  0  0  0  0  0  0
  188.2830  176.4810  137.2820 C   0  0  0  0  0  2  0  0  0  0  0  0
  188.1070  173.5370  135.9390 C   0  0  0  0  0  0  0  0  0  0  0  0
  185.9880  173.6640  134.9120 O   0  0  0  0  0  0  0  0  0  0  0  0
  189.3140  175.6230  136.5610 C   0  0  2  0  0  3  0  0  0  0  0  0
  186.7340  174.0660  135.8450 C   0  0  0  0  0  0  0  0  0  0  0  0
  189.1140  174.1400  136.8660 C   0  0  0  0  0  2  0  0  0  0  0  0
  186.9300  176.4320  136.5830 C   0  0  0  0  0  2  0  0  0  0  0  0
  186.2400  175.0990  136.8260 C   0  0  1  0  0  3  0  0  0  0  0  0
  184.7340  175.3040  136.7410 C   0  0  0  0  0  2  0  0  0  0  0  0
  184.3000  176.2750  137.7350 N   0  0  0  0  0  2  0  0  0  0  0  0
  183.2000  177.0270  137.1440 C   0  0  1  0  0  3  0  0  0  0  0  0
  182.7950  176.3760  135.8300 C   0  0  0  0  0  1  0  0  0  0  0  0
  182.0170  177.1960  138.1240 C   0  0  0  0  0  0  0  0  0  0  0  0
  181.0900  176.0030  137.9690 C   0  0  0  0  0  1  0  0  0  0  0  0
  181.1890  178.4370  137.7850 C   0  0  0  0  0  1  0  0  0  0  0  0
  182.5220  177.1570  139.5110 N   0  0  0  0  0  2  0  0  0  0  0  0
  181.6950  179.5040  140.4460 O   0  0  0  0  0  0  0  0  0  0  0  0
  183.9000  179.4610  139.3740 O   0  0  0  0  0  0  0  0  0  0  0  0
  182.9410  178.6900  140.2390 S   0  0  0  0  0  0  0  0  0  0  0  0
  184.8570  179.1660  141.9610 O   0  0  0  0  0  0  0  0  0  0  0  0
  184.9250  179.5560  143.3120 C   0  0  0  0  0  2  0  0  0  0  0  0
  183.6700  179.1210  144.0370 C   0  0  0  0  0  2  0  0  0  0  0  0
  183.6960  178.3840  141.8230 C   0  0  1  0  0  3  0  0  0  0  0  0
  182.7440  178.7450  142.9310 C   0  0  0  0  0  2  0  0  0  0  0  0
  191.8060  176.0300  135.3760 S   0  0  0  0  0  0  0  0  0  0  0  0
  193.0580  174.9340  136.1450 C   0  0  2  0  0  3  0  0  0  0  0  0
  197.8530  170.8060  136.0160 C   0  0  0  0  0  2  0  0  0  0  0  0
  194.4370  175.5400  136.0980 C   0  0  0  0  0  0  0  0  0  0  0  0
  194.5930  176.7790  136.2760 O   0  0  0  0  0  0  0  0  0  0  0  0
  197.3820  172.2230  136.2050 C   0  0  2  0  0  3  0  0  0  0  0  0
  197.3010  170.4770  137.3810 C   0  0  0  0  0  2  0  0  0  0  0  0
  195.3150  171.3550  137.6210 C   0  0  0  0  0  2  0  0  0  0  0  0
  194.0450  172.8450  135.4330 C   0  0  0  0  0  3  0  0  0  0  0  0
  195.4980  172.7840  137.4690 C   0  0  1  0  0  3  0  0  0  0  0  0
  196.7660  171.8980  137.5690 C   0  0  2  0  0  0  0  0  0  0  0  0
  196.9070  175.2720  135.8560 C   0  0  0  0  0  1  0  0  0  0  0  0
  195.5730  174.6820  135.9160 N   0  0  0  0  0  0  0  0  0  0  0  0
  196.3870  172.5550  135.2720 O   0  0  0  0  0  0  0  0  0  0  0  0
  195.3930  173.2220  136.0060 C   0  0  2  0  0  0  0  0  0  0  0  0
  193.0240  173.6290  135.5110 N   0  0  0  0  0  0  0  0  0  0  0  0
  191.3840  175.4790  138.0800 C   0  0  0  0  0  2  0  0  0  0  0  0
  190.6240  175.7010  139.2310 O   0  0  0  0  0  0  0  0  0  0  0  0
  190.9730  176.9910  139.6390 C   0  0  0  0  0  2  0  0  0  0  0  0
  191.3900  176.6120  144.1640 C   0  0  0  0  0  2  0  0  0  0  0  0
  191.6520  176.9590  142.6890 C   0  0  0  0  0  2  0  0  0  0  0  0
  188.3270  178.2090  141.8930 N   0  0  0  0  0  0  0  0  0  0  0  0
  190.4220  177.4190  142.0530 N   0  0  0  0  0  0  0  0  0  0  0  0
  189.3260  177.9730  144.1250 N   0  0  0  0  0  2  0  0  0  0  0  0
  190.0900  177.4590  140.7550 C   0  0  0  0  0  0  0  0  0  0  0  0
  189.3590  177.8980  142.7020 C   0  0  0  0  0  0  0  0  0  0  0  0
  188.7880  177.9340  140.6490 C   0  0  0  0  0  3  0  0  0  0  0  0
  190.5630  177.7080  144.8600 C   0  0  1  0  0  3  0  0  0  0  0  0
  188.8720  176.9740  146.3800 O   0  0  0  0  0  1  0  0  0  0  0  0
  190.2280  177.2990  146.2820 C   0  0  0  0  0  2  0  0  0  0  0  0
  1 43  1  1  0  0  0
  2  4  2  0  0  0  0
  4  8  1  0  0  0  0
  5  7  2  0  0  0  0
  6  1  1  1  0  0  0
  6  8  1  0  0  0  0
  6  3  1  0  0  0  0
  7  4  1  0  0  0  0
  7 10  1  0  0  0  0
  9 10  1  0  0  0  0
  9  3  1  0  0  0  0
 10 11  1  6  0  0  0
 11 12  1  0  0  0  0
 13 14  1  6  0  0  0
 13 12  1  0  0  0  0
 13 15  1  0  0  0  0
 15 18  1  0  0  0  0
 16 15  1  0  0  0  0
 17 15  1  0  0  0  0
 18 21  1  0  0  0  0
 20 21  2  0  0  0  0
 21 19  2  0  0  0  0
 22 23  1  0  0  0  0
 23 24  1  0  0  0  0
 25 21  1  6  0  0  0
 25 22  1  0  0  0  0
 25 26  1  0  0  0  0
 26 24  1  0  0  0  0
 27  1  1  0  0  0  0
 28 27  1  6  0  0  0
 29 33  1  0  0  0  0
 30 28  1  0  0  0  0
 30 31  2  0  0  0  0
 32 29  1  6  0  0  0
 32 37  1  0  0  0  0
 35 42  2  0  0  0  0
 36 37  1  0  0  0  0
 36 34  1  6  0  0  0
 37 33  1  1  0  0  0
 37 34  1  0  0  0  0
 38 39  1  0  0  0  0
 39 41  1  0  0  0  0
 39 30  1  0  0  0  0
 40 41  1  0  0  0  0
 40 32  1  0  0  0  0
 41 35  1  6  0  0  0
 41 36  1  0  0  0  0
 42 28  1  0  0  0  0
 43 44  1  0  0  0  0
 44 45  1  0  0  0  0
 45 51  1  0  0  0  0
 46 54  1  0  0  0  0
 47 46  1  0  0  0  0
 48 52  2  0  0  0  0
 49 47  1  0  0  0  0
 49 52  1  0  0  0  0
 50 54  1  0  0  0  0
 51 49  1  0  0  0  0
 52 50  1  0  0  0  0
 53 51  2  0  0  0  0
 53 48  1  0  0  0  0
 54 56  1  1  0  0  0
 56 55  1  0  0  0  0
M  END
>  <MODEL>
6

>  <REMARK>
 VINA RESULT:      -7.4      2.374     11.169
  Name = 
  15 active torsions:
  status: ('A' for Active; 'I' for Inactive)
    1  A    between atoms: C_2  and  C_11
    2  A    between atoms: C_2  and  N_25
    3  A    between atoms: N_3  and  C_11
    4  A    between atoms: N_3  and  S_47
    5  A    between atoms: C_5  and  S_19
    6  A    between atoms: S_19  and  C_35
    7  A    between atoms: C_21  and  C_35
    8  A    between atoms: C_24  and  C_35
    9  A    between atoms: C_24  and  O_52
   10  A    between atoms: N_25  and  C_27
   11  A    between atoms: C_27  and  C_49
   12  A    between atoms: C_28  and  S_47
   13  A    between atoms: C_32  and  CA_53
   14  A    between atoms: C_40  and  C_51
   15  A    between atoms: C_51  and  O_52
                            x       y       z     vdW  Elec       q    Type
                         _______ _______ _______ _____ _____    ______ ____

>  <TORSDO>
F 15

$$$$
=
 OpenBabel10232408563D

 56 63  0  0  1  0  0  0  0  0999 V2000
  188.3280  177.3020  138.2970 C   0  0  2  0  0  3  0  0  0  0  0  0
  187.7120  173.8320  135.4450 O   0  0  0  0  0  0  0  0  0  0  0  0
  190.5820  176.4910  137.5360 C   0  0  0  0  0  2  0  0  0  0  0  0
  188.7290  174.5010  135.7730 C   0  0  0  0  0  0  0  0  0  0  0  0
  190.1350  172.6110  135.6450 O   0  0  0  0  0  0  0  0  0  0  0  0
  189.0870  176.1990  137.5560 C   0  0  2  0  0  3  0  0  0  0  0  0
  190.0580  173.8630  135.7690 C   0  0  0  0  0  0  0  0  0  0  0  0
  188.5530  175.9370  136.1500 C   0  0  0  0  0  2  0  0  0  0  0  0
  191.3970  175.2140  137.3710 C   0  0  0  0  0  2  0  0  0  0  0  0
  191.3070  174.6910  135.9450 C   0  0  1  0  0  3  0  0  0  0  0  0
  192.5720  173.9040  135.6320 C   0  0  0  0  0  2  0  0  0  0  0  0
  193.5400  174.0570  136.7080 N   0  0  0  0  0  2  0  0  0  0  0  0
  194.8480  174.2120  136.0830 C   0  0  1  0  0  3  0  0  0  0  0  0
  195.1260  175.6910  135.8580 C   0  0  0  0  0  1  0  0  0  0  0  0
  195.9640  173.5040  136.8840 C   0  0  0  0  0  0  0  0  0  0  0  0
  196.7370  174.5530  137.6630 C   0  0  0  0  0  1  0  0  0  0  0  0
  196.9700  172.8250  135.9510 C   0  0  0  0  0  1  0  0  0  0  0  0
  195.3530  172.6040  137.8830 N   0  0  0  0  0  2  0  0  0  0  0  0
  195.0040  170.1400  138.8150 O   0  0  0  0  0  0  0  0  0  0  0  0
  197.1460  170.6080  137.7170 O   0  0  0  0  0  0  0  0  0  0  0  0
  195.6700  170.8950  137.7000 S   0  0  0  0  0  0  0  0  0  0  0  0
  195.4100  169.0380  135.8710 O   0  0  0  0  0  0  0  0  0  0  0  0
  194.3320  168.3870  135.2390 C   0  0  0  0  0  2  0  0  0  0  0  0
  193.1140  169.2850  135.2470 C   0  0  0  0  0  2  0  0  0  0  0  0
  194.9840  170.3490  136.1490 C   0  0  1  0  0  3  0  0  0  0  0  0
  193.4810  170.3600  136.2130 C   0  0  0  0  0  2  0  0  0  0  0  0
  187.1980  178.2170  137.1900 S   0  0  0  0  0  0  0  0  0  0  0  0
  185.7120  177.9780  138.2360 C   0  0  2  0  0  3  0  0  0  0  0  0
  179.9820  179.5380  140.4250 C   0  0  0  0  0  2  0  0  0  0  0  0
  184.5460  177.4500  137.4410 C   0  0  0  0  0  0  0  0  0  0  0  0
  184.7320  176.5980  136.5290 O   0  0  0  0  0  0  0  0  0  0  0  0
  180.8210  178.6850  139.5100 C   0  0  2  0  0  3  0  0  0  0  0  0
  180.4520  178.6940  141.5850 C   0  0  0  0  0  2  0  0  0  0  0  0
  182.6050  178.3520  141.4440 C   0  0  0  0  0  2  0  0  0  0  0  0
  184.1870  179.5410  139.2740 C   0  0  0  0  0  3  0  0  0  0  0  0
  182.8100  177.6610  140.1870 C   0  0  1  0  0  3  0  0  0  0  0  0
  181.3520  177.8510  140.6800 C   0  0  2  0  0  0  0  0  0  0  0  0
  182.0910  177.3780  136.9970 C   0  0  0  0  0  1  0  0  0  0  0  0
  183.2180  177.8780  137.7770 N   0  0  0  0  0  0  0  0  0  0  0  0
  181.8500  179.4350  138.9200 O   0  0  0  0  0  0  0  0  0  0  0  0
  183.0000  178.6360  139.0220 C   0  0  2  0  0  0  0  0  0  0  0  0
  185.3830  179.2190  138.9120 N   0  0  0  0  0  0  0  0  0  0  0  0
  189.2110  178.2340  139.1240 C   0  0  0  0  0  2  0  0  0  0  0  0
  188.6080  178.5570  140.3420 O   0  0  0  0  0  0  0  0  0  0  0  0
  188.6880  177.3830  141.0950 C   0  0  0  0  0  2  0  0  0  0  0  0
  186.8180  177.7080  145.2420 C   0  0  0  0  0  2  0  0  0  0  0  0
  187.2590  177.1780  143.8660 C   0  0  0  0  0  2  0  0  0  0  0  0
  190.7360  178.2440  144.0330 N   0  0  0  0  0  0  0  0  0  0  0  0
  188.6440  177.5520  143.6010 N   0  0  0  0  0  0  0  0  0  0  0  0
  189.1850  177.9450  145.9150 N   0  0  0  0  0  2  0  0  0  0  0  0
  189.3000  177.6460  142.4370 C   0  0  0  0  0  0  0  0  0  0  0  0
  189.5360  177.8900  144.5350 C   0  0  0  0  0  0  0  0  0  0  0  0
  190.5930  178.0870  142.6950 C   0  0  0  0  0  3  0  0  0  0  0  0
  187.8810  177.4210  146.3190 C   0  0  1  0  0  3  0  0  0  0  0  0
  186.3480  178.8500  147.4680 O   0  0  0  0  0  1  0  0  0  0  0  0
  187.4750  178.0410  147.6430 C   0  0  0  0  0  2  0  0  0  0  0  0
  1 43  1  6  0  0  0
  2  4  2  0  0  0  0
  3  6  1  0  0  0  0
  4  8  1  0  0  0  0
  5  7  2  0  0  0  0
  6  1  1  6  0  0  0
  7  4  1  0  0  0  0
  7 10  1  0  0  0  0
  8  6  1  0  0  0  0
  9  3  1  0  0  0  0
 10 11  1  1  0  0  0
 10  9  1  0  0  0  0
 11 12  1  0  0  0  0
 13 14  1  1  0  0  0
 13 12  1  0  0  0  0
 13 15  1  0  0  0  0
 15 16  1  0  0  0  0
 15 18  1  0  0  0  0
 17 15  1  0  0  0  0
 21 20  2  0  0  0  0
 21 18  1  0  0  0  0
 21 19  2  0  0  0  0
 22 25  1  0  0  0  0
 23 24  1  0  0  0  0
 23 22  1  0  0  0  0
 24 26  1  0  0  0  0
 25 26  1  0  0  0  0
 25 21  1  1  0  0  0
 27  1  1  0  0  0  0
 28 27  1  6  0  0  0
 28 42  1  0  0  0  0
 29 33  1  0  0  0  0
 30 39  1  0  0  0  0
 30 28  1  0  0  0  0
 31 30  2  0  0  0  0
 32 29  1  1  0  0  0
 32 37  1  0  0  0  0
 36 37  1  0  0  0  0
 36 34  1  1  0  0  0
 37 34  1  1  0  0  0
 37 33  1  0  0  0  0
 38 39  1  0  0  0  0
 39 41  1  0  0  0  0
 40 41  1  0  0  0  0
 40 32  1  0  0  0  0
 41 35  1  1  0  0  0
 41 36  1  0  0  0  0
 42 35  2  0  0  0  0
 43 44  1  0  0  0  0
 44 45  1  0  0  0  0
 45 51  1  0  0  0  0
 46 54  1  0  0  0  0
 47 46  1  0  0  0  0
 48 52  2  0  0  0  0
 49 47  1  0  0  0  0
 49 52  1  0  0  0  0
 50 54  1  0  0  0  0
 51 53  2  0  0  0  0
 51 49  1  0  0  0  0
 52 50  1  0  0  0  0
 53 48  1  0  0  0  0
 54 56  1  1  0  0  0
 55 56  1  0  0  0  0
M  END
>  <MODEL>
7

>  <REMARK>
 VINA RESULT:      -7.4      1.691      2.268
  Name = 
  15 active torsions:
  status: ('A' for Active; 'I' for Inactive)
    1  A    between atoms: C_2  and  C_11
    2  A    between atoms: C_2  and  N_25
    3  A    between atoms: N_3  and  C_11
    4  A    between atoms: N_3  and  S_47
    5  A    between atoms: C_5  and  S_19
    6  A    between atoms: S_19  and  C_35
    7  A    between atoms: C_21  and  C_35
    8  A    between atoms: C_24  and  C_35
    9  A    between atoms: C_24  and  O_52
   10  A    between atoms: N_25  and  C_27
   11  A    between atoms: C_27  and  C_49
   12  A    between atoms: C_28  and  S_47
   13  A    between atoms: C_32  and  CA_53
   14  A    between atoms: C_40  and  C_51
   15  A    between atoms: C_51  and  O_52
                            x       y       z     vdW  Elec       q    Type
                         _______ _______ _______ _____ _____    ______ ____

>  <TORSDO>
F 15

$$$$
=
 OpenBabel10232408563D

 56 63  0  0  1  0  0  0  0  0999 V2000
  185.5730  178.8760  139.0310 C   0  0  2  0  0  3  0  0  0  0  0  0
  188.9820  176.9730  141.3370 O   0  0  0  0  0  0  0  0  0  0  0  0
  185.0340  178.9900  141.4840 C   0  0  0  0  0  2  0  0  0  0  0  0
  187.9690  177.6310  141.6950 C   0  0  0  0  0  0  0  0  0  0  0  0
  187.7010  176.3440  143.6530 O   0  0  0  0  0  0  0  0  0  0  0  0
  185.9670  178.4040  140.4330 C   0  0  2  0  0  3  0  0  0  0  0  0
  187.3450  177.3640  143.0040 C   0  0  0  0  0  0  0  0  0  0  0  0
  187.4300  178.6790  140.7740 C   0  0  0  0  0  2  0  0  0  0  0  0
  184.9930  178.1260  142.7370 C   0  0  0  0  0  2  0  0  0  0  0  0
  186.2740  178.2770  143.5450 C   0  0  1  0  0  3  0  0  0  0  0  0
  185.9640  178.0020  145.0100 C   0  0  0  0  0  2  0  0  0  0  0  0
  187.0900  177.3360  145.6470 N   0  0  0  0  0  2  0  0  0  0  0  0
  187.5610  178.2180  146.7080 C   0  0  1  0  0  3  0  0  0  0  0  0
  186.3650  178.7860  147.4580 C   0  0  0  0  0  1  0  0  0  0  0  0
  188.5800  177.5190  147.6370 C   0  0  0  0  0  0  0  0  0  0  0  0
  187.8130  176.7410  148.6920 C   0  0  0  0  0  1  0  0  0  0  0  0
  189.4380  178.5410  148.3860 C   0  0  0  0  0  1  0  0  0  0  0  0
  189.3490  176.5270  146.8600 N   0  0  0  0  0  2  0  0  0  0  0  0
  191.5470  175.1740  147.4940 O   0  0  0  0  0  0  0  0  0  0  0  0
  191.5040  177.5500  148.1020 O   0  0  0  0  0  0  0  0  0  0  0  0
  191.0850  176.5390  147.0700 S   0  0  0  0  0  0  0  0  0  0  0  0
  191.8130  175.8260  144.6570 O   0  0  0  0  0  0  0  0  0  0  0  0
  191.6060  176.3190  143.3530 C   0  0  0  0  0  2  0  0  0  0  0  0
  191.3510  177.8090  143.4020 C   0  0  0  0  0  2  0  0  0  0  0  0
  191.8460  176.9430  145.5110 C   0  0  1  0  0  3  0  0  0  0  0  0
  191.1050  178.0720  144.8480 C   0  0  0  0  0  2  0  0  0  0  0  0
  183.7670  179.1070  138.8700 S   0  0  0  0  0  0  0  0  0  0  0  0
  183.4600  177.4710  138.1020 C   0  0  2  0  0  3  0  0  0  0  0  0
  180.3320  172.0150  137.3930 C   0  0  0  0  0  2  0  0  0  0  0  0
  182.2920  177.5090  137.1500 C   0  0  0  0  0  0  0  0  0  0  0  0
  182.1050  178.5180  136.4140 O   0  0  0  0  0  0  0  0  0  0  0  0
  180.6030  173.4140  136.9060 C   0  0  2  0  0  3  0  0  0  0  0  0
  181.6640  171.5960  136.8190 C   0  0  0  0  0  2  0  0  0  0  0  0
  183.1990  173.0660  137.3260 C   0  0  0  0  0  2  0  0  0  0  0  0
  182.5640  175.4050  138.9820 C   0  0  0  0  0  3  0  0  0  0  0  0
  182.7540  174.3130  136.7390 C   0  0  1  0  0  3  0  0  0  0  0  0
  181.9810  173.0210  136.3660 C   0  0  2  0  0  0  0  0  0  0  0  0
  180.2990  176.4050  136.1320 C   0  0  0  0  0  1  0  0  0  0  0  0
  181.4380  176.3610  137.0430 N   0  0  0  0  0  0  0  0  0  0  0  0
  180.7220  174.3100  137.9810 O   0  0  0  0  0  0  0  0  0  0  0  0
  181.8450  175.0990  137.6870 C   0  0  2  0  0  0  0  0  0  0  0  0
  183.2760  176.4700  139.1360 N   0  0  0  0  0  0  0  0  0  0  0  0
  186.1540  178.0380  137.8940 C   0  0  0  0  0  2  0  0  0  0  0  0
  186.8300  178.8380  136.9690 O   0  0  0  0  0  0  0  0  0  0  0  0
  188.1640  178.8020  137.3820 C   0  0  0  0  0  2  0  0  0  0  0  0
  191.9670  176.5340  138.4710 C   0  0  0  0  0  2  0  0  0  0  0  0
  190.5400  177.1080  138.4990 C   0  0  0  0  0  2  0  0  0  0  0  0
  189.6710  176.3950  135.0360 N   0  0  0  0  0  0  0  0  0  0  0  0
  189.9440  177.0420  137.1680 N   0  0  0  0  0  0  0  0  0  0  0  0
  191.4580  175.3530  136.3600 N   0  0  0  0  0  2  0  0  0  0  0  0
  188.9250  177.7390  136.6490 C   0  0  0  0  0  0  0  0  0  0  0  0
  190.3500  176.2310  136.1890 C   0  0  0  0  0  0  0  0  0  0  0  0
  188.7580  177.3540  135.3240 C   0  0  0  0  0  3  0  0  0  0  0  0
  192.0210  175.2020  137.7020 C   0  0  1  0  0  3  0  0  0  0  0  0
  194.3360  175.7870  137.6300 O   0  0  0  0  0  1  0  0  0  0  0  0
  193.4510  174.7060  137.5980 C   0  0  0  0  0  2  0  0  0  0  0  0
  1 43  1  6  0  0  0
  2  4  2  0  0  0  0
  3  9  1  0  0  0  0
  4  7  1  0  0  0  0
  6  1  1  6  0  0  0
  6  8  1  0  0  0  0
  6  3  1  0  0  0  0
  7 10  1  0  0  0  0
  7  5  2  0  0  0  0
  8  4  1  0  0  0  0
  9 10  1  0  0  0  0
 10 11  1  1  0  0  0
 11 12  1  0  0  0  0
 12 13  1  0  0  0  0
 13 14  1  1  0  0  0
 13 15  1  0  0  0  0
 15 17  1  0  0  0  0
 15 16  1  0  0  0  0
 18 21  1  0  0  0  0
 18 15  1  0  0  0  0
 21 19  2  0  0  0  0
 21 20  2  0  0  0  0
 22 25  1  0  0  0  0
 23 24  1  0  0  0  0
 23 22  1  0  0  0  0
 24 26  1  0  0  0  0
 25 21  1  1  0  0  0
 26 25  1  0  0  0  0
 27  1  1  0  0  0  0
 28 27  1  1  0  0  0
 28 42  1  0  0  0  0
 30 28  1  0  0  0  0
 31 30  2  0  0  0  0
 32 29  1  1  0  0  0
 32 40  1  0  0  0  0
 33 29  1  0  0  0  0
 35 42  2  0  0  0  0
 36 34  1  1  0  0  0
 36 41  1  0  0  0  0
 37 36  1  0  0  0  0
 37 33  1  6  0  0  0
 37 32  1  0  0  0  0
 37 34  1  0  0  0  0
 38 39  1  0  0  0  0
 39 30  1  0  0  0  0
 39 41  1  0  0  0  0
 41 40  1  0  0  0  0
 41 35  1  1  0  0  0
 44 45  1  0  0  0  0
 44 43  1  0  0  0  0
 46 47  1  0  0  0  0
 48 53  1  0  0  0  0
 48 52  2  0  0  0  0
 49 47  1  0  0  0  0
 50 54  1  0  0  0  0
 51 49  1  0  0  0  0
 51 45  1  0  0  0  0
 52 50  1  0  0  0  0
 52 49  1  0  0  0  0
 53 51  2  0  0  0  0
 54 56  1  6  0  0  0
 54 46  1  0  0  0  0
 56 55  1  0  0  0  0
M  END
>  <MODEL>
8

>  <REMARK>
 VINA RESULT:      -7.3      3.511      8.858
  Name = 
  15 active torsions:
  status: ('A' for Active; 'I' for Inactive)
    1  A    between atoms: C_2  and  C_11
    2  A    between atoms: C_2  and  N_25
    3  A    between atoms: N_3  and  C_11
    4  A    between atoms: N_3  and  S_47
    5  A    between atoms: C_5  and  S_19
    6  A    between atoms: S_19  and  C_35
    7  A    between atoms: C_21  and  C_35
    8  A    between atoms: C_24  and  C_35
    9  A    between atoms: C_24  and  O_52
   10  A    between atoms: N_25  and  C_27
   11  A    between atoms: C_27  and  C_49
   12  A    between atoms: C_28  and  S_47
   13  A    between atoms: C_32  and  CA_53
   14  A    between atoms: C_40  and  C_51
   15  A    between atoms: C_51  and  O_52
                            x       y       z     vdW  Elec       q    Type
                         _______ _______ _______ _____ _____    ______ ____

>  <TORSDO>
F 15

$$$$
=
 OpenBabel10232408563D

 56 63  0  0  1  0  0  0  0  0999 V2000
  189.9810  175.1640  136.4600 C   0  0  2  0  0  3  0  0  0  0  0  0
  187.1040  178.2530  138.1150 O   0  0  0  0  0  0  0  0  0  0  0  0
  190.7350  175.7920  138.7740 C   0  0  0  0  0  2  0  0  0  0  0  0
  188.0480  177.5980  138.6330 C   0  0  0  0  0  0  0  0  0  0  0  0
  188.6770  179.4060  140.0110 O   0  0  0  0  0  0  0  0  0  0  0  0
  189.7930  176.1350  137.6280 C   0  0  2  0  0  3  0  0  0  0  0  0
  188.8260  178.1840  139.7400 C   0  0  0  0  0  0  0  0  0  0  0  0
  188.3460  176.2300  138.1080 C   0  0  0  0  0  2  0  0  0  0  0  0
  191.0150  177.0080  139.6490 C   0  0  0  0  0  2  0  0  0  0  0  0
  189.8100  177.3450  140.5150 C   0  0  1  0  0  3  0  0  0  0  0  0
  190.2960  178.0410  141.7790 C   0  0  0  0  0  2  0  0  0  0  0  0
  191.3080  177.2320  142.4430 N   0  0  0  0  0  2  0  0  0  0  0  0
  191.5030  177.8020  143.7700 C   0  0  1  0  0  3  0  0  0  0  0  0
  191.2350  179.2990  143.7200 C   0  0  0  0  0  1  0  0  0  0  0  0
  190.6650  177.0740  144.8450 C   0  0  0  0  0  0  0  0  0  0  0  0
  191.6060  176.5510  145.9170 C   0  0  0  0  0  1  0  0  0  0  0  0
  189.9520  175.8530  144.2590 C   0  0  0  0  0  1  0  0  0  0  0  0
  189.7710  178.0440  145.5080 N   0  0  0  0  0  2  0  0  0  0  0  0
  189.3550  178.4690  148.0990 O   0  0  0  0  0  0  0  0  0  0  0  0
  189.4330  176.1300  147.3660 O   0  0  0  0  0  0  0  0  0  0  0  0
  189.0020  177.5210  146.9890 S   0  0  0  0  0  0  0  0  0  0  0  0
  186.6720  178.6170  147.4680 O   0  0  0  0  0  0  0  0  0  0  0  0
  185.6070  179.1080  146.6860 C   0  0  0  0  0  2  0  0  0  0  0  0
  185.5870  178.4050  145.3460 C   0  0  0  0  0  2  0  0  0  0  0  0
  187.2360  177.5440  146.7550 C   0  0  1  0  0  3  0  0  0  0  0  0
  186.9080  177.7150  145.2970 C   0  0  0  0  0  2  0  0  0  0  0  0
  190.4200  176.0320  134.9130 S   0  0  0  0  0  0  0  0  0  0  0  0
  192.2050  175.6230  134.9960 C   0  0  2  0  0  3  0  0  0  0  0  0
  197.5410  174.0180  137.9980 C   0  0  0  0  0  2  0  0  0  0  0  0
  192.4340  174.1440  135.1720 C   0  0  0  0  0  0  0  0  0  0  0  0
  191.6950  173.3120  134.5760 O   0  0  0  0  0  0  0  0  0  0  0  0
  196.3650  173.6010  137.1550 C   0  0  2  0  0  3  0  0  0  0  0  0
  198.1470  174.6590  136.7740 C   0  0  0  0  0  2  0  0  0  0  0  0
  196.6290  175.7960  135.6890 C   0  0  0  0  0  2  0  0  0  0  0  0
  193.8800  175.9960  136.7000 C   0  0  0  0  0  3  0  0  0  0  0  0
  195.6120  174.8340  135.3170 C   0  0  1  0  0  3  0  0  0  0  0  0
  196.9370  174.2930  135.9130 C   0  0  2  0  0  0  0  0  0  0  0  0
  193.7500  172.2630  136.1520 C   0  0  0  0  0  1  0  0  0  0  0  0
  193.5390  173.6960  135.9710 N   0  0  0  0  0  0  0  0  0  0  0  0
  195.1860  174.2320  137.5820 O   0  0  0  0  0  0  0  0  0  0  0  0
  194.5520  174.6720  136.4100 C   0  0  2  0  0  0  0  0  0  0  0  0
  192.8360  176.3920  136.0530 N   0  0  0  0  0  0  0  0  0  0  0  0
  188.8320  174.1770  136.2650 C   0  0  0  0  0  2  0  0  0  0  0  0
  188.4510  174.1000  134.9230 O   0  0  0  0  0  0  0  0  0  0  0  0
  187.0700  173.8950  134.9610 C   0  0  0  0  0  2  0  0  0  0  0  0
  183.5640  174.8330  137.7230 C   0  0  0  0  0  2  0  0  0  0  0  0
  184.9370  174.3860  137.1910 C   0  0  0  0  0  2  0  0  0  0  0  0
  185.5860  177.2650  135.0600 N   0  0  0  0  0  0  0  0  0  0  0  0
  185.4300  175.3380  136.2010 N   0  0  0  0  0  0  0  0  0  0  0  0
  184.0010  177.1350  136.9320 N   0  0  0  0  0  2  0  0  0  0  0  0
  186.3440  175.1770  135.2360 C   0  0  0  0  0  0  0  0  0  0  0  0
  185.0170  176.6020  136.0860 C   0  0  0  0  0  0  0  0  0  0  0  0
  186.4370  176.3620  134.5150 C   0  0  0  0  0  3  0  0  0  0  0  0
  183.5610  176.3320  138.0730 C   0  0  1  0  0  3  0  0  0  0  0  0
  182.2450  177.5060  139.6860 O   0  0  0  0  0  1  0  0  0  0  0  0
  182.1730  176.7750  138.4970 C   0  0  0  0  0  2  0  0  0  0  0  0
  1 43  1  6  0  0  0
  2  4  2  0  0  0  0
  3  9  1  0  0  0  0
  4  7  1  0  0  0  0
  6  1  1  6  0  0  0
  6  8  1  0  0  0  0
  6  3  1  0  0  0  0
  7  5  2  0  0  0  0
  7 10  1  0  0  0  0
  8  4  1  0  0  0  0
  9 10  1  0  0  0  0
 10 11  1  1  0  0  0
 11 12  1  0  0  0  0
 12 13  1  0  0  0  0
 13 14  1  6  0  0  0
 13 15  1  0  0  0  0
 15 18  1  0  0  0  0
 15 16  1  0  0  0  0
 17 15  1  0  0  0  0
 18 21  1  0  0  0  0
 21 20  2  0  0  0  0
 21 19  2  0  0  0  0
 23 22  1  0  0  0  0
 24 23  1  0  0  0  0
 25 21  1  6  0  0  0
 25 22  1  0  0  0  0
 26 24  1  0  0  0  0
 26 25  1  0  0  0  0
 27  1  1  0  0  0  0
 28 27  1  1  0  0  0
 28 30  1  0  0  0  0
 28 42  1  0  0  0  0
 30 39  1  0  0  0  0
 31 30  2  0  0  0  0
 32 40  1  0  0  0  0
 32 29  1  1  0  0  0
 33 29  1  0  0  0  0
 36 34  1  1  0  0  0
 36 37  1  0  0  0  0
 36 41  1  0  0  0  0
 37 34  1  1  0  0  0
 37 33  1  0  0  0  0
 37 32  1  0  0  0  0
 39 38  1  0  0  0  0
 39 41  1  0  0  0  0
 41 35  1  1  0  0  0
 41 40  1  0  0  0  0
 42 35  2  0  0  0  0
 44 45  1  0  0  0  0
 44 43  1  0  0  0  0
 45 51  1  0  0  0  0
 46 54  1  0  0  0  0
 47 46  1  0  0  0  0
 48 52  2  0  0  0  0
 49 47  1  0  0  0  0
 50 54  1  0  0  0  0
 51 49  1  0  0  0  0
 52 49  1  0  0  0  0
 52 50  1  0  0  0  0
 53 48  1  0  0  0  0
 53 51  2  0  0  0  0
 54 56  1  6  0  0  0
 56 55  1  0  0  0  0
M  END
>  <MODEL>
9

>  <REMARK>
 VINA RESULT:      -7.3      2.608     10.840
  Name = 
  15 active torsions:
  status: ('A' for Active; 'I' for Inactive)
    1  A    between atoms: C_2  and  C_11
    2  A    between atoms: C_2  and  N_25
    3  A    between atoms: N_3  and  C_11
    4  A    between atoms: N_3  and  S_47
    5  A    between atoms: C_5  and  S_19
    6  A    between atoms: S_19  and  C_35
    7  A    between atoms: C_21  and  C_35
    8  A    between atoms: C_24  and  C_35
    9  A    between atoms: C_24  and  O_52
   10  A    between atoms: N_25  and  C_27
   11  A    between atoms: C_27  and  C_49
   12  A    between atoms: C_28  and  S_47
   13  A    between atoms: C_32  and  CA_53
   14  A    between atoms: C_40  and  C_51
   15  A    between atoms: C_51  and  O_52
                            x       y       z     vdW  Elec       q    Type
                         _______ _______ _______ _____ _____    ______ ____

>  <TORSDO>
F 15

$$$$
