=
 OpenBabel10222421483D

 31 33  0  0  1  0  0  0  0  0999 V2000
  187.1100  178.1420  146.8860 C   0  0  0  0  0  0  0  0  0  0  0  0
  187.8210  177.6040  145.7870 C   0  0  0  0  0  0  0  0  0  0  0  0
  189.1300  177.1500  146.0100 C   0  0  0  0  0  3  0  0  0  0  0  0
  188.9780  177.7370  148.3200 N   0  0  0  0  0  0  0  0  0  0  0  0
  185.8120  178.6120  146.7220 C   0  0  0  0  0  3  0  0  0  0  0  0
  185.2100  178.5740  145.4680 C   0  0  0  0  0  3  0  0  0  0  0  0
  187.7110  178.1940  148.1440 C   0  0  0  0  0  3  0  0  0  0  0  0
  187.1980  177.5530  144.5110 C   0  0  0  0  0  0  0  0  0  0  0  0
  189.6940  177.2230  147.2870 C   0  0  0  0  0  3  0  0  0  0  0  0
  185.8900  178.0540  144.3630 C   0  0  0  0  0  0  0  0  0  0  0  0
  185.2810  178.0230  143.1040 O   0  0  0  0  0  0  0  0  0  0  0  0
  184.8240  179.1960  142.4390 C   0  0  0  0  0  2  0  0  0  0  0  0
  185.7810  179.5840  141.4150 N   0  0  0  0  0  2  0  0  0  0  0  0
  184.8900  179.0830  139.1820 C   0  0  0  0  0  0  0  0  0  0  0  0
  184.3290  180.2060  139.1310 O   0  0  0  0  0  1  0  0  0  0  0  0
  185.6230  178.6960  140.3410 N   0  0  0  0  0  2  0  0  0  0  0  0
  184.7800  178.2090  138.1100 O   0  0  0  0  0  0  0  0  0  0  0  0
  187.8250  176.9840  143.3440 N   0  0  0  0  0  2  0  0  0  0  0  0
  188.7150  177.6610  142.4120 C   0  0  0  0  0  2  0  0  0  0  0  0
  190.7490  176.4230  142.6900 O   0  0  0  0  0  1  0  0  0  0  0  0
  189.6880  176.6630  141.8020 C   0  0  2  0  0  3  0  0  0  0  0  0
  189.5220  175.3240  137.6960 F   0  0  0  0  0  0  0  0  0  0  0  0
  190.2160  177.1990  140.4710 C   0  0  2  0  0  3  0  0  0  0  0  0
  188.8130  177.4140  138.5780 C   0  0  2  0  0  3  0  0  0  0  0  0
  189.2050  178.1350  139.8340 C   0  0  0  0  0  2  0  0  0  0  0  0
  190.5200  176.1340  139.5870 O   0  0  0  0  0  0  0  0  0  0  0  0
  189.9800  176.4680  138.3310 C   0  0  0  0  0  0  0  0  0  0  0  0
  190.9790  177.0480  137.5620 F   0  0  0  0  0  0  0  0  0  0  0  0
  188.9530  179.6640  137.4440 O   0  0  0  0  0  1  0  0  0  0  0  0
  188.4750  178.3580  137.4610 C   0  0  0  0  0  0  0  0  0  0  0  0
  187.6810  177.9840  136.5640 O   0  0  0  0  0  0  0  0  0  0  0  0
  1  7  2  0  0  0  0
  2  3  2  0  0  0  0
  2  1  1  0  0  0  0
  3  9  1  0  0  0  0
  5  1  1  0  0  0  0
  6  5  2  0  0  0  0
  7  4  1  0  0  0  0
  8  2  1  0  0  0  0
  9  4  2  0  0  0  0
 10  8  2  0  0  0  0
 10  6  1  0  0  0  0
 11 10  1  0  0  0  0
 12 11  1  0  0  0  0
 13 12  1  0  0  0  0
 14 16  1  0  0  0  0
 15 14  1  0  0  0  0
 16 13  1  0  0  0  0
 17 14  2  0  0  0  0
 18  8  1  0  0  0  0
 19 18  1  0  0  0  0
 21 19  1  0  0  0  0
 21 20  1  1  0  0  0
 22 27  1  0  0  0  0
 23 21  1  1  0  0  0
 24 30  1  6  0  0  0
 24 25  1  0  0  0  0
 25 23  1  0  0  0  0
 26 23  1  0  0  0  0
 27 24  1  0  0  0  0
 27 26  1  0  0  0  0
 28 27  1  0  0  0  0
 29 30  1  0  0  0  0
 31 30  2  0  0  0  0
M  END
>  <MODEL>
1

>  <REMARK>
 VINA RESULT:      -9.0      0.000      0.000
  Name = 
  9 active torsions:
  status: ('A' for Active; 'I' for Inactive)
    1  A    between atoms: C_4  and  N_10
    2  A    between atoms: C_4  and  C_29
    3  A    between atoms: O_8  and  C_12
    4  A    between atoms: O_8  and  C_28
    5  A    between atoms: N_10  and  C_18
    6  A    between atoms: C_11  and  C_29
    7  A    between atoms: C_12  and  N_27
    8  A    between atoms: C_15  and  C_20
    9  A    between atoms: N_23  and  N_27
                            x       y       z     vdW  Elec       q    Type
                         _______ _______ _______ _____ _____    ______ ____

>  <TORSDO>
F 9

$$$$
=
 OpenBabel10222421483D

 31 33  0  0  1  0  0  0  0  0999 V2000
  184.7380  178.6360  145.0320 C   0  0  0  0  0  0  0  0  0  0  0  0
  185.4670  178.1030  143.9420 C   0  0  0  0  0  0  0  0  0  0  0  0
  184.8710  178.1380  142.6730 C   0  0  0  0  0  3  0  0  0  0  0  0
  182.9350  179.2070  143.5730 N   0  0  0  0  0  0  0  0  0  0  0  0
  185.2780  178.6230  146.3130 C   0  0  0  0  0  3  0  0  0  0  0  0
  186.5340  178.0650  146.5350 C   0  0  0  0  0  3  0  0  0  0  0  0
  183.4740  179.1860  144.8190 C   0  0  0  0  0  3  0  0  0  0  0  0
  186.7560  177.5480  144.1700 C   0  0  0  0  0  0  0  0  0  0  0  0
  183.6000  178.6980  142.5050 C   0  0  0  0  0  3  0  0  0  0  0  0
  187.2740  177.5260  145.4790 C   0  0  0  0  0  0  0  0  0  0  0  0
  188.5340  176.9630  145.7100 O   0  0  0  0  0  0  0  0  0  0  0  0
  189.4550  177.4950  146.6560 C   0  0  0  0  0  2  0  0  0  0  0  0
  190.8160  177.3030  146.1800 N   0  0  0  0  0  2  0  0  0  0  0  0
  192.4040  175.7840  147.2760 C   0  0  0  0  0  0  0  0  0  0  0  0
  192.3770  175.0090  146.2870 O   0  0  0  0  0  0  0  0  0  0  0  0
  191.6000  176.9610  147.2910 N   0  0  0  0  0  2  0  0  0  0  0  0
  193.2080  175.4830  148.3650 O   0  0  0  0  0  1  0  0  0  0  0  0
  187.5900  177.0220  143.1180 N   0  0  0  0  0  2  0  0  0  0  0  0
  188.5830  177.7520  142.3420 C   0  0  0  0  0  2  0  0  0  0  0  0
  190.6870  176.6840  142.7680 O   0  0  0  0  0  1  0  0  0  0  0  0
  189.6490  176.7950  141.8280 C   0  0  2  0  0  3  0  0  0  0  0  0
  189.6000  175.2970  137.7750 F   0  0  0  0  0  0  0  0  0  0  0  0
  190.1910  177.2930  140.4890 C   0  0  2  0  0  3  0  0  0  0  0  0
  188.8240  177.4010  138.5610 C   0  0  2  0  0  3  0  0  0  0  0  0
  189.1720  178.1790  139.7960 C   0  0  0  0  0  2  0  0  0  0  0  0
  190.5390  176.2020  139.6520 O   0  0  0  0  0  0  0  0  0  0  0  0
  190.0170  176.4750  138.3740 C   0  0  0  0  0  0  0  0  0  0  0  0
  191.0190  177.0490  137.6030 F   0  0  0  0  0  0  0  0  0  0  0  0
  189.0040  179.5810  137.3020 O   0  0  0  0  0  1  0  0  0  0  0  0
  188.4870  178.2930  137.4030 C   0  0  0  0  0  0  0  0  0  0  0  0
  187.6600  177.8960  136.5460 O   0  0  0  0  0  0  0  0  0  0  0  0
  1  5  1  0  0  0  0
  2  8  1  0  0  0  0
  2  1  2  0  0  0  0
  3  2  1  0  0  0  0
  4  7  2  0  0  0  0
  5  6  2  0  0  0  0
  7  1  1  0  0  0  0
  8 10  2  0  0  0  0
  9  3  2  0  0  0  0
  9  4  1  0  0  0  0
 10 11  1  0  0  0  0
 10  6  1  0  0  0  0
 11 12  1  0  0  0  0
 13 12  1  0  0  0  0
 13 16  1  0  0  0  0
 14 16  1  0  0  0  0
 14 17  1  0  0  0  0
 15 14  2  0  0  0  0
 18  8  1  0  0  0  0
 19 18  1  0  0  0  0
 21 19  1  0  0  0  0
 21 20  1  1  0  0  0
 22 27  1  0  0  0  0
 23 21  1  1  0  0  0
 24 30  1  6  0  0  0
 24 25  1  0  0  0  0
 25 23  1  0  0  0  0
 26 23  1  0  0  0  0
 27 24  1  0  0  0  0
 27 26  1  0  0  0  0
 28 27  1  0  0  0  0
 29 30  1  0  0  0  0
 31 30  2  0  0  0  0
M  END
>  <MODEL>
2

>  <REMARK>
 VINA RESULT:      -8.6      1.968      5.298
  Name = 
  9 active torsions:
  status: ('A' for Active; 'I' for Inactive)
    1  A    between atoms: C_4  and  N_10
    2  A    between atoms: C_4  and  C_29
    3  A    between atoms: O_8  and  C_12
    4  A    between atoms: O_8  and  C_28
    5  A    between atoms: N_10  and  C_18
    6  A    between atoms: C_11  and  C_29
    7  A    between atoms: C_12  and  N_27
    8  A    between atoms: C_15  and  C_20
    9  A    between atoms: N_23  and  N_27
                            x       y       z     vdW  Elec       q    Type
                         _______ _______ _______ _____ _____    ______ ____

>  <TORSDO>
F 9

$$$$
=
 OpenBabel10222421483D

 31 33  0  0  1  0  0  0  0  0999 V2000
  188.7400  177.3590  146.2730 C   0  0  0  0  0  0  0  0  0  0  0  0
  189.2190  177.1060  144.9650 C   0  0  0  0  0  0  0  0  0  0  0  0
  190.5750  176.7780  144.8140 C   0  0  0  0  0  3  0  0  0  0  0  0
  190.9120  176.9350  147.1730 N   0  0  0  0  0  0  0  0  0  0  0  0
  187.4060  177.6940  146.4800 C   0  0  0  0  0  3  0  0  0  0  0  0
  186.5380  177.8030  145.3980 C   0  0  0  0  0  3  0  0  0  0  0  0
  189.6070  177.2630  147.3610 C   0  0  0  0  0  3  0  0  0  0  0  0
  188.3260  177.2030  143.8640 C   0  0  0  0  0  0  0  0  0  0  0  0
  191.4090  176.6950  145.9330 C   0  0  0  0  0  3  0  0  0  0  0  0
  186.9850  177.5650  144.0950 C   0  0  0  0  0  0  0  0  0  0  0  0
  186.1070  177.6800  143.0120 O   0  0  0  0  0  0  0  0  0  0  0  0
  185.4320  178.8920  142.6910 C   0  0  0  0  0  2  0  0  0  0  0  0
  185.9330  179.4160  141.4310 N   0  0  0  0  0  2  0  0  0  0  0  0
  184.8620  178.9370  139.2740 C   0  0  0  0  0  0  0  0  0  0  0  0
  184.5000  180.1350  139.1640 O   0  0  0  0  0  1  0  0  0  0  0  0
  185.5730  178.5030  140.4300 N   0  0  0  0  0  2  0  0  0  0  0  0
  184.5520  178.0290  138.2710 O   0  0  0  0  0  0  0  0  0  0  0  0
  188.7110  176.9230  142.5030 N   0  0  0  0  0  2  0  0  0  0  0  0
  189.3700  177.8310  141.5750 C   0  0  0  0  0  2  0  0  0  0  0  0
  191.0630  177.5210  139.9070 O   0  0  0  0  0  1  0  0  0  0  0  0
  189.7980  177.0780  140.3240 C   0  0  2  0  0  3  0  0  0  0  0  0
  189.3410  179.8940  137.0780 F   0  0  0  0  0  0  0  0  0  0  0  0
  188.7660  177.2860  139.2160 C   0  0  2  0  0  3  0  0  0  0  0  0
  189.4110  177.5230  136.9520 C   0  0  2  0  0  3  0  0  0  0  0  0
  189.1310  176.4730  137.9870 C   0  0  0  0  0  2  0  0  0  0  0  0
  188.6620  178.6600  138.8790 O   0  0  0  0  0  0  0  0  0  0  0  0
  188.6730  178.7460  137.4740 C   0  0  0  0  0  0  0  0  0  0  0  0
  187.3600  178.8040  137.0270 F   0  0  0  0  0  0  0  0  0  0  0  0
  189.4560  177.7750  134.4410 O   0  0  0  0  0  0  0  0  0  0  0  0
  189.0490  177.0680  135.5680 C   0  0  0  0  0  0  0  0  0  0  0  0
  188.2990  176.0710  135.4290 O   0  0  0  0  0  1  0  0  0  0  0  0
  1  5  1  0  0  0  0
  1  7  2  0  0  0  0
  2  1  1  0  0  0  0
  3  2  2  0  0  0  0
  3  9  1  0  0  0  0
  4  7  1  0  0  0  0
  6  5  2  0  0  0  0
  8 10  2  0  0  0  0
  8  2  1  0  0  0  0
  9  4  2  0  0  0  0
 10  6  1  0  0  0  0
 11 10  1  0  0  0  0
 12 11  1  0  0  0  0
 13 12  1  0  0  0  0
 14 16  1  0  0  0  0
 15 14  1  0  0  0  0
 16 13  1  0  0  0  0
 17 14  2  0  0  0  0
 18  8  1  0  0  0  0
 19 18  1  0  0  0  0
 21 20  1  6  0  0  0
 21 19  1  0  0  0  0
 22 27  1  0  0  0  0
 23 21  1  1  0  0  0
 24 30  1  6  0  0  0
 24 27  1  0  0  0  0
 24 25  1  0  0  0  0
 25 23  1  0  0  0  0
 26 23  1  0  0  0  0
 27 26  1  0  0  0  0
 28 27  1  0  0  0  0
 29 30  2  0  0  0  0
 31 30  1  0  0  0  0
M  END
>  <MODEL>
3

>  <REMARK>
 VINA RESULT:      -8.3      1.595      2.149
  Name = 
  9 active torsions:
  status: ('A' for Active; 'I' for Inactive)
    1  A    between atoms: C_4  and  N_10
    2  A    between atoms: C_4  and  C_29
    3  A    between atoms: O_8  and  C_12
    4  A    between atoms: O_8  and  C_28
    5  A    between atoms: N_10  and  C_18
    6  A    between atoms: C_11  and  C_29
    7  A    between atoms: C_12  and  N_27
    8  A    between atoms: C_15  and  C_20
    9  A    between atoms: N_23  and  N_27
                            x       y       z     vdW  Elec       q    Type
                         _______ _______ _______ _____ _____    ______ ____

>  <TORSDO>
F 9

$$$$
=
 OpenBabel10222421483D

 31 33  0  0  1  0  0  0  0  0999 V2000
  189.8560  177.3260  146.5170 C   0  0  0  0  0  0  0  0  0  0  0  0
  188.6230  177.2430  145.8260 C   0  0  0  0  0  0  0  0  0  0  0  0
  187.4480  177.5050  146.5460 C   0  0  0  0  0  3  0  0  0  0  0  0
  188.7130  177.9280  148.5260 N   0  0  0  0  0  0  0  0  0  0  0  0
  191.0520  177.0710  145.8540 C   0  0  0  0  0  3  0  0  0  0  0  0
  191.0410  176.7120  144.5100 C   0  0  0  0  0  3  0  0  0  0  0  0
  189.8730  177.6750  147.8670 C   0  0  0  0  0  3  0  0  0  0  0  0
  188.6180  176.8900  144.4490 C   0  0  0  0  0  0  0  0  0  0  0  0
  187.5120  177.8490  147.8990 C   0  0  0  0  0  3  0  0  0  0  0  0
  189.8390  176.6160  143.8040 C   0  0  0  0  0  0  0  0  0  0  0  0
  189.8360  176.2500  142.4530 O   0  0  0  0  0  0  0  0  0  0  0  0
  190.7410  176.8000  141.5020 C   0  0  0  0  0  2  0  0  0  0  0  0
  190.2970  176.4760  140.1560 N   0  0  0  0  0  2  0  0  0  0  0  0
  189.0650  178.0300  138.7070 C   0  0  0  0  0  0  0  0  0  0  0  0
  188.0900  177.2390  138.6530 O   0  0  0  0  0  1  0  0  0  0  0  0
  190.2370  177.6790  139.4370 N   0  0  0  0  0  2  0  0  0  0  0  0
  189.0060  179.2440  138.0380 O   0  0  0  0  0  0  0  0  0  0  0  0
  187.4170  176.8220  143.6520 N   0  0  0  0  0  2  0  0  0  0  0  0
  186.5570  177.9330  143.2720 C   0  0  0  0  0  2  0  0  0  0  0  0
  187.9680  178.9920  141.6490 O   0  0  0  0  0  1  0  0  0  0  0  0
  186.7690  178.2780  141.8050 C   0  0  2  0  0  3  0  0  0  0  0  0
  184.2440  178.1080  138.3020 F   0  0  0  0  0  0  0  0  0  0  0  0
  185.5870  179.0970  141.2880 C   0  0  2  0  0  3  0  0  0  0  0  0
  183.5790  178.0660  140.5820 C   0  0  2  0  0  3  0  0  0  0  0  0
  184.2790  178.5430  141.8210 C   0  0  0  0  0  2  0  0  0  0  0  0
  185.5700  179.1130  139.8700 O   0  0  0  0  0  0  0  0  0  0  0  0
  184.2460  178.8590  139.4680 C   0  0  0  0  0  0  0  0  0  0  0  0
  183.6170  180.0730  139.2300 F   0  0  0  0  0  0  0  0  0  0  0  0
  181.2350  177.4750  139.8530 O   0  0  0  0  0  0  0  0  0  0  0  0
  182.0870  178.1930  140.6880 C   0  0  0  0  0  0  0  0  0  0  0  0
  181.5990  179.0230  141.4940 O   0  0  0  0  0  1  0  0  0  0  0  0
  1  7  2  0  0  0  0
  2  1  1  0  0  0  0
  2  3  2  0  0  0  0
  3  9  1  0  0  0  0
  5  1  1  0  0  0  0
  6  5  2  0  0  0  0
  7  4  1  0  0  0  0
  8  2  1  0  0  0  0
  9  4  2  0  0  0  0
 10  8  2  0  0  0  0
 10  6  1  0  0  0  0
 11 10  1  0  0  0  0
 12 11  1  0  0  0  0
 13 12  1  0  0  0  0
 14 16  1  0  0  0  0
 15 14  1  0  0  0  0
 16 13  1  0  0  0  0
 17 14  2  0  0  0  0
 18  8  1  0  0  0  0
 19 18  1  0  0  0  0
 21 20  1  1  0  0  0
 21 19  1  0  0  0  0
 22 27  1  0  0  0  0
 23 21  1  6  0  0  0
 23 25  1  0  0  0  0
 24 30  1  1  0  0  0
 24 25  1  0  0  0  0
 26 23  1  0  0  0  0
 27 26  1  0  0  0  0
 27 24  1  0  0  0  0
 28 27  1  0  0  0  0
 29 30  2  0  0  0  0
 30 31  1  0  0  0  0
M  END
>  <MODEL>
4

>  <REMARK>
 VINA RESULT:      -8.2      2.728      4.989
  Name = 
  9 active torsions:
  status: ('A' for Active; 'I' for Inactive)
    1  A    between atoms: C_4  and  N_10
    2  A    between atoms: C_4  and  C_29
    3  A    between atoms: O_8  and  C_12
    4  A    between atoms: O_8  and  C_28
    5  A    between atoms: N_10  and  C_18
    6  A    between atoms: C_11  and  C_29
    7  A    between atoms: C_12  and  N_27
    8  A    between atoms: C_15  and  C_20
    9  A    between atoms: N_23  and  N_27
                            x       y       z     vdW  Elec       q    Type
                         _______ _______ _______ _____ _____    ______ ____

>  <TORSDO>
F 9

$$$$
=
 OpenBabel10222421483D

 31 33  0  0  1  0  0  0  0  0999 V2000
  183.7070  178.8150  143.5070 C   0  0  0  0  0  0  0  0  0  0  0  0
  185.1150  178.7740  143.3630 C   0  0  0  0  0  0  0  0  0  0  0  0
  185.8940  178.7710  144.5300 C   0  0  0  0  0  3  0  0  0  0  0  0
  183.9290  178.8250  145.8850 N   0  0  0  0  0  0  0  0  0  0  0  0
  182.8860  178.8260  142.3850 C   0  0  0  0  0  3  0  0  0  0  0  0
  183.4460  178.8160  141.1110 C   0  0  0  0  0  3  0  0  0  0  0  0
  183.1390  178.8360  144.7810 C   0  0  0  0  0  3  0  0  0  0  0  0
  185.6830  178.7500  142.0610 C   0  0  0  0  0  0  0  0  0  0  0  0
  185.2830  178.7950  145.7870 C   0  0  0  0  0  3  0  0  0  0  0  0
  184.8330  178.7820  140.9390 C   0  0  0  0  0  0  0  0  0  0  0  0
  185.3890  178.7780  139.6550 O   0  0  0  0  0  0  0  0  0  0  0  0
  184.7150  178.2350  138.5230 C   0  0  0  0  0  2  0  0  0  0  0  0
  185.6840  177.8740  137.5010 N   0  0  0  0  0  2  0  0  0  0  0  0
  188.0670  178.3010  137.9160 C   0  0  0  0  0  0  0  0  0  0  0  0
  188.2660  177.0810  138.1450 O   0  0  0  0  0  1  0  0  0  0  0  0
  186.7560  178.7710  137.6100 N   0  0  0  0  0  2  0  0  0  0  0  0
  189.1250  179.1950  137.9760 O   0  0  0  0  0  0  0  0  0  0  0  0
  187.1010  178.6640  141.8150 N   0  0  0  0  0  2  0  0  0  0  0  0
  187.8910  177.4510  141.6640 C   0  0  0  0  0  2  0  0  0  0  0  0
  190.1250  177.5340  140.7980 O   0  0  0  0  0  1  0  0  0  0  0  0
  189.3560  177.7420  141.9540 C   0  0  2  0  0  3  0  0  0  0  0  0
  192.2180  178.1880  145.1610 F   0  0  0  0  0  0  0  0  0  0  0  0
  189.8480  176.8470  143.0910 C   0  0  2  0  0  3  0  0  0  0  0  0
  189.9190  177.6130  145.3280 C   0  0  2  0  0  3  0  0  0  0  0  0
  188.9760  177.0200  144.3220 C   0  0  0  0  0  2  0  0  0  0  0  0
  191.2000  177.1340  143.4060 O   0  0  0  0  0  0  0  0  0  0  0  0
  191.2930  177.2180  144.8070 C   0  0  0  0  0  0  0  0  0  0  0  0
  191.7120  175.9880  145.2950 F   0  0  0  0  0  0  0  0  0  0  0  0
  188.2860  176.9150  147.1220 O   0  0  0  0  0  0  0  0  0  0  0  0
  189.5930  177.1900  146.7310 C   0  0  0  0  0  0  0  0  0  0  0  0
  190.5090  177.1590  147.5890 O   0  0  0  0  0  1  0  0  0  0  0  0
  1  7  2  0  0  0  0
  2  1  1  0  0  0  0
  2  3  2  0  0  0  0
  3  9  1  0  0  0  0
  5  1  1  0  0  0  0
  6  5  2  0  0  0  0
  7  4  1  0  0  0  0
  8  2  1  0  0  0  0
  9  4  2  0  0  0  0
 10  6  1  0  0  0  0
 10  8  2  0  0  0  0
 11 10  1  0  0  0  0
 12 11  1  0  0  0  0
 13 16  1  0  0  0  0
 13 12  1  0  0  0  0
 14 17  2  0  0  0  0
 14 15  1  0  0  0  0
 16 14  1  0  0  0  0
 18  8  1  0  0  0  0
 19 18  1  0  0  0  0
 19 21  1  0  0  0  0
 21 20  1  6  0  0  0
 23 21  1  6  0  0  0
 23 26  1  0  0  0  0
 23 25  1  0  0  0  0
 24 30  1  1  0  0  0
 25 24  1  0  0  0  0
 26 27  1  0  0  0  0
 27 22  1  0  0  0  0
 27 28  1  0  0  0  0
 27 24  1  0  0  0  0
 30 29  2  0  0  0  0
 30 31  1  0  0  0  0
M  END
>  <MODEL>
5

>  <REMARK>
 VINA RESULT:      -8.1      2.925      5.483
  Name = 
  9 active torsions:
  status: ('A' for Active; 'I' for Inactive)
    1  A    between atoms: C_4  and  N_10
    2  A    between atoms: C_4  and  C_29
    3  A    between atoms: O_8  and  C_12
    4  A    between atoms: O_8  and  C_28
    5  A    between atoms: N_10  and  C_18
    6  A    between atoms: C_11  and  C_29
    7  A    between atoms: C_12  and  N_27
    8  A    between atoms: C_15  and  C_20
    9  A    between atoms: N_23  and  N_27
                            x       y       z     vdW  Elec       q    Type
                         _______ _______ _______ _____ _____    ______ ____

>  <TORSDO>
F 9

$$$$
=
 OpenBabel10222421483D

 31 33  0  0  1  0  0  0  0  0999 V2000
  189.7390  177.0920  146.8160 C   0  0  0  0  0  0  0  0  0  0  0  0
  189.6150  177.0690  145.4060 C   0  0  0  0  0  0  0  0  0  0  0  0
  190.7260  176.6560  144.6550 C   0  0  0  0  0  3  0  0  0  0  0  0
  191.9860  176.2950  146.6510 N   0  0  0  0  0  0  0  0  0  0  0  0
  188.6720  177.4970  147.6100 C   0  0  0  0  0  3  0  0  0  0  0  0
  187.4790  177.9040  147.0190 C   0  0  0  0  0  3  0  0  0  0  0  0
  190.9360  176.6950  147.4140 C   0  0  0  0  0  3  0  0  0  0  0  0
  188.3900  177.4700  144.8070 C   0  0  0  0  0  0  0  0  0  0  0  0
  191.9070  176.2690  145.2960 C   0  0  0  0  0  3  0  0  0  0  0  0
  187.3300  177.8980  145.6300 C   0  0  0  0  0  0  0  0  0  0  0  0
  186.1290  178.3120  145.0430 O   0  0  0  0  0  0  0  0  0  0  0  0
  185.2240  179.2040  145.6850 C   0  0  0  0  0  2  0  0  0  0  0  0
  183.8550  178.8110  145.3920 N   0  0  0  0  0  2  0  0  0  0  0  0
  182.4360  178.7870  143.3880 C   0  0  0  0  0  0  0  0  0  0  0  0
  181.3990  178.7870  144.0970 O   0  0  0  0  0  1  0  0  0  0  0  0
  183.7250  178.7680  143.9970 N   0  0  0  0  0  2  0  0  0  0  0  0
  182.3250  178.7890  142.0050 O   0  0  0  0  0  0  0  0  0  0  0  0
  188.1550  177.4400  143.3850 N   0  0  0  0  0  2  0  0  0  0  0  0
  188.9720  178.0560  142.3500 C   0  0  0  0  0  2  0  0  0  0  0  0
  186.8040  178.9640  141.8790 O   0  0  0  0  0  1  0  0  0  0  0  0
  188.0850  178.7650  141.3380 C   0  0  2  0  0  3  0  0  0  0  0  0
  189.3570  179.3510  137.2500 F   0  0  0  0  0  0  0  0  0  0  0  0
  188.0000  177.9400  140.0540 C   0  0  2  0  0  3  0  0  0  0  0  0
  189.9020  177.5510  138.7030 C   0  0  2  0  0  3  0  0  0  0  0  0
  189.2060  177.0280  139.9250 C   0  0  0  0  0  2  0  0  0  0  0  0
  187.9020  178.7850  138.9200 O   0  0  0  0  0  0  0  0  0  0  0  0
  188.8030  178.2950  137.9570 C   0  0  0  0  0  0  0  0  0  0  0  0
  188.1070  177.4740  137.0810 F   0  0  0  0  0  0  0  0  0  0  0  0
  190.8720  176.5900  136.5800 O   0  0  0  0  0  0  0  0  0  0  0  0
  190.6060  176.4670  137.9400 C   0  0  0  0  0  0  0  0  0  0  0  0
  190.8940  175.3950  138.5270 O   0  0  0  0  0  1  0  0  0  0  0  0
  1  7  1  0  0  0  0
  1  5  1  0  0  0  0
  2  1  2  0  0  0  0
  3  9  2  0  0  0  0
  3  2  1  0  0  0  0
  4  7  2  0  0  0  0
  6  5  2  0  0  0  0
  8  2  1  0  0  0  0
  8 10  2  0  0  0  0
  9  4  1  0  0  0  0
 10  6  1  0  0  0  0
 11 10  1  0  0  0  0
 11 12  1  0  0  0  0
 13 12  1  0  0  0  0
 14 16  1  0  0  0  0
 14 15  1  0  0  0  0
 16 13  1  0  0  0  0
 17 14  2  0  0  0  0
 18  8  1  0  0  0  0
 19 18  1  0  0  0  0
 21 20  1  1  0  0  0
 21 19  1  0  0  0  0
 22 27  1  0  0  0  0
 23 21  1  1  0  0  0
 24 30  1  6  0  0  0
 24 25  1  0  0  0  0
 25 23  1  0  0  0  0
 26 23  1  0  0  0  0
 27 24  1  0  0  0  0
 27 26  1  0  0  0  0
 28 27  1  0  0  0  0
 29 30  2  0  0  0  0
 30 31  1  0  0  0  0
M  END
>  <MODEL>
6

>  <REMARK>
 VINA RESULT:      -8.1      2.229      3.290
  Name = 
  9 active torsions:
  status: ('A' for Active; 'I' for Inactive)
    1  A    between atoms: C_4  and  N_10
    2  A    between atoms: C_4  and  C_29
    3  A    between atoms: O_8  and  C_12
    4  A    between atoms: O_8  and  C_28
    5  A    between atoms: N_10  and  C_18
    6  A    between atoms: C_11  and  C_29
    7  A    between atoms: C_12  and  N_27
    8  A    between atoms: C_15  and  C_20
    9  A    between atoms: N_23  and  N_27
                            x       y       z     vdW  Elec       q    Type
                         _______ _______ _______ _____ _____    ______ ____

>  <TORSDO>
F 9

$$$$
=
 OpenBabel10222421483D

 31 33  0  0  1  0  0  0  0  0999 V2000
  187.1490  178.0720  146.7690 C   0  0  0  0  0  0  0  0  0  0  0  0
  187.8820  177.5710  145.6670 C   0  0  0  0  0  0  0  0  0  0  0  0
  189.1920  177.1240  145.8970 C   0  0  0  0  0  3  0  0  0  0  0  0
  188.9990  177.6470  148.2190 N   0  0  0  0  0  0  0  0  0  0  0  0
  185.8480  178.5330  146.5980 C   0  0  0  0  0  3  0  0  0  0  0  0
  185.2650  178.5230  145.3340 C   0  0  0  0  0  3  0  0  0  0  0  0
  187.7300  178.0950  148.0370 C   0  0  0  0  0  3  0  0  0  0  0  0
  187.2780  177.5480  144.3800 C   0  0  0  0  0  0  0  0  0  0  0  0
  189.7360  177.1680  147.1840 C   0  0  0  0  0  3  0  0  0  0  0  0
  185.9670  178.0390  144.2260 C   0  0  0  0  0  0  0  0  0  0  0  0
  185.3770  178.0360  142.9570 O   0  0  0  0  0  0  0  0  0  0  0  0
  184.3060  178.9050  142.6020 C   0  0  0  0  0  2  0  0  0  0  0  0
  183.2050  178.1300  142.0530 N   0  0  0  0  0  2  0  0  0  0  0  0
  181.2050  179.3480  142.7930 C   0  0  0  0  0  0  0  0  0  0  0  0
  181.2580  178.7910  143.9190 O   0  0  0  0  0  1  0  0  0  0  0  0
  182.1600  179.0250  141.7850 N   0  0  0  0  0  2  0  0  0  0  0  0
  180.2030  180.2690  142.5260 O   0  0  0  0  0  0  0  0  0  0  0  0
  187.9290  177.0170  143.2080 N   0  0  0  0  0  2  0  0  0  0  0  0
  188.9040  177.6950  142.3670 C   0  0  0  0  0  2  0  0  0  0  0  0
  190.9600  176.5270  142.7640 O   0  0  0  0  0  1  0  0  0  0  0  0
  189.9190  176.6940  141.8350 C   0  0  2  0  0  3  0  0  0  0  0  0
  189.7420  175.2480  137.7670 F   0  0  0  0  0  0  0  0  0  0  0  0
  190.4720  177.1770  140.4950 C   0  0  2  0  0  3  0  0  0  0  0  0
  189.0910  177.3820  138.5860 C   0  0  2  0  0  3  0  0  0  0  0  0
  189.4950  178.1260  139.8250 C   0  0  0  0  0  2  0  0  0  0  0  0
  190.7510  176.0800  139.6420 O   0  0  0  0  0  0  0  0  0  0  0  0
  190.2300  176.3950  138.3740 C   0  0  0  0  0  0  0  0  0  0  0  0
  191.2510  176.9230  137.5970 F   0  0  0  0  0  0  0  0  0  0  0  0
  188.3850  177.8170  136.2010 O   0  0  0  0  0  0  0  0  0  0  0  0
  188.7880  178.3040  137.4410 C   0  0  0  0  0  0  0  0  0  0  0  0
  188.9770  179.5370  137.5830 O   0  0  0  0  0  1  0  0  0  0  0  0
  1  7  2  0  0  0  0
  2  3  2  0  0  0  0
  2  1  1  0  0  0  0
  3  9  1  0  0  0  0
  5  1  1  0  0  0  0
  6  5  2  0  0  0  0
  7  4  1  0  0  0  0
  8  2  1  0  0  0  0
  9  4  2  0  0  0  0
 10  8  2  0  0  0  0
 10  6  1  0  0  0  0
 11 10  1  0  0  0  0
 12 11  1  0  0  0  0
 13 12  1  0  0  0  0
 14 15  1  0  0  0  0
 16 13  1  0  0  0  0
 16 14  1  0  0  0  0
 17 14  2  0  0  0  0
 18  8  1  0  0  0  0
 19 18  1  0  0  0  0
 21 19  1  0  0  0  0
 21 20  1  1  0  0  0
 22 27  1  0  0  0  0
 23 21  1  1  0  0  0
 24 30  1  6  0  0  0
 24 25  1  0  0  0  0
 25 23  1  0  0  0  0
 26 23  1  0  0  0  0
 27 24  1  0  0  0  0
 27 26  1  0  0  0  0
 28 27  1  0  0  0  0
 29 30  2  0  0  0  0
 30 31  1  0  0  0  0
M  END
>  <MODEL>
7

>  <REMARK>
 VINA RESULT:      -8.0      1.646      2.132
  Name = 
  9 active torsions:
  status: ('A' for Active; 'I' for Inactive)
    1  A    between atoms: C_4  and  N_10
    2  A    between atoms: C_4  and  C_29
    3  A    between atoms: O_8  and  C_12
    4  A    between atoms: O_8  and  C_28
    5  A    between atoms: N_10  and  C_18
    6  A    between atoms: C_11  and  C_29
    7  A    between atoms: C_12  and  N_27
    8  A    between atoms: C_15  and  C_20
    9  A    between atoms: N_23  and  N_27
                            x       y       z     vdW  Elec       q    Type
                         _______ _______ _______ _____ _____    ______ ____

>  <TORSDO>
F 9

$$$$
=
 OpenBabel10222421483D

 31 33  0  0  1  0  0  0  0  0999 V2000
  189.6860  177.3130  147.3260 C   0  0  0  0  0  0  0  0  0  0  0  0
  189.6050  177.1650  145.9200 C   0  0  0  0  0  0  0  0  0  0  0  0
  190.7500  176.7230  145.2390 C   0  0  0  0  0  3  0  0  0  0  0  0
  191.9590  176.5760  147.2930 N   0  0  0  0  0  0  0  0  0  0  0  0
  188.5850  177.7530  148.0510 C   0  0  0  0  0  3  0  0  0  0  0  0
  187.3990  178.0700  147.3950 C   0  0  0  0  0  3  0  0  0  0  0  0
  190.8750  177.0080  147.9890 C   0  0  0  0  0  3  0  0  0  0  0  0
  188.3880  177.4750  145.2550 C   0  0  0  0  0  0  0  0  0  0  0  0
  191.9210  176.4300  145.9440 C   0  0  0  0  0  3  0  0  0  0  0  0
  187.2910  177.9380  146.0080 C   0  0  0  0  0  0  0  0  0  0  0  0
  186.0980  178.2630  145.3540 O   0  0  0  0  0  0  0  0  0  0  0  0
  184.8830  178.5260  146.0500 C   0  0  0  0  0  2  0  0  0  0  0  0
  184.0160  179.3560  145.2290 N   0  0  0  0  0  2  0  0  0  0  0  0
  184.2010  178.7400  142.8590 C   0  0  0  0  0  0  0  0  0  0  0  0
  185.0720  179.6270  142.6750 O   0  0  0  0  0  1  0  0  0  0  0  0
  183.6020  178.5740  144.1410 N   0  0  0  0  0  2  0  0  0  0  0  0
  183.8110  177.9280  141.8030 O   0  0  0  0  0  0  0  0  0  0  0  0
  188.1960  177.3140  143.8350 N   0  0  0  0  0  2  0  0  0  0  0  0
  189.0690  177.7970  142.7750 C   0  0  0  0  0  2  0  0  0  0  0  0
  190.0810  175.6600  142.3830 O   0  0  0  0  0  1  0  0  0  0  0  0
  189.3380  176.6840  141.7730 C   0  0  2  0  0  3  0  0  0  0  0  0
  190.0450  175.3290  137.7310 F   0  0  0  0  0  0  0  0  0  0  0  0
  190.0900  177.2440  140.5650 C   0  0  2  0  0  3  0  0  0  0  0  0
  189.0770  177.3830  138.4320 C   0  0  2  0  0  3  0  0  0  0  0  0
  189.1790  178.1260  139.7320 C   0  0  0  0  0  2  0  0  0  0  0  0
  190.6130  176.1930  139.7700 O   0  0  0  0  0  0  0  0  0  0  0  0
  190.3140  176.4960  138.4290 C   0  0  0  0  0  0  0  0  0  0  0  0
  191.4150  177.1240  137.8630 F   0  0  0  0  0  0  0  0  0  0  0  0
  188.9310  179.6890  137.4160 O   0  0  0  0  0  1  0  0  0  0  0  0
  188.9180  178.3060  137.2590 C   0  0  0  0  0  0  0  0  0  0  0  0
  188.6910  177.8200  136.1250 O   0  0  0  0  0  0  0  0  0  0  0  0
  1  7  2  0  0  0  0
  1  5  1  0  0  0  0
  2  1  1  0  0  0  0
  3  2  2  0  0  0  0
  3  9  1  0  0  0  0
  4  7  1  0  0  0  0
  6  5  2  0  0  0  0
  8  2  1  0  0  0  0
  8 10  2  0  0  0  0
  9  4  2  0  0  0  0
 10  6  1  0  0  0  0
 11 10  1  0  0  0  0
 11 12  1  0  0  0  0
 13 12  1  0  0  0  0
 14 16  1  0  0  0  0
 15 14  1  0  0  0  0
 16 13  1  0  0  0  0
 17 14  2  0  0  0  0
 18  8  1  0  0  0  0
 19 18  1  0  0  0  0
 21 20  1  1  0  0  0
 21 19  1  0  0  0  0
 22 27  1  0  0  0  0
 23 21  1  1  0  0  0
 24 30  1  6  0  0  0
 24 25  1  0  0  0  0
 25 23  1  0  0  0  0
 26 23  1  0  0  0  0
 27 24  1  0  0  0  0
 27 26  1  0  0  0  0
 28 27  1  0  0  0  0
 30 29  1  0  0  0  0
 31 30  2  0  0  0  0
M  END
>  <MODEL>
8

>  <REMARK>
 VINA RESULT:      -8.0      1.813      2.357
  Name = 
  9 active torsions:
  status: ('A' for Active; 'I' for Inactive)
    1  A    between atoms: C_4  and  N_10
    2  A    between atoms: C_4  and  C_29
    3  A    between atoms: O_8  and  C_12
    4  A    between atoms: O_8  and  C_28
    5  A    between atoms: N_10  and  C_18
    6  A    between atoms: C_11  and  C_29
    7  A    between atoms: C_12  and  N_27
    8  A    between atoms: C_15  and  C_20
    9  A    between atoms: N_23  and  N_27
                            x       y       z     vdW  Elec       q    Type
                         _______ _______ _______ _____ _____    ______ ____

>  <TORSDO>
F 9

$$$$
=
 OpenBabel10222421483D

 31 33  0  0  1  0  0  0  0  0999 V2000
  189.4980  177.2530  146.4180 C   0  0  0  0  0  0  0  0  0  0  0  0
  188.6680  177.3650  145.2770 C   0  0  0  0  0  0  0  0  0  0  0  0
  187.3170  177.6880  145.4770 C   0  0  0  0  0  3  0  0  0  0  0  0
  187.6550  177.7950  147.8380 N   0  0  0  0  0  0  0  0  0  0  0  0
  190.8430  176.9290  146.2800 C   0  0  0  0  0  3  0  0  0  0  0  0
  191.3770  176.6930  145.0170 C   0  0  0  0  0  3  0  0  0  0  0  0
  188.9660  177.4770  147.6890 C   0  0  0  0  0  3  0  0  0  0  0  0
  189.2200  177.1380  143.9880 C   0  0  0  0  0  0  0  0  0  0  0  0
  186.8260  177.9030  146.7680 C   0  0  0  0  0  3  0  0  0  0  0  0
  190.5800  176.7910  143.8730 C   0  0  0  0  0  0  0  0  0  0  0  0
  191.1230  176.5480  142.6060 O   0  0  0  0  0  0  0  0  0  0  0  0
  191.8260  177.5390  141.8640 C   0  0  0  0  0  2  0  0  0  0  0  0
  191.4750  177.4400  140.4570 N   0  0  0  0  0  2  0  0  0  0  0  0
  192.6040  176.7320  138.3940 C   0  0  0  0  0  0  0  0  0  0  0  0
  191.4970  176.5630  137.8220 O   0  0  0  0  0  1  0  0  0  0  0  0
  192.6540  177.1510  139.7550 N   0  0  0  0  0  2  0  0  0  0  0  0
  193.7810  176.4920  137.7000 O   0  0  0  0  0  0  0  0  0  0  0  0
  188.4650  177.2710  142.7660 N   0  0  0  0  0  2  0  0  0  0  0  0
  188.2350  178.4930  142.0090 C   0  0  0  0  0  2  0  0  0  0  0  0
  188.0450  178.5360  139.6200 O   0  0  0  0  0  1  0  0  0  0  0  0
  187.3610  178.2000  140.7990 C   0  0  2  0  0  3  0  0  0  0  0  0
  183.1670  177.1720  140.6280 F   0  0  0  0  0  0  0  0  0  0  0  0
  186.0540  178.9860  140.9010 C   0  0  2  0  0  3  0  0  0  0  0  0
  184.3170  178.3180  142.3620 C   0  0  2  0  0  3  0  0  0  0  0  0
  185.6040  179.0900  142.3470 C   0  0  0  0  0  2  0  0  0  0  0  0
  185.0410  178.3780  140.1170 O   0  0  0  0  0  0  0  0  0  0  0  0
  183.8760  178.3300  140.9060 C   0  0  0  0  0  0  0  0  0  0  0  0
  183.0910  179.4320  140.5980 F   0  0  0  0  0  0  0  0  0  0  0  0
  183.7430  179.2910  144.6200 O   0  0  0  0  0  1  0  0  0  0  0  0
  183.3370  178.8660  143.3580 C   0  0  0  0  0  0  0  0  0  0  0  0
  182.1140  178.8700  143.0740 O   0  0  0  0  0  0  0  0  0  0  0  0
  1  7  2  0  0  0  0
  2  3  2  0  0  0  0
  2  1  1  0  0  0  0
  3  9  1  0  0  0  0
  5  1  1  0  0  0  0
  6  5  2  0  0  0  0
  7  4  1  0  0  0  0
  8  2  1  0  0  0  0
  9  4  2  0  0  0  0
 10  8  2  0  0  0  0
 10  6  1  0  0  0  0
 11 10  1  0  0  0  0
 12 11  1  0  0  0  0
 13 12  1  0  0  0  0
 14 16  1  0  0  0  0
 15 14  1  0  0  0  0
 16 13  1  0  0  0  0
 17 14  2  0  0  0  0
 18  8  1  0  0  0  0
 19 18  1  0  0  0  0
 21 20  1  6  0  0  0
 21 19  1  0  0  0  0
 22 27  1  0  0  0  0
 23 21  1  1  0  0  0
 23 25  1  0  0  0  0
 24 30  1  1  0  0  0
 25 24  1  0  0  0  0
 26 23  1  0  0  0  0
 26 27  1  0  0  0  0
 27 24  1  0  0  0  0
 28 27  1  0  0  0  0
 30 29  1  0  0  0  0
 31 30  2  0  0  0  0
M  END
>  <MODEL>
9

>  <REMARK>
 VINA RESULT:      -7.9      2.982      5.828
  Name = 
  9 active torsions:
  status: ('A' for Active; 'I' for Inactive)
    1  A    between atoms: C_4  and  N_10
    2  A    between atoms: C_4  and  C_29
    3  A    between atoms: O_8  and  C_12
    4  A    between atoms: O_8  and  C_28
    5  A    between atoms: N_10  and  C_18
    6  A    between atoms: C_11  and  C_29
    7  A    between atoms: C_12  and  N_27
    8  A    between atoms: C_15  and  C_20
    9  A    between atoms: N_23  and  N_27
                            x       y       z     vdW  Elec       q    Type
                         _______ _______ _______ _____ _____    ______ ____

>  <TORSDO>
F 9

$$$$
