=
 OpenBabel10232412293D

 29 30  0  0  1  0  0  0  0  0999 V2000
  188.2060  177.0710  142.6510 C   0  0  2  0  0  3  0  0  0  0  0  0
  184.0280  178.7890  144.7520 C   0  0  0  0  0  0  0  0  0  0  0  0
  183.4290  178.8450  143.4910 C   0  0  0  0  0  3  0  0  0  0  0  0
  184.1360  178.4460  142.3550 C   0  0  0  0  0  3  0  0  0  0  0  0
  186.0740  177.9270  143.7290 C   0  0  0  0  0  0  0  0  0  0  0  0
  185.4510  177.9890  142.4720 C   0  0  0  0  0  3  0  0  0  0  0  0
  187.2760  177.8170  146.2660 C   0  0  0  0  0  3  0  0  0  0  0  0
  187.9920  177.4260  145.1340 C   0  0  0  0  0  3  0  0  0  0  0  0
  185.3500  178.3300  144.8820 C   0  0  0  0  0  0  0  0  0  0  0  0
  185.9610  178.2680  146.1410 C   0  0  0  0  0  3  0  0  0  0  0  0
  187.4040  177.4740  143.8600 C   0  0  0  0  0  0  0  0  0  0  0  0
  183.3010  179.1920  145.8680 O   0  0  0  0  0  1  0  0  0  0  0  0
  189.2800  176.0560  143.0250 C   0  0  0  0  0  2  0  0  0  0  0  0
  190.7580  176.0590  141.1630 O   0  0  0  0  0  0  0  0  0  0  0  0
  191.6040  177.0960  143.0570 N   0  0  0  0  0  2  0  0  0  0  0  0
  190.5770  176.3900  142.3620 C   0  0  0  0  0  0  0  0  0  0  0  0
  191.4740  177.4980  144.4510 C   0  0  0  0  0  2  0  0  0  0  0  0
  191.7340  176.3090  145.3590 C   0  0  0  0  0  2  0  0  0  0  0  0
  191.3440  176.6450  146.7870 C   0  0  0  0  0  1  0  0  0  0  0  0
  188.8190  178.2860  141.9570 C   0  0  0  0  0  2  0  0  0  0  0  0
  188.2110  178.4880  140.5790 C   0  0  0  0  0  2  0  0  0  0  0  0
  189.3070  178.6470  139.5400 C   0  0  0  0  0  2  0  0  0  0  0  0
  188.7770  178.2850  138.1640 C   0  0  0  0  0  2  0  0  0  0  0  0
  187.3830  177.7050  138.2850 C   0  0  0  0  0  2  0  0  0  0  0  0
  186.4290  178.5940  137.6460 N   0  0  0  0  0  2  0  0  0  0  0  0
  185.1470  177.9110  137.6630 C   0  0  0  0  0  2  0  0  0  0  0  0
  183.2070  177.9770  139.0420 O   0  0  0  0  0  0  0  0  0  0  0  0
  184.2360  178.5770  138.6300 C   0  0  0  0  0  0  0  0  0  0  0  0
  184.5350  179.8850  139.1080 N   0  0  0  0  0  1  0  0  0  0  0  0
  1 20  1  1  0  0  0
  1 13  1  0  0  0  0
  1 11  1  0  0  0  0
  2  9  1  0  0  0  0
  2 12  1  0  0  0  0
  3  2  2  0  0  0  0
  4  6  2  0  0  0  0
  4  3  1  0  0  0  0
  5 11  2  0  0  0  0
  5  9  1  0  0  0  0
  6  5  1  0  0  0  0
  8  7  2  0  0  0  0
  9 10  2  0  0  0  0
 10  7  1  0  0  0  0
 11  8  1  0  0  0  0
 14 16  2  0  0  0  0
 15 17  1  0  0  0  0
 16 13  1  0  0  0  0
 16 15  1  0  0  0  0
 17 18  1  0  0  0  0
 18 19  1  0  0  0  0
 21 20  1  0  0  0  0
 22 21  1  0  0  0  0
 23 24  1  0  0  0  0
 23 22  1  0  0  0  0
 25 26  1  0  0  0  0
 25 24  1  0  0  0  0
 26 28  1  0  0  0  0
 28 27  2  0  0  0  0
 28 29  1  0  0  0  0
M  END
>  <MODEL>
1

>  <REMARK>
 VINA RESULT:      -7.9      0.000      0.000
  Name = 
  13 active torsions:
  status: ('A' for Active; 'I' for Inactive)
    1  A    between atoms: C_1  and  C_14
    2  A    between atoms: C_1  and  C_18
    3  A    between atoms: C_5  and  C_22
    4  A    between atoms: C_6  and  C_24
    5  A    between atoms: C_6  and  C_26
    6  A    between atoms: C_10  and  N_19
    7  A    between atoms: C_10  and  C_27
    8  A    between atoms: N_11  and  C_22
    9  A    between atoms: C_14  and  C_27
   10  A    between atoms: C_15  and  C_25
   11  A    between atoms: C_18  and  C_24
   12  A    between atoms: N_19  and  C_25
   13  A    between atoms: C_21  and  C_24
                            x       y       z     vdW  Elec       q    Type
                         _______ _______ _______ _____ _____    ______ ____

>  <TORSDO>
F 13

$$$$
=
 OpenBabel10232412293D

 29 30  0  0  1  0  0  0  0  0999 V2000
  188.4250  177.0300  144.2740 C   0  0  2  0  0  3  0  0  0  0  0  0
  183.8860  179.0870  144.3250 C   0  0  0  0  0  0  0  0  0  0  0  0
  183.7820  178.7970  145.6880 C   0  0  0  0  0  3  0  0  0  0  0  0
  184.8320  178.1670  146.3590 C   0  0  0  0  0  3  0  0  0  0  0  0
  186.1210  178.0960  144.2990 C   0  0  0  0  0  0  0  0  0  0  0  0
  185.9960  177.8190  145.6690 C   0  0  0  0  0  3  0  0  0  0  0  0
  186.3270  178.6790  141.5580 C   0  0  0  0  0  3  0  0  0  0  0  0
  187.3780  178.0400  142.2190 C   0  0  0  0  0  3  0  0  0  0  0  0
  185.0530  178.7420  143.6220 C   0  0  0  0  0  0  0  0  0  0  0  0
  185.1700  179.0280  142.2560 C   0  0  0  0  0  3  0  0  0  0  0  0
  187.2890  177.7440  143.5890 C   0  0  0  0  0  0  0  0  0  0  0  0
  182.8260  179.7150  143.6810 O   0  0  0  0  0  1  0  0  0  0  0  0
  189.3240  178.0190  145.0060 C   0  0  0  0  0  2  0  0  0  0  0  0
  188.4590  178.0060  147.2220 O   0  0  0  0  0  0  0  0  0  0  0  0
  190.5270  176.9790  146.9960 N   0  0  0  0  0  2  0  0  0  0  0  0
  189.4050  177.6820  146.4610 C   0  0  0  0  0  0  0  0  0  0  0  0
  191.6670  176.5840  146.1810 C   0  0  0  0  0  2  0  0  0  0  0  0
  192.3870  175.4150  146.8280 C   0  0  0  0  0  2  0  0  0  0  0  0
  192.7390  175.7470  148.2670 C   0  0  0  0  0  1  0  0  0  0  0  0
  189.2280  176.1850  143.2880 C   0  0  0  0  0  2  0  0  0  0  0  0
  190.6510  176.7040  143.1600 C   0  0  0  0  0  2  0  0  0  0  0  0
  190.7510  177.6800  142.0000 C   0  0  0  0  0  2  0  0  0  0  0  0
  191.6430  177.1070  140.9140 C   0  0  0  0  0  2  0  0  0  0  0  0
  190.8650  176.9870  139.6190 C   0  0  0  0  0  2  0  0  0  0  0  0
  189.6410  177.7610  139.7130 N   0  0  0  0  0  2  0  0  0  0  0  0
  188.7660  177.2860  138.6540 C   0  0  0  0  0  2  0  0  0  0  0  0
  186.8600  178.5390  137.9720 O   0  0  0  0  0  0  0  0  0  0  0  0
  188.1160  178.4430  137.9830 C   0  0  0  0  0  0  0  0  0  0  0  0
  188.9120  179.4510  137.3710 N   0  0  0  0  0  1  0  0  0  0  0  0
  1 20  1  6  0  0  0
  1 13  1  0  0  0  0
  2  3  1  0  0  0  0
  3  4  2  0  0  0  0
  5  6  2  0  0  0  0
  6  4  1  0  0  0  0
  7  8  1  0  0  0  0
  7 10  2  0  0  0  0
  8 11  2  0  0  0  0
  9  5  1  0  0  0  0
  9  2  2  0  0  0  0
 10  9  1  0  0  0  0
 11  1  1  0  0  0  0
 11  5  1  0  0  0  0
 12  2  1  0  0  0  0
 13 16  1  0  0  0  0
 16 15  1  0  0  0  0
 16 14  2  0  0  0  0
 17 18  1  0  0  0  0
 17 15  1  0  0  0  0
 18 19  1  0  0  0  0
 21 20  1  0  0  0  0
 22 21  1  0  0  0  0
 23 22  1  0  0  0  0
 24 25  1  0  0  0  0
 24 23  1  0  0  0  0
 26 25  1  0  0  0  0
 27 28  2  0  0  0  0
 28 26  1  0  0  0  0
 29 28  1  0  0  0  0
M  END
>  <MODEL>
2

>  <REMARK>
 VINA RESULT:      -7.6      2.234      3.422
  Name = 
  13 active torsions:
  status: ('A' for Active; 'I' for Inactive)
    1  A    between atoms: C_1  and  C_14
    2  A    between atoms: C_1  and  C_18
    3  A    between atoms: C_5  and  C_22
    4  A    between atoms: C_6  and  C_24
    5  A    between atoms: C_6  and  C_26
    6  A    between atoms: C_10  and  N_19
    7  A    between atoms: C_10  and  C_27
    8  A    between atoms: N_11  and  C_22
    9  A    between atoms: C_14  and  C_27
   10  A    between atoms: C_15  and  C_25
   11  A    between atoms: C_18  and  C_24
   12  A    between atoms: N_19  and  C_25
   13  A    between atoms: C_21  and  C_24
                            x       y       z     vdW  Elec       q    Type
                         _______ _______ _______ _____ _____    ______ ____

>  <TORSDO>
F 13

$$$$
=
 OpenBabel10232412293D

 29 30  0  0  1  0  0  0  0  0999 V2000
  188.2610  177.1860  142.8810 C   0  0  2  0  0  3  0  0  0  0  0  0
  183.9120  178.8320  144.6730 C   0  0  0  0  0  0  0  0  0  0  0  0
  183.4070  178.8840  143.3710 C   0  0  0  0  0  3  0  0  0  0  0  0
  184.2020  178.4990  142.2900 C   0  0  0  0  0  3  0  0  0  0  0  0
  186.0420  178.0060  143.8010 C   0  0  0  0  0  0  0  0  0  0  0  0
  185.5120  178.0620  142.5030 C   0  0  0  0  0  3  0  0  0  0  0  0
  187.0550  177.9060  146.4200 C   0  0  0  0  0  3  0  0  0  0  0  0
  187.8590  177.5290  145.3430 C   0  0  0  0  0  3  0  0  0  0  0  0
  185.2290  178.3930  144.8990 C   0  0  0  0  0  0  0  0  0  0  0  0
  185.7460  178.3360  146.1990 C   0  0  0  0  0  3  0  0  0  0  0  0
  187.3650  177.5730  144.0290 C   0  0  0  0  0  0  0  0  0  0  0  0
  183.1000  179.2210  145.7330 O   0  0  0  0  0  1  0  0  0  0  0  0
  189.1790  176.0350  143.2740 C   0  0  0  0  0  2  0  0  0  0  0  0
  190.7780  175.9160  141.5170 O   0  0  0  0  0  0  0  0  0  0  0  0
  191.5960  176.8110  143.4960 N   0  0  0  0  0  2  0  0  0  0  0  0
  190.5490  176.2380  142.7110 C   0  0  0  0  0  0  0  0  0  0  0  0
  191.4110  177.1930  144.8880 C   0  0  0  0  0  2  0  0  0  0  0  0
  191.8760  176.0710  145.8000 C   0  0  0  0  0  2  0  0  0  0  0  0
  191.4410  176.3420  147.2280 C   0  0  0  0  0  1  0  0  0  0  0  0
  189.0650  178.3810  142.3740 C   0  0  0  0  0  2  0  0  0  0  0  0
  188.4830  178.9160  141.0750 C   0  0  0  0  0  2  0  0  0  0  0  0
  188.3000  177.7870  140.0770 C   0  0  0  0  0  2  0  0  0  0  0  0
  189.0830  178.0800  138.8100 C   0  0  0  0  0  2  0  0  0  0  0  0
  188.6280  177.1560  137.6980 C   0  0  0  0  0  2  0  0  0  0  0  0
  189.7730  176.7510  136.9030 N   0  0  0  0  0  2  0  0  0  0  0  0
  190.8960  176.6360  137.8190 C   0  0  0  0  0  2  0  0  0  0  0  0
  192.6700  175.0530  137.9300 O   0  0  0  0  0  0  0  0  0  0  0  0
  191.4350  175.2510  137.7800 C   0  0  0  0  0  0  0  0  0  0  0  0
  190.5540  174.1480  137.5960 N   0  0  0  0  0  1  0  0  0  0  0  0
  1 20  1  1  0  0  0
  1 13  1  0  0  0  0
  1 11  1  0  0  0  0
  2  9  1  0  0  0  0
  2 12  1  0  0  0  0
  3  2  2  0  0  0  0
  4  6  2  0  0  0  0
  4  3  1  0  0  0  0
  5 11  2  0  0  0  0
  5  9  1  0  0  0  0
  6  5  1  0  0  0  0
  8  7  2  0  0  0  0
  9 10  2  0  0  0  0
 10  7  1  0  0  0  0
 11  8  1  0  0  0  0
 14 16  2  0  0  0  0
 15 17  1  0  0  0  0
 16 13  1  0  0  0  0
 16 15  1  0  0  0  0
 17 18  1  0  0  0  0
 18 19  1  0  0  0  0
 21 20  1  0  0  0  0
 22 21  1  0  0  0  0
 23 22  1  0  0  0  0
 24 23  1  0  0  0  0
 25 24  1  0  0  0  0
 25 26  1  0  0  0  0
 28 26  1  0  0  0  0
 28 27  2  0  0  0  0
 29 28  1  0  0  0  0
M  END
>  <MODEL>
3

>  <REMARK>
 VINA RESULT:      -7.6      2.166      3.171
  Name = 
  13 active torsions:
  status: ('A' for Active; 'I' for Inactive)
    1  A    between atoms: C_1  and  C_14
    2  A    between atoms: C_1  and  C_18
    3  A    between atoms: C_5  and  C_22
    4  A    between atoms: C_6  and  C_24
    5  A    between atoms: C_6  and  C_26
    6  A    between atoms: C_10  and  N_19
    7  A    between atoms: C_10  and  C_27
    8  A    between atoms: N_11  and  C_22
    9  A    between atoms: C_14  and  C_27
   10  A    between atoms: C_15  and  C_25
   11  A    between atoms: C_18  and  C_24
   12  A    between atoms: N_19  and  C_25
   13  A    between atoms: C_21  and  C_24
                            x       y       z     vdW  Elec       q    Type
                         _______ _______ _______ _____ _____    ______ ____

>  <TORSDO>
F 13

$$$$
=
 OpenBabel10232412293D

 29 30  0  0  1  0  0  0  0  0999 V2000
  188.6010  177.1450  143.9370 C   0  0  2  0  0  3  0  0  0  0  0  0
  184.0240  179.0360  144.4900 C   0  0  0  0  0  0  0  0  0  0  0  0
  184.0720  178.7260  145.8520 C   0  0  0  0  0  3  0  0  0  0  0  0
  185.2080  178.1260  146.4010 C   0  0  0  0  0  3  0  0  0  0  0  0
  186.2770  178.1270  144.2170 C   0  0  0  0  0  0  0  0  0  0  0  0
  186.3050  177.8290  145.5880 C   0  0  0  0  0  3  0  0  0  0  0  0
  186.1760  178.7490  141.4780 C   0  0  0  0  0  3  0  0  0  0  0  0
  187.3110  178.1400  142.0170 C   0  0  0  0  0  3  0  0  0  0  0  0
  185.1230  178.7410  143.6640 C   0  0  0  0  0  0  0  0  0  0  0  0
  185.0870  179.0480  142.2980 C   0  0  0  0  0  3  0  0  0  0  0  0
  187.3760  177.8250  143.3840 C   0  0  0  0  0  0  0  0  0  0  0  0
  182.8820  179.6340  143.9690 O   0  0  0  0  0  1  0  0  0  0  0  0
  189.5210  178.1520  144.6170 C   0  0  0  0  0  2  0  0  0  0  0  0
  191.7810  177.4180  144.7070 O   0  0  0  0  0  0  0  0  0  0  0  0
  190.5180  176.8540  146.5690 N   0  0  0  0  0  2  0  0  0  0  0  0
  190.6640  177.4560  145.2830 C   0  0  0  0  0  0  0  0  0  0  0  0
  189.2530  176.8430  147.2890 C   0  0  0  0  0  2  0  0  0  0  0  0
  189.1740  178.0430  148.2170 C   0  0  0  0  0  2  0  0  0  0  0  0
  187.8550  178.0400  148.9680 C   0  0  0  0  0  1  0  0  0  0  0  0
  189.3450  176.3670  142.8520 C   0  0  0  0  0  2  0  0  0  0  0  0
  190.0790  177.3110  141.9140 C   0  0  0  0  0  2  0  0  0  0  0  0
  190.5000  176.5770  140.6530 C   0  0  0  0  0  2  0  0  0  0  0  0
  189.9290  177.2710  139.4310 C   0  0  0  0  0  2  0  0  0  0  0  0
  189.8870  176.3070  138.2620 C   0  0  0  0  0  2  0  0  0  0  0  0
  191.0690  175.4650  138.2840 N   0  0  0  0  0  2  0  0  0  0  0  0
  191.9660  175.9790  137.2640 C   0  0  0  0  0  2  0  0  0  0  0  0
  193.4670  176.8980  138.8670 O   0  0  0  0  0  0  0  0  0  0  0  0
  193.3210  176.1810  137.8410 C   0  0  0  0  0  0  0  0  0  0  0  0
  194.4500  175.5490  137.2470 N   0  0  0  0  0  1  0  0  0  0  0  0
  1 20  1  6  0  0  0
  1 13  1  0  0  0  0
  2  3  1  0  0  0  0
  3  4  2  0  0  0  0
  5  6  2  0  0  0  0
  6  4  1  0  0  0  0
  7  8  1  0  0  0  0
  7 10  2  0  0  0  0
  8 11  2  0  0  0  0
  9  5  1  0  0  0  0
  9  2  2  0  0  0  0
 10  9  1  0  0  0  0
 11  1  1  0  0  0  0
 11  5  1  0  0  0  0
 12  2  1  0  0  0  0
 13 16  1  0  0  0  0
 14 16  2  0  0  0  0
 15 17  1  0  0  0  0
 16 15  1  0  0  0  0
 17 18  1  0  0  0  0
 18 19  1  0  0  0  0
 21 20  1  0  0  0  0
 22 21  1  0  0  0  0
 23 22  1  0  0  0  0
 24 25  1  0  0  0  0
 24 23  1  0  0  0  0
 26 28  1  0  0  0  0
 26 25  1  0  0  0  0
 28 27  2  0  0  0  0
 29 28  1  0  0  0  0
M  END
>  <MODEL>
4

>  <REMARK>
 VINA RESULT:      -7.5      2.759      4.618
  Name = 
  13 active torsions:
  status: ('A' for Active; 'I' for Inactive)
    1  A    between atoms: C_1  and  C_14
    2  A    between atoms: C_1  and  C_18
    3  A    between atoms: C_5  and  C_22
    4  A    between atoms: C_6  and  C_24
    5  A    between atoms: C_6  and  C_26
    6  A    between atoms: C_10  and  N_19
    7  A    between atoms: C_10  and  C_27
    8  A    between atoms: N_11  and  C_22
    9  A    between atoms: C_14  and  C_27
   10  A    between atoms: C_15  and  C_25
   11  A    between atoms: C_18  and  C_24
   12  A    between atoms: N_19  and  C_25
   13  A    between atoms: C_21  and  C_24
                            x       y       z     vdW  Elec       q    Type
                         _______ _______ _______ _____ _____    ______ ____

>  <TORSDO>
F 13

$$$$
=
 OpenBabel10232412293D

 29 30  0  0  1  0  0  0  0  0999 V2000
  189.1680  176.8400  143.0450 C   0  0  2  0  0  3  0  0  0  0  0  0
  187.7140  177.9190  147.6870 C   0  0  0  0  0  0  0  0  0  0  0  0
  186.4260  178.1820  147.2110 C   0  0  0  0  0  3  0  0  0  0  0  0
  186.1320  178.0410  145.8540 C   0  0  0  0  0  3  0  0  0  0  0  0
  188.4280  177.3700  145.4150 C   0  0  0  0  0  0  0  0  0  0  0  0
  187.1270  177.6360  144.9600 C   0  0  0  0  0  3  0  0  0  0  0  0
  191.0150  176.8420  146.3740 C   0  0  0  0  0  3  0  0  0  0  0  0
  190.7320  176.7080  145.0140 C   0  0  0  0  0  3  0  0  0  0  0  0
  188.7210  177.5100  146.7960 C   0  0  0  0  0  0  0  0  0  0  0  0
  190.0150  177.2420  147.2620 C   0  0  0  0  0  3  0  0  0  0  0  0
  189.4430  176.9670  144.5210 C   0  0  0  0  0  0  0  0  0  0  0  0
  187.9800  178.0670  149.0440 O   0  0  0  0  0  1  0  0  0  0  0  0
  190.3420  176.1830  142.3290 C   0  0  0  0  0  2  0  0  0  0  0  0
  191.9260  177.9560  142.3770 O   0  0  0  0  0  0  0  0  0  0  0  0
  191.2300  177.3540  140.2480 N   0  0  0  0  0  2  0  0  0  0  0  0
  191.2010  177.2130  141.6690 C   0  0  0  0  0  0  0  0  0  0  0  0
  190.4060  176.5420  139.3630 C   0  0  0  0  0  2  0  0  0  0  0  0
  190.9770  176.5670  137.9560 C   0  0  0  0  0  2  0  0  0  0  0  0
  192.4610  176.2540  137.9860 C   0  0  0  0  0  1  0  0  0  0  0  0
  188.8330  178.1940  142.4220 C   0  0  0  0  0  2  0  0  0  0  0  0
  187.7280  178.0570  141.3880 C   0  0  0  0  0  2  0  0  0  0  0  0
  186.6670  179.1210  141.6100 C   0  0  0  0  0  2  0  0  0  0  0  0
  185.3410  178.4690  141.9580 C   0  0  0  0  0  2  0  0  0  0  0  0
  184.2590  178.9700  141.0220 C   0  0  0  0  0  2  0  0  0  0  0  0
  184.8620  179.4360  139.7870 N   0  0  0  0  0  2  0  0  0  0  0  0
  184.3940  178.5500  138.7340 C   0  0  0  0  0  2  0  0  0  0  0  0
  185.4360  176.9960  137.2630 O   0  0  0  0  0  0  0  0  0  0  0  0
  185.5510  178.0460  137.9500 C   0  0  0  0  0  0  0  0  0  0  0  0
  186.7830  178.7600  137.9570 N   0  0  0  0  0  1  0  0  0  0  0  0
  1 13  1  6  0  0  0
  1 11  1  0  0  0  0
  2 12  1  0  0  0  0
  3  2  1  0  0  0  0
  4  3  2  0  0  0  0
  5  9  1  0  0  0  0
  6  5  2  0  0  0  0
  6  4  1  0  0  0  0
  7 10  2  0  0  0  0
  8  7  1  0  0  0  0
  9 10  1  0  0  0  0
  9  2  2  0  0  0  0
 11  8  2  0  0  0  0
 11  5  1  0  0  0  0
 15 16  1  0  0  0  0
 16 13  1  0  0  0  0
 16 14  2  0  0  0  0
 17 15  1  0  0  0  0
 18 19  1  0  0  0  0
 18 17  1  0  0  0  0
 20  1  1  0  0  0  0
 21 22  1  0  0  0  0
 21 20  1  0  0  0  0
 22 23  1  0  0  0  0
 24 23  1  0  0  0  0
 25 24  1  0  0  0  0
 26 25  1  0  0  0  0
 27 28  2  0  0  0  0
 28 29  1  0  0  0  0
 28 26  1  0  0  0  0
M  END
>  <MODEL>
5

>  <REMARK>
 VINA RESULT:      -7.4      1.974      3.913
  Name = 
  13 active torsions:
  status: ('A' for Active; 'I' for Inactive)
    1  A    between atoms: C_1  and  C_14
    2  A    between atoms: C_1  and  C_18
    3  A    between atoms: C_5  and  C_22
    4  A    between atoms: C_6  and  C_24
    5  A    between atoms: C_6  and  C_26
    6  A    between atoms: C_10  and  N_19
    7  A    between atoms: C_10  and  C_27
    8  A    between atoms: N_11  and  C_22
    9  A    between atoms: C_14  and  C_27
   10  A    between atoms: C_15  and  C_25
   11  A    between atoms: C_18  and  C_24
   12  A    between atoms: N_19  and  C_25
   13  A    between atoms: C_21  and  C_24
                            x       y       z     vdW  Elec       q    Type
                         _______ _______ _______ _____ _____    ______ ____

>  <TORSDO>
F 13

$$$$
=
 OpenBabel10232412293D

 29 30  0  0  1  0  0  0  0  0999 V2000
  188.4710  177.1470  144.3590 C   0  0  2  0  0  3  0  0  0  0  0  0
  183.8590  179.0320  144.2250 C   0  0  0  0  0  0  0  0  0  0  0  0
  183.7320  178.7880  145.5950 C   0  0  0  0  0  3  0  0  0  0  0  0
  184.7870  178.2230  146.3140 C   0  0  0  0  0  3  0  0  0  0  0  0
  186.1290  178.1260  144.2890 C   0  0  0  0  0  0  0  0  0  0  0  0
  185.9800  177.8940  145.6650 C   0  0  0  0  0  3  0  0  0  0  0  0
  186.3820  178.6150  141.5330 C   0  0  0  0  0  3  0  0  0  0  0  0
  187.4390  178.0400  142.2430 C   0  0  0  0  0  3  0  0  0  0  0  0
  185.0560  178.7050  143.5630 C   0  0  0  0  0  0  0  0  0  0  0  0
  185.1960  178.9450  142.1900 C   0  0  0  0  0  3  0  0  0  0  0  0
  187.3270  177.7920  143.6200 C   0  0  0  0  0  0  0  0  0  0  0  0
  182.7930  179.5960  143.5330 O   0  0  0  0  0  1  0  0  0  0  0  0
  189.1700  178.1560  145.2620 C   0  0  0  0  0  2  0  0  0  0  0  0
  188.3060  177.8270  147.4530 O   0  0  0  0  0  0  0  0  0  0  0  0
  190.4090  176.9100  147.1070 N   0  0  0  0  0  2  0  0  0  0  0  0
  189.2630  177.6360  146.6610 C   0  0  0  0  0  0  0  0  0  0  0  0
  191.5620  176.6650  146.2530 C   0  0  0  0  0  2  0  0  0  0  0  0
  192.3580  175.4840  146.7830 C   0  0  0  0  0  2  0  0  0  0  0  0
  192.7330  175.7150  148.2350 C   0  0  0  0  0  1  0  0  0  0  0  0
  189.4600  176.4950  143.3950 C   0  0  0  0  0  2  0  0  0  0  0  0
  190.6240  177.4250  143.0980 C   0  0  0  0  0  2  0  0  0  0  0  0
  191.3990  176.9280  141.8910 C   0  0  0  0  0  2  0  0  0  0  0  0
  190.4440  176.5890  140.7620 C   0  0  0  0  0  2  0  0  0  0  0  0
  190.5990  177.5920  139.6360 C   0  0  0  0  0  2  0  0  0  0  0  0
  190.5460  176.9020  138.3600 N   0  0  0  0  0  2  0  0  0  0  0  0
  191.9010  176.4670  138.0660 C   0  0  0  0  0  2  0  0  0  0  0  0
  192.9840  174.4390  137.4450 O   0  0  0  0  0  0  0  0  0  0  0  0
  191.9000  175.0210  137.7210 C   0  0  0  0  0  0  0  0  0  0  0  0
  190.6790  174.2880  137.7210 N   0  0  0  0  0  1  0  0  0  0  0  0
  1 20  1  6  0  0  0
  1 13  1  0  0  0  0
  2  3  1  0  0  0  0
  3  4  2  0  0  0  0
  5  6  2  0  0  0  0
  6  4  1  0  0  0  0
  7 10  2  0  0  0  0
  7  8  1  0  0  0  0
  8 11  2  0  0  0  0
  9  2  2  0  0  0  0
  9  5  1  0  0  0  0
 10  9  1  0  0  0  0
 11  5  1  0  0  0  0
 11  1  1  0  0  0  0
 12  2  1  0  0  0  0
 13 16  1  0  0  0  0
 16 15  1  0  0  0  0
 16 14  2  0  0  0  0
 17 18  1  0  0  0  0
 17 15  1  0  0  0  0
 18 19  1  0  0  0  0
 21 20  1  0  0  0  0
 22 21  1  0  0  0  0
 23 22  1  0  0  0  0
 24 23  1  0  0  0  0
 25 24  1  0  0  0  0
 26 25  1  0  0  0  0
 27 28  2  0  0  0  0
 28 26  1  0  0  0  0
 29 28  1  0  0  0  0
M  END
>  <MODEL>
6

>  <REMARK>
 VINA RESULT:      -7.2      2.666      4.474
  Name = 
  13 active torsions:
  status: ('A' for Active; 'I' for Inactive)
    1  A    between atoms: C_1  and  C_14
    2  A    between atoms: C_1  and  C_18
    3  A    between atoms: C_5  and  C_22
    4  A    between atoms: C_6  and  C_24
    5  A    between atoms: C_6  and  C_26
    6  A    between atoms: C_10  and  N_19
    7  A    between atoms: C_10  and  C_27
    8  A    between atoms: N_11  and  C_22
    9  A    between atoms: C_14  and  C_27
   10  A    between atoms: C_15  and  C_25
   11  A    between atoms: C_18  and  C_24
   12  A    between atoms: N_19  and  C_25
   13  A    between atoms: C_21  and  C_24
                            x       y       z     vdW  Elec       q    Type
                         _______ _______ _______ _____ _____    ______ ____

>  <TORSDO>
F 13

$$$$
=
 OpenBabel10232412293D

 29 30  0  0  1  0  0  0  0  0999 V2000
  188.1620  177.3790  141.9000 C   0  0  2  0  0  3  0  0  0  0  0  0
  191.9210  176.8750  138.6690 C   0  0  0  0  0  0  0  0  0  0  0  0
  190.9990  176.6140  137.6520 C   0  0  0  0  0  3  0  0  0  0  0  0
  189.6290  176.6190  137.9230 C   0  0  0  0  0  3  0  0  0  0  0  0
  190.0800  177.1420  140.2550 C   0  0  0  0  0  0  0  0  0  0  0  0
  189.1710  176.8820  139.2170 C   0  0  0  0  0  3  0  0  0  0  0  0
  191.9380  177.6640  142.2970 C   0  0  0  0  0  3  0  0  0  0  0  0
  190.5700  177.6600  142.5780 C   0  0  0  0  0  3  0  0  0  0  0  0
  191.4710  177.1420  139.9740 C   0  0  0  0  0  0  0  0  0  0  0  0
  192.3860  177.4050  141.0010 C   0  0  0  0  0  3  0  0  0  0  0  0
  189.6310  177.4020  141.5670 C   0  0  0  0  0  0  0  0  0  0  0  0
  193.2800  176.8650  138.3720 O   0  0  0  0  0  1  0  0  0  0  0  0
  187.5810  178.7880  141.8940 C   0  0  0  0  0  2  0  0  0  0  0  0
  186.4440  178.5800  139.8150 O   0  0  0  0  0  0  0  0  0  0  0  0
  185.0830  179.1860  141.5930 N   0  0  0  0  0  2  0  0  0  0  0  0
  186.3550  178.8490  141.0400 C   0  0  0  0  0  0  0  0  0  0  0  0
  184.9040  179.5260  142.9970 C   0  0  0  0  0  2  0  0  0  0  0  0
  184.1530  178.4140  143.7080 C   0  0  0  0  0  2  0  0  0  0  0  0
  183.8310  178.8250  145.1330 C   0  0  0  0  0  1  0  0  0  0  0  0
  187.9040  176.6850  143.2370 C   0  0  0  0  0  2  0  0  0  0  0  0
  187.6880  177.7030  144.3450 C   0  0  0  0  0  2  0  0  0  0  0  0
  187.3270  177.0000  145.6410 C   0  0  0  0  0  2  0  0  0  0  0  0
  187.0200  178.0220  146.7200 C   0  0  0  0  0  2  0  0  0  0  0  0
  188.0110  177.8830  147.8580 C   0  0  0  0  0  2  0  0  0  0  0  0
  188.9360  176.8020  147.5700 N   0  0  0  0  0  2  0  0  0  0  0  0
  190.2690  177.3120  147.8360 C   0  0  0  0  0  2  0  0  0  0  0  0
  191.1300  176.5500  145.7510 O   0  0  0  0  0  0  0  0  0  0  0  0
  191.2620  176.5830  147.0030 C   0  0  0  0  0  0  0  0  0  0  0  0
  192.3730  175.9390  147.6190 N   0  0  0  0  0  1  0  0  0  0  0  0
  1 13  1  1  0  0  0
  1 20  1  0  0  0  0
  2  9  1  0  0  0  0
  3  4  1  0  0  0  0
  3  2  2  0  0  0  0
  4  6  2  0  0  0  0
  5 11  1  0  0  0  0
  6  5  1  0  0  0  0
  7  8  1  0  0  0  0
  9  5  2  0  0  0  0
  9 10  1  0  0  0  0
 10  7  2  0  0  0  0
 11  1  1  0  0  0  0
 11  8  2  0  0  0  0
 12  2  1  0  0  0  0
 14 16  2  0  0  0  0
 15 17  1  0  0  0  0
 16 15  1  0  0  0  0
 16 13  1  0  0  0  0
 17 18  1  0  0  0  0
 18 19  1  0  0  0  0
 20 21  1  0  0  0  0
 21 22  1  0  0  0  0
 22 23  1  0  0  0  0
 23 24  1  0  0  0  0
 25 26  1  0  0  0  0
 25 24  1  0  0  0  0
 27 28  2  0  0  0  0
 28 29  1  0  0  0  0
 28 26  1  0  0  0  0
M  END
>  <MODEL>
7

>  <REMARK>
 VINA RESULT:      -7.2      2.531      7.890
  Name = 
  13 active torsions:
  status: ('A' for Active; 'I' for Inactive)
    1  A    between atoms: C_1  and  C_14
    2  A    between atoms: C_1  and  C_18
    3  A    between atoms: C_5  and  C_22
    4  A    between atoms: C_6  and  C_24
    5  A    between atoms: C_6  and  C_26
    6  A    between atoms: C_10  and  N_19
    7  A    between atoms: C_10  and  C_27
    8  A    between atoms: N_11  and  C_22
    9  A    between atoms: C_14  and  C_27
   10  A    between atoms: C_15  and  C_25
   11  A    between atoms: C_18  and  C_24
   12  A    between atoms: N_19  and  C_25
   13  A    between atoms: C_21  and  C_24
                            x       y       z     vdW  Elec       q    Type
                         _______ _______ _______ _____ _____    ______ ____

>  <TORSDO>
F 13

$$$$
=
 OpenBabel10232412293D

 29 30  0  0  1  0  0  0  0  0999 V2000
  188.8320  177.2890  143.2420 C   0  0  2  0  0  3  0  0  0  0  0  0
  184.6690  178.6720  145.6050 C   0  0  0  0  0  0  0  0  0  0  0  0
  185.2570  178.3240  146.8240 C   0  0  0  0  0  3  0  0  0  0  0  0
  186.5620  177.8290  146.8620 C   0  0  0  0  0  3  0  0  0  0  0  0
  186.7160  178.0130  144.4420 C   0  0  0  0  0  0  0  0  0  0  0  0
  187.2880  177.6740  145.6780 C   0  0  0  0  0  3  0  0  0  0  0  0
  185.5290  178.7110  141.9930 C   0  0  0  0  0  3  0  0  0  0  0  0
  186.8300  178.2070  142.0220 C   0  0  0  0  0  3  0  0  0  0  0  0
  185.3910  178.5210  144.4080 C   0  0  0  0  0  0  0  0  0  0  0  0
  184.8120  178.8670  143.1800 C   0  0  0  0  0  3  0  0  0  0  0  0
  187.4360  177.8550  143.2390 C   0  0  0  0  0  0  0  0  0  0  0  0
  183.3680  179.1640  145.5940 O   0  0  0  0  0  1  0  0  0  0  0  0
  189.8510  178.3590  143.6160 C   0  0  0  0  0  2  0  0  0  0  0  0
  192.0180  177.5620  143.0440 O   0  0  0  0  0  0  0  0  0  0  0  0
  191.4880  177.3610  145.2940 N   0  0  0  0  0  2  0  0  0  0  0  0
  191.1680  177.7380  143.9540 C   0  0  0  0  0  0  0  0  0  0  0  0
  190.5500  177.5190  146.3970 C   0  0  0  0  0  2  0  0  0  0  0  0
  190.6640  176.3380  147.3460 C   0  0  0  0  0  2  0  0  0  0  0  0
  192.0800  175.7930  147.3380 C   0  0  0  0  0  1  0  0  0  0  0  0
  189.1770  176.6490  141.8990 C   0  0  0  0  0  2  0  0  0  0  0  0
  189.4950  177.7080  140.8570 C   0  0  0  0  0  2  0  0  0  0  0  0
  189.9640  177.0550  139.5690 C   0  0  0  0  0  2  0  0  0  0  0  0
  189.2770  177.6990  138.3780 C   0  0  0  0  0  2  0  0  0  0  0  0
  187.8290  177.2580  138.3180 C   0  0  0  0  0  2  0  0  0  0  0  0
  186.9640  178.4240  138.3580 N   0  0  0  0  0  2  0  0  0  0  0  0
  185.7170  178.0390  137.7190 C   0  0  0  0  0  2  0  0  0  0  0  0
  183.6800  177.7310  138.9120 O   0  0  0  0  0  0  0  0  0  0  0  0
  184.5680  178.5350  138.5210 C   0  0  0  0  0  0  0  0  0  0  0  0
  184.4800  179.9140  138.8650 N   0  0  0  0  0  1  0  0  0  0  0  0
  1 20  1  6  0  0  0
  1 13  1  0  0  0  0
  2  3  1  0  0  0  0
  3  4  2  0  0  0  0
  5  6  2  0  0  0  0
  6  4  1  0  0  0  0
  7  8  1  0  0  0  0
  7 10  2  0  0  0  0
  8 11  2  0  0  0  0
  9  5  1  0  0  0  0
  9  2  2  0  0  0  0
 10  9  1  0  0  0  0
 11  1  1  0  0  0  0
 11  5  1  0  0  0  0
 12  2  1  0  0  0  0
 13 16  1  0  0  0  0
 14 16  2  0  0  0  0
 15 17  1  0  0  0  0
 16 15  1  0  0  0  0
 17 18  1  0  0  0  0
 19 18  1  0  0  0  0
 21 20  1  0  0  0  0
 22 21  1  0  0  0  0
 23 22  1  0  0  0  0
 24 25  1  0  0  0  0
 24 23  1  0  0  0  0
 26 25  1  0  0  0  0
 26 28  1  0  0  0  0
 28 29  1  0  0  0  0
 28 27  2  0  0  0  0
M  END
>  <MODEL>
8

>  <REMARK>
 VINA RESULT:      -7.2      1.187      2.261
  Name = 
  13 active torsions:
  status: ('A' for Active; 'I' for Inactive)
    1  A    between atoms: C_1  and  C_14
    2  A    between atoms: C_1  and  C_18
    3  A    between atoms: C_5  and  C_22
    4  A    between atoms: C_6  and  C_24
    5  A    between atoms: C_6  and  C_26
    6  A    between atoms: C_10  and  N_19
    7  A    between atoms: C_10  and  C_27
    8  A    between atoms: N_11  and  C_22
    9  A    between atoms: C_14  and  C_27
   10  A    between atoms: C_15  and  C_25
   11  A    between atoms: C_18  and  C_24
   12  A    between atoms: N_19  and  C_25
   13  A    between atoms: C_21  and  C_24
                            x       y       z     vdW  Elec       q    Type
                         _______ _______ _______ _____ _____    ______ ____

>  <TORSDO>
F 13

$$$$
=
 OpenBabel10232412293D

 29 30  0  0  1  0  0  0  0  0999 V2000
  188.7030  176.9210  143.9450 C   0  0  2  0  0  3  0  0  0  0  0  0
  184.2460  179.0570  144.5740 C   0  0  0  0  0  0  0  0  0  0  0  0
  184.2840  178.7140  145.9290 C   0  0  0  0  0  3  0  0  0  0  0  0
  185.3870  178.0380  146.4550 C   0  0  0  0  0  3  0  0  0  0  0  0
  186.4410  178.0270  144.2640 C   0  0  0  0  0  0  0  0  0  0  0  0
  186.4600  177.6970  145.6280 C   0  0  0  0  0  3  0  0  0  0  0  0
  186.3590  178.7160  141.5410 C   0  0  0  0  0  3  0  0  0  0  0  0
  187.4610  178.0310  142.0570 C   0  0  0  0  0  3  0  0  0  0  0  0
  185.3210  178.7190  143.7340 C   0  0  0  0  0  0  0  0  0  0  0  0
  185.2940  179.0580  142.3750 C   0  0  0  0  0  3  0  0  0  0  0  0
  187.5160  177.6820  143.4160 C   0  0  0  0  0  0  0  0  0  0  0  0
  183.1360  179.7300  144.0760 O   0  0  0  0  0  1  0  0  0  0  0  0
  189.6520  177.8480  144.6950 C   0  0  0  0  0  2  0  0  0  0  0  0
  191.7840  176.8160  144.9100 O   0  0  0  0  0  0  0  0  0  0  0  0
  190.4220  176.5950  146.7750 N   0  0  0  0  0  2  0  0  0  0  0  0
  190.6750  177.0590  145.4480 C   0  0  0  0  0  0  0  0  0  0  0  0
  189.1560  176.8230  147.4570 C   0  0  0  0  0  2  0  0  0  0  0  0
  189.2480  178.0700  148.3190 C   0  0  0  0  0  2  0  0  0  0  0  0
  187.9080  178.3560  148.9710 C   0  0  0  0  0  1  0  0  0  0  0  0
  189.4320  176.1780  142.8270 C   0  0  0  0  0  2  0  0  0  0  0  0
  190.1910  177.1460  141.9340 C   0  0  0  0  0  2  0  0  0  0  0  0
  190.3980  176.5400  140.5580 C   0  0  0  0  0  2  0  0  0  0  0  0
  190.2170  177.6010  139.4890 C   0  0  0  0  0  2  0  0  0  0  0  0
  190.4230  176.9920  138.1170 C   0  0  0  0  0  2  0  0  0  0  0  0
  189.3420  177.3980  137.2370 N   0  0  0  0  0  2  0  0  0  0  0  0
  188.1550  176.6880  137.6810 C   0  0  0  0  0  2  0  0  0  0  0  0
  187.0210  178.7620  137.9580 O   0  0  0  0  0  0  0  0  0  0  0  0
  186.9650  177.5700  137.5550 C   0  0  0  0  0  0  0  0  0  0  0  0
  185.7700  177.0750  136.9610 N   0  0  0  0  0  1  0  0  0  0  0  0
  1 20  1  6  0  0  0
  1 13  1  0  0  0  0
  2  3  1  0  0  0  0
  3  4  2  0  0  0  0
  5  6  2  0  0  0  0
  6  4  1  0  0  0  0
  7  8  1  0  0  0  0
  7 10  2  0  0  0  0
  8 11  2  0  0  0  0
  9  5  1  0  0  0  0
  9  2  2  0  0  0  0
 10  9  1  0  0  0  0
 11  1  1  0  0  0  0
 11  5  1  0  0  0  0
 12  2  1  0  0  0  0
 13 16  1  0  0  0  0
 14 16  2  0  0  0  0
 15 17  1  0  0  0  0
 16 15  1  0  0  0  0
 17 18  1  0  0  0  0
 18 19  1  0  0  0  0
 21 20  1  0  0  0  0
 22 21  1  0  0  0  0
 23 22  1  0  0  0  0
 24 23  1  0  0  0  0
 25 26  1  0  0  0  0
 25 24  1  0  0  0  0
 28 26  1  0  0  0  0
 28 27  2  0  0  0  0
 29 28  1  0  0  0  0
M  END
>  <MODEL>
9

>  <REMARK>
 VINA RESULT:      -7.2      1.999      3.149
  Name = 
  13 active torsions:
  status: ('A' for Active; 'I' for Inactive)
    1  A    between atoms: C_1  and  C_14
    2  A    between atoms: C_1  and  C_18
    3  A    between atoms: C_5  and  C_22
    4  A    between atoms: C_6  and  C_24
    5  A    between atoms: C_6  and  C_26
    6  A    between atoms: C_10  and  N_19
    7  A    between atoms: C_10  and  C_27
    8  A    between atoms: N_11  and  C_22
    9  A    between atoms: C_14  and  C_27
   10  A    between atoms: C_15  and  C_25
   11  A    between atoms: C_18  and  C_24
   12  A    between atoms: N_19  and  C_25
   13  A    between atoms: C_21  and  C_24
                            x       y       z     vdW  Elec       q    Type
                         _______ _______ _______ _____ _____    ______ ____

>  <TORSDO>
F 13

$$$$
