=
 OpenBabel10232410423D

 50 54  0  0  1  0  0  0  0  0999 V2000
  188.3440  177.6510  138.3290 C   0  0  0  0  0  0  0  0  0  0  0  0
  192.5330  176.8410  138.7500 C   0  0  0  0  0  2  0  0  0  0  0  0
  189.7830  176.3210  142.4040 C   0  0  0  0  0  2  0  0  0  0  0  0
  189.1500  174.3590  136.6650 O   0  0  0  0  0  1  0  0  0  0  0  0
  190.2030  177.0420  139.8810 C   0  0  0  0  0  0  0  0  0  0  0  0
  190.6500  176.0920  137.5770 C   0  0  0  0  0  0  0  0  0  0  0  0
  185.8720  177.8670  138.0020 C   0  0  0  0  0  0  0  0  0  0  0  0
  186.8700  175.6870  137.4990 C   0  0  0  0  0  3  0  0  0  0  0  0
  189.1580  178.7660  142.0180 C   0  0  0  0  0  2  0  0  0  0  0  0
  191.9910  177.0450  141.5950 O   0  0  0  0  0  1  0  0  0  0  0  0
  191.6620  176.1720  135.4280 O   0  0  0  0  0  1  0  0  0  0  0  0
  189.2930  175.5750  137.3480 C   0  0  0  0  0  0  0  0  0  0  0  0
  188.2650  178.3570  140.8380 C   0  0  1  0  0  3  0  0  0  0  0  0
  193.0140  176.2990  137.3940 C   0  0  2  0  0  3  0  0  0  0  0  0
  188.9690  177.5920  139.7250 C   0  0  0  0  0  0  0  0  0  0  0  0
  189.3190  177.6330  143.0510 C   0  0  2  0  0  3  0  0  0  0  0  0
  187.0550  178.4370  138.2490 C   0  0  0  0  0  3  0  0  0  0  0  0
  191.0500  176.6950  138.6980 C   0  0  0  0  0  0  0  0  0  0  0  0
  188.2040  176.2780  137.6960 C   0  0  2  0  0  3  0  0  0  0  0  0
  185.7730  176.4340  137.6400 C   0  0  0  0  0  3  0  0  0  0  0  0
  190.7350  176.5360  141.2250 C   0  0  1  0  0  3  0  0  0  0  0  0
  186.9670  177.6880  141.2780 C   0  0  0  0  0  1  0  0  0  0  0  0
  191.7890  175.6660  136.7280 C   0  0  1  0  0  3  0  0  0  0  0  0
  190.0340  177.9610  144.3890 C   0  0  1  0  0  3  0  0  0  0  0  0
  190.5990  179.2380  144.3140 O   0  0  0  0  0  1  0  0  0  0  0  0
  189.2710  177.8210  145.7350 C   0  0  1  0  0  3  0  0  0  0  0  0
  187.8490  177.2460  145.7010 C   0  0  0  0  0  2  0  0  0  0  0  0
  187.1200  177.8910  146.7820 N   0  0  0  0  0  2  0  0  0  0  0  0
  185.9180  179.8050  147.2710 O   0  0  0  0  0  0  0  0  0  0  0  0
  186.0200  178.7780  146.5430 C   0  0  0  0  0  0  0  0  0  0  0  0
  183.6450  178.6270  146.2840 F   0  0  0  0  0  0  0  0  0  0  0  0
  184.8700  178.3850  145.6660 C   0  0  1  0  0  3  0  0  0  0  0  0
  184.9590  179.0920  144.3130 C   0  0  2  0  0  3  0  0  0  0  0  0
  185.0320  180.4710  144.4880 F   0  0  0  0  0  0  0  0  0  0  0  0
  183.8180  178.7190  143.4140 C   0  0  0  0  0  0  0  0  0  0  0  0
  184.0470  177.9410  142.4380 O   0  0  0  0  0  0  0  0  0  0  0  0
  182.4880  179.1750  143.6590 N   0  0  0  0  0  1  0  0  0  0  0  0
  190.1120  177.1990  146.8490 C   0  0  0  0  0  2  0  0  0  0  0  0
  191.4000  176.5990  146.2840 C   0  0  0  0  0  2  0  0  0  0  0  0
  192.1030  175.7810  147.3500 C   0  0  0  0  0  1  0  0  0  0  0  0
  184.6700  178.7580  137.9160 C   0  0  2  0  0  3  0  0  0  0  0  0
  184.7460  179.8250  138.9160 N   0  0  0  0  0  1  0  0  0  0  0  0
  182.9290  177.4040  139.1790 C   0  0  0  0  0  3  0  0  0  0  0  0
  181.4640  177.0010  136.8390 C   0  0  0  0  0  3  0  0  0  0  0  0
  183.3500  178.0260  137.9890 C   0  0  0  0  0  0  0  0  0  0  0  0
  182.6090  177.8070  136.8130 C   0  0  0  0  0  3  0  0  0  0  0  0
  181.0530  176.3970  138.0260 C   0  0  0  0  0  3  0  0  0  0  0  0
  181.7940  176.5900  139.1970 C   0  0  0  0  0  3  0  0  0  0  0  0
  193.8480  173.8690  137.4310 C   0  0  0  0  0  1  0  0  0  0  0  0
  194.2360  175.3580  137.5290 C   0  0  0  0  0  2  0  0  0  0  0  0
  1 15  2  0  0  0  0
  3 16  1  0  0  0  0
  4 12  1  0  0  0  0
  5 21  1  0  0  0  0
  6 18  1  0  0  0  0
  7 17  2  0  0  0  0
  8 20  2  0  0  0  0
  9 16  1  0  0  0  0
 12  6  2  0  0  0  0
 12 19  1  0  0  0  0
 13 22  1  1  0  0  0
 13  9  1  0  0  0  0
 14 50  1  1  0  0  0
 14  2  1  0  0  0  0
 15  5  1  0  0  0  0
 15 13  1  0  0  0  0
 16 24  1  1  0  0  0
 17  1  1  0  0  0  0
 18  2  1  0  0  0  0
 18  5  2  0  0  0  0
 19  8  1  1  0  0  0
 19  1  1  0  0  0  0
 20  7  1  0  0  0  0
 21 10  1  1  0  0  0
 21  3  1  0  0  0  0
 23 11  1  6  0  0  0
 23 14  1  0  0  0  0
 23  6  1  0  0  0  0
 24 25  1  6  0  0  0
 24 26  1  0  0  0  0
 26 27  1  6  0  0  0
 26 38  1  0  0  0  0
 27 28  1  0  0  0  0
 30 28  1  0  0  0  0
 30 29  2  0  0  0  0
 32 31  1  1  0  0  0
 32 30  1  0  0  0  0
 33 34  1  1  0  0  0
 33 32  1  0  0  0  0
 35 37  1  0  0  0  0
 35 33  1  0  0  0  0
 36 35  2  0  0  0  0
 39 38  1  0  0  0  0
 39 40  1  0  0  0  0
 41 45  1  0  0  0  0
 41  7  1  0  0  0  0
 41 42  1  1  0  0  0
 43 48  1  0  0  0  0
 44 47  1  0  0  0  0
 45 43  2  0  0  0  0
 46 44  2  0  0  0  0
 46 45  1  0  0  0  0
 47 48  2  0  0  0  0
 49 50  1  0  0  0  0
M  END
>  <MODEL>
1

>  <REMARK>
 VINA RESULT:      -8.8      0.000      0.000
  Name = 
  12 active torsions:
  status: ('A' for Active; 'I' for Inactive)
    1  A    between atoms: C_4  and  C_6
    2  A    between atoms: C_4  and  C_30
    3  A    between atoms: C_6  and  C_13
    4  A    between atoms: C_6  and  C_50
    5  A    between atoms: C_11  and  C_14
    6  A    between atoms: N_12  and  C_13
    7  A    between atoms: C_14  and  C_16
    8  A    between atoms: C_15  and  C_22
    9  A    between atoms: C_22  and  C_31
   10  A    between atoms: C_27  and  C_48
   11  A    between atoms: C_31  and  C_47
   12  A    between atoms: C_41  and  C_50
                            x       y       z     vdW  Elec       q    Type
                         _______ _______ _______ _____ _____    ______ ____

>  <TORSDO>
F 12

$$$$
=
 OpenBabel10232410423D

 50 54  0  0  1  0  0  0  0  0999 V2000
  184.8620  178.8130  138.7750 C   0  0  0  0  0  0  0  0  0  0  0  0
  189.0870  178.4960  139.4250 C   0  0  0  0  0  2  0  0  0  0  0  0
  186.2130  177.3210  142.8230 C   0  0  0  0  0  2  0  0  0  0  0  0
  186.1850  175.8060  136.9160 O   0  0  0  0  0  1  0  0  0  0  0  0
  186.6870  178.3060  140.4010 C   0  0  0  0  0  0  0  0  0  0  0  0
  187.3910  177.6250  138.0670 C   0  0  0  0  0  0  0  0  0  0  0  0
  182.4070  178.7490  138.2920 C   0  0  0  0  0  0  0  0  0  0  0  0
  183.7060  176.7630  137.6890 C   0  0  0  0  0  3  0  0  0  0  0  0
  185.3010  179.6940  142.5890 C   0  0  0  0  0  2  0  0  0  0  0  0
  188.3540  178.3810  142.2320 O   0  0  0  0  0  1  0  0  0  0  0  0
  188.5110  178.0180  136.0080 O   0  0  0  0  0  1  0  0  0  0  0  0
  186.1290  176.9660  137.7020 C   0  0  0  0  0  0  0  0  0  0  0  0
  184.5410  179.2820  141.3200 C   0  0  1  0  0  3  0  0  0  0  0  0
  189.7150  178.1380  138.0680 C   0  0  2  0  0  3  0  0  0  0  0  0
  185.4040  178.7110  140.2020 C   0  0  0  0  0  0  0  0  0  0  0  0
  185.5450  178.5030  143.5380 C   0  0  2  0  0  3  0  0  0  0  0  0
  183.4890  179.4380  138.6670 C   0  0  0  0  0  3  0  0  0  0  0  0
  187.6420  178.1720  139.2570 C   0  0  0  0  0  0  0  0  0  0  0  0
  184.9390  177.4940  138.0270 C   0  0  2  0  0  3  0  0  0  0  0  0
  182.5160  177.3520  137.8110 C   0  0  0  0  0  3  0  0  0  0  0  0
  187.1980  177.7550  141.7350 C   0  0  1  0  0  3  0  0  0  0  0  0
  183.3170  178.4210  141.6130 C   0  0  0  0  0  1  0  0  0  0  0  0
  188.6250  177.4190  137.2690 C   0  0  1  0  0  3  0  0  0  0  0  0
  186.1300  178.7990  144.9450 C   0  0  1  0  0  3  0  0  0  0  0  0
  185.0850  179.0120  145.8480 O   0  0  0  0  0  1  0  0  0  0  0  0
  187.1610  177.8260  145.5800 C   0  0  1  0  0  3  0  0  0  0  0  0
  188.6420  178.0120  145.2270 C   0  0  0  0  0  2  0  0  0  0  0  0
  189.0920  176.7490  144.6650 N   0  0  0  0  0  2  0  0  0  0  0  0
  190.5900  175.8730  143.1350 O   0  0  0  0  0  0  0  0  0  0  0  0
  190.4290  176.5550  144.1870 C   0  0  0  0  0  0  0  0  0  0  0  0
  192.0130  178.2180  144.8670 F   0  0  0  0  0  0  0  0  0  0  0  0
  191.6220  176.8910  145.0300 C   0  0  1  0  0  3  0  0  0  0  0  0
  191.3470  176.5700  146.5000 C   0  0  2  0  0  3  0  0  0  0  0  0
  191.2920  177.7400  147.2530 F   0  0  0  0  0  0  0  0  0  0  0  0
  192.3560  175.6120  147.0600 C   0  0  0  0  0  0  0  0  0  0  0  0
  192.7300  174.6380  146.3390 O   0  0  0  0  0  0  0  0  0  0  0  0
  192.9350  175.8000  148.3510 N   0  0  0  0  0  1  0  0  0  0  0  0
  186.9530  177.6140  147.0790 C   0  0  0  0  0  2  0  0  0  0  0  0
  188.1930  178.0430  147.8640 C   0  0  0  0  0  2  0  0  0  0  0  0
  187.8950  178.0390  149.3500 C   0  0  0  0  0  1  0  0  0  0  0  0
  181.1060  179.4880  138.1920 C   0  0  2  0  0  3  0  0  0  0  0  0
  179.9850  178.5500  138.1020 N   0  0  0  0  0  1  0  0  0  0  0  0
  180.9360  181.8850  137.3650 C   0  0  0  0  0  3  0  0  0  0  0  0
  180.7600  181.0180  134.7190 C   0  0  0  0  0  3  0  0  0  0  0  0
  181.0590  180.5120  137.0820 C   0  0  0  0  0  0  0  0  0  0  0  0
  180.9590  180.0850  135.7450 C   0  0  0  0  0  3  0  0  0  0  0  0
  180.6470  182.3760  135.0120 C   0  0  0  0  0  3  0  0  0  0  0  0
  180.7240  182.8100  136.3400 C   0  0  0  0  0  3  0  0  0  0  0  0
  191.1720  176.2230  137.1700 C   0  0  0  0  0  1  0  0  0  0  0  0
  191.0390  177.3480  138.2140 C   0  0  0  0  0  2  0  0  0  0  0  0
  1 15  2  0  0  0  0
  3 16  1  0  0  0  0
  4 12  1  0  0  0  0
  5 21  1  0  0  0  0
  6 18  1  0  0  0  0
  7 17  2  0  0  0  0
  8 20  2  0  0  0  0
  9 16  1  0  0  0  0
 12 19  1  0  0  0  0
 12  6  2  0  0  0  0
 13 22  1  1  0  0  0
 13  9  1  0  0  0  0
 14 50  1  1  0  0  0
 14  2  1  0  0  0  0
 15  5  1  0  0  0  0
 15 13  1  0  0  0  0
 16 24  1  1  0  0  0
 17  1  1  0  0  0  0
 18  2  1  0  0  0  0
 18  5  2  0  0  0  0
 19  8  1  1  0  0  0
 19  1  1  0  0  0  0
 20  7  1  0  0  0  0
 21 10  1  1  0  0  0
 21  3  1  0  0  0  0
 23 11  1  6  0  0  0
 23  6  1  0  0  0  0
 23 14  1  0  0  0  0
 24 26  1  0  0  0  0
 24 25  1  1  0  0  0
 26 27  1  1  0  0  0
 26 38  1  0  0  0  0
 28 27  1  0  0  0  0
 29 30  2  0  0  0  0
 30 28  1  0  0  0  0
 30 32  1  0  0  0  0
 32 31  1  1  0  0  0
 32 33  1  0  0  0  0
 33 35  1  0  0  0  0
 33 34  1  1  0  0  0
 35 37  1  0  0  0  0
 36 35  2  0  0  0  0
 38 39  1  0  0  0  0
 39 40  1  0  0  0  0
 41 42  1  6  0  0  0
 41  7  1  0  0  0  0
 44 47  2  0  0  0  0
 44 46  1  0  0  0  0
 45 43  1  0  0  0  0
 45 41  1  0  0  0  0
 46 45  2  0  0  0  0
 47 48  1  0  0  0  0
 48 43  2  0  0  0  0
 49 50  1  0  0  0  0
M  END
>  <MODEL>
2

>  <REMARK>
 VINA RESULT:      -8.2      2.978      5.120
  Name = 
  12 active torsions:
  status: ('A' for Active; 'I' for Inactive)
    1  A    between atoms: C_4  and  C_6
    2  A    between atoms: C_4  and  C_30
    3  A    between atoms: C_6  and  C_13
    4  A    between atoms: C_6  and  C_50
    5  A    between atoms: C_11  and  C_14
    6  A    between atoms: N_12  and  C_13
    7  A    between atoms: C_14  and  C_16
    8  A    between atoms: C_15  and  C_22
    9  A    between atoms: C_22  and  C_31
   10  A    between atoms: C_27  and  C_48
   11  A    between atoms: C_31  and  C_47
   12  A    between atoms: C_41  and  C_50
                            x       y       z     vdW  Elec       q    Type
                         _______ _______ _______ _____ _____    ______ ____

>  <TORSDO>
F 12

$$$$
=
 OpenBabel10232410423D

 50 54  0  0  1  0  0  0  0  0999 V2000
  186.9150  177.9500  138.0750 C   0  0  0  0  0  0  0  0  0  0  0  0
  190.9850  176.8550  137.2980 C   0  0  0  0  0  2  0  0  0  0  0  0
  189.3330  176.4080  141.5700 C   0  0  0  0  0  2  0  0  0  0  0  0
  186.9870  174.6640  136.2190 O   0  0  0  0  0  1  0  0  0  0  0  0
  189.0840  177.1750  139.0380 C   0  0  0  0  0  0  0  0  0  0  0  0
  188.8030  176.2670  136.6920 C   0  0  0  0  0  0  0  0  0  0  0  0
  184.4710  178.3380  138.4560 C   0  0  0  0  0  0  0  0  0  0  0  0
  185.1310  176.1130  137.6710 C   0  0  0  0  0  3  0  0  0  0  0  0
  188.8020  178.9000  141.4000 C   0  0  0  0  0  2  0  0  0  0  0  0
  191.2740  177.0090  140.1830 O   0  0  0  0  0  1  0  0  0  0  0  0
  189.1780  176.3440  134.3460 O   0  0  0  0  0  1  0  0  0  0  0  0
  187.4020  175.8470  136.8470 C   0  0  0  0  0  0  0  0  0  0  0  0
  187.5880  178.5850  140.5130 C   0  0  1  0  0  3  0  0  0  0  0  0
  191.0290  176.3230  135.8560 C   0  0  2  0  0  3  0  0  0  0  0  0
  187.8980  177.8090  139.2390 C   0  0  0  0  0  0  0  0  0  0  0  0
  189.1630  177.7280  142.3350 C   0  0  2  0  0  3  0  0  0  0  0  0
  185.7140  178.8220  138.3680 C   0  0  0  0  0  3  0  0  0  0  0  0
  189.5410  176.8090  137.6610 C   0  0  0  0  0  0  0  0  0  0  0  0
  186.5060  176.6090  137.4930 C   0  0  2  0  0  3  0  0  0  0  0  0
  184.1740  176.9260  138.1210 C   0  0  0  0  0  3  0  0  0  0  0  0
  189.9320  176.5950  140.1740 C   0  0  1  0  0  3  0  0  0  0  0  0
  186.4200  177.9900  141.2930 C   0  0  0  0  0  1  0  0  0  0  0  0
  189.6260  175.7920  135.5530 C   0  0  1  0  0  3  0  0  0  0  0  0
  190.2440  177.9680  143.4220 C   0  0  1  0  0  3  0  0  0  0  0  0
  190.9050  179.1720  143.1630 O   0  0  0  0  0  1  0  0  0  0  0  0
  189.8610  177.9120  144.9270 C   0  0  1  0  0  3  0  0  0  0  0  0
  188.4230  178.2730  145.3200 C   0  0  0  0  0  2  0  0  0  0  0  0
  188.1240  177.5170  146.5250 N   0  0  0  0  0  2  0  0  0  0  0  0
  187.7950  177.7820  148.7990 O   0  0  0  0  0  0  0  0  0  0  0  0
  187.4170  178.0880  147.6330 C   0  0  0  0  0  0  0  0  0  0  0  0
  186.2780  180.0850  146.9610 F   0  0  0  0  0  0  0  0  0  0  0  0
  186.1060  178.7910  147.4500 C   0  0  1  0  0  3  0  0  0  0  0  0
  185.1800  177.9750  146.5460 C   0  0  2  0  0  3  0  0  0  0  0  0
  185.8310  176.8360  146.0820 F   0  0  0  0  0  0  0  0  0  0  0  0
  184.6460  178.7950  145.4100 C   0  0  0  0  0  0  0  0  0  0  0  0
  185.3990  179.0080  144.4100 O   0  0  0  0  0  0  0  0  0  0  0  0
  183.3080  179.2930  145.4070 N   0  0  0  0  0  1  0  0  0  0  0  0
  190.3430  176.6430  145.6290 C   0  0  0  0  0  2  0  0  0  0  0  0
  191.5490  176.9410  146.5200 C   0  0  0  0  0  2  0  0  0  0  0  0
  192.1850  175.6470  146.9860 C   0  0  0  0  0  1  0  0  0  0  0  0
  183.3590  179.3080  138.7190 C   0  0  2  0  0  3  0  0  0  0  0  0
  183.8930  180.6470  138.9780 N   0  0  0  0  0  1  0  0  0  0  0  0
  181.0280  178.7290  139.5510 C   0  0  0  0  0  3  0  0  0  0  0  0
  181.9540  178.5360  142.1770 C   0  0  0  0  0  3  0  0  0  0  0  0
  182.4040  178.8750  139.8070 C   0  0  0  0  0  0  0  0  0  0  0  0
  182.8580  178.7860  141.1370 C   0  0  0  0  0  3  0  0  0  0  0  0
  180.5940  178.3860  141.9080 C   0  0  0  0  0  3  0  0  0  0  0  0
  180.1290  178.4930  140.5930 C   0  0  0  0  0  3  0  0  0  0  0  0
  193.4760  175.7110  136.3440 C   0  0  0  0  0  1  0  0  0  0  0  0
  192.1710  175.3000  135.6340 C   0  0  0  0  0  2  0  0  0  0  0  0
  1 17  1  0  0  0  0
  1 15  2  0  0  0  0
  2 18  1  0  0  0  0
  3 16  1  0  0  0  0
  4 12  1  0  0  0  0
  5 15  1  0  0  0  0
  5 21  1  0  0  0  0
  6 12  2  0  0  0  0
  6 18  1  0  0  0  0
  7 41  1  0  0  0  0
  8 20  2  0  0  0  0
  9 16  1  0  0  0  0
 12 19  1  0  0  0  0
 13 22  1  1  0  0  0
 13  9  1  0  0  0  0
 14 50  1  1  0  0  0
 14  2  1  0  0  0  0
 15 13  1  0  0  0  0
 16 24  1  6  0  0  0
 17  7  2  0  0  0  0
 18  5  2  0  0  0  0
 19  8  1  1  0  0  0
 19  1  1  0  0  0  0
 20  7  1  0  0  0  0
 21 10  1  1  0  0  0
 21  3  1  0  0  0  0
 23 11  1  6  0  0  0
 23 14  1  0  0  0  0
 23  6  1  0  0  0  0
 24 25  1  6  0  0  0
 24 26  1  0  0  0  0
 26 27  1  6  0  0  0
 26 38  1  0  0  0  0
 27 28  1  0  0  0  0
 28 30  1  0  0  0  0
 30 29  2  0  0  0  0
 32 31  1  6  0  0  0
 32 30  1  0  0  0  0
 33 34  1  6  0  0  0
 33 32  1  0  0  0  0
 35 33  1  0  0  0  0
 36 35  2  0  0  0  0
 37 35  1  0  0  0  0
 38 39  1  0  0  0  0
 39 40  1  0  0  0  0
 41 42  1  1  0  0  0
 41 45  1  0  0  0  0
 43 45  2  0  0  0  0
 43 48  1  0  0  0  0
 45 46  1  0  0  0  0
 46 44  2  0  0  0  0
 47 44  1  0  0  0  0
 48 47  2  0  0  0  0
 50 49  1  0  0  0  0
M  END
>  <MODEL>
3

>  <REMARK>
 VINA RESULT:      -7.5      1.608      2.222
  Name = 
  12 active torsions:
  status: ('A' for Active; 'I' for Inactive)
    1  A    between atoms: C_4  and  C_6
    2  A    between atoms: C_4  and  C_30
    3  A    between atoms: C_6  and  C_13
    4  A    between atoms: C_6  and  C_50
    5  A    between atoms: C_11  and  C_14
    6  A    between atoms: N_12  and  C_13
    7  A    between atoms: C_14  and  C_16
    8  A    between atoms: C_15  and  C_22
    9  A    between atoms: C_22  and  C_31
   10  A    between atoms: C_27  and  C_48
   11  A    between atoms: C_31  and  C_47
   12  A    between atoms: C_41  and  C_50
                            x       y       z     vdW  Elec       q    Type
                         _______ _______ _______ _____ _____    ______ ____

>  <TORSDO>
F 12

$$$$
=
 OpenBabel10232410423D

 50 54  0  0  1  0  0  0  0  0999 V2000
  188.9230  178.2960  141.2930 C   0  0  0  0  0  0  0  0  0  0  0  0
  188.4880  178.3480  145.5560 C   0  0  0  0  0  2  0  0  0  0  0  0
  184.8420  177.2870  142.9560 C   0  0  0  0  0  2  0  0  0  0  0  0
  190.5790  175.2330  142.7500 O   0  0  0  0  0  1  0  0  0  0  0  0
  187.3640  178.0760  143.2310 C   0  0  0  0  0  0  0  0  0  0  0  0
  189.6650  177.2340  143.8680 C   0  0  0  0  0  0  0  0  0  0  0  0
  189.2580  178.0090  138.8290 C   0  0  0  0  0  0  0  0  0  0  0  0
  189.7550  176.0750  140.2470 C   0  0  0  0  0  2  0  0  0  0  0  0
  185.2330  179.5560  141.8520 C   0  0  0  0  0  2  0  0  0  0  0  0
  185.6450  178.4410  144.9760 O   0  0  0  0  0  1  0  0  0  0  0  0
  191.8110  177.5150  144.8500 O   0  0  0  0  0  1  0  0  0  0  0  0
  189.8970  176.4540  142.6430 C   0  0  0  0  0  0  0  0  0  0  0  0
  186.4150  178.9740  141.0640 C   0  0  1  0  0  3  0  0  0  0  0  0
  189.8420  177.9130  146.1410 C   0  0  2  0  0  3  0  0  0  0  0  0
  187.5250  178.3660  141.9110 C   0  0  0  0  0  0  0  0  0  0  0  0
  184.1970  178.4790  142.2350 C   0  0  2  0  0  3  0  0  0  0  0  0
  189.0080  178.8060  139.8720 C   0  0  0  0  0  3  0  0  0  0  0  0
  188.5450  177.9060  144.1340 C   0  0  0  0  0  0  0  0  0  0  0  0
  189.5540  176.9220  141.4340 C   0  0  0  0  0  0  0  0  0  0  0  0
  189.6180  176.5850  139.0220 C   0  0  0  0  0  3  0  0  0  0  0  0
  186.0180  177.6890  143.8490 C   0  0  1  0  0  3  0  0  0  0  0  0
  185.9780  178.0570  139.9260 C   0  0  0  0  0  1  0  0  0  0  0  0
  190.5110  177.0450  145.0720 C   0  0  1  0  0  3  0  0  0  0  0  0
  182.8580  178.9460  142.8650 C   0  0  1  0  0  3  0  0  0  0  0  0
  183.1020  180.0020  143.7470 O   0  0  0  0  0  1  0  0  0  0  0  0
  181.6550  179.3120  141.9530 C   0  0  1  0  0  3  0  0  0  0  0  0
  181.8410  179.2030  140.4340 C   0  0  0  0  0  2  0  0  0  0  0  0
  180.7360  178.3960  139.9420 N   0  0  0  0  0  2  0  0  0  0  0  0
  180.1320  177.0280  138.1770 O   0  0  0  0  0  0  0  0  0  0  0  0
  180.9380  177.2330  139.1290 C   0  0  0  0  0  0  0  0  0  0  0  0
  181.2520  174.8980  139.5560 F   0  0  0  0  0  0  0  0  0  0  0  0
  181.8800  176.1420  139.5390 C   0  0  1  0  0  3  0  0  0  0  0  0
  183.1130  176.1280  138.6340 C   0  0  2  0  0  3  0  0  0  0  0  0
  183.2110  177.3220  137.9260 F   0  0  0  0  0  0  0  0  0  0  0  0
  183.1120  174.9470  137.7090 C   0  0  0  0  0  0  0  0  0  0  0  0
  182.1650  174.8350  136.8720 O   0  0  0  0  0  0  0  0  0  0  0  0
  184.1680  173.9870  137.7170 N   0  0  0  0  0  1  0  0  0  0  0  0
  180.3340  178.6950  142.4120 C   0  0  0  0  0  2  0  0  0  0  0  0
  180.2220  178.7270  143.9370 C   0  0  0  0  0  2  0  0  0  0  0  0
  179.9820  177.3290  144.4700 C   0  0  0  0  0  1  0  0  0  0  0  0
  189.3490  178.6390  137.4710 C   0  0  2  0  0  3  0  0  0  0  0  0
  188.9820  180.0550  137.5340 N   0  0  0  0  0  1  0  0  0  0  0  0
  187.1730  177.7710  136.4860 C   0  0  0  0  0  3  0  0  0  0  0  0
  188.5590  176.4160  134.4780 C   0  0  0  0  0  3  0  0  0  0  0  0
  188.5700  177.9140  136.3990 C   0  0  0  0  0  0  0  0  0  0  0  0
  189.2600  177.2180  135.3880 C   0  0  0  0  0  3  0  0  0  0  0  0
  187.1730  176.2900  134.5710 C   0  0  0  0  0  3  0  0  0  0  0  0
  186.4800  176.9600  135.5840 C   0  0  0  0  0  3  0  0  0  0  0  0
  188.2360  176.9120  147.8790 C   0  0  0  0  0  1  0  0  0  0  0  0
  189.7010  177.2380  147.5280 C   0  0  0  0  0  2  0  0  0  0  0  0
  1 19  1  0  0  0  0
  1 15  1  0  0  0  0
  2 14  1  0  0  0  0
  3 21  1  0  0  0  0
  5 21  1  0  0  0  0
  5 18  1  0  0  0  0
  6 18  2  0  0  0  0
  6 23  1  0  0  0  0
  7 20  2  0  0  0  0
  7 17  1  0  0  0  0
  8 19  1  0  0  0  0
  9 16  1  0  0  0  0
 12  4  1  0  0  0  0
 12  6  1  0  0  0  0
 13 22  1  6  0  0  0
 13  9  1  0  0  0  0
 13 15  1  0  0  0  0
 14 50  1  1  0  0  0
 15  5  2  0  0  0  0
 16 24  1  1  0  0  0
 16  3  1  0  0  0  0
 17  1  2  0  0  0  0
 18  2  1  0  0  0  0
 19 12  2  0  0  0  0
 20  8  1  0  0  0  0
 21 10  1  6  0  0  0
 23 11  1  6  0  0  0
 23 14  1  0  0  0  0
 24 25  1  6  0  0  0
 26 27  1  6  0  0  0
 26 38  1  0  0  0  0
 26 24  1  0  0  0  0
 28 27  1  0  0  0  0
 29 30  2  0  0  0  0
 30 32  1  0  0  0  0
 30 28  1  0  0  0  0
 32 31  1  6  0  0  0
 33 34  1  6  0  0  0
 33 32  1  0  0  0  0
 35 37  1  0  0  0  0
 35 33  1  0  0  0  0
 36 35  2  0  0  0  0
 38 39  1  0  0  0  0
 39 40  1  0  0  0  0
 41 42  1  1  0  0  0
 41  7  1  0  0  0  0
 44 47  2  0  0  0  0
 44 46  1  0  0  0  0
 45 43  1  0  0  0  0
 45 41  1  0  0  0  0
 46 45  2  0  0  0  0
 47 48  1  0  0  0  0
 48 43  2  0  0  0  0
 50 49  1  0  0  0  0
M  END
>  <MODEL>
4

>  <REMARK>
 VINA RESULT:      -6.7      3.318      7.242
  Name = 
  12 active torsions:
  status: ('A' for Active; 'I' for Inactive)
    1  A    between atoms: C_4  and  C_6
    2  A    between atoms: C_4  and  C_30
    3  A    between atoms: C_6  and  C_13
    4  A    between atoms: C_6  and  C_50
    5  A    between atoms: C_11  and  C_14
    6  A    between atoms: N_12  and  C_13
    7  A    between atoms: C_14  and  C_16
    8  A    between atoms: C_15  and  C_22
    9  A    between atoms: C_22  and  C_31
   10  A    between atoms: C_27  and  C_48
   11  A    between atoms: C_31  and  C_47
   12  A    between atoms: C_41  and  C_50
                            x       y       z     vdW  Elec       q    Type
                         _______ _______ _______ _____ _____    ______ ____

>  <TORSDO>
F 12

$$$$
=
 OpenBabel10232410423D

 50 54  0  0  1  0  0  0  0  0999 V2000
  182.7950  176.2500  137.8750 C   0  0  0  0  0  0  0  0  0  0  0  0
  184.2000  178.1660  141.4430 C   0  0  0  0  0  2  0  0  0  0  0  0
  186.3210  179.0480  137.4540 C   0  0  0  0  0  2  0  0  0  0  0  0
  180.3850  178.9880  138.8490 O   0  0  0  0  0  1  0  0  0  0  0  0
  184.5190  177.7370  138.9010 C   0  0  0  0  0  0  0  0  0  0  0  0
  182.3000  178.0370  140.0820 C   0  0  0  0  0  0  0  0  0  0  0  0
  181.8000  175.3360  135.7680 C   0  0  0  0  0  0  0  0  0  0  0  0
  180.8750  177.4440  136.6060 C   0  0  0  0  0  2  0  0  0  0  0  0
  186.6870  176.5240  137.3320 C   0  0  0  0  0  2  0  0  0  0  0  0
  186.5860  178.6910  139.8750 O   0  0  0  0  0  1  0  0  0  0  0  0
  180.7760  177.5760  141.8470 O   0  0  0  0  0  1  0  0  0  0  0  0
  181.4760  178.1070  138.8660 C   0  0  0  0  0  0  0  0  0  0  0  0
  185.2210  176.3260  136.9210 C   0  0  1  0  0  3  0  0  0  0  0  0
  182.9700  178.3820  142.3390 C   0  0  2  0  0  3  0  0  0  0  0  0
  184.1910  176.8750  137.9010 C   0  0  0  0  0  0  0  0  0  0  0  0
  187.2220  177.9160  136.9410 C   0  0  2  0  0  3  0  0  0  0  0  0
  182.6040  175.1800  136.8240 C   0  0  0  0  0  3  0  0  0  0  0  0
  183.6280  177.9150  140.0900 C   0  0  0  0  0  0  0  0  0  0  0  0
  181.6910  177.2910  137.8220 C   0  0  0  0  0  0  0  0  0  0  0  0
  180.9240  176.5240  135.6410 C   0  0  0  0  0  3  0  0  0  0  0  0
  185.6750  178.7360  138.8060 C   0  0  1  0  0  3  0  0  0  0  0  0
  184.9440  176.7510  135.4820 C   0  0  0  0  0  1  0  0  0  0  0  0
  181.7640  178.4610  141.3990 C   0  0  1  0  0  3  0  0  0  0  0  0
  188.7400  178.1910  137.1190 C   0  0  1  0  0  3  0  0  0  0  0  0
  188.9450  179.5590  137.3130 O   0  0  0  0  0  1  0  0  0  0  0  0
  189.5550  177.3990  138.1780 C   0  0  1  0  0  3  0  0  0  0  0  0
  189.5360  177.9010  139.6280 C   0  0  0  0  0  2  0  0  0  0  0  0
  189.3530  176.7280  140.4670 N   0  0  0  0  0  2  0  0  0  0  0  0
  190.1530  175.7330  142.3950 O   0  0  0  0  0  0  0  0  0  0  0  0
  189.6060  176.7470  141.8770 C   0  0  0  0  0  0  0  0  0  0  0  0
  187.6120  177.8180  142.6620 F   0  0  0  0  0  0  0  0  0  0  0  0
  189.0010  177.7880  142.7700 C   0  0  1  0  0  3  0  0  0  0  0  0
  189.4400  177.5740  144.2190 C   0  0  2  0  0  3  0  0  0  0  0  0
  188.4640  178.0330  145.0980 F   0  0  0  0  0  0  0  0  0  0  0  0
  190.7670  178.2140  144.4990 C   0  0  0  0  0  0  0  0  0  0  0  0
  191.6360  177.5490  145.1420 O   0  0  0  0  0  0  0  0  0  0  0  0
  191.0870  179.5200  144.0210 N   0  0  0  0  0  1  0  0  0  0  0  0
  189.3500  175.8860  138.0960 C   0  0  0  0  0  2  0  0  0  0  0  0
  190.5240  175.2190  137.3790 C   0  0  0  0  0  2  0  0  0  0  0  0
  191.7280  176.1400  137.3850 C   0  0  0  0  0  1  0  0  0  0  0  0
  181.6700  174.1900  134.8110 C   0  0  2  0  0  3  0  0  0  0  0  0
  180.2890  173.7020  134.7750 N   0  0  0  0  0  1  0  0  0  0  0  0
  182.3020  171.9650  135.8660 C   0  0  0  0  0  3  0  0  0  0  0  0
  184.9330  172.2280  134.9740 C   0  0  0  0  0  3  0  0  0  0  0  0
  182.6470  173.0640  135.0570 C   0  0  0  0  0  0  0  0  0  0  0  0
  183.9790  173.1910  134.6210 C   0  0  0  0  0  3  0  0  0  0  0  0
  184.5750  171.1400  135.7700 C   0  0  0  0  0  3  0  0  0  0  0  0
  183.2590  171.0150  136.2260 C   0  0  0  0  0  3  0  0  0  0  0  0
  183.5250  179.1740  144.7190 C   0  0  0  0  0  1  0  0  0  0  0  0
  183.1310  179.5950  143.2890 C   0  0  0  0  0  2  0  0  0  0  0  0
  1 15  1  0  0  0  0
  2 14  1  0  0  0  0
  3 21  1  0  0  0  0
  4 12  1  0  0  0  0
  5 18  1  0  0  0  0
  6 18  2  0  0  0  0
  6 23  1  0  0  0  0
  7 17  1  0  0  0  0
  8 19  1  0  0  0  0
 12  6  1  0  0  0  0
 13 22  1  6  0  0  0
 13  9  1  0  0  0  0
 13 15  1  0  0  0  0
 14 50  1  6  0  0  0
 15  5  2  0  0  0  0
 16 24  1  1  0  0  0
 16  9  1  0  0  0  0
 16  3  1  0  0  0  0
 17  1  2  0  0  0  0
 18  2  1  0  0  0  0
 19  1  1  0  0  0  0
 19 12  2  0  0  0  0
 20  7  2  0  0  0  0
 20  8  1  0  0  0  0
 21  5  1  0  0  0  0
 21 10  1  1  0  0  0
 23 11  1  1  0  0  0
 23 14  1  0  0  0  0
 24 25  1  1  0  0  0
 24 26  1  0  0  0  0
 26 38  1  1  0  0  0
 26 27  1  0  0  0  0
 27 28  1  0  0  0  0
 28 30  1  0  0  0  0
 30 29  2  0  0  0  0
 30 32  1  0  0  0  0
 32 31  1  1  0  0  0
 32 33  1  0  0  0  0
 33 35  1  0  0  0  0
 33 34  1  1  0  0  0
 35 36  2  0  0  0  0
 37 35  1  0  0  0  0
 39 40  1  0  0  0  0
 39 38  1  0  0  0  0
 41 42  1  1  0  0  0
 41 45  1  0  0  0  0
 41  7  1  0  0  0  0
 43 48  1  0  0  0  0
 44 47  1  0  0  0  0
 45 43  2  0  0  0  0
 46 44  2  0  0  0  0
 46 45  1  0  0  0  0
 47 48  2  0  0  0  0
 50 49  1  0  0  0  0
M  END
>  <MODEL>
5

>  <REMARK>
 VINA RESULT:      -6.7      3.111      7.655
  Name = 
  12 active torsions:
  status: ('A' for Active; 'I' for Inactive)
    1  A    between atoms: C_4  and  C_6
    2  A    between atoms: C_4  and  C_30
    3  A    between atoms: C_6  and  C_13
    4  A    between atoms: C_6  and  C_50
    5  A    between atoms: C_11  and  C_14
    6  A    between atoms: N_12  and  C_13
    7  A    between atoms: C_14  and  C_16
    8  A    between atoms: C_15  and  C_22
    9  A    between atoms: C_22  and  C_31
   10  A    between atoms: C_27  and  C_48
   11  A    between atoms: C_31  and  C_47
   12  A    between atoms: C_41  and  C_50
                            x       y       z     vdW  Elec       q    Type
                         _______ _______ _______ _____ _____    ______ ____

>  <TORSDO>
F 12

$$$$
=
 OpenBabel10232410423D

 50 54  0  0  1  0  0  0  0  0999 V2000
  185.3760  178.0320  143.8460 C   0  0  2  0  0  3  0  0  0  0  0  0
  189.0320  176.8470  145.7440 C   0  0  0  0  0  2  0  0  0  0  0  0
  189.2320  179.2030  141.7960 C   0  0  0  0  0  2  0  0  0  0  0  0
  185.9850  180.2290  146.8540 O   0  0  0  0  0  1  0  0  0  0  0  0
  187.8680  177.9540  143.7030 C   0  0  0  0  0  0  0  0  0  0  0  0
  187.1440  178.1780  146.1190 C   0  0  0  0  0  0  0  0  0  0  0  0
  183.2490  178.9440  142.8930 C   0  0  0  0  0  0  0  0  0  0  0  0
  184.3530  180.2840  144.6200 C   0  0  0  0  0  3  0  0  0  0  0  0
  187.8140  177.3080  140.8380 C   0  0  0  0  0  2  0  0  0  0  0  0
  190.2200  177.4050  143.1550 O   0  0  0  0  0  1  0  0  0  0  0  0
  186.6340  177.2720  148.2560 O   0  0  0  0  0  1  0  0  0  0  0  0
  186.1340  179.2230  145.8890 C   0  0  0  0  0  0  0  0  0  0  0  0
  186.5700  177.8810  141.5320 C   0  0  1  0  0  3  0  0  0  0  0  0
  188.7660  176.8640  147.2590 C   0  0  2  0  0  3  0  0  0  0  0  0
  186.6800  178.0270  143.0440 C   0  0  0  0  0  0  0  0  0  0  0  0
  188.8720  178.3910  140.5440 C   0  0  2  0  0  3  0  0  0  0  0  0
  184.1220  177.9380  143.0060 C   0  0  0  0  0  3  0  0  0  0  0  0
  187.9220  177.6580  145.1690 C   0  0  0  0  0  0  0  0  0  0  0  0
  185.3050  179.1810  144.8340 C   0  0  0  0  0  0  0  0  0  0  0  0
  183.3850  180.1720  143.7090 C   0  0  0  0  0  3  0  0  0  0  0  0
  189.2030  178.3720  143.0800 C   0  0  1  0  0  3  0  0  0  0  0  0
  186.0410  179.1430  140.8590 C   0  0  0  0  0  1  0  0  0  0  0  0
  187.6360  177.8720  147.4840 C   0  0  1  0  0  3  0  0  0  0  0  0
  190.0970  177.9980  139.6750 C   0  0  1  0  0  3  0  0  0  0  0  0
  190.7190  176.8760  140.2280 O   0  0  0  0  0  1  0  0  0  0  0  0
  189.9290  177.7850  138.1450 C   0  0  1  0  0  3  0  0  0  0  0  0
  190.2970  176.4150  137.5630 C   0  0  0  0  0  2  0  0  0  0  0  0
  191.5410  176.5990  136.8330 N   0  0  0  0  0  2  0  0  0  0  0  0
  193.8100  176.9080  137.1600 O   0  0  0  0  0  0  0  0  0  0  0  0
  192.8050  176.1650  137.3490 C   0  0  0  0  0  0  0  0  0  0  0  0
  192.0020  173.9100  137.4110 F   0  0  0  0  0  0  0  0  0  0  0  0
  193.0130  174.7660  137.8440 C   0  0  1  0  0  3  0  0  0  0  0  0
  194.3920  174.2490  137.4300 C   0  0  2  0  0  3  0  0  0  0  0  0
  194.2690  173.1140  136.6350 F   0  0  0  0  0  0  0  0  0  0  0  0
  195.2680  173.9870  138.6190 C   0  0  0  0  0  0  0  0  0  0  0  0
  195.6390  172.7950  138.8460 O   0  0  0  0  0  0  0  0  0  0  0  0
  195.7280  175.0440  139.4610 N   0  0  0  0  0  1  0  0  0  0  0  0
  188.5950  178.2970  137.6030 C   0  0  0  0  0  2  0  0  0  0  0  0
  187.6840  177.1320  137.2170 C   0  0  0  0  0  2  0  0  0  0  0  0
  186.2790  177.6360  136.9520 C   0  0  0  0  0  1  0  0  0  0  0  0
  182.0260  178.7190  142.0560 C   0  0  2  0  0  3  0  0  0  0  0  0
  181.0710  177.8600  142.7580 N   0  0  0  0  0  1  0  0  0  0  0  0
  182.6650  179.0800  139.6220 C   0  0  0  0  0  3  0  0  0  0  0  0
  182.1740  176.3960  139.0380 C   0  0  0  0  0  3  0  0  0  0  0  0
  182.3140  178.2030  140.6650 C   0  0  0  0  0  0  0  0  0  0  0  0
  182.0590  176.8530  140.3570 C   0  0  0  0  0  3  0  0  0  0  0  0
  182.5300  177.2740  138.0150 C   0  0  0  0  0  3  0  0  0  0  0  0
  182.7650  178.6220  138.3060 C   0  0  0  0  0  3  0  0  0  0  0  0
  191.3300  176.7270  147.3320 C   0  0  0  0  0  1  0  0  0  0  0  0
  190.0480  177.1310  148.0860 C   0  0  0  0  0  2  0  0  0  0  0  0
  1 17  1  6  0  0  0
  1 19  1  0  0  0  0
  2 14  1  0  0  0  0
  3 21  1  0  0  0  0
  5 18  1  0  0  0  0
  6 23  1  0  0  0  0
  7 17  2  0  0  0  0
  7 20  1  0  0  0  0
  8 19  1  0  0  0  0
  9 13  1  0  0  0  0
 12  6  1  0  0  0  0
 12  4  1  0  0  0  0
 13 22  1  6  0  0  0
 13 15  1  0  0  0  0
 14 23  1  0  0  0  0
 14 50  1  1  0  0  0
 15  5  2  0  0  0  0
 15  1  1  0  0  0  0
 16 24  1  1  0  0  0
 16  9  1  0  0  0  0
 16  3  1  0  0  0  0
 18  2  1  0  0  0  0
 18  6  2  0  0  0  0
 19 12  2  0  0  0  0
 20  8  2  0  0  0  0
 21 10  1  6  0  0  0
 21  5  1  0  0  0  0
 23 11  1  1  0  0  0
 24 25  1  1  0  0  0
 26 27  1  1  0  0  0
 26 24  1  0  0  0  0
 28 30  1  0  0  0  0
 28 27  1  0  0  0  0
 29 30  2  0  0  0  0
 30 32  1  0  0  0  0
 32 31  1  6  0  0  0
 33 34  1  1  0  0  0
 33 32  1  0  0  0  0
 33 35  1  0  0  0  0
 35 36  2  0  0  0  0
 35 37  1  0  0  0  0
 38 26  1  0  0  0  0
 39 38  1  0  0  0  0
 40 39  1  0  0  0  0
 41 42  1  1  0  0  0
 41  7  1  0  0  0  0
 43 45  1  0  0  0  0
 44 46  1  0  0  0  0
 45 41  1  0  0  0  0
 46 45  2  0  0  0  0
 47 48  1  0  0  0  0
 47 44  2  0  0  0  0
 48 43  2  0  0  0  0
 49 50  1  0  0  0  0
M  END
>  <MODEL>
6

>  <REMARK>
 VINA RESULT:      -6.6      3.653      8.704
  Name = 
  12 active torsions:
  status: ('A' for Active; 'I' for Inactive)
    1  A    between atoms: C_4  and  C_6
    2  A    between atoms: C_4  and  C_30
    3  A    between atoms: C_6  and  C_13
    4  A    between atoms: C_6  and  C_50
    5  A    between atoms: C_11  and  C_14
    6  A    between atoms: N_12  and  C_13
    7  A    between atoms: C_14  and  C_16
    8  A    between atoms: C_15  and  C_22
    9  A    between atoms: C_22  and  C_31
   10  A    between atoms: C_27  and  C_48
   11  A    between atoms: C_31  and  C_47
   12  A    between atoms: C_41  and  C_50
                            x       y       z     vdW  Elec       q    Type
                         _______ _______ _______ _____ _____    ______ ____

>  <TORSDO>
F 12

$$$$
=
 OpenBabel10232410423D

 50 54  0  0  1  0  0  0  0  0999 V2000
  187.3980  178.7850  141.3590 C   0  0  0  0  0  0  0  0  0  0  0  0
  184.4700  179.3800  138.2850 C   0  0  0  0  0  2  0  0  0  0  0  0
  187.6710  176.1230  137.7150 C   0  0  0  0  0  2  0  0  0  0  0  0
  184.0930  177.3580  142.4950 O   0  0  0  0  0  1  0  0  0  0  0  0
  186.6130  178.1440  139.0770 C   0  0  0  0  0  0  0  0  0  0  0  0
  184.6360  178.7560  140.5350 C   0  0  0  0  0  0  0  0  0  0  0  0
  188.9300  178.2710  143.2710 C   0  0  0  0  0  0  0  0  0  0  0  0
  186.7400  177.1750  143.2800 C   0  0  0  0  0  3  0  0  0  0  0  0
  189.3540  178.0180  138.0270 C   0  0  0  0  0  2  0  0  0  0  0  0
  186.3200  177.8720  136.6330 O   0  0  0  0  0  1  0  0  0  0  0  0
  182.9990  180.2860  141.3270 O   0  0  0  0  0  1  0  0  0  0  0  0
  185.0690  178.0020  141.7210 C   0  0  0  0  0  0  0  0  0  0  0  0
  189.0970  178.0040  139.5400 C   0  0  1  0  0  3  0  0  0  0  0  0
  183.1790  179.8280  138.9900 C   0  0  2  0  0  3  0  0  0  0  0  0
  187.6480  178.2290  139.9550 C   0  0  0  0  0  0  0  0  0  0  0  0
  189.0720  176.6510  137.3720 C   0  0  2  0  0  3  0  0  0  0  0  0
  188.6480  178.9960  142.1830 C   0  0  0  0  0  3  0  0  0  0  0  0
  185.2930  178.7820  139.3750 C   0  0  0  0  0  0  0  0  0  0  0  0
  186.3500  177.9940  142.1210 C   0  0  2  0  0  3  0  0  0  0  0  0
  187.9520  177.3060  143.8230 C   0  0  0  0  0  3  0  0  0  0  0  0
  186.6260  177.2330  137.8460 C   0  0  1  0  0  3  0  0  0  0  0  0
  189.7270  176.8040  140.2400 C   0  0  0  0  0  1  0  0  0  0  0  0
  183.2460  179.2580  140.4090 C   0  0  1  0  0  3  0  0  0  0  0  0
  189.4700  176.4580  135.8840 C   0  0  1  0  0  3  0  0  0  0  0  0
  189.6320  177.7080  135.2800 O   0  0  0  0  0  1  0  0  0  0  0  0
  190.6760  175.5530  135.5120 C   0  0  1  0  0  3  0  0  0  0  0  0
  191.5560  175.0190  136.6500 C   0  0  0  0  0  2  0  0  0  0  0  0
  192.3770  176.1350  137.0920 N   0  0  0  0  0  2  0  0  0  0  0  0
  193.6800  176.8380  138.8690 O   0  0  0  0  0  0  0  0  0  0  0  0
  193.4920  175.9640  137.9760 C   0  0  0  0  0  0  0  0  0  0  0  0
  194.1830  173.6730  138.0750 F   0  0  0  0  0  0  0  0  0  0  0  0
  194.5680  174.9580  137.6980 C   0  0  1  0  0  3  0  0  0  0  0  0
  194.9780  175.0040  136.2250 C   0  0  2  0  0  3  0  0  0  0  0  0
  195.5680  173.8030  135.8450 F   0  0  0  0  0  0  0  0  0  0  0  0
  195.8790  176.1680  135.9340 C   0  0  0  0  0  0  0  0  0  0  0  0
  195.3660  177.2290  135.4660 O   0  0  0  0  0  0  0  0  0  0  0  0
  197.2780  176.1240  136.2180 N   0  0  0  0  0  1  0  0  0  0  0  0
  190.3270  174.4620  134.5000 C   0  0  0  0  0  2  0  0  0  0  0  0
  188.8940  173.9700  134.7060 C   0  0  0  0  0  2  0  0  0  0  0  0
  188.8780  172.8090  135.6800 C   0  0  0  0  0  1  0  0  0  0  0  0
  190.1850  178.5960  144.0230 C   0  0  2  0  0  3  0  0  0  0  0  0
  191.3280  178.6760  143.1100 N   0  0  0  0  0  1  0  0  0  0  0  0
  189.7200  177.7450  146.3720 C   0  0  0  0  0  3  0  0  0  0  0  0
  191.9700  176.0970  146.2790 C   0  0  0  0  0  3  0  0  0  0  0  0
  190.4700  177.6710  145.1830 C   0  0  0  0  0  0  0  0  0  0  0  0
  191.6080  176.8440  145.1510 C   0  0  0  0  0  3  0  0  0  0  0  0
  191.2140  176.1730  147.4480 C   0  0  0  0  0  3  0  0  0  0  0  0
  190.0920  177.0070  147.4980 C   0  0  0  0  0  3  0  0  0  0  0  0
  181.9220  177.9770  137.7280 C   0  0  0  0  0  1  0  0  0  0  0  0
  181.9050  179.4450  138.1970 C   0  0  0  0  0  2  0  0  0  0  0  0
  1 19  1  0  0  0  0
  1 17  1  0  0  0  0
  2 14  1  0  0  0  0
  2 18  1  0  0  0  0
  3 21  1  0  0  0  0
  5 18  2  0  0  0  0
  5 15  1  0  0  0  0
  6 12  2  0  0  0  0
  7 20  1  0  0  0  0
  7 41  1  0  0  0  0
  8 20  2  0  0  0  0
  9 13  1  0  0  0  0
 12 19  1  0  0  0  0
 12  4  1  0  0  0  0
 13 15  1  0  0  0  0
 13 22  1  6  0  0  0
 14 50  1  6  0  0  0
 14 23  1  0  0  0  0
 15  1  2  0  0  0  0
 16 24  1  6  0  0  0
 16  3  1  0  0  0  0
 16  9  1  0  0  0  0
 17  7  2  0  0  0  0
 18  6  1  0  0  0  0
 19  8  1  6  0  0  0
 21 10  1  6  0  0  0
 21  5  1  0  0  0  0
 23  6  1  0  0  0  0
 23 11  1  1  0  0  0
 24 25  1  1  0  0  0
 26 38  1  1  0  0  0
 26 24  1  0  0  0  0
 26 27  1  0  0  0  0
 27 28  1  0  0  0  0
 28 30  1  0  0  0  0
 30 29  2  0  0  0  0
 32 30  1  0  0  0  0
 32 31  1  6  0  0  0
 33 34  1  1  0  0  0
 33 32  1  0  0  0  0
 35 37  1  0  0  0  0
 35 33  1  0  0  0  0
 36 35  2  0  0  0  0
 38 39  1  0  0  0  0
 39 40  1  0  0  0  0
 41 42  1  6  0  0  0
 41 45  1  0  0  0  0
 43 48  1  0  0  0  0
 44 47  1  0  0  0  0
 45 43  2  0  0  0  0
 46 45  1  0  0  0  0
 46 44  2  0  0  0  0
 47 48  2  0  0  0  0
 49 50  1  0  0  0  0
M  END
>  <MODEL>
7

>  <REMARK>
 VINA RESULT:      -6.4      4.101     10.005
  Name = 
  12 active torsions:
  status: ('A' for Active; 'I' for Inactive)
    1  A    between atoms: C_4  and  C_6
    2  A    between atoms: C_4  and  C_30
    3  A    between atoms: C_6  and  C_13
    4  A    between atoms: C_6  and  C_50
    5  A    between atoms: C_11  and  C_14
    6  A    between atoms: N_12  and  C_13
    7  A    between atoms: C_14  and  C_16
    8  A    between atoms: C_15  and  C_22
    9  A    between atoms: C_22  and  C_31
   10  A    between atoms: C_27  and  C_48
   11  A    between atoms: C_31  and  C_47
   12  A    between atoms: C_41  and  C_50
                            x       y       z     vdW  Elec       q    Type
                         _______ _______ _______ _____ _____    ______ ____

>  <TORSDO>
F 12

$$$$
=
 OpenBabel10232410423D

 50 54  0  0  1  0  0  0  0  0999 V2000
  185.2370  178.8550  138.9250 C   0  0  0  0  0  0  0  0  0  0  0  0
  189.4510  178.2040  138.4890 C   0  0  0  0  0  2  0  0  0  0  0  0
  187.3490  176.7220  142.3060 C   0  0  0  0  0  2  0  0  0  0  0  0
  185.8150  176.0740  136.4400 O   0  0  0  0  0  1  0  0  0  0  0  0
  187.3360  178.0150  139.9850 C   0  0  0  0  0  0  0  0  0  0  0  0
  187.4150  177.6360  137.4830 C   0  0  0  0  0  0  0  0  0  0  0  0
  182.7410  179.0030  139.0460 C   0  0  0  0  0  0  0  0  0  0  0  0
  183.6800  177.0520  137.9030 C   0  0  0  0  0  3  0  0  0  0  0  0
  186.6260  179.1530  142.5990 C   0  0  0  0  0  2  0  0  0  0  0  0
  189.3810  177.7300  141.3520 O   0  0  0  0  0  1  0  0  0  0  0  0
  188.0580  178.2550  135.2800 O   0  0  0  0  0  1  0  0  0  0  0  0
  186.0480  177.1100  137.3550 C   0  0  0  0  0  0  0  0  0  0  0  0
  185.5580  178.9720  141.5110 C   0  0  1  0  0  3  0  0  0  0  0  0
  189.7120  178.0090  136.9860 C   0  0  2  0  0  3  0  0  0  0  0  0
  186.0830  178.5180  140.1550 C   0  0  0  0  0  0  0  0  0  0  0  0
  186.9740  177.8260  143.3040 C   0  0  2  0  0  3  0  0  0  0  0  0
  183.9380  179.5670  139.2320 C   0  0  0  0  0  3  0  0  0  0  0  0
  187.9830  177.9920  138.6360 C   0  0  0  0  0  0  0  0  0  0  0  0
  185.0180  177.6550  138.0220 C   0  0  2  0  0  3  0  0  0  0  0  0
  182.6090  177.6860  138.3820 C   0  0  0  0  0  3  0  0  0  0  0  0
  188.0900  177.2500  141.0750 C   0  0  1  0  0  3  0  0  0  0  0  0
  184.3620  178.1500  141.9810 C   0  0  0  0  0  1  0  0  0  0  0  0
  188.4060  177.4760  136.3910 C   0  0  1  0  0  3  0  0  0  0  0  0
  187.8940  177.8830  144.5530 C   0  0  1  0  0  3  0  0  0  0  0  0
  188.5720  179.1050  144.5760 O   0  0  0  0  0  1  0  0  0  0  0  0
  187.3080  177.6000  145.9640 C   0  0  1  0  0  3  0  0  0  0  0  0
  188.0700  176.6330  146.8800 C   0  0  0  0  0  2  0  0  0  0  0  0
  189.1680  177.3930  147.4550 N   0  0  0  0  0  2  0  0  0  0  0  0
  191.4310  177.2470  147.9140 O   0  0  0  0  0  0  0  0  0  0  0  0
  190.5260  177.2160  147.0320 C   0  0  0  0  0  0  0  0  0  0  0  0
  192.0070  178.1140  145.3780 F   0  0  0  0  0  0  0  0  0  0  0  0
  190.9130  177.2770  145.5850 C   0  0  1  0  0  3  0  0  0  0  0  0
  191.1780  175.8720  145.0420 C   0  0  2  0  0  3  0  0  0  0  0  0
  192.3700  175.3680  145.5540 F   0  0  0  0  0  0  0  0  0  0  0  0
  191.1780  175.8460  143.5420 C   0  0  0  0  0  0  0  0  0  0  0  0
  190.4030  175.0340  142.9510 O   0  0  0  0  0  0  0  0  0  0  0  0
  191.9840  176.7410  142.7750 N   0  0  0  0  0  1  0  0  0  0  0  0
  186.8690  178.8620  146.7040 C   0  0  0  0  0  2  0  0  0  0  0  0
  185.3950  178.7730  147.1000 C   0  0  0  0  0  2  0  0  0  0  0  0
  184.5380  178.5530  145.8700 C   0  0  0  0  0  1  0  0  0  0  0  0
  181.5250  179.8230  139.3580 C   0  0  2  0  0  3  0  0  0  0  0  0
  180.4040  178.9600  139.7380 N   0  0  0  0  0  1  0  0  0  0  0  0
  180.8030  180.3320  136.9740 C   0  0  0  0  0  3  0  0  0  0  0  0
  181.0520  183.0740  137.4260 C   0  0  0  0  0  3  0  0  0  0  0  0
  181.1320  180.7890  138.2640 C   0  0  0  0  0  0  0  0  0  0  0  0
  181.2640  182.1740  138.4780 C   0  0  0  0  0  3  0  0  0  0  0  0
  180.7180  182.6080  136.1550 C   0  0  0  0  0  3  0  0  0  0  0  0
  180.6050  181.2330  135.9260 C   0  0  0  0  0  3  0  0  0  0  0  0
  190.9400  175.8130  137.5080 C   0  0  0  0  0  1  0  0  0  0  0  0
  190.9570  177.1300  136.7080 C   0  0  0  0  0  2  0  0  0  0  0  0
  1 17  1  0  0  0  0
  1 15  2  0  0  0  0
  2 18  1  0  0  0  0
  3 16  1  0  0  0  0
  4 12  1  0  0  0  0
  5 15  1  0  0  0  0
  5 21  1  0  0  0  0
  6 18  1  0  0  0  0
  7 17  2  0  0  0  0
  7 41  1  0  0  0  0
  8 20  2  0  0  0  0
  9 16  1  0  0  0  0
 12  6  2  0  0  0  0
 12 19  1  0  0  0  0
 13 22  1  1  0  0  0
 13  9  1  0  0  0  0
 14 50  1  1  0  0  0
 14  2  1  0  0  0  0
 15 13  1  0  0  0  0
 16 24  1  1  0  0  0
 18  5  2  0  0  0  0
 19  8  1  1  0  0  0
 19  1  1  0  0  0  0
 20  7  1  0  0  0  0
 21 10  1  1  0  0  0
 21  3  1  0  0  0  0
 23 11  1  6  0  0  0
 23 14  1  0  0  0  0
 23  6  1  0  0  0  0
 24 25  1  1  0  0  0
 24 26  1  0  0  0  0
 26 38  1  1  0  0  0
 26 27  1  0  0  0  0
 27 28  1  0  0  0  0
 30 28  1  0  0  0  0
 30 29  2  0  0  0  0
 32 31  1  1  0  0  0
 32 30  1  0  0  0  0
 33 34  1  6  0  0  0
 33 32  1  0  0  0  0
 35 33  1  0  0  0  0
 36 35  2  0  0  0  0
 37 35  1  0  0  0  0
 38 39  1  0  0  0  0
 40 39  1  0  0  0  0
 41 42  1  6  0  0  0
 43 45  1  0  0  0  0
 44 46  1  0  0  0  0
 45 46  2  0  0  0  0
 45 41  1  0  0  0  0
 47 44  2  0  0  0  0
 48 47  1  0  0  0  0
 48 43  2  0  0  0  0
 50 49  1  0  0  0  0
M  END
>  <MODEL>
8

>  <REMARK>
 VINA RESULT:      -6.3      3.014      4.744
  Name = 
  12 active torsions:
  status: ('A' for Active; 'I' for Inactive)
    1  A    between atoms: C_4  and  C_6
    2  A    between atoms: C_4  and  C_30
    3  A    between atoms: C_6  and  C_13
    4  A    between atoms: C_6  and  C_50
    5  A    between atoms: C_11  and  C_14
    6  A    between atoms: N_12  and  C_13
    7  A    between atoms: C_14  and  C_16
    8  A    between atoms: C_15  and  C_22
    9  A    between atoms: C_22  and  C_31
   10  A    between atoms: C_27  and  C_48
   11  A    between atoms: C_31  and  C_47
   12  A    between atoms: C_41  and  C_50
                            x       y       z     vdW  Elec       q    Type
                         _______ _______ _______ _____ _____    ______ ____

>  <TORSDO>
F 12

$$$$
=
 OpenBabel10232410423D

 50 54  0  0  1  0  0  0  0  0999 V2000
  188.2910  175.9140  136.6070 C   0  0  0  0  0  0  0  0  0  0  0  0
  184.8260  177.4680  138.5930 C   0  0  0  0  0  2  0  0  0  0  0  0
  188.9900  178.9090  139.9210 C   0  0  0  0  0  2  0  0  0  0  0  0
  186.5720  178.4010  134.3460 O   0  0  0  0  0  1  0  0  0  0  0  0
  187.4160  177.3530  138.4500 C   0  0  0  0  0  0  0  0  0  0  0  0
  185.8280  177.4070  136.4790 C   0  0  0  0  0  0  0  0  0  0  0  0
  190.2820  175.2040  135.2660 C   0  0  0  0  0  0  0  0  0  0  0  0
  189.0390  177.1530  134.4560 C   0  0  0  0  0  3  0  0  0  0  0  0
  189.4850  176.4360  140.3240 C   0  0  0  0  0  2  0  0  0  0  0  0
  186.7190  178.2860  140.6360 O   0  0  0  0  0  1  0  0  0  0  0  0
  183.8900  176.6710  135.3180 O   0  0  0  0  0  1  0  0  0  0  0  0
  186.8590  177.5770  135.4440 C   0  0  0  0  0  0  0  0  0  0  0  0
  189.6480  176.2170  138.8130 C   0  0  1  0  0  3  0  0  0  0  0  0
  183.7030  177.5200  137.5430 C   0  0  2  0  0  3  0  0  0  0  0  0
  188.4400  176.5990  137.9670 C   0  0  0  0  0  0  0  0  0  0  0  0
  189.7910  177.8890  140.7420 C   0  0  2  0  0  3  0  0  0  0  0  0
  189.4150  174.9650  136.2540 C   0  0  0  0  0  3  0  0  0  0  0  0
  186.0740  177.3490  137.7880 C   0  0  0  0  0  0  0  0  0  0  0  0
  188.0170  176.9000  135.4850 C   0  0  2  0  0  3  0  0  0  0  0  0
  190.1030  176.3550  134.3510 C   0  0  0  0  0  3  0  0  0  0  0  0
  187.5930  178.4110  139.5430 C   0  0  1  0  0  3  0  0  0  0  0  0
  190.9510  176.7920  138.2660 C   0  0  0  0  0  1  0  0  0  0  0  0
  184.3950  177.6490  136.1830 C   0  0  1  0  0  3  0  0  0  0  0  0
  189.8560  178.2140  142.2580 C   0  0  1  0  0  3  0  0  0  0  0  0
  189.1270  179.3780  142.5160 O   0  0  0  0  0  1  0  0  0  0  0  0
  189.4720  177.1300  143.3030 C   0  0  1  0  0  3  0  0  0  0  0  0
  187.9860  176.9440  143.6360 C   0  0  0  0  0  2  0  0  0  0  0  0
  187.9000  176.8320  145.0830 N   0  0  0  0  0  2  0  0  0  0  0  0
  187.5020  178.0940  146.9810 O   0  0  0  0  0  0  0  0  0  0  0  0
  187.0590  177.6850  145.8700 C   0  0  0  0  0  0  0  0  0  0  0  0
  184.8310  177.9600  146.7020 F   0  0  0  0  0  0  0  0  0  0  0  0
  185.6070  177.8690  145.5490 C   0  0  1  0  0  3  0  0  0  0  0  0
  185.4070  179.0880  144.6470 C   0  0  2  0  0  3  0  0  0  0  0  0
  185.4520  180.2610  145.3950 F   0  0  0  0  0  0  0  0  0  0  0  0
  184.1340  178.9960  143.8600 C   0  0  0  0  0  0  0  0  0  0  0  0
  184.1990  179.0570  142.5940 O   0  0  0  0  0  0  0  0  0  0  0  0
  182.8710  178.7930  144.4950 N   0  0  0  0  0  1  0  0  0  0  0  0
  190.1800  175.7940  143.0820 C   0  0  0  0  0  2  0  0  0  0  0  0
  191.6060  175.8390  143.6290 C   0  0  0  0  0  2  0  0  0  0  0  0
  191.5860  176.1690  145.1080 C   0  0  0  0  0  1  0  0  0  0  0  0
  191.3340  174.1710  134.9930 C   0  0  2  0  0  3  0  0  0  0  0  0
  190.8170  172.8260  135.2540 N   0  0  0  0  0  1  0  0  0  0  0  0
  192.8740  173.8690  136.9920 C   0  0  0  0  0  3  0  0  0  0  0  0
  194.7100  175.6770  135.9210 C   0  0  0  0  0  3  0  0  0  0  0  0
  192.6400  174.4110  135.7150 C   0  0  0  0  0  0  0  0  0  0  0  0
  193.5670  175.3290  135.1890 C   0  0  0  0  0  3  0  0  0  0  0  0
  194.9330  175.1260  137.1820 C   0  0  0  0  0  3  0  0  0  0  0  0
  194.0080  174.2280  137.7240 C   0  0  0  0  0  3  0  0  0  0  0  0
  182.2260  178.6350  139.3240 C   0  0  0  0  0  1  0  0  0  0  0  0
  182.6560  178.6200  137.8440 C   0  0  0  0  0  2  0  0  0  0  0  0
  1 15  2  0  0  0  0
  3 16  1  0  0  0  0
  4 12  1  0  0  0  0
  5 21  1  0  0  0  0
  6 18  1  0  0  0  0
  7 17  2  0  0  0  0
  9 16  1  0  0  0  0
 12 19  1  0  0  0  0
 12  6  2  0  0  0  0
 13 22  1  6  0  0  0
 13  9  1  0  0  0  0
 14 50  1  1  0  0  0
 14  2  1  0  0  0  0
 15  5  1  0  0  0  0
 15 13  1  0  0  0  0
 16 24  1  1  0  0  0
 17  1  1  0  0  0  0
 18  5  2  0  0  0  0
 18  2  1  0  0  0  0
 19  8  1  1  0  0  0
 19  1  1  0  0  0  0
 20  8  2  0  0  0  0
 20  7  1  0  0  0  0
 21  3  1  0  0  0  0
 21 10  1  1  0  0  0
 23 11  1  6  0  0  0
 23  6  1  0  0  0  0
 23 14  1  0  0  0  0
 24 25  1  6  0  0  0
 24 26  1  0  0  0  0
 26 38  1  6  0  0  0
 26 27  1  0  0  0  0
 27 28  1  0  0  0  0
 28 30  1  0  0  0  0
 30 29  2  0  0  0  0
 32 30  1  0  0  0  0
 32 31  1  1  0  0  0
 33 34  1  1  0  0  0
 33 32  1  0  0  0  0
 35 37  1  0  0  0  0
 35 33  1  0  0  0  0
 36 35  2  0  0  0  0
 38 39  1  0  0  0  0
 39 40  1  0  0  0  0
 41 42  1  1  0  0  0
 41  7  1  0  0  0  0
 41 45  1  0  0  0  0
 43 48  1  0  0  0  0
 44 47  1  0  0  0  0
 45 43  2  0  0  0  0
 46 45  1  0  0  0  0
 46 44  2  0  0  0  0
 47 48  2  0  0  0  0
 50 49  1  0  0  0  0
M  END
>  <MODEL>
9

>  <REMARK>
 VINA RESULT:      -6.3      2.401      6.368
  Name = 
  12 active torsions:
  status: ('A' for Active; 'I' for Inactive)
    1  A    between atoms: C_4  and  C_6
    2  A    between atoms: C_4  and  C_30
    3  A    between atoms: C_6  and  C_13
    4  A    between atoms: C_6  and  C_50
    5  A    between atoms: C_11  and  C_14
    6  A    between atoms: N_12  and  C_13
    7  A    between atoms: C_14  and  C_16
    8  A    between atoms: C_15  and  C_22
    9  A    between atoms: C_22  and  C_31
   10  A    between atoms: C_27  and  C_48
   11  A    between atoms: C_31  and  C_47
   12  A    between atoms: C_41  and  C_50
                            x       y       z     vdW  Elec       q    Type
                         _______ _______ _______ _____ _____    ______ ____

>  <TORSDO>
F 12

$$$$
