=
 OpenBabel10232407493D

 32 37  0  0  1  0  0  0  0  0999 V2000
  191.9380  175.3660  136.7290 C   0  0  0  0  0  3  0  0  0  0  0  0
  189.2820  177.4230  141.7020 N   0  0  0  0  0  0  0  0  0  0  0  0
  188.3480  175.3900  137.0690 C   0  0  0  0  0  0  0  0  0  0  0  0
  191.2000  176.3200  138.7630 N   0  0  0  0  0  2  0  0  0  0  0  0
  190.2120  176.9770  139.5460 C   0  0  0  0  0  0  0  0  0  0  0  0
  189.1140  177.5990  138.9320 C   0  0  0  0  0  0  0  0  0  0  0  0
  189.0730  176.5590  136.4150 C   0  0  2  0  0  3  0  0  0  0  0  0
  187.8990  178.5950  136.8850 C   0  0  0  0  0  2  0  0  0  0  0  0
  191.2720  176.4320  137.4720 C   0  0  2  0  0  3  0  0  0  0  0  0
  190.3460  177.3290  136.6960 C   0  0  2  0  0  3  0  0  0  0  0  0
  189.0610  177.7780  137.4090 C   0  0  1  0  0  0  0  0  0  0  0  0
  191.4290  174.1290  136.7640 C   0  0  0  0  0  0  0  0  0  0  0  0
  188.1160  178.1520  139.7530 C   0  0  0  0  0  3  0  0  0  0  0  0
  190.2490  173.8620  137.5350 N   0  0  0  0  0  2  0  0  0  0  0  0
  187.0000  175.4880  137.2590 C   0  0  0  0  0  3  0  0  0  0  0  0
  186.1740  176.7360  137.0900 C   0  0  0  0  0  0  0  0  0  0  0  0
  186.8210  177.8570  136.9430 C   0  0  0  0  0  3  0  0  0  0  0  0
  188.9050  173.9930  136.9840 C   0  0  0  0  0  2  0  0  0  0  0  0
  190.2690  176.8850  140.9390 C   0  0  0  0  0  3  0  0  0  0  0  0
  188.2160  178.0500  141.1410 C   0  0  0  0  0  3  0  0  0  0  0  0
  192.5160  171.3370  134.5730 N   0  0  0  0  0  0  0  0  0  0  0  0
  191.4540  172.2680  134.9190 C   0  0  0  0  0  3  0  0  0  0  0  0
  193.5190  171.5670  135.3530 C   0  0  0  0  0  2  0  0  0  0  0  0
  192.0820  173.0330  136.0300 C   0  0  0  0  0  0  0  0  0  0  0  0
  193.2790  172.6220  136.2750 N   0  0  0  0  0  0  0  0  0  0  0  0
  184.7040  176.7290  137.3200 C   0  0  0  0  0  2  0  0  0  0  0  0
  184.2690  178.0380  137.9580 C   0  0  0  0  0  2  0  0  0  0  0  0
  183.8290  177.8100  139.3270 N   0  0  0  0  0  0  0  0  0  0  0  0
  184.2540  178.6720  140.3950 C   0  0  0  0  0  0  0  0  0  0  0  0
  182.8610  176.7500  139.5630 C   0  0  0  0  0  1  0  0  0  0  0  0
  183.8010  178.4390  141.7970 C   0  0  0  0  0  1  0  0  0  0  0  0
  185.0220  179.6420  140.1610 O   0  0  0  0  0  0  0  0  0  0  0  0
  1 12  2  0  0  0  0
  3 15  2  0  0  0  0
  4  5  1  0  0  0  0
  5 19  1  0  0  0  0
  6  5  2  0  0  0  0
  6 13  1  0  0  0  0
  7 10  1  0  0  0  0
  7  3  1  1  0  0  0
  7 11  1  0  0  0  0
  8 17  1  0  0  0  0
  8 11  1  0  0  0  0
  9  1  1  6  0  0  0
  9  4  1  0  0  0  0
 10 11  1  0  0  0  0
 10  9  1  0  0  0  0
 11  6  1  0  0  0  0
 12 14  1  0  0  0  0
 13 20  2  0  0  0  0
 16 15  1  0  0  0  0
 16 26  1  0  0  0  0
 17 16  2  0  0  0  0
 18  3  1  0  0  0  0
 18 14  1  0  0  0  0
 19  2  2  0  0  0  0
 20  2  1  0  0  0  0
 21 22  2  0  0  0  0
 21 23  1  0  0  0  0
 22 24  1  0  0  0  0
 23 25  1  0  0  0  0
 24 25  2  0  0  0  0
 24 12  1  0  0  0  0
 26 27  1  0  0  0  0
 27 28  1  0  0  0  0
 28 30  1  0  0  0  0
 28 29  1  0  0  0  0
 29 31  1  0  0  0  0
 32 29  2  0  0  0  0
M  END
>  <MODEL>
1

>  <REMARK>
 VINA RESULT:      -7.1      0.000      0.000
  Name = 
  4 active torsions:
  status: ('A' for Active; 'I' for Inactive)
    1  A    between atoms: N_2  and  C_7
    2  A    between atoms: C_7  and  C_16
    3  A    between atoms: C_16  and  C_24
    4  A    between atoms: C_18  and  C_30
                            x       y       z     vdW  Elec       q    Type
                         _______ _______ _______ _____ _____    ______ ____

>  <TORSDO>
F 4

$$$$
=
 OpenBabel10232407493D

 32 37  0  0  1  0  0  0  0  0999 V2000
  192.1120  175.4010  136.9370 C   0  0  0  0  0  3  0  0  0  0  0  0
  189.1330  177.4210  141.7400 N   0  0  0  0  0  0  0  0  0  0  0  0
  188.5070  175.4540  137.0270 C   0  0  0  0  0  0  0  0  0  0  0  0
  191.2420  176.3360  138.9270 N   0  0  0  0  0  2  0  0  0  0  0  0
  190.2080  176.9930  139.6480 C   0  0  0  0  0  0  0  0  0  0  0  0
  189.1600  177.6320  138.9670 C   0  0  0  0  0  0  0  0  0  0  0  0
  189.2860  176.6250  136.4400 C   0  0  2  0  0  3  0  0  0  0  0  0
  188.0990  178.6650  136.8540 C   0  0  0  0  0  2  0  0  0  0  0  0
  191.4050  176.4640  137.6450 C   0  0  2  0  0  3  0  0  0  0  0  0
  190.5430  177.3780  136.8190 C   0  0  2  0  0  3  0  0  0  0  0  0
  189.2150  177.8310  137.4470 C   0  0  1  0  0  0  0  0  0  0  0  0
  191.5920  174.1680  136.9200 C   0  0  0  0  0  0  0  0  0  0  0  0
  188.1130  178.1840  139.7240 C   0  0  0  0  0  3  0  0  0  0  0  0
  190.3580  173.9030  137.6040 N   0  0  0  0  0  2  0  0  0  0  0  0
  187.1500  175.5620  137.1240 C   0  0  0  0  0  3  0  0  0  0  0  0
  186.3480  176.8190  136.9150 C   0  0  0  0  0  0  0  0  0  0  0  0
  187.0140  177.9360  136.8270 C   0  0  0  0  0  3  0  0  0  0  0  0
  189.0570  174.0530  136.9630 C   0  0  0  0  0  2  0  0  0  0  0  0
  190.1670  176.8830  141.0410 C   0  0  0  0  0  3  0  0  0  0  0  0
  188.1140  178.0640  141.1150 C   0  0  0  0  0  3  0  0  0  0  0  0
  193.8570  171.5900  135.5070 N   0  0  0  0  0  0  0  0  0  0  0  0
  193.7090  172.7030  136.4300 C   0  0  0  0  0  2  0  0  0  0  0  0
  192.7230  171.4060  134.9170 C   0  0  0  0  0  3  0  0  0  0  0  0
  192.2840  173.0760  136.2190 C   0  0  0  0  0  0  0  0  0  0  0  0
  191.7190  172.3190  135.3410 N   0  0  0  0  0  0  0  0  0  0  0  0
  184.8660  176.8230  137.0420 C   0  0  0  0  0  2  0  0  0  0  0  0
  184.2530  175.8590  136.0400 C   0  0  0  0  0  2  0  0  0  0  0  0
  183.7590  174.6710  136.7210 N   0  0  0  0  0  0  0  0  0  0  0  0
  184.2260  173.3610  136.3590 C   0  0  0  0  0  0  0  0  0  0  0  0
  182.8630  174.8580  137.8520 C   0  0  0  0  0  1  0  0  0  0  0  0
  183.7220  172.1450  137.0600 C   0  0  0  0  0  1  0  0  0  0  0  0
  185.0720  173.2210  135.4360 O   0  0  0  0  0  0  0  0  0  0  0  0
  3 15  2  0  0  0  0
  4  5  1  0  0  0  0
  5 19  1  0  0  0  0
  6  5  2  0  0  0  0
  6 13  1  0  0  0  0
  7 10  1  0  0  0  0
  7  3  1  1  0  0  0
  7 11  1  0  0  0  0
  8 11  1  0  0  0  0
  9  1  1  6  0  0  0
  9  4  1  0  0  0  0
 10 11  1  0  0  0  0
 10  9  1  0  0  0  0
 11  6  1  0  0  0  0
 12  1  2  0  0  0  0
 12 14  1  0  0  0  0
 13 20  2  0  0  0  0
 16 26  1  0  0  0  0
 16 15  1  0  0  0  0
 17  8  1  0  0  0  0
 17 16  2  0  0  0  0
 18  3  1  0  0  0  0
 18 14  1  0  0  0  0
 19  2  2  0  0  0  0
 20  2  1  0  0  0  0
 21 22  1  0  0  0  0
 23 25  1  0  0  0  0
 23 21  2  0  0  0  0
 24 22  1  0  0  0  0
 24 12  1  0  0  0  0
 25 24  2  0  0  0  0
 27 28  1  0  0  0  0
 27 26  1  0  0  0  0
 28 30  1  0  0  0  0
 29 28  1  0  0  0  0
 29 31  1  0  0  0  0
 32 29  2  0  0  0  0
M  END
>  <MODEL>
2

>  <REMARK>
 VINA RESULT:      -6.2      2.032      2.605
  Name = 
  4 active torsions:
  status: ('A' for Active; 'I' for Inactive)
    1  A    between atoms: N_2  and  C_7
    2  A    between atoms: C_7  and  C_16
    3  A    between atoms: C_16  and  C_24
    4  A    between atoms: C_18  and  C_30
                            x       y       z     vdW  Elec       q    Type
                         _______ _______ _______ _____ _____    ______ ____

>  <TORSDO>
F 4

$$$$
=
 OpenBabel10232407493D

 32 37  0  0  1  0  0  0  0  0999 V2000
  180.2390  175.2450  137.5430 C   0  0  0  0  0  3  0  0  0  0  0  0
  181.1350  181.1650  137.1230 N   0  0  0  0  0  0  0  0  0  0  0  0
  182.7900  176.9010  139.4820 C   0  0  0  0  0  0  0  0  0  0  0  0
  180.2810  177.5880  137.2220 N   0  0  0  0  0  2  0  0  0  0  0  0
  180.5900  178.9020  137.6670 C   0  0  0  0  0  0  0  0  0  0  0  0
  180.8730  179.1480  139.0200 C   0  0  0  0  0  0  0  0  0  0  0  0
  181.3960  176.6850  140.0580 C   0  0  2  0  0  3  0  0  0  0  0  0
  180.8400  178.5010  141.5180 C   0  0  0  0  0  2  0  0  0  0  0  0
  180.0310  176.6050  138.0330 C   0  0  2  0  0  3  0  0  0  0  0  0
  179.9830  176.7930  139.5250 C   0  0  2  0  0  3  0  0  0  0  0  0
  180.6420  178.0650  140.0820 C   0  0  1  0  0  0  0  0  0  0  0  0
  181.4700  174.8610  137.1850 C   0  0  0  0  0  0  0  0  0  0  0  0
  181.2650  180.4440  139.3930 C   0  0  0  0  0  3  0  0  0  0  0  0
  182.5630  175.7870  137.2750 N   0  0  0  0  0  2  0  0  0  0  0  0
  183.6910  177.6150  140.2170 C   0  0  0  0  0  3  0  0  0  0  0  0
  183.3830  178.4130  141.4570 C   0  0  0  0  0  0  0  0  0  0  0  0
  182.1250  178.5990  141.7420 C   0  0  0  0  0  3  0  0  0  0  0  0
  183.3690  175.9360  138.4810 C   0  0  0  0  0  2  0  0  0  0  0  0
  180.7440  179.9240  136.7280 C   0  0  0  0  0  3  0  0  0  0  0  0
  181.3960  181.4430  138.4270 C   0  0  0  0  0  3  0  0  0  0  0  0
  182.6450  171.6650  135.7070 N   0  0  0  0  0  0  0  0  0  0  0  0
  182.9340  173.0680  135.9550 C   0  0  0  0  0  3  0  0  0  0  0  0
  181.4850  171.4010  136.2090 C   0  0  0  0  0  2  0  0  0  0  0  0
  181.7100  173.4990  136.6830 C   0  0  0  0  0  0  0  0  0  0  0  0
  180.8740  172.5270  136.8280 N   0  0  0  0  0  0  0  0  0  0  0  0
  184.4470  179.1540  142.1860 C   0  0  0  0  0  2  0  0  0  0  0  0
  184.2290  179.0400  143.6860 C   0  0  0  0  0  2  0  0  0  0  0  0
  185.4050  178.4660  144.3230 N   0  0  0  0  0  0  0  0  0  0  0  0
  185.4970  178.3650  145.7540 C   0  0  0  0  0  0  0  0  0  0  0  0
  186.4350  177.8990  143.4680 C   0  0  0  0  0  1  0  0  0  0  0  0
  186.7010  177.7740  146.4070 C   0  0  0  0  0  1  0  0  0  0  0  0
  184.5560  178.7790  146.4820 O   0  0  0  0  0  0  0  0  0  0  0  0
  2 20  1  0  0  0  0
  3 15  2  0  0  0  0
  4  5  1  0  0  0  0
  4  9  1  0  0  0  0
  5  6  2  0  0  0  0
  6 13  1  0  0  0  0
  6 11  1  0  0  0  0
  7  3  1  6  0  0  0
  7 11  1  0  0  0  0
  8 17  1  0  0  0  0
  9  1  1  1  0  0  0
  9 10  1  0  0  0  0
 10  7  1  0  0  0  0
 10 11  1  0  0  0  0
 11  8  1  0  0  0  0
 12 14  1  0  0  0  0
 12  1  2  0  0  0  0
 14 18  1  0  0  0  0
 15 16  1  0  0  0  0
 16 17  2  0  0  0  0
 16 26  1  0  0  0  0
 18  3  1  0  0  0  0
 19  2  2  0  0  0  0
 19  5  1  0  0  0  0
 20 13  2  0  0  0  0
 21 22  2  0  0  0  0
 21 23  1  0  0  0  0
 22 24  1  0  0  0  0
 23 25  1  0  0  0  0
 24 25  2  0  0  0  0
 24 12  1  0  0  0  0
 26 27  1  0  0  0  0
 27 28  1  0  0  0  0
 28 29  1  0  0  0  0
 29 31  1  0  0  0  0
 29 32  2  0  0  0  0
 30 28  1  0  0  0  0
M  END
>  <MODEL>
3

>  <REMARK>
 VINA RESULT:      -6.2      6.331      8.611
  Name = 
  4 active torsions:
  status: ('A' for Active; 'I' for Inactive)
    1  A    between atoms: N_2  and  C_7
    2  A    between atoms: C_7  and  C_16
    3  A    between atoms: C_16  and  C_24
    4  A    between atoms: C_18  and  C_30
                            x       y       z     vdW  Elec       q    Type
                         _______ _______ _______ _____ _____    ______ ____

>  <TORSDO>
F 4

$$$$
=
 OpenBabel10232407493D

 32 37  0  0  1  0  0  0  0  0999 V2000
  191.6640  175.1530  136.6830 C   0  0  0  0  0  3  0  0  0  0  0  0
  189.3020  177.3990  141.7230 N   0  0  0  0  0  0  0  0  0  0  0  0
  188.1150  175.7020  137.0120 C   0  0  0  0  0  0  0  0  0  0  0  0
  191.0590  176.1310  138.7500 N   0  0  0  0  0  2  0  0  0  0  0  0
  190.1740  176.8990  139.5540 C   0  0  0  0  0  0  0  0  0  0  0  0
  189.1860  177.7000  138.9600 C   0  0  0  0  0  0  0  0  0  0  0  0
  189.0120  176.7730  136.4050 C   0  0  2  0  0  3  0  0  0  0  0  0
  188.1520  178.9430  136.9490 C   0  0  0  0  0  2  0  0  0  0  0  0
  191.1580  176.2790  137.4640 C   0  0  2  0  0  3  0  0  0  0  0  0
  190.3840  177.3320  136.7190 C   0  0  2  0  0  3  0  0  0  0  0  0
  189.1740  177.9420  137.4460 C   0  0  1  0  0  0  0  0  0  0  0  0
  190.9760  174.0060  136.6690 C   0  0  0  0  0  0  0  0  0  0  0  0
  188.2750  178.3650  139.7990 C   0  0  0  0  0  3  0  0  0  0  0  0
  189.7620  173.8910  137.4260 N   0  0  0  0  0  2  0  0  0  0  0  0
  186.7950  175.9930  137.2010 C   0  0  0  0  0  3  0  0  0  0  0  0
  186.1660  177.3560  137.0780 C   0  0  0  0  0  0  0  0  0  0  0  0
  186.9760  178.3720  136.9750 C   0  0  0  0  0  3  0  0  0  0  0  0
  188.4570  174.2410  136.8760 C   0  0  0  0  0  2  0  0  0  0  0  0
  190.2040  176.7480  140.9430 C   0  0  0  0  0  3  0  0  0  0  0  0
  188.3460  178.1990  141.1820 C   0  0  0  0  0  3  0  0  0  0  0  0
  192.7680  171.1950  135.0370 N   0  0  0  0  0  0  0  0  0  0  0  0
  192.8370  172.2900  135.9900 C   0  0  0  0  0  2  0  0  0  0  0  0
  191.5800  171.1800  134.5320 C   0  0  0  0  0  3  0  0  0  0  0  0
  191.4630  172.8530  135.8960 C   0  0  0  0  0  0  0  0  0  0  0  0
  190.7390  172.2030  135.0490 N   0  0  0  0  0  0  0  0  0  0  0  0
  184.7100  177.5610  137.3030 C   0  0  0  0  0  2  0  0  0  0  0  0
  184.0650  176.2640  137.7630 C   0  0  0  0  0  2  0  0  0  0  0  0
  182.6340  176.4530  137.9530 N   0  0  0  0  0  0  0  0  0  0  0  0
  182.0820  176.6600  139.2630 C   0  0  0  0  0  0  0  0  0  0  0  0
  181.7950  176.5360  136.7680 C   0  0  0  0  0  1  0  0  0  0  0  0
  180.6160  176.8570  139.4570 C   0  0  0  0  0  1  0  0  0  0  0  0
  182.8330  176.6770  140.2740 O   0  0  0  0  0  0  0  0  0  0  0  0
  3 15  2  0  0  0  0
  4  5  1  0  0  0  0
  5 19  1  0  0  0  0
  6  5  2  0  0  0  0
  6 13  1  0  0  0  0
  7 10  1  0  0  0  0
  7  3  1  1  0  0  0
  7 11  1  0  0  0  0
  8 17  1  0  0  0  0
  8 11  1  0  0  0  0
  9  1  1  6  0  0  0
  9  4  1  0  0  0  0
 10 11  1  0  0  0  0
 10  9  1  0  0  0  0
 11  6  1  0  0  0  0
 12  1  2  0  0  0  0
 12 14  1  0  0  0  0
 13 20  2  0  0  0  0
 16 15  1  0  0  0  0
 16 26  1  0  0  0  0
 17 16  2  0  0  0  0
 18  3  1  0  0  0  0
 18 14  1  0  0  0  0
 19  2  2  0  0  0  0
 20  2  1  0  0  0  0
 21 22  1  0  0  0  0
 23 21  2  0  0  0  0
 23 25  1  0  0  0  0
 24 22  1  0  0  0  0
 24 12  1  0  0  0  0
 25 24  2  0  0  0  0
 26 27  1  0  0  0  0
 27 28  1  0  0  0  0
 28 29  1  0  0  0  0
 29 31  1  0  0  0  0
 29 32  2  0  0  0  0
 30 28  1  0  0  0  0
M  END
>  <MODEL>
4

>  <REMARK>
 VINA RESULT:      -5.9      1.292      1.570
  Name = 
  4 active torsions:
  status: ('A' for Active; 'I' for Inactive)
    1  A    between atoms: N_2  and  C_7
    2  A    between atoms: C_7  and  C_16
    3  A    between atoms: C_16  and  C_24
    4  A    between atoms: C_18  and  C_30
                            x       y       z     vdW  Elec       q    Type
                         _______ _______ _______ _____ _____    ______ ____

>  <TORSDO>
F 4

$$$$
=
 OpenBabel10232407493D

 32 37  0  0  1  0  0  0  0  0999 V2000
  184.1700  177.0790  134.7490 C   0  0  0  0  0  3  0  0  0  0  0  0
  187.8850  172.7720  136.6660 N   0  0  0  0  0  0  0  0  0  0  0  0
  186.4420  177.6410  137.4930 C   0  0  0  0  0  0  0  0  0  0  0  0
  185.5620  175.2210  135.2040 N   0  0  0  0  0  2  0  0  0  0  0  0
  186.7590  174.6580  135.7230 C   0  0  0  0  0  0  0  0  0  0  0  0
  187.8660  175.4740  136.0060 C   0  0  0  0  0  0  0  0  0  0  0  0
  186.8440  177.9970  136.0670 C   0  0  2  0  0  3  0  0  0  0  0  0
  189.2020  177.6710  135.7930 C   0  0  0  0  0  2  0  0  0  0  0  0
  185.4840  176.4410  134.7650 C   0  0  2  0  0  3  0  0  0  0  0  0
  186.6820  177.3480  134.7100 C   0  0  2  0  0  3  0  0  0  0  0  0
  187.8950  176.9420  135.5630 C   0  0  1  0  0  0  0  0  0  0  0  0
  183.5230  177.2720  135.9040 C   0  0  0  0  0  0  0  0  0  0  0  0
  188.9910  174.8840  136.6070 C   0  0  0  0  0  3  0  0  0  0  0  0
  184.1180  176.8420  137.1380 N   0  0  0  0  0  2  0  0  0  0  0  0
  187.3700  177.7850  138.4830 C   0  0  0  0  0  3  0  0  0  0  0  0
  188.8390  178.0520  138.2830 C   0  0  0  0  0  0  0  0  0  0  0  0
  189.2990  177.9420  137.0690 C   0  0  0  0  0  3  0  0  0  0  0  0
  185.0000  177.6980  137.9240 C   0  0  0  0  0  2  0  0  0  0  0  0
  186.7820  173.3070  136.0780 C   0  0  0  0  0  3  0  0  0  0  0  0
  188.9810  173.5280  136.9350 C   0  0  0  0  0  3  0  0  0  0  0  0
  180.1460  178.6930  135.3140 N   0  0  0  0  0  0  0  0  0  0  0  0
  181.2800  177.9820  134.7490 C   0  0  0  0  0  3  0  0  0  0  0  0
  180.4100  178.9470  136.5520 C   0  0  0  0  0  2  0  0  0  0  0  0
  182.1960  177.9070  135.9190 C   0  0  0  0  0  0  0  0  0  0  0  0
  181.6840  178.4680  136.9620 N   0  0  0  0  0  0  0  0  0  0  0  0
  189.7640  178.1960  139.4390 C   0  0  0  0  0  2  0  0  0  0  0  0
  189.2580  177.3820  140.6190 C   0  0  0  0  0  2  0  0  0  0  0  0
  190.3600  177.0440  141.5070 N   0  0  0  0  0  0  0  0  0  0  0  0
  190.1410  176.2690  142.6970 C   0  0  0  0  0  0  0  0  0  0  0  0
  191.7040  177.4200  141.0990 C   0  0  0  0  0  1  0  0  0  0  0  0
  191.2720  175.9200  143.6060 C   0  0  0  0  0  1  0  0  0  0  0  0
  188.9830  175.8720  142.9930 O   0  0  0  0  0  0  0  0  0  0  0  0
  1 12  2  0  0  0  0
  2 20  1  0  0  0  0
  3 18  1  0  0  0  0
  3 15  2  0  0  0  0
  4  5  1  0  0  0  0
  5  6  2  0  0  0  0
  5 19  1  0  0  0  0
  6 13  1  0  0  0  0
  7  3  1  1  0  0  0
  8 17  1  0  0  0  0
  9  1  1  1  0  0  0
  9  4  1  0  0  0  0
 10  9  1  0  0  0  0
 10 11  1  0  0  0  0
 10  7  1  0  0  0  0
 11  8  1  0  0  0  0
 11  6  1  0  0  0  0
 11  7  1  0  0  0  0
 12 24  1  0  0  0  0
 12 14  1  0  0  0  0
 13 20  2  0  0  0  0
 14 18  1  0  0  0  0
 16 15  1  0  0  0  0
 16 26  1  0  0  0  0
 17 16  2  0  0  0  0
 19  2  2  0  0  0  0
 21 23  1  0  0  0  0
 22 21  2  0  0  0  0
 22 24  1  0  0  0  0
 23 25  1  0  0  0  0
 24 25  2  0  0  0  0
 26 27  1  0  0  0  0
 27 28  1  0  0  0  0
 28 29  1  0  0  0  0
 29 32  2  0  0  0  0
 29 31  1  0  0  0  0
 30 28  1  0  0  0  0
M  END
>  <MODEL>
5

>  <REMARK>
 VINA RESULT:      -5.8      2.755      7.455
  Name = 
  4 active torsions:
  status: ('A' for Active; 'I' for Inactive)
    1  A    between atoms: N_2  and  C_7
    2  A    between atoms: C_7  and  C_16
    3  A    between atoms: C_16  and  C_24
    4  A    between atoms: C_18  and  C_30
                            x       y       z     vdW  Elec       q    Type
                         _______ _______ _______ _____ _____    ______ ____

>  <TORSDO>
F 4

$$$$
=
 OpenBabel10232407493D

 32 37  0  0  1  0  0  0  0  0999 V2000
  182.6500  177.8880  136.9080 C   0  0  0  0  0  3  0  0  0  0  0  0
  185.6140  172.7460  137.8000 N   0  0  0  0  0  0  0  0  0  0  0  0
  186.1270  177.8660  137.8670 C   0  0  0  0  0  0  0  0  0  0  0  0
  183.5530  175.7100  137.0930 N   0  0  0  0  0  2  0  0  0  0  0  0
  184.6530  174.8110  137.0730 C   0  0  0  0  0  0  0  0  0  0  0  0
  185.8850  175.2040  136.5280 C   0  0  0  0  0  0  0  0  0  0  0  0
  185.7270  177.9200  136.3980 C   0  0  2  0  0  3  0  0  0  0  0  0
  187.3550  176.7550  135.0810 C   0  0  0  0  0  2  0  0  0  0  0  0
  183.5410  176.8310  136.4380 C   0  0  2  0  0  3  0  0  0  0  0  0
  184.6770  177.2440  135.5420 C   0  0  2  0  0  3  0  0  0  0  0  0
  186.0160  176.5180  135.7460 C   0  0  1  0  0  0  0  0  0  0  0  0
  182.8370  178.4060  138.1270 C   0  0  0  0  0  0  0  0  0  0  0  0
  186.9690  174.3140  136.6180 C   0  0  0  0  0  3  0  0  0  0  0  0
  183.8970  177.9120  138.9600 N   0  0  0  0  0  2  0  0  0  0  0  0
  187.4520  177.7640  138.1750 C   0  0  0  0  0  3  0  0  0  0  0  0
  188.5640  177.4740  137.2020 C   0  0  0  0  0  0  0  0  0  0  0  0
  188.2160  177.0940  136.0050 C   0  0  0  0  0  3  0  0  0  0  0  0
  185.2440  178.4700  138.9280 C   0  0  0  0  0  2  0  0  0  0  0  0
  184.5430  173.5790  137.7230 C   0  0  0  0  0  3  0  0  0  0  0  0
  186.8150  173.0870  137.2640 C   0  0  0  0  0  3  0  0  0  0  0  0
  180.3870  180.6290  139.8100 N   0  0  0  0  0  0  0  0  0  0  0  0
  180.9660  179.2980  139.7320 C   0  0  0  0  0  2  0  0  0  0  0  0
  180.9590  181.3670  138.9180 C   0  0  0  0  0  3  0  0  0  0  0  0
  181.9520  179.4680  138.6300 C   0  0  0  0  0  0  0  0  0  0  0  0
  181.9430  180.6710  138.1640 N   0  0  0  0  0  0  0  0  0  0  0  0
  189.9810  177.3890  137.6470 C   0  0  0  0  0  2  0  0  0  0  0  0
  190.1160  176.3700  138.7670 C   0  0  0  0  0  2  0  0  0  0  0  0
  191.0190  176.8690  139.7940 N   0  0  0  0  0  0  0  0  0  0  0  0
  190.5860  177.0040  141.1580 C   0  0  0  0  0  0  0  0  0  0  0  0
  192.4020  177.1220  139.4220 C   0  0  0  0  0  1  0  0  0  0  0  0
  191.5120  177.5120  142.2120 C   0  0  0  0  0  1  0  0  0  0  0  0
  189.4100  176.6940  141.4850 O   0  0  0  0  0  0  0  0  0  0  0  0
  1 12  2  0  0  0  0
  3 15  2  0  0  0  0
  3 18  1  0  0  0  0
  5  4  1  0  0  0  0
  5 19  2  0  0  0  0
  6 13  2  0  0  0  0
  6  5  1  0  0  0  0
  7  3  1  1  0  0  0
  8 11  1  0  0  0  0
  8 17  1  0  0  0  0
  9  1  1  1  0  0  0
  9  4  1  0  0  0  0
 10 11  1  0  0  0  0
 10  7  1  0  0  0  0
 10  9  1  0  0  0  0
 11  7  1  0  0  0  0
 11  6  1  0  0  0  0
 12 24  1  0  0  0  0
 12 14  1  0  0  0  0
 13 20  1  0  0  0  0
 16 26  1  0  0  0  0
 16 15  1  0  0  0  0
 17 16  2  0  0  0  0
 18 14  1  0  0  0  0
 19  2  1  0  0  0  0
 20  2  2  0  0  0  0
 22 21  1  0  0  0  0
 23 21  2  0  0  0  0
 24 22  1  0  0  0  0
 25 24  2  0  0  0  0
 25 23  1  0  0  0  0
 26 27  1  0  0  0  0
 27 28  1  0  0  0  0
 28 29  1  0  0  0  0
 29 32  2  0  0  0  0
 29 31  1  0  0  0  0
 30 28  1  0  0  0  0
M  END
>  <MODEL>
6

>  <REMARK>
 VINA RESULT:      -5.7      3.157      8.172
  Name = 
  4 active torsions:
  status: ('A' for Active; 'I' for Inactive)
    1  A    between atoms: N_2  and  C_7
    2  A    between atoms: C_7  and  C_16
    3  A    between atoms: C_16  and  C_24
    4  A    between atoms: C_18  and  C_30
                            x       y       z     vdW  Elec       q    Type
                         _______ _______ _______ _____ _____    ______ ____

>  <TORSDO>
F 4

$$$$
=
 OpenBabel10232407493D

 32 37  0  0  1  0  0  0  0  0999 V2000
  182.6220  177.7920  137.0000 C   0  0  0  0  0  3  0  0  0  0  0  0
  185.7710  172.7540  137.8530 N   0  0  0  0  0  0  0  0  0  0  0  0
  186.1060  177.8890  137.9270 C   0  0  0  0  0  0  0  0  0  0  0  0
  183.6010  175.6460  137.1710 N   0  0  0  0  0  2  0  0  0  0  0  0
  184.7330  174.7860  137.1400 C   0  0  0  0  0  0  0  0  0  0  0  0
  185.9450  175.2230  136.5830 C   0  0  0  0  0  0  0  0  0  0  0  0
  185.6910  177.9320  136.4610 C   0  0  2  0  0  3  0  0  0  0  0  0
  187.3460  176.8270  135.1270 C   0  0  0  0  0  2  0  0  0  0  0  0
  183.5440  176.7670  136.5190 C   0  0  2  0  0  3  0  0  0  0  0  0
  184.6570  177.2220  135.6140 C   0  0  2  0  0  3  0  0  0  0  0  0
  186.0230  176.5420  135.8040 C   0  0  1  0  0  0  0  0  0  0  0  0
  182.8020  178.3130  138.2180 C   0  0  0  0  0  0  0  0  0  0  0  0
  187.0590  174.3710  136.6620 C   0  0  0  0  0  3  0  0  0  0  0  0
  183.8860  177.8550  139.0400 N   0  0  0  0  0  2  0  0  0  0  0  0
  187.4360  177.8330  138.2230 C   0  0  0  0  0  3  0  0  0  0  0  0
  188.5490  177.5830  137.2390 C   0  0  0  0  0  0  0  0  0  0  0  0
  188.2040  177.1940  136.0440 C   0  0  0  0  0  3  0  0  0  0  0  0
  185.2130  178.4600  138.9980 C   0  0  0  0  0  2  0  0  0  0  0  0
  184.6710  173.5490  137.7880 C   0  0  0  0  0  3  0  0  0  0  0  0
  186.9550  173.1380  137.3060 C   0  0  0  0  0  3  0  0  0  0  0  0
  180.7970  181.3110  139.0970 N   0  0  0  0  0  0  0  0  0  0  0  0
  181.8700  180.7630  138.2850 C   0  0  0  0  0  3  0  0  0  0  0  0
  180.3300  180.3610  139.8360 C   0  0  0  0  0  2  0  0  0  0  0  0
  181.8850  179.3440  138.7320 C   0  0  0  0  0  0  0  0  0  0  0  0
  180.9880  179.1180  139.6310 N   0  0  0  0  0  0  0  0  0  0  0  0
  189.9720  177.5470  137.6710 C   0  0  0  0  0  2  0  0  0  0  0  0
  190.2660  176.2410  138.3910 C   0  0  0  0  0  2  0  0  0  0  0  0
  191.4910  175.6470  137.8760 N   0  0  0  0  0  0  0  0  0  0  0  0
  191.5010  174.3090  137.3490 C   0  0  0  0  0  0  0  0  0  0  0  0
  192.6780  176.4830  137.8090 C   0  0  0  0  0  1  0  0  0  0  0  0
  192.7560  173.7020  136.8180 C   0  0  0  0  0  1  0  0  0  0  0  0
  190.4430  173.6260  137.3300 O   0  0  0  0  0  0  0  0  0  0  0  0
  1 12  2  0  0  0  0
  3 15  2  0  0  0  0
  3 18  1  0  0  0  0
  5  4  1  0  0  0  0
  5 19  2  0  0  0  0
  6 13  2  0  0  0  0
  6  5  1  0  0  0  0
  7  3  1  1  0  0  0
  8 11  1  0  0  0  0
  8 17  1  0  0  0  0
  9  1  1  1  0  0  0
  9  4  1  0  0  0  0
 10 11  1  0  0  0  0
 10  7  1  0  0  0  0
 10  9  1  0  0  0  0
 11  7  1  0  0  0  0
 11  6  1  0  0  0  0
 12 24  1  0  0  0  0
 12 14  1  0  0  0  0
 13 20  1  0  0  0  0
 16 26  1  0  0  0  0
 16 15  1  0  0  0  0
 17 16  2  0  0  0  0
 18 14  1  0  0  0  0
 19  2  1  0  0  0  0
 20  2  2  0  0  0  0
 21 23  1  0  0  0  0
 22 24  1  0  0  0  0
 22 21  2  0  0  0  0
 24 25  2  0  0  0  0
 25 23  1  0  0  0  0
 26 27  1  0  0  0  0
 28 27  1  0  0  0  0
 29 28  1  0  0  0  0
 30 28  1  0  0  0  0
 31 29  1  0  0  0  0
 32 29  2  0  0  0  0
M  END
>  <MODEL>
7

>  <REMARK>
 VINA RESULT:      -5.7      2.688      8.482
  Name = 
  4 active torsions:
  status: ('A' for Active; 'I' for Inactive)
    1  A    between atoms: N_2  and  C_7
    2  A    between atoms: C_7  and  C_16
    3  A    between atoms: C_16  and  C_24
    4  A    between atoms: C_18  and  C_30
                            x       y       z     vdW  Elec       q    Type
                         _______ _______ _______ _____ _____    ______ ____

>  <TORSDO>
F 4

$$$$
=
 OpenBabel10232407493D

 32 37  0  0  1  0  0  0  0  0999 V2000
  191.3080  176.8440  137.2650 C   0  0  0  0  0  3  0  0  0  0  0  0
  186.5410  178.6240  140.4470 N   0  0  0  0  0  0  0  0  0  0  0  0
  188.0360  175.4370  136.6940 C   0  0  0  0  0  0  0  0  0  0  0  0
  189.6260  177.8160  138.6130 N   0  0  0  0  0  2  0  0  0  0  0  0
  188.2680  178.1530  138.8630 C   0  0  0  0  0  0  0  0  0  0  0  0
  187.3210  178.1090  137.8280 C   0  0  0  0  0  0  0  0  0  0  0  0
  188.5200  176.6310  135.8800 C   0  0  2  0  0  3  0  0  0  0  0  0
  186.6590  178.0380  135.3350 C   0  0  0  0  0  2  0  0  0  0  0  0
  190.1110  177.6670  137.4180 C   0  0  2  0  0  3  0  0  0  0  0  0
  189.2830  177.9020  136.1850 C   0  0  2  0  0  3  0  0  0  0  0  0
  187.7570  177.9160  136.3700 C   0  0  1  0  0  0  0  0  0  0  0  0
  191.2550  175.5470  137.5910 C   0  0  0  0  0  0  0  0  0  0  0  0
  185.9750  178.3570  138.1450 C   0  0  0  0  0  3  0  0  0  0  0  0
  190.0350  174.9850  138.0960 N   0  0  0  0  0  2  0  0  0  0  0  0
  186.7570  175.0010  136.5060 C   0  0  0  0  0  3  0  0  0  0  0  0
  185.6850  175.7200  135.7310 C   0  0  0  0  0  0  0  0  0  0  0  0
  185.9370  176.9490  135.3750 C   0  0  0  0  0  3  0  0  0  0  0  0
  189.0120  174.4190  137.2240 C   0  0  0  0  0  2  0  0  0  0  0  0
  187.8530  178.3960  140.1750 C   0  0  0  0  0  3  0  0  0  0  0  0
  185.6010  178.6100  139.4660 C   0  0  0  0  0  3  0  0  0  0  0  0
  193.8890  173.0450  136.8300 N   0  0  0  0  0  0  0  0  0  0  0  0
  192.5230  173.4800  136.5950 C   0  0  0  0  0  3  0  0  0  0  0  0
  194.4360  173.8740  137.6560 C   0  0  0  0  0  2  0  0  0  0  0  0
  192.4460  174.6940  137.4510 C   0  0  0  0  0  0  0  0  0  0  0  0
  193.5600  174.9170  138.0630 N   0  0  0  0  0  0  0  0  0  0  0  0
  184.3180  175.1500  135.5860 C   0  0  0  0  0  2  0  0  0  0  0  0
  183.2800  176.1540  136.0570 C   0  0  0  0  0  2  0  0  0  0  0  0
  183.0300  175.9880  137.4820 N   0  0  0  0  0  0  0  0  0  0  0  0
  182.5030  177.0670  138.2720 C   0  0  0  0  0  0  0  0  0  0  0  0
  183.2260  174.6680  138.0590 C   0  0  0  0  0  1  0  0  0  0  0  0
  182.2450  176.8960  139.7310 C   0  0  0  0  0  1  0  0  0  0  0  0
  182.2530  178.1810  137.7400 O   0  0  0  0  0  0  0  0  0  0  0  0
  1 12  2  0  0  0  0
  3 18  1  0  0  0  0
  4  5  1  0  0  0  0
  5 19  2  0  0  0  0
  6 13  2  0  0  0  0
  6  5  1  0  0  0  0
  7 10  1  0  0  0  0
  7 11  1  0  0  0  0
  7  3  1  1  0  0  0
  8 17  1  0  0  0  0
  8 11  1  0  0  0  0
  9  1  1  1  0  0  0
  9  4  1  0  0  0  0
 10 11  1  0  0  0  0
 10  9  1  0  0  0  0
 11  6  1  0  0  0  0
 12 14  1  0  0  0  0
 13 20  1  0  0  0  0
 15  3  2  0  0  0  0
 16 15  1  0  0  0  0
 17 16  2  0  0  0  0
 18 14  1  0  0  0  0
 19  2  1  0  0  0  0
 20  2  2  0  0  0  0
 21 23  1  0  0  0  0
 22 21  2  0  0  0  0
 22 24  1  0  0  0  0
 23 25  1  0  0  0  0
 24 12  1  0  0  0  0
 24 25  2  0  0  0  0
 26 16  1  0  0  0  0
 26 27  1  0  0  0  0
 27 28  1  0  0  0  0
 28 30  1  0  0  0  0
 28 29  1  0  0  0  0
 29 31  1  0  0  0  0
 32 29  2  0  0  0  0
M  END
>  <MODEL>
8

>  <REMARK>
 VINA RESULT:      -5.6      1.836      2.388
  Name = 
  4 active torsions:
  status: ('A' for Active; 'I' for Inactive)
    1  A    between atoms: N_2  and  C_7
    2  A    between atoms: C_7  and  C_16
    3  A    between atoms: C_16  and  C_24
    4  A    between atoms: C_18  and  C_30
                            x       y       z     vdW  Elec       q    Type
                         _______ _______ _______ _____ _____    ______ ____

>  <TORSDO>
F 4

$$$$
=
 OpenBabel10232407493D

 32 37  0  0  1  0  0  0  0  0999 V2000
  192.0490  175.4420  136.8240 C   0  0  0  0  0  3  0  0  0  0  0  0
  189.3000  177.4180  141.7800 N   0  0  0  0  0  0  0  0  0  0  0  0
  188.4560  175.3910  137.1270 C   0  0  0  0  0  0  0  0  0  0  0  0
  191.2710  176.3700  138.8550 N   0  0  0  0  0  2  0  0  0  0  0  0
  190.2620  177.0030  139.6310 C   0  0  0  0  0  0  0  0  0  0  0  0
  189.1570  177.6050  139.0090 C   0  0  0  0  0  0  0  0  0  0  0  0
  189.1640  176.5790  136.4860 C   0  0  2  0  0  3  0  0  0  0  0  0
  187.9440  178.5880  136.9540 C   0  0  0  0  0  2  0  0  0  0  0  0
  191.3540  176.4910  137.5650 C   0  0  2  0  0  3  0  0  0  0  0  0
  190.4180  177.3720  136.7840 C   0  0  2  0  0  3  0  0  0  0  0  0
  189.1160  177.7920  137.4870 C   0  0  1  0  0  0  0  0  0  0  0  0
  191.5650  174.1950  136.8470 C   0  0  0  0  0  0  0  0  0  0  0  0
  188.1400  178.1330  139.8220 C   0  0  0  0  0  3  0  0  0  0  0  0
  190.3830  173.9000  137.6050 N   0  0  0  0  0  2  0  0  0  0  0  0
  187.1040  175.4600  137.3030 C   0  0  0  0  0  3  0  0  0  0  0  0
  186.2540  176.6920  137.1320 C   0  0  0  0  0  0  0  0  0  0  0  0
  186.8810  177.8270  136.9980 C   0  0  0  0  0  3  0  0  0  0  0  0
  189.0420  174.0060  137.0410 C   0  0  0  0  0  2  0  0  0  0  0  0
  190.3070  176.9040  141.0240 C   0  0  0  0  0  3  0  0  0  0  0  0
  188.2280  178.0260  141.2110 C   0  0  0  0  0  3  0  0  0  0  0  0
  193.8200  171.6730  135.3190 N   0  0  0  0  0  0  0  0  0  0  0  0
  193.6940  172.7920  136.2380 C   0  0  0  0  0  2  0  0  0  0  0  0
  192.6570  171.4470  134.8040 C   0  0  0  0  0  3  0  0  0  0  0  0
  192.2470  173.1170  136.1140 C   0  0  0  0  0  0  0  0  0  0  0  0
  191.6530  172.3320  135.2810 N   0  0  0  0  0  0  0  0  0  0  0  0
  184.7830  176.6540  137.3470 C   0  0  0  0  0  2  0  0  0  0  0  0
  184.0660  177.2860  136.1650 C   0  0  0  0  0  2  0  0  0  0  0  0
  182.7050  177.6460  136.5360 N   0  0  0  0  0  0  0  0  0  0  0  0
  181.5770  177.1090  135.8260 C   0  0  0  0  0  0  0  0  0  0  0  0
  182.5180  178.4780  137.7140 C   0  0  0  0  0  1  0  0  0  0  0  0
  180.1820  177.4760  136.2080 C   0  0  0  0  0  1  0  0  0  0  0  0
  181.7510  176.3170  134.8630 O   0  0  0  0  0  0  0  0  0  0  0  0
  1 12  2  0  0  0  0
  3 15  2  0  0  0  0
  4  5  1  0  0  0  0
  5 19  1  0  0  0  0
  6  5  2  0  0  0  0
  6 13  1  0  0  0  0
  7 10  1  0  0  0  0
  7  3  1  1  0  0  0
  7 11  1  0  0  0  0
  8 17  1  0  0  0  0
  8 11  1  0  0  0  0
  9  1  1  6  0  0  0
  9  4  1  0  0  0  0
 10 11  1  0  0  0  0
 10  9  1  0  0  0  0
 11  6  1  0  0  0  0
 12 14  1  0  0  0  0
 13 20  2  0  0  0  0
 16 15  1  0  0  0  0
 16 26  1  0  0  0  0
 17 16  2  0  0  0  0
 18  3  1  0  0  0  0
 18 14  1  0  0  0  0
 19  2  2  0  0  0  0
 20  2  1  0  0  0  0
 21 22  1  0  0  0  0
 23 25  1  0  0  0  0
 23 21  2  0  0  0  0
 24 22  1  0  0  0  0
 24 12  1  0  0  0  0
 25 24  2  0  0  0  0
 27 28  1  0  0  0  0
 27 26  1  0  0  0  0
 28 30  1  0  0  0  0
 29 31  1  0  0  0  0
 29 28  1  0  0  0  0
 32 29  2  0  0  0  0
M  END
>  <MODEL>
9

>  <REMARK>
 VINA RESULT:      -5.5      1.806      2.233
  Name = 
  4 active torsions:
  status: ('A' for Active; 'I' for Inactive)
    1  A    between atoms: N_2  and  C_7
    2  A    between atoms: C_7  and  C_16
    3  A    between atoms: C_16  and  C_24
    4  A    between atoms: C_18  and  C_30
                            x       y       z     vdW  Elec       q    Type
                         _______ _______ _______ _____ _____    ______ ____

>  <TORSDO>
F 4

$$$$
