=
 OpenBabel10232411423D

 52 59  0  0  1  0  0  0  0  0999 V2000
  185.8940  177.4400  143.0140 C   0  0  0  0  0  3  0  0  0  0  0  0
  183.5240  179.0730  144.0700 C   0  0  0  0  0  0  0  0  0  0  0  0
  184.6310  178.7510  144.7010 C   0  0  0  0  0  0  0  0  0  0  0  0
  181.8610  176.7060  139.5810 C   0  0  2  0  0  3  0  0  0  0  0  0
  180.9840  177.0250  141.5200 C   0  0  1  0  0  3  0  0  0  0  0  0
  182.9680  178.3140  141.1020 C   0  0  1  0  0  3  0  0  0  0  0  0
  182.0770  175.3870  139.1840 O   0  0  0  0  0  1  0  0  0  0  0  0
  182.4120  176.9090  140.9820 C   0  0  2  0  0  3  0  0  0  0  0  0
  182.1480  179.0160  142.0850 N   0  0  0  0  0  0  0  0  0  0  0  0
  181.1600  179.3600  144.2380 C   0  0  0  0  0  2  0  0  0  0  0  0
  185.2880  177.4390  144.3860 C   0  0  0  0  0  2  0  0  0  0  0  0
  180.2220  178.5020  143.4040 C   0  0  0  0  0  2  0  0  0  0  0  0
  185.2030  177.9180  142.0170 C   0  0  0  0  0  0  0  0  0  0  0  0
  180.8090  178.4720  141.9950 C   0  0  2  0  0  3  0  0  0  0  0  0
  184.4580  178.4920  141.1090 C   0  0  0  0  0  0  0  0  0  0  0  0
  180.4450  176.8490  140.1110 C   0  0  0  0  0  2  0  0  0  0  0  0
  182.4110  179.3640  143.4510 C   0  0  0  0  0  0  0  0  0  0  0  0
  186.2460  178.7010  139.4630 N   0  0  0  0  0  0  0  0  0  0  0  0
  184.1780  179.4560  138.8380 C   0  0  0  0  0  0  0  0  0  0  0  0
  184.7340  178.9830  137.7760 N   0  0  0  0  0  0  0  0  0  0  0  0
  182.8320  180.0920  138.8300 C   0  0  0  0  0  1  0  0  0  0  0  0
  185.0690  179.3440  140.0320 C   0  0  1  0  0  3  0  0  0  0  0  0
  186.0140  178.5310  138.2030 C   0  0  0  0  0  0  0  0  0  0  0  0
  186.4800  176.4740  136.8730 C   0  0  0  0  0  0  0  0  0  0  0  0
  188.3460  177.7790  137.9890 C   0  0  0  0  0  2  0  0  0  0  0  0
  187.3960  175.3790  136.7420 N   0  0  0  0  0  2  0  0  0  0  0  0
  186.9820  177.8370  137.2980 C   0  0  2  0  0  3  0  0  0  0  0  0
  188.7290  175.4070  137.3310 C   0  0  0  0  0  2  0  0  0  0  0  0
  185.0120  176.3450  136.1590 S   0  0  0  0  0  0  0  0  0  0  0  0
  189.2980  176.8310  137.2700 C   0  0  2  0  0  3  0  0  0  0  0  0
  193.4560  177.1100  137.8670 O   0  0  0  0  0  0  0  0  0  0  0  0
  192.0210  177.3160  139.7700 C   0  0  0  0  0  2  0  0  0  0  0  0
  192.9080  175.8150  137.8330 C   0  0  1  0  0  3  0  0  0  0  0  0
  193.1710  176.5310  139.1250 C   0  0  1  0  0  3  0  0  0  0  0  0
  191.4590  175.8310  137.3080 C   0  0  0  0  0  2  0  0  0  0  0  0
  190.6600  176.9460  137.8140 N   0  0  2  0  0  0  0  0  0  0  0  0
  190.6590  176.8770  139.2710 C   0  0  0  0  0  2  0  0  0  0  0  0
  186.1720  179.2560  146.5320 C   0  0  0  0  0  0  0  0  0  0  0  0
  187.0750  178.8360  147.3780 C   0  0  0  0  0  3  0  0  0  0  0  0
  185.2710  179.6600  145.6690 C   0  0  0  0  0  3  0  0  0  0  0  0
  187.6470  176.4170  147.1180 C   0  0  0  0  0  1  0  0  0  0  0  0
  188.1200  177.8550  146.9470 C   0  0  1  0  0  3  0  0  0  0  0  0
  188.5840  178.1140  145.5140 C   0  0  0  0  0  2  0  0  0  0  0  0
  189.3380  176.9310  144.9150 C   0  0  2  0  0  3  0  0  0  0  0  0
  191.9370  175.8320  144.4630 O   0  0  0  0  0  0  0  0  0  0  0  0
  191.1220  177.1120  145.2160 P   0  0  1  0  0  0  0  0  0  0  0  0
  191.5950  178.4230  144.6290 O   0  0  0  0  0  1  0  0  0  0  0  0
  192.0660  175.8670  147.1280 C   0  0  0  0  0  1  0  0  0  0  0  0
  191.4180  177.0810  146.8870 O   0  0  0  0  0  0  0  0  0  0  0  0
  189.0570  176.8220  143.4520 C   0  0  0  0  0  0  0  0  0  0  0  0
  189.1660  177.9350  142.6250 O   0  0  0  0  0  0  0  0  0  0  0  0
  188.7270  175.7100  142.9620 O   0  0  0  0  0  1  0  0  0  0  0  0
  1 11  1  0  0  0  0
  2  3  2  0  0  0  0
  3 40  1  0  0  0  0
  4  7  1  1  0  0  0
  4 16  1  0  0  0  0
  4  8  1  0  0  0  0
  5 16  1  6  0  0  0
  5 14  1  0  0  0  0
  6 15  1  1  0  0  0
  6  9  1  0  0  0  0
  8  6  1  0  0  0  0
  8  5  1  0  0  0  0
  9 17  1  0  0  0  0
 11  3  1  0  0  0  0
 12 10  1  0  0  0  0
 13  1  2  0  0  0  0
 14  9  1  0  0  0  0
 14 12  1  0  0  0  0
 15 13  2  0  0  0  0
 17  2  2  0  0  0  0
 17 10  1  0  0  0  0
 18 22  1  0  0  0  0
 19 22  1  0  0  0  0
 20 23  1  0  0  0  0
 20 19  2  0  0  0  0
 21 19  1  0  0  0  0
 22 15  1  0  0  0  0
 23 18  2  0  0  0  0
 24 27  1  0  0  0  0
 26 24  1  0  0  0  0
 26 28  1  0  0  0  0
 27 25  1  0  0  0  0
 27 23  1  0  0  0  0
 29 24  2  0  0  0  0
 30 28  1  0  0  0  0
 30 36  1  0  0  0  0
 30 25  1  0  0  0  0
 31 34  1  0  0  0  0
 33 31  1  0  0  0  0
 33 34  1  0  0  0  0
 34 32  1  0  0  0  0
 35 36  1  0  0  0  0
 35 33  1  0  0  0  0
 36 37  1  0  0  0  0
 37 32  1  0  0  0  0
 38 39  2  0  0  0  0
 40 38  2  0  0  0  0
 42 41  1  0  0  0  0
 42 39  1  0  0  0  0
 43 42  1  0  0  0  0
 44 46  1  0  0  0  0
 44 43  1  0  0  0  0
 45 46  2  0  0  0  0
 46 49  1  0  0  0  0
 47 46  1  0  0  0  0
 49 48  1  0  0  0  0
 50 44  1  0  0  0  0
 51 50  2  0  0  0  0
 52 50  1  0  0  0  0
M  END
>  <MODEL>
1

>  <REMARK>
 VINA RESULT:      -7.5      0.000      0.000
  Name = 
  10 active torsions:
  status: ('A' for Active; 'I' for Inactive)
    1  A    between atoms: C_8  and  C_33
    2  A    between atoms: C_9  and  C_35
    3  A    between atoms: P_23  and  C_35
    4  A    between atoms: P_23  and  O_49
    5  A    between atoms: C_25  and  C_30
    6  A    between atoms: C_25  and  C_45
    7  A    between atoms: C_28  and  C_43
    8  A    between atoms: C_35  and  C_45
    9  A    between atoms: C_36  and  C_44
   10  A    between atoms: C_46  and  N_48
                            x       y       z     vdW  Elec       q    Type
                         _______ _______ _______ _____ _____    ______ ____

>  <TORSDO>
F 10

$$$$
=
 OpenBabel10232411423D

 52 59  0  0  1  0  0  0  0  0999 V2000
  183.0830  177.1140  135.2210 C   0  0  0  0  0  3  0  0  0  0  0  0
  185.6090  175.5150  135.8970 C   0  0  0  0  0  0  0  0  0  0  0  0
  185.5110  176.6030  135.1660 C   0  0  0  0  0  0  0  0  0  0  0  0
  181.4570  172.4230  137.2080 C   0  0  2  0  0  3  0  0  0  0  0  0
  183.3370  172.0680  136.2190 C   0  0  1  0  0  3  0  0  0  0  0  0
  183.1810  174.1940  137.3300 C   0  0  1  0  0  3  0  0  0  0  0  0
  180.2950  172.2020  136.4700 O   0  0  0  0  0  1  0  0  0  0  0  0
  182.4150  173.2780  136.3960 C   0  0  2  0  0  3  0  0  0  0  0  0
  184.5860  173.8010  137.2570 N   0  0  0  0  0  0  0  0  0  0  0  0
  186.6710  173.3920  136.1540 C   0  0  0  0  0  2  0  0  0  0  0  0
  184.2690  176.8170  134.3530 C   0  0  0  0  0  2  0  0  0  0  0  0
  185.8470  172.1140  136.1260 C   0  0  0  0  0  2  0  0  0  0  0  0
  182.8780  176.3850  136.2830 C   0  0  0  0  0  0  0  0  0  0  0  0
  184.6200  172.3770  136.9980 C   0  0  2  0  0  3  0  0  0  0  0  0
  182.8140  175.6480  137.3620 C   0  0  0  0  0  0  0  0  0  0  0  0
  182.3860  171.2300  137.0560 C   0  0  0  0  0  2  0  0  0  0  0  0
  185.7000  174.4150  136.5960 C   0  0  0  0  0  0  0  0  0  0  0  0
  183.4900  176.7350  139.4390 N   0  0  0  0  0  0  0  0  0  0  0  0
  181.5470  177.4680  138.4770 C   0  0  0  0  0  0  0  0  0  0  0  0
  182.0920  178.4940  139.0360 N   0  0  0  0  0  0  0  0  0  0  0  0
  180.2310  177.5310  137.7830 C   0  0  0  0  0  1  0  0  0  0  0  0
  182.3590  176.2300  138.6700 C   0  0  1  0  0  3  0  0  0  0  0  0
  183.2890  177.9980  139.6250 C   0  0  0  0  0  0  0  0  0  0  0  0
  185.6810  178.6820  139.7830 C   0  0  0  0  0  0  0  0  0  0  0  0
  184.1870  178.6080  141.8310 C   0  0  0  0  0  2  0  0  0  0  0  0
  186.8060  178.7120  140.6700 N   0  0  0  0  0  2  0  0  0  0  0  0
  184.2800  178.8700  140.3270 C   0  0  2  0  0  3  0  0  0  0  0  0
  186.6620  178.5620  142.1130 C   0  0  0  0  0  2  0  0  0  0  0  0
  185.9540  178.8770  138.1800 S   0  0  0  0  0  0  0  0  0  0  0  0
  185.3610  179.2280  142.5810 C   0  0  2  0  0  3  0  0  0  0  0  0
  185.7120  179.2920  146.7750 O   0  0  0  0  0  0  0  0  0  0  0  0
  183.5640  178.8400  145.8250 C   0  0  0  0  0  2  0  0  0  0  0  0
  186.0400  178.0850  146.1330 C   0  0  1  0  0  3  0  0  0  0  0  0
  184.6860  178.3210  146.7350 C   0  0  1  0  0  3  0  0  0  0  0  0
  186.1690  178.2770  144.6090 C   0  0  0  0  0  2  0  0  0  0  0  0
  185.1490  179.1530  144.0350 N   0  0  2  0  0  0  0  0  0  0  0  0
  183.8400  178.5940  144.3550 C   0  0  0  0  0  2  0  0  0  0  0  0
  187.7800  177.4160  135.5850 C   0  0  0  0  0  0  0  0  0  0  0  0
  188.9930  177.1710  136.0010 C   0  0  0  0  0  3  0  0  0  0  0  0
  186.5590  177.6400  135.1630 C   0  0  0  0  0  3  0  0  0  0  0  0
  189.0810  175.2530  134.4000 C   0  0  0  0  0  1  0  0  0  0  0  0
  189.6640  175.8760  135.6630 C   0  0  1  0  0  3  0  0  0  0  0  0
  191.1800  176.0370  135.5460 C   0  0  0  0  0  2  0  0  0  0  0  0
  191.8680  176.1390  136.9040 C   0  0  2  0  0  3  0  0  0  0  0  0
  194.4260  177.0630  136.0260 O   0  0  0  0  0  0  0  0  0  0  0  0
  193.6350  175.7440  136.7370 P   0  0  1  0  0  0  0  0  0  0  0  0
  194.2190  175.4890  138.1090 O   0  0  0  0  0  1  0  0  0  0  0  0
  195.1950  174.2140  135.5880 C   0  0  0  0  0  1  0  0  0  0  0  0
  193.8160  174.3680  135.7610 O   0  0  0  0  0  0  0  0  0  0  0  0
  191.2130  175.2260  137.8880 C   0  0  0  0  0  0  0  0  0  0  0  0
  190.6310  175.7330  139.0450 O   0  0  0  0  0  1  0  0  0  0  0  0
  191.1790  173.9880  137.6640 O   0  0  0  0  0  0  0  0  0  0  0  0
  1 13  2  0  0  0  0
  2 17  2  0  0  0  0
  3  2  2  0  0  0  0
  4  7  1  6  0  0  0
  5  8  1  0  0  0  0
  5 14  1  0  0  0  0
  5 16  1  1  0  0  0
  6 15  1  6  0  0  0
  8  4  1  0  0  0  0
  8  6  1  0  0  0  0
  9  6  1  0  0  0  0
 10 17  1  0  0  0  0
 11  3  1  0  0  0  0
 11  1  1  0  0  0  0
 12 10  1  0  0  0  0
 12 14  1  0  0  0  0
 13 15  2  0  0  0  0
 14  9  1  0  0  0  0
 15 22  1  0  0  0  0
 16  4  1  0  0  0  0
 17  9  1  0  0  0  0
 18 23  2  0  0  0  0
 19 22  1  0  0  0  0
 19 20  2  0  0  0  0
 20 23  1  0  0  0  0
 21 19  1  0  0  0  0
 22 18  1  0  0  0  0
 23 27  1  0  0  0  0
 24 27  1  0  0  0  0
 24 26  1  0  0  0  0
 25 30  1  0  0  0  0
 26 28  1  0  0  0  0
 27 25  1  0  0  0  0
 28 30  1  0  0  0  0
 29 24  2  0  0  0  0
 30 36  1  0  0  0  0
 32 34  1  0  0  0  0
 33 34  1  0  0  0  0
 33 31  1  0  0  0  0
 34 31  1  0  0  0  0
 35 33  1  0  0  0  0
 36 37  1  0  0  0  0
 36 35  1  0  0  0  0
 37 32  1  0  0  0  0
 38 39  2  0  0  0  0
 40  3  1  0  0  0  0
 40 38  2  0  0  0  0
 41 42  1  0  0  0  0
 42 39  1  0  0  0  0
 43 42  1  0  0  0  0
 43 44  1  0  0  0  0
 44 50  1  0  0  0  0
 45 46  2  0  0  0  0
 46 44  1  0  0  0  0
 46 47  1  0  0  0  0
 48 49  1  0  0  0  0
 49 46  1  0  0  0  0
 50 51  1  0  0  0  0
 52 50  2  0  0  0  0
M  END
>  <MODEL>
2

>  <REMARK>
 VINA RESULT:      -7.5      3.197      8.278
  Name = 
  10 active torsions:
  status: ('A' for Active; 'I' for Inactive)
    1  A    between atoms: C_8  and  C_33
    2  A    between atoms: C_9  and  C_35
    3  A    between atoms: P_23  and  C_35
    4  A    between atoms: P_23  and  O_49
    5  A    between atoms: C_25  and  C_30
    6  A    between atoms: C_25  and  C_45
    7  A    between atoms: C_28  and  C_43
    8  A    between atoms: C_35  and  C_45
    9  A    between atoms: C_36  and  C_44
   10  A    between atoms: C_46  and  N_48
                            x       y       z     vdW  Elec       q    Type
                         _______ _______ _______ _____ _____    ______ ____

>  <TORSDO>
F 10

$$$$
=
 OpenBabel10232411423D

 52 59  0  0  1  0  0  0  0  0999 V2000
  188.1400  177.7130  137.1750 C   0  0  0  0  0  3  0  0  0  0  0  0
  189.8970  177.4500  139.6730 C   0  0  0  0  0  0  0  0  0  0  0  0
  188.8200  178.1860  139.5150 C   0  0  0  0  0  0  0  0  0  0  0  0
  192.6660  175.3180  135.6350 C   0  0  2  0  0  3  0  0  0  0  0  0
  193.1700  176.6150  137.2770 C   0  0  1  0  0  3  0  0  0  0  0  0
  191.0170  175.5630  137.4640 C   0  0  1  0  0  3  0  0  0  0  0  0
  192.8200  175.8280  134.3460 O   0  0  0  0  0  1  0  0  0  0  0  0
  191.8960  176.3150  136.4840 C   0  0  2  0  0  3  0  0  0  0  0  0
  191.5080  175.8740  138.8040 N   0  0  0  0  0  0  0  0  0  0  0  0
  192.0830  177.3190  140.6230 C   0  0  0  0  0  2  0  0  0  0  0  0
  188.5350  178.7700  138.1630 C   0  0  0  0  0  2  0  0  0  0  0  0
  193.3010  177.1580  139.7260 C   0  0  0  0  0  2  0  0  0  0  0  0
  188.8310  176.6090  137.1190 C   0  0  0  0  0  0  0  0  0  0  0  0
  192.9360  176.0900  138.6980 C   0  0  2  0  0  3  0  0  0  0  0  0
  189.5400  175.5130  137.2030 C   0  0  0  0  0  0  0  0  0  0  0  0
  193.9230  175.5960  136.4410 C   0  0  0  0  0  2  0  0  0  0  0  0
  190.9870  176.7430  139.8170 C   0  0  0  0  0  0  0  0  0  0  0  0
  187.6140  174.1050  137.7110 N   0  0  0  0  0  0  0  0  0  0  0  0
  188.5090  173.9100  135.6140 C   0  0  0  0  0  0  0  0  0  0  0  0
  187.2390  173.7250  135.4910 N   0  0  0  0  0  0  0  0  0  0  0  0
  189.4540  173.8110  134.4660 C   0  0  0  0  0  1  0  0  0  0  0  0
  188.9020  174.1640  137.0320 C   0  0  1  0  0  3  0  0  0  0  0  0
  186.7230  173.8480  136.8120 C   0  0  0  0  0  0  0  0  0  0  0  0
  184.4860  173.0500  136.0520 C   0  0  0  0  0  0  0  0  0  0  0  0
  184.7440  175.1900  137.3890 C   0  0  0  0  0  2  0  0  0  0  0  0
  183.1740  173.4990  135.6880 N   0  0  0  0  0  2  0  0  0  0  0  0
  185.2640  173.7740  137.1310 C   0  0  2  0  0  3  0  0  0  0  0  0
  182.6800  174.8230  136.0450 C   0  0  0  0  0  2  0  0  0  0  0  0
  184.9360  171.5380  135.6150 S   0  0  0  0  0  0  0  0  0  0  0  0
  183.2210  175.2300  137.4220 C   0  0  2  0  0  3  0  0  0  0  0  0
  182.5320  178.8550  139.4480 O   0  0  0  0  0  0  0  0  0  0  0  0
  181.3480  178.4540  137.4070 C   0  0  0  0  0  2  0  0  0  0  0  0
  181.7870  177.7410  139.8760 C   0  0  1  0  0  3  0  0  0  0  0  0
  181.2290  178.7440  138.9100 C   0  0  1  0  0  3  0  0  0  0  0  0
  182.3420  176.4320  139.2800 C   0  0  0  0  0  2  0  0  0  0  0  0
  182.7440  176.5450  137.8790 N   0  0  2  0  0  0  0  0  0  0  0  0
  181.5850  176.9880  137.1110 C   0  0  0  0  0  2  0  0  0  0  0  0
  188.1020  178.0610  141.8500 C   0  0  0  0  0  0  0  0  0  0  0  0
  188.3670  177.7150  143.0810 C   0  0  0  0  0  3  0  0  0  0  0  0
  187.8580  178.4100  140.6100 C   0  0  0  0  0  3  0  0  0  0  0  0
  190.5190  178.9690  142.8580 C   0  0  0  0  0  1  0  0  0  0  0  0
  189.7330  177.9330  143.6530 C   0  0  1  0  0  3  0  0  0  0  0  0
  189.6750  178.3070  145.1340 C   0  0  0  0  0  2  0  0  0  0  0  0
  189.5640  177.0890  146.0460 C   0  0  2  0  0  3  0  0  0  0  0  0
  188.2210  176.0200  148.3310 O   0  0  0  0  0  1  0  0  0  0  0  0
  188.3150  177.3870  147.3330 P   0  0  1  0  0  0  0  0  0  0  0  0
  188.7290  178.5840  148.1600 O   0  0  0  0  0  0  0  0  0  0  0  0
  186.1910  178.6440  147.3970 C   0  0  0  0  0  1  0  0  0  0  0  0
  186.8100  177.6740  146.6040 O   0  0  0  0  0  0  0  0  0  0  0  0
  190.8900  176.7760  146.6580 C   0  0  0  0  0  0  0  0  0  0  0  0
  191.8740  176.1240  145.9220 O   0  0  0  0  0  0  0  0  0  0  0  0
  191.1220  177.1120  147.8490 O   0  0  0  0  0  1  0  0  0  0  0  0
  1 11  1  0  0  0  0
  2 17  2  0  0  0  0
  3  2  2  0  0  0  0
  3 40  1  0  0  0  0
  4  7  1  6  0  0  0
  4 16  1  0  0  0  0
  4  8  1  0  0  0  0
  5 16  1  6  0  0  0
  5 14  1  0  0  0  0
  6 15  1  1  0  0  0
  6  9  1  0  0  0  0
  8  5  1  0  0  0  0
  8  6  1  0  0  0  0
  9 17  1  0  0  0  0
 11  3  1  0  0  0  0
 12 10  1  0  0  0  0
 13  1  2  0  0  0  0
 13 15  2  0  0  0  0
 14  9  1  0  0  0  0
 14 12  1  0  0  0  0
 17 10  1  0  0  0  0
 19 22  1  0  0  0  0
 20 19  2  0  0  0  0
 20 23  1  0  0  0  0
 21 19  1  0  0  0  0
 22 15  1  0  0  0  0
 22 18  1  0  0  0  0
 23 27  1  0  0  0  0
 23 18  2  0  0  0  0
 24 27  1  0  0  0  0
 25 30  1  0  0  0  0
 26 28  1  0  0  0  0
 26 24  1  0  0  0  0
 27 25  1  0  0  0  0
 28 30  1  0  0  0  0
 29 24  2  0  0  0  0
 30 36  1  0  0  0  0
 31 33  1  0  0  0  0
 32 34  1  0  0  0  0
 34 31  1  0  0  0  0
 34 33  1  0  0  0  0
 35 33  1  0  0  0  0
 36 35  1  0  0  0  0
 37 32  1  0  0  0  0
 37 36  1  0  0  0  0
 38 39  2  0  0  0  0
 39 42  1  0  0  0  0
 40 38  2  0  0  0  0
 41 42  1  0  0  0  0
 42 43  1  0  0  0  0
 43 44  1  0  0  0  0
 44 50  1  0  0  0  0
 44 46  1  0  0  0  0
 46 47  2  0  0  0  0
 46 45  1  0  0  0  0
 49 46  1  0  0  0  0
 49 48  1  0  0  0  0
 50 52  1  0  0  0  0
 51 50  2  0  0  0  0
M  END
>  <MODEL>
3

>  <REMARK>
 VINA RESULT:      -7.5      2.661      8.057
  Name = 
  10 active torsions:
  status: ('A' for Active; 'I' for Inactive)
    1  A    between atoms: C_8  and  C_33
    2  A    between atoms: C_9  and  C_35
    3  A    between atoms: P_23  and  C_35
    4  A    between atoms: P_23  and  O_49
    5  A    between atoms: C_25  and  C_30
    6  A    between atoms: C_25  and  C_45
    7  A    between atoms: C_28  and  C_43
    8  A    between atoms: C_35  and  C_45
    9  A    between atoms: C_36  and  C_44
   10  A    between atoms: C_46  and  N_48
                            x       y       z     vdW  Elec       q    Type
                         _______ _______ _______ _____ _____    ______ ____

>  <TORSDO>
F 10

$$$$
=
 OpenBabel10232411423D

 52 59  0  0  1  0  0  0  0  0999 V2000
  187.0700  179.2800  141.2480 C   0  0  0  0  0  3  0  0  0  0  0  0
  186.1830  177.5960  143.6510 C   0  0  0  0  0  0  0  0  0  0  0  0
  185.4280  178.2640  142.8070 C   0  0  0  0  0  0  0  0  0  0  0  0
  191.4420  178.3550  144.1850 C   0  0  2  0  0  3  0  0  0  0  0  0
  189.7740  178.4140  145.5440 C   0  0  1  0  0  3  0  0  0  0  0  0
  189.2830  177.4300  143.4070 C   0  0  1  0  0  3  0  0  0  0  0  0
  192.1550  179.5380  143.9940 O   0  0  0  0  0  1  0  0  0  0  0  0
  189.9560  178.6320  144.0400 C   0  0  2  0  0  3  0  0  0  0  0  0
  188.3650  176.8810  144.4020 N   0  0  0  0  0  0  0  0  0  0  0  0
  186.5190  176.9540  145.9260 C   0  0  0  0  0  2  0  0  0  0  0  0
  185.9560  179.5390  142.2180 C   0  0  0  0  0  2  0  0  0  0  0  0
  187.7780  177.3800  146.6650 C   0  0  0  0  0  2  0  0  0  0  0  0
  188.0120  178.4410  141.5760 C   0  0  0  0  0  0  0  0  0  0  0  0
  188.9410  177.1380  145.7060 C   0  0  2  0  0  3  0  0  0  0  0  0
  188.8570  177.5240  141.9720 C   0  0  0  0  0  0  0  0  0  0  0  0
  191.2570  178.1120  145.6730 C   0  0  0  0  0  2  0  0  0  0  0  0
  186.9370  176.9610  144.5080 C   0  0  0  0  0  0  0  0  0  0  0  0
  188.6060  176.4210  139.8110 N   0  0  0  0  0  0  0  0  0  0  0  0
  190.7280  177.0240  140.4190 C   0  0  0  0  0  0  0  0  0  0  0  0
  190.6620  177.1510  139.1390 N   0  0  0  0  0  0  0  0  0  0  0  0
  191.9760  177.2770  141.1930 C   0  0  0  0  0  1  0  0  0  0  0  0
  189.4410  176.5380  141.0000 C   0  0  1  0  0  3  0  0  0  0  0  0
  189.3350  176.7630  138.8000 C   0  0  0  0  0  0  0  0  0  0  0  0
  188.1330  178.1570  137.1190 C   0  0  0  0  0  0  0  0  0  0  0  0
  187.8530  175.6380  137.1930 C   0  0  0  0  0  2  0  0  0  0  0  0
  186.9470  178.2120  136.3170 N   0  0  0  0  0  2  0  0  0  0  0  0
  188.7930  176.8260  137.4080 C   0  0  2  0  0  3  0  0  0  0  0  0
  186.1340  177.0320  136.0500 C   0  0  0  0  0  2  0  0  0  0  0  0
  188.9810  179.5400  137.3430 S   0  0  0  0  0  0  0  0  0  0  0  0
  187.0340  175.7960  135.9170 C   0  0  2  0  0  3  0  0  0  0  0  0
  184.2200  172.8930  134.7450 O   0  0  0  0  0  0  0  0  0  0  0  0
  186.3710  172.1520  135.4860 C   0  0  0  0  0  2  0  0  0  0  0  0
  184.1340  173.3570  136.0710 C   0  0  1  0  0  3  0  0  0  0  0  0
  184.8550  172.0890  135.7190 C   0  0  1  0  0  3  0  0  0  0  0  0
  184.9990  174.6150  136.2820 C   0  0  0  0  0  2  0  0  0  0  0  0
  186.2970  174.5590  135.6130 N   0  0  2  0  0  0  0  0  0  0  0  0
  187.0070  173.3820  136.1010 C   0  0  0  0  0  2  0  0  0  0  0  0
  183.4490  178.2820  141.3700 C   0  0  0  0  0  0  0  0  0  0  0  0
  182.8170  178.7980  140.3510 C   0  0  0  0  0  3  0  0  0  0  0  0
  184.1040  177.7720  142.3850 C   0  0  0  0  0  3  0  0  0  0  0  0
  184.8790  178.4140  138.9910 C   0  0  0  0  0  1  0  0  0  0  0  0
  183.5590  179.1670  139.1050 C   0  0  1  0  0  3  0  0  0  0  0  0
  182.7040  178.9660  137.8540 C   0  0  0  0  0  2  0  0  0  0  0  0
  182.7530  177.5350  137.3290 C   0  0  2  0  0  3  0  0  0  0  0  0
  183.2460  177.8460  134.5320 O   0  0  0  0  0  0  0  0  0  0  0  0
  182.0410  177.4580  135.6590 P   0  0  1  0  0  0  0  0  0  0  0  0
  181.5390  176.0560  135.3950 O   0  0  0  0  0  1  0  0  0  0  0  0
  181.1070  179.4220  134.4880 C   0  0  0  0  0  1  0  0  0  0  0  0
  180.7620  178.5670  135.5390 O   0  0  0  0  0  0  0  0  0  0  0  0
  182.0250  176.6170  138.2570 C   0  0  0  0  0  0  0  0  0  0  0  0
  182.6860  175.5580  138.8700 O   0  0  0  0  0  1  0  0  0  0  0  0
  180.8030  176.8090  138.4920 O   0  0  0  0  0  0  0  0  0  0  0  0
  1 13  2  0  0  0  0
  1 11  1  0  0  0  0
  2 17  2  0  0  0  0
  3  2  2  0  0  0  0
  4  7  1  1  0  0  0
  4 16  1  0  0  0  0
  5 16  1  1  0  0  0
  5 14  1  0  0  0  0
  6 15  1  6  0  0  0
  6  8  1  0  0  0  0
  6  9  1  0  0  0  0
  8  4  1  0  0  0  0
  8  5  1  0  0  0  0
  9 17  1  0  0  0  0
  9 14  1  0  0  0  0
 10 12  1  0  0  0  0
 11  3  1  0  0  0  0
 13 15  2  0  0  0  0
 14 12  1  0  0  0  0
 17 10  1  0  0  0  0
 18 22  1  0  0  0  0
 19 22  1  0  0  0  0
 19 21  1  0  0  0  0
 20 19  2  0  0  0  0
 22 15  1  0  0  0  0
 23 20  1  0  0  0  0
 23 18  2  0  0  0  0
 24 29  2  0  0  0  0
 24 27  1  0  0  0  0
 25 27  1  0  0  0  0
 26 24  1  0  0  0  0
 27 23  1  0  0  0  0
 28 26  1  0  0  0  0
 30 28  1  0  0  0  0
 30 25  1  0  0  0  0
 31 34  1  0  0  0  0
 31 33  1  0  0  0  0
 32 34  1  0  0  0  0
 32 37  1  0  0  0  0
 33 35  1  0  0  0  0
 34 33  1  0  0  0  0
 36 30  1  0  0  0  0
 36 37  1  0  0  0  0
 36 35  1  0  0  0  0
 38 40  2  0  0  0  0
 39 38  2  0  0  0  0
 40  3  1  0  0  0  0
 41 42  1  0  0  0  0
 42 39  1  0  0  0  0
 43 42  1  0  0  0  0
 44 43  1  0  0  0  0
 44 50  1  0  0  0  0
 45 46  2  0  0  0  0
 46 44  1  0  0  0  0
 47 46  1  0  0  0  0
 48 49  1  0  0  0  0
 49 46  1  0  0  0  0
 50 52  2  0  0  0  0
 50 51  1  0  0  0  0
M  END
>  <MODEL>
4

>  <REMARK>
 VINA RESULT:      -7.1      3.209      8.226
  Name = 
  10 active torsions:
  status: ('A' for Active; 'I' for Inactive)
    1  A    between atoms: C_8  and  C_33
    2  A    between atoms: C_9  and  C_35
    3  A    between atoms: P_23  and  C_35
    4  A    between atoms: P_23  and  O_49
    5  A    between atoms: C_25  and  C_30
    6  A    between atoms: C_25  and  C_45
    7  A    between atoms: C_28  and  C_43
    8  A    between atoms: C_35  and  C_45
    9  A    between atoms: C_36  and  C_44
   10  A    between atoms: C_46  and  N_48
                            x       y       z     vdW  Elec       q    Type
                         _______ _______ _______ _____ _____    ______ ____

>  <TORSDO>
F 10

$$$$
=
 OpenBabel10232411423D

 52 59  0  0  1  0  0  0  0  0999 V2000
  186.1100  177.0050  136.6100 C   0  0  0  0  0  3  0  0  0  0  0  0
  184.5090  174.3980  136.7910 C   0  0  0  0  0  0  0  0  0  0  0  0
  185.7990  174.5430  136.5850 C   0  0  0  0  0  0  0  0  0  0  0  0
  180.9440  178.3370  136.2480 C   0  0  2  0  0  3  0  0  0  0  0  0
  181.1470  176.3710  135.3940 C   0  0  1  0  0  3  0  0  0  0  0  0
  182.5770  176.7900  137.2800 C   0  0  1  0  0  3  0  0  0  0  0  0
  181.0020  179.4230  135.3760 O   0  0  0  0  0  1  0  0  0  0  0  0
  182.1130  177.4060  135.9750 C   0  0  2  0  0  3  0  0  0  0  0  0
  182.3260  175.3540  137.1870 N   0  0  0  0  0  0  0  0  0  0  0  0
  182.5400  173.1710  136.2270 C   0  0  0  0  0  2  0  0  0  0  0  0
  186.2780  175.7420  135.8200 C   0  0  0  0  0  2  0  0  0  0  0  0
  181.3570  173.8750  135.5790 C   0  0  0  0  0  2  0  0  0  0  0  0
  184.9860  177.2150  137.2370 C   0  0  0  0  0  0  0  0  0  0  0  0
  181.1560  175.1750  136.3530 C   0  0  2  0  0  3  0  0  0  0  0  0
  183.8550  177.2860  137.8890 C   0  0  0  0  0  0  0  0  0  0  0  0
  179.9820  177.2970  135.6970 C   0  0  0  0  0  2  0  0  0  0  0  0
  183.2220  174.2570  136.9630 C   0  0  0  0  0  0  0  0  0  0  0  0
  184.9980  177.5660  140.0260 N   0  0  0  0  0  0  0  0  0  0  0  0
  183.8330  179.3710  139.2370 C   0  0  0  0  0  0  0  0  0  0  0  0
  184.8560  179.8390  139.8660 N   0  0  0  0  0  0  0  0  0  0  0  0
  182.7970  180.2440  138.6180 C   0  0  0  0  0  1  0  0  0  0  0  0
  183.7930  177.8780  139.2690 C   0  0  1  0  0  3  0  0  0  0  0  0
  185.5490  178.6910  140.3440 C   0  0  0  0  0  0  0  0  0  0  0  0
  187.9600  178.0570  140.3290 C   0  0  0  0  0  0  0  0  0  0  0  0
  186.6470  178.2210  142.4930 C   0  0  0  0  0  2  0  0  0  0  0  0
  188.9520  177.3150  141.0490 N   0  0  0  0  0  2  0  0  0  0  0  0
  186.8500  178.7650  141.0770 C   0  0  2  0  0  3  0  0  0  0  0  0
  188.7610  176.9050  142.4350 C   0  0  0  0  0  2  0  0  0  0  0  0
  188.2830  178.4810  138.7810 S   0  0  0  0  0  0  0  0  0  0  0  0
  187.9780  177.9830  143.1970 C   0  0  2  0  0  3  0  0  0  0  0  0
  186.4350  176.9300  146.9690 O   0  0  0  0  0  0  0  0  0  0  0  0
  188.7890  177.3140  146.7740 C   0  0  0  0  0  2  0  0  0  0  0  0
  186.3770  178.2910  146.6210 C   0  0  1  0  0  3  0  0  0  0  0  0
  187.4850  177.7360  147.4660 C   0  0  1  0  0  3  0  0  0  0  0  0
  186.6800  178.5020  145.1240 C   0  0  0  0  0  2  0  0  0  0  0  0
  187.7680  177.6670  144.6180 N   0  0  2  0  0  0  0  0  0  0  0  0
  188.9600  177.9500  145.4090 C   0  0  0  0  0  2  0  0  0  0  0  0
  188.0730  173.6940  136.8820 C   0  0  0  0  0  0  0  0  0  0  0  0
  189.3500  173.8170  136.6360 C   0  0  0  0  0  3  0  0  0  0  0  0
  186.7890  173.5940  137.1250 C   0  0  0  0  0  3  0  0  0  0  0  0
  190.3410  175.6250  138.0510 C   0  0  0  0  0  1  0  0  0  0  0  0
  189.9970  175.1670  136.6390 C   0  0  1  0  0  3  0  0  0  0  0  0
  191.2290  175.2060  135.7340 C   0  0  0  0  0  2  0  0  0  0  0  0
  192.4700  174.6220  136.4020 C   0  0  2  0  0  3  0  0  0  0  0  0
  193.4370  176.9580  137.7350 O   0  0  0  0  0  1  0  0  0  0  0  0
  193.7850  175.8750  136.4780 P   0  0  1  0  0  0  0  0  0  0  0  0
  195.1070  175.1940  136.7540 O   0  0  0  0  0  0  0  0  0  0  0  0
  195.2110  176.7520  134.6630 C   0  0  0  0  0  1  0  0  0  0  0  0
  193.8560  176.7100  135.0020 O   0  0  0  0  0  0  0  0  0  0  0  0
  192.9370  173.4110  135.6630 C   0  0  0  0  0  0  0  0  0  0  0  0
  193.1510  172.2110  136.3320 O   0  0  0  0  0  1  0  0  0  0  0  0
  193.1290  173.4750  134.4200 O   0  0  0  0  0  0  0  0  0  0  0  0
  1 13  2  0  0  0  0
  2 17  2  0  0  0  0
  3  2  2  0  0  0  0
  3 40  1  0  0  0  0
  4  7  1  6  0  0  0
  5 16  1  1  0  0  0
  5  8  1  0  0  0  0
  5 14  1  0  0  0  0
  6 15  1  6  0  0  0
  8  4  1  0  0  0  0
  8  6  1  0  0  0  0
  9  6  1  0  0  0  0
 10 17  1  0  0  0  0
 11  3  1  0  0  0  0
 11  1  1  0  0  0  0
 12 10  1  0  0  0  0
 12 14  1  0  0  0  0
 13 15  2  0  0  0  0
 14  9  1  0  0  0  0
 15 22  1  0  0  0  0
 16  4  1  0  0  0  0
 17  9  1  0  0  0  0
 18 23  2  0  0  0  0
 19 22  1  0  0  0  0
 19 20  2  0  0  0  0
 20 23  1  0  0  0  0
 21 19  1  0  0  0  0
 22 18  1  0  0  0  0
 23 27  1  0  0  0  0
 24 26  1  0  0  0  0
 24 27  1  0  0  0  0
 25 30  1  0  0  0  0
 26 28  1  0  0  0  0
 27 25  1  0  0  0  0
 28 30  1  0  0  0  0
 29 24  2  0  0  0  0
 30 36  1  0  0  0  0
 31 34  1  0  0  0  0
 32 34  1  0  0  0  0
 33 31  1  0  0  0  0
 33 34  1  0  0  0  0
 35 33  1  0  0  0  0
 36 35  1  0  0  0  0
 36 37  1  0  0  0  0
 37 32  1  0  0  0  0
 38 40  2  0  0  0  0
 39 42  1  0  0  0  0
 39 38  2  0  0  0  0
 42 41  1  0  0  0  0
 43 44  1  0  0  0  0
 43 42  1  0  0  0  0
 44 46  1  0  0  0  0
 46 47  2  0  0  0  0
 46 45  1  0  0  0  0
 48 49  1  0  0  0  0
 49 46  1  0  0  0  0
 50 51  1  0  0  0  0
 50 44  1  0  0  0  0
 52 50  2  0  0  0  0
M  END
>  <MODEL>
5

>  <REMARK>
 VINA RESULT:      -7.0      3.332      7.833
  Name = 
  10 active torsions:
  status: ('A' for Active; 'I' for Inactive)
    1  A    between atoms: C_8  and  C_33
    2  A    between atoms: C_9  and  C_35
    3  A    between atoms: P_23  and  C_35
    4  A    between atoms: P_23  and  O_49
    5  A    between atoms: C_25  and  C_30
    6  A    between atoms: C_25  and  C_45
    7  A    between atoms: C_28  and  C_43
    8  A    between atoms: C_35  and  C_45
    9  A    between atoms: C_36  and  C_44
   10  A    between atoms: C_46  and  N_48
                            x       y       z     vdW  Elec       q    Type
                         _______ _______ _______ _____ _____    ______ ____

>  <TORSDO>
F 10

$$$$
=
 OpenBabel10232411423D

 52 59  0  0  1  0  0  0  0  0999 V2000
  184.3060  176.7290  136.1780 C   0  0  0  0  0  3  0  0  0  0  0  0
  186.0650  174.2460  136.5480 C   0  0  0  0  0  0  0  0  0  0  0  0
  186.4460  175.4780  136.2930 C   0  0  0  0  0  0  0  0  0  0  0  0
  181.0630  172.4850  135.9160 C   0  0  2  0  0  3  0  0  0  0  0  0
  182.9790  171.8580  135.1610 C   0  0  1  0  0  3  0  0  0  0  0  0
  183.0900  173.4320  136.9740 C   0  0  1  0  0  3  0  0  0  0  0  0
  180.1200  172.9190  134.9860 O   0  0  0  0  0  1  0  0  0  0  0  0
  182.3880  173.1810  135.6540 C   0  0  2  0  0  3  0  0  0  0  0  0
  184.3140  172.6350  136.9650 N   0  0  0  0  0  0  0  0  0  0  0  0
  186.4370  171.9280  136.1150 C   0  0  0  0  0  2  0  0  0  0  0  0
  185.5610  176.3480  135.4500 C   0  0  0  0  0  2  0  0  0  0  0  0
  185.3490  171.0840  135.4700 C   0  0  0  0  0  2  0  0  0  0  0  0
  183.6480  175.8100  136.8290 C   0  0  0  0  0  0  0  0  0  0  0  0
  184.0480  171.4480  136.1810 C   0  0  2  0  0  3  0  0  0  0  0  0
  183.1150  174.8320  137.5130 C   0  0  0  0  0  0  0  0  0  0  0  0
  181.6590  171.1660  135.4530 C   0  0  0  0  0  2  0  0  0  0  0  0
  185.6820  173.0170  136.7700 C   0  0  0  0  0  0  0  0  0  0  0  0
  183.3250  175.9730  139.6590 N   0  0  0  0  0  0  0  0  0  0  0  0
  181.2240  175.8510  138.7580 C   0  0  0  0  0  0  0  0  0  0  0  0
  181.2910  176.9740  139.3870 N   0  0  0  0  0  0  0  0  0  0  0  0
  179.9870  175.3790  138.0750 C   0  0  0  0  0  1  0  0  0  0  0  0
  182.4970  175.0770  138.8610 C   0  0  1  0  0  3  0  0  0  0  0  0
  182.6040  177.0100  139.9350 C   0  0  0  0  0  0  0  0  0  0  0  0
  184.0660  179.0260  139.8420 C   0  0  0  0  0  0  0  0  0  0  0  0
  183.8160  177.6710  141.9700 C   0  0  0  0  0  2  0  0  0  0  0  0
  185.2360  179.6190  140.4200 N   0  0  0  0  0  2  0  0  0  0  0  0
  183.1440  178.1790  140.6930 C   0  0  2  0  0  3  0  0  0  0  0  0
  185.7850  179.1710  141.6940 C   0  0  0  0  0  2  0  0  0  0  0  0
  183.5250  179.6170  138.4140 S   0  0  0  0  0  0  0  0  0  0  0  0
  184.6470  178.7600  142.6380 C   0  0  2  0  0  3  0  0  0  0  0  0
  185.1150  177.9280  146.7380 O   0  0  0  0  0  0  0  0  0  0  0  0
  186.7560  177.0820  145.2150 C   0  0  0  0  0  2  0  0  0  0  0  0
  185.6080  179.1650  146.2840 C   0  0  1  0  0  3  0  0  0  0  0  0
  186.4970  177.9670  146.4430 C   0  0  1  0  0  3  0  0  0  0  0  0
  185.1100  179.4790  144.8600 C   0  0  0  0  0  2  0  0  0  0  0  0
  185.1090  178.3240  143.9650 N   0  0  2  0  0  0  0  0  0  0  0  0
  186.4670  177.7950  143.9090 C   0  0  0  0  0  2  0  0  0  0  0  0
  188.7770  175.3340  137.0190 C   0  0  0  0  0  0  0  0  0  0  0  0
  189.8550  174.6120  137.1720 C   0  0  0  0  0  3  0  0  0  0  0  0
  187.6890  176.0440  136.8500 C   0  0  0  0  0  3  0  0  0  0  0  0
  189.2910  173.6180  134.9480 C   0  0  0  0  0  1  0  0  0  0  0  0
  190.2610  173.6240  136.1230 C   0  0  1  0  0  3  0  0  0  0  0  0
  191.6950  173.8590  135.6480 C   0  0  0  0  0  2  0  0  0  0  0  0
  192.6930  173.9350  136.8000 C   0  0  2  0  0  3  0  0  0  0  0  0
  195.0650  175.2290  135.8690 O   0  0  0  0  0  0  0  0  0  0  0  0
  193.6220  175.4950  136.7170 P   0  0  1  0  0  0  0  0  0  0  0  0
  192.7950  176.5290  135.9860 O   0  0  0  0  0  1  0  0  0  0  0  0
  192.7900  176.6290  138.7470 C   0  0  0  0  0  1  0  0  0  0  0  0
  193.9680  176.0310  138.2900 O   0  0  0  0  0  0  0  0  0  0  0  0
  193.6210  172.7650  136.7610 C   0  0  0  0  0  0  0  0  0  0  0  0
  193.4350  171.7440  135.8340 O   0  0  0  0  0  0  0  0  0  0  0  0
  194.5840  172.7060  137.5700 O   0  0  0  0  0  1  0  0  0  0  0  0
  1 13  2  0  0  0  0
  2 17  2  0  0  0  0
  3  2  2  0  0  0  0
  3 40  1  0  0  0  0
  4  7  1  6  0  0  0
  5 16  1  1  0  0  0
  5  8  1  0  0  0  0
  5 14  1  0  0  0  0
  6 15  1  6  0  0  0
  8  4  1  0  0  0  0
  8  6  1  0  0  0  0
  9  6  1  0  0  0  0
 10 17  1  0  0  0  0
 11  1  1  0  0  0  0
 11  3  1  0  0  0  0
 12 10  1  0  0  0  0
 12 14  1  0  0  0  0
 13 15  2  0  0  0  0
 14  9  1  0  0  0  0
 15 22  1  0  0  0  0
 16  4  1  0  0  0  0
 17  9  1  0  0  0  0
 18 23  2  0  0  0  0
 19 22  1  0  0  0  0
 19 20  2  0  0  0  0
 20 23  1  0  0  0  0
 21 19  1  0  0  0  0
 22 18  1  0  0  0  0
 23 27  1  0  0  0  0
 24 26  1  0  0  0  0
 24 27  1  0  0  0  0
 25 30  1  0  0  0  0
 26 28  1  0  0  0  0
 27 25  1  0  0  0  0
 28 30  1  0  0  0  0
 29 24  2  0  0  0  0
 30 36  1  0  0  0  0
 32 34  1  0  0  0  0
 33 34  1  0  0  0  0
 33 31  1  0  0  0  0
 34 31  1  0  0  0  0
 35 33  1  0  0  0  0
 36 35  1  0  0  0  0
 37 36  1  0  0  0  0
 37 32  1  0  0  0  0
 38 39  2  0  0  0  0
 40 38  2  0  0  0  0
 41 42  1  0  0  0  0
 42 39  1  0  0  0  0
 43 42  1  0  0  0  0
 43 44  1  0  0  0  0
 45 46  2  0  0  0  0
 46 44  1  0  0  0  0
 46 49  1  0  0  0  0
 47 46  1  0  0  0  0
 49 48  1  0  0  0  0
 50 44  1  0  0  0  0
 50 52  1  0  0  0  0
 51 50  2  0  0  0  0
M  END
>  <MODEL>
6

>  <REMARK>
 VINA RESULT:      -6.9      3.530      8.456
  Name = 
  10 active torsions:
  status: ('A' for Active; 'I' for Inactive)
    1  A    between atoms: C_8  and  C_33
    2  A    between atoms: C_9  and  C_35
    3  A    between atoms: P_23  and  C_35
    4  A    between atoms: P_23  and  O_49
    5  A    between atoms: C_25  and  C_30
    6  A    between atoms: C_25  and  C_45
    7  A    between atoms: C_28  and  C_43
    8  A    between atoms: C_35  and  C_45
    9  A    between atoms: C_36  and  C_44
   10  A    between atoms: C_46  and  N_48
                            x       y       z     vdW  Elec       q    Type
                         _______ _______ _______ _____ _____    ______ ____

>  <TORSDO>
F 10

$$$$
=
 OpenBabel10232411423D

 52 59  0  0  1  0  0  0  0  0999 V2000
  188.2240  177.9830  136.8280 C   0  0  0  0  0  3  0  0  0  0  0  0
  188.0810  177.8380  139.8860 C   0  0  0  0  0  0  0  0  0  0  0  0
  187.2330  178.4120  139.0620 C   0  0  0  0  0  0  0  0  0  0  0  0
  193.0380  176.3910  138.5260 C   0  0  2  0  0  3  0  0  0  0  0  0
  192.2140  177.6490  140.0660 C   0  0  1  0  0  3  0  0  0  0  0  0
  190.6000  176.2770  138.9320 C   0  0  1  0  0  3  0  0  0  0  0  0
  193.8730  176.9940  137.5850 O   0  0  0  0  0  1  0  0  0  0  0  0
  191.7660  177.2090  138.6700 C   0  0  2  0  0  3  0  0  0  0  0  0
  190.1050  176.5770  140.2720 N   0  0  0  0  0  0  0  0  0  0  0  0
  189.2030  177.9820  141.9890 C   0  0  0  0  0  2  0  0  0  0  0  0
  187.7570  179.0260  137.7980 C   0  0  0  0  0  2  0  0  0  0  0  0
  190.7210  178.0590  142.0440 C   0  0  0  0  0  2  0  0  0  0  0  0
  188.9630  177.0000  137.2620 C   0  0  0  0  0  0  0  0  0  0  0  0
  191.2390  177.0110  141.0610 C   0  0  2  0  0  3  0  0  0  0  0  0
  189.6280  176.0210  137.8180 C   0  0  0  0  0  0  0  0  0  0  0  0
  193.4690  176.8070  139.9220 C   0  0  0  0  0  2  0  0  0  0  0  0
  188.9430  177.2970  140.7050 C   0  0  0  0  0  0  0  0  0  0  0  0
  188.0960  174.3800  136.8640 N   0  0  0  0  0  0  0  0  0  0  0  0
  190.2640  174.3110  136.1340 C   0  0  0  0  0  0  0  0  0  0  0  0
  189.5270  173.9690  135.1330 N   0  0  0  0  0  0  0  0  0  0  0  0
  191.7520  174.3380  136.0700 C   0  0  0  0  0  1  0  0  0  0  0  0
  189.4500  174.6030  137.3520 C   0  0  1  0  0  3  0  0  0  0  0  0
  188.1930  174.0190  135.6270 C   0  0  0  0  0  0  0  0  0  0  0  0
  185.9650  174.8660  134.8970 C   0  0  0  0  0  0  0  0  0  0  0  0
  186.4280  172.3830  135.1190 C   0  0  0  0  0  2  0  0  0  0  0  0
  184.5670  174.5510  134.8910 N   0  0  0  0  0  2  0  0  0  0  0  0
  186.9930  173.7620  134.7720 C   0  0  2  0  0  3  0  0  0  0  0  0
  184.0750  173.1990  135.1250 C   0  0  0  0  0  2  0  0  0  0  0  0
  186.4100  176.4150  134.6070 S   0  0  0  0  0  0  0  0  0  0  0  0
  185.0440  172.1770  134.5160 C   0  0  2  0  0  3  0  0  0  0  0  0
  182.8950  168.6010  135.0820 O   0  0  0  0  0  0  0  0  0  0  0  0
  185.2300  168.4540  134.5800 C   0  0  0  0  0  2  0  0  0  0  0  0
  183.3790  169.2380  136.2390 C   0  0  1  0  0  3  0  0  0  0  0  0
  184.1220  168.1100  135.5850 C   0  0  1  0  0  3  0  0  0  0  0  0
  183.8680  170.6670  135.9320 C   0  0  0  0  0  2  0  0  0  0  0  0
  184.6070  170.7810  134.6760 N   0  0  2  0  0  0  0  0  0  0  0  0
  185.7450  169.8700  134.7370 C   0  0  0  0  0  2  0  0  0  0  0  0
  185.2710  178.3040  140.5200 C   0  0  0  0  0  0  0  0  0  0  0  0
  184.7830  178.1930  141.7260 C   0  0  0  0  0  3  0  0  0  0  0  0
  185.7810  178.4230  139.3180 C   0  0  0  0  0  3  0  0  0  0  0  0
  184.6160  180.1090  143.3230 C   0  0  0  0  0  1  0  0  0  0  0  0
  185.4310  178.9020  142.8740 C   0  0  1  0  0  3  0  0  0  0  0  0
  185.7000  177.9570  144.0450 C   0  0  0  0  0  2  0  0  0  0  0  0
  186.4720  178.6250  145.1780 C   0  0  2  0  0  3  0  0  0  0  0  0
  188.0630  176.3460  144.5130 O   0  0  0  0  0  0  0  0  0  0  0  0
  187.9270  177.6270  145.6150 P   0  0  1  0  0  0  0  0  0  0  0  0
  189.1660  178.4910  145.5350 O   0  0  0  0  0  1  0  0  0  0  0  0
  188.9050  177.3840  147.8690 C   0  0  0  0  0  1  0  0  0  0  0  0
  187.7410  177.0180  147.1880 O   0  0  0  0  0  0  0  0  0  0  0  0
  185.5870  178.8190  146.3660 C   0  0  0  0  0  0  0  0  0  0  0  0
  186.0290  179.5420  147.4690 O   0  0  0  0  0  1  0  0  0  0  0  0
  184.4260  178.3300  146.3640 O   0  0  0  0  0  0  0  0  0  0  0  0
  1 13  2  0  0  0  0
  1 11  1  0  0  0  0
  2 17  2  0  0  0  0
  3 40  1  0  0  0  0
  3  2  2  0  0  0  0
  4  7  1  6  0  0  0
  4  8  1  0  0  0  0
  4 16  1  0  0  0  0
  5 16  1  1  0  0  0
  5 14  1  0  0  0  0
  6 15  1  6  0  0  0
  6  9  1  0  0  0  0
  8  6  1  0  0  0  0
  8  5  1  0  0  0  0
  9 17  1  0  0  0  0
  9 14  1  0  0  0  0
 10 12  1  0  0  0  0
 11  3  1  0  0  0  0
 13 15  2  0  0  0  0
 14 12  1  0  0  0  0
 17 10  1  0  0  0  0
 18 22  1  0  0  0  0
 19 22  1  0  0  0  0
 20 23  1  0  0  0  0
 20 19  2  0  0  0  0
 21 19  1  0  0  0  0
 22 15  1  0  0  0  0
 23 18  2  0  0  0  0
 26 24  1  0  0  0  0
 26 28  1  0  0  0  0
 27 24  1  0  0  0  0
 27 25  1  0  0  0  0
 27 23  1  0  0  0  0
 29 24  2  0  0  0  0
 30 36  1  0  0  0  0
 30 25  1  0  0  0  0
 30 28  1  0  0  0  0
 31 34  1  0  0  0  0
 31 33  1  0  0  0  0
 32 37  1  0  0  0  0
 32 34  1  0  0  0  0
 34 33  1  0  0  0  0
 35 33  1  0  0  0  0
 36 37  1  0  0  0  0
 36 35  1  0  0  0  0
 38 39  2  0  0  0  0
 39 42  1  0  0  0  0
 40 38  2  0  0  0  0
 42 41  1  0  0  0  0
 42 43  1  0  0  0  0
 43 44  1  0  0  0  0
 44 46  1  0  0  0  0
 44 50  1  0  0  0  0
 45 46  2  0  0  0  0
 46 49  1  0  0  0  0
 47 46  1  0  0  0  0
 49 48  1  0  0  0  0
 50 51  1  0  0  0  0
 52 50  2  0  0  0  0
M  END
>  <MODEL>
7

>  <REMARK>
 VINA RESULT:      -6.9      3.602      7.840
  Name = 
  10 active torsions:
  status: ('A' for Active; 'I' for Inactive)
    1  A    between atoms: C_8  and  C_33
    2  A    between atoms: C_9  and  C_35
    3  A    between atoms: P_23  and  C_35
    4  A    between atoms: P_23  and  O_49
    5  A    between atoms: C_25  and  C_30
    6  A    between atoms: C_25  and  C_45
    7  A    between atoms: C_28  and  C_43
    8  A    between atoms: C_35  and  C_45
    9  A    between atoms: C_36  and  C_44
   10  A    between atoms: C_46  and  N_48
                            x       y       z     vdW  Elec       q    Type
                         _______ _______ _______ _____ _____    ______ ____

>  <TORSDO>
F 10

$$$$
=
 OpenBabel10232411423D

 52 59  0  0  1  0  0  0  0  0999 V2000
  186.1630  178.8140  137.1640 C   0  0  0  0  0  3  0  0  0  0  0  0
  186.6610  175.8370  137.7000 C   0  0  0  0  0  0  0  0  0  0  0  0
  187.5330  176.8210  137.7190 C   0  0  0  0  0  0  0  0  0  0  0  0
  181.8230  176.1920  135.4680 C   0  0  2  0  0  3  0  0  0  0  0  0
  183.4980  174.8650  135.2100 C   0  0  1  0  0  3  0  0  0  0  0  0
  183.6230  176.2590  137.1640 C   0  0  1  0  0  3  0  0  0  0  0  0
  181.4460  176.9670  134.3720 O   0  0  0  0  0  1  0  0  0  0  0  0
  183.3220  176.3110  135.6800 C   0  0  2  0  0  3  0  0  0  0  0  0
  184.4000  175.0440  137.4000 N   0  0  0  0  0  0  0  0  0  0  0  0
  186.2560  173.5620  137.1010 C   0  0  0  0  0  2  0  0  0  0  0  0
  187.3430  177.9740  136.7780 C   0  0  0  0  0  2  0  0  0  0  0  0
  185.1880  173.2180  136.0740 C   0  0  0  0  0  2  0  0  0  0  0  0
  185.0440  178.2250  137.4830 C   0  0  0  0  0  0  0  0  0  0  0  0
  183.9650  174.0620  136.4290 C   0  0  2  0  0  3  0  0  0  0  0  0
  184.0010  177.5330  137.8600 C   0  0  0  0  0  0  0  0  0  0  0  0
  181.9950  174.7470  135.0290 C   0  0  0  0  0  2  0  0  0  0  0  0
  185.7990  174.8570  137.6480 C   0  0  0  0  0  0  0  0  0  0  0  0
  183.4860  177.3030  140.2340 N   0  0  0  0  0  0  0  0  0  0  0  0
  183.4060  179.4170  139.3620 C   0  0  0  0  0  0  0  0  0  0  0  0
  183.8190  179.5350  140.5770 N   0  0  0  0  0  0  0  0  0  0  0  0
  183.1720  180.5880  138.4710 C   0  0  0  0  0  1  0  0  0  0  0  0
  183.1360  177.9940  139.0000 C   0  0  1  0  0  3  0  0  0  0  0  0
  183.8500  178.2060  141.0840 C   0  0  0  0  0  0  0  0  0  0  0  0
  183.6990  178.7260  143.5170 C   0  0  0  0  0  0  0  0  0  0  0  0
  185.8700  177.9460  142.4630 C   0  0  0  0  0  2  0  0  0  0  0  0
  184.4680  179.1730  144.6420 N   0  0  0  0  0  2  0  0  0  0  0  0
  184.3420  177.8620  142.4530 C   0  0  2  0  0  3  0  0  0  0  0  0
  185.9250  179.1400  144.6480 C   0  0  0  0  0  2  0  0  0  0  0  0
  182.0660  178.7920  143.6210 S   0  0  0  0  0  0  0  0  0  0  0  0
  186.4240  177.9070  143.8820 C   0  0  2  0  0  3  0  0  0  0  0  0
  190.4820  177.4670  142.8520 O   0  0  0  0  0  0  0  0  0  0  0  0
  189.9300  177.8470  145.1490 C   0  0  0  0  0  2  0  0  0  0  0  0
  189.7540  176.2830  143.0700 C   0  0  1  0  0  3  0  0  0  0  0  0
  190.6020  176.9020  144.1420 C   0  0  1  0  0  3  0  0  0  0  0  0
  188.2390  176.5600  143.1330 C   0  0  0  0  0  2  0  0  0  0  0  0
  187.8900  177.7750  143.8670 N   0  0  2  0  0  0  0  0  0  0  0  0
  188.4280  177.6580  145.2170 C   0  0  0  0  0  2  0  0  0  0  0  0
  189.7660  176.1720  138.4790 C   0  0  0  0  0  0  0  0  0  0  0  0
  190.8650  175.4990  138.2660 C   0  0  0  0  0  3  0  0  0  0  0  0
  188.6600  176.8490  138.6700 C   0  0  0  0  0  3  0  0  0  0  0  0
  190.8320  176.4560  135.9560 C   0  0  0  0  0  1  0  0  0  0  0  0
  191.4580  175.4300  136.8940 C   0  0  1  0  0  3  0  0  0  0  0  0
  192.9800  175.5730  136.9260 C   0  0  0  0  0  2  0  0  0  0  0  0
  193.6980  174.2280  136.9610 C   0  0  2  0  0  3  0  0  0  0  0  0
  196.4390  175.0380  136.9580 O   0  0  0  0  0  0  0  0  0  0  0  0
  195.2280  174.3640  137.9330 P   0  0  1  0  0  0  0  0  0  0  0  0
  194.9830  175.2650  139.1240 O   0  0  0  0  0  1  0  0  0  0  0  0
  196.8490  172.5130  137.7200 C   0  0  0  0  0  1  0  0  0  0  0  0
  195.7030  172.8210  138.4580 O   0  0  0  0  0  0  0  0  0  0  0  0
  193.9930  173.7610  135.5730 C   0  0  0  0  0  0  0  0  0  0  0  0
  194.2580  172.4190  135.3180 O   0  0  0  0  0  1  0  0  0  0  0  0
  193.9940  174.5880  134.6240 O   0  0  0  0  0  0  0  0  0  0  0  0
  1 13  2  0  0  0  0
  2  3  2  0  0  0  0
  3 40  1  0  0  0  0
  4  7  1  6  0  0  0
  4  8  1  0  0  0  0
  5 16  1  1  0  0  0
  5  8  1  0  0  0  0
  5 14  1  0  0  0  0
  6  9  1  0  0  0  0
  6 15  1  6  0  0  0
  8  6  1  0  0  0  0
  9 17  1  0  0  0  0
 10 17  1  0  0  0  0
 11  1  1  0  0  0  0
 11  3  1  0  0  0  0
 12 14  1  0  0  0  0
 12 10  1  0  0  0  0
 13 15  2  0  0  0  0
 14  9  1  0  0  0  0
 15 22  1  0  0  0  0
 16  4  1  0  0  0  0
 17  2  2  0  0  0  0
 18 23  2  0  0  0  0
 19 20  2  0  0  0  0
 20 23  1  0  0  0  0
 21 19  1  0  0  0  0
 22 19  1  0  0  0  0
 22 18  1  0  0  0  0
 23 27  1  0  0  0  0
 24 29  2  0  0  0  0
 24 26  1  0  0  0  0
 25 30  1  0  0  0  0
 26 28  1  0  0  0  0
 27 25  1  0  0  0  0
 27 24  1  0  0  0  0
 30 28  1  0  0  0  0
 31 33  1  0  0  0  0
 31 34  1  0  0  0  0
 32 37  1  0  0  0  0
 33 35  1  0  0  0  0
 33 34  1  0  0  0  0
 34 32  1  0  0  0  0
 35 36  1  0  0  0  0
 36 30  1  0  0  0  0
 36 37  1  0  0  0  0
 38 40  2  0  0  0  0
 39 38  2  0  0  0  0
 41 42  1  0  0  0  0
 42 43  1  0  0  0  0
 42 39  1  0  0  0  0
 43 44  1  0  0  0  0
 44 46  1  0  0  0  0
 45 46  2  0  0  0  0
 46 49  1  0  0  0  0
 46 47  1  0  0  0  0
 48 49  1  0  0  0  0
 50 44  1  0  0  0  0
 51 50  1  0  0  0  0
 52 50  2  0  0  0  0
M  END
>  <MODEL>
8

>  <REMARK>
 VINA RESULT:      -6.7      3.143      7.557
  Name = 
  10 active torsions:
  status: ('A' for Active; 'I' for Inactive)
    1  A    between atoms: C_8  and  C_33
    2  A    between atoms: C_9  and  C_35
    3  A    between atoms: P_23  and  C_35
    4  A    between atoms: P_23  and  O_49
    5  A    between atoms: C_25  and  C_30
    6  A    between atoms: C_25  and  C_45
    7  A    between atoms: C_28  and  C_43
    8  A    between atoms: C_35  and  C_45
    9  A    between atoms: C_36  and  C_44
   10  A    between atoms: C_46  and  N_48
                            x       y       z     vdW  Elec       q    Type
                         _______ _______ _______ _____ _____    ______ ____

>  <TORSDO>
F 10

$$$$
=
 OpenBabel10232411423D

 52 59  0  0  1  0  0  0  0  0999 V2000
  185.9810  177.2790  143.4060 C   0  0  0  0  0  3  0  0  0  0  0  0
  183.7160  179.1660  144.2470 C   0  0  0  0  0  0  0  0  0  0  0  0
  184.7420  178.7630  144.9630 C   0  0  0  0  0  0  0  0  0  0  0  0
  182.1330  176.8090  139.7240 C   0  0  2  0  0  3  0  0  0  0  0  0
  181.1640  177.2780  141.5870 C   0  0  1  0  0  3  0  0  0  0  0  0
  183.2880  178.3570  141.2700 C   0  0  1  0  0  3  0  0  0  0  0  0
  182.2450  175.4620  139.3820 O   0  0  0  0  0  1  0  0  0  0  0  0
  182.6070  177.0080  141.1530 C   0  0  2  0  0  3  0  0  0  0  0  0
  182.4760  179.1690  142.1740 N   0  0  0  0  0  0  0  0  0  0  0  0
  181.3850  179.6810  144.2420 C   0  0  0  0  0  2  0  0  0  0  0  0
  185.2880  177.3840  144.7320 C   0  0  0  0  0  2  0  0  0  0  0  0
  180.4250  178.8870  143.3700 C   0  0  0  0  0  2  0  0  0  0  0  0
  185.4080  177.7840  142.3500 C   0  0  0  0  0  0  0  0  0  0  0  0
  181.1000  178.7510  142.0060 C   0  0  2  0  0  3  0  0  0  0  0  0
  184.7830  178.3940  141.3760 C   0  0  0  0  0  0  0  0  0  0  0  0
  180.7050  177.1040  140.1500 C   0  0  0  0  0  2  0  0  0  0  0  0
  182.6800  179.5380  143.5440 C   0  0  0  0  0  0  0  0  0  0  0  0
  186.7390  178.4130  139.9170 N   0  0  0  0  0  0  0  0  0  0  0  0
  184.7880  179.2190  139.0340 C   0  0  0  0  0  0  0  0  0  0  0  0
  185.4240  178.6530  138.0670 N   0  0  0  0  0  0  0  0  0  0  0  0
  183.4830  179.9130  138.8460 C   0  0  0  0  0  1  0  0  0  0  0  0
  185.5440  179.1440  140.3190 C   0  0  1  0  0  3  0  0  0  0  0  0
  186.6280  178.1720  138.6530 C   0  0  0  0  0  0  0  0  0  0  0  0
  188.3710  178.2210  136.8710 C   0  0  0  0  0  0  0  0  0  0  0  0
  186.9620  176.1540  137.2860 C   0  0  0  0  0  2  0  0  0  0  0  0
  188.7250  177.6600  135.6010 N   0  0  0  0  0  2  0  0  0  0  0  0
  187.6460  177.3780  137.8980 C   0  0  2  0  0  3  0  0  0  0  0  0
  188.1210  176.4320  135.0990 C   0  0  0  0  0  2  0  0  0  0  0  0
  189.1230  179.5960  137.3460 S   0  0  0  0  0  0  0  0  0  0  0  0
  187.8560  175.4660  136.2620 C   0  0  2  0  0  3  0  0  0  0  0  0
  185.3640  172.3320  134.9630 O   0  0  0  0  0  0  0  0  0  0  0  0
  187.6890  171.8700  135.2920 C   0  0  0  0  0  2  0  0  0  0  0  0
  185.4100  172.5690  136.3490 C   0  0  1  0  0  3  0  0  0  0  0  0
  186.2520  171.5120  135.6960 C   0  0  1  0  0  3  0  0  0  0  0  0
  186.0990  173.9110  136.6660 C   0  0  0  0  0  2  0  0  0  0  0  0
  187.2750  174.1810  135.8420 N   0  0  2  0  0  0  0  0  0  0  0  0
  188.2190  173.0840  136.0270 C   0  0  0  0  0  2  0  0  0  0  0  0
  186.3290  179.2130  146.7680 C   0  0  0  0  0  0  0  0  0  0  0  0
  187.2580  178.7700  147.5720 C   0  0  0  0  0  3  0  0  0  0  0  0
  185.4020  179.6410  145.9460 C   0  0  0  0  0  3  0  0  0  0  0  0
  187.8560  176.3650  147.2380 C   0  0  0  0  0  1  0  0  0  0  0  0
  188.2990  177.8150  147.0770 C   0  0  1  0  0  3  0  0  0  0  0  0
  188.6960  178.1090  145.6300 C   0  0  0  0  0  2  0  0  0  0  0  0
  189.4180  176.9400  144.9670 C   0  0  2  0  0  3  0  0  0  0  0  0
  191.9820  175.7770  144.4790 O   0  0  0  0  0  0  0  0  0  0  0  0
  191.2110  177.0890  145.2250 P   0  0  1  0  0  0  0  0  0  0  0  0
  191.6980  178.3780  144.6010 O   0  0  0  0  0  1  0  0  0  0  0  0
  191.9820  175.7890  147.1770 C   0  0  0  0  0  1  0  0  0  0  0  0
  191.5450  177.0840  146.8890 O   0  0  0  0  0  0  0  0  0  0  0  0
  189.0950  176.8900  143.5100 C   0  0  0  0  0  0  0  0  0  0  0  0
  189.1120  178.0480  142.7390 O   0  0  0  0  0  0  0  0  0  0  0  0
  188.8130  175.7870  142.9710 O   0  0  0  0  0  1  0  0  0  0  0  0
  1 11  1  0  0  0  0
  2  3  2  0  0  0  0
  3 40  1  0  0  0  0
  4  7  1  1  0  0  0
  4 16  1  0  0  0  0
  4  8  1  0  0  0  0
  5 16  1  6  0  0  0
  5 14  1  0  0  0  0
  6 15  1  1  0  0  0
  6  9  1  0  0  0  0
  8  6  1  0  0  0  0
  8  5  1  0  0  0  0
  9 17  1  0  0  0  0
 11  3  1  0  0  0  0
 12 10  1  0  0  0  0
 13  1  2  0  0  0  0
 14  9  1  0  0  0  0
 14 12  1  0  0  0  0
 15 13  2  0  0  0  0
 17 10  1  0  0  0  0
 17  2  2  0  0  0  0
 18 22  1  0  0  0  0
 19 22  1  0  0  0  0
 20 23  1  0  0  0  0
 20 19  2  0  0  0  0
 21 19  1  0  0  0  0
 22 15  1  0  0  0  0
 23 18  2  0  0  0  0
 24 29  2  0  0  0  0
 24 27  1  0  0  0  0
 25 27  1  0  0  0  0
 26 24  1  0  0  0  0
 27 23  1  0  0  0  0
 28 26  1  0  0  0  0
 28 30  1  0  0  0  0
 30 25  1  0  0  0  0
 31 34  1  0  0  0  0
 31 33  1  0  0  0  0
 32 34  1  0  0  0  0
 32 37  1  0  0  0  0
 33 35  1  0  0  0  0
 34 33  1  0  0  0  0
 36 37  1  0  0  0  0
 36 30  1  0  0  0  0
 36 35  1  0  0  0  0
 38 39  2  0  0  0  0
 40 38  2  0  0  0  0
 42 41  1  0  0  0  0
 42 39  1  0  0  0  0
 43 42  1  0  0  0  0
 44 46  1  0  0  0  0
 44 43  1  0  0  0  0
 45 46  2  0  0  0  0
 46 49  1  0  0  0  0
 47 46  1  0  0  0  0
 49 48  1  0  0  0  0
 50 44  1  0  0  0  0
 51 50  2  0  0  0  0
 52 50  1  0  0  0  0
M  END
>  <MODEL>
9

>  <REMARK>
 VINA RESULT:      -6.7      1.976      3.015
  Name = 
  10 active torsions:
  status: ('A' for Active; 'I' for Inactive)
    1  A    between atoms: C_8  and  C_33
    2  A    between atoms: C_9  and  C_35
    3  A    between atoms: P_23  and  C_35
    4  A    between atoms: P_23  and  O_49
    5  A    between atoms: C_25  and  C_30
    6  A    between atoms: C_25  and  C_45
    7  A    between atoms: C_28  and  C_43
    8  A    between atoms: C_35  and  C_45
    9  A    between atoms: C_36  and  C_44
   10  A    between atoms: C_46  and  N_48
                            x       y       z     vdW  Elec       q    Type
                         _______ _______ _______ _____ _____    ______ ____

>  <TORSDO>
F 10

$$$$
