=
 OpenBabel10232408213D

 30 34  0  0  1  0  0  0  0  0999 V2000
  189.5340  177.0450  146.0560 C   0  0  0  0  0  0  0  0  0  0  0  0
  190.3690  178.1210  143.9490 C   0  0  0  0  0  2  0  0  0  0  0  0
  183.9220  178.9060  146.0330 N   0  0  0  0  0  0  0  0  0  0  0  0
  186.1800  178.2190  146.2290 C   0  0  0  0  0  0  0  0  0  0  0  0
  182.8640  178.7920  142.5180 C   0  0  0  0  0  0  0  0  0  0  0  0
  185.0050  178.6620  146.8280 C   0  0  0  0  0  2  0  0  0  0  0  0
  190.4850  177.0920  144.9800 N   0  0  0  0  0  0  0  0  0  0  0  0
  187.3310  177.9000  146.8530 N   0  0  0  0  0  0  0  0  0  0  0  0
  181.7350  179.0490  141.7530 O   0  0  0  0  0  1  0  0  0  0  0  0
  187.5270  177.5810  144.6120 C   0  0  0  0  0  0  0  0  0  0  0  0
  188.1540  177.5100  145.8490 C   0  0  0  0  0  0  0  0  0  0  0  0
  186.2520  178.0310  144.8720 C   0  0  0  0  0  0  0  0  0  0  0  0
  189.8790  176.6130  147.1890 O   0  0  0  0  0  0  0  0  0  0  0  0
  183.9600  178.7240  144.6770 C   0  0  0  0  0  0  0  0  0  0  0  0
  182.8260  178.9820  143.9030 C   0  0  0  0  0  3  0  0  0  0  0  0
  185.1480  178.2680  144.0490 C   0  0  0  0  0  0  0  0  0  0  0  0
  185.1800  178.0820  142.6620 C   0  0  0  0  0  3  0  0  0  0  0  0
  188.0730  177.0480  143.3250 C   0  0  0  0  0  2  0  0  0  0  0  0
  189.3430  177.7720  142.8590 C   0  0  2  0  0  3  0  0  0  0  0  0
  191.7450  176.3740  145.0890 C   0  0  0  0  0  1  0  0  0  0  0  0
  184.0370  178.3430  141.9000 C   0  0  0  0  0  3  0  0  0  0  0  0
  191.3740  177.3840  141.6080 O   0  0  0  0  0  1  0  0  0  0  0  0
  190.0090  177.0840  141.6630 C   0  0  2  0  0  3  0  0  0  0  0  0
  189.3120  177.3540  140.3200 C   0  0  2  0  0  3  0  0  0  0  0  0
  190.6820  176.0910  138.7420 C   0  0  2  0  0  3  0  0  0  0  0  0
  190.3450  177.4340  139.2050 C   0  0  1  0  0  3  0  0  0  0  0  0
  191.9930  176.1120  138.1200 N   0  0  0  0  0  1  0  0  0  0  0  0
  189.7600  176.9220  137.9560 N   0  0  0  0  0  2  0  0  0  0  0  0
  188.4690  178.6240  140.3560 C   0  0  0  0  0  2  0  0  0  0  0  0
  187.2770  178.4280  139.6580 O   0  0  0  0  0  1  0  0  0  0  0  0
  1 13  2  0  0  0  0
  2  7  1  0  0  0  0
  3  6  1  0  0  0  0
  4  6  1  0  0  0  0
  4  8  2  0  0  0  0
  5 15  2  0  0  0  0
  7 20  1  0  0  0  0
  7  1  1  0  0  0  0
  9  5  1  0  0  0  0
 10 12  1  0  0  0  0
 10 11  2  0  0  0  0
 11  1  1  0  0  0  0
 11  8  1  0  0  0  0
 12  4  1  0  0  0  0
 14  3  2  0  0  0  0
 15 14  1  0  0  0  0
 16 14  1  0  0  0  0
 16 12  2  0  0  0  0
 17 16  1  0  0  0  0
 18 10  1  0  0  0  0
 19 23  1  6  0  0  0
 19 18  1  0  0  0  0
 19  2  1  0  0  0  0
 21  5  1  0  0  0  0
 21 17  2  0  0  0  0
 23 22  1  6  0  0  0
 24 29  1  1  0  0  0
 24 23  1  0  0  0  0
 25 27  1  6  0  0  0
 25 26  1  0  0  0  0
 26 24  1  1  0  0  0
 28 25  1  0  0  0  0
 28 26  1  0  0  0  0
 30 29  1  0  0  0  0
M  END
>  <MODEL>
1

>  <REMARK>
 VINA RESULT:     -10.8      0.000      0.000
  Name = 
  4 active torsions:
  status: ('A' for Active; 'I' for Inactive)
    1  A    between atoms: C_11  and  C_20
    2  A    between atoms: C_17  and  C_20
    3  A    between atoms: C_20  and  C_22
    4  A    between atoms: C_22  and  C_28
                            x       y       z     vdW  Elec       q    Type
                         _______ _______ _______ _____ _____    ______ ____

>  <TORSDO>
F 4

$$$$
=
 OpenBabel10232408213D

 30 34  0  0  1  0  0  0  0  0999 V2000
  189.5310  177.0480  145.5270 C   0  0  0  0  0  0  0  0  0  0  0  0
  190.1590  177.9990  143.2920 C   0  0  0  0  0  2  0  0  0  0  0  0
  183.9850  179.0400  145.9980 N   0  0  0  0  0  0  0  0  0  0  0  0
  186.2370  178.3090  145.9910 C   0  0  0  0  0  0  0  0  0  0  0  0
  182.5580  178.7800  142.6230 C   0  0  0  0  0  0  0  0  0  0  0  0
  185.1410  178.8090  146.6860 C   0  0  0  0  0  2  0  0  0  0  0  0
  190.3630  177.0190  144.3560 N   0  0  0  0  0  0  0  0  0  0  0  0
  187.4410  177.9940  146.5060 N   0  0  0  0  0  0  0  0  0  0  0  0
  181.3590  179.0270  141.9680 O   0  0  0  0  0  1  0  0  0  0  0  0
  187.3930  177.5610  144.2760 C   0  0  0  0  0  0  0  0  0  0  0  0
  188.1460  177.5350  145.4430 C   0  0  0  0  0  0  0  0  0  0  0  0
  186.1610  178.0530  144.6450 C   0  0  0  0  0  0  0  0  0  0  0  0
  189.9850  176.6630  146.6380 O   0  0  0  0  0  0  0  0  0  0  0  0
  183.8750  178.7910  144.6560 C   0  0  0  0  0  0  0  0  0  0  0  0
  182.6700  179.0380  143.9930 C   0  0  0  0  0  3  0  0  0  0  0  0
  184.9810  178.2760  143.9310 C   0  0  0  0  0  0  0  0  0  0  0  0
  184.8620  178.0220  142.5600 C   0  0  0  0  0  3  0  0  0  0  0  0
  187.7890  176.9530  142.9680 C   0  0  0  0  0  2  0  0  0  0  0  0
  189.0170  177.6220  142.3350 C   0  0  2  0  0  3  0  0  0  0  0  0
  191.6140  176.2770  144.3700 C   0  0  0  0  0  1  0  0  0  0  0  0
  183.6510  178.2740  141.9090 C   0  0  0  0  0  3  0  0  0  0  0  0
  190.2740  175.7360  141.4990 O   0  0  0  0  0  1  0  0  0  0  0  0
  189.5390  176.8610  141.1130 C   0  0  2  0  0  3  0  0  0  0  0  0
  190.3170  177.7360  140.1170 C   0  0  2  0  0  3  0  0  0  0  0  0
  188.1270  177.9730  139.0630 C   0  0  2  0  0  3  0  0  0  0  0  0
  189.5560  177.8300  138.8020 C   0  0  1  0  0  3  0  0  0  0  0  0
  187.3790  177.5200  137.9050 N   0  0  0  0  0  1  0  0  0  0  0  0
  188.9220  179.1530  138.6950 N   0  0  0  0  0  2  0  0  0  0  0  0
  191.7300  177.2150  139.8780 C   0  0  0  0  0  2  0  0  0  0  0  0
  192.6120  177.7770  140.8010 O   0  0  0  0  0  1  0  0  0  0  0  0
  1 13  2  0  0  0  0
  2  7  1  0  0  0  0
  3  6  1  0  0  0  0
  4  8  2  0  0  0  0
  4  6  1  0  0  0  0
  5 15  2  0  0  0  0
  7 20  1  0  0  0  0
  7  1  1  0  0  0  0
  9  5  1  0  0  0  0
 10 12  1  0  0  0  0
 10 11  2  0  0  0  0
 11  1  1  0  0  0  0
 11  8  1  0  0  0  0
 12  4  1  0  0  0  0
 14  3  2  0  0  0  0
 15 14  1  0  0  0  0
 16 12  2  0  0  0  0
 16 14  1  0  0  0  0
 17 16  1  0  0  0  0
 18 10  1  0  0  0  0
 19 23  1  6  0  0  0
 19 18  1  0  0  0  0
 19  2  1  0  0  0  0
 21 17  2  0  0  0  0
 21  5  1  0  0  0  0
 23 22  1  1  0  0  0
 24 29  1  6  0  0  0
 24 23  1  0  0  0  0
 25 27  1  6  0  0  0
 26 25  1  0  0  0  0
 26 24  1  1  0  0  0
 28 26  1  0  0  0  0
 28 25  1  0  0  0  0
 29 30  1  0  0  0  0
M  END
>  <MODEL>
2

>  <REMARK>
 VINA RESULT:     -10.3      1.405      1.764
  Name = 
  4 active torsions:
  status: ('A' for Active; 'I' for Inactive)
    1  A    between atoms: C_11  and  C_20
    2  A    between atoms: C_17  and  C_20
    3  A    between atoms: C_20  and  C_22
    4  A    between atoms: C_22  and  C_28
                            x       y       z     vdW  Elec       q    Type
                         _______ _______ _______ _____ _____    ______ ____

>  <TORSDO>
F 4

$$$$
=
 OpenBabel10232408213D

 30 34  0  0  1  0  0  0  0  0999 V2000
  189.7230  176.8360  140.5210 C   0  0  0  0  0  0  0  0  0  0  0  0
  188.1110  178.7580  140.4480 C   0  0  0  0  0  2  0  0  0  0  0  0
  191.2040  176.9230  146.2440 N   0  0  0  0  0  0  0  0  0  0  0  0
  190.8020  176.8790  143.9110 C   0  0  0  0  0  0  0  0  0  0  0  0
  188.1060  177.7240  148.0480 C   0  0  0  0  0  0  0  0  0  0  0  0
  191.6820  176.7390  144.9790 C   0  0  0  0  0  3  0  0  0  0  0  0
  188.6300  177.5160  139.8810 N   0  0  0  0  0  0  0  0  0  0  0  0
  191.0860  176.7060  142.6050 N   0  0  0  0  0  0  0  0  0  0  0  0
  187.6660  177.8970  149.3530 O   0  0  0  0  0  1  0  0  0  0  0  0
  188.8950  177.2430  142.8770 C   0  0  0  0  0  0  0  0  0  0  0  0
  189.9060  176.9330  141.9770 C   0  0  0  0  0  0  0  0  0  0  0  0
  189.4830  177.1960  144.1210 C   0  0  0  0  0  0  0  0  0  0  0  0
  190.5370  176.1590  139.8380 O   0  0  0  0  0  0  0  0  0  0  0  0
  189.8930  177.2340  146.4880 C   0  0  0  0  0  0  0  0  0  0  0  0
  189.4460  177.4090  147.8000 C   0  0  0  0  0  3  0  0  0  0  0  0
  188.9790  177.3770  145.4120 C   0  0  0  0  0  0  0  0  0  0  0  0
  187.6400  177.6940  145.6670 C   0  0  0  0  0  2  0  0  0  0  0  0
  187.4400  177.3600  142.5490 C   0  0  0  0  0  2  0  0  0  0  0  0
  187.1240  178.5270  141.6040 C   0  0  2  0  0  3  0  0  0  0  0  0
  188.2750  177.1920  138.5080 C   0  0  0  0  0  1  0  0  0  0  0  0
  187.2060  177.8660  146.9850 C   0  0  0  0  0  3  0  0  0  0  0  0
  185.4860  179.4360  140.0780 O   0  0  0  0  0  1  0  0  0  0  0  0
  185.6750  178.5090  141.1070 C   0  0  2  0  0  3  0  0  0  0  0  0
  184.6300  178.6740  142.2220 C   0  0  2  0  0  3  0  0  0  0  0  0
  182.6290  178.0670  140.9630 C   0  0  2  0  0  3  0  0  0  0  0  0
  183.3150  179.1660  141.6350 C   0  0  1  0  0  3  0  0  0  0  0  0
  181.7140  178.6060  139.9730 N   0  0  0  0  0  1  0  0  0  0  0  0
  182.1940  178.4870  142.3030 N   0  0  0  0  0  2  0  0  0  0  0  0
  185.1080  179.6170  143.3210 C   0  0  0  0  0  2  0  0  0  0  0  0
  184.6390  179.1860  144.5620 O   0  0  0  0  0  1  0  0  0  0  0  0
  1 11  1  0  0  0  0
  2 19  1  0  0  0  0
  3 14  1  0  0  0  0
  4 12  1  0  0  0  0
  4  6  1  0  0  0  0
  5  9  1  0  0  0  0
  6  3  2  0  0  0  0
  7  2  1  0  0  0  0
  7  1  1  0  0  0  0
  8  4  2  0  0  0  0
 10 12  1  0  0  0  0
 11  8  1  0  0  0  0
 11 10  2  0  0  0  0
 12 16  2  0  0  0  0
 13  1  2  0  0  0  0
 14 15  2  0  0  0  0
 15  5  1  0  0  0  0
 16 17  1  0  0  0  0
 16 14  1  0  0  0  0
 17 21  1  0  0  0  0
 18 10  1  0  0  0  0
 19 23  1  6  0  0  0
 19 18  1  0  0  0  0
 20  7  1  0  0  0  0
 21  5  2  0  0  0  0
 23 22  1  6  0  0  0
 23 24  1  0  0  0  0
 24 29  1  1  0  0  0
 25 27  1  6  0  0  0
 25 26  1  0  0  0  0
 25 28  1  0  0  0  0
 26 24  1  1  0  0  0
 26 28  1  0  0  0  0
 29 30  1  0  0  0  0
M  END
>  <MODEL>
3

>  <REMARK>
 VINA RESULT:      -9.5      2.195      6.312
  Name = 
  4 active torsions:
  status: ('A' for Active; 'I' for Inactive)
    1  A    between atoms: C_11  and  C_20
    2  A    between atoms: C_17  and  C_20
    3  A    between atoms: C_20  and  C_22
    4  A    between atoms: C_22  and  C_28
                            x       y       z     vdW  Elec       q    Type
                         _______ _______ _______ _____ _____    ______ ____

>  <TORSDO>
F 4

$$$$
=
 OpenBabel10232408213D

 30 34  0  0  1  0  0  0  0  0999 V2000
  181.5780  179.4210  142.4650 C   0  0  0  0  0  0  0  0  0  0  0  0
  182.0300  177.7370  140.6610 C   0  0  0  0  0  2  0  0  0  0  0  0
  185.8870  178.0580  146.2770 N   0  0  0  0  0  0  0  0  0  0  0  0
  184.0370  178.6000  144.9020 C   0  0  0  0  0  0  0  0  0  0  0  0
  188.8150  177.2610  144.2060 C   0  0  0  0  0  0  0  0  0  0  0  0
  184.5780  178.4320  146.1720 C   0  0  0  0  0  2  0  0  0  0  0  0
  181.4440  179.0020  141.0970 N   0  0  0  0  0  0  0  0  0  0  0  0
  182.7830  178.9920  144.6060 N   0  0  0  0  0  0  0  0  0  0  0  0
  190.1410  176.8860  144.3650 O   0  0  0  0  0  1  0  0  0  0  0  0
  183.9770  178.6540  142.7040 C   0  0  0  0  0  0  0  0  0  0  0  0
  182.7550  179.0220  143.2510 C   0  0  0  0  0  0  0  0  0  0  0  0
  184.7980  178.3930  143.7780 C   0  0  0  0  0  0  0  0  0  0  0  0
  180.6830  180.1260  143.0040 O   0  0  0  0  0  0  0  0  0  0  0  0
  186.6740  177.8490  145.1760 C   0  0  0  0  0  0  0  0  0  0  0  0
  188.0100  177.4710  145.3310 C   0  0  0  0  0  3  0  0  0  0  0  0
  186.1410  178.0200  143.8730 C   0  0  0  0  0  0  0  0  0  0  0  0
  186.9510  177.8060  142.7510 C   0  0  0  0  0  3  0  0  0  0  0  0
  184.3550  178.7630  141.2600 C   0  0  0  0  0  2  0  0  0  0  0  0
  183.5310  177.8430  140.3480 C   0  0  2  0  0  3  0  0  0  0  0  0
  180.4480  179.6250  140.2390 C   0  0  0  0  0  1  0  0  0  0  0  0
  188.2860  177.4280  142.9210 C   0  0  0  0  0  3  0  0  0  0  0  0
  182.6000  178.5280  138.2260 O   0  0  0  0  0  1  0  0  0  0  0  0
  183.7760  178.1160  138.8600 C   0  0  2  0  0  3  0  0  0  0  0  0
  184.4470  176.9520  138.1140 C   0  0  2  0  0  3  0  0  0  0  0  0
  186.5840  178.1160  137.9180 C   0  0  2  0  0  3  0  0  0  0  0  0
  185.5060  177.4870  137.1610 C   0  0  1  0  0  3  0  0  0  0  0  0
  187.2740  179.0710  137.0700 N   0  0  0  0  0  1  0  0  0  0  0  0
  186.7700  176.7640  137.3730 N   0  0  0  0  0  2  0  0  0  0  0  0
  183.4370  176.0950  137.3590 C   0  0  0  0  0  2  0  0  0  0  0  0
  183.0640  174.9970  138.1350 O   0  0  0  0  0  1  0  0  0  0  0  0
  1 13  2  0  0  0  0
  1 11  1  0  0  0  0
  2  7  1  0  0  0  0
  4  6  1  0  0  0  0
  5  9  1  0  0  0  0
  5 15  2  0  0  0  0
  6  3  1  0  0  0  0
  7  1  1  0  0  0  0
  8  4  2  0  0  0  0
 10 11  2  0  0  0  0
 10 12  1  0  0  0  0
 11  8  1  0  0  0  0
 12 16  2  0  0  0  0
 12  4  1  0  0  0  0
 14 15  1  0  0  0  0
 14  3  2  0  0  0  0
 16 14  1  0  0  0  0
 17 21  2  0  0  0  0
 17 16  1  0  0  0  0
 18 10  1  0  0  0  0
 19 23  1  6  0  0  0
 19  2  1  0  0  0  0
 19 18  1  0  0  0  0
 20  7  1  0  0  0  0
 21  5  1  0  0  0  0
 23 22  1  6  0  0  0
 24 29  1  6  0  0  0
 24 23  1  0  0  0  0
 25 27  1  6  0  0  0
 26 28  1  0  0  0  0
 26 25  1  0  0  0  0
 26 24  1  1  0  0  0
 28 25  1  0  0  0  0
 29 30  1  0  0  0  0
M  END
>  <MODEL>
4

>  <REMARK>
 VINA RESULT:      -8.5      2.745      6.361
  Name = 
  4 active torsions:
  status: ('A' for Active; 'I' for Inactive)
    1  A    between atoms: C_11  and  C_20
    2  A    between atoms: C_17  and  C_20
    3  A    between atoms: C_20  and  C_22
    4  A    between atoms: C_22  and  C_28
                            x       y       z     vdW  Elec       q    Type
                         _______ _______ _______ _____ _____    ______ ____

>  <TORSDO>
F 4

$$$$
=
 OpenBabel10232408213D

 30 34  0  0  1  0  0  0  0  0999 V2000
  191.0120  177.1180  139.2990 C   0  0  0  0  0  0  0  0  0  0  0  0
  189.2380  178.7180  138.5340 C   0  0  0  0  0  2  0  0  0  0  0  0
  190.4290  177.6230  145.1600 N   0  0  0  0  0  0  0  0  0  0  0  0
  190.8550  177.4450  142.8380 C   0  0  0  0  0  0  0  0  0  0  0  0
  186.8170  177.9060  145.7660 C   0  0  0  0  0  0  0  0  0  0  0  0
  191.3310  177.4930  144.1440 C   0  0  0  0  0  3  0  0  0  0  0  0
  190.1090  177.5730  138.2780 N   0  0  0  0  0  0  0  0  0  0  0  0
  191.5890  177.2900  141.7190 N   0  0  0  0  0  0  0  0  0  0  0  0
  185.9390  178.0330  146.8340 O   0  0  0  0  0  1  0  0  0  0  0  0
  189.3810  177.4330  141.2060 C   0  0  0  0  0  0  0  0  0  0  0  0
  190.6730  177.2850  140.7200 C   0  0  0  0  0  0  0  0  0  0  0  0
  189.5110  177.5260  142.5730 C   0  0  0  0  0  0  0  0  0  0  0  0
  192.1070  176.5790  138.9820 O   0  0  0  0  0  0  0  0  0  0  0  0
  189.0810  177.7010  144.9300 C   0  0  0  0  0  0  0  0  0  0  0  0
  188.1940  177.8290  146.0020 C   0  0  0  0  0  3  0  0  0  0  0  0
  188.5770  177.6490  143.6050 C   0  0  0  0  0  0  0  0  0  0  0  0
  187.1980  177.7290  143.3770 C   0  0  0  0  0  2  0  0  0  0  0  0
  188.1250  177.2800  140.4080 C   0  0  0  0  0  2  0  0  0  0  0  0
  187.9670  178.3460  139.3150 C   0  0  2  0  0  3  0  0  0  0  0  0
  190.2970  177.1540  136.8980 C   0  0  0  0  0  1  0  0  0  0  0  0
  186.3220  177.8560  144.4580 C   0  0  0  0  0  3  0  0  0  0  0  0
  186.7610  178.9730  137.3170 O   0  0  0  0  0  1  0  0  0  0  0  0
  186.7950  178.0560  138.3720 C   0  0  2  0  0  3  0  0  0  0  0  0
  185.4350  177.9500  139.0800 C   0  0  2  0  0  3  0  0  0  0  0  0
  184.5070  176.4990  137.3490 C   0  0  2  0  0  3  0  0  0  0  0  0
  184.3270  177.7650  138.0530 C   0  0  1  0  0  3  0  0  0  0  0  0
  183.8390  176.5640  136.0620 N   0  0  0  0  0  1  0  0  0  0  0  0
  183.5060  176.6010  138.4200 N   0  0  0  0  0  2  0  0  0  0  0  0
  185.1490  179.1640  139.9570 C   0  0  0  0  0  2  0  0  0  0  0  0
  184.4810  180.1430  139.2200 O   0  0  0  0  0  1  0  0  0  0  0  0
  1 11  1  0  0  0  0
  2 19  1  0  0  0  0
  4  6  1  0  0  0  0
  5 15  1  0  0  0  0
  5  9  1  0  0  0  0
  6  3  2  0  0  0  0
  7  2  1  0  0  0  0
  7  1  1  0  0  0  0
  8  4  2  0  0  0  0
 10 12  1  0  0  0  0
 11 10  2  0  0  0  0
 11  8  1  0  0  0  0
 12  4  1  0  0  0  0
 12 16  2  0  0  0  0
 13  1  2  0  0  0  0
 14  3  1  0  0  0  0
 14 15  2  0  0  0  0
 16 14  1  0  0  0  0
 17 16  1  0  0  0  0
 17 21  1  0  0  0  0
 18 10  1  0  0  0  0
 19 23  1  6  0  0  0
 19 18  1  0  0  0  0
 20  7  1  0  0  0  0
 21  5  2  0  0  0  0
 23 22  1  6  0  0  0
 23 24  1  0  0  0  0
 24 29  1  6  0  0  0
 25 27  1  6  0  0  0
 25 26  1  0  0  0  0
 25 28  1  0  0  0  0
 26 28  1  0  0  0  0
 26 24  1  1  0  0  0
 30 29  1  0  0  0  0
M  END
>  <MODEL>
5

>  <REMARK>
 VINA RESULT:      -8.4      2.695      5.715
  Name = 
  4 active torsions:
  status: ('A' for Active; 'I' for Inactive)
    1  A    between atoms: C_11  and  C_20
    2  A    between atoms: C_17  and  C_20
    3  A    between atoms: C_20  and  C_22
    4  A    between atoms: C_22  and  C_28
                            x       y       z     vdW  Elec       q    Type
                         _______ _______ _______ _____ _____    ______ ____

>  <TORSDO>
F 4

$$$$
=
 OpenBabel10232408213D

 30 34  0  0  1  0  0  0  0  0999 V2000
  189.7060  177.9870  139.6010 C   0  0  0  0  0  0  0  0  0  0  0  0
  190.2330  176.5460  141.5860 C   0  0  0  0  0  2  0  0  0  0  0  0
  183.8610  178.5860  140.2570 N   0  0  0  0  0  0  0  0  0  0  0  0
  186.1680  178.3000  139.8070 C   0  0  0  0  0  0  0  0  0  0  0  0
  183.3090  178.9240  143.8730 C   0  0  0  0  0  0  0  0  0  0  0  0
  184.8610  178.4100  139.3440 C   0  0  0  0  0  3  0  0  0  0  0  0
  190.6570  177.4950  140.5590 N   0  0  0  0  0  0  0  0  0  0  0  0
  187.2780  178.1540  139.0570 N   0  0  0  0  0  0  0  0  0  0  0  0
  182.2580  179.1070  144.7610 O   0  0  0  0  0  1  0  0  0  0  0  0
  187.8150  178.2380  141.2630 C   0  0  0  0  0  0  0  0  0  0  0  0
  188.2860  178.1160  139.9620 C   0  0  0  0  0  0  0  0  0  0  0  0
  186.4490  178.3640  141.1490 C   0  0  0  0  0  0  0  0  0  0  0  0
  190.0810  178.3040  138.4400 O   0  0  0  0  0  0  0  0  0  0  0  0
  184.1080  178.6600  141.6020 C   0  0  2  0  0  3  0  0  0  0  0  0
  183.0540  178.8450  142.5000 C   0  0  0  0  0  3  0  0  0  0  0  0
  185.4360  178.5540  142.0920 C   0  0  0  0  0  0  0  0  0  0  0  0
  185.6830  178.6310  143.4680 C   0  0  0  0  0  3  0  0  0  0  0  0
  188.6600  178.4280  142.4820 C   0  0  0  0  0  2  0  0  0  0  0  0
  189.5590  177.2230  142.7910 C   0  0  2  0  0  3  0  0  0  0  0  0
  192.0830  177.6400  140.3110 C   0  0  0  0  0  1  0  0  0  0  0  0
  184.6180  178.8170  144.3540 C   0  0  0  0  0  3  0  0  0  0  0  0
  191.8800  177.3620  143.4490 O   0  0  0  0  0  1  0  0  0  0  0  0
  190.5680  177.5090  143.9080 C   0  0  2  0  0  3  0  0  0  0  0  0
  190.3200  176.7050  145.1940 C   0  0  2  0  0  3  0  0  0  0  0  0
  188.1280  177.3040  146.0850 C   0  0  2  0  0  3  0  0  0  0  0  0
  189.5610  177.5550  146.2020 C   0  0  1  0  0  3  0  0  0  0  0  0
  187.3950  178.4450  146.6040 N   0  0  0  0  0  1  0  0  0  0  0  0
  188.8900  176.6810  147.1770 N   0  0  0  0  0  2  0  0  0  0  0  0
  191.6180  176.1880  145.8060 C   0  0  0  0  0  2  0  0  0  0  0  0
  191.9580  176.9480  146.9250 O   0  0  0  0  0  1  0  0  0  0  0  0
  1 11  1  0  0  0  0
  1  7  1  0  0  0  0
  2 19  1  0  0  0  0
  3 14  1  0  0  0  0
  4 12  1  0  0  0  0
  5 21  1  0  0  0  0
  5  9  1  0  0  0  0
  6  4  1  0  0  0  0
  6  3  2  0  0  0  0
  7  2  1  0  0  0  0
  8  4  2  0  0  0  0
  8 11  1  0  0  0  0
 10 18  1  0  0  0  0
 11 10  2  0  0  0  0
 12 10  1  0  0  0  0
 12 16  2  0  0  0  0
 13  1  2  0  0  0  0
 14 16  1  0  0  0  0
 14 15  1  6  0  0  0
 15  5  2  0  0  0  0
 16 17  1  0  0  0  0
 17 21  2  0  0  0  0
 18 19  1  0  0  0  0
 19 23  1  1  0  0  0
 20  7  1  0  0  0  0
 23 22  1  6  0  0  0
 23 24  1  0  0  0  0
 24 29  1  1  0  0  0
 25 26  1  0  0  0  0
 25 27  1  1  0  0  0
 25 28  1  0  0  0  0
 26 24  1  6  0  0  0
 26 28  1  0  0  0  0
 29 30  1  0  0  0  0
M  END
>  <MODEL>
6

>  <REMARK>
 VINA RESULT:      -8.4      1.935      5.530
  Name = 
  4 active torsions:
  status: ('A' for Active; 'I' for Inactive)
    1  A    between atoms: C_11  and  C_20
    2  A    between atoms: C_17  and  C_20
    3  A    between atoms: C_20  and  C_22
    4  A    between atoms: C_22  and  C_28
                            x       y       z     vdW  Elec       q    Type
                         _______ _______ _______ _____ _____    ______ ____

>  <TORSDO>
F 4

$$$$
=
 OpenBabel10232408213D

 30 34  0  0  1  0  0  0  0  0999 V2000
  188.3210  177.6710  145.7730 C   0  0  0  0  0  0  0  0  0  0  0  0
  189.5370  178.4110  143.7070 C   0  0  0  0  0  2  0  0  0  0  0  0
  182.7940  179.2080  144.3470 N   0  0  0  0  0  0  0  0  0  0  0  0
  184.9800  178.6820  145.0890 C   0  0  0  0  0  0  0  0  0  0  0  0
  182.4520  178.4380  140.7710 C   0  0  0  0  0  0  0  0  0  0  0  0
  183.7020  179.1600  145.3640 C   0  0  0  0  0  2  0  0  0  0  0  0
  189.4650  177.5810  144.9070 N   0  0  0  0  0  0  0  0  0  0  0  0
  185.9910  178.5350  145.9680 N   0  0  0  0  0  0  0  0  0  0  0  0
  181.4910  178.5020  139.7720 O   0  0  0  0  0  1  0  0  0  0  0  0
  186.6300  177.8470  143.9000 C   0  0  0  0  0  0  0  0  0  0  0  0
  187.0020  178.0210  145.2260 C   0  0  0  0  0  0  0  0  0  0  0  0
  185.3210  178.2680  143.8270 C   0  0  0  0  0  0  0  0  0  0  0  0
  188.4430  177.4580  147.0090 O   0  0  0  0  0  0  0  0  0  0  0  0
  183.1010  178.7980  143.0770 C   0  0  0  0  0  0  0  0  0  0  0  0
  182.1380  178.8600  142.0670 C   0  0  0  0  0  3  0  0  0  0  0  0
  184.3970  178.3030  142.7790 C   0  0  0  0  0  0  0  0  0  0  0  0
  184.7050  177.8840  141.4790 C   0  0  0  0  0  3  0  0  0  0  0  0
  187.4280  177.1300  142.8570 C   0  0  0  0  0  2  0  0  0  0  0  0
  188.7530  177.8270  142.5210 C   0  0  2  0  0  3  0  0  0  0  0  0
  190.6910  176.9590  145.3810 C   0  0  0  0  0  1  0  0  0  0  0  0
  183.7310  177.9510  140.4790 C   0  0  0  0  0  3  0  0  0  0  0  0
  190.7950  176.5540  142.3020 O   0  0  0  0  0  1  0  0  0  0  0  0
  189.6530  176.9800  141.6160 C   0  0  2  0  0  3  0  0  0  0  0  0
  190.0080  177.6530  140.2810 C   0  0  2  0  0  3  0  0  0  0  0  0
  188.0430  178.4100  139.0450 C   0  0  2  0  0  3  0  0  0  0  0  0
  188.9700  177.2970  139.2270 C   0  0  1  0  0  3  0  0  0  0  0  0
  186.7940  177.9120  138.4990 N   0  0  0  0  0  1  0  0  0  0  0  0
  189.1190  178.1910  138.0680 N   0  0  0  0  0  2  0  0  0  0  0  0
  191.4050  177.2740  139.8010 C   0  0  0  0  0  2  0  0  0  0  0  0
  191.3900  175.9940  139.2440 O   0  0  0  0  0  1  0  0  0  0  0  0
  1 13  2  0  0  0  0
  2  7  1  0  0  0  0
  3  6  1  0  0  0  0
  4  6  1  0  0  0  0
  4  8  2  0  0  0  0
  5 15  2  0  0  0  0
  7 20  1  0  0  0  0
  7  1  1  0  0  0  0
  9  5  1  0  0  0  0
 10 11  2  0  0  0  0
 11  1  1  0  0  0  0
 11  8  1  0  0  0  0
 12 10  1  0  0  0  0
 12  4  1  0  0  0  0
 14  3  2  0  0  0  0
 15 14  1  0  0  0  0
 16 14  1  0  0  0  0
 16 12  2  0  0  0  0
 17 16  1  0  0  0  0
 18 10  1  0  0  0  0
 19 23  1  1  0  0  0
 19 18  1  0  0  0  0
 19  2  1  0  0  0  0
 21  5  1  0  0  0  0
 21 17  2  0  0  0  0
 23 22  1  1  0  0  0
 24 29  1  6  0  0  0
 24 23  1  0  0  0  0
 25 27  1  6  0  0  0
 25 26  1  0  0  0  0
 26 24  1  1  0  0  0
 28 25  1  0  0  0  0
 28 26  1  0  0  0  0
 30 29  1  0  0  0  0
M  END
>  <MODEL>
7

>  <REMARK>
 VINA RESULT:      -8.3      1.599      2.104
  Name = 
  4 active torsions:
  status: ('A' for Active; 'I' for Inactive)
    1  A    between atoms: C_11  and  C_20
    2  A    between atoms: C_17  and  C_20
    3  A    between atoms: C_20  and  C_22
    4  A    between atoms: C_22  and  C_28
                            x       y       z     vdW  Elec       q    Type
                         _______ _______ _______ _____ _____    ______ ____

>  <TORSDO>
F 4

$$$$
=
 OpenBabel10232408213D

 30 34  0  0  1  0  0  0  0  0999 V2000
  185.5980  178.7750  140.5420 C   0  0  0  0  0  0  0  0  0  0  0  0
  187.1670  177.3000  139.2540 C   0  0  0  0  0  2  0  0  0  0  0  0
  187.2640  177.5080  146.0710 N   0  0  0  0  0  0  0  0  0  0  0  0
  186.4120  177.9870  143.9140 C   0  0  0  0  0  0  0  0  0  0  0  0
  190.9200  177.1700  145.9420 C   0  0  0  0  0  0  0  0  0  0  0  0
  186.1890  177.7650  145.2690 C   0  0  0  0  0  3  0  0  0  0  0  0
  186.2850  178.4630  139.3180 N   0  0  0  0  0  0  0  0  0  0  0  0
  185.4840  178.2830  142.9830 N   0  0  0  0  0  0  0  0  0  0  0  0
  191.9800  176.9090  146.7990 O   0  0  0  0  0  1  0  0  0  0  0  0
  187.5530  178.2220  142.0490 C   0  0  0  0  0  0  0  0  0  0  0  0
  186.1960  178.4250  141.8390 C   0  0  0  0  0  0  0  0  0  0  0  0
  187.6810  177.9500  143.3920 C   0  0  0  0  0  0  0  0  0  0  0  0
  184.4740  179.3450  140.5100 O   0  0  0  0  0  0  0  0  0  0  0  0
  188.5430  177.4690  145.5830 C   0  0  0  0  0  0  0  0  0  0  0  0
  189.6130  177.2070  146.4410 C   0  0  0  0  0  3  0  0  0  0  0  0
  188.7900  177.6980  144.2040 C   0  0  0  0  0  0  0  0  0  0  0  0
  190.0990  177.6570  143.7110 C   0  0  0  0  0  2  0  0  0  0  0  0
  188.6390  178.4870  141.0550 C   0  0  0  0  0  2  0  0  0  0  0  0
  188.5690  177.5740  139.8220 C   0  0  2  0  0  3  0  0  0  0  0  0
  185.8490  179.0590  138.0650 C   0  0  0  0  0  1  0  0  0  0  0  0
  191.1610  177.3940  144.5820 C   0  0  0  0  0  3  0  0  0  0  0  0
  189.2780  179.2910  138.2760 O   0  0  0  0  0  1  0  0  0  0  0  0
  189.5480  177.9930  138.7210 C   0  0  2  0  0  3  0  0  0  0  0  0
  189.6380  176.9970  137.5540 C   0  0  2  0  0  3  0  0  0  0  0  0
  191.7620  176.5420  138.6680 C   0  0  2  0  0  3  0  0  0  0  0  0
  191.0750  176.5270  137.3800 C   0  0  1  0  0  3  0  0  0  0  0  0
  193.1940  176.6390  138.4490 N   0  0  0  0  0  1  0  0  0  0  0  0
  191.2740  175.2700  138.1180 N   0  0  0  0  0  2  0  0  0  0  0  0
  189.1130  177.5920  136.2510 C   0  0  0  0  0  2  0  0  0  0  0  0
  187.9720  176.9040  135.8350 O   0  0  0  0  0  1  0  0  0  0  0  0
  1 11  1  0  0  0  0
  2  7  1  0  0  0  0
  2 19  1  0  0  0  0
  4  6  1  0  0  0  0
  5 15  1  0  0  0  0
  5  9  1  0  0  0  0
  6  3  2  0  0  0  0
  7  1  1  0  0  0  0
  8  4  2  0  0  0  0
 10 12  1  0  0  0  0
 11 10  2  0  0  0  0
 11  8  1  0  0  0  0
 12  4  1  0  0  0  0
 12 16  2  0  0  0  0
 13  1  2  0  0  0  0
 14  3  1  0  0  0  0
 14 15  2  0  0  0  0
 16 14  1  0  0  0  0
 17 16  1  0  0  0  0
 17 21  1  0  0  0  0
 18 10  1  0  0  0  0
 19 23  1  6  0  0  0
 19 18  1  0  0  0  0
 20  7  1  0  0  0  0
 21  5  2  0  0  0  0
 23 22  1  6  0  0  0
 24 29  1  6  0  0  0
 24 23  1  0  0  0  0
 25 27  1  6  0  0  0
 26 24  1  1  0  0  0
 26 28  1  0  0  0  0
 26 25  1  0  0  0  0
 28 25  1  0  0  0  0
 30 29  1  0  0  0  0
M  END
>  <MODEL>
8

>  <REMARK>
 VINA RESULT:      -8.3      2.085      5.397
  Name = 
  4 active torsions:
  status: ('A' for Active; 'I' for Inactive)
    1  A    between atoms: C_11  and  C_20
    2  A    between atoms: C_17  and  C_20
    3  A    between atoms: C_20  and  C_22
    4  A    between atoms: C_22  and  C_28
                            x       y       z     vdW  Elec       q    Type
                         _______ _______ _______ _____ _____    ______ ____

>  <TORSDO>
F 4

$$$$
=
 OpenBabel10232408213D

 30 34  0  0  1  0  0  0  0  0999 V2000
  181.6080  179.5400  142.7850 C   0  0  0  0  0  0  0  0  0  0  0  0
  181.9270  177.8030  141.0020 C   0  0  0  0  0  2  0  0  0  0  0  0
  186.0400  178.1270  146.4330 N   0  0  0  0  0  0  0  0  0  0  0  0
  184.1480  178.6960  145.1290 C   0  0  0  0  0  0  0  0  0  0  0  0
  188.8460  177.1940  144.2540 C   0  0  0  0  0  0  0  0  0  0  0  0
  184.7400  178.5400  146.3780 C   0  0  0  0  0  2  0  0  0  0  0  0
  181.3990  179.0950  141.4340 N   0  0  0  0  0  0  0  0  0  0  0  0
  182.8940  179.1210  144.8800 N   0  0  0  0  0  0  0  0  0  0  0  0
  190.1670  176.7810  144.3620 O   0  0  0  0  0  1  0  0  0  0  0  0
  183.9910  178.7040  142.9350 C   0  0  0  0  0  0  0  0  0  0  0  0
  182.8060  179.1220  143.5270 C   0  0  0  0  0  0  0  0  0  0  0  0
  184.8500  178.4410  143.9780 C   0  0  0  0  0  0  0  0  0  0  0  0
  180.7600  180.2840  143.3460 O   0  0  0  0  0  0  0  0  0  0  0  0
  186.7710  177.8700  145.3040 C   0  0  0  0  0  0  0  0  0  0  0  0
  188.1000  177.4530  145.4080 C   0  0  0  0  0  3  0  0  0  0  0  0
  186.1850  178.0280  144.0210 C   0  0  0  0  0  0  0  0  0  0  0  0
  186.9370  177.7640  142.8700 C   0  0  0  0  0  3  0  0  0  0  0  0
  184.3060  178.7690  141.4740 C   0  0  0  0  0  2  0  0  0  0  0  0
  183.4150  177.8560  140.6210 C   0  0  2  0  0  3  0  0  0  0  0  0
  180.3850  179.7300  140.6070 C   0  0  0  0  0  1  0  0  0  0  0  0
  188.2660  177.3490  142.9900 C   0  0  0  0  0  3  0  0  0  0  0  0
  183.9290  179.4200  138.8520 O   0  0  0  0  0  1  0  0  0  0  0  0
  183.6000  178.0870  139.1180 C   0  0  2  0  0  3  0  0  0  0  0  0
  182.4160  177.6110  138.2620 C   0  0  2  0  0  3  0  0  0  0  0  0
  183.3480  175.3550  138.2000 C   0  0  2  0  0  3  0  0  0  0  0  0
  182.8470  176.4510  137.3760 C   0  0  1  0  0  3  0  0  0  0  0  0
  184.2350  174.5230  137.4080 N   0  0  0  0  0  1  0  0  0  0  0  0
  181.9910  175.2850  137.6410 N   0  0  0  0  0  2  0  0  0  0  0  0
  181.8300  178.7370  137.4160 C   0  0  0  0  0  2  0  0  0  0  0  0
  181.9170  178.4140  136.0610 O   0  0  0  0  0  1  0  0  0  0  0  0
  1 13  2  0  0  0  0
  1 11  1  0  0  0  0
  2  7  1  0  0  0  0
  4  6  1  0  0  0  0
  5  9  1  0  0  0  0
  5 15  2  0  0  0  0
  6  3  1  0  0  0  0
  7  1  1  0  0  0  0
  8  4  2  0  0  0  0
 10 11  2  0  0  0  0
 10 12  1  0  0  0  0
 11  8  1  0  0  0  0
 12 16  2  0  0  0  0
 12  4  1  0  0  0  0
 14 15  1  0  0  0  0
 14  3  2  0  0  0  0
 16 14  1  0  0  0  0
 17 21  2  0  0  0  0
 17 16  1  0  0  0  0
 18 10  1  0  0  0  0
 19 23  1  6  0  0  0
 19  2  1  0  0  0  0
 19 18  1  0  0  0  0
 20  7  1  0  0  0  0
 21  5  1  0  0  0  0
 23 22  1  1  0  0  0
 24 29  1  6  0  0  0
 24 23  1  0  0  0  0
 25 27  1  6  0  0  0
 26 28  1  0  0  0  0
 26 25  1  0  0  0  0
 26 24  1  1  0  0  0
 28 25  1  0  0  0  0
 30 29  1  0  0  0  0
M  END
>  <MODEL>
9

>  <REMARK>
 VINA RESULT:      -8.2      3.242      6.776
  Name = 
  4 active torsions:
  status: ('A' for Active; 'I' for Inactive)
    1  A    between atoms: C_11  and  C_20
    2  A    between atoms: C_17  and  C_20
    3  A    between atoms: C_20  and  C_22
    4  A    between atoms: C_22  and  C_28
                            x       y       z     vdW  Elec       q    Type
                         _______ _______ _______ _____ _____    ______ ____

>  <TORSDO>
F 4

$$$$
