=
 OpenBabel10232411193D

 50 55  0  0  1  0  0  0  0  0999 V2000
  188.6170  177.6560  141.4070 C   0  0  0  0  0  0  0  0  0  0  0  0
  191.3390  176.4800  139.3450 N   0  0  0  0  0  0  0  0  0  0  0  0
  188.4250  178.0280  140.1530 C   0  0  0  0  0  3  0  0  0  0  0  0
  190.7540  176.4210  138.1950 C   0  0  0  0  0  0  0  0  0  0  0  0
  189.1810  175.2380  137.2690 C   0  0  1  0  0  3  0  0  0  0  0  0
  190.4280  175.1700  137.6050 N   0  0  0  0  0  2  0  0  0  0  0  0
  188.5720  176.5340  137.6060 C   0  0  0  0  0  0  0  0  0  0  0  0
  186.3570  177.4140  136.5540 C   0  0  0  0  0  3  0  0  0  0  0  0
  187.4640  176.9760  137.0790 C   0  0  0  0  0  0  0  0  0  0  0  0
  190.2960  177.1150  141.7620 S   0  0  0  0  0  0  0  0  0  0  0  0
  189.6890  177.4350  138.0190 C   0  0  1  0  0  3  0  0  0  0  0  0
  190.8070  177.6170  140.0820 C   0  0  2  0  0  3  0  0  0  0  0  0
  189.6020  177.9910  139.3590 N   0  0  0  0  0  0  0  0  0  0  0  0
  187.7970  174.3010  135.3880 O   0  0  0  0  0  1  0  0  0  0  0  0
  187.9790  173.1090  137.3790 O   0  0  0  0  0  0  0  0  0  0  0  0
  188.4910  174.1020  136.5820 C   0  0  0  0  0  0  0  0  0  0  0  0
  189.1080  172.8790  136.6790 O   0  0  0  0  0  0  0  0  0  0  0  0
  187.6390  176.8530  143.5600 C   0  0  0  0  0  0  0  0  0  0  0  0
  187.5780  177.7060  142.4070 N   0  0  0  0  0  0  0  0  0  0  0  0
  187.8990  175.6270  143.4280 O   0  0  0  0  0  0  0  0  0  0  0  0
  186.3900  178.5430  142.2090 C   0  0  0  0  0  2  0  0  0  0  0  0
  184.6300  178.7770  143.8170 F   0  0  0  0  0  0  0  0  0  0  0  0
  185.1420  177.9400  142.8480 C   0  0  0  0  0  3  0  0  0  0  0  0
  184.1710  177.6680  141.9010 F   0  0  0  0  0  0  0  0  0  0  0  0
  187.4660  177.4080  144.9320 C   0  0  0  0  0  2  0  0  0  0  0  0
  189.5450  176.8830  146.0590 C   0  0  1  0  0  3  0  0  0  0  0  0
  188.8210  177.8850  146.9560 C   0  0  0  0  0  0  0  0  0  0  0  0
  188.8020  177.9270  145.4280 C   0  0  2  0  0  3  0  0  0  0  0  0
  188.5050  178.3230  148.0490 O   0  0  0  0  0  0  0  0  0  0  0  0
  191.0250  177.2150  146.0240 C   0  0  0  0  0  2  0  0  0  0  0  0
  191.8300  176.0160  145.5510 C   0  0  0  0  0  2  0  0  0  0  0  0
  192.3690  175.3440  146.6480 O   0  0  0  0  0  1  0  0  0  0  0  0
  185.0500  176.9020  137.0430 C   0  0  2  0  0  3  0  0  0  0  0  0
  184.3540  176.1640  135.9050 C   0  0  0  0  0  2  0  0  0  0  0  0
  183.6750  174.9770  136.3970 N   0  0  0  0  0  2  0  0  0  0  0  0
  183.5060  174.0750  135.2650 C   0  0  0  0  0  2  0  0  0  0  0  0
  182.1620  172.7040  136.8940 C   0  0  0  0  0  2  0  0  0  0  0  0
  180.2510  174.5250  136.1300 C   0  0  0  0  0  2  0  0  0  0  0  0
  182.2820  173.1830  135.4500 C   0  0  1  0  0  3  0  0  0  0  0  0
  179.9880  173.6080  137.2580 N   0  0  0  0  0  0  0  0  0  0  0  0
  180.7580  172.4170  137.2050 N   0  0  0  0  0  2  0  0  0  0  0  0
  181.0000  173.8650  134.9690 C   0  0  0  0  0  2  0  0  0  0  0  0
  180.3070  174.3080  138.4970 C   0  0  0  0  0  2  0  0  0  0  0  0
  179.9820  175.7890  138.3650 C   0  0  0  0  0  2  0  0  0  0  0  0
  181.0880  176.6210  138.9880 C   0  0  0  0  0  3  0  0  0  0  0  0
  180.5220  177.4330  140.1370 C   0  0  0  0  0  1  0  0  0  0  0  0
  182.1930  175.7210  139.5130 C   0  0  0  0  0  1  0  0  0  0  0  0
  184.2060  178.0660  137.5310 C   0  0  0  0  0  2  0  0  0  0  0  0
  184.5370  179.9480  139.0220 N   0  0  0  0  0  1  0  0  0  0  0  0
  184.6660  178.5090  138.9080 C   0  0  0  0  0  2  0  0  0  0  0  0
  1 10  1  0  0  0  0
  1 19  1  0  0  0  0
  3  1  2  0  0  0  0
  4  2  2  0  0  0  0
  5 16  1  6  0  0  0
  5  6  1  0  0  0  0
  5  7  1  0  0  0  0
  6  4  1  0  0  0  0
  8 33  1  0  0  0  0
  8  9  2  0  0  0  0
  9  7  2  0  0  0  0
 11  7  1  1  0  0  0
 11  4  1  0  0  0  0
 11 13  1  0  0  0  0
 12  2  1  6  0  0  0
 12 10  1  0  0  0  0
 13 12  1  0  0  0  0
 13  3  1  0  0  0  0
 14 16  1  0  0  0  0
 16 17  1  0  0  0  0
 16 15  1  0  0  0  0
 17 15  1  0  0  0  0
 18 25  1  0  0  0  0
 19 18  1  0  0  0  0
 20 18  2  0  0  0  0
 21 19  1  0  0  0  0
 21 23  1  0  0  0  0
 23 22  1  0  0  0  0
 24 23  1  0  0  0  0
 26 30  1  1  0  0  0
 26 27  1  0  0  0  0
 27 29  2  0  0  0  0
 28 25  1  6  0  0  0
 28 26  1  0  0  0  0
 28 27  1  0  0  0  0
 31 30  1  0  0  0  0
 31 32  1  0  0  0  0
 33 34  1  6  0  0  0
 33 48  1  0  0  0  0
 34 35  1  0  0  0  0
 36 35  1  0  0  0  0
 37 41  1  0  0  0  0
 38 40  1  0  0  0  0
 39 36  1  1  0  0  0
 39 37  1  0  0  0  0
 40 43  1  0  0  0  0
 41 40  1  0  0  0  0
 42 39  1  0  0  0  0
 42 38  1  0  0  0  0
 44 43  1  0  0  0  0
 44 45  1  0  0  0  0
 45 47  1  0  0  0  0
 45 46  1  0  0  0  0
 48 50  1  0  0  0  0
 50 49  1  0  0  0  0
M  END
>  <MODEL>
1

>  <REMARK>
 VINA RESULT:      -7.1      0.000      0.000
  Name = 
  18 active torsions:
  status: ('A' for Active; 'I' for Inactive)
    1  A    between atoms: C_1  and  C_47
    2  A    between atoms: C_3  and  C_47
    3  A    between atoms: C_4  and  C_21
    4  A    between atoms: C_6  and  C_31
    5  A    between atoms: C_6  and  C_35
    6  A    between atoms: C_7  and  C_21
    7  A    between atoms: C_12  and  N_32
    8  A    between atoms: C_17  and  C_30
    9  A    between atoms: C_18  and  C_36
   10  A    between atoms: C_22  and  C_33
   11  A    between atoms: N_23  and  C_25
   12  A    between atoms: C_24  and  C_31
   13  A    between atoms: C_25  and  C_48
   14  A    between atoms: N_26  and  C_30
   15  A    between atoms: N_26  and  C_50
   16  A    between atoms: C_31  and  C_50
   17  A    between atoms: N_32  and  C_33
   18  A    between atoms: C_38  and  C_48
                            x       y       z     vdW  Elec       q    Type
                         _______ _______ _______ _____ _____    ______ ____

>  <TORSDO>
F 18

$$$$
=
 OpenBabel10232411193D

 50 55  0  0  1  0  0  0  0  0999 V2000
  188.9200  177.6380  140.8740 C   0  0  0  0  0  0  0  0  0  0  0  0
  191.4960  175.9370  139.0000 N   0  0  0  0  0  0  0  0  0  0  0  0
  188.7210  177.8090  139.5780 C   0  0  0  0  0  3  0  0  0  0  0  0
  190.8780  175.7300  137.8840 C   0  0  0  0  0  0  0  0  0  0  0  0
  189.2010  174.5290  137.1930 C   0  0  1  0  0  3  0  0  0  0  0  0
  190.4490  174.4270  137.5180 N   0  0  0  0  0  2  0  0  0  0  0  0
  188.6950  175.9040  137.3170 C   0  0  0  0  0  0  0  0  0  0  0  0
  186.5190  176.7580  136.1640 C   0  0  0  0  0  3  0  0  0  0  0  0
  187.6060  176.3330  136.7390 C   0  0  0  0  0  0  0  0  0  0  0  0
  190.5660  177.0400  141.2900 S   0  0  0  0  0  0  0  0  0  0  0  0
  189.8830  176.7760  137.5560 C   0  0  1  0  0  3  0  0  0  0  0  0
  191.0650  177.2170  139.5430 C   0  0  2  0  0  3  0  0  0  0  0  0
  189.8710  177.5530  138.7850 N   0  0  0  0  0  0  0  0  0  0  0  0
  187.5720  172.6510  137.5850 O   0  0  0  0  0  1  0  0  0  0  0  0
  188.9800  172.5780  135.7330 O   0  0  0  0  0  0  0  0  0  0  0  0
  188.4150  173.3480  136.7180 C   0  0  0  0  0  0  0  0  0  0  0  0
  187.9650  173.4110  135.4220 O   0  0  0  0  0  0  0  0  0  0  0  0
  187.7830  177.1040  143.0330 C   0  0  0  0  0  0  0  0  0  0  0  0
  187.9140  177.9310  141.8660 N   0  0  0  0  0  0  0  0  0  0  0  0
  187.7700  175.8490  142.9210 O   0  0  0  0  0  0  0  0  0  0  0  0
  186.9390  179.0030  141.6470 C   0  0  0  0  0  2  0  0  0  0  0  0
  184.9480  177.7770  142.1730 F   0  0  0  0  0  0  0  0  0  0  0  0
  185.5890  178.4720  141.1690 C   0  0  0  0  0  3  0  0  0  0  0  0
  184.7770  179.4940  140.7120 F   0  0  0  0  0  0  0  0  0  0  0  0
  187.7320  177.7060  144.3940 C   0  0  0  0  0  2  0  0  0  0  0  0
  189.7510  176.8290  145.4050 C   0  0  1  0  0  3  0  0  0  0  0  0
  189.2110  177.8730  146.3810 C   0  0  0  0  0  0  0  0  0  0  0  0
  189.1450  178.0010  144.8600 C   0  0  2  0  0  3  0  0  0  0  0  0
  188.9990  178.2900  147.5070 O   0  0  0  0  0  0  0  0  0  0  0  0
  191.2620  176.9480  145.3240 C   0  0  0  0  0  2  0  0  0  0  0  0
  191.9240  176.0700  146.3730 C   0  0  0  0  0  2  0  0  0  0  0  0
  192.1510  176.8090  147.5350 O   0  0  0  0  0  1  0  0  0  0  0  0
  185.1930  176.4320  136.7510 C   0  0  2  0  0  3  0  0  0  0  0  0
  184.6720  177.6550  137.4970 C   0  0  0  0  0  2  0  0  0  0  0  0
  183.2450  177.8240  137.2790 N   0  0  0  0  0  2  0  0  0  0  0  0
  182.7660  178.7790  138.2700 C   0  0  0  0  0  2  0  0  0  0  0  0
  182.2720  177.6140  140.4470 C   0  0  0  0  0  2  0  0  0  0  0  0
  180.7160  179.8590  140.7550 C   0  0  0  0  0  2  0  0  0  0  0  0
  181.6820  178.1620  139.1500 C   0  0  1  0  0  3  0  0  0  0  0  0
  180.9190  178.9390  141.8940 N   0  0  0  0  0  0  0  0  0  0  0  0
  181.2470  177.6160  141.4950 N   0  0  0  0  0  2  0  0  0  0  0  0
  180.5370  179.1400  139.4150 C   0  0  0  0  0  2  0  0  0  0  0  0
  182.0120  179.4590  142.7080 C   0  0  0  0  0  2  0  0  0  0  0  0
  182.2550  178.5490  143.9040 C   0  0  0  0  0  2  0  0  0  0  0  0
  183.2940  179.1670  144.8220 C   0  0  0  0  0  3  0  0  0  0  0  0
  184.1570  178.0710  145.4170 C   0  0  0  0  0  1  0  0  0  0  0  0
  184.1770  180.1300  144.0490 C   0  0  0  0  0  1  0  0  0  0  0  0
  185.3390  175.2460  137.6880 C   0  0  0  0  0  2  0  0  0  0  0  0
  183.6790  174.5200  136.0790 N   0  0  0  0  0  1  0  0  0  0  0  0
  184.4600  174.0990  137.2250 C   0  0  0  0  0  2  0  0  0  0  0  0
  1 10  1  0  0  0  0
  1 19  1  0  0  0  0
  3  1  2  0  0  0  0
  4  2  2  0  0  0  0
  5 16  1  6  0  0  0
  5  7  1  0  0  0  0
  5  6  1  0  0  0  0
  6  4  1  0  0  0  0
  8  9  2  0  0  0  0
  9  7  2  0  0  0  0
 11  7  1  1  0  0  0
 11  4  1  0  0  0  0
 11 13  1  0  0  0  0
 12  2  1  6  0  0  0
 12 10  1  0  0  0  0
 13 12  1  0  0  0  0
 13  3  1  0  0  0  0
 15 16  1  0  0  0  0
 16 14  1  0  0  0  0
 17 15  1  0  0  0  0
 17 16  1  0  0  0  0
 18 25  1  0  0  0  0
 19 18  1  0  0  0  0
 20 18  2  0  0  0  0
 21 19  1  0  0  0  0
 23 21  1  0  0  0  0
 23 22  1  0  0  0  0
 24 23  1  0  0  0  0
 26 30  1  1  0  0  0
 26 27  1  0  0  0  0
 27 29  2  0  0  0  0
 28 25  1  6  0  0  0
 28 26  1  0  0  0  0
 28 27  1  0  0  0  0
 30 31  1  0  0  0  0
 31 32  1  0  0  0  0
 33  8  1  1  0  0  0
 33 34  1  0  0  0  0
 33 48  1  0  0  0  0
 35 34  1  0  0  0  0
 35 36  1  0  0  0  0
 37 41  1  0  0  0  0
 38 40  1  0  0  0  0
 39 36  1  1  0  0  0
 39 42  1  0  0  0  0
 39 37  1  0  0  0  0
 40 43  1  0  0  0  0
 41 40  1  0  0  0  0
 42 38  1  0  0  0  0
 43 44  1  0  0  0  0
 44 45  1  0  0  0  0
 45 46  1  0  0  0  0
 47 45  1  0  0  0  0
 49 50  1  0  0  0  0
 50 48  1  0  0  0  0
M  END
>  <MODEL>
2

>  <REMARK>
 VINA RESULT:      -6.9      1.811      3.607
  Name = 
  18 active torsions:
  status: ('A' for Active; 'I' for Inactive)
    1  A    between atoms: C_1  and  C_47
    2  A    between atoms: C_3  and  C_47
    3  A    between atoms: C_4  and  C_21
    4  A    between atoms: C_6  and  C_31
    5  A    between atoms: C_6  and  C_35
    6  A    between atoms: C_7  and  C_21
    7  A    between atoms: C_12  and  N_32
    8  A    between atoms: C_17  and  C_30
    9  A    between atoms: C_18  and  C_36
   10  A    between atoms: C_22  and  C_33
   11  A    between atoms: N_23  and  C_25
   12  A    between atoms: C_24  and  C_31
   13  A    between atoms: C_25  and  C_48
   14  A    between atoms: N_26  and  C_30
   15  A    between atoms: N_26  and  C_50
   16  A    between atoms: C_31  and  C_50
   17  A    between atoms: N_32  and  C_33
   18  A    between atoms: C_38  and  C_48
                            x       y       z     vdW  Elec       q    Type
                         _______ _______ _______ _____ _____    ______ ____

>  <TORSDO>
F 18

$$$$
=
 OpenBabel10232411193D

 50 55  0  0  1  0  0  0  0  0999 V2000
  188.8500  177.6630  140.5670 C   0  0  0  0  0  0  0  0  0  0  0  0
  190.3140  175.8760  137.7910 N   0  0  0  0  0  0  0  0  0  0  0  0
  188.1900  177.9400  139.4560 C   0  0  0  0  0  3  0  0  0  0  0  0
  189.2970  175.8020  136.9970 C   0  0  0  0  0  0  0  0  0  0  0  0
  187.3650  174.8010  136.9760 C   0  0  1  0  0  3  0  0  0  0  0  0
  188.6240  174.5690  136.7880 N   0  0  0  0  0  2  0  0  0  0  0  0
  187.0950  176.2040  137.3270 C   0  0  0  0  0  0  0  0  0  0  0  0
  184.7490  177.3220  137.1360 C   0  0  0  0  0  3  0  0  0  0  0  0
  185.9210  176.7660  137.2300 C   0  0  0  0  0  0  0  0  0  0  0  0
  190.4560  176.8970  140.2940 S   0  0  0  0  0  0  0  0  0  0  0  0
  188.3700  176.9510  137.1120 C   0  0  1  0  0  3  0  0  0  0  0  0
  190.2630  177.1490  138.4960 C   0  0  2  0  0  3  0  0  0  0  0  0
  188.9140  177.6400  138.2720 N   0  0  0  0  0  0  0  0  0  0  0  0
  186.0670  173.1840  135.5520 O   0  0  0  0  0  1  0  0  0  0  0  0
  185.2580  173.7610  137.6570 O   0  0  0  0  0  0  0  0  0  0  0  0
  186.3350  173.7300  136.8080 C   0  0  0  0  0  0  0  0  0  0  0  0
  186.2230  172.8390  137.8470 O   0  0  0  0  0  0  0  0  0  0  0  0
  186.9890  178.4320  142.0440 C   0  0  0  0  0  0  0  0  0  0  0  0
  188.3390  177.9730  141.8810 N   0  0  0  0  0  0  0  0  0  0  0  0
  186.5340  179.3410  141.2980 O   0  0  0  0  0  0  0  0  0  0  0  0
  189.2200  177.9360  143.0520 C   0  0  0  0  0  2  0  0  0  0  0  0
  188.4140  175.6790  143.0570 F   0  0  0  0  0  0  0  0  0  0  0  0
  189.2540  176.5580  143.7090 C   0  0  0  0  0  3  0  0  0  0  0  0
  190.5380  176.0440  143.7380 F   0  0  0  0  0  0  0  0  0  0  0  0
  186.0820  177.8010  143.0430 C   0  0  0  0  0  2  0  0  0  0  0  0
  185.8940  177.8120  145.4590 C   0  0  1  0  0  3  0  0  0  0  0  0
  184.6870  178.5910  144.9380 C   0  0  0  0  0  0  0  0  0  0  0  0
  186.0780  178.6380  144.3080 C   0  0  2  0  0  3  0  0  0  0  0  0
  183.5160  178.9250  144.9880 O   0  0  0  0  0  0  0  0  0  0  0  0
  186.4540  178.5100  146.6850 C   0  0  0  0  0  2  0  0  0  0  0  0
  187.5440  177.6680  147.3270 C   0  0  0  0  0  2  0  0  0  0  0  0
  188.3450  178.4700  148.1400 O   0  0  0  0  0  1  0  0  0  0  0  0
  183.7230  177.0740  138.1820 C   0  0  2  0  0  3  0  0  0  0  0  0
  182.3880  176.7890  137.5030 C   0  0  0  0  0  2  0  0  0  0  0  0
  182.1790  175.3590  137.3530 N   0  0  0  0  0  2  0  0  0  0  0  0
  180.8510  175.0580  137.8730 C   0  0  0  0  0  2  0  0  0  0  0  0
  180.7900  173.8740  135.6530 C   0  0  0  0  0  2  0  0  0  0  0  0
  181.3010  171.7390  137.3060 C   0  0  0  0  0  2  0  0  0  0  0  0
  180.1640  173.9800  137.0410 C   0  0  1  0  0  3  0  0  0  0  0  0
  181.3770  171.5720  135.8400 N   0  0  0  0  0  0  0  0  0  0  0  0
  180.5960  172.5190  135.1260 N   0  0  0  0  0  2  0  0  0  0  0  0
  180.1420  172.6310  137.7600 C   0  0  0  0  0  2  0  0  0  0  0  0
  182.7700  171.7250  135.4360 C   0  0  0  0  0  2  0  0  0  0  0  0
  183.6530  170.7590  136.2130 C   0  0  0  0  0  2  0  0  0  0  0  0
  184.0930  169.6190  135.3120 C   0  0  0  0  0  3  0  0  0  0  0  0
  185.5850  169.7210  135.0630 C   0  0  0  0  0  1  0  0  0  0  0  0
  183.7870  168.2830  135.9640 C   0  0  0  0  0  1  0  0  0  0  0  0
  183.6230  178.2910  139.0840 C   0  0  0  0  0  2  0  0  0  0  0  0
  183.0370  178.6920  141.4020 N   0  0  0  0  0  1  0  0  0  0  0  0
  182.5970  178.0530  140.1770 C   0  0  0  0  0  2  0  0  0  0  0  0
  1 19  1  0  0  0  0
  3  1  2  0  0  0  0
  4  2  2  0  0  0  0
  5 16  1  6  0  0  0
  5  7  1  0  0  0  0
  6  5  1  0  0  0  0
  6  4  1  0  0  0  0
  8  9  2  0  0  0  0
  9  7  2  0  0  0  0
 10  1  1  0  0  0  0
 11  4  1  1  0  0  0
 11  7  1  0  0  0  0
 11 13  1  0  0  0  0
 12  2  1  6  0  0  0
 12 10  1  0  0  0  0
 13 12  1  0  0  0  0
 13  3  1  0  0  0  0
 14 16  1  0  0  0  0
 15 17  1  0  0  0  0
 16 15  1  0  0  0  0
 16 17  1  0  0  0  0
 18 25  1  0  0  0  0
 19 18  1  0  0  0  0
 19 21  1  0  0  0  0
 20 18  2  0  0  0  0
 21 23  1  0  0  0  0
 22 23  1  0  0  0  0
 23 24  1  0  0  0  0
 26 30  1  1  0  0  0
 27 29  2  0  0  0  0
 27 26  1  0  0  0  0
 28 25  1  6  0  0  0
 28 27  1  0  0  0  0
 28 26  1  0  0  0  0
 30 31  1  0  0  0  0
 31 32  1  0  0  0  0
 33  8  1  6  0  0  0
 33 48  1  0  0  0  0
 34 33  1  0  0  0  0
 35 34  1  0  0  0  0
 35 36  1  0  0  0  0
 37 39  1  0  0  0  0
 38 42  1  0  0  0  0
 39 42  1  0  0  0  0
 39 36  1  1  0  0  0
 40 38  1  0  0  0  0
 41 37  1  0  0  0  0
 41 40  1  0  0  0  0
 43 40  1  0  0  0  0
 43 44  1  0  0  0  0
 45 47  1  0  0  0  0
 45 44  1  0  0  0  0
 46 45  1  0  0  0  0
 48 50  1  0  0  0  0
 50 49  1  0  0  0  0
M  END
>  <MODEL>
3

>  <REMARK>
 VINA RESULT:      -6.9      2.413      3.895
  Name = 
  18 active torsions:
  status: ('A' for Active; 'I' for Inactive)
    1  A    between atoms: C_1  and  C_47
    2  A    between atoms: C_3  and  C_47
    3  A    between atoms: C_4  and  C_21
    4  A    between atoms: C_6  and  C_31
    5  A    between atoms: C_6  and  C_35
    6  A    between atoms: C_7  and  C_21
    7  A    between atoms: C_12  and  N_32
    8  A    between atoms: C_17  and  C_30
    9  A    between atoms: C_18  and  C_36
   10  A    between atoms: C_22  and  C_33
   11  A    between atoms: N_23  and  C_25
   12  A    between atoms: C_24  and  C_31
   13  A    between atoms: C_25  and  C_48
   14  A    between atoms: N_26  and  C_30
   15  A    between atoms: N_26  and  C_50
   16  A    between atoms: C_31  and  C_50
   17  A    between atoms: N_32  and  C_33
   18  A    between atoms: C_38  and  C_48
                            x       y       z     vdW  Elec       q    Type
                         _______ _______ _______ _____ _____    ______ ____

>  <TORSDO>
F 18

$$$$
=
 OpenBabel10232411193D

 50 55  0  0  1  0  0  0  0  0999 V2000
  186.5160  175.7680  136.1540 C   0  0  0  0  0  0  0  0  0  0  0  0
  183.0980  175.6410  134.9970 N   0  0  0  0  0  0  0  0  0  0  0  0
  185.9140  176.9190  136.4020 C   0  0  0  0  0  3  0  0  0  0  0  0
  182.5540  176.5220  135.7690 C   0  0  0  0  0  0  0  0  0  0  0  0
  182.1160  176.7240  137.8910 C   0  0  1  0  0  3  0  0  0  0  0  0
  181.6860  176.1320  136.8240 N   0  0  0  0  0  2  0  0  0  0  0  0
  183.3040  177.5530  137.6390 C   0  0  0  0  0  0  0  0  0  0  0  0
  184.1240  179.4380  139.2400 C   0  0  0  0  0  3  0  0  0  0  0  0
  183.7150  178.4990  138.4390 C   0  0  0  0  0  0  0  0  0  0  0  0
  185.6450  174.7240  134.9740 S   0  0  0  0  0  0  0  0  0  0  0  0
  183.4730  177.6170  136.1560 C   0  0  1  0  0  3  0  0  0  0  0  0
  184.4500  176.0720  134.6740 C   0  0  2  0  0  3  0  0  0  0  0  0
  184.7380  177.1260  135.6330 N   0  0  0  0  0  0  0  0  0  0  0  0
  180.5520  177.5580  139.6770 O   0  0  0  0  0  1  0  0  0  0  0  0
  182.0880  175.8860  140.1890 O   0  0  0  0  0  0  0  0  0  0  0  0
  181.4210  176.5720  139.2060 C   0  0  0  0  0  0  0  0  0  0  0  0
  181.0600  175.2920  139.5490 O   0  0  0  0  0  0  0  0  0  0  0  0
  188.8270  176.3640  136.8930 C   0  0  0  0  0  0  0  0  0  0  0  0
  187.7740  175.3970  136.7550 N   0  0  0  0  0  0  0  0  0  0  0  0
  189.1390  177.1020  135.9200 O   0  0  0  0  0  0  0  0  0  0  0  0
  188.0400  174.0050  137.1300 C   0  0  0  0  0  2  0  0  0  0  0  0
  190.2990  173.2290  136.9370 F   0  0  0  0  0  0  0  0  0  0  0  0
  189.1100  173.3610  136.2510 C   0  0  0  0  0  3  0  0  0  0  0  0
  188.7000  172.1260  135.7800 F   0  0  0  0  0  0  0  0  0  0  0  0
  189.5170  176.5620  138.1980 C   0  0  0  0  0  2  0  0  0  0  0  0
  191.8100  175.7840  138.2520 C   0  0  1  0  0  3  0  0  0  0  0  0
  191.7260  176.9180  139.2720 C   0  0  0  0  0  0  0  0  0  0  0  0
  190.9730  176.8990  137.9420 C   0  0  2  0  0  3  0  0  0  0  0  0
  192.0300  177.4420  140.3300 O   0  0  0  0  0  0  0  0  0  0  0  0
  193.1140  175.8920  137.4840 C   0  0  0  0  0  2  0  0  0  0  0  0
  193.9850  174.6730  137.7360 C   0  0  0  0  0  2  0  0  0  0  0  0
  195.2140  175.0690  138.2640 O   0  0  0  0  0  1  0  0  0  0  0  0
  184.8800  179.0870  140.4710 C   0  0  2  0  0  3  0  0  0  0  0  0
  185.9300  178.0400  140.1220 C   0  0  0  0  0  2  0  0  0  0  0  0
  187.2600  178.6280  140.1050 N   0  0  0  0  0  2  0  0  0  0  0  0
  187.6480  178.8600  141.4900 C   0  0  0  0  0  2  0  0  0  0  0  0
  189.6580  178.7270  143.0000 C   0  0  0  0  0  2  0  0  0  0  0  0
  188.4220  176.3620  143.6580 C   0  0  0  0  0  2  0  0  0  0  0  0
  188.8990  178.0650  141.8530 C   0  0  1  0  0  3  0  0  0  0  0  0
  189.5730  176.8390  144.4510 N   0  0  0  0  0  0  0  0  0  0  0  0
  190.4280  177.7150  143.7310 N   0  0  0  0  0  2  0  0  0  0  0  0
  188.5770  176.6010  142.1530 C   0  0  0  0  0  2  0  0  0  0  0  0
  189.0590  177.5510  145.6160 C   0  0  0  0  0  2  0  0  0  0  0  0
  187.5420  177.6500  145.5450 C   0  0  0  0  0  2  0  0  0  0  0  0
  187.0170  178.4290  146.7370 C   0  0  0  0  0  3  0  0  0  0  0  0
  185.5160  178.2430  146.8400 C   0  0  0  0  0  1  0  0  0  0  0  0
  187.6680  177.9370  148.0180 C   0  0  0  0  0  1  0  0  0  0  0  0
  183.9140  178.5590  141.5170 C   0  0  0  0  0  2  0  0  0  0  0  0
  183.3290  178.6410  143.8680 N   0  0  0  0  0  1  0  0  0  0  0  0
  184.3560  178.9850  142.9050 C   0  0  0  0  0  2  0  0  0  0  0  0
  1  3  2  0  0  0  0
  1 19  1  0  0  0  0
  2  4  2  0  0  0  0
  4  6  1  0  0  0  0
  5 16  1  6  0  0  0
  6  5  1  0  0  0  0
  7  5  1  0  0  0  0
  7  9  2  0  0  0  0
  9  8  2  0  0  0  0
 10  1  1  0  0  0  0
 11  4  1  6  0  0  0
 11  7  1  0  0  0  0
 12 10  1  1  0  0  0
 12  2  1  0  0  0  0
 12 13  1  0  0  0  0
 13 11  1  0  0  0  0
 13  3  1  0  0  0  0
 16 17  1  0  0  0  0
 16 14  1  0  0  0  0
 16 15  1  0  0  0  0
 17 15  1  0  0  0  0
 18 25  1  0  0  0  0
 19 18  1  0  0  0  0
 19 21  1  0  0  0  0
 20 18  2  0  0  0  0
 23 22  1  0  0  0  0
 23 21  1  0  0  0  0
 24 23  1  0  0  0  0
 26 30  1  6  0  0  0
 26 27  1  0  0  0  0
 27 29  2  0  0  0  0
 28 25  1  1  0  0  0
 28 26  1  0  0  0  0
 28 27  1  0  0  0  0
 30 31  1  0  0  0  0
 31 32  1  0  0  0  0
 33  8  1  6  0  0  0
 33 48  1  0  0  0  0
 34 33  1  0  0  0  0
 35 34  1  0  0  0  0
 35 36  1  0  0  0  0
 37 41  1  0  0  0  0
 38 40  1  0  0  0  0
 39 36  1  1  0  0  0
 39 42  1  0  0  0  0
 39 37  1  0  0  0  0
 40 43  1  0  0  0  0
 41 40  1  0  0  0  0
 42 38  1  0  0  0  0
 44 43  1  0  0  0  0
 44 45  1  0  0  0  0
 45 46  1  0  0  0  0
 45 47  1  0  0  0  0
 48 50  1  0  0  0  0
 50 49  1  0  0  0  0
M  END
>  <MODEL>
4

>  <REMARK>
 VINA RESULT:      -6.7      3.607      8.334
  Name = 
  18 active torsions:
  status: ('A' for Active; 'I' for Inactive)
    1  A    between atoms: C_1  and  C_47
    2  A    between atoms: C_3  and  C_47
    3  A    between atoms: C_4  and  C_21
    4  A    between atoms: C_6  and  C_31
    5  A    between atoms: C_6  and  C_35
    6  A    between atoms: C_7  and  C_21
    7  A    between atoms: C_12  and  N_32
    8  A    between atoms: C_17  and  C_30
    9  A    between atoms: C_18  and  C_36
   10  A    between atoms: C_22  and  C_33
   11  A    between atoms: N_23  and  C_25
   12  A    between atoms: C_24  and  C_31
   13  A    between atoms: C_25  and  C_48
   14  A    between atoms: N_26  and  C_30
   15  A    between atoms: N_26  and  C_50
   16  A    between atoms: C_31  and  C_50
   17  A    between atoms: N_32  and  C_33
   18  A    between atoms: C_38  and  C_48
                            x       y       z     vdW  Elec       q    Type
                         _______ _______ _______ _____ _____    ______ ____

>  <TORSDO>
F 18

$$$$
=
 OpenBabel10232411193D

 50 55  0  0  1  0  0  0  0  0999 V2000
  189.3410  177.5000  140.5600 C   0  0  0  0  0  0  0  0  0  0  0  0
  190.9790  175.4420  138.0860 N   0  0  0  0  0  0  0  0  0  0  0  0
  188.8480  177.7600  139.3610 C   0  0  0  0  0  3  0  0  0  0  0  0
  190.0660  175.4000  137.1730 C   0  0  0  0  0  0  0  0  0  0  0  0
  188.0740  174.5530  136.9540 C   0  0  1  0  0  3  0  0  0  0  0  0
  189.3220  174.2130  136.9400 N   0  0  0  0  0  2  0  0  0  0  0  0
  187.8820  175.9910  137.1980 C   0  0  0  0  0  0  0  0  0  0  0  0
  185.6810  177.2750  136.6530 C   0  0  0  0  0  3  0  0  0  0  0  0
  186.7810  176.6360  136.9240 C   0  0  0  0  0  0  0  0  0  0  0  0
  190.8970  176.5960  140.5330 S   0  0  0  0  0  0  0  0  0  0  0  0
  189.2330  176.6230  137.1110 C   0  0  1  0  0  3  0  0  0  0  0  0
  190.9500  176.7550  138.7150 C   0  0  2  0  0  3  0  0  0  0  0  0
  189.6850  177.3350  138.2960 N   0  0  0  0  0  0  0  0  0  0  0  0
  186.4530  173.3770  135.4310 O   0  0  0  0  0  1  0  0  0  0  0  0
  186.0970  173.3380  137.7310 O   0  0  0  0  0  0  0  0  0  0  0  0
  186.9860  173.5570  136.7090 C   0  0  0  0  0  0  0  0  0  0  0  0
  187.0400  172.4120  137.4640 O   0  0  0  0  0  0  0  0  0  0  0  0
  188.8850  177.1860  142.9960 C   0  0  0  0  0  0  0  0  0  0  0  0
  188.6990  177.9270  141.7810 N   0  0  0  0  0  0  0  0  0  0  0  0
  188.7730  175.9300  142.9960 O   0  0  0  0  0  0  0  0  0  0  0  0
  187.7610  179.0530  141.7760 C   0  0  0  0  0  2  0  0  0  0  0  0
  186.2560  177.7930  143.1500 F   0  0  0  0  0  0  0  0  0  0  0  0
  186.3240  178.6130  142.0430 C   0  0  0  0  0  3  0  0  0  0  0  0
  185.4850  179.7000  142.2120 F   0  0  0  0  0  0  0  0  0  0  0  0
  189.2800  177.8720  144.2580 C   0  0  0  0  0  2  0  0  0  0  0  0
  188.0960  178.2310  146.3400 C   0  0  1  0  0  3  0  0  0  0  0  0
  189.3530  177.4420  146.7010 C   0  0  0  0  0  0  0  0  0  0  0  0
  188.5450  177.2350  145.4210 C   0  0  2  0  0  3  0  0  0  0  0  0
  190.2830  177.1740  147.4420 O   0  0  0  0  0  0  0  0  0  0  0  0
  186.9200  177.6990  147.1380 C   0  0  0  0  0  2  0  0  0  0  0  0
  185.6080  178.0670  146.4650 C   0  0  0  0  0  2  0  0  0  0  0  0
  185.3330  179.4190  146.6670 O   0  0  0  0  0  1  0  0  0  0  0  0
  184.5160  177.1700  137.5690 C   0  0  2  0  0  3  0  0  0  0  0  0
  183.2460  177.0420  136.7370 C   0  0  0  0  0  2  0  0  0  0  0  0
  183.1690  175.7330  136.1100 N   0  0  0  0  0  2  0  0  0  0  0  0
  182.5900  174.8180  137.0860 C   0  0  0  0  0  2  0  0  0  0  0  0
  181.3560  173.6350  135.2380 C   0  0  0  0  0  2  0  0  0  0  0  0
  180.8920  171.8830  137.3050 C   0  0  0  0  0  2  0  0  0  0  0  0
  181.2400  174.2890  136.6120 C   0  0  1  0  0  3  0  0  0  0  0  0
  180.5250  171.5090  135.9240 N   0  0  0  0  0  0  0  0  0  0  0  0
  180.3010  172.6280  135.0790 N   0  0  0  0  0  2  0  0  0  0  0  0
  180.6030  173.3500  137.6370 C   0  0  0  0  0  2  0  0  0  0  0  0
  181.6140  170.7190  135.3620 C   0  0  0  0  0  2  0  0  0  0  0  0
  182.7320  170.5620  136.3830 C   0  0  0  0  0  2  0  0  0  0  0  0
  184.0800  170.7170  135.7020 C   0  0  0  0  0  3  0  0  0  0  0  0
  184.7060  169.3490  135.5070 C   0  0  0  0  0  1  0  0  0  0  0  0
  183.9160  171.3860  134.3500 C   0  0  0  0  0  1  0  0  0  0  0  0
  184.4620  178.4040  138.4540 C   0  0  0  0  0  2  0  0  0  0  0  0
  182.7320  180.0830  138.6980 N   0  0  0  0  0  1  0  0  0  0  0  0
  183.0340  178.6780  138.8870 C   0  0  0  0  0  2  0  0  0  0  0  0
  1 19  1  0  0  0  0
  3  1  2  0  0  0  0
  4  2  2  0  0  0  0
  5 16  1  6  0  0  0
  5  7  1  0  0  0  0
  6  5  1  0  0  0  0
  6  4  1  0  0  0  0
  8  9  2  0  0  0  0
  9  7  2  0  0  0  0
 10  1  1  0  0  0  0
 11  4  1  1  0  0  0
 11  7  1  0  0  0  0
 11 13  1  0  0  0  0
 12  2  1  6  0  0  0
 12 10  1  0  0  0  0
 13 12  1  0  0  0  0
 13  3  1  0  0  0  0
 14 16  1  0  0  0  0
 16 17  1  0  0  0  0
 16 15  1  0  0  0  0
 17 15  1  0  0  0  0
 18 25  1  0  0  0  0
 19 18  1  0  0  0  0
 20 18  2  0  0  0  0
 21 19  1  0  0  0  0
 21 23  1  0  0  0  0
 23 24  1  0  0  0  0
 23 22  1  0  0  0  0
 26 27  1  0  0  0  0
 26 30  1  1  0  0  0
 27 29  2  0  0  0  0
 28 25  1  6  0  0  0
 28 26  1  0  0  0  0
 28 27  1  0  0  0  0
 31 32  1  0  0  0  0
 31 30  1  0  0  0  0
 33  8  1  6  0  0  0
 33 48  1  0  0  0  0
 34 33  1  0  0  0  0
 35 34  1  0  0  0  0
 35 36  1  0  0  0  0
 37 39  1  0  0  0  0
 38 42  1  0  0  0  0
 39 36  1  1  0  0  0
 39 42  1  0  0  0  0
 40 38  1  0  0  0  0
 41 37  1  0  0  0  0
 41 40  1  0  0  0  0
 43 40  1  0  0  0  0
 43 44  1  0  0  0  0
 45 44  1  0  0  0  0
 46 45  1  0  0  0  0
 47 45  1  0  0  0  0
 48 50  1  0  0  0  0
 49 50  1  0  0  0  0
M  END
>  <MODEL>
5

>  <REMARK>
 VINA RESULT:      -6.6      1.712      3.224
  Name = 
  18 active torsions:
  status: ('A' for Active; 'I' for Inactive)
    1  A    between atoms: C_1  and  C_47
    2  A    between atoms: C_3  and  C_47
    3  A    between atoms: C_4  and  C_21
    4  A    between atoms: C_6  and  C_31
    5  A    between atoms: C_6  and  C_35
    6  A    between atoms: C_7  and  C_21
    7  A    between atoms: C_12  and  N_32
    8  A    between atoms: C_17  and  C_30
    9  A    between atoms: C_18  and  C_36
   10  A    between atoms: C_22  and  C_33
   11  A    between atoms: N_23  and  C_25
   12  A    between atoms: C_24  and  C_31
   13  A    between atoms: C_25  and  C_48
   14  A    between atoms: N_26  and  C_30
   15  A    between atoms: N_26  and  C_50
   16  A    between atoms: C_31  and  C_50
   17  A    between atoms: N_32  and  C_33
   18  A    between atoms: C_38  and  C_48
                            x       y       z     vdW  Elec       q    Type
                         _______ _______ _______ _____ _____    ______ ____

>  <TORSDO>
F 18

$$$$
=
 OpenBabel10232411193D

 50 55  0  0  1  0  0  0  0  0999 V2000
  188.9870  177.5550  140.7190 C   0  0  0  0  0  0  0  0  0  0  0  0
  189.7050  177.2660  137.1910 N   0  0  0  0  0  0  0  0  0  0  0  0
  188.0180  178.1160  140.0150 C   0  0  0  0  0  3  0  0  0  0  0  0
  188.5110  177.3230  136.7030 C   0  0  0  0  0  0  0  0  0  0  0  0
  186.7250  176.0800  136.7190 C   0  0  1  0  0  3  0  0  0  0  0  0
  187.8880  176.1670  136.1610 N   0  0  0  0  0  2  0  0  0  0  0  0
  186.4750  177.1670  137.6780 C   0  0  0  0  0  0  0  0  0  0  0  0
  184.1040  177.8350  138.5290 C   0  0  0  0  0  3  0  0  0  0  0  0
  185.2880  177.5040  138.1040 C   0  0  0  0  0  0  0  0  0  0  0  0
  190.4930  177.2530  139.7810 S   0  0  0  0  0  0  0  0  0  0  0  0
  187.5820  178.1540  137.5020 C   0  0  1  0  0  3  0  0  0  0  0  0
  189.7750  178.1390  138.3550 C   0  0  2  0  0  3  0  0  0  0  0  0
  188.3890  178.4290  138.6800 N   0  0  0  0  0  0  0  0  0  0  0  0
  185.3410  174.0680  137.3230 O   0  0  0  0  0  1  0  0  0  0  0  0
  185.8240  174.4960  135.0870 O   0  0  0  0  0  0  0  0  0  0  0  0
  185.7630  174.9910  136.3650 C   0  0  0  0  0  0  0  0  0  0  0  0
  184.8090  175.3130  135.4330 O   0  0  0  0  0  0  0  0  0  0  0  0
  190.0140  177.2100  142.9690 C   0  0  0  0  0  0  0  0  0  0  0  0
  188.8560  177.2400  142.1210 N   0  0  0  0  0  0  0  0  0  0  0  0
  191.0550  176.6040  142.5990 O   0  0  0  0  0  0  0  0  0  0  0  0
  187.5610  176.8360  142.6770 C   0  0  0  0  0  2  0  0  0  0  0  0
  185.4700  177.9970  142.5380 F   0  0  0  0  0  0  0  0  0  0  0  0
  186.7200  178.0320  143.1190 C   0  0  0  0  0  3  0  0  0  0  0  0
  186.5970  178.0810  144.4960 F   0  0  0  0  0  0  0  0  0  0  0  0
  190.0330  177.9480  144.2630 C   0  0  0  0  0  2  0  0  0  0  0  0
  189.3910  177.6920  146.5850 C   0  0  1  0  0  3  0  0  0  0  0  0
  190.7940  177.0980  146.4680 C   0  0  0  0  0  0  0  0  0  0  0  0
  189.7170  176.9820  145.3890 C   0  0  2  0  0  3  0  0  0  0  0  0
  191.9120  176.8780  146.9010 O   0  0  0  0  0  0  0  0  0  0  0  0
  188.5450  176.8130  147.4880 C   0  0  0  0  0  2  0  0  0  0  0  0
  187.9280  177.6350  148.6070 C   0  0  0  0  0  2  0  0  0  0  0  0
  188.6490  178.8160  148.7810 O   0  0  0  0  0  1  0  0  0  0  0  0
  183.4400  177.0250  139.5840 C   0  0  2  0  0  3  0  0  0  0  0  0
  182.0690  176.5900  139.0800 C   0  0  0  0  0  2  0  0  0  0  0  0
  182.1560  175.3240  138.3710 N   0  0  0  0  0  2  0  0  0  0  0  0
  180.8500  174.6850  138.4630 C   0  0  0  0  0  2  0  0  0  0  0  0
  181.4630  174.4010  136.0380 C   0  0  0  0  0  2  0  0  0  0  0  0
  181.1960  171.7640  136.7630 C   0  0  0  0  0  2  0  0  0  0  0  0
  180.4070  174.1400  137.1080 C   0  0  1  0  0  3  0  0  0  0  0  0
  181.7590  172.1130  135.4430 N   0  0  0  0  0  0  0  0  0  0  0  0
  181.3530  173.3920  134.9790 N   0  0  0  0  0  2  0  0  0  0  0  0
  180.0280  172.6600  137.1850 C   0  0  0  0  0  2  0  0  0  0  0  0
  183.2130  172.1030  135.5520 C   0  0  0  0  0  2  0  0  0  0  0  0
  183.6840  170.8120  136.2070 C   0  0  0  0  0  2  0  0  0  0  0  0
  183.8080  169.7170  135.1640 C   0  0  0  0  0  3  0  0  0  0  0  0
  185.2410  169.2240  135.1180 C   0  0  0  0  0  1  0  0  0  0  0  0
  182.8930  168.5550  135.5070 C   0  0  0  0  0  1  0  0  0  0  0  0
  183.3150  177.8560  140.8490 C   0  0  0  0  0  2  0  0  0  0  0  0
  181.6120  179.1690  141.9660 N   0  0  0  0  0  1  0  0  0  0  0  0
  182.2310  178.9060  140.6830 C   0  0  0  0  0  2  0  0  0  0  0  0
  1 19  1  0  0  0  0
  3  1  2  0  0  0  0
  4  2  2  0  0  0  0
  5 16  1  6  0  0  0
  5  7  1  0  0  0  0
  6  4  1  0  0  0  0
  6  5  1  0  0  0  0
  7  9  2  0  0  0  0
  9  8  2  0  0  0  0
 10  1  1  0  0  0  0
 11  4  1  6  0  0  0
 11  7  1  0  0  0  0
 11 13  1  0  0  0  0
 12  2  1  6  0  0  0
 12 13  1  0  0  0  0
 12 10  1  0  0  0  0
 13  3  1  0  0  0  0
 15 17  1  0  0  0  0
 15 16  1  0  0  0  0
 16 14  1  0  0  0  0
 17 16  1  0  0  0  0
 18 25  1  0  0  0  0
 19 21  1  0  0  0  0
 19 18  1  0  0  0  0
 20 18  2  0  0  0  0
 21 23  1  0  0  0  0
 22 23  1  0  0  0  0
 23 24  1  0  0  0  0
 26 30  1  1  0  0  0
 27 26  1  0  0  0  0
 27 29  2  0  0  0  0
 28 25  1  6  0  0  0
 28 27  1  0  0  0  0
 28 26  1  0  0  0  0
 30 31  1  0  0  0  0
 31 32  1  0  0  0  0
 33  8  1  6  0  0  0
 33 48  1  0  0  0  0
 34 33  1  0  0  0  0
 35 36  1  0  0  0  0
 35 34  1  0  0  0  0
 37 39  1  0  0  0  0
 38 42  1  0  0  0  0
 39 42  1  0  0  0  0
 39 36  1  1  0  0  0
 40 43  1  0  0  0  0
 40 38  1  0  0  0  0
 41 40  1  0  0  0  0
 41 37  1  0  0  0  0
 43 44  1  0  0  0  0
 45 47  1  0  0  0  0
 45 44  1  0  0  0  0
 46 45  1  0  0  0  0
 50 48  1  0  0  0  0
 50 49  1  0  0  0  0
M  END
>  <MODEL>
6

>  <REMARK>
 VINA RESULT:      -6.4      2.108      3.770
  Name = 
  18 active torsions:
  status: ('A' for Active; 'I' for Inactive)
    1  A    between atoms: C_1  and  C_47
    2  A    between atoms: C_3  and  C_47
    3  A    between atoms: C_4  and  C_21
    4  A    between atoms: C_6  and  C_31
    5  A    between atoms: C_6  and  C_35
    6  A    between atoms: C_7  and  C_21
    7  A    between atoms: C_12  and  N_32
    8  A    between atoms: C_17  and  C_30
    9  A    between atoms: C_18  and  C_36
   10  A    between atoms: C_22  and  C_33
   11  A    between atoms: N_23  and  C_25
   12  A    between atoms: C_24  and  C_31
   13  A    between atoms: C_25  and  C_48
   14  A    between atoms: N_26  and  C_30
   15  A    between atoms: N_26  and  C_50
   16  A    between atoms: C_31  and  C_50
   17  A    between atoms: N_32  and  C_33
   18  A    between atoms: C_38  and  C_48
                            x       y       z     vdW  Elec       q    Type
                         _______ _______ _______ _____ _____    ______ ____

>  <TORSDO>
F 18

$$$$
=
 OpenBabel10232411193D

 50 55  0  0  1  0  0  0  0  0999 V2000
  186.5310  174.6180  135.7940 C   0  0  0  0  0  0  0  0  0  0  0  0
  188.7360  172.0630  134.5090 N   0  0  0  0  0  0  0  0  0  0  0  0
  187.4680  174.3420  136.6850 C   0  0  0  0  0  3  0  0  0  0  0  0
  189.8100  172.3190  135.1800 C   0  0  0  0  0  0  0  0  0  0  0  0
  191.2790  173.9220  135.2780 C   0  0  1  0  0  3  0  0  0  0  0  0
  190.9400  172.9070  134.5510 N   0  0  0  0  0  2  0  0  0  0  0  0
  190.4050  174.0960  136.4490 C   0  0  0  0  0  0  0  0  0  0  0  0
  191.0450  175.5140  138.5390 C   0  0  0  0  0  3  0  0  0  0  0  0
  190.7250  174.8050  137.4970 C   0  0  0  0  0  0  0  0  0  0  0  0
  186.3750  173.3860  134.4900 S   0  0  0  0  0  0  0  0  0  0  0  0
  189.5480  172.8750  136.5270 C   0  0  1  0  0  3  0  0  0  0  0  0
  187.5820  172.3250  135.3570 C   0  0  2  0  0  3  0  0  0  0  0  0
  188.1120  173.0950  136.4700 N   0  0  0  0  0  0  0  0  0  0  0  0
  192.3020  176.1110  134.5770 O   0  0  0  0  0  1  0  0  0  0  0  0
  193.5300  174.1470  134.3470 O   0  0  0  0  0  0  0  0  0  0  0  0
  192.4610  174.7720  134.9380 C   0  0  0  0  0  0  0  0  0  0  0  0
  193.6100  174.5110  135.6430 O   0  0  0  0  0  0  0  0  0  0  0  0
  185.1150  176.1810  137.1320 C   0  0  0  0  0  0  0  0  0  0  0  0
  185.6910  175.7880  135.8760 N   0  0  0  0  0  0  0  0  0  0  0  0
  184.5490  175.3250  137.8640 O   0  0  0  0  0  0  0  0  0  0  0  0
  185.3200  176.5270  134.6660 C   0  0  0  0  0  2  0  0  0  0  0  0
  183.2830  175.2990  134.9540 F   0  0  0  0  0  0  0  0  0  0  0  0
  183.8310  176.4090  134.3470 C   0  0  0  0  0  3  0  0  0  0  0  0
  183.1400  177.5440  134.7310 F   0  0  0  0  0  0  0  0  0  0  0  0
  185.2350  177.5820  137.6230 C   0  0  0  0  0  2  0  0  0  0  0  0
  183.6720  178.9810  138.8350 C   0  0  1  0  0  3  0  0  0  0  0  0
  184.9300  178.9060  139.7000 C   0  0  0  0  0  0  0  0  0  0  0  0
  184.3860  177.7440  138.8700 C   0  0  2  0  0  3  0  0  0  0  0  0
  185.7420  179.3940  140.4680 O   0  0  0  0  0  0  0  0  0  0  0  0
  182.4450  178.8880  139.7220 C   0  0  0  0  0  2  0  0  0  0  0  0
  181.3610  178.0630  139.0490 C   0  0  0  0  0  2  0  0  0  0  0  0
  180.4360  177.6290  139.9990 O   0  0  0  0  0  1  0  0  0  0  0  0
  190.9360  176.9960  138.4910 C   0  0  2  0  0  3  0  0  0  0  0  0
  191.4730  177.5710  139.7960 C   0  0  0  0  0  2  0  0  0  0  0  0
  191.1430  176.7060  140.9170 N   0  0  0  0  0  2  0  0  0  0  0  0
  191.2000  177.5190  142.1240 C   0  0  0  0  0  2  0  0  0  0  0  0
  190.3270  177.6530  144.4810 C   0  0  0  0  0  2  0  0  0  0  0  0
  188.2640  176.2760  143.2980 C   0  0  0  0  0  2  0  0  0  0  0  0
  190.7510  176.7250  143.3460 C   0  0  1  0  0  3  0  0  0  0  0  0
  188.1170  176.7840  144.6770 N   0  0  0  0  0  0  0  0  0  0  0  0
  189.3570  176.9690  145.3430 N   0  0  0  0  0  2  0  0  0  0  0  0
  189.6570  175.7130  143.0000 C   0  0  0  0  0  2  0  0  0  0  0  0
  187.4300  178.0700  144.6170 C   0  0  0  0  0  2  0  0  0  0  0  0
  186.2520  177.9930  143.6560 C   0  0  0  0  0  2  0  0  0  0  0  0
  184.9780  178.4180  144.3630 C   0  0  0  0  0  3  0  0  0  0  0  0
  185.2730  178.6620  145.8300 C   0  0  0  0  0  1  0  0  0  0  0  0
  184.4310  179.6930  143.7470 C   0  0  0  0  0  1  0  0  0  0  0  0
  189.4830  177.3850  138.2830 C   0  0  0  0  0  2  0  0  0  0  0  0
  188.7150  179.6030  137.6830 N   0  0  0  0  0  1  0  0  0  0  0  0
  189.2440  178.8020  138.7690 C   0  0  0  0  0  2  0  0  0  0  0  0
  1 19  1  0  0  0  0
  1  3  2  0  0  0  0
  2  4  2  0  0  0  0
  2 12  1  0  0  0  0
  5 16  1  1  0  0  0
  5  7  1  0  0  0  0
  6  4  1  0  0  0  0
  6  5  1  0  0  0  0
  7 11  1  0  0  0  0
  7  9  2  0  0  0  0
  9  8  2  0  0  0  0
 10  1  1  0  0  0  0
 11  4  1  6  0  0  0
 12 10  1  6  0  0  0
 12 13  1  0  0  0  0
 13 11  1  0  0  0  0
 13  3  1  0  0  0  0
 14 16  1  0  0  0  0
 15 16  1  0  0  0  0
 15 17  1  0  0  0  0
 16 17  1  0  0  0  0
 18 25  1  0  0  0  0
 18 20  2  0  0  0  0
 19 18  1  0  0  0  0
 21 19  1  0  0  0  0
 23 21  1  0  0  0  0
 23 24  1  0  0  0  0
 23 22  1  0  0  0  0
 26 28  1  0  0  0  0
 26 27  1  0  0  0  0
 26 30  1  1  0  0  0
 27 29  2  0  0  0  0
 28 25  1  6  0  0  0
 28 27  1  0  0  0  0
 31 30  1  0  0  0  0
 31 32  1  0  0  0  0
 33 48  1  1  0  0  0
 33  8  1  0  0  0  0
 33 34  1  0  0  0  0
 34 35  1  0  0  0  0
 35 36  1  0  0  0  0
 37 41  1  0  0  0  0
 38 40  1  0  0  0  0
 39 36  1  6  0  0  0
 39 37  1  0  0  0  0
 40 41  1  0  0  0  0
 42 38  1  0  0  0  0
 42 39  1  0  0  0  0
 43 40  1  0  0  0  0
 44 45  1  0  0  0  0
 44 43  1  0  0  0  0
 45 46  1  0  0  0  0
 47 45  1  0  0  0  0
 48 50  1  0  0  0  0
 49 50  1  0  0  0  0
M  END
>  <MODEL>
7

>  <REMARK>
 VINA RESULT:      -6.4      3.912      8.135
  Name = 
  18 active torsions:
  status: ('A' for Active; 'I' for Inactive)
    1  A    between atoms: C_1  and  C_47
    2  A    between atoms: C_3  and  C_47
    3  A    between atoms: C_4  and  C_21
    4  A    between atoms: C_6  and  C_31
    5  A    between atoms: C_6  and  C_35
    6  A    between atoms: C_7  and  C_21
    7  A    between atoms: C_12  and  N_32
    8  A    between atoms: C_17  and  C_30
    9  A    between atoms: C_18  and  C_36
   10  A    between atoms: C_22  and  C_33
   11  A    between atoms: N_23  and  C_25
   12  A    between atoms: C_24  and  C_31
   13  A    between atoms: C_25  and  C_48
   14  A    between atoms: N_26  and  C_30
   15  A    between atoms: N_26  and  C_50
   16  A    between atoms: C_31  and  C_50
   17  A    between atoms: N_32  and  C_33
   18  A    between atoms: C_38  and  C_48
                            x       y       z     vdW  Elec       q    Type
                         _______ _______ _______ _____ _____    ______ ____

>  <TORSDO>
F 18

$$$$
=
 OpenBabel10232411193D

 50 55  0  0  1  0  0  0  0  0999 V2000
  185.6740  175.0740  136.5930 C   0  0  0  0  0  0  0  0  0  0  0  0
  184.3030  178.0930  138.0230 N   0  0  0  0  0  0  0  0  0  0  0  0
  186.5720  176.0440  136.5430 C   0  0  0  0  0  3  0  0  0  0  0  0
  185.3860  178.6910  138.3950 C   0  0  0  0  0  0  0  0  0  0  0  0
  186.9490  178.3740  139.8750 C   0  0  1  0  0  3  0  0  0  0  0  0
  185.7290  178.7910  139.7700 N   0  0  0  0  0  2  0  0  0  0  0  0
  187.5200  177.9610  138.5840 C   0  0  0  0  0  0  0  0  0  0  0  0
  190.0750  177.7090  138.1410 C   0  0  0  0  0  3  0  0  0  0  0  0
  188.8000  177.8360  138.3610 C   0  0  0  0  0  0  0  0  0  0  0  0
  183.9970  175.6440  136.9110 S   0  0  0  0  0  0  0  0  0  0  0  0
  186.5520  178.3940  137.5320 C   0  0  1  0  0  3  0  0  0  0  0  0
  184.5680  177.3740  136.7850 C   0  0  2  0  0  3  0  0  0  0  0  0
  186.0170  177.3430  136.6810 N   0  0  0  0  0  0  0  0  0  0  0  0
  188.6260  179.3340  141.4870 O   0  0  0  0  0  1  0  0  0  0  0  0
  187.8890  177.1450  141.7710 O   0  0  0  0  0  0  0  0  0  0  0  0
  187.6650  178.3670  141.1880 C   0  0  0  0  0  0  0  0  0  0  0  0
  186.9290  177.9500  142.2700 O   0  0  0  0  0  0  0  0  0  0  0  0
  185.4000  172.6640  137.1870 C   0  0  0  0  0  0  0  0  0  0  0  0
  186.0070  173.6860  136.3820 N   0  0  0  0  0  0  0  0  0  0  0  0
  185.3410  172.7950  138.4390 O   0  0  0  0  0  0  0  0  0  0  0  0
  187.0510  173.3050  135.4260 C   0  0  0  0  0  2  0  0  0  0  0  0
  188.6760  173.5880  137.1640 F   0  0  0  0  0  0  0  0  0  0  0  0
  188.3040  172.7720  136.1170 C   0  0  0  0  0  3  0  0  0  0  0  0
  188.1190  171.4790  136.5720 F   0  0  0  0  0  0  0  0  0  0  0  0
  184.7690  171.4700  136.5580 C   0  0  0  0  0  2  0  0  0  0  0  0
  182.3840  171.6990  136.9170 C   0  0  1  0  0  3  0  0  0  0  0  0
  182.5460  170.6320  135.8360 C   0  0  0  0  0  0  0  0  0  0  0  0
  183.4320  171.8710  135.9630 C   0  0  2  0  0  3  0  0  0  0  0  0
  182.2190  169.5950  135.2860 O   0  0  0  0  0  0  0  0  0  0  0  0
  181.2170  172.6020  136.5640 C   0  0  0  0  0  2  0  0  0  0  0  0
  180.4140  172.9490  137.8070 C   0  0  0  0  0  2  0  0  0  0  0  0
  180.4690  174.3230  138.0390 O   0  0  0  0  0  1  0  0  0  0  0  0
  190.7940  176.4980  138.6170 C   0  0  2  0  0  3  0  0  0  0  0  0
  190.7710  176.4790  140.1400 C   0  0  0  0  0  2  0  0  0  0  0  0
  192.0160  176.9960  140.6830 N   0  0  0  0  0  2  0  0  0  0  0  0
  191.6730  178.0400  141.6390 C   0  0  0  0  0  2  0  0  0  0  0  0
  191.4380  178.6110  144.0790 C   0  0  0  0  0  2  0  0  0  0  0  0
  190.0690  176.2290  144.0240 C   0  0  0  0  0  2  0  0  0  0  0  0
  191.9670  177.5970  143.0690 C   0  0  1  0  0  3  0  0  0  0  0  0
  190.0330  177.0720  145.2360 N   0  0  0  0  0  0  0  0  0  0  0  0
  191.1520  177.9390  145.3510 N   0  0  0  0  0  2  0  0  0  0  0  0
  191.4430  176.1880  143.3490 C   0  0  0  0  0  2  0  0  0  0  0  0
  188.8240  177.8870  145.1870 C   0  0  0  0  0  2  0  0  0  0  0  0
  187.7530  177.2950  146.0920 C   0  0  0  0  0  2  0  0  0  0  0  0
  187.3610  178.3010  147.1590 C   0  0  0  0  0  3  0  0  0  0  0  0
  185.8530  178.4560  147.1770 C   0  0  0  0  0  1  0  0  0  0  0  0
  187.8290  177.8320  148.5250 C   0  0  0  0  0  1  0  0  0  0  0  0
  192.2200  176.5260  138.0960 C   0  0  0  0  0  2  0  0  0  0  0  0
  192.0810  174.5570  136.6890 N   0  0  0  0  0  1  0  0  0  0  0  0
  192.2720  175.9940  136.6760 C   0  0  0  0  0  2  0  0  0  0  0  0
  1 10  1  0  0  0  0
  2  4  2  0  0  0  0
  3  1  2  0  0  0  0
  3 13  1  0  0  0  0
  4  6  1  0  0  0  0
  5 16  1  6  0  0  0
  6  5  1  0  0  0  0
  7  5  1  0  0  0  0
  8  9  2  0  0  0  0
  8 33  1  0  0  0  0
  9  7  2  0  0  0  0
 11  4  1  1  0  0  0
 11  7  1  0  0  0  0
 12 10  1  1  0  0  0
 12  2  1  0  0  0  0
 13 12  1  0  0  0  0
 13 11  1  0  0  0  0
 15 17  1  0  0  0  0
 16 14  1  0  0  0  0
 16 15  1  0  0  0  0
 16 17  1  0  0  0  0
 18 20  2  0  0  0  0
 19  1  1  0  0  0  0
 19 18  1  0  0  0  0
 21 23  1  0  0  0  0
 21 19  1  0  0  0  0
 23 24  1  0  0  0  0
 23 22  1  0  0  0  0
 25 18  1  0  0  0  0
 26 30  1  6  0  0  0
 27 28  1  0  0  0  0
 27 26  1  0  0  0  0
 28 25  1  1  0  0  0
 28 26  1  0  0  0  0
 29 27  2  0  0  0  0
 30 31  1  0  0  0  0
 31 32  1  0  0  0  0
 33 48  1  1  0  0  0
 33 34  1  0  0  0  0
 34 35  1  0  0  0  0
 35 36  1  0  0  0  0
 37 41  1  0  0  0  0
 38 40  1  0  0  0  0
 39 36  1  6  0  0  0
 39 42  1  0  0  0  0
 39 37  1  0  0  0  0
 40 41  1  0  0  0  0
 42 38  1  0  0  0  0
 43 40  1  0  0  0  0
 43 44  1  0  0  0  0
 44 45  1  0  0  0  0
 45 46  1  0  0  0  0
 45 47  1  0  0  0  0
 50 49  1  0  0  0  0
 50 48  1  0  0  0  0
M  END
>  <MODEL>
8

>  <REMARK>
 VINA RESULT:      -6.3      3.432      9.775
  Name = 
  18 active torsions:
  status: ('A' for Active; 'I' for Inactive)
    1  A    between atoms: C_1  and  C_47
    2  A    between atoms: C_3  and  C_47
    3  A    between atoms: C_4  and  C_21
    4  A    between atoms: C_6  and  C_31
    5  A    between atoms: C_6  and  C_35
    6  A    between atoms: C_7  and  C_21
    7  A    between atoms: C_12  and  N_32
    8  A    between atoms: C_17  and  C_30
    9  A    between atoms: C_18  and  C_36
   10  A    between atoms: C_22  and  C_33
   11  A    between atoms: N_23  and  C_25
   12  A    between atoms: C_24  and  C_31
   13  A    between atoms: C_25  and  C_48
   14  A    between atoms: N_26  and  C_30
   15  A    between atoms: N_26  and  C_50
   16  A    between atoms: C_31  and  C_50
   17  A    between atoms: N_32  and  C_33
   18  A    between atoms: C_38  and  C_48
                            x       y       z     vdW  Elec       q    Type
                         _______ _______ _______ _____ _____    ______ ____

>  <TORSDO>
F 18

$$$$
=
 OpenBabel10232411193D

 50 55  0  0  1  0  0  0  0  0999 V2000
  182.0780  175.8290  138.1410 C   0  0  0  0  0  0  0  0  0  0  0  0
  180.5620  178.1180  140.4880 N   0  0  0  0  0  0  0  0  0  0  0  0
  182.7590  176.9610  138.1680 C   0  0  0  0  0  3  0  0  0  0  0  0
  181.5810  178.8510  140.7920 C   0  0  0  0  0  0  0  0  0  0  0  0
  183.4690  178.5940  141.8440 C   0  0  1  0  0  3  0  0  0  0  0  0
  182.2030  178.7440  142.0650 N   0  0  0  0  0  2  0  0  0  0  0  0
  183.7960  178.5870  140.4100 C   0  0  0  0  0  0  0  0  0  0  0  0
  186.1890  179.0000  139.4650 C   0  0  0  0  0  3  0  0  0  0  0  0
  184.9940  178.7950  139.9350 C   0  0  0  0  0  0  0  0  0  0  0  0
  180.4430  175.9380  138.8860 S   0  0  0  0  0  0  0  0  0  0  0  0
  182.5550  179.0000  139.6870 C   0  0  1  0  0  3  0  0  0  0  0  0
  180.6610  177.7410  139.0850 C   0  0  2  0  0  3  0  0  0  0  0  0
  182.0330  178.0520  138.7170 N   0  0  0  0  0  0  0  0  0  0  0  0
  185.6190  177.7250  142.8200 O   0  0  0  0  0  1  0  0  0  0  0  0
  183.9520  178.5130  144.2410 O   0  0  0  0  0  0  0  0  0  0  0  0
  184.4530  178.4790  142.9640 C   0  0  0  0  0  0  0  0  0  0  0  0
  184.5960  179.5930  143.7530 O   0  0  0  0  0  0  0  0  0  0  0  0
  183.9210  174.5850  137.0040 C   0  0  0  0  0  0  0  0  0  0  0  0
  182.5910  174.6200  137.5420 N   0  0  0  0  0  0  0  0  0  0  0  0
  184.3250  175.5140  136.2530 O   0  0  0  0  0  0  0  0  0  0  0  0
  181.7280  173.4470  137.3710 C   0  0  0  0  0  2  0  0  0  0  0  0
  181.2770  174.3760  135.2090 F   0  0  0  0  0  0  0  0  0  0  0  0
  181.3800  173.1910  135.9070 C   0  0  0  0  0  3  0  0  0  0  0  0
  182.3150  172.3700  135.3020 F   0  0  0  0  0  0  0  0  0  0  0  0
  184.8680  173.4960  137.3740 C   0  0  0  0  0  2  0  0  0  0  0  0
  185.8520  171.7050  136.0740 C   0  0  1  0  0  3  0  0  0  0  0  0
  187.0220  172.5230  136.6180 C   0  0  0  0  0  0  0  0  0  0  0  0
  185.6930  173.1220  136.1580 C   0  0  2  0  0  3  0  0  0  0  0  0
  188.1510  172.6250  137.0660 O   0  0  0  0  0  0  0  0  0  0  0  0
  186.1390  171.3060  134.6380 C   0  0  0  0  0  2  0  0  0  0  0  0
  186.4190  169.8160  134.5430 C   0  0  0  0  0  2  0  0  0  0  0  0
  187.7580  169.5650  134.8420 O   0  0  0  0  0  1  0  0  0  0  0  0
  187.1950  177.9060  139.4930 C   0  0  2  0  0  3  0  0  0  0  0  0
  188.4510  178.4120  140.1930 C   0  0  0  0  0  2  0  0  0  0  0  0
  188.9200  177.4480  141.1750 N   0  0  0  0  0  2  0  0  0  0  0  0
  189.1600  178.1740  142.4150 C   0  0  0  0  0  2  0  0  0  0  0  0
  190.8790  178.8500  144.1240 C   0  0  0  0  0  2  0  0  0  0  0  0
  190.8560  176.1330  144.5360 C   0  0  0  0  0  2  0  0  0  0  0  0
  190.6070  178.0200  142.8730 C   0  0  1  0  0  3  0  0  0  0  0  0
  191.5860  177.0150  145.4700 N   0  0  0  0  0  0  0  0  0  0  0  0
  191.9780  178.2490  144.8870 N   0  0  0  0  0  2  0  0  0  0  0  0
  190.9900  176.5520  143.0690 C   0  0  0  0  0  2  0  0  0  0  0  0
  190.7140  177.2980  146.6040 C   0  0  0  0  0  2  0  0  0  0  0  0
  189.2820  176.8930  146.2820 C   0  0  0  0  0  2  0  0  0  0  0  0
  188.3130  177.9050  146.8650 C   0  0  0  0  0  3  0  0  0  0  0  0
  186.9490  177.7220  146.2280 C   0  0  0  0  0  1  0  0  0  0  0  0
  188.1900  177.7140  148.3660 C   0  0  0  0  0  1  0  0  0  0  0  0
  187.5040  177.4730  138.0710 C   0  0  0  0  0  2  0  0  0  0  0  0
  188.5840  179.3370  136.9590 N   0  0  0  0  0  1  0  0  0  0  0  0
  188.8240  178.0670  137.6150 C   0  0  0  0  0  2  0  0  0  0  0  0
  1  3  2  0  0  0  0
  1 10  1  0  0  0  0
  2  4  2  0  0  0  0
  3 13  1  0  0  0  0
  4  6  1  0  0  0  0
  5  6  1  0  0  0  0
  5 16  1  1  0  0  0
  7  5  1  0  0  0  0
  8 33  1  0  0  0  0
  8  9  2  0  0  0  0
  9  7  2  0  0  0  0
 11  7  1  1  0  0  0
 11  4  1  0  0  0  0
 12 10  1  1  0  0  0
 12  2  1  0  0  0  0
 13 12  1  0  0  0  0
 13 11  1  0  0  0  0
 14 16  1  0  0  0  0
 16 17  1  0  0  0  0
 16 15  1  0  0  0  0
 17 15  1  0  0  0  0
 18 25  1  0  0  0  0
 18 19  1  0  0  0  0
 19  1  1  0  0  0  0
 20 18  2  0  0  0  0
 21 19  1  0  0  0  0
 22 23  1  0  0  0  0
 23 21  1  0  0  0  0
 24 23  1  0  0  0  0
 26 30  1  6  0  0  0
 26 28  1  0  0  0  0
 26 27  1  0  0  0  0
 27 29  2  0  0  0  0
 28 27  1  0  0  0  0
 28 25  1  1  0  0  0
 31 30  1  0  0  0  0
 31 32  1  0  0  0  0
 33 48  1  6  0  0  0
 33 34  1  0  0  0  0
 34 35  1  0  0  0  0
 35 36  1  0  0  0  0
 37 41  1  0  0  0  0
 38 40  1  0  0  0  0
 39 36  1  1  0  0  0
 39 42  1  0  0  0  0
 39 37  1  0  0  0  0
 40 43  1  0  0  0  0
 41 40  1  0  0  0  0
 42 38  1  0  0  0  0
 44 43  1  0  0  0  0
 44 45  1  0  0  0  0
 45 47  1  0  0  0  0
 46 45  1  0  0  0  0
 49 50  1  0  0  0  0
 50 48  1  0  0  0  0
M  END
>  <MODEL>
9

>  <REMARK>
 VINA RESULT:      -6.1      3.433      9.952
  Name = 
  18 active torsions:
  status: ('A' for Active; 'I' for Inactive)
    1  A    between atoms: C_1  and  C_47
    2  A    between atoms: C_3  and  C_47
    3  A    between atoms: C_4  and  C_21
    4  A    between atoms: C_6  and  C_31
    5  A    between atoms: C_6  and  C_35
    6  A    between atoms: C_7  and  C_21
    7  A    between atoms: C_12  and  N_32
    8  A    between atoms: C_17  and  C_30
    9  A    between atoms: C_18  and  C_36
   10  A    between atoms: C_22  and  C_33
   11  A    between atoms: N_23  and  C_25
   12  A    between atoms: C_24  and  C_31
   13  A    between atoms: C_25  and  C_48
   14  A    between atoms: N_26  and  C_30
   15  A    between atoms: N_26  and  C_50
   16  A    between atoms: C_31  and  C_50
   17  A    between atoms: N_32  and  C_33
   18  A    between atoms: C_38  and  C_48
                            x       y       z     vdW  Elec       q    Type
                         _______ _______ _______ _____ _____    ______ ____

>  <TORSDO>
F 18

$$$$
