=
 OpenBabel10232410403D

 50 54  0  0  1  0  0  0  0  0999 V2000
  191.5070  175.4800  136.0580 C   0  0  2  0  0  3  0  0  0  0  0  0
  189.8760  176.9720  138.4870 C   0  0  1  0  0  3  0  0  0  0  0  0
  194.3590  176.0250  136.1460 C   0  0  1  0  0  3  0  0  0  0  0  0
  192.9230  176.2810  138.0200 C   0  0  0  0  0  2  0  0  0  0  0  0
  186.6970  178.7410  134.3480 N   0  0  0  0  0  1  0  0  0  0  0  0
  187.1210  178.1160  137.8850 C   0  0  0  0  0  0  0  0  0  0  0  0
  189.5320  174.2880  135.3270 O   0  0  0  0  0  0  0  0  0  0  0  0
  190.0720  175.3980  135.5960 C   0  0  0  0  0  0  0  0  0  0  0  0
  195.8240  176.2310  135.8280 C   0  0  0  0  0  1  0  0  0  0  0  0
  192.0700  173.3820  134.5790 C   0  0  0  0  0  1  0  0  0  0  0  0
  192.5030  174.6100  135.3040 C   0  0  0  0  0  0  0  0  0  0  0  0
  189.2940  176.6550  135.5780 C   0  0  0  0  0  3  0  0  0  0  0  0
  193.8170  174.8790  135.3480 C   0  0  0  0  0  3  0  0  0  0  0  0
  187.4480  178.2060  135.4760 C   0  0  1  0  0  3  0  0  0  0  0  0
  191.7420  175.4030  137.5800 C   0  0  1  0  0  3  0  0  0  0  0  0
  188.6580  176.9770  139.4090 C   0  0  2  0  0  3  0  0  0  0  0  0
  190.7840  177.9740  138.8500 O   0  0  0  0  0  1  0  0  0  0  0  0
  194.1990  175.7320  137.5710 N   0  0  0  0  0  2  0  0  0  0  0  0
  186.5770  178.1680  136.6940 C   0  0  0  0  0  3  0  0  0  0  0  0
  188.0350  176.8420  135.1790 C   0  0  0  0  0  0  0  0  0  0  0  0
  187.6810  178.0620  139.0680 C   0  0  0  0  0  3  0  0  0  0  0  0
  190.5290  175.5850  138.5070 C   0  0  0  0  0  2  0  0  0  0  0  0
  186.2110  175.2180  135.2250 C   0  0  0  0  0  0  0  0  0  0  0  0
  187.2430  175.7320  134.6110 C   0  0  0  0  0  3  0  0  0  0  0  0
  182.8040  174.0110  137.3500 C   0  0  1  0  0  3  0  0  0  0  0  0
  183.8700  175.4840  135.6400 C   0  0  0  0  0  3  0  0  0  0  0  0
  185.1390  174.7690  135.8220 C   0  0  0  0  0  0  0  0  0  0  0  0
  184.1710  173.3740  137.5650 C   0  0  0  0  0  3  0  0  0  0  0  0
  182.7840  175.1390  136.3360 C   0  0  0  0  0  3  0  0  0  0  0  0
  185.2470  173.7220  136.8530 C   0  0  0  0  0  3  0  0  0  0  0  0
  181.6820  171.2450  134.7710 O   0  0  0  0  0  0  0  0  0  0  0  0
  181.5770  172.6330  134.6080 C   0  0  0  0  0  2  0  0  0  0  0  0
  182.3460  171.4890  137.0920 C   0  0  0  0  0  2  0  0  0  0  0  0
  182.7490  171.0580  135.6700 C   0  0  0  0  0  2  0  0  0  0  0  0
  180.9000  173.2230  135.8450 C   0  0  0  0  0  2  0  0  0  0  0  0
  181.7580  172.9180  137.0840 C   0  0  0  0  0  3  0  0  0  0  0  0
  189.0380  176.9810  140.8180 N   0  0  0  0  0  2  0  0  0  0  0  0
  187.1450  178.0310  141.6990 O   0  0  0  0  0  0  0  0  0  0  0  0
  188.3180  177.6170  141.8870 C   0  0  0  0  0  0  0  0  0  0  0  0
  188.0660  177.5630  144.3100 C   0  0  0  0  0  3  0  0  0  0  0  0
  190.3190  177.9490  143.4530 C   0  0  0  0  0  0  0  0  0  0  0  0
  188.9300  177.7120  143.2180 C   0  0  0  0  0  0  0  0  0  0  0  0
  189.8860  177.9230  145.8530 C   0  0  0  0  0  3  0  0  0  0  0  0
  190.7670  178.0560  144.7760 C   0  0  0  0  0  3  0  0  0  0  0  0
  188.5320  177.6670  145.6240 C   0  0  0  0  0  0  0  0  0  0  0  0
  186.2090  178.0760  146.3840 C   0  0  0  0  0  1  0  0  0  0  0  0
  187.5670  177.5110  146.7560 C   0  0  2  0  0  3  0  0  0  0  0  0
  188.0510  178.1510  147.8970 O   0  0  0  0  0  1  0  0  0  0  0  0
  191.3080  178.0740  142.4580 O   0  0  0  0  0  0  0  0  0  0  0  0
  192.2370  177.0730  142.0660 C   0  0  0  0  0  1  0  0  0  0  0  0
  1 11  1  6  0  0  0
  1 15  1  0  0  0  0
  2 22  1  0  0  0  0
  2 17  1  1  0  0  0
  2 16  1  0  0  0  0
  3  9  1  1  0  0  0
  3 18  1  0  0  0  0
  6 21  2  0  0  0  0
  7  8  2  0  0  0  0
  8  1  1  0  0  0  0
 10 11  1  0  0  0  0
 11 13  2  0  0  0  0
 12  8  1  0  0  0  0
 13  3  1  0  0  0  0
 14  5  1  6  0  0  0
 14 19  1  0  0  0  0
 15  4  1  1  0  0  0
 15 22  1  0  0  0  0
 16 37  1  1  0  0  0
 18  4  1  0  0  0  0
 19  6  2  0  0  0  0
 20 14  1  0  0  0  0
 20 12  2  0  0  0  0
 21 16  1  0  0  0  0
 23 27  2  0  0  0  0
 24 20  1  0  0  0  0
 24 23  2  0  0  0  0
 25 36  1  6  0  0  0
 25 28  1  0  0  0  0
 26 27  1  0  0  0  0
 26 29  2  0  0  0  0
 27 30  1  0  0  0  0
 29 25  1  0  0  0  0
 30 28  2  0  0  0  0
 31 34  1  0  0  0  0
 32 31  1  0  0  0  0
 32 35  1  0  0  0  0
 34 33  1  0  0  0  0
 35 36  1  0  0  0  0
 36 33  1  0  0  0  0
 37 39  1  0  0  0  0
 38 39  2  0  0  0  0
 39 42  1  0  0  0  0
 40 45  1  0  0  0  0
 41 44  2  0  0  0  0
 42 41  1  0  0  0  0
 42 40  2  0  0  0  0
 44 43  1  0  0  0  0
 45 43  2  0  0  0  0
 45 47  1  0  0  0  0
 47 46  1  6  0  0  0
 47 48  1  0  0  0  0
 49 41  1  0  0  0  0
 50 49  1  0  0  0  0
M  END
>  <MODEL>
1

>  <REMARK>
 VINA RESULT:      -8.9      0.000      0.000
  Name = 
  6 active torsions:
  status: ('A' for Active; 'I' for Inactive)
    1  A    between atoms: C_5  and  C_46
    2  A    between atoms: C_10  and  C_45
    3  A    between atoms: O_12  and  C_27
    4  A    between atoms: N_13  and  C_33
    5  A    between atoms: C_28  and  C_44
    6  A    between atoms: C_36  and  C_43
                            x       y       z     vdW  Elec       q    Type
                         _______ _______ _______ _____ _____    ______ ____

>  <TORSDO>
F 6

$$$$
=
 OpenBabel10232410403D

 50 54  0  0  1  0  0  0  0  0999 V2000
  188.8980  177.2940  140.0530 C   0  0  2  0  0  3  0  0  0  0  0  0
  190.7350  175.9030  137.7120 C   0  0  1  0  0  3  0  0  0  0  0  0
  189.8790  176.7030  142.7230 C   0  0  1  0  0  3  0  0  0  0  0  0
  191.2200  176.5280  140.7700 C   0  0  0  0  0  2  0  0  0  0  0  0
  185.8550  174.0650  135.9280 N   0  0  0  0  0  1  0  0  0  0  0  0
  189.3330  174.7880  135.2520 C   0  0  0  0  0  0  0  0  0  0  0  0
  187.5630  178.4970  138.4330 O   0  0  0  0  0  0  0  0  0  0  0  0
  188.0120  177.3860  138.8340 C   0  0  0  0  0  0  0  0  0  0  0  0
  190.0360  176.4620  144.2080 C   0  0  0  0  0  1  0  0  0  0  0  0
  187.6180  179.3370  141.0990 C   0  0  0  0  0  1  0  0  0  0  0  0
  188.4710  178.1240  141.2550 C   0  0  0  0  0  0  0  0  0  0  0  0
  187.7820  176.1430  138.0690 C   0  0  0  0  0  3  0  0  0  0  0  0
  188.9270  177.8340  142.4840 C   0  0  0  0  0  3  0  0  0  0  0  0
  187.1470  174.6210  136.3060 C   0  0  1  0  0  3  0  0  0  0  0  0
  190.4160  177.4120  139.8060 C   0  0  1  0  0  3  0  0  0  0  0  0
  191.2320  175.9460  136.2680 C   0  0  2  0  0  3  0  0  0  0  0  0
  191.3840  174.8970  138.4370 O   0  0  0  0  0  1  0  0  0  0  0  0
  191.1770  177.0410  142.1360 N   0  0  0  0  0  2  0  0  0  0  0  0
  188.0340  174.7100  135.1020 C   0  0  0  0  0  3  0  0  0  0  0  0
  187.0160  175.9660  136.9910 C   0  0  0  0  0  0  0  0  0  0  0  0
  190.6300  174.8680  135.4180 C   0  0  0  0  0  3  0  0  0  0  0  0
  190.9240  177.2780  138.3620 C   0  0  0  0  0  2  0  0  0  0  0  0
  185.0450  177.4080  136.9400 C   0  0  0  0  0  0  0  0  0  0  0  0
  186.2050  177.0710  136.4420 C   0  0  0  0  0  3  0  0  0  0  0  0
  181.5050  178.3790  138.9660 C   0  0  1  0  0  3  0  0  0  0  0  0
  183.9650  178.6690  138.6630 C   0  0  0  0  0  3  0  0  0  0  0  0
  183.9230  177.7740  137.4990 C   0  0  0  0  0  0  0  0  0  0  0  0
  181.5420  177.3830  137.8130 C   0  0  0  0  0  3  0  0  0  0  0  0
  182.8540  178.9590  139.3440 C   0  0  0  0  0  3  0  0  0  0  0  0
  182.6590  177.1100  137.1340 C   0  0  0  0  0  3  0  0  0  0  0  0
  180.8200  181.8570  137.2380 O   0  0  0  0  0  0  0  0  0  0  0  0
  181.5800  181.6320  138.3940 C   0  0  0  0  0  2  0  0  0  0  0  0
  180.0360  179.5610  137.2110 C   0  0  0  0  0  2  0  0  0  0  0  0
  180.8760  180.6490  136.5180 C   0  0  0  0  0  2  0  0  0  0  0  0
  180.7570  180.7850  139.3640 C   0  0  0  0  0  2  0  0  0  0  0  0
  180.4250  179.4380  138.7020 C   0  0  0  0  0  3  0  0  0  0  0  0
  192.6900  175.9770  136.1940 N   0  0  0  0  0  2  0  0  0  0  0  0
  192.9850  174.5750  134.3460 O   0  0  0  0  0  0  0  0  0  0  0  0
  193.5080  175.1930  135.3090 C   0  0  0  0  0  0  0  0  0  0  0  0
  195.5160  173.9930  135.9920 C   0  0  0  0  0  3  0  0  0  0  0  0
  195.8250  176.2830  135.2000 C   0  0  0  0  0  0  0  0  0  0  0  0
  194.9650  175.1800  135.4910 C   0  0  0  0  0  0  0  0  0  0  0  0
  197.7260  174.9630  135.9740 C   0  0  0  0  0  3  0  0  0  0  0  0
  197.1960  176.1490  135.4570 C   0  0  0  0  0  3  0  0  0  0  0  0
  196.8870  173.8770  136.2350 C   0  0  0  0  0  0  0  0  0  0  0  0
  196.3810  171.8900  137.6280 C   0  0  0  0  0  1  0  0  0  0  0  0
  197.4250  172.5920  136.7810 C   0  0  2  0  0  3  0  0  0  0  0  0
  198.5710  172.8300  137.5400 O   0  0  0  0  0  1  0  0  0  0  0  0
  195.4200  177.5150  134.6540 O   0  0  0  0  0  0  0  0  0  0  0  0
  196.1300  178.7430  134.7310 C   0  0  0  0  0  1  0  0  0  0  0  0
  1  8  1  6  0  0  0
  1 11  1  0  0  0  0
  2 22  1  0  0  0  0
  2 17  1  1  0  0  0
  3  9  1  1  0  0  0
  4 18  1  0  0  0  0
  6 21  2  0  0  0  0
  7  8  2  0  0  0  0
 10 11  1  0  0  0  0
 11 13  2  0  0  0  0
 12  8  1  0  0  0  0
 13  3  1  0  0  0  0
 14  5  1  6  0  0  0
 14 20  1  0  0  0  0
 15 22  1  6  0  0  0
 15  1  1  0  0  0  0
 15  4  1  0  0  0  0
 16 37  1  1  0  0  0
 16  2  1  0  0  0  0
 18  3  1  0  0  0  0
 19  6  2  0  0  0  0
 19 14  1  0  0  0  0
 20 12  2  0  0  0  0
 21 16  1  0  0  0  0
 23 27  2  0  0  0  0
 24 23  2  0  0  0  0
 24 20  1  0  0  0  0
 25 36  1  6  0  0  0
 25 29  1  0  0  0  0
 26 29  2  0  0  0  0
 27 26  1  0  0  0  0
 28 25  1  0  0  0  0
 30 27  1  0  0  0  0
 30 28  2  0  0  0  0
 31 32  1  0  0  0  0
 32 35  1  0  0  0  0
 33 36  1  0  0  0  0
 34 33  1  0  0  0  0
 34 31  1  0  0  0  0
 36 35  1  0  0  0  0
 38 39  2  0  0  0  0
 39 42  1  0  0  0  0
 39 37  1  0  0  0  0
 40 45  1  0  0  0  0
 41 44  2  0  0  0  0
 41 42  1  0  0  0  0
 42 40  2  0  0  0  0
 43 45  2  0  0  0  0
 44 43  1  0  0  0  0
 45 47  1  0  0  0  0
 47 48  1  0  0  0  0
 47 46  1  1  0  0  0
 49 50  1  0  0  0  0
 49 41  1  0  0  0  0
M  END
>  <MODEL>
2

>  <REMARK>
 VINA RESULT:      -7.3      3.530      7.992
  Name = 
  6 active torsions:
  status: ('A' for Active; 'I' for Inactive)
    1  A    between atoms: C_5  and  C_46
    2  A    between atoms: C_10  and  C_45
    3  A    between atoms: O_12  and  C_27
    4  A    between atoms: N_13  and  C_33
    5  A    between atoms: C_28  and  C_44
    6  A    between atoms: C_36  and  C_43
                            x       y       z     vdW  Elec       q    Type
                         _______ _______ _______ _____ _____    ______ ____

>  <TORSDO>
F 6

$$$$
=
 OpenBabel10232410403D

 50 54  0  0  1  0  0  0  0  0999 V2000
  183.1400  177.7310  137.3850 C   0  0  2  0  0  3  0  0  0  0  0  0
  185.0180  175.1080  136.7740 C   0  0  1  0  0  3  0  0  0  0  0  0
  181.0510  178.0800  135.3960 C   0  0  1  0  0  3  0  0  0  0  0  0
  182.1640  176.0160  135.7720 C   0  0  0  0  0  2  0  0  0  0  0  0
  189.1110  178.7500  137.3730 N   0  0  0  0  0  1  0  0  0  0  0  0
  188.0020  175.3080  137.3400 C   0  0  0  0  0  0  0  0  0  0  0  0
  184.2230  178.1400  139.5090 O   0  0  0  0  0  0  0  0  0  0  0  0
  184.3440  177.9720  138.2630 C   0  0  0  0  0  0  0  0  0  0  0  0
  179.9820  178.6180  134.4700 C   0  0  0  0  0  1  0  0  0  0  0  0
  181.7080  179.2470  138.9860 C   0  0  0  0  0  1  0  0  0  0  0  0
  181.9280  178.6130  137.6550 C   0  0  0  0  0  0  0  0  0  0  0  0
  185.6740  177.8920  137.6240 C   0  0  0  0  0  3  0  0  0  0  0  0
  180.9750  178.7700  136.7230 C   0  0  0  0  0  3  0  0  0  0  0  0
  188.0630  177.7390  137.3160 C   0  0  1  0  0  3  0  0  0  0  0  0
  182.7230  176.2600  137.1820 C   0  0  1  0  0  3  0  0  0  0  0  0
  185.9260  174.0140  137.3350 C   0  0  2  0  0  3  0  0  0  0  0  0
  184.7630  174.9000  135.4140 O   0  0  0  0  0  1  0  0  0  0  0  0
  180.8570  176.6430  135.5940 N   0  0  0  0  0  2  0  0  0  0  0  0
  188.6240  176.4040  137.6990 C   0  0  0  0  0  3  0  0  0  0  0  0
  186.8700  178.1010  138.1770 C   0  0  0  0  0  0  0  0  0  0  0  0
  187.3670  174.2210  136.9760 C   0  0  0  0  0  3  0  0  0  0  0  0
  183.7210  175.1650  137.5890 C   0  0  0  0  0  2  0  0  0  0  0  0
  187.9330  178.0770  140.3760 C   0  0  0  0  0  0  0  0  0  0  0  0
  186.9950  178.5270  139.5850 C   0  0  0  0  0  3  0  0  0  0  0  0
  191.2290  176.6370  142.5300 C   0  0  1  0  0  3  0  0  0  0  0  0
  190.2180  178.3560  141.0290 C   0  0  0  0  0  3  0  0  0  0  0  0
  188.9220  177.6720  141.1270 C   0  0  0  0  0  0  0  0  0  0  0  0
  189.8850  175.9190  142.5120 C   0  0  0  0  0  3  0  0  0  0  0  0
  191.2880  177.8900  141.6770 C   0  0  0  0  0  3  0  0  0  0  0  0
  188.8200  176.4020  141.8680 C   0  0  0  0  0  3  0  0  0  0  0  0
  190.1040  178.0420  146.0400 O   0  0  0  0  0  0  0  0  0  0  0  0
  190.4040  178.7930  144.8950 C   0  0  0  0  0  2  0  0  0  0  0  0
  190.9000  175.9980  145.0040 C   0  0  0  0  0  2  0  0  0  0  0  0
  189.6980  176.7830  145.5600 C   0  0  0  0  0  2  0  0  0  0  0  0
  191.7600  178.3410  144.3530 C   0  0  0  0  0  2  0  0  0  0  0  0
  191.6840  176.8510  143.9810 C   0  0  0  0  0  3  0  0  0  0  0  0
  185.4460  172.6780  136.9950 N   0  0  0  0  0  2  0  0  0  0  0  0
  186.7100  172.3220  135.0610 O   0  0  0  0  0  0  0  0  0  0  0  0
  185.7700  171.9390  135.8060 C   0  0  0  0  0  0  0  0  0  0  0  0
  183.6530  170.7490  135.6080 C   0  0  0  0  0  3  0  0  0  0  0  0
  185.6780  169.4680  135.1330 C   0  0  0  0  0  0  0  0  0  0  0  0
  185.0490  170.6960  135.5060 C   0  0  0  0  0  0  0  0  0  0  0  0
  183.4820  168.4100  135.0360 C   0  0  0  0  0  3  0  0  0  0  0  0
  184.8720  168.3440  134.9100 C   0  0  0  0  0  3  0  0  0  0  0  0
  182.8660  169.6170  135.3760 C   0  0  0  0  0  0  0  0  0  0  0  0
  180.6970  168.5410  134.8470 C   0  0  0  0  0  1  0  0  0  0  0  0
  181.3790  169.7220  135.5090 C   0  0  2  0  0  3  0  0  0  0  0  0
  180.9260  170.9120  134.9400 O   0  0  0  0  0  1  0  0  0  0  0  0
  187.0610  169.2800  134.9490 O   0  0  0  0  0  0  0  0  0  0  0  0
  187.8760  168.3280  135.6190 C   0  0  0  0  0  1  0  0  0  0  0  0
  1 11  1  1  0  0  0
  1  8  1  0  0  0  0
  2 17  1  6  0  0  0
  2 16  1  0  0  0  0
  2 22  1  0  0  0  0
  3  9  1  6  0  0  0
  3 18  1  0  0  0  0
  3 13  1  0  0  0  0
  6 19  2  0  0  0  0
  8  7  2  0  0  0  0
 11 10  1  0  0  0  0
 12 20  2  0  0  0  0
 12  8  1  0  0  0  0
 13 11  2  0  0  0  0
 14  5  1  1  0  0  0
 14 19  1  0  0  0  0
 14 20  1  0  0  0  0
 15  4  1  6  0  0  0
 15  1  1  0  0  0  0
 15 22  1  0  0  0  0
 16 37  1  6  0  0  0
 18  4  1  0  0  0  0
 20 24  1  0  0  0  0
 21 16  1  0  0  0  0
 21  6  2  0  0  0  0
 23 27  2  0  0  0  0
 24 23  2  0  0  0  0
 25 36  1  1  0  0  0
 26 27  1  0  0  0  0
 26 29  2  0  0  0  0
 27 30  1  0  0  0  0
 28 25  1  0  0  0  0
 29 25  1  0  0  0  0
 30 28  2  0  0  0  0
 32 31  1  0  0  0  0
 33 34  1  0  0  0  0
 34 31  1  0  0  0  0
 35 32  1  0  0  0  0
 36 35  1  0  0  0  0
 36 33  1  0  0  0  0
 38 39  2  0  0  0  0
 39 37  1  0  0  0  0
 41 42  2  0  0  0  0
 42 40  1  0  0  0  0
 42 39  1  0  0  0  0
 43 45  1  0  0  0  0
 44 43  2  0  0  0  0
 44 41  1  0  0  0  0
 45 47  1  0  0  0  0
 45 40  2  0  0  0  0
 47 46  1  6  0  0  0
 48 47  1  0  0  0  0
 49 41  1  0  0  0  0
 49 50  1  0  0  0  0
M  END
>  <MODEL>
3

>  <REMARK>
 VINA RESULT:      -6.4      3.178     10.743
  Name = 
  6 active torsions:
  status: ('A' for Active; 'I' for Inactive)
    1  A    between atoms: C_5  and  C_46
    2  A    between atoms: C_10  and  C_45
    3  A    between atoms: O_12  and  C_27
    4  A    between atoms: N_13  and  C_33
    5  A    between atoms: C_28  and  C_44
    6  A    between atoms: C_36  and  C_43
                            x       y       z     vdW  Elec       q    Type
                         _______ _______ _______ _____ _____    ______ ____

>  <TORSDO>
F 6

$$$$
=
 OpenBabel10232410403D

 50 54  0  0  1  0  0  0  0  0999 V2000
  185.0710  177.8500  138.1120 C   0  0  2  0  0  3  0  0  0  0  0  0
  185.3850  175.2500  136.1290 C   0  0  1  0  0  3  0  0  0  0  0  0
  182.4050  179.0000  138.0110 C   0  0  1  0  0  3  0  0  0  0  0  0
  182.8950  176.7770  137.3320 C   0  0  0  0  0  2  0  0  0  0  0  0
  189.8150  178.0010  134.3490 N   0  0  0  0  0  1  0  0  0  0  0  0
  188.0150  174.8790  134.6440 C   0  0  0  0  0  0  0  0  0  0  0  0
  187.2750  177.5250  139.0550 O   0  0  0  0  0  0  0  0  0  0  0  0
  186.5680  177.6790  138.0200 C   0  0  0  0  0  0  0  0  0  0  0  0
  181.1950  179.9060  138.0700 C   0  0  0  0  0  1  0  0  0  0  0  0
  185.3830  179.0660  140.4210 C   0  0  0  0  0  1  0  0  0  0  0  0
  184.5700  178.7860  139.2030 C   0  0  0  0  0  0  0  0  0  0  0  0
  187.1570  177.5900  136.6670 C   0  0  0  0  0  3  0  0  0  0  0  0
  183.3390  179.3150  139.1380 C   0  0  0  0  0  3  0  0  0  0  0  0
  188.7180  177.1970  134.8690 C   0  0  1  0  0  3  0  0  0  0  0  0
  184.2300  176.5580  138.0580 C   0  0  1  0  0  3  0  0  0  0  0  0
  186.1000  173.9320  135.8350 C   0  0  2  0  0  3  0  0  0  0  0  0
  184.3170  175.4490  135.2470 O   0  0  0  0  0  1  0  0  0  0  0  0
  181.9820  177.6020  138.1180 N   0  0  0  0  0  2  0  0  0  0  0  0
  188.9990  175.7430  134.6370 C   0  0  0  0  0  3  0  0  0  0  0  0
  188.4430  177.4770  136.3320 C   0  0  0  0  0  0  0  0  0  0  0  0
  187.0200  174.0270  134.6550 C   0  0  0  0  0  3  0  0  0  0  0  0
  184.9200  175.2670  137.5900 C   0  0  0  0  0  2  0  0  0  0  0  0
  190.5710  176.7420  137.2800 C   0  0  0  0  0  0  0  0  0  0  0  0
  189.5030  177.4910  137.3600 C   0  0  0  0  0  3  0  0  0  0  0  0
  193.9790  174.4120  136.5530 C   0  0  1  0  0  3  0  0  0  0  0  0
  192.7550  176.5740  136.3180 C   0  0  0  0  0  3  0  0  0  0  0  0
  191.6640  176.0410  137.1440 C   0  0  0  0  0  0  0  0  0  0  0  0
  192.7740  173.8820  137.3190 C   0  0  0  0  0  3  0  0  0  0  0  0
  193.8310  175.8330  136.0440 C   0  0  0  0  0  3  0  0  0  0  0  0
  191.7070  174.6390  137.5950 C   0  0  0  0  0  3  0  0  0  0  0  0
  196.7950  171.7680  137.3530 O   0  0  0  0  0  0  0  0  0  0  0  0
  195.4560  171.7150  137.7630 C   0  0  0  0  0  2  0  0  0  0  0  0
  196.5250  174.0230  136.4980 C   0  0  0  0  0  2  0  0  0  0  0  0
  196.7900  172.5410  136.1760 C   0  0  0  0  0  2  0  0  0  0  0  0
  195.0860  173.0510  138.4060 C   0  0  0  0  0  2  0  0  0  0  0  0
  195.2580  174.1750  137.3700 C   0  0  0  0  0  3  0  0  0  0  0  0
  185.1670  172.8150  135.7360 N   0  0  0  0  0  2  0  0  0  0  0  0
  186.6360  171.1900  134.9190 O   0  0  0  0  0  0  0  0  0  0  0  0
  185.4490  171.5240  135.1690 C   0  0  0  0  0  0  0  0  0  0  0  0
  183.0550  171.0720  135.1210 C   0  0  0  0  0  3  0  0  0  0  0  0
  184.5330  169.2000  134.5960 C   0  0  0  0  0  0  0  0  0  0  0  0
  184.3520  170.5720  134.9520 C   0  0  0  0  0  0  0  0  0  0  0  0
  182.1130  168.9010  134.6470 C   0  0  0  0  0  3  0  0  0  0  0  0
  183.3990  168.3890  134.4560 C   0  0  0  0  0  3  0  0  0  0  0  0
  181.9360  170.2480  134.9720 C   0  0  0  0  0  0  0  0  0  0  0  0
  180.4590  172.1840  134.5030 C   0  0  0  0  0  1  0  0  0  0  0  0
  180.5710  170.8270  135.1730 C   0  0  2  0  0  3  0  0  0  0  0  0
  180.2910  170.9460  136.5340 O   0  0  0  0  0  1  0  0  0  0  0  0
  185.7700  168.5740  134.3510 O   0  0  0  0  0  0  0  0  0  0  0  0
  186.5830  167.9140  135.3110 C   0  0  0  0  0  1  0  0  0  0  0  0
  1  8  1  1  0  0  0
  1 11  1  0  0  0  0
  2 17  1  6  0  0  0
  2 22  1  0  0  0  0
  3  9  1  1  0  0  0
  3 18  1  0  0  0  0
  3 13  1  0  0  0  0
  4 18  1  0  0  0  0
  6 21  2  0  0  0  0
  8  7  2  0  0  0  0
 11 10  1  0  0  0  0
 12  8  1  0  0  0  0
 13 11  2  0  0  0  0
 14  5  1  1  0  0  0
 14 20  1  0  0  0  0
 15  4  1  6  0  0  0
 15  1  1  0  0  0  0
 16 37  1  6  0  0  0
 16  2  1  0  0  0  0
 19  6  2  0  0  0  0
 19 14  1  0  0  0  0
 20 12  2  0  0  0  0
 20 24  1  0  0  0  0
 21 16  1  0  0  0  0
 22 15  1  0  0  0  0
 23 24  2  0  0  0  0
 25 28  1  0  0  0  0
 25 36  1  1  0  0  0
 26 27  1  0  0  0  0
 27 23  2  0  0  0  0
 27 30  1  0  0  0  0
 28 30  2  0  0  0  0
 29 26  2  0  0  0  0
 29 25  1  0  0  0  0
 31 32  1  0  0  0  0
 32 35  1  0  0  0  0
 33 36  1  0  0  0  0
 34 33  1  0  0  0  0
 34 31  1  0  0  0  0
 36 35  1  0  0  0  0
 38 39  2  0  0  0  0
 39 37  1  0  0  0  0
 41 42  1  0  0  0  0
 42 40  2  0  0  0  0
 42 39  1  0  0  0  0
 43 45  2  0  0  0  0
 44 41  2  0  0  0  0
 44 43  1  0  0  0  0
 45 40  1  0  0  0  0
 45 47  1  0  0  0  0
 47 46  1  6  0  0  0
 47 48  1  0  0  0  0
 49 41  1  0  0  0  0
 49 50  1  0  0  0  0
M  END
>  <MODEL>
4

>  <REMARK>
 VINA RESULT:      -5.9      3.645     10.635
  Name = 
  6 active torsions:
  status: ('A' for Active; 'I' for Inactive)
    1  A    between atoms: C_5  and  C_46
    2  A    between atoms: C_10  and  C_45
    3  A    between atoms: O_12  and  C_27
    4  A    between atoms: N_13  and  C_33
    5  A    between atoms: C_28  and  C_44
    6  A    between atoms: C_36  and  C_43
                            x       y       z     vdW  Elec       q    Type
                         _______ _______ _______ _____ _____    ______ ____

>  <TORSDO>
F 6

$$$$
