=
 OpenBabel10232411543D

 63 64  0  0  1  0  0  0  0  0999 V2000
  188.9900  177.7230  139.0520 C   0  0  1  0  0  0  0  0  0  0  0  0
  189.3470  179.0260  138.3460 C   0  0  0  0  0  1  0  0  0  0  0  0
  187.5560  177.3290  138.7000 C   0  0  0  0  0  2  0  0  0  0  0  0
  186.9300  178.3030  137.8160 N   0  0  0  0  0  2  0  0  0  0  0  0
  185.5690  177.8390  137.5870 C   0  0  0  0  0  2  0  0  0  0  0  0
  185.4400  177.1890  136.2150 C   0  0  1  0  0  3  0  0  0  0  0  0
  186.9810  176.6200  134.4830 O   0  0  0  0  0  1  0  0  0  0  0  0
  186.5300  177.6770  135.2740 C   0  0  0  0  0  2  0  0  0  0  0  0
  185.4580  175.6690  136.3260 C   0  0  0  0  0  2  0  0  0  0  0  0
  184.0360  175.1250  136.3630 C   0  0  2  0  0  3  0  0  0  0  0  0
  183.1210  176.1720  136.4960 O   0  0  0  0  0  0  0  0  0  0  0  0
  181.8770  175.5460  136.5970 C   0  0  0  0  0  2  0  0  0  0  0  0
  180.9060  176.4400  137.3490 C   0  0  0  0  0  2  0  0  0  0  0  0
  181.6410  177.2520  138.3990 C   0  0  0  0  0  1  0  0  0  0  0  0
  183.8560  174.0880  137.4800 C   0  0  0  0  0  2  0  0  0  0  0  0
  184.8330  172.9450  137.4230 C   0  0  0  0  0  0  0  0  0  0  0  0
  184.5480  171.7820  136.6410 N   0  0  0  0  0  2  0  0  0  0  0  0
  185.9430  173.0290  138.0120 O   0  0  0  0  0  0  0  0  0  0  0  0
  183.3130  171.6280  135.8890 C   0  0  0  0  0  1  0  0  0  0  0  0
  189.9690  176.6300  138.6140 C   0  0  0  0  0  2  0  0  0  0  0  0
  190.9030  177.1310  137.6070 N   0  0  0  0  0  2  0  0  0  0  0  0
  192.4030  172.7850  135.9220 C   0  0  0  0  0  0  0  0  0  0  0  0
  190.1920  173.6250  135.4240 C   0  0  0  0  0  3  0  0  0  0  0  0
  191.9210  176.1750  137.4510 N   0  0  0  0  0  0  0  0  0  0  0  0
  191.1530  172.6150  135.3170 C   0  0  0  0  0  3  0  0  0  0  0  0
  192.6650  173.9730  136.6100 C   0  0  0  0  0  3  0  0  0  0  0  0
  190.4740  174.7650  136.1090 N   0  0  0  0  0  0  0  0  0  0  0  0
  191.6790  174.9660  136.7080 C   0  0  0  0  0  0  0  0  0  0  0  0
  193.1170  170.5570  135.5960 O   0  0  0  0  0  0  0  0  0  0  0  0
  195.4850  173.2620  135.5520 C   0  0  0  0  0  0  0  0  0  0  0  0
  194.8830  174.0860  134.8120 O   0  0  0  0  0  0  0  0  0  0  0  0
  193.4520  171.7510  135.8110 C   0  0  0  0  0  0  0  0  0  0  0  0
  194.8440  172.0550  135.9750 N   0  0  0  0  0  2  0  0  0  0  0  0
  196.9090  173.5070  135.9190 C   0  0  0  0  0  2  0  0  0  0  0  0
  197.0150  174.6090  136.9590 C   0  0  0  0  0  2  0  0  0  0  0  0
  197.3050  174.0190  138.3260 C   0  0  0  0  0  2  0  0  0  0  0  0
  197.1760  175.2390  140.6630 C   0  0  0  0  0  1  0  0  0  0  0  0
  198.3620  175.1450  139.2880 S   0  0  0  0  0  0  0  0  0  0  0  0
  192.9530  176.9520  139.4000 O   0  0  0  0  0  1  0  0  0  0  0  0
  193.1860  176.3990  138.1430 C   0  0  0  0  0  2  0  0  0  0  0  0
  189.0420  177.9410  140.5640 C   0  0  0  0  0  2  0  0  0  0  0  0
  190.4580  178.0940  141.1120 C   0  0  0  0  0  2  0  0  0  0  0  0
  191.3520  177.1580  143.2600 C   0  0  0  0  0  0  0  0  0  0  0  0
  191.8930  178.2650  143.5450 O   0  0  0  0  0  0  0  0  0  0  0  0
  190.7610  176.9590  141.9710 N   0  0  0  0  0  0  0  0  0  0  0  0
  190.2900  175.7360  141.6360 O   0  0  0  0  0  1  0  0  0  0  0  0
  191.2840  176.1370  144.2110 O   0  0  0  0  0  0  0  0  0  0  0  0
  189.3400  177.6920  146.6910 C   0  0  0  0  0  0  0  0  0  0  0  0
  191.3170  176.4070  145.5740 C   0  0  0  0  0  3  0  0  0  0  0  0
  190.3270  177.0380  146.1390 C   0  0  0  0  0  0  0  0  0  0  0  0
  190.5050  178.2560  148.8120 C   0  0  0  0  0  1  0  0  0  0  0  0
  189.3260  177.9730  148.0640 O   0  0  0  0  0  0  0  0  0  0  0  0
  188.2520  178.1100  145.8700 N   0  0  0  0  0  2  0  0  0  0  0  0
  184.7050  177.8610  145.1160 N   0  0  0  0  0  2  0  0  0  0  0  0
  186.1390  179.0050  146.6910 C   0  0  0  0  0  2  0  0  0  0  0  0
  186.0650  177.3490  144.9660 C   0  0  2  0  0  3  0  0  0  0  0  0
  186.8660  177.7890  146.1880 C   0  0  1  0  0  3  0  0  0  0  0  0
  184.7080  178.7800  146.2570 C   0  0  0  0  0  2  0  0  0  0  0  0
  186.6570  177.7630  143.6070 C   0  0  1  0  0  3  0  0  0  0  0  0
  187.5140  176.7690  143.1390 O   0  0  0  0  0  1  0  0  0  0  0  0
  184.7520  179.2560  140.6350 C   0  0  0  0  0  1  0  0  0  0  0  0
  185.8100  178.9750  141.6430 C   0  0  0  0  0  3  0  0  0  0  0  0
  185.6040  178.0550  142.5830 C   0  0  0  0  0  3  0  0  0  0  0  0
  1  2  1  6  0  0  0
  1 41  1  0  0  0  0
  3  1  1  0  0  0  0
  4  3  1  0  0  0  0
  5  4  1  0  0  0  0
  6  8  1  6  0  0  0
  6  9  1  0  0  0  0
  6  5  1  0  0  0  0
  7  8  1  0  0  0  0
 10  9  1  1  0  0  0
 10 11  1  0  0  0  0
 10 15  1  0  0  0  0
 11 12  1  0  0  0  0
 12 13  1  0  0  0  0
 13 14  1  0  0  0  0
 16 15  1  0  0  0  0
 16 18  2  0  0  0  0
 17 16  1  0  0  0  0
 19 17  1  0  0  0  0
 20  1  1  0  0  0  0
 21 20  1  0  0  0  0
 22 26  1  0  0  0  0
 23 27  2  0  0  0  0
 24 21  1  0  0  0  0
 24 40  1  0  0  0  0
 25 23  1  0  0  0  0
 25 22  2  0  0  0  0
 26 28  2  0  0  0  0
 27 28  1  0  0  0  0
 28 24  1  0  0  0  0
 29 32  2  0  0  0  0
 30 34  1  0  0  0  0
 30 33  1  0  0  0  0
 31 30  2  0  0  0  0
 32 22  1  0  0  0  0
 32 33  1  0  0  0  0
 34 35  1  0  0  0  0
 35 36  1  0  0  0  0
 36 38  1  0  0  0  0
 38 37  1  0  0  0  0
 40 39  1  0  0  0  0
 41 42  1  0  0  0  0
 42 45  1  0  0  0  0
 43 44  2  0  0  0  0
 43 47  1  0  0  0  0
 45 43  1  0  0  0  0
 46 45  1  0  0  0  0
 47 49  1  0  0  0  0
 48 52  1  0  0  0  0
 49 50  2  0  0  0  0
 50 48  2  0  0  0  0
 52 51  1  0  0  0  0
 53 48  1  0  0  0  0
 54 58  1  0  0  0  0
 56 59  1  6  0  0  0
 56 54  1  0  0  0  0
 56 57  1  0  0  0  0
 57 53  1  6  0  0  0
 57 55  1  0  0  0  0
 58 55  1  0  0  0  0
 59 60  1  6  0  0  0
 61 62  1  0  0  0  0
 62 63  2  0  0  0  0
 63 59  1  0  0  0  0
M  END
>  <MODEL>
1

>  <REMARK>
 VINA RESULT:      -5.4      0.000      0.000
  Name = 
  31 active torsions:
  status: ('A' for Active; 'I' for Inactive)
    1  A    between atoms: C_1  and  N_12
    2  A    between atoms: C_1  and  C_22
    3  A    between atoms: C_2  and  C_22
    4  A    between atoms: C_2  and  C_35
    5  A    between atoms: C_2  and  C_44
    6  A    between atoms: C_3  and  N_37
    7  A    between atoms: C_3  and  O_40
    8  A    between atoms: C_5  and  O_42
    9  A    between atoms: O_7  and  C_18
   10  A    between atoms: O_7  and  C_20
   11  A    between atoms: C_9  and  C_36
   12  A    between atoms: N_10  and  C_33
   13  A    between atoms: N_10  and  C_44
   14  A    between atoms: C_13  and  C_29
   15  A    between atoms: C_13  and  C_54
   16  A    between atoms: C_15  and  C_39
   17  A    between atoms: N_17  and  C_35
   18  A    between atoms: N_17  and  N_48
   19  A    between atoms: C_18  and  C_36
   20  A    between atoms: C_18  and  C_57
   21  A    between atoms: C_19  and  N_48
   22  A    between atoms: C_20  and  C_47
   23  A    between atoms: C_24  and  C_46
   24  A    between atoms: C_29  and  C_31
   25  A    between atoms: C_30  and  O_42
   26  A    between atoms: C_33  and  C_53
   27  A    between atoms: N_37  and  C_51
   28  A    between atoms: C_38  and  C_39
   29  A    between atoms: C_45  and  C_53
   30  A    between atoms: C_53  and  C_57
   31  A    between atoms: C_54  and  S_55
                            x       y       z     vdW  Elec       q    Type
                         _______ _______ _______ _____ _____    ______ ____

>  <TORSDO>
F 31

$$$$
=
 OpenBabel10232411543D

 63 64  0  0  1  0  0  0  0  0999 V2000
  188.1800  177.7370  138.2360 C   0  0  1  0  0  0  0  0  0  0  0  0
  188.1590  178.6180  136.9920 C   0  0  0  0  0  1  0  0  0  0  0  0
  186.8660  177.9020  138.9990 C   0  0  0  0  0  2  0  0  0  0  0  0
  185.8700  178.6170  138.2120 N   0  0  0  0  0  2  0  0  0  0  0  0
  184.5710  178.1040  138.6260 C   0  0  0  0  0  2  0  0  0  0  0  0
  184.3550  176.6880  138.1090 C   0  0  1  0  0  3  0  0  0  0  0  0
  182.7600  176.7220  139.8860 O   0  0  0  0  0  1  0  0  0  0  0  0
  183.0860  176.0820  138.6890 C   0  0  0  0  0  2  0  0  0  0  0  0
  184.3210  176.6620  136.5850 C   0  0  0  0  0  2  0  0  0  0  0  0
  183.3190  175.6240  136.0970 C   0  0  2  0  0  3  0  0  0  0  0  0
  183.9700  174.6360  135.3530 O   0  0  0  0  0  0  0  0  0  0  0  0
  183.1970  173.4880  135.5350 C   0  0  0  0  0  2  0  0  0  0  0  0
  183.2450  173.0550  136.9900 C   0  0  0  0  0  2  0  0  0  0  0  0
  184.6730  172.7560  137.4060 C   0  0  0  0  0  1  0  0  0  0  0  0
  182.1860  176.2690  135.2870 C   0  0  0  0  0  2  0  0  0  0  0  0
  180.9150  176.4790  136.0650 C   0  0  0  0  0  0  0  0  0  0  0  0
  180.5070  177.7930  136.4530 N   0  0  0  0  0  2  0  0  0  0  0  0
  180.1630  175.5030  136.3250 O   0  0  0  0  0  0  0  0  0  0  0  0
  181.2920  178.9790  136.1460 C   0  0  0  0  0  1  0  0  0  0  0  0
  188.3750  176.2780  137.8140 C   0  0  0  0  0  2  0  0  0  0  0  0
  189.0530  176.1890  136.5220 N   0  0  0  0  0  2  0  0  0  0  0  0
  193.3570  174.3150  135.1250 C   0  0  0  0  0  0  0  0  0  0  0  0
  192.6240  176.4830  134.3460 C   0  0  0  0  0  3  0  0  0  0  0  0
  190.0250  175.1770  136.6150 N   0  0  0  0  0  0  0  0  0  0  0  0
  193.5760  175.4590  134.3490 C   0  0  0  0  0  3  0  0  0  0  0  0
  192.1910  174.2310  135.8920 C   0  0  0  0  0  3  0  0  0  0  0  0
  191.4950  176.3670  135.0960 N   0  0  0  0  0  0  0  0  0  0  0  0
  191.2500  175.2710  135.8630 C   0  0  0  0  0  0  0  0  0  0  0  0
  194.2620  172.2770  134.3470 O   0  0  0  0  0  0  0  0  0  0  0  0
  196.0910  174.3210  136.6710 C   0  0  0  0  0  0  0  0  0  0  0  0
  195.9540  175.4560  136.1400 O   0  0  0  0  0  0  0  0  0  0  0  0
  194.3500  173.2230  135.1730 C   0  0  0  0  0  0  0  0  0  0  0  0
  195.3950  173.1830  136.1530 N   0  0  0  0  0  2  0  0  0  0  0  0
  197.0540  174.1470  137.7960 C   0  0  0  0  0  2  0  0  0  0  0  0
  198.4820  174.0980  137.2800 C   0  0  0  0  0  2  0  0  0  0  0  0
  199.1000  172.7420  137.5610 C   0  0  0  0  0  2  0  0  0  0  0  0
  200.1010  173.6550  135.2960 C   0  0  0  0  0  1  0  0  0  0  0  0
  199.7680  172.0240  136.0280 S   0  0  0  0  0  0  0  0  0  0  0  0
  189.0220  173.0640  136.6350 O   0  0  0  0  0  1  0  0  0  0  0  0
  189.7120  173.9940  137.4100 C   0  0  0  0  0  2  0  0  0  0  0  0
  189.3040  178.2030  139.1620 C   0  0  0  0  0  2  0  0  0  0  0  0
  189.2500  177.5750  140.5520 C   0  0  0  0  0  2  0  0  0  0  0  0
  190.5030  178.4440  142.5430 C   0  0  0  0  0  0  0  0  0  0  0  0
  189.4640  179.0210  142.9750 O   0  0  0  0  0  0  0  0  0  0  0  0
  190.5020  177.8430  141.2440 N   0  0  0  0  0  0  0  0  0  0  0  0
  191.6510  177.3320  140.7470 O   0  0  0  0  0  1  0  0  0  0  0  0
  191.6420  178.3450  143.3440 O   0  0  0  0  0  0  0  0  0  0  0  0
  190.2300  177.0540  146.2920 C   0  0  0  0  0  0  0  0  0  0  0  0
  191.8180  177.2930  144.2360 C   0  0  0  0  0  3  0  0  0  0  0  0
  191.0210  177.1630  145.2570 C   0  0  0  0  0  0  0  0  0  0  0  0
  191.6210  175.4340  147.5630 C   0  0  0  0  0  1  0  0  0  0  0  0
  190.3630  176.0020  147.2080 O   0  0  0  0  0  0  0  0  0  0  0  0
  189.2030  178.0270  146.4730 N   0  0  0  0  0  2  0  0  0  0  0  0
  185.5810  177.7190  146.4910 N   0  0  0  0  0  2  0  0  0  0  0  0
  187.2960  178.9260  147.6950 C   0  0  0  0  0  2  0  0  0  0  0  0
  186.8880  177.2160  146.0730 C   0  0  2  0  0  3  0  0  0  0  0  0
  187.9210  177.7030  147.0860 C   0  0  1  0  0  3  0  0  0  0  0  0
  185.8100  178.6740  147.5780 C   0  0  0  0  0  2  0  0  0  0  0  0
  187.1740  177.5930  144.6080 C   0  0  1  0  0  3  0  0  0  0  0  0
  187.5670  176.4620  143.8940 O   0  0  0  0  0  1  0  0  0  0  0  0
  184.7840  178.9990  141.9620 C   0  0  0  0  0  1  0  0  0  0  0  0
  185.9550  178.3500  142.6120 C   0  0  0  0  0  3  0  0  0  0  0  0
  186.0000  178.2390  143.9380 C   0  0  0  0  0  3  0  0  0  0  0  0
  1  2  1  6  0  0  0
  1  3  1  0  0  0  0
  1 41  1  0  0  0  0
  4  5  1  0  0  0  0
  4  3  1  0  0  0  0
  6  9  1  6  0  0  0
  6  5  1  0  0  0  0
  6  8  1  0  0  0  0
  8  7  1  0  0  0  0
 10 15  1  6  0  0  0
 10  9  1  0  0  0  0
 11 12  1  0  0  0  0
 11 10  1  0  0  0  0
 12 13  1  0  0  0  0
 13 14  1  0  0  0  0
 15 16  1  0  0  0  0
 16 18  2  0  0  0  0
 16 17  1  0  0  0  0
 19 17  1  0  0  0  0
 20  1  1  0  0  0  0
 21 24  1  0  0  0  0
 21 20  1  0  0  0  0
 22 32  1  0  0  0  0
 22 26  1  0  0  0  0
 23 25  1  0  0  0  0
 23 27  2  0  0  0  0
 24 40  1  0  0  0  0
 25 22  2  0  0  0  0
 27 28  1  0  0  0  0
 28 26  2  0  0  0  0
 28 24  1  0  0  0  0
 29 32  2  0  0  0  0
 30 34  1  0  0  0  0
 31 30  2  0  0  0  0
 32 33  1  0  0  0  0
 33 30  1  0  0  0  0
 35 36  1  0  0  0  0
 35 34  1  0  0  0  0
 37 38  1  0  0  0  0
 38 36  1  0  0  0  0
 39 40  1  0  0  0  0
 41 42  1  0  0  0  0
 42 45  1  0  0  0  0
 43 44  2  0  0  0  0
 43 47  1  0  0  0  0
 45 43  1  0  0  0  0
 46 45  1  0  0  0  0
 47 49  1  0  0  0  0
 48 53  1  0  0  0  0
 48 52  1  0  0  0  0
 49 50  2  0  0  0  0
 50 48  2  0  0  0  0
 52 51  1  0  0  0  0
 54 58  1  0  0  0  0
 56 59  1  6  0  0  0
 56 54  1  0  0  0  0
 56 57  1  0  0  0  0
 57 53  1  6  0  0  0
 57 55  1  0  0  0  0
 58 55  1  0  0  0  0
 59 60  1  6  0  0  0
 61 62  1  0  0  0  0
 62 63  2  0  0  0  0
 63 59  1  0  0  0  0
M  END
>  <MODEL>
2

>  <REMARK>
 VINA RESULT:      -5.3      1.985      3.128
  Name = 
  31 active torsions:
  status: ('A' for Active; 'I' for Inactive)
    1  A    between atoms: C_1  and  N_12
    2  A    between atoms: C_1  and  C_22
    3  A    between atoms: C_2  and  C_22
    4  A    between atoms: C_2  and  C_35
    5  A    between atoms: C_2  and  C_44
    6  A    between atoms: C_3  and  N_37
    7  A    between atoms: C_3  and  O_40
    8  A    between atoms: C_5  and  O_42
    9  A    between atoms: O_7  and  C_18
   10  A    between atoms: O_7  and  C_20
   11  A    between atoms: C_9  and  C_36
   12  A    between atoms: N_10  and  C_33
   13  A    between atoms: N_10  and  C_44
   14  A    between atoms: C_13  and  C_29
   15  A    between atoms: C_13  and  C_54
   16  A    between atoms: C_15  and  C_39
   17  A    between atoms: N_17  and  C_35
   18  A    between atoms: N_17  and  N_48
   19  A    between atoms: C_18  and  C_36
   20  A    between atoms: C_18  and  C_57
   21  A    between atoms: C_19  and  N_48
   22  A    between atoms: C_20  and  C_47
   23  A    between atoms: C_24  and  C_46
   24  A    between atoms: C_29  and  C_31
   25  A    between atoms: C_30  and  O_42
   26  A    between atoms: C_33  and  C_53
   27  A    between atoms: N_37  and  C_51
   28  A    between atoms: C_38  and  C_39
   29  A    between atoms: C_45  and  C_53
   30  A    between atoms: C_53  and  C_57
   31  A    between atoms: C_54  and  S_55
                            x       y       z     vdW  Elec       q    Type
                         _______ _______ _______ _____ _____    ______ ____

>  <TORSDO>
F 31

$$$$
=
 OpenBabel10232411543D

 63 64  0  0  1  0  0  0  0  0999 V2000
  189.8460  177.3390  138.6190 C   0  0  1  0  0  0  0  0  0  0  0  0
  189.1570  178.6550  138.2770 C   0  0  0  0  0  1  0  0  0  0  0  0
  191.0030  177.1030  137.6470 C   0  0  0  0  0  2  0  0  0  0  0  0
  191.9530  176.1270  138.1650 N   0  0  0  0  0  2  0  0  0  0  0  0
  192.9700  175.9560  137.1370 C   0  0  0  0  0  2  0  0  0  0  0  0
  192.9650  174.5310  136.5980 C   0  0  1  0  0  3  0  0  0  0  0  0
  190.9180  174.3680  135.3790 O   0  0  0  0  0  1  0  0  0  0  0  0
  192.3020  174.4660  135.2300 C   0  0  0  0  0  2  0  0  0  0  0  0
  194.3780  173.9620  136.5440 C   0  0  0  0  0  2  0  0  0  0  0  0
  194.9080  173.7300  137.9530 C   0  0  2  0  0  3  0  0  0  0  0  0
  195.7120  174.8010  138.3500 O   0  0  0  0  0  0  0  0  0  0  0  0
  196.7710  174.2130  139.0450 C   0  0  0  0  0  2  0  0  0  0  0  0
  198.0520  174.9880  138.7910 C   0  0  0  0  0  2  0  0  0  0  0  0
  199.0400  174.1360  138.0160 C   0  0  0  0  0  1  0  0  0  0  0  0
  195.6670  172.4000  138.0590 C   0  0  0  0  0  2  0  0  0  0  0  0
  196.0190  171.7840  136.7320 C   0  0  0  0  0  0  0  0  0  0  0  0
  195.3740  170.5880  136.2900 N   0  0  0  0  0  2  0  0  0  0  0  0
  196.8410  172.3550  135.9670 O   0  0  0  0  0  0  0  0  0  0  0  0
  194.3770  169.8950  137.0900 C   0  0  0  0  0  1  0  0  0  0  0  0
  190.3600  177.4010  140.0590 C   0  0  0  0  0  2  0  0  0  0  0  0
  189.6740  176.4280  140.9070 N   0  0  0  0  0  2  0  0  0  0  0  0
  190.8530  176.5290  145.6590 C   0  0  0  0  0  0  0  0  0  0  0  0
  191.9800  175.0430  144.1220 C   0  0  0  0  0  3  0  0  0  0  0  0
  189.5250  176.9980  142.1840 N   0  0  0  0  0  0  0  0  0  0  0  0
  191.8010  175.5280  145.4210 C   0  0  0  0  0  3  0  0  0  0  0  0
  190.1150  177.0310  144.5840 C   0  0  0  0  0  3  0  0  0  0  0  0
  191.2390  175.5450  143.0980 N   0  0  0  0  0  0  0  0  0  0  0  0
  190.3100  176.5200  143.2920 C   0  0  0  0  0  0  0  0  0  0  0  0
  191.6500  177.2500  147.7630 O   0  0  0  0  0  0  0  0  0  0  0  0
  188.2710  177.9460  146.7500 C   0  0  0  0  0  0  0  0  0  0  0  0
  188.4610  178.3580  145.5740 O   0  0  0  0  0  0  0  0  0  0  0  0
  190.6520  177.0840  147.0130 C   0  0  0  0  0  0  0  0  0  0  0  0
  189.3510  177.4090  147.5200 N   0  0  0  0  0  2  0  0  0  0  0  0
  186.9260  178.0980  147.3740 C   0  0  0  0  0  2  0  0  0  0  0  0
  185.8320  177.6780  146.4070 C   0  0  0  0  0  2  0  0  0  0  0  0
  184.8320  178.8030  146.2190 C   0  0  0  0  0  2  0  0  0  0  0  0
  183.0010  178.9690  144.3260 C   0  0  0  0  0  1  0  0  0  0  0  0
  184.7800  179.3150  144.4740 S   0  0  0  0  0  0  0  0  0  0  0  0
  187.5360  177.9080  141.3570 O   0  0  0  0  0  1  0  0  0  0  0  0
  188.4890  178.0090  142.3680 C   0  0  0  0  0  2  0  0  0  0  0  0
  188.8560  176.1900  138.4310 C   0  0  0  0  0  2  0  0  0  0  0  0
  188.2280  176.1460  137.0400 C   0  0  0  0  0  2  0  0  0  0  0  0
  186.9720  173.9810  137.1990 C   0  0  0  0  0  0  0  0  0  0  0  0
  188.0160  173.3260  136.9200 O   0  0  0  0  0  0  0  0  0  0  0  0
  186.9750  175.4100  137.1070 N   0  0  0  0  0  0  0  0  0  0  0  0
  185.8210  176.0910  137.2950 O   0  0  0  0  0  1  0  0  0  0  0  0
  185.8220  173.3240  137.6440 O   0  0  0  0  0  0  0  0  0  0  0  0
  182.7920  173.4330  135.8680 C   0  0  0  0  0  0  0  0  0  0  0  0
  185.0590  172.5330  136.7930 C   0  0  0  0  0  3  0  0  0  0  0  0
  183.9320  172.9820  136.3190 C   0  0  0  0  0  0  0  0  0  0  0  0
  182.1230  171.2610  134.8620 C   0  0  0  0  0  1  0  0  0  0  0  0
  181.9980  172.6740  134.9970 O   0  0  0  0  0  0  0  0  0  0  0  0
  182.3650  174.7340  136.2660 N   0  0  0  0  0  2  0  0  0  0  0  0
  180.0610  176.4680  138.4790 N   0  0  0  0  0  2  0  0  0  0  0  0
  180.9140  174.2280  138.1570 C   0  0  0  0  0  2  0  0  0  0  0  0
  180.8460  176.4390  137.2460 C   0  0  2  0  0  3  0  0  0  0  0  0
  181.0570  174.9770  136.8630 C   0  0  1  0  0  3  0  0  0  0  0  0
  179.9830  175.0930  138.9780 C   0  0  0  0  0  2  0  0  0  0  0  0
  182.1310  177.2720  137.4000 C   0  0  1  0  0  3  0  0  0  0  0  0
  182.1460  178.3010  136.4600 O   0  0  0  0  0  1  0  0  0  0  0  0
  183.4210  177.9800  140.9390 C   0  0  0  0  0  1  0  0  0  0  0  0
  183.2760  177.4130  139.5710 C   0  0  0  0  0  3  0  0  0  0  0  0
  182.2940  177.8360  138.7780 C   0  0  0  0  0  3  0  0  0  0  0  0
  1  2  1  6  0  0  0
  1 20  1  0  0  0  0
  3  4  1  0  0  0  0
  3  1  1  0  0  0  0
  5  4  1  0  0  0  0
  6  8  1  6  0  0  0
  6  5  1  0  0  0  0
  8  7  1  0  0  0  0
  9  6  1  0  0  0  0
 10  9  1  6  0  0  0
 10 15  1  0  0  0  0
 10 11  1  0  0  0  0
 11 12  1  0  0  0  0
 13 12  1  0  0  0  0
 14 13  1  0  0  0  0
 16 15  1  0  0  0  0
 17 16  1  0  0  0  0
 17 19  1  0  0  0  0
 18 16  2  0  0  0  0
 20 21  1  0  0  0  0
 21 24  1  0  0  0  0
 22 32  1  0  0  0  0
 23 25  2  0  0  0  0
 24 40  1  0  0  0  0
 24 28  1  0  0  0  0
 25 22  1  0  0  0  0
 26 22  2  0  0  0  0
 27 28  2  0  0  0  0
 27 23  1  0  0  0  0
 28 26  1  0  0  0  0
 30 34  1  0  0  0  0
 30 33  1  0  0  0  0
 31 30  2  0  0  0  0
 32 33  1  0  0  0  0
 32 29  2  0  0  0  0
 35 34  1  0  0  0  0
 36 35  1  0  0  0  0
 37 38  1  0  0  0  0
 38 36  1  0  0  0  0
 39 40  1  0  0  0  0
 41  1  1  0  0  0  0
 42 45  1  0  0  0  0
 42 41  1  0  0  0  0
 43 47  1  0  0  0  0
 44 43  2  0  0  0  0
 45 43  1  0  0  0  0
 45 46  1  0  0  0  0
 48 53  1  0  0  0  0
 48 50  2  0  0  0  0
 49 47  1  0  0  0  0
 50 49  2  0  0  0  0
 51 52  1  0  0  0  0
 52 48  1  0  0  0  0
 54 58  1  0  0  0  0
 55 58  1  0  0  0  0
 56 59  1  1  0  0  0
 56 54  1  0  0  0  0
 57 53  1  1  0  0  0
 57 56  1  0  0  0  0
 57 55  1  0  0  0  0
 59 60  1  6  0  0  0
 59 63  1  0  0  0  0
 62 61  1  0  0  0  0
 63 62  2  0  0  0  0
M  END
>  <MODEL>
3

>  <REMARK>
 VINA RESULT:      -5.1      2.915     10.512
  Name = 
  31 active torsions:
  status: ('A' for Active; 'I' for Inactive)
    1  A    between atoms: C_1  and  N_12
    2  A    between atoms: C_1  and  C_22
    3  A    between atoms: C_2  and  C_22
    4  A    between atoms: C_2  and  C_35
    5  A    between atoms: C_2  and  C_44
    6  A    between atoms: C_3  and  N_37
    7  A    between atoms: C_3  and  O_40
    8  A    between atoms: C_5  and  O_42
    9  A    between atoms: O_7  and  C_18
   10  A    between atoms: O_7  and  C_20
   11  A    between atoms: C_9  and  C_36
   12  A    between atoms: N_10  and  C_33
   13  A    between atoms: N_10  and  C_44
   14  A    between atoms: C_13  and  C_29
   15  A    between atoms: C_13  and  C_54
   16  A    between atoms: C_15  and  C_39
   17  A    between atoms: N_17  and  C_35
   18  A    between atoms: N_17  and  N_48
   19  A    between atoms: C_18  and  C_36
   20  A    between atoms: C_18  and  C_57
   21  A    between atoms: C_19  and  N_48
   22  A    between atoms: C_20  and  C_47
   23  A    between atoms: C_24  and  C_46
   24  A    between atoms: C_29  and  C_31
   25  A    between atoms: C_30  and  O_42
   26  A    between atoms: C_33  and  C_53
   27  A    between atoms: N_37  and  C_51
   28  A    between atoms: C_38  and  C_39
   29  A    between atoms: C_45  and  C_53
   30  A    between atoms: C_53  and  C_57
   31  A    between atoms: C_54  and  S_55
                            x       y       z     vdW  Elec       q    Type
                         _______ _______ _______ _____ _____    ______ ____

>  <TORSDO>
F 31

$$$$
=
 OpenBabel10232411543D

 63 64  0  0  1  0  0  0  0  0999 V2000
  189.3150  177.1610  136.9170 C   0  0  1  0  0  0  0  0  0  0  0  0
  189.1850  178.6800  136.9100 C   0  0  0  0  0  1  0  0  0  0  0  0
  188.2350  176.5540  136.0210 C   0  0  0  0  0  2  0  0  0  0  0  0
  187.0490  176.1820  136.7820 N   0  0  0  0  0  2  0  0  0  0  0  0
  186.0690  177.2370  136.5600 C   0  0  0  0  0  2  0  0  0  0  0  0
  184.6650  176.6590  136.4440 C   0  0  1  0  0  3  0  0  0  0  0  0
  183.6350  174.5240  136.1600 O   0  0  0  0  0  1  0  0  0  0  0  0
  184.6790  175.3300  135.7050 C   0  0  0  0  0  2  0  0  0  0  0  0
  184.0200  176.5090  137.8180 C   0  0  0  0  0  2  0  0  0  0  0  0
  182.9950  177.6130  138.0430 C   0  0  2  0  0  3  0  0  0  0  0  0
  182.4520  178.0250  136.8230 O   0  0  0  0  0  0  0  0  0  0  0  0
  181.0700  177.9790  137.0160 C   0  0  0  0  0  2  0  0  0  0  0  0
  180.4050  179.1270  136.2760 C   0  0  0  0  0  2  0  0  0  0  0  0
  180.8890  180.4580  136.8210 C   0  0  0  0  0  1  0  0  0  0  0  0
  183.6000  178.7990  138.8080 C   0  0  0  0  0  2  0  0  0  0  0  0
  183.0090  179.0160  140.1750 C   0  0  0  0  0  0  0  0  0  0  0  0
  183.8270  178.9250  141.3440 N   0  0  0  0  0  2  0  0  0  0  0  0
  181.8000  179.3450  140.2970 O   0  0  0  0  0  0  0  0  0  0  0  0
  185.2430  178.6020  141.2860 C   0  0  0  0  0  1  0  0  0  0  0  0
  190.7080  176.7740  136.4140 C   0  0  0  0  0  2  0  0  0  0  0  0
  190.6270  176.0080  135.1710 N   0  0  0  0  0  2  0  0  0  0  0  0
  191.6650  171.2290  134.9160 C   0  0  0  0  0  0  0  0  0  0  0  0
  189.4590  172.0610  134.3850 C   0  0  0  0  0  3  0  0  0  0  0  0
  191.5650  174.9630  135.2480 N   0  0  0  0  0  0  0  0  0  0  0  0
  190.3420  170.9870  134.5310 C   0  0  0  0  0  3  0  0  0  0  0  0
  192.0760  172.5480  135.1330 C   0  0  0  0  0  3  0  0  0  0  0  0
  189.8860  173.3320  134.6120 N   0  0  0  0  0  0  0  0  0  0  0  0
  191.1660  173.6050  134.9850 C   0  0  0  0  0  0  0  0  0  0  0  0
  192.5000  169.0940  134.3460 O   0  0  0  0  0  0  0  0  0  0  0  0
  194.4430  171.3360  136.3760 C   0  0  0  0  0  0  0  0  0  0  0  0
  194.3160  172.4080  135.7270 O   0  0  0  0  0  0  0  0  0  0  0  0
  192.6340  170.1230  135.0580 C   0  0  0  0  0  0  0  0  0  0  0  0
  193.7070  170.1660  136.0080 N   0  0  0  0  0  2  0  0  0  0  0  0
  195.4360  171.2620  137.4870 C   0  0  0  0  0  2  0  0  0  0  0  0
  196.8350  171.0250  136.9440 C   0  0  0  0  0  2  0  0  0  0  0  0
  197.7590  172.1560  137.3530 C   0  0  0  0  0  2  0  0  0  0  0  0
  197.2320  174.5930  136.4880 C   0  0  0  0  0  1  0  0  0  0  0  0
  196.7900  173.5820  137.9340 S   0  0  0  0  0  0  0  0  0  0  0  0
  193.7200  175.6020  134.6020 O   0  0  0  0  0  1  0  0  0  0  0  0
  192.9160  175.2840  135.6950 C   0  0  0  0  0  2  0  0  0  0  0  0
  189.0720  176.6430  138.3340 C   0  0  0  0  0  2  0  0  0  0  0  0
  190.3170  176.0510  138.9900 C   0  0  0  0  0  2  0  0  0  0  0  0
  190.1990  177.3060  141.1590 C   0  0  0  0  0  0  0  0  0  0  0  0
  188.9930  176.9630  141.3200 O   0  0  0  0  0  0  0  0  0  0  0  0
  190.8680  177.0210  139.9250 N   0  0  0  0  0  0  0  0  0  0  0  0
  192.1180  177.4950  139.7220 O   0  0  0  0  0  1  0  0  0  0  0  0
  190.9050  177.9220  142.1950 O   0  0  0  0  0  0  0  0  0  0  0  0
  191.2940  177.1750  145.6070 C   0  0  0  0  0  0  0  0  0  0  0  0
  191.7420  177.1990  143.0370 C   0  0  0  0  0  3  0  0  0  0  0  0
  191.5160  177.1750  144.3190 C   0  0  0  0  0  0  0  0  0  0  0  0
  192.3940  175.0650  146.3210 C   0  0  0  0  0  1  0  0  0  0  0  0
  192.1050  176.4490  146.4900 O   0  0  0  0  0  0  0  0  0  0  0  0
  190.1890  177.9230  146.1100 N   0  0  0  0  0  2  0  0  0  0  0  0
  187.0170  177.4340  147.8160 N   0  0  0  0  0  2  0  0  0  0  0  0
  189.1410  178.5140  148.2290 C   0  0  0  0  0  2  0  0  0  0  0  0
  187.9420  177.0720  146.7440 C   0  0  2  0  0  3  0  0  0  0  0  0
  189.3510  177.4400  147.2000 C   0  0  1  0  0  3  0  0  0  0  0  0
  187.7750  178.2090  148.8020 C   0  0  0  0  0  2  0  0  0  0  0  0
  187.4990  177.6960  145.4090 C   0  0  1  0  0  3  0  0  0  0  0  0
  188.0530  176.9870  144.3450 O   0  0  0  0  0  1  0  0  0  0  0  0
  183.8860  178.9570  145.1860 C   0  0  0  0  0  1  0  0  0  0  0  0
  185.3660  178.9180  145.3270 C   0  0  0  0  0  3  0  0  0  0  0  0
  186.0080  177.7530  145.2640 C   0  0  0  0  0  3  0  0  0  0  0  0
  1  2  1  6  0  0  0
  1 41  1  0  0  0  0
  3  4  1  0  0  0  0
  3  1  1  0  0  0  0
  5  4  1  0  0  0  0
  6  8  1  1  0  0  0
  6  5  1  0  0  0  0
  6  9  1  0  0  0  0
  8  7  1  0  0  0  0
 10  9  1  6  0  0  0
 10 15  1  0  0  0  0
 11 12  1  0  0  0  0
 11 10  1  0  0  0  0
 13 14  1  0  0  0  0
 13 12  1  0  0  0  0
 15 16  1  0  0  0  0
 16 18  2  0  0  0  0
 16 17  1  0  0  0  0
 19 17  1  0  0  0  0
 20  1  1  0  0  0  0
 21 24  1  0  0  0  0
 21 20  1  0  0  0  0
 22 32  1  0  0  0  0
 22 26  1  0  0  0  0
 23 25  1  0  0  0  0
 23 27  2  0  0  0  0
 24 40  1  0  0  0  0
 25 22  2  0  0  0  0
 27 28  1  0  0  0  0
 28 26  2  0  0  0  0
 28 24  1  0  0  0  0
 29 32  2  0  0  0  0
 30 34  1  0  0  0  0
 31 30  2  0  0  0  0
 32 33  1  0  0  0  0
 33 30  1  0  0  0  0
 35 36  1  0  0  0  0
 35 34  1  0  0  0  0
 36 38  1  0  0  0  0
 37 38  1  0  0  0  0
 39 40  1  0  0  0  0
 41 42  1  0  0  0  0
 42 45  1  0  0  0  0
 43 44  2  0  0  0  0
 43 47  1  0  0  0  0
 45 43  1  0  0  0  0
 46 45  1  0  0  0  0
 47 49  1  0  0  0  0
 48 53  1  0  0  0  0
 48 52  1  0  0  0  0
 49 50  2  0  0  0  0
 50 48  2  0  0  0  0
 51 52  1  0  0  0  0
 54 58  1  0  0  0  0
 55 58  1  0  0  0  0
 56 59  1  6  0  0  0
 56 57  1  0  0  0  0
 56 54  1  0  0  0  0
 57 53  1  6  0  0  0
 57 55  1  0  0  0  0
 59 60  1  6  0  0  0
 61 62  1  0  0  0  0
 63 62  2  0  0  0  0
 63 59  1  0  0  0  0
M  END
>  <MODEL>
4

>  <REMARK>
 VINA RESULT:      -5.0      2.052      3.462
  Name = 
  31 active torsions:
  status: ('A' for Active; 'I' for Inactive)
    1  A    between atoms: C_1  and  N_12
    2  A    between atoms: C_1  and  C_22
    3  A    between atoms: C_2  and  C_22
    4  A    between atoms: C_2  and  C_35
    5  A    between atoms: C_2  and  C_44
    6  A    between atoms: C_3  and  N_37
    7  A    between atoms: C_3  and  O_40
    8  A    between atoms: C_5  and  O_42
    9  A    between atoms: O_7  and  C_18
   10  A    between atoms: O_7  and  C_20
   11  A    between atoms: C_9  and  C_36
   12  A    between atoms: N_10  and  C_33
   13  A    between atoms: N_10  and  C_44
   14  A    between atoms: C_13  and  C_29
   15  A    between atoms: C_13  and  C_54
   16  A    between atoms: C_15  and  C_39
   17  A    between atoms: N_17  and  C_35
   18  A    between atoms: N_17  and  N_48
   19  A    between atoms: C_18  and  C_36
   20  A    between atoms: C_18  and  C_57
   21  A    between atoms: C_19  and  N_48
   22  A    between atoms: C_20  and  C_47
   23  A    between atoms: C_24  and  C_46
   24  A    between atoms: C_29  and  C_31
   25  A    between atoms: C_30  and  O_42
   26  A    between atoms: C_33  and  C_53
   27  A    between atoms: N_37  and  C_51
   28  A    between atoms: C_38  and  C_39
   29  A    between atoms: C_45  and  C_53
   30  A    between atoms: C_53  and  C_57
   31  A    between atoms: C_54  and  S_55
                            x       y       z     vdW  Elec       q    Type
                         _______ _______ _______ _____ _____    ______ ____

>  <TORSDO>
F 31

$$$$
=
 OpenBabel10232411543D

 63 64  0  0  1  0  0  0  0  0999 V2000
  189.6520  177.2170  137.1010 C   0  0  1  0  0  0  0  0  0  0  0  0
  189.4640  178.7270  137.2060 C   0  0  0  0  0  1  0  0  0  0  0  0
  188.6090  176.6410  136.1430 C   0  0  0  0  0  2  0  0  0  0  0  0
  187.2510  176.8810  136.6140 N   0  0  0  0  0  2  0  0  0  0  0  0
  186.3620  176.2530  135.6470 C   0  0  0  0  0  2  0  0  0  0  0  0
  185.4360  175.2530  136.3290 C   0  0  1  0  0  3  0  0  0  0  0  0
  185.4030  173.0910  137.3390 O   0  0  0  0  0  1  0  0  0  0  0  0
  186.2310  174.1760  137.0500 C   0  0  0  0  0  2  0  0  0  0  0  0
  184.4820  175.9580  137.2870 C   0  0  0  0  0  2  0  0  0  0  0  0
  183.6360  176.9770  136.5360 C   0  0  2  0  0  3  0  0  0  0  0  0
  183.2820  178.0310  137.3820 O   0  0  0  0  0  0  0  0  0  0  0  0
  183.8240  177.6880  138.6220 C   0  0  0  0  0  2  0  0  0  0  0  0
  183.4650  178.7430  139.6540 C   0  0  0  0  0  2  0  0  0  0  0  0
  182.5360  179.7790  139.0500 C   0  0  0  0  0  1  0  0  0  0  0  0
  182.3920  176.3280  135.9120 C   0  0  0  0  0  2  0  0  0  0  0  0
  181.7040  175.3310  136.8040 C   0  0  0  0  0  0  0  0  0  0  0  0
  180.6030  175.7270  137.6260 N   0  0  0  0  0  2  0  0  0  0  0  0
  182.0510  174.1200  136.7870 O   0  0  0  0  0  0  0  0  0  0  0  0
  180.1070  177.0930  137.6650 C   0  0  0  0  0  1  0  0  0  0  0  0
  191.0660  176.9210  136.5950 C   0  0  0  0  0  2  0  0  0  0  0  0
  191.0610  175.8310  135.6210 N   0  0  0  0  0  2  0  0  0  0  0  0
  195.8660  175.0020  135.1640 C   0  0  0  0  0  0  0  0  0  0  0  0
  194.8720  177.0620  134.3830 C   0  0  0  0  0  3  0  0  0  0  0  0
  192.1840  175.0240  135.8740 N   0  0  0  0  0  0  0  0  0  0  0  0
  195.9970  176.2480  134.5430 C   0  0  0  0  0  3  0  0  0  0  0  0
  194.6070  174.6050  135.6250 C   0  0  0  0  0  3  0  0  0  0  0  0
  193.6590  176.6430  134.8330 N   0  0  0  0  0  0  0  0  0  0  0  0
  193.4930  175.4390  135.4440 C   0  0  0  0  0  0  0  0  0  0  0  0
  198.1540  174.4720  134.9100 O   0  0  0  0  0  0  0  0  0  0  0  0
  196.0820  172.5970  137.1720 C   0  0  0  0  0  0  0  0  0  0  0  0
  195.4800  173.5310  137.7650 O   0  0  0  0  0  0  0  0  0  0  0  0
  197.0360  174.1250  135.3730 C   0  0  0  0  0  0  0  0  0  0  0  0
  196.9370  172.8690  136.0570 N   0  0  0  0  0  2  0  0  0  0  0  0
  195.9720  171.2040  137.6920 C   0  0  0  0  0  2  0  0  0  0  0  0
  196.7190  170.2320  136.7930 C   0  0  0  0  0  2  0  0  0  0  0  0
  195.7410  169.3390  136.0530 C   0  0  0  0  0  2  0  0  0  0  0  0
  193.1940  169.8710  135.6120 C   0  0  0  0  0  1  0  0  0  0  0  0
  194.1840  169.2030  136.9840 S   0  0  0  0  0  0  0  0  0  0  0  0
  190.6030  173.4440  136.5630 O   0  0  0  0  0  1  0  0  0  0  0  0
  191.9670  173.7190  136.4900 C   0  0  0  0  0  2  0  0  0  0  0  0
  189.4070  176.5840  138.4700 C   0  0  0  0  0  2  0  0  0  0  0  0
  190.6550  175.9600  139.0870 C   0  0  0  0  0  2  0  0  0  0  0  0
  190.5520  176.9540  141.3870 C   0  0  0  0  0  0  0  0  0  0  0  0
  189.3800  176.5100  141.5530 O   0  0  0  0  0  0  0  0  0  0  0  0
  191.1820  176.8570  140.1050 N   0  0  0  0  0  0  0  0  0  0  0  0
  192.3880  177.4380  139.9110 O   0  0  0  0  0  1  0  0  0  0  0  0
  191.2610  177.5000  142.4600 O   0  0  0  0  0  0  0  0  0  0  0  0
  190.9400  176.7060  145.8680 C   0  0  0  0  0  0  0  0  0  0  0  0
  191.8560  176.6950  143.4260 C   0  0  0  0  0  3  0  0  0  0  0  0
  191.3950  176.6890  144.6430 C   0  0  0  0  0  0  0  0  0  0  0  0
  192.3060  176.4190  147.9250 C   0  0  0  0  0  1  0  0  0  0  0  0
  191.5020  175.9010  146.8690 O   0  0  0  0  0  0  0  0  0  0  0  0
  189.8380  177.5570  146.1760 N   0  0  0  0  0  2  0  0  0  0  0  0
  186.6060  177.8570  147.8130 N   0  0  0  0  0  2  0  0  0  0  0  0
  188.9430  178.1530  148.3630 C   0  0  0  0  0  2  0  0  0  0  0  0
  187.4150  177.3730  146.6960 C   0  0  2  0  0  3  0  0  0  0  0  0
  188.8490  177.2160  147.1920 C   0  0  1  0  0  3  0  0  0  0  0  0
  187.5280  178.2150  148.8940 C   0  0  0  0  0  2  0  0  0  0  0  0
  187.2390  178.2790  145.4640 C   0  0  1  0  0  3  0  0  0  0  0  0
  187.6970  177.6240  144.3230 O   0  0  0  0  0  1  0  0  0  0  0  0
  183.7560  178.8530  143.9720 C   0  0  0  0  0  1  0  0  0  0  0  0
  185.1620  178.4050  144.1540 C   0  0  0  0  0  3  0  0  0  0  0  0
  185.8200  178.7190  145.2680 C   0  0  0  0  0  3  0  0  0  0  0  0
  1  2  1  1  0  0  0
  1 41  1  0  0  0  0
  3  4  1  0  0  0  0
  3  1  1  0  0  0  0
  5  4  1  0  0  0  0
  6  5  1  1  0  0  0
  6  8  1  0  0  0  0
  6  9  1  0  0  0  0
  8  7  1  0  0  0  0
 10 15  1  1  0  0  0
 10  9  1  0  0  0  0
 10 11  1  0  0  0  0
 11 12  1  0  0  0  0
 12 13  1  0  0  0  0
 14 13  1  0  0  0  0
 15 16  1  0  0  0  0
 16 17  1  0  0  0  0
 17 19  1  0  0  0  0
 18 16  2  0  0  0  0
 20  1  1  0  0  0  0
 21 24  1  0  0  0  0
 21 20  1  0  0  0  0
 22 32  1  0  0  0  0
 22 26  1  0  0  0  0
 23 25  1  0  0  0  0
 23 27  2  0  0  0  0
 24 40  1  0  0  0  0
 25 22  2  0  0  0  0
 27 28  1  0  0  0  0
 28 26  2  0  0  0  0
 28 24  1  0  0  0  0
 29 32  2  0  0  0  0
 30 34  1  0  0  0  0
 30 31  2  0  0  0  0
 32 33  1  0  0  0  0
 33 30  1  0  0  0  0
 35 34  1  0  0  0  0
 36 35  1  0  0  0  0
 36 38  1  0  0  0  0
 37 38  1  0  0  0  0
 40 39  1  0  0  0  0
 41 42  1  0  0  0  0
 42 45  1  0  0  0  0
 43 44  2  0  0  0  0
 43 47  1  0  0  0  0
 45 43  1  0  0  0  0
 46 45  1  0  0  0  0
 47 49  1  0  0  0  0
 48 53  1  0  0  0  0
 48 52  1  0  0  0  0
 49 50  2  0  0  0  0
 50 48  2  0  0  0  0
 52 51  1  0  0  0  0
 54 58  1  0  0  0  0
 55 58  1  0  0  0  0
 56 59  1  6  0  0  0
 56 57  1  0  0  0  0
 56 54  1  0  0  0  0
 57 53  1  6  0  0  0
 57 55  1  0  0  0  0
 59 60  1  6  0  0  0
 61 62  1  0  0  0  0
 62 63  2  0  0  0  0
 63 59  1  0  0  0  0
M  END
>  <MODEL>
5

>  <REMARK>
 VINA RESULT:      -4.9      2.318      3.629
  Name = 
  31 active torsions:
  status: ('A' for Active; 'I' for Inactive)
    1  A    between atoms: C_1  and  N_12
    2  A    between atoms: C_1  and  C_22
    3  A    between atoms: C_2  and  C_22
    4  A    between atoms: C_2  and  C_35
    5  A    between atoms: C_2  and  C_44
    6  A    between atoms: C_3  and  N_37
    7  A    between atoms: C_3  and  O_40
    8  A    between atoms: C_5  and  O_42
    9  A    between atoms: O_7  and  C_18
   10  A    between atoms: O_7  and  C_20
   11  A    between atoms: C_9  and  C_36
   12  A    between atoms: N_10  and  C_33
   13  A    between atoms: N_10  and  C_44
   14  A    between atoms: C_13  and  C_29
   15  A    between atoms: C_13  and  C_54
   16  A    between atoms: C_15  and  C_39
   17  A    between atoms: N_17  and  C_35
   18  A    between atoms: N_17  and  N_48
   19  A    between atoms: C_18  and  C_36
   20  A    between atoms: C_18  and  C_57
   21  A    between atoms: C_19  and  N_48
   22  A    between atoms: C_20  and  C_47
   23  A    between atoms: C_24  and  C_46
   24  A    between atoms: C_29  and  C_31
   25  A    between atoms: C_30  and  O_42
   26  A    between atoms: C_33  and  C_53
   27  A    between atoms: N_37  and  C_51
   28  A    between atoms: C_38  and  C_39
   29  A    between atoms: C_45  and  C_53
   30  A    between atoms: C_53  and  C_57
   31  A    between atoms: C_54  and  S_55
                            x       y       z     vdW  Elec       q    Type
                         _______ _______ _______ _____ _____    ______ ____

>  <TORSDO>
F 31

$$$$
=
 OpenBabel10232411543D

 63 64  0  0  1  0  0  0  0  0999 V2000
  189.7740  176.2740  137.9250 C   0  0  1  0  0  0  0  0  0  0  0  0
  189.3290  174.9180  137.3870 C   0  0  0  0  0  1  0  0  0  0  0  0
  190.7420  176.9210  136.9350 C   0  0  0  0  0  2  0  0  0  0  0  0
  191.5160  175.9240  136.2060 N   0  0  0  0  0  2  0  0  0  0  0  0
  192.9110  176.1410  136.5640 C   0  0  0  0  0  2  0  0  0  0  0  0
  193.5120  174.8920  137.1950 C   0  0  1  0  0  3  0  0  0  0  0  0
  193.1440  173.0680  135.6990 O   0  0  0  0  0  1  0  0  0  0  0  0
  192.6780  173.6610  136.8730 C   0  0  0  0  0  2  0  0  0  0  0  0
  194.9580  174.6980  136.7540 C   0  0  0  0  0  2  0  0  0  0  0  0
  195.7910  174.1450  137.9030 C   0  0  2  0  0  3  0  0  0  0  0  0
  196.6590  175.1270  138.3890 O   0  0  0  0  0  0  0  0  0  0  0  0
  197.7610  174.4190  138.8720 C   0  0  0  0  0  2  0  0  0  0  0  0
  199.0160  175.2650  138.7450 C   0  0  0  0  0  2  0  0  0  0  0  0
  200.0340  174.8620  139.7960 C   0  0  0  0  0  1  0  0  0  0  0  0
  196.5610  172.8840  137.4870 C   0  0  0  0  0  2  0  0  0  0  0  0
  195.7310  171.6290  137.4830 C   0  0  0  0  0  0  0  0  0  0  0  0
  195.7080  170.7740  136.3370 N   0  0  0  0  0  2  0  0  0  0  0  0
  195.0990  171.2840  138.5170 O   0  0  0  0  0  0  0  0  0  0  0  0
  196.4500  171.0720  135.1230 C   0  0  0  0  0  1  0  0  0  0  0  0
  188.5440  177.1620  138.1290 C   0  0  0  0  0  2  0  0  0  0  0  0
  187.7620  177.2720  136.8990 N   0  0  0  0  0  2  0  0  0  0  0  0
  183.2790  177.6470  138.8340 C   0  0  0  0  0  0  0  0  0  0  0  0
  184.8130  179.5150  138.8590 C   0  0  0  0  0  3  0  0  0  0  0  0
  186.4940  176.7160  137.1430 N   0  0  0  0  0  0  0  0  0  0  0  0
  183.5700  178.9680  139.1920 C   0  0  0  0  0  3  0  0  0  0  0  0
  184.2390  176.9080  138.1360 C   0  0  0  0  0  3  0  0  0  0  0  0
  185.7300  178.7670  138.1880 N   0  0  0  0  0  0  0  0  0  0  0  0
  185.4810  177.4800  137.8220 C   0  0  0  0  0  0  0  0  0  0  0  0
  181.4850  177.1870  140.3000 O   0  0  0  0  0  0  0  0  0  0  0  0
  181.1920  176.5080  136.7820 C   0  0  0  0  0  0  0  0  0  0  0  0
  181.6520  177.5770  136.2990 O   0  0  0  0  0  0  0  0  0  0  0  0
  181.9680  177.0420  139.1470 C   0  0  0  0  0  0  0  0  0  0  0  0
  181.2400  176.2610  138.1900 N   0  0  0  0  0  2  0  0  0  0  0  0
  180.5140  175.5280  135.8850 C   0  0  0  0  0  2  0  0  0  0  0  0
  181.5250  174.8240  134.9950 C   0  0  0  0  0  2  0  0  0  0  0  0
  182.3610  173.8540  135.8090 C   0  0  0  0  0  2  0  0  0  0  0  0
  181.3520  171.9030  134.3460 C   0  0  0  0  0  1  0  0  0  0  0  0
  181.4290  172.3220  136.1140 S   0  0  0  0  0  0  0  0  0  0  0  0
  186.3360  175.1700  135.3960 O   0  0  0  0  0  1  0  0  0  0  0  0
  186.2750  175.3200  136.7790 C   0  0  0  0  0  2  0  0  0  0  0  0
  190.5360  176.0690  139.2350 C   0  0  0  0  0  2  0  0  0  0  0  0
  189.9240  176.8110  140.4200 C   0  0  0  0  0  2  0  0  0  0  0  0
  190.6770  178.3080  142.2870 C   0  0  0  0  0  0  0  0  0  0  0  0
  189.4970  178.7260  142.4590 O   0  0  0  0  0  0  0  0  0  0  0  0
  190.9850  177.4720  141.1650 N   0  0  0  0  0  0  0  0  0  0  0  0
  192.2710  177.1270  140.9270 O   0  0  0  0  0  1  0  0  0  0  0  0
  191.6790  178.6150  143.2090 O   0  0  0  0  0  0  0  0  0  0  0  0
  189.9070  177.4780  146.0230 C   0  0  0  0  0  0  0  0  0  0  0  0
  191.8770  177.8500  144.3530 C   0  0  0  0  0  3  0  0  0  0  0  0
  190.8940  177.6520  145.1840 C   0  0  0  0  0  0  0  0  0  0  0  0
  191.3290  176.3060  147.6900 C   0  0  0  0  0  1  0  0  0  0  0  0
  190.0590  176.7040  147.1810 O   0  0  0  0  0  0  0  0  0  0  0  0
  188.6480  178.0830  145.7330 N   0  0  0  0  0  2  0  0  0  0  0  0
  185.0310  177.7890  145.9280 N   0  0  0  0  0  2  0  0  0  0  0  0
  186.8450  178.6640  147.2660 C   0  0  0  0  0  2  0  0  0  0  0  0
  186.2970  177.3990  145.3110 C   0  0  2  0  0  3  0  0  0  0  0  0
  187.4040  177.6230  146.3370 C   0  0  1  0  0  3  0  0  0  0  0  0
  185.3500  178.4500  147.1960 C   0  0  0  0  0  2  0  0  0  0  0  0
  186.4920  178.1190  143.9650 C   0  0  1  0  0  3  0  0  0  0  0  0
  186.9920  177.2290  143.0170 O   0  0  0  0  0  1  0  0  0  0  0  0
  182.8060  179.0400  143.4550 C   0  0  0  0  0  1  0  0  0  0  0  0
  184.0500  178.4080  143.9710 C   0  0  0  0  0  3  0  0  0  0  0  0
  185.2300  178.7500  143.4590 C   0  0  0  0  0  3  0  0  0  0  0  0
  1  2  1  6  0  0  0
  1 20  1  0  0  0  0
  1 41  1  0  0  0  0
  3  1  1  0  0  0  0
  4  5  1  0  0  0  0
  4  3  1  0  0  0  0
  6  5  1  6  0  0  0
  7  8  1  0  0  0  0
  8  6  1  0  0  0  0
  9  6  1  0  0  0  0
 10  9  1  6  0  0  0
 10 11  1  0  0  0  0
 11 12  1  0  0  0  0
 13 12  1  0  0  0  0
 13 14  1  0  0  0  0
 15 10  1  0  0  0  0
 16 15  1  0  0  0  0
 16 18  2  0  0  0  0
 17 16  1  0  0  0  0
 19 17  1  0  0  0  0
 21 24  1  0  0  0  0
 21 20  1  0  0  0  0
 22 32  1  0  0  0  0
 22 25  1  0  0  0  0
 23 25  2  0  0  0  0
 24 28  1  0  0  0  0
 26 22  2  0  0  0  0
 27 23  1  0  0  0  0
 28 26  1  0  0  0  0
 28 27  2  0  0  0  0
 30 33  1  0  0  0  0
 31 30  2  0  0  0  0
 32 29  2  0  0  0  0
 33 32  1  0  0  0  0
 34 30  1  0  0  0  0
 35 36  1  0  0  0  0
 35 34  1  0  0  0  0
 36 38  1  0  0  0  0
 37 38  1  0  0  0  0
 39 40  1  0  0  0  0
 40 24  1  0  0  0  0
 41 42  1  0  0  0  0
 42 45  1  0  0  0  0
 43 44  2  0  0  0  0
 43 47  1  0  0  0  0
 45 43  1  0  0  0  0
 46 45  1  0  0  0  0
 47 49  1  0  0  0  0
 48 52  1  0  0  0  0
 49 50  2  0  0  0  0
 50 48  2  0  0  0  0
 52 51  1  0  0  0  0
 53 48  1  0  0  0  0
 54 58  1  0  0  0  0
 56 59  1  6  0  0  0
 56 54  1  0  0  0  0
 56 57  1  0  0  0  0
 57 53  1  6  0  0  0
 57 55  1  0  0  0  0
 58 55  1  0  0  0  0
 59 60  1  6  0  0  0
 61 62  1  0  0  0  0
 63 59  1  0  0  0  0
 63 62  2  0  0  0  0
M  END
>  <MODEL>
6

>  <REMARK>
 VINA RESULT:      -4.8      2.923      9.236
  Name = 
  31 active torsions:
  status: ('A' for Active; 'I' for Inactive)
    1  A    between atoms: C_1  and  N_12
    2  A    between atoms: C_1  and  C_22
    3  A    between atoms: C_2  and  C_22
    4  A    between atoms: C_2  and  C_35
    5  A    between atoms: C_2  and  C_44
    6  A    between atoms: C_3  and  N_37
    7  A    between atoms: C_3  and  O_40
    8  A    between atoms: C_5  and  O_42
    9  A    between atoms: O_7  and  C_18
   10  A    between atoms: O_7  and  C_20
   11  A    between atoms: C_9  and  C_36
   12  A    between atoms: N_10  and  C_33
   13  A    between atoms: N_10  and  C_44
   14  A    between atoms: C_13  and  C_29
   15  A    between atoms: C_13  and  C_54
   16  A    between atoms: C_15  and  C_39
   17  A    between atoms: N_17  and  C_35
   18  A    between atoms: N_17  and  N_48
   19  A    between atoms: C_18  and  C_36
   20  A    between atoms: C_18  and  C_57
   21  A    between atoms: C_19  and  N_48
   22  A    between atoms: C_20  and  C_47
   23  A    between atoms: C_24  and  C_46
   24  A    between atoms: C_29  and  C_31
   25  A    between atoms: C_30  and  O_42
   26  A    between atoms: C_33  and  C_53
   27  A    between atoms: N_37  and  C_51
   28  A    between atoms: C_38  and  C_39
   29  A    between atoms: C_45  and  C_53
   30  A    between atoms: C_53  and  C_57
   31  A    between atoms: C_54  and  S_55
                            x       y       z     vdW  Elec       q    Type
                         _______ _______ _______ _____ _____    ______ ____

>  <TORSDO>
F 31

$$$$
=
 OpenBabel10232411543D

 63 64  0  0  1  0  0  0  0  0999 V2000
  189.1090  176.5860  136.4540 C   0  0  1  0  0  0  0  0  0  0  0  0
  189.0790  177.3020  135.1070 C   0  0  0  0  0  1  0  0  0  0  0  0
  187.8460  175.7390  136.6080 C   0  0  0  0  0  2  0  0  0  0  0  0
  186.7920  176.1700  135.6990 N   0  0  0  0  0  2  0  0  0  0  0  0
  185.6670  176.5730  136.5330 C   0  0  0  0  0  2  0  0  0  0  0  0
  184.3840  175.8860  136.0830 C   0  0  1  0  0  3  0  0  0  0  0  0
  183.6850  173.6520  135.6150 O   0  0  0  0  0  1  0  0  0  0  0  0
  184.6860  174.5870  135.3520 C   0  0  0  0  0  2  0  0  0  0  0  0
  183.4530  175.6400  137.2660 C   0  0  0  0  0  2  0  0  0  0  0  0
  182.1950  176.4880  137.1330 C   0  0  2  0  0  3  0  0  0  0  0  0
  182.1020  177.3860  138.2000 O   0  0  0  0  0  0  0  0  0  0  0  0
  181.9130  178.6320  137.6000 C   0  0  0  0  0  2  0  0  0  0  0  0
  182.4690  179.7270  138.4940 C   0  0  0  0  0  2  0  0  0  0  0  0
  183.2640  179.1240  139.6370 C   0  0  0  0  0  1  0  0  0  0  0  0
  180.9350  175.6180  137.0310 C   0  0  0  0  0  2  0  0  0  0  0  0
  180.7040  174.7270  138.2220 C   0  0  0  0  0  0  0  0  0  0  0  0
  180.2880  173.3710  138.0460 N   0  0  0  0  0  2  0  0  0  0  0  0
  180.9390  175.1500  139.3840 O   0  0  0  0  0  0  0  0  0  0  0  0
  180.0450  172.7900  136.7360 C   0  0  0  0  0  1  0  0  0  0  0  0
  190.3580  175.7040  136.5250 C   0  0  0  0  0  2  0  0  0  0  0  0
  190.6230  175.0590  135.2400 N   0  0  0  0  0  2  0  0  0  0  0  0
  194.5090  172.9220  137.3180 C   0  0  0  0  0  0  0  0  0  0  0  0
  193.9920  175.2480  137.7260 C   0  0  0  0  0  3  0  0  0  0  0  0
  191.3870  173.9050  135.4870 N   0  0  0  0  0  0  0  0  0  0  0  0
  194.8220  174.1410  137.9280 C   0  0  0  0  0  3  0  0  0  0  0  0
  193.3590  172.8380  136.5260 C   0  0  0  0  0  3  0  0  0  0  0  0
  192.8860  175.1360  136.9430 N   0  0  0  0  0  0  0  0  0  0  0  0
  192.5490  173.9670  136.3350 C   0  0  0  0  0  0  0  0  0  0  0  0
  194.8330  170.6960  138.0400 O   0  0  0  0  0  0  0  0  0  0  0  0
  197.3430  172.3680  136.0820 C   0  0  0  0  0  0  0  0  0  0  0  0
  196.6300  172.8810  135.1790 O   0  0  0  0  0  0  0  0  0  0  0  0
  195.3480  171.7240  137.5270 C   0  0  0  0  0  0  0  0  0  0  0  0
  196.7430  171.7020  137.1970 N   0  0  0  0  0  2  0  0  0  0  0  0
  198.8270  172.3810  135.9440 C   0  0  0  0  0  2  0  0  0  0  0  0
  199.2990  171.2120  135.0950 C   0  0  0  0  0  2  0  0  0  0  0  0
  199.2690  169.9280  135.9010 C   0  0  0  0  0  2  0  0  0  0  0  0
  199.1300  168.9070  138.3310 C   0  0  0  0  0  1  0  0  0  0  0  0
  200.1440  170.1540  137.4800 S   0  0  0  0  0  0  0  0  0  0  0  0
  189.6420  172.5980  134.6410 O   0  0  0  0  0  1  0  0  0  0  0  0
  191.0250  172.6780  134.7840 C   0  0  0  0  0  2  0  0  0  0  0  0
  189.0980  177.6260  137.5740 C   0  0  0  0  0  2  0  0  0  0  0  0
  190.4100  177.7030  138.3500 C   0  0  0  0  0  2  0  0  0  0  0  0
  189.0570  177.7000  140.4610 C   0  0  0  0  0  0  0  0  0  0  0  0
  188.4200  178.7240  140.0840 O   0  0  0  0  0  0  0  0  0  0  0  0
  190.1860  177.2390  139.7110 N   0  0  0  0  0  0  0  0  0  0  0  0
  190.9280  176.2140  140.1870 O   0  0  0  0  0  1  0  0  0  0  0  0
  188.6400  176.9800  141.5840 O   0  0  0  0  0  0  0  0  0  0  0  0
  189.4430  177.0950  145.0030 C   0  0  0  0  0  0  0  0  0  0  0  0
  189.5510  176.4360  142.4810 C   0  0  0  0  0  3  0  0  0  0  0  0
  189.4940  176.7530  143.7430 C   0  0  0  0  0  0  0  0  0  0  0  0
  190.5820  177.1620  147.2110 C   0  0  0  0  0  1  0  0  0  0  0  0
  190.3330  176.5600  145.9430 O   0  0  0  0  0  0  0  0  0  0  0  0
  188.4430  178.0240  145.4190 N   0  0  0  0  0  2  0  0  0  0  0  0
  185.0380  178.1250  146.6870 N   0  0  0  0  0  2  0  0  0  0  0  0
  187.2640  178.6880  147.4460 C   0  0  0  0  0  2  0  0  0  0  0  0
  186.0040  177.6420  145.7020 C   0  0  2  0  0  3  0  0  0  0  0  0
  187.3840  177.6630  146.3530 C   0  0  1  0  0  3  0  0  0  0  0  0
  185.8000  178.6500  147.8230 C   0  0  0  0  0  2  0  0  0  0  0  0
  185.8840  178.4330  144.3880 C   0  0  1  0  0  3  0  0  0  0  0  0
  186.0960  177.5860  143.3020 O   0  0  0  0  0  1  0  0  0  0  0  0
  182.2960  179.3010  143.3570 C   0  0  0  0  0  1  0  0  0  0  0  0
  183.6020  178.6000  143.4890 C   0  0  0  0  0  3  0  0  0  0  0  0
  184.5620  179.1240  144.2480 C   0  0  0  0  0  3  0  0  0  0  0  0
  1  2  1  6  0  0  0
  1 20  1  0  0  0  0
  1  3  1  0  0  0  0
  1 41  1  0  0  0  0
  4  5  1  0  0  0  0
  4  3  1  0  0  0  0
  6  8  1  1  0  0  0
  6  5  1  0  0  0  0
  6  9  1  0  0  0  0
  8  7  1  0  0  0  0
 10 15  1  1  0  0  0
 10  9  1  0  0  0  0
 10 11  1  0  0  0  0
 12 11  1  0  0  0  0
 12 13  1  0  0  0  0
 13 14  1  0  0  0  0
 15 16  1  0  0  0  0
 16 18  2  0  0  0  0
 17 16  1  0  0  0  0
 19 17  1  0  0  0  0
 21 24  1  0  0  0  0
 21 20  1  0  0  0  0
 22 32  1  0  0  0  0
 22 25  1  0  0  0  0
 23 25  2  0  0  0  0
 24 28  1  0  0  0  0
 26 22  2  0  0  0  0
 27 23  1  0  0  0  0
 28 26  1  0  0  0  0
 28 27  2  0  0  0  0
 30 33  1  0  0  0  0
 31 30  2  0  0  0  0
 32 29  2  0  0  0  0
 33 32  1  0  0  0  0
 34 30  1  0  0  0  0
 35 36  1  0  0  0  0
 35 34  1  0  0  0  0
 36 38  1  0  0  0  0
 38 37  1  0  0  0  0
 39 40  1  0  0  0  0
 40 24  1  0  0  0  0
 41 42  1  0  0  0  0
 42 45  1  0  0  0  0
 43 47  1  0  0  0  0
 44 43  2  0  0  0  0
 45 46  1  0  0  0  0
 45 43  1  0  0  0  0
 47 49  1  0  0  0  0
 48 53  1  0  0  0  0
 48 52  1  0  0  0  0
 49 50  2  0  0  0  0
 50 48  2  0  0  0  0
 52 51  1  0  0  0  0
 54 58  1  0  0  0  0
 55 58  1  0  0  0  0
 56 59  1  6  0  0  0
 56 57  1  0  0  0  0
 56 54  1  0  0  0  0
 57 53  1  6  0  0  0
 57 55  1  0  0  0  0
 59 60  1  6  0  0  0
 61 62  1  0  0  0  0
 62 63  2  0  0  0  0
 63 59  1  0  0  0  0
M  END
>  <MODEL>
7

>  <REMARK>
 VINA RESULT:      -4.5      2.357      3.351
  Name = 
  31 active torsions:
  status: ('A' for Active; 'I' for Inactive)
    1  A    between atoms: C_1  and  N_12
    2  A    between atoms: C_1  and  C_22
    3  A    between atoms: C_2  and  C_22
    4  A    between atoms: C_2  and  C_35
    5  A    between atoms: C_2  and  C_44
    6  A    between atoms: C_3  and  N_37
    7  A    between atoms: C_3  and  O_40
    8  A    between atoms: C_5  and  O_42
    9  A    between atoms: O_7  and  C_18
   10  A    between atoms: O_7  and  C_20
   11  A    between atoms: C_9  and  C_36
   12  A    between atoms: N_10  and  C_33
   13  A    between atoms: N_10  and  C_44
   14  A    between atoms: C_13  and  C_29
   15  A    between atoms: C_13  and  C_54
   16  A    between atoms: C_15  and  C_39
   17  A    between atoms: N_17  and  C_35
   18  A    between atoms: N_17  and  N_48
   19  A    between atoms: C_18  and  C_36
   20  A    between atoms: C_18  and  C_57
   21  A    between atoms: C_19  and  N_48
   22  A    between atoms: C_20  and  C_47
   23  A    between atoms: C_24  and  C_46
   24  A    between atoms: C_29  and  C_31
   25  A    between atoms: C_30  and  O_42
   26  A    between atoms: C_33  and  C_53
   27  A    between atoms: N_37  and  C_51
   28  A    between atoms: C_38  and  C_39
   29  A    between atoms: C_45  and  C_53
   30  A    between atoms: C_53  and  C_57
   31  A    between atoms: C_54  and  S_55
                            x       y       z     vdW  Elec       q    Type
                         _______ _______ _______ _____ _____    ______ ____

>  <TORSDO>
F 31

$$$$
=
 OpenBabel10232411543D

 63 64  0  0  1  0  0  0  0  0999 V2000
  190.0010  176.5660  138.1130 C   0  0  1  0  0  0  0  0  0  0  0  0
  188.7880  175.6420  138.0970 C   0  0  0  0  0  1  0  0  0  0  0  0
  190.6910  176.4750  139.4730 C   0  0  0  0  0  2  0  0  0  0  0  0
  189.9950  177.2570  140.4860 N   0  0  0  0  0  2  0  0  0  0  0  0
  189.9980  176.4560  141.7020 C   0  0  0  0  0  2  0  0  0  0  0  0
  189.9400  177.3430  142.9390 C   0  0  1  0  0  3  0  0  0  0  0  0
  191.0470  179.3240  143.6810 O   0  0  0  0  0  1  0  0  0  0  0  0
  191.2700  178.0450  143.1700 C   0  0  0  0  0  2  0  0  0  0  0  0
  188.8030  178.3540  142.8340 C   0  0  0  0  0  2  0  0  0  0  0  0
  187.7900  178.1260  143.9480 C   0  0  2  0  0  3  0  0  0  0  0  0
  188.3470  177.3310  144.9530 O   0  0  0  0  0  0  0  0  0  0  0  0
  188.1880  178.0740  146.1240 C   0  0  0  0  0  2  0  0  0  0  0  0
  189.4450  177.9820  146.9720 C   0  0  0  0  0  2  0  0  0  0  0  0
  189.1190  177.4140  148.3410 C   0  0  0  0  0  1  0  0  0  0  0  0
  186.4900  177.5110  143.4130 C   0  0  0  0  0  2  0  0  0  0  0  0
  185.2400  178.1770  143.9210 C   0  0  0  0  0  0  0  0  0  0  0  0
  184.0260  178.1190  143.1670 N   0  0  0  0  0  2  0  0  0  0  0  0
  185.2330  178.7360  145.0490 O   0  0  0  0  0  0  0  0  0  0  0  0
  183.9360  177.4480  141.8800 C   0  0  0  0  0  1  0  0  0  0  0  0
  190.9620  176.1510  136.9950 C   0  0  0  0  0  2  0  0  0  0  0  0
  192.2610  176.8040  137.1460 N   0  0  0  0  0  2  0  0  0  0  0  0
  196.6270  175.4470  135.3910 C   0  0  0  0  0  0  0  0  0  0  0  0
  195.8480  177.7260  135.1850 C   0  0  0  0  0  3  0  0  0  0  0  0
  193.2560  175.8230  136.9920 N   0  0  0  0  0  0  0  0  0  0  0  0
  196.8260  176.7560  134.9410 C   0  0  0  0  0  3  0  0  0  0  0  0
  195.4540  175.1430  136.0890 C   0  0  0  0  0  3  0  0  0  0  0  0
  194.7140  177.3960  135.8590 N   0  0  0  0  0  0  0  0  0  0  0  0
  194.4870  176.1340  136.3130 C   0  0  0  0  0  0  0  0  0  0  0  0
  198.5840  174.6170  134.3610 O   0  0  0  0  0  0  0  0  0  0  0  0
  197.1230  172.9030  137.1640 C   0  0  0  0  0  0  0  0  0  0  0  0
  196.9080  173.8710  137.9420 O   0  0  0  0  0  0  0  0  0  0  0  0
  197.6460  174.4010  135.1730 C   0  0  0  0  0  0  0  0  0  0  0  0
  197.5860  173.1270  135.8290 N   0  0  0  0  0  2  0  0  0  0  0  0
  196.9770  171.5080  137.6680 C   0  0  0  0  0  2  0  0  0  0  0  0
  196.4360  170.5960  136.5790 C   0  0  0  0  0  2  0  0  0  0  0  0
  194.9750  170.9020  136.3110 C   0  0  0  0  0  2  0  0  0  0  0  0
  193.1260  169.0840  135.8160 C   0  0  0  0  0  1  0  0  0  0  0  0
  194.3930  169.9720  134.8590 S   0  0  0  0  0  0  0  0  0  0  0  0
  193.7890  174.1360  138.5210 O   0  0  0  0  0  1  0  0  0  0  0  0
  192.9630  174.4690  137.4490 C   0  0  0  0  0  2  0  0  0  0  0  0
  189.5350  178.0110  137.9370 C   0  0  0  0  0  2  0  0  0  0  0  0
  188.8220  178.2660  136.6120 C   0  0  0  0  0  2  0  0  0  0  0  0
  186.4600  178.0350  135.7990 C   0  0  0  0  0  0  0  0  0  0  0  0
  186.8500  178.0100  134.5970 O   0  0  0  0  0  0  0  0  0  0  0  0
  187.3870  178.3320  136.8490 N   0  0  0  0  0  0  0  0  0  0  0  0
  186.9350  178.4700  138.1160 O   0  0  0  0  0  1  0  0  0  0  0  0
  185.1360  177.7270  136.1200 O   0  0  0  0  0  0  0  0  0  0  0  0
  182.2320  175.9110  136.9060 C   0  0  0  0  0  0  0  0  0  0  0  0
  184.6880  176.4120  136.1820 C   0  0  0  0  0  3  0  0  0  0  0  0
  183.4600  176.1570  136.5320 C   0  0  0  0  0  0  0  0  0  0  0  0
  182.4510  173.4730  136.4750 C   0  0  0  0  0  1  0  0  0  0  0  0
  181.7350  174.6020  136.9700 O   0  0  0  0  0  0  0  0  0  0  0  0
  181.3850  177.0090  137.2410 N   0  0  0  0  0  2  0  0  0  0  0  0
  181.3520  180.5220  138.1710 N   0  0  0  0  0  2  0  0  0  0  0  0
  180.9300  179.1700  136.2110 C   0  0  0  0  0  2  0  0  0  0  0  0
  181.7420  179.1430  138.4620 C   0  0  2  0  0  3  0  0  0  0  0  0
  181.8260  178.3940  137.1350 C   0  0  1  0  0  3  0  0  0  0  0  0
  180.9770  180.5800  136.7560 C   0  0  0  0  0  2  0  0  0  0  0  0
  180.8030  178.5220  139.5110 C   0  0  1  0  0  3  0  0  0  0  0  0
  181.3560  177.3410  140.0030 O   0  0  0  0  0  1  0  0  0  0  0  0
  179.9940  179.9290  142.9830 C   0  0  0  0  0  1  0  0  0  0  0  0
  180.2980  178.9880  141.8720 C   0  0  0  0  0  3  0  0  0  0  0  0
  180.5010  179.4560  140.6420 C   0  0  0  0  0  3  0  0  0  0  0  0
  1  2  1  6  0  0  0
  1  3  1  0  0  0  0
  3  4  1  0  0  0  0
  4  5  1  0  0  0  0
  6  5  1  6  0  0  0
  6  8  1  0  0  0  0
  8  7  1  0  0  0  0
  9  6  1  0  0  0  0
 10  9  1  6  0  0  0
 10 11  1  0  0  0  0
 11 12  1  0  0  0  0
 12 13  1  0  0  0  0
 13 14  1  0  0  0  0
 15 16  1  0  0  0  0
 15 10  1  0  0  0  0
 16 18  2  0  0  0  0
 17 16  1  0  0  0  0
 19 17  1  0  0  0  0
 20 21  1  0  0  0  0
 20  1  1  0  0  0  0
 22 26  1  0  0  0  0
 23 27  2  0  0  0  0
 24 21  1  0  0  0  0
 24 40  1  0  0  0  0
 25 23  1  0  0  0  0
 25 22  2  0  0  0  0
 26 28  2  0  0  0  0
 27 28  1  0  0  0  0
 28 24  1  0  0  0  0
 29 32  2  0  0  0  0
 30 34  1  0  0  0  0
 30 31  2  0  0  0  0
 32 22  1  0  0  0  0
 32 33  1  0  0  0  0
 33 30  1  0  0  0  0
 35 34  1  0  0  0  0
 36 35  1  0  0  0  0
 38 37  1  0  0  0  0
 38 36  1  0  0  0  0
 40 39  1  0  0  0  0
 41  1  1  0  0  0  0
 42 45  1  0  0  0  0
 42 41  1  0  0  0  0
 43 47  1  0  0  0  0
 43 45  1  0  0  0  0
 44 43  2  0  0  0  0
 45 46  1  0  0  0  0
 47 49  1  0  0  0  0
 48 52  1  0  0  0  0
 48 53  1  0  0  0  0
 49 50  2  0  0  0  0
 50 48  2  0  0  0  0
 51 52  1  0  0  0  0
 54 56  1  0  0  0  0
 55 58  1  0  0  0  0
 55 57  1  0  0  0  0
 56 59  1  1  0  0  0
 57 53  1  1  0  0  0
 57 56  1  0  0  0  0
 58 54  1  0  0  0  0
 59 60  1  1  0  0  0
 59 63  1  0  0  0  0
 62 61  1  0  0  0  0
 63 62  2  0  0  0  0
M  END
>  <MODEL>
8

>  <REMARK>
 VINA RESULT:      -4.2      2.711      7.885
  Name = 
  31 active torsions:
  status: ('A' for Active; 'I' for Inactive)
    1  A    between atoms: C_1  and  N_12
    2  A    between atoms: C_1  and  C_22
    3  A    between atoms: C_2  and  C_22
    4  A    between atoms: C_2  and  C_35
    5  A    between atoms: C_2  and  C_44
    6  A    between atoms: C_3  and  N_37
    7  A    between atoms: C_3  and  O_40
    8  A    between atoms: C_5  and  O_42
    9  A    between atoms: O_7  and  C_18
   10  A    between atoms: O_7  and  C_20
   11  A    between atoms: C_9  and  C_36
   12  A    between atoms: N_10  and  C_33
   13  A    between atoms: N_10  and  C_44
   14  A    between atoms: C_13  and  C_29
   15  A    between atoms: C_13  and  C_54
   16  A    between atoms: C_15  and  C_39
   17  A    between atoms: N_17  and  C_35
   18  A    between atoms: N_17  and  N_48
   19  A    between atoms: C_18  and  C_36
   20  A    between atoms: C_18  and  C_57
   21  A    between atoms: C_19  and  N_48
   22  A    between atoms: C_20  and  C_47
   23  A    between atoms: C_24  and  C_46
   24  A    between atoms: C_29  and  C_31
   25  A    between atoms: C_30  and  O_42
   26  A    between atoms: C_33  and  C_53
   27  A    between atoms: N_37  and  C_51
   28  A    between atoms: C_38  and  C_39
   29  A    between atoms: C_45  and  C_53
   30  A    between atoms: C_53  and  C_57
   31  A    between atoms: C_54  and  S_55
                            x       y       z     vdW  Elec       q    Type
                         _______ _______ _______ _____ _____    ______ ____

>  <TORSDO>
F 31

$$$$
=
 OpenBabel10232411543D

 63 64  0  0  1  0  0  0  0  0999 V2000
  189.6730  177.1060  138.8870 C   0  0  1  0  0  0  0  0  0  0  0  0
  189.8460  178.2930  137.9460 C   0  0  0  0  0  1  0  0  0  0  0  0
  190.7680  176.0760  138.6120 C   0  0  0  0  0  2  0  0  0  0  0  0
  191.7540  176.5750  137.6630 N   0  0  0  0  0  2  0  0  0  0  0  0
  193.0550  176.1380  138.1500 C   0  0  0  0  0  2  0  0  0  0  0  0
  193.8330  175.4210  137.0540 C   0  0  1  0  0  3  0  0  0  0  0  0
  195.5230  176.5920  135.8400 O   0  0  0  0  0  1  0  0  0  0  0  0
  194.1480  176.3630  135.9020 C   0  0  0  0  0  2  0  0  0  0  0  0
  195.1090  174.7970  137.6090 C   0  0  0  0  0  2  0  0  0  0  0  0
  195.3090  173.4020  137.0290 C   0  0  2  0  0  3  0  0  0  0  0  0
  194.1050  172.6940  137.0470 O   0  0  0  0  0  0  0  0  0  0  0  0
  193.9660  172.1950  135.7510 C   0  0  0  0  0  2  0  0  0  0  0  0
  194.4560  170.7580  135.6920 C   0  0  0  0  0  2  0  0  0  0  0  0
  193.3080  169.7980  135.9470 C   0  0  0  0  0  1  0  0  0  0  0  0
  196.4120  172.6360  137.7700 C   0  0  0  0  0  2  0  0  0  0  0  0
  197.6900  172.4860  136.9890 C   0  0  0  0  0  0  0  0  0  0  0  0
  198.7860  173.3770  137.2080 N   0  0  0  0  0  2  0  0  0  0  0  0
  197.8290  171.5320  136.1790 O   0  0  0  0  0  0  0  0  0  0  0  0
  198.7260  174.4720  138.1630 C   0  0  0  0  0  1  0  0  0  0  0  0
  189.7510  177.5980  140.3350 C   0  0  0  0  0  2  0  0  0  0  0  0
  189.7620  176.4770  141.2730 N   0  0  0  0  0  2  0  0  0  0  0  0
  190.2720  176.8240  146.1320 C   0  0  0  0  0  0  0  0  0  0  0  0
  191.9690  175.7770  144.7670 C   0  0  0  0  0  3  0  0  0  0  0  0
  189.2950  176.9490  142.5130 N   0  0  0  0  0  0  0  0  0  0  0  0
  191.4970  176.1580  146.0260 C   0  0  0  0  0  3  0  0  0  0  0  0
  189.5520  177.1050  144.9660 C   0  0  0  0  0  3  0  0  0  0  0  0
  191.2420  176.0560  143.6520 N   0  0  0  0  0  0  0  0  0  0  0  0
  190.0470  176.7040  143.7160 C   0  0  0  0  0  0  0  0  0  0  0  0
  190.5630  177.5850  148.3490 O   0  0  0  0  0  0  0  0  0  0  0  0
  187.3180  177.6540  146.8020 C   0  0  0  0  0  0  0  0  0  0  0  0
  187.6050  178.1510  145.6800 O   0  0  0  0  0  0  0  0  0  0  0  0
  189.7510  177.2630  147.4420 C   0  0  0  0  0  0  0  0  0  0  0  0
  188.3470  177.3030  147.7320 N   0  0  0  0  0  2  0  0  0  0  0  0
  185.8880  177.5100  147.1980 C   0  0  0  0  0  2  0  0  0  0  0  0
  184.9690  177.9170  146.0580 C   0  0  0  0  0  2  0  0  0  0  0  0
  185.2880  179.3280  145.6010 C   0  0  0  0  0  2  0  0  0  0  0  0
  183.1450  178.7960  144.1550 C   0  0  0  0  0  1  0  0  0  0  0  0
  184.7690  179.5620  143.8730 S   0  0  0  0  0  0  0  0  0  0  0  0
  187.0490  176.7490  143.1310 O   0  0  0  0  0  1  0  0  0  0  0  0
  187.9900  177.5990  142.5540 C   0  0  0  0  0  2  0  0  0  0  0  0
  188.3320  176.4300  138.6010 C   0  0  0  0  0  2  0  0  0  0  0  0
  187.5230  177.1170  137.5040 C   0  0  0  0  0  2  0  0  0  0  0  0
  185.2620  176.1590  136.9960 C   0  0  0  0  0  0  0  0  0  0  0  0
  184.7400  176.8330  137.9300 O   0  0  0  0  0  0  0  0  0  0  0  0
  186.6850  176.1290  136.8420 N   0  0  0  0  0  0  0  0  0  0  0  0
  187.2360  175.3140  135.9130 O   0  0  0  0  0  1  0  0  0  0  0  0
  184.4580  175.4780  136.0800 O   0  0  0  0  0  0  0  0  0  0  0  0
  181.5610  174.1800  137.5880 C   0  0  0  0  0  0  0  0  0  0  0  0
  183.8770  174.2530  136.3890 C   0  0  0  0  0  3  0  0  0  0  0  0
  182.7160  174.2110  136.9770 C   0  0  0  0  0  0  0  0  0  0  0  0
  180.7100  171.9330  136.9520 C   0  0  0  0  0  1  0  0  0  0  0  0
  180.9340  172.9670  137.9060 O   0  0  0  0  0  0  0  0  0  0  0  0
  180.9290  175.4140  137.9200 N   0  0  0  0  0  2  0  0  0  0  0  0
  180.9690  179.0440  137.7350 N   0  0  0  0  0  2  0  0  0  0  0  0
  180.4760  177.1690  136.2900 C   0  0  0  0  0  2  0  0  0  0  0  0
  181.3470  177.8110  138.4230 C   0  0  2  0  0  3  0  0  0  0  0  0
  181.3850  176.6920  137.3870 C   0  0  1  0  0  3  0  0  0  0  0  0
  180.5570  178.6760  136.3780 C   0  0  0  0  0  2  0  0  0  0  0  0
  180.4290  177.5590  139.6320 C   0  0  1  0  0  3  0  0  0  0  0  0
  181.0400  176.6720  140.5170 O   0  0  0  0  0  1  0  0  0  0  0  0
  180.0910  180.2990  142.2910 C   0  0  0  0  0  1  0  0  0  0  0  0
  180.4750  179.0430  141.5930 C   0  0  0  0  0  3  0  0  0  0  0  0
  180.0560  178.8210  140.3480 C   0  0  0  0  0  3  0  0  0  0  0  0
  1  2  1  6  0  0  0
  1 20  1  0  0  0  0
  3  1  1  0  0  0  0
  4  5  1  0  0  0  0
  4  3  1  0  0  0  0
  6  8  1  6  0  0  0
  6  9  1  0  0  0  0
  6  5  1  0  0  0  0
  7  8  1  0  0  0  0
 10 11  1  0  0  0  0
 10  9  1  1  0  0  0
 10 15  1  0  0  0  0
 12 11  1  0  0  0  0
 13 12  1  0  0  0  0
 13 14  1  0  0  0  0
 16 17  1  0  0  0  0
 16 15  1  0  0  0  0
 17 19  1  0  0  0  0
 18 16  2  0  0  0  0
 20 21  1  0  0  0  0
 21 24  1  0  0  0  0
 22 32  1  0  0  0  0
 23 25  2  0  0  0  0
 24 40  1  0  0  0  0
 24 28  1  0  0  0  0
 25 22  1  0  0  0  0
 26 22  2  0  0  0  0
 27 28  2  0  0  0  0
 27 23  1  0  0  0  0
 28 26  1  0  0  0  0
 30 34  1  0  0  0  0
 30 33  1  0  0  0  0
 31 30  2  0  0  0  0
 32 33  1  0  0  0  0
 32 29  2  0  0  0  0
 35 34  1  0  0  0  0
 36 35  1  0  0  0  0
 38 37  1  0  0  0  0
 38 36  1  0  0  0  0
 40 39  1  0  0  0  0
 41  1  1  0  0  0  0
 42 41  1  0  0  0  0
 43 44  2  0  0  0  0
 45 43  1  0  0  0  0
 45 42  1  0  0  0  0
 46 45  1  0  0  0  0
 47 49  1  0  0  0  0
 47 43  1  0  0  0  0
 48 52  1  0  0  0  0
 48 53  1  0  0  0  0
 49 50  2  0  0  0  0
 50 48  2  0  0  0  0
 51 52  1  0  0  0  0
 54 56  1  0  0  0  0
 55 58  1  0  0  0  0
 55 57  1  0  0  0  0
 56 59  1  1  0  0  0
 57 53  1  1  0  0  0
 57 56  1  0  0  0  0
 58 54  1  0  0  0  0
 59 63  1  0  0  0  0
 59 60  1  1  0  0  0
 62 61  1  0  0  0  0
 63 62  2  0  0  0  0
M  END
>  <MODEL>
9

>  <REMARK>
 VINA RESULT:      -4.1      2.965     10.682
  Name = 
  31 active torsions:
  status: ('A' for Active; 'I' for Inactive)
    1  A    between atoms: C_1  and  N_12
    2  A    between atoms: C_1  and  C_22
    3  A    between atoms: C_2  and  C_22
    4  A    between atoms: C_2  and  C_35
    5  A    between atoms: C_2  and  C_44
    6  A    between atoms: C_3  and  N_37
    7  A    between atoms: C_3  and  O_40
    8  A    between atoms: C_5  and  O_42
    9  A    between atoms: O_7  and  C_18
   10  A    between atoms: O_7  and  C_20
   11  A    between atoms: C_9  and  C_36
   12  A    between atoms: N_10  and  C_33
   13  A    between atoms: N_10  and  C_44
   14  A    between atoms: C_13  and  C_29
   15  A    between atoms: C_13  and  C_54
   16  A    between atoms: C_15  and  C_39
   17  A    between atoms: N_17  and  C_35
   18  A    between atoms: N_17  and  N_48
   19  A    between atoms: C_18  and  C_36
   20  A    between atoms: C_18  and  C_57
   21  A    between atoms: C_19  and  N_48
   22  A    between atoms: C_20  and  C_47
   23  A    between atoms: C_24  and  C_46
   24  A    between atoms: C_29  and  C_31
   25  A    between atoms: C_30  and  O_42
   26  A    between atoms: C_33  and  C_53
   27  A    between atoms: N_37  and  C_51
   28  A    between atoms: C_38  and  C_39
   29  A    between atoms: C_45  and  C_53
   30  A    between atoms: C_53  and  C_57
   31  A    between atoms: C_54  and  S_55
                            x       y       z     vdW  Elec       q    Type
                         _______ _______ _______ _____ _____    ______ ____

>  <TORSDO>
F 31

$$$$
