=
 OpenBabel10232408233D

 30 32  0  0  1  0  0  0  0  0999 V2000
  188.1740  178.3080  147.2140 O   0  0  0  0  0  1  0  0  0  0  0  0
  187.4800  177.3430  145.1140 C   0  0  0  0  0  0  0  0  0  0  0  0
  186.2360  178.0380  145.1680 N   0  0  0  0  0  0  0  0  0  0  0  0
  187.7250  176.5930  144.1320 O   0  0  0  0  0  0  0  0  0  0  0  0
  184.8740  178.3920  144.6030 C   0  0  1  0  0  0  0  0  0  0  0  0
  184.6650  179.7710  143.9510 C   0  0  0  0  0  2  0  0  0  0  0  0
  185.2910  178.7150  143.1570 C   0  0  2  0  0  3  0  0  0  0  0  0
  188.4380  177.4920  146.1670 N   0  0  0  0  0  0  0  0  0  0  0  0
  185.2810  178.9360  145.8140 C   0  0  0  0  0  2  0  0  0  0  0  0
  184.1570  178.5950  140.9070 C   0  0  0  0  0  0  0  0  0  0  0  0
  184.3190  178.1290  142.2470 N   0  0  0  0  0  2  0  0  0  0  0  0
  184.4370  179.8010  139.0750 N   0  0  0  0  0  2  0  0  0  0  0  0
  183.4960  178.7930  138.7150 C   0  0  0  0  0  0  0  0  0  0  0  0
  184.8110  179.5960  140.4120 N   0  0  0  0  0  0  0  0  0  0  0  0
  182.5850  179.0250  137.8310 N   0  0  0  0  0  2  0  0  0  0  0  0
  182.6460  176.8640  140.0820 N   0  0  0  0  0  0  0  0  0  0  0  0
  183.2830  177.9880  139.9180 C   0  0  0  0  0  0  0  0  0  0  0  0
  181.8820  176.1110  139.1260 C   0  0  0  0  0  0  0  0  0  0  0  0
  180.6280  176.2300  139.0460 O   0  0  0  0  0  0  0  0  0  0  0  0
  182.5800  175.1980  138.2010 C   0  0  0  0  0  0  0  0  0  0  0  0
  183.8350  175.2310  138.1070 O   0  0  0  0  0  0  0  0  0  0  0  0
  182.6450  173.1280  137.0970 F   0  0  0  0  0  0  0  0  0  0  0  0
  181.8180  174.1920  137.4060 C   0  0  0  0  0  2  0  0  0  0  0  0
  189.6710  176.7130  146.1680 C   0  0  0  0  0  2  0  0  0  0  0  0
  190.7800  177.4750  145.4640 C   0  0  0  0  0  2  0  0  0  0  0  0
  191.4930  176.5850  144.5630 N   0  0  0  0  0  2  0  0  0  0  0  0
  190.2040  175.7640  142.1980 O   0  0  0  0  0  1  0  0  0  0  0  0
  192.3140  177.3140  142.1240 O   0  0  0  0  0  0  0  0  0  0  0  0
  191.0640  177.0270  142.9230 P   0  0  0  0  0  0  0  0  0  0  0  0
  190.0980  178.4130  142.9610 O   0  0  0  0  0  1  0  0  0  0  0  0
  2  3  1  0  0  0  0
  2  8  1  0  0  0  0
  3  9  1  0  0  0  0
  4  2  2  0  0  0  0
  5  6  1  6  0  0  0
  5  3  1  0  0  0  0
  5  9  1  0  0  0  0
  7 11  1  6  0  0  0
  7  6  1  0  0  0  0
  7  5  1  0  0  0  0
  8 24  1  0  0  0  0
  8  1  1  0  0  0  0
 10 11  1  0  0  0  0
 12 14  1  0  0  0  0
 13 12  1  0  0  0  0
 13 17  1  0  0  0  0
 14 10  2  0  0  0  0
 15 13  2  0  0  0  0
 17 16  2  0  0  0  0
 17 10  1  0  0  0  0
 18 16  1  0  0  0  0
 19 18  2  0  0  0  0
 20 18  1  0  0  0  0
 21 20  2  0  0  0  0
 22 23  1  0  0  0  0
 23 20  1  0  0  0  0
 25 24  1  0  0  0  0
 26 25  1  0  0  0  0
 27 29  1  0  0  0  0
 28 29  2  0  0  0  0
 29 30  1  0  0  0  0
 29 26  1  0  0  0  0
M  END
>  <MODEL>
1

>  <REMARK>
 VINA RESULT:      -7.2      0.000      0.000
  Name = 
  8 active torsions:
  status: ('A' for Active; 'I' for Inactive)
    1  A    between atoms: C_2  and  C_13
    2  A    between atoms: C_2  and  N_29
    3  A    between atoms: C_3  and  C_12
    4  A    between atoms: C_3  and  N_19
    5  A    between atoms: N_4  and  C_25
    6  A    between atoms: N_8  and  C_13
    7  A    between atoms: N_8  and  P_24
    8  A    between atoms: C_12  and  C_27
                            x       y       z     vdW  Elec       q    Type
                         _______ _______ _______ _____ _____    ______ ____

>  <TORSDO>
F 8

$$$$
=
 OpenBabel10232408233D

 30 32  0  0  1  0  0  0  0  0999 V2000
  188.8930  178.1900  147.6940 O   0  0  0  0  0  1  0  0  0  0  0  0
  188.3420  177.4460  145.4650 C   0  0  0  0  0  0  0  0  0  0  0  0
  189.7200  177.4210  145.0970 N   0  0  0  0  0  0  0  0  0  0  0  0
  187.4720  177.1150  144.6170 O   0  0  0  0  0  0  0  0  0  0  0  0
  190.8350  177.1860  144.0970 C   0  0  1  0  0  0  0  0  0  0  0  0
  191.7040  175.9210  144.2230 C   0  0  0  0  0  2  0  0  0  0  0  0
  190.4000  175.8050  143.5730 C   0  0  2  0  0  3  0  0  0  0  0  0
  187.9520  177.8470  146.7830 N   0  0  0  0  0  0  0  0  0  0  0  0
  191.1390  177.6210  145.3800 C   0  0  0  0  0  2  0  0  0  0  0  0
  189.9160  176.7290  141.2770 C   0  0  0  0  0  0  0  0  0  0  0  0
  190.5600  175.7810  142.1280 N   0  0  0  0  0  2  0  0  0  0  0  0
  188.6460  178.4200  140.6310 N   0  0  0  0  0  2  0  0  0  0  0  0
  189.2780  177.9560  139.4410 C   0  0  0  0  0  0  0  0  0  0  0  0
  189.1060  177.6430  141.7050 N   0  0  0  0  0  0  0  0  0  0  0  0
  188.6830  178.0450  138.2990 N   0  0  0  0  0  2  0  0  0  0  0  0
  191.0090  176.1540  139.1700 N   0  0  0  0  0  0  0  0  0  0  0  0
  190.1160  176.8240  139.8410 C   0  0  0  0  0  0  0  0  0  0  0  0
  191.3830  176.2810  137.7890 C   0  0  0  0  0  0  0  0  0  0  0  0
  190.5240  176.2260  136.8670 O   0  0  0  0  0  0  0  0  0  0  0  0
  192.7990  176.5040  137.4420 C   0  0  0  0  0  0  0  0  0  0  0  0
  193.5910  176.9870  138.2930 O   0  0  0  0  0  0  0  0  0  0  0  0
  194.4350  176.8810  135.8010 F   0  0  0  0  0  0  0  0  0  0  0  0
  193.3240  176.1140  136.1000 C   0  0  0  0  0  2  0  0  0  0  0  0
  186.5430  177.9680  147.1380 C   0  0  0  0  0  2  0  0  0  0  0  0
  185.8560  178.9830  146.2400 C   0  0  0  0  0  2  0  0  0  0  0  0
  184.4490  178.6480  146.1060 N   0  0  0  0  0  2  0  0  0  0  0  0
  184.7420  177.9650  143.3890 O   0  0  0  0  0  0  0  0  0  0  0  0
  184.3330  180.4450  144.1280 O   0  0  0  0  0  1  0  0  0  0  0  0
  183.9660  179.0170  144.4630 P   0  0  0  0  0  0  0  0  0  0  0  0
  182.2930  178.8260  144.3260 O   0  0  0  0  0  1  0  0  0  0  0  0
  2  8  1  0  0  0  0
  3  9  1  0  0  0  0
  3  2  1  0  0  0  0
  4  2  2  0  0  0  0
  5  6  1  1  0  0  0
  5  3  1  0  0  0  0
  5  9  1  0  0  0  0
  7 11  1  6  0  0  0
  7  5  1  0  0  0  0
  7  6  1  0  0  0  0
  8 24  1  0  0  0  0
  8  1  1  0  0  0  0
 10 14  2  0  0  0  0
 10 11  1  0  0  0  0
 12 14  1  0  0  0  0
 13 17  1  0  0  0  0
 13 12  1  0  0  0  0
 15 13  2  0  0  0  0
 16 17  2  0  0  0  0
 17 10  1  0  0  0  0
 18 16  1  0  0  0  0
 19 18  2  0  0  0  0
 20 18  1  0  0  0  0
 20 21  2  0  0  0  0
 22 23  1  0  0  0  0
 23 20  1  0  0  0  0
 25 24  1  0  0  0  0
 26 25  1  0  0  0  0
 27 29  2  0  0  0  0
 28 29  1  0  0  0  0
 29 26  1  0  0  0  0
 30 29  1  0  0  0  0
M  END
>  <MODEL>
2

>  <REMARK>
 VINA RESULT:      -6.9      5.099      7.139
  Name = 
  8 active torsions:
  status: ('A' for Active; 'I' for Inactive)
    1  A    between atoms: C_2  and  C_13
    2  A    between atoms: C_2  and  N_29
    3  A    between atoms: C_3  and  C_12
    4  A    between atoms: C_3  and  N_19
    5  A    between atoms: N_4  and  C_25
    6  A    between atoms: N_8  and  C_13
    7  A    between atoms: N_8  and  P_24
    8  A    between atoms: C_12  and  C_27
                            x       y       z     vdW  Elec       q    Type
                         _______ _______ _______ _____ _____    ______ ____

>  <TORSDO>
F 8

$$$$
=
 OpenBabel10232408233D

 30 32  0  0  1  0  0  0  0  0999 V2000
  191.1050  177.6730  147.2450 O   0  0  0  0  0  1  0  0  0  0  0  0
  189.5900  177.2010  145.4270 C   0  0  0  0  0  0  0  0  0  0  0  0
  190.5340  177.6840  144.4720 N   0  0  0  0  0  0  0  0  0  0  0  0
  188.4780  176.7650  145.0270 O   0  0  0  0  0  0  0  0  0  0  0  0
  190.9590  178.0010  143.0520 C   0  0  1  0  0  0  0  0  0  0  0  0
  191.9720  177.0810  142.3470 C   0  0  0  0  0  2  0  0  0  0  0  0
  190.5700  176.6710  142.3820 C   0  0  2  0  0  3  0  0  0  0  0  0
  189.9030  177.2140  146.8230 N   0  0  0  0  0  0  0  0  0  0  0  0
  191.8190  178.2750  144.1070 C   0  0  0  0  0  2  0  0  0  0  0  0
  188.6630  177.6100  141.0230 C   0  0  0  0  0  0  0  0  0  0  0  0
  189.9300  176.9570  141.1080 N   0  0  0  0  0  2  0  0  0  0  0  0
  186.7750  178.5770  141.6460 N   0  0  0  0  0  2  0  0  0  0  0  0
  186.7850  178.6640  140.2240 C   0  0  0  0  0  0  0  0  0  0  0  0
  187.9610  177.9490  142.0560 N   0  0  0  0  0  0  0  0  0  0  0  0
  185.6820  178.6430  139.5530 N   0  0  0  0  0  2  0  0  0  0  0  0
  188.5790  177.9660  138.6090 N   0  0  0  0  0  0  0  0  0  0  0  0
  188.0210  178.0170  139.7850 C   0  0  0  0  0  0  0  0  0  0  0  0
  188.0920  178.4740  137.3570 C   0  0  0  0  0  0  0  0  0  0  0  0
  188.2650  179.6790  137.0230 O   0  0  0  0  0  0  0  0  0  0  0  0
  187.3980  177.5620  136.4280 C   0  0  0  0  0  0  0  0  0  0  0  0
  186.6500  176.6530  136.8760 O   0  0  0  0  0  0  0  0  0  0  0  0
  188.8670  177.7710  134.6100 F   0  0  0  0  0  0  0  0  0  0  0  0
  187.5280  177.7350  134.9520 C   0  0  0  0  0  2  0  0  0  0  0  0
  188.9100  176.8110  147.8120 C   0  0  0  0  0  2  0  0  0  0  0  0
  187.8430  177.8840  147.9590 C   0  0  0  0  0  2  0  0  0  0  0  0
  186.5760  177.3890  147.4500 N   0  0  0  0  0  2  0  0  0  0  0  0
  186.0190  180.1420  147.6620 O   0  0  0  0  0  1  0  0  0  0  0  0
  184.2270  178.4620  146.7510 O   0  0  0  0  0  1  0  0  0  0  0  0
  185.7120  178.7460  146.7560 P   0  0  0  0  0  0  0  0  0  0  0  0
  186.2390  178.9810  145.1690 O   0  0  0  0  0  0  0  0  0  0  0  0
  2  8  1  0  0  0  0
  3  2  1  0  0  0  0
  4  2  2  0  0  0  0
  5  6  1  1  0  0  0
  5  9  1  0  0  0  0
  5  3  1  0  0  0  0
  6  7  1  0  0  0  0
  7 11  1  6  0  0  0
  7  5  1  0  0  0  0
  8  1  1  0  0  0  0
  8 24  1  0  0  0  0
  9  3  1  0  0  0  0
 10 11  1  0  0  0  0
 10 14  2  0  0  0  0
 12 14  1  0  0  0  0
 13 12  1  0  0  0  0
 15 13  2  0  0  0  0
 16 17  2  0  0  0  0
 17 13  1  0  0  0  0
 17 10  1  0  0  0  0
 18 16  1  0  0  0  0
 19 18  2  0  0  0  0
 20 21  2  0  0  0  0
 20 18  1  0  0  0  0
 22 23  1  0  0  0  0
 23 20  1  0  0  0  0
 24 25  1  0  0  0  0
 26 25  1  0  0  0  0
 28 29  1  0  0  0  0
 29 26  1  0  0  0  0
 29 27  1  0  0  0  0
 30 29  2  0  0  0  0
M  END
>  <MODEL>
3

>  <REMARK>
 VINA RESULT:      -6.6      3.989      5.611
  Name = 
  8 active torsions:
  status: ('A' for Active; 'I' for Inactive)
    1  A    between atoms: C_2  and  C_13
    2  A    between atoms: C_2  and  N_29
    3  A    between atoms: C_3  and  C_12
    4  A    between atoms: C_3  and  N_19
    5  A    between atoms: N_4  and  C_25
    6  A    between atoms: N_8  and  C_13
    7  A    between atoms: N_8  and  P_24
    8  A    between atoms: C_12  and  C_27
                            x       y       z     vdW  Elec       q    Type
                         _______ _______ _______ _____ _____    ______ ____

>  <TORSDO>
F 8

$$$$
=
 OpenBabel10232408233D

 30 32  0  0  1  0  0  0  0  0999 V2000
  185.4830  178.1810  146.5070 O   0  0  0  0  0  1  0  0  0  0  0  0
  187.1760  177.8000  144.8300 C   0  0  0  0  0  0  0  0  0  0  0  0
  186.2260  177.9850  143.7820 N   0  0  0  0  0  0  0  0  0  0  0  0
  188.3750  177.5460  144.5380 O   0  0  0  0  0  0  0  0  0  0  0  0
  185.8430  178.0360  142.3160 C   0  0  1  0  0  0  0  0  0  0  0  0
  185.5980  179.4020  141.6500 C   0  0  0  0  0  2  0  0  0  0  0  0
  186.9770  178.9410  141.8030 C   0  0  2  0  0  3  0  0  0  0  0  0
  186.7710  177.8970  146.1990 N   0  0  0  0  0  0  0  0  0  0  0  0
  184.8760  178.2470  143.2900 C   0  0  0  0  0  2  0  0  0  0  0  0
  188.7510  177.7840  140.4330 C   0  0  0  0  0  0  0  0  0  0  0  0
  187.4700  178.4070  140.5440 N   0  0  0  0  0  2  0  0  0  0  0  0
  190.7490  177.0210  140.9920 N   0  0  0  0  0  2  0  0  0  0  0  0
  190.5710  176.6320  139.6330 C   0  0  0  0  0  0  0  0  0  0  0  0
  189.5900  177.6910  141.4140 N   0  0  0  0  0  0  0  0  0  0  0  0
  191.5820  176.5380  138.8350 N   0  0  0  0  0  2  0  0  0  0  0  0
  188.5590  176.9230  138.1560 N   0  0  0  0  0  0  0  0  0  0  0  0
  189.2580  177.1390  139.2340 C   0  0  0  0  0  0  0  0  0  0  0  0
  188.9160  176.1730  136.9840 C   0  0  0  0  0  0  0  0  0  0  0  0
  189.3910  176.7380  135.9610 O   0  0  0  0  0  0  0  0  0  0  0  0
  188.7480  174.7070  136.9860 C   0  0  0  0  0  0  0  0  0  0  0  0
  189.6960  173.9620  137.3490 O   0  0  0  0  0  0  0  0  0  0  0  0
  186.6210  174.0390  137.7190 F   0  0  0  0  0  0  0  0  0  0  0  0
  187.4430  174.0910  136.6080 C   0  0  0  0  0  2  0  0  0  0  0  0
  187.7120  177.6150  147.2760 C   0  0  0  0  0  2  0  0  0  0  0  0
  189.1330  177.5700  146.7400 C   0  0  0  0  0  2  0  0  0  0  0  0
  189.7630  176.3180  147.1220 N   0  0  0  0  0  2  0  0  0  0  0  0
  192.2650  175.0350  146.9820 O   0  0  0  0  0  1  0  0  0  0  0  0
  191.9820  177.3210  148.2280 O   0  0  0  0  0  1  0  0  0  0  0  0
  191.4980  176.5410  147.0270 P   0  0  0  0  0  0  0  0  0  0  0  0
  191.8660  177.4010  145.6200 O   0  0  0  0  0  0  0  0  0  0  0  0
  2  8  1  0  0  0  0
  3  2  1  0  0  0  0
  4  2  2  0  0  0  0
  5  6  1  1  0  0  0
  5  9  1  0  0  0  0
  5  3  1  0  0  0  0
  6  7  1  0  0  0  0
  7 11  1  6  0  0  0
  7  5  1  0  0  0  0
  8  1  1  0  0  0  0
  8 24  1  0  0  0  0
  9  3  1  0  0  0  0
 10 11  1  0  0  0  0
 10 14  2  0  0  0  0
 12 14  1  0  0  0  0
 13 12  1  0  0  0  0
 15 13  2  0  0  0  0
 16 17  2  0  0  0  0
 17 13  1  0  0  0  0
 17 10  1  0  0  0  0
 18 20  1  0  0  0  0
 18 16  1  0  0  0  0
 19 18  2  0  0  0  0
 20 21  2  0  0  0  0
 23 20  1  0  0  0  0
 23 22  1  0  0  0  0
 25 26  1  0  0  0  0
 25 24  1  0  0  0  0
 27 29  1  0  0  0  0
 29 26  1  0  0  0  0
 29 28  1  0  0  0  0
 30 29  2  0  0  0  0
M  END
>  <MODEL>
4

>  <REMARK>
 VINA RESULT:      -6.4      3.979      5.004
  Name = 
  8 active torsions:
  status: ('A' for Active; 'I' for Inactive)
    1  A    between atoms: C_2  and  C_13
    2  A    between atoms: C_2  and  N_29
    3  A    between atoms: C_3  and  C_12
    4  A    between atoms: C_3  and  N_19
    5  A    between atoms: N_4  and  C_25
    6  A    between atoms: N_8  and  C_13
    7  A    between atoms: N_8  and  P_24
    8  A    between atoms: C_12  and  C_27
                            x       y       z     vdW  Elec       q    Type
                         _______ _______ _______ _____ _____    ______ ____

>  <TORSDO>
F 8

$$$$
=
 OpenBabel10232408233D

 30 32  0  0  1  0  0  0  0  0999 V2000
  188.7460  177.9560  145.1160 O   0  0  0  0  0  1  0  0  0  0  0  0
  188.3510  178.0140  142.7360 C   0  0  0  0  0  0  0  0  0  0  0  0
  186.9390  178.0280  142.9370 N   0  0  0  0  0  0  0  0  0  0  0  0
  188.8070  178.0370  141.5620 O   0  0  0  0  0  0  0  0  0  0  0  0
  185.5140  178.0510  142.4220 C   0  0  1  0  0  0  0  0  0  0  0  0
  184.7020  179.3560  142.5120 C   0  0  0  0  0  2  0  0  0  0  0  0
  185.6440  179.1990  141.4050 C   0  0  2  0  0  3  0  0  0  0  0  0
  189.2410  177.9690  143.8560 N   0  0  0  0  0  0  0  0  0  0  0  0
  185.7530  178.0110  143.7890 C   0  0  0  0  0  2  0  0  0  0  0  0
  185.6180  178.4120  139.0090 C   0  0  0  0  0  0  0  0  0  0  0  0
  184.9340  178.8320  140.1900 N   0  0  0  0  0  2  0  0  0  0  0  0
  187.2710  177.9110  137.6280 N   0  0  0  0  0  2  0  0  0  0  0  0
  186.0800  177.5970  136.9110 C   0  0  0  0  0  0  0  0  0  0  0  0
  186.9070  178.3740  138.9020 N   0  0  0  0  0  0  0  0  0  0  0  0
  186.0350  177.7080  135.6250 N   0  0  0  0  0  2  0  0  0  0  0  0
  183.6930  177.6940  137.6900 N   0  0  0  0  0  0  0  0  0  0  0  0
  184.9680  177.9340  137.8010 C   0  0  0  0  0  0  0  0  0  0  0  0
  182.9800  177.0880  136.6000 C   0  0  0  0  0  0  0  0  0  0  0  0
  182.3110  177.7810  135.7840 O   0  0  0  0  0  0  0  0  0  0  0  0
  183.0510  175.6260  136.4130 C   0  0  0  0  0  0  0  0  0  0  0  0
  183.4570  175.1460  135.3220 O   0  0  0  0  0  0  0  0  0  0  0  0
  183.7290  174.6630  138.4440 F   0  0  0  0  0  0  0  0  0  0  0  0
  182.6950  174.6990  137.5270 C   0  0  0  0  0  2  0  0  0  0  0  0
  190.6820  177.8570  143.6590 C   0  0  0  0  0  2  0  0  0  0  0  0
  191.2710  176.8400  144.6220 C   0  0  0  0  0  2  0  0  0  0  0  0
  191.8320  177.5220  145.7740 N   0  0  0  0  0  2  0  0  0  0  0  0
  192.3560  177.1780  148.5200 O   0  0  0  0  0  1  0  0  0  0  0  0
  192.2020  175.1240  146.9020 O   0  0  0  0  0  0  0  0  0  0  0  0
  191.6060  176.4870  147.1700 P   0  0  0  0  0  0  0  0  0  0  0  0
  189.9520  176.3220  147.4710 O   0  0  0  0  0  1  0  0  0  0  0  0
  2  3  1  0  0  0  0
  2  8  1  0  0  0  0
  3  9  1  0  0  0  0
  4  2  2  0  0  0  0
  5  6  1  1  0  0  0
  5  3  1  0  0  0  0
  5  9  1  0  0  0  0
  7 11  1  6  0  0  0
  7  5  1  0  0  0  0
  7  6  1  0  0  0  0
  8  1  1  0  0  0  0
 10 11  1  0  0  0  0
 12 14  1  0  0  0  0
 13 12  1  0  0  0  0
 13 17  1  0  0  0  0
 14 10  2  0  0  0  0
 15 13  2  0  0  0  0
 16 17  2  0  0  0  0
 17 10  1  0  0  0  0
 18 16  1  0  0  0  0
 19 18  2  0  0  0  0
 20 18  1  0  0  0  0
 20 23  1  0  0  0  0
 21 20  2  0  0  0  0
 23 22  1  0  0  0  0
 24  8  1  0  0  0  0
 24 25  1  0  0  0  0
 25 26  1  0  0  0  0
 26 29  1  0  0  0  0
 28 29  2  0  0  0  0
 29 30  1  0  0  0  0
 29 27  1  0  0  0  0
M  END
>  <MODEL>
5

>  <REMARK>
 VINA RESULT:      -6.3      2.672      3.158
  Name = 
  8 active torsions:
  status: ('A' for Active; 'I' for Inactive)
    1  A    between atoms: C_2  and  C_13
    2  A    between atoms: C_2  and  N_29
    3  A    between atoms: C_3  and  C_12
    4  A    between atoms: C_3  and  N_19
    5  A    between atoms: N_4  and  C_25
    6  A    between atoms: N_8  and  C_13
    7  A    between atoms: N_8  and  P_24
    8  A    between atoms: C_12  and  C_27
                            x       y       z     vdW  Elec       q    Type
                         _______ _______ _______ _____ _____    ______ ____

>  <TORSDO>
F 8

$$$$
=
 OpenBabel10232408233D

 30 32  0  0  1  0  0  0  0  0999 V2000
  183.3590  178.8960  144.7310 O   0  0  0  0  0  1  0  0  0  0  0  0
  185.1500  178.6590  143.1320 C   0  0  0  0  0  0  0  0  0  0  0  0
  184.2210  178.4160  142.0780 N   0  0  0  0  0  0  0  0  0  0  0  0
  186.3840  178.6640  142.8780 O   0  0  0  0  0  0  0  0  0  0  0  0
  183.8880  178.1120  140.6300 C   0  0  1  0  0  0  0  0  0  0  0  0
  183.3380  179.2350  139.7340 C   0  0  0  0  0  2  0  0  0  0  0  0
  184.7810  179.1660  139.9520 C   0  0  2  0  0  3  0  0  0  0  0  0
  184.6860  178.8920  144.4660 N   0  0  0  0  0  0  0  0  0  0  0  0
  182.8660  178.2430  141.5610 C   0  0  0  0  0  2  0  0  0  0  0  0
  186.8150  178.1920  138.8210 C   0  0  0  0  0  0  0  0  0  0  0  0
  185.4350  178.5580  138.8040 N   0  0  0  0  0  2  0  0  0  0  0  0
  188.8900  177.9330  139.5390 N   0  0  0  0  0  2  0  0  0  0  0  0
  188.8630  177.3180  138.2530 C   0  0  0  0  0  0  0  0  0  0  0  0
  187.6030  178.4150  139.8230 N   0  0  0  0  0  0  0  0  0  0  0  0
  189.9130  177.3090  137.5030 N   0  0  0  0  0  2  0  0  0  0  0  0
  186.9140  176.9810  136.7030 N   0  0  0  0  0  0  0  0  0  0  0  0
  187.4990  177.4890  137.7490 C   0  0  0  0  0  0  0  0  0  0  0  0
  187.4700  176.1500  135.6720 C   0  0  0  0  0  0  0  0  0  0  0  0
  187.8920  176.6400  134.5880 O   0  0  0  0  0  0  0  0  0  0  0  0
  187.5750  174.6960  135.8940 C   0  0  0  0  0  0  0  0  0  0  0  0
  188.6790  174.1100  135.7370 O   0  0  0  0  0  0  0  0  0  0  0  0
  186.2380  174.0720  137.7190 F   0  0  0  0  0  0  0  0  0  0  0  0
  186.3940  173.9090  136.3550 C   0  0  0  0  0  2  0  0  0  0  0  0
  185.6300  179.0460  145.5670 C   0  0  0  0  0  2  0  0  0  0  0  0
  186.3800  177.7470  145.8090 C   0  0  0  0  0  2  0  0  0  0  0  0
  187.5890  178.0110  146.5680 N   0  0  0  0  0  2  0  0  0  0  0  0
  189.9940  176.5450  146.5640 O   0  0  0  0  0  1  0  0  0  0  0  0
  189.6980  178.6700  145.0600 O   0  0  0  0  0  1  0  0  0  0  0  0
  188.9520  177.4740  145.6070 P   0  0  0  0  0  0  0  0  0  0  0  0
  188.3840  176.5360  144.3220 O   0  0  0  0  0  0  0  0  0  0  0  0
  2  8  1  0  0  0  0
  3  2  1  0  0  0  0
  4  2  2  0  0  0  0
  5  6  1  1  0  0  0
  5  9  1  0  0  0  0
  5  3  1  0  0  0  0
  6  7  1  0  0  0  0
  7 11  1  6  0  0  0
  7  5  1  0  0  0  0
  8  1  1  0  0  0  0
  8 24  1  0  0  0  0
  9  3  1  0  0  0  0
 10 14  2  0  0  0  0
 11 10  1  0  0  0  0
 12 14  1  0  0  0  0
 13 12  1  0  0  0  0
 15 13  2  0  0  0  0
 16 17  2  0  0  0  0
 17 13  1  0  0  0  0
 17 10  1  0  0  0  0
 18 20  1  0  0  0  0
 18 16  1  0  0  0  0
 19 18  2  0  0  0  0
 20 23  1  0  0  0  0
 21 20  2  0  0  0  0
 23 22  1  0  0  0  0
 24 25  1  0  0  0  0
 25 26  1  0  0  0  0
 28 29  1  0  0  0  0
 29 27  1  0  0  0  0
 29 26  1  0  0  0  0
 30 29  2  0  0  0  0
M  END
>  <MODEL>
6

>  <REMARK>
 VINA RESULT:      -6.3      3.545      4.777
  Name = 
  8 active torsions:
  status: ('A' for Active; 'I' for Inactive)
    1  A    between atoms: C_2  and  C_13
    2  A    between atoms: C_2  and  N_29
    3  A    between atoms: C_3  and  C_12
    4  A    between atoms: C_3  and  N_19
    5  A    between atoms: N_4  and  C_25
    6  A    between atoms: N_8  and  C_13
    7  A    between atoms: N_8  and  P_24
    8  A    between atoms: C_12  and  C_27
                            x       y       z     vdW  Elec       q    Type
                         _______ _______ _______ _____ _____    ______ ____

>  <TORSDO>
F 8

$$$$
=
 OpenBabel10232408233D

 30 32  0  0  1  0  0  0  0  0999 V2000
  186.9380  177.9630  147.4830 O   0  0  0  0  0  1  0  0  0  0  0  0
  186.9560  177.6790  145.0860 C   0  0  0  0  0  0  0  0  0  0  0  0
  185.6410  178.2210  144.9790 N   0  0  0  0  0  0  0  0  0  0  0  0
  187.5580  177.3100  144.0430 O   0  0  0  0  0  0  0  0  0  0  0  0
  184.4240  178.6330  144.1750 C   0  0  1  0  0  0  0  0  0  0  0  0
  184.1610  180.1280  143.9200 C   0  0  0  0  0  2  0  0  0  0  0  0
  185.1290  179.4380  143.0680 C   0  0  2  0  0  3  0  0  0  0  0  0
  187.5850  177.5530  146.3660 N   0  0  0  0  0  0  0  0  0  0  0  0
  184.4230  178.7840  145.5550 C   0  0  0  0  0  2  0  0  0  0  0  0
  185.3080  178.7770  140.6410 C   0  0  0  0  0  0  0  0  0  0  0  0
  184.5240  179.1060  141.7880 N   0  0  0  0  0  2  0  0  0  0  0  0
  187.0740  178.4180  139.3610 N   0  0  0  0  0  2  0  0  0  0  0  0
  185.9530  178.0920  138.5440 C   0  0  0  0  0  0  0  0  0  0  0  0
  186.6020  178.7980  140.6260 N   0  0  0  0  0  0  0  0  0  0  0  0
  185.9930  178.2680  137.2660 N   0  0  0  0  0  2  0  0  0  0  0  0
  183.5150  178.0490  139.1520 N   0  0  0  0  0  0  0  0  0  0  0  0
  184.7670  178.3350  139.3660 C   0  0  0  0  0  0  0  0  0  0  0  0
  182.9090  177.4710  137.9840 C   0  0  0  0  0  0  0  0  0  0  0  0
  183.1330  176.2750  137.6500 O   0  0  0  0  0  0  0  0  0  0  0  0
  181.9850  178.2850  137.1720 C   0  0  0  0  0  0  0  0  0  0  0  0
  181.3840  179.2640  137.6870 O   0  0  0  0  0  0  0  0  0  0  0  0
  183.0190  177.9450  135.0920 F   0  0  0  0  0  0  0  0  0  0  0  0
  181.7890  177.9930  135.7220 C   0  0  0  0  0  2  0  0  0  0  0  0
  188.8890  176.9130  146.4950 C   0  0  0  0  0  2  0  0  0  0  0  0
  189.9770  177.8060  145.9220 C   0  0  0  0  0  2  0  0  0  0  0  0
  190.8330  177.0330  145.0400 N   0  0  0  0  0  2  0  0  0  0  0  0
  189.7210  178.4240  142.8590 O   0  0  0  0  0  1  0  0  0  0  0  0
  192.0530  177.2470  142.6690 O   0  0  0  0  0  0  0  0  0  0  0  0
  191.1700  178.0130  143.6270 P   0  0  0  0  0  0  0  0  0  0  0  0
  191.9670  179.4210  144.1130 O   0  0  0  0  0  1  0  0  0  0  0  0
  2  8  1  0  0  0  0
  3  2  1  0  0  0  0
  3  9  1  0  0  0  0
  4  2  2  0  0  0  0
  5  6  1  1  0  0  0
  5  3  1  0  0  0  0
  5  9  1  0  0  0  0
  7 11  1  6  0  0  0
  7  6  1  0  0  0  0
  7  5  1  0  0  0  0
  8 24  1  0  0  0  0
  8  1  1  0  0  0  0
 10 11  1  0  0  0  0
 12 14  1  0  0  0  0
 13 12  1  0  0  0  0
 13 17  1  0  0  0  0
 14 10  2  0  0  0  0
 15 13  2  0  0  0  0
 16 17  2  0  0  0  0
 17 10  1  0  0  0  0
 18 16  1  0  0  0  0
 19 18  2  0  0  0  0
 20 21  2  0  0  0  0
 20 18  1  0  0  0  0
 22 23  1  0  0  0  0
 23 20  1  0  0  0  0
 25 24  1  0  0  0  0
 26 25  1  0  0  0  0
 27 29  1  0  0  0  0
 28 29  2  0  0  0  0
 29 30  1  0  0  0  0
 29 26  1  0  0  0  0
M  END
>  <MODEL>
7

>  <REMARK>
 VINA RESULT:      -6.2      1.927      2.271
  Name = 
  8 active torsions:
  status: ('A' for Active; 'I' for Inactive)
    1  A    between atoms: C_2  and  C_13
    2  A    between atoms: C_2  and  N_29
    3  A    between atoms: C_3  and  C_12
    4  A    between atoms: C_3  and  N_19
    5  A    between atoms: N_4  and  C_25
    6  A    between atoms: N_8  and  C_13
    7  A    between atoms: N_8  and  P_24
    8  A    between atoms: C_12  and  C_27
                            x       y       z     vdW  Elec       q    Type
                         _______ _______ _______ _____ _____    ______ ____

>  <TORSDO>
F 8

$$$$
=
 OpenBabel10232408233D

 30 32  0  0  1  0  0  0  0  0999 V2000
  190.9620  177.3200  147.0280 O   0  0  0  0  0  1  0  0  0  0  0  0
  189.3730  177.2240  145.2150 C   0  0  0  0  0  0  0  0  0  0  0  0
  190.3330  177.7530  144.3020 N   0  0  0  0  0  0  0  0  0  0  0  0
  188.2190  176.9390  144.7990 O   0  0  0  0  0  0  0  0  0  0  0  0
  190.7530  178.2220  142.9230 C   0  0  1  0  0  0  0  0  0  0  0  0
  191.6670  177.3260  142.0690 C   0  0  0  0  0  2  0  0  0  0  0  0
  190.2360  177.0320  142.0960 C   0  0  2  0  0  3  0  0  0  0  0  0
  189.7160  177.0220  146.5890 N   0  0  0  0  0  0  0  0  0  0  0  0
  191.6560  178.2800  143.9760 C   0  0  0  0  0  2  0  0  0  0  0  0
  189.7600  176.9080  139.6220 C   0  0  0  0  0  0  0  0  0  0  0  0
  189.5960  177.5390  140.8930 N   0  0  0  0  0  2  0  0  0  0  0  0
  190.4640  175.4910  138.0780 N   0  0  0  0  0  2  0  0  0  0  0  0
  189.5390  176.3420  137.4060 C   0  0  0  0  0  0  0  0  0  0  0  0
  190.5220  175.8810  139.4240 N   0  0  0  0  0  0  0  0  0  0  0  0
  189.6860  176.6190  136.1540 N   0  0  0  0  0  2  0  0  0  0  0  0
  188.1100  178.1800  138.3500 N   0  0  0  0  0  0  0  0  0  0  0  0
  189.0680  177.3010  138.4060 C   0  0  0  0  0  0  0  0  0  0  0  0
  187.2700  178.5300  137.2370 C   0  0  0  0  0  0  0  0  0  0  0  0
  187.4760  179.5750  136.5600 O   0  0  0  0  0  0  0  0  0  0  0  0
  186.1580  177.6370  136.8620 C   0  0  0  0  0  0  0  0  0  0  0  0
  185.3380  177.2470  137.7340 O   0  0  0  0  0  0  0  0  0  0  0  0
  184.6060  177.1040  135.1840 F   0  0  0  0  0  0  0  0  0  0  0  0
  185.9590  177.2250  135.4420 C   0  0  0  0  0  2  0  0  0  0  0  0
  188.7150  176.5730  147.5490 C   0  0  0  0  0  2  0  0  0  0  0  0
  187.6920  177.6690  147.7990 C   0  0  0  0  0  2  0  0  0  0  0  0
  186.4170  177.2930  147.2150 N   0  0  0  0  0  2  0  0  0  0  0  0
  185.9950  180.0210  147.7750 O   0  0  0  0  0  1  0  0  0  0  0  0
  184.1080  178.5480  146.7100 O   0  0  0  0  0  1  0  0  0  0  0  0
  185.6050  178.7630  146.7130 P   0  0  0  0  0  0  0  0  0  0  0  0
  186.1120  179.1670  145.1530 O   0  0  0  0  0  0  0  0  0  0  0  0
  2  8  1  0  0  0  0
  3  2  1  0  0  0  0
  4  2  2  0  0  0  0
  5  6  1  1  0  0  0
  5  9  1  0  0  0  0
  5  3  1  0  0  0  0
  6  7  1  0  0  0  0
  7 11  1  6  0  0  0
  7  5  1  0  0  0  0
  8  1  1  0  0  0  0
  8 24  1  0  0  0  0
  9  3  1  0  0  0  0
 10 11  1  0  0  0  0
 12 14  1  0  0  0  0
 13 12  1  0  0  0  0
 13 17  1  0  0  0  0
 14 10  2  0  0  0  0
 15 13  2  0  0  0  0
 16 17  2  0  0  0  0
 17 10  1  0  0  0  0
 18 16  1  0  0  0  0
 19 18  2  0  0  0  0
 20 18  1  0  0  0  0
 20 21  2  0  0  0  0
 22 23  1  0  0  0  0
 23 20  1  0  0  0  0
 24 25  1  0  0  0  0
 26 25  1  0  0  0  0
 28 29  1  0  0  0  0
 29 26  1  0  0  0  0
 29 27  1  0  0  0  0
 30 29  2  0  0  0  0
M  END
>  <MODEL>
8

>  <REMARK>
 VINA RESULT:      -6.2      4.177      5.787
  Name = 
  8 active torsions:
  status: ('A' for Active; 'I' for Inactive)
    1  A    between atoms: C_2  and  C_13
    2  A    between atoms: C_2  and  N_29
    3  A    between atoms: C_3  and  C_12
    4  A    between atoms: C_3  and  N_19
    5  A    between atoms: N_4  and  C_25
    6  A    between atoms: N_8  and  C_13
    7  A    between atoms: N_8  and  P_24
    8  A    between atoms: C_12  and  C_27
                            x       y       z     vdW  Elec       q    Type
                         _______ _______ _______ _____ _____    ______ ____

>  <TORSDO>
F 8

$$$$
=
 OpenBabel10232408233D

 30 32  0  0  1  0  0  0  0  0999 V2000
  188.2110  176.9160  136.8390 O   0  0  0  0  0  1  0  0  0  0  0  0
  187.8790  177.7810  139.0670 C   0  0  0  0  0  0  0  0  0  0  0  0
  189.0490  177.1130  139.5360 N   0  0  0  0  0  0  0  0  0  0  0  0
  187.2030  178.4780  139.8700 O   0  0  0  0  0  0  0  0  0  0  0  0
  190.0320  176.7430  140.6290 C   0  0  1  0  0  0  0  0  0  0  0  0
  191.4160  177.4160  140.6560 C   0  0  0  0  0  2  0  0  0  0  0  0
  190.2790  178.1450  141.2150 C   0  0  2  0  0  3  0  0  0  0  0  0
  187.4740  177.6570  137.7000 N   0  0  0  0  0  0  0  0  0  0  0  0
  190.2090  176.2460  139.3450 C   0  0  0  0  0  2  0  0  0  0  0  0
  189.0990  177.8050  143.4180 C   0  0  0  0  0  0  0  0  0  0  0  0
  190.2880  178.0520  142.6660 N   0  0  0  0  0  2  0  0  0  0  0  0
  186.9670  177.4500  143.8820 N   0  0  0  0  0  2  0  0  0  0  0  0
  187.6400  177.3520  145.1350 C   0  0  0  0  0  0  0  0  0  0  0  0
  187.9230  177.6990  142.8870 N   0  0  0  0  0  0  0  0  0  0  0  0
  187.0500  177.6950  146.2300 N   0  0  0  0  0  2  0  0  0  0  0  0
  190.1030  177.4710  145.6180 N   0  0  0  0  0  0  0  0  0  0  0  0
  189.0550  177.5980  144.8550 C   0  0  0  0  0  0  0  0  0  0  0  0
  190.1690  177.1210  147.0100 C   0  0  0  0  0  0  0  0  0  0  0  0
  189.1410  177.1380  147.7420 O   0  0  0  0  0  0  0  0  0  0  0  0
  191.4600  176.7080  147.5910 C   0  0  0  0  0  0  0  0  0  0  0  0
  191.9770  177.3780  148.5240 O   0  0  0  0  0  0  0  0  0  0  0  0
  193.3980  175.3880  147.7000 F   0  0  0  0  0  0  0  0  0  0  0  0
  192.1450  175.4690  147.1200 C   0  0  0  0  0  2  0  0  0  0  0  0
  186.2290  178.2560  137.2340 C   0  0  0  0  0  2  0  0  0  0  0  0
  185.0580  177.3310  137.5170 C   0  0  0  0  0  2  0  0  0  0  0  0
  183.8120  178.0710  137.4210 N   0  0  0  0  0  2  0  0  0  0  0  0
  184.3420  180.2680  139.1000 O   0  0  0  0  0  0  0  0  0  0  0  0
  183.9490  177.8730  140.0850 O   0  0  0  0  0  1  0  0  0  0  0  0
  183.5030  178.8050  138.9820 P   0  0  0  0  0  0  0  0  0  0  0  0
  181.8450  179.0940  139.1350 O   0  0  0  0  0  1  0  0  0  0  0  0
  1  8  1  0  0  0  0
  2  3  1  0  0  0  0
  2  4  2  0  0  0  0
  3  5  1  0  0  0  0
  5  9  1  1  0  0  0
  5  6  1  0  0  0  0
  5  7  1  0  0  0  0
  6  7  1  0  0  0  0
  7 11  1  1  0  0  0
  8  2  1  0  0  0  0
  9  3  1  0  0  0  0
 10 17  1  0  0  0  0
 11 10  1  0  0  0  0
 12 13  1  0  0  0  0
 13 15  2  0  0  0  0
 14 10  2  0  0  0  0
 14 12  1  0  0  0  0
 16 18  1  0  0  0  0
 17 13  1  0  0  0  0
 17 16  2  0  0  0  0
 18 20  1  0  0  0  0
 18 19  2  0  0  0  0
 20 21  2  0  0  0  0
 23 20  1  0  0  0  0
 23 22  1  0  0  0  0
 24 25  1  0  0  0  0
 24  8  1  0  0  0  0
 26 25  1  0  0  0  0
 26 29  1  0  0  0  0
 29 27  2  0  0  0  0
 29 30  1  0  0  0  0
 29 28  1  0  0  0  0
M  END
>  <MODEL>
9

>  <REMARK>
 VINA RESULT:      -6.1      4.643      9.265
  Name = 
  8 active torsions:
  status: ('A' for Active; 'I' for Inactive)
    1  A    between atoms: C_2  and  C_13
    2  A    between atoms: C_2  and  N_29
    3  A    between atoms: C_3  and  C_12
    4  A    between atoms: C_3  and  N_19
    5  A    between atoms: N_4  and  C_25
    6  A    between atoms: N_8  and  C_13
    7  A    between atoms: N_8  and  P_24
    8  A    between atoms: C_12  and  C_27
                            x       y       z     vdW  Elec       q    Type
                         _______ _______ _______ _____ _____    ______ ____

>  <TORSDO>
F 8

$$$$
