=
 OpenBabel10232409233D

 52 56  0  0  1  0  0  0  0  0999 V2000
  184.9190  175.1180  137.7350 O   0  0  0  0  0  0  0  0  0  0  0  0
  182.9370  176.4460  137.6400 C   0  0  0  0  0  2  0  0  0  0  0  0
  189.3900  178.0380  140.1700 C   0  0  0  0  0  0  0  0  0  0  0  0
  188.7180  177.1180  137.9440 C   0  0  0  0  0  2  0  0  0  0  0  0
  186.6190  176.5700  143.7990 S   0  0  0  0  0  0  0  0  0  0  0  0
  187.1030  177.6460  146.3790 C   0  0  0  0  0  1  0  0  0  0  0  0
  189.3890  176.5850  143.0600 C   0  0  1  0  0  3  0  0  0  0  0  0
  187.2480  177.5230  137.9110 C   0  0  0  0  0  2  0  0  0  0  0  0
  186.5020  177.8760  145.0360 C   0  0  0  0  0  0  0  0  0  0  0  0
  183.6560  178.7610  141.7270 C   0  0  0  0  0  2  0  0  0  0  0  0
  182.8660  177.6200  139.6740 C   0  0  0  0  0  2  0  0  0  0  0  0
  185.1610  177.2100  136.7190 N   0  0  0  0  0  2  0  0  0  0  0  0
  188.0550  177.2850  143.0010 C   0  0  1  0  0  3  0  0  0  0  0  0
  185.2610  179.4190  143.4860 C   0  0  0  0  0  2  0  0  0  0  0  0
  185.8800  179.0460  144.8000 C   0  0  0  0  0  3  0  0  0  0  0  0
  189.5420  178.1620  138.6900 C   0  0  0  0  0  2  0  0  0  0  0  0
  183.2030  177.4400  141.1420 C   0  0  0  0  0  2  0  0  0  0  0  0
  190.3570  177.4670  140.8520 N   0  0  0  0  0  0  0  0  0  0  0  0
  181.2220  176.0390  139.1680 C   0  0  0  0  0  1  0  0  0  0  0  0
  190.5110  177.3700  142.3220 C   0  0  0  0  0  2  0  0  0  0  0  0
  184.3900  176.2060  137.3800 C   0  0  0  0  0  0  0  0  0  0  0  0
  187.8900  177.9960  141.9370 C   0  0  0  0  0  2  0  0  0  0  0  0
  188.1390  178.5230  140.7910 C   0  0  0  0  0  2  0  0  0  0  0  0
  182.6450  176.3190  139.0590 N   0  0  0  0  0  0  0  0  0  0  0  0
  186.6100  177.1180  136.5940 C   0  0  1  0  0  3  0  0  0  0  0  0
  184.0560  178.5500  143.1730 C   0  0  0  0  0  2  0  0  0  0  0  0
  190.9590  176.6790  144.8330 N   0  0  0  0  0  0  0  0  0  0  0  0
  189.7790  176.4030  144.4510 N   0  0  0  0  0  0  0  0  0  0  0  0
  192.3290  175.1550  146.7440 S   0  0  0  0  0  0  0  0  0  0  0  0
  191.3490  176.5370  146.1980 C   0  0  0  0  0  0  0  0  0  0  0  0
  191.6750  177.1860  148.3860 C   0  0  0  0  0  2  0  0  0  0  0  0
  192.7790  176.1570  148.1950 C   0  0  0  0  0  2  0  0  0  0  0  0
  191.1160  177.4550  147.0750 N   0  0  0  0  0  0  0  0  0  0  0  0
  187.0940  178.0670  135.5060 C   0  0  0  0  0  2  0  0  0  0  0  0
  187.7230  177.3050  134.3460 C   0  0  0  0  0  2  0  0  0  0  0  0
  189.1900  177.0290  134.6440 C   0  0  0  0  0  2  0  0  0  0  0  0
  189.4770  175.5370  134.7300 C   0  0  0  0  0  2  0  0  0  0  0  0
  191.4310  173.9820  135.0770 N   0  0  0  0  0  2  0  0  0  0  0  0
  193.2140  172.1890  135.1940 C   0  0  0  0  0  2  0  0  0  0  0  0
  196.5590  172.3030  137.6280 S   0  0  0  0  0  0  0  0  0  0  0  0
  192.7180  173.5700  135.5640 C   0  0  0  0  0  0  0  0  0  0  0  0
  191.5360  176.2460  135.6860 O   0  0  0  0  0  0  0  0  0  0  0  0
  194.2840  171.6770  136.1710 C   0  0  0  0  0  2  0  0  0  0  0  0
  195.3270  174.6520  137.7050 N   0  0  0  0  0  0  0  0  0  0  0  0
  195.3720  172.7330  136.3240 C   0  0  1  0  0  3  0  0  0  0  0  0
  196.5640  174.0530  138.1810 C   0  0  2  0  0  3  0  0  0  0  0  0
  190.8610  175.2910  135.2150 C   0  0  0  0  0  0  0  0  0  0  0  0
  194.7370  173.9950  136.7700 C   0  0  0  0  0  0  0  0  0  0  0  0
  193.4460  174.3790  136.2840 N   0  0  0  0  0  0  0  0  0  0  0  0
  198.4190  175.5120  138.5930 O   0  0  0  0  0  1  0  0  0  0  0  0
  197.7610  174.7940  137.5960 C   0  0  2  0  0  3  0  0  0  0  0  0
  197.3140  175.7080  136.5570 N   0  0  0  0  0  1  0  0  0  0  0  0
  2 24  1  0  0  0  0
  3 23  1  0  0  0  0
  3 18  2  0  0  0  0
  4 16  1  0  0  0  0
  5  9  1  0  0  0  0
  7 28  1  1  0  0  0
  8  4  1  0  0  0  0
  9  6  1  0  0  0  0
 10 26  1  0  0  0  0
 11 17  1  0  0  0  0
 12 21  1  0  0  0  0
 13 22  1  6  0  0  0
 13  7  1  0  0  0  0
 13  5  1  0  0  0  0
 14 15  1  0  0  0  0
 15  9  2  0  0  0  0
 16  3  1  0  0  0  0
 17 10  1  0  0  0  0
 18 20  1  0  0  0  0
 20  7  1  0  0  0  0
 21  2  1  0  0  0  0
 21  1  2  0  0  0  0
 23 22  1  0  0  0  0
 24 19  1  0  0  0  0
 24 11  1  0  0  0  0
 25 34  1  6  0  0  0
 25 12  1  0  0  0  0
 25  8  1  0  0  0  0
 26 14  1  0  0  0  0
 27 30  1  0  0  0  0
 28 27  2  0  0  0  0
 29 32  1  0  0  0  0
 30 29  1  0  0  0  0
 30 33  2  0  0  0  0
 32 31  1  0  0  0  0
 33 31  1  0  0  0  0
 35 36  1  0  0  0  0
 35 34  1  0  0  0  0
 36 37  1  0  0  0  0
 37 47  1  0  0  0  0
 38 47  1  0  0  0  0
 38 41  1  0  0  0  0
 39 41  1  0  0  0  0
 39 43  1  0  0  0  0
 40 46  1  0  0  0  0
 41 49  2  0  0  0  0
 44 46  1  0  0  0  0
 45 43  1  1  0  0  0
 45 48  1  0  0  0  0
 45 40  1  0  0  0  0
 46 51  1  6  0  0  0
 47 42  2  0  0  0  0
 48 44  2  0  0  0  0
 49 48  1  0  0  0  0
 51 52  1  6  0  0  0
 51 50  1  0  0  0  0
M  END
>  <MODEL>
1

>  <REMARK>
 VINA RESULT:      -8.4      0.000      0.000
  Name = 
  8 active torsions:
  status: ('A' for Active; 'I' for Inactive)
    1  A    between atoms: C_6  and  C_14
    2  A    between atoms: C_6  and  C_21
    3  A    between atoms: C_9  and  N_22
    4  A    between atoms: C_14  and  C_24
    5  A    between atoms: C_17  and  N_41
    6  A    between atoms: C_21  and  C_48
    7  A    between atoms: C_24  and  C_42
    8  A    between atoms: C_32  and  C_40
                            x       y       z     vdW  Elec       q    Type
                         _______ _______ _______ _____ _____    ______ ____

>  <TORSDO>
F 8

$$$$
=
 OpenBabel10232409233D

 52 56  0  0  1  0  0  0  0  0999 V2000
  186.7460  179.1270  136.8350 O   0  0  0  0  0  0  0  0  0  0  0  0
  185.0120  177.5250  136.4740 C   0  0  0  0  0  2  0  0  0  0  0  0
  191.3250  176.7920  139.6670 C   0  0  0  0  0  0  0  0  0  0  0  0
  189.5090  178.4660  140.0600 C   0  0  0  0  0  2  0  0  0  0  0  0
  191.7260  175.3940  135.0960 S   0  0  0  0  0  0  0  0  0  0  0  0
  193.6050  173.3620  134.4730 C   0  0  0  0  0  1  0  0  0  0  0  0
  193.3540  176.5370  137.1600 C   0  0  1  0  0  3  0  0  0  0  0  0
  188.3210  177.7330  139.4450 C   0  0  0  0  0  2  0  0  0  0  0  0
  192.2620  173.6730  135.0360 C   0  0  0  0  0  0  0  0  0  0  0  0
  187.8760  173.7940  135.8000 C   0  0  0  0  0  2  0  0  0  0  0  0
  186.1100  175.5280  135.9000 C   0  0  0  0  0  2  0  0  0  0  0  0
  186.0150  177.9920  138.7440 N   0  0  0  0  0  2  0  0  0  0  0  0
  192.2150  175.6150  136.8050 C   0  0  1  0  0  3  0  0  0  0  0  0
  190.1340  172.8330  136.0800 C   0  0  0  0  0  2  0  0  0  0  0  0
  191.4910  172.6570  135.4660 C   0  0  0  0  0  3  0  0  0  0  0  0
  190.4790  177.4730  140.6920 C   0  0  0  0  0  2  0  0  0  0  0  0
  187.3260  175.0380  135.1370 C   0  0  0  0  0  2  0  0  0  0  0  0
  192.5670  177.1930  139.5140 N   0  0  0  0  0  0  0  0  0  0  0  0
  184.7390  176.6080  134.3460 C   0  0  0  0  0  1  0  0  0  0  0  0
  193.6350  176.5820  138.6900 C   0  0  0  0  0  2  0  0  0  0  0  0
  185.9790  178.2640  137.3420 C   0  0  0  0  0  0  0  0  0  0  0  0
  191.3200  175.5170  137.7300 C   0  0  0  0  0  2  0  0  0  0  0  0
  190.7100  175.7290  138.8420 C   0  0  0  0  0  2  0  0  0  0  0  0
  185.7130  176.8380  135.4010 N   0  0  0  0  0  0  0  0  0  0  0  0
  187.0470  178.5410  139.6150 C   0  0  1  0  0  3  0  0  0  0  0  0
  189.1310  173.3580  135.0700 C   0  0  0  0  0  2  0  0  0  0  0  0
  195.4070  175.3560  137.0600 N   0  0  0  0  0  0  0  0  0  0  0  0
  194.5610  176.1030  136.4720 N   0  0  0  0  0  0  0  0  0  0  0  0
  197.1210  173.2040  136.5270 S   0  0  0  0  0  0  0  0  0  0  0  0
  196.5790  174.8940  136.3900 C   0  0  0  0  0  0  0  0  0  0  0  0
  198.3330  174.9700  134.8960 C   0  0  0  0  0  2  0  0  0  0  0  0
  198.0720  173.4750  135.0000 C   0  0  0  0  0  2  0  0  0  0  0  0
  197.2320  175.6390  135.5610 N   0  0  0  0  0  0  0  0  0  0  0  0
  186.5990  178.4450  141.0670 C   0  0  0  0  0  2  0  0  0  0  0  0
  185.1620  178.9240  141.2360 C   0  0  0  0  0  2  0  0  0  0  0  0
  184.4020  177.9670  142.1440 C   0  0  0  0  0  2  0  0  0  0  0  0
  184.4520  178.4110  143.5980 C   0  0  0  0  0  2  0  0  0  0  0  0
  185.9650  178.3130  145.6140 N   0  0  0  0  0  2  0  0  0  0  0  0
  187.1860  178.3300  147.8310 C   0  0  0  0  0  2  0  0  0  0  0  0
  191.2200  177.5640  148.3420 S   0  0  0  0  0  0  0  0  0  0  0  0
  187.1680  178.0360  146.3470 C   0  0  0  0  0  0  0  0  0  0  0  0
  186.5420  177.2750  143.5900 O   0  0  0  0  0  0  0  0  0  0  0  0
  188.6130  178.5100  148.3700 C   0  0  0  0  0  2  0  0  0  0  0  0
  190.5200  176.9980  145.8460 N   0  0  0  0  0  0  0  0  0  0  0  0
  189.4670  177.3240  147.9380 C   0  0  1  0  0  3  0  0  0  0  0  0
  191.6780  176.8530  146.7140 C   0  0  2  0  0  3  0  0  0  0  0  0
  185.7220  177.9780  144.2410 C   0  0  0  0  0  0  0  0  0  0  0  0
  189.4130  177.2240  146.4610 C   0  0  0  0  0  0  0  0  0  0  0  0
  188.2070  177.5200  145.7490 N   0  0  0  0  0  0  0  0  0  0  0  0
  193.1560  175.2330  147.6810 O   0  0  0  0  0  1  0  0  0  0  0  0
  192.0410  175.3790  146.8580 C   0  0  2  0  0  3  0  0  0  0  0  0
  192.3290  174.8140  145.5490 N   0  0  0  0  0  1  0  0  0  0  0  0
  1 21  2  0  0  0  0
  2 21  1  0  0  0  0
  3 16  1  0  0  0  0
  4 16  1  0  0  0  0
  5 13  1  0  0  0  0
  6  9  1  0  0  0  0
  7 28  1  6  0  0  0
  7 20  1  0  0  0  0
  8 25  1  0  0  0  0
  8  4  1  0  0  0  0
  9  5  1  0  0  0  0
  9 15  2  0  0  0  0
 12 25  1  0  0  0  0
 13  7  1  0  0  0  0
 13 22  1  1  0  0  0
 15 14  1  0  0  0  0
 17 10  1  0  0  0  0
 17 11  1  0  0  0  0
 18  3  2  0  0  0  0
 19 24  1  0  0  0  0
 20 18  1  0  0  0  0
 21 12  1  0  0  0  0
 22 23  1  0  0  0  0
 23  3  1  0  0  0  0
 24 11  1  0  0  0  0
 24  2  1  0  0  0  0
 25 34  1  1  0  0  0
 26 10  1  0  0  0  0
 26 14  1  0  0  0  0
 28 27  2  0  0  0  0
 30 29  1  0  0  0  0
 30 27  1  0  0  0  0
 31 32  1  0  0  0  0
 31 33  1  0  0  0  0
 32 29  1  0  0  0  0
 33 30  2  0  0  0  0
 34 35  1  0  0  0  0
 35 36  1  0  0  0  0
 36 37  1  0  0  0  0
 37 47  1  0  0  0  0
 38 41  1  0  0  0  0
 39 43  1  0  0  0  0
 41 39  1  0  0  0  0
 42 47  2  0  0  0  0
 44 48  2  0  0  0  0
 44 46  1  0  0  0  0
 45 40  1  0  0  0  0
 45 43  1  6  0  0  0
 46 51  1  1  0  0  0
 46 40  1  0  0  0  0
 47 38  1  0  0  0  0
 48 45  1  0  0  0  0
 49 41  2  0  0  0  0
 49 48  1  0  0  0  0
 51 52  1  6  0  0  0
 51 50  1  0  0  0  0
M  END
>  <MODEL>
2

>  <REMARK>
 VINA RESULT:      -8.0      2.844      9.622
  Name = 
  8 active torsions:
  status: ('A' for Active; 'I' for Inactive)
    1  A    between atoms: C_6  and  C_14
    2  A    between atoms: C_6  and  C_21
    3  A    between atoms: C_9  and  N_22
    4  A    between atoms: C_14  and  C_24
    5  A    between atoms: C_17  and  N_41
    6  A    between atoms: C_21  and  C_48
    7  A    between atoms: C_24  and  C_42
    8  A    between atoms: C_32  and  C_40
                            x       y       z     vdW  Elec       q    Type
                         _______ _______ _______ _____ _____    ______ ____

>  <TORSDO>
F 8

$$$$
=
 OpenBabel10232409233D

 52 56  0  0  1  0  0  0  0  0999 V2000
  184.8460  179.8830  138.3260 O   0  0  0  0  0  0  0  0  0  0  0  0
  183.0030  178.3730  138.1810 C   0  0  0  0  0  2  0  0  0  0  0  0
  189.6450  177.2740  140.4730 C   0  0  0  0  0  0  0  0  0  0  0  0
  187.9840  179.0230  141.1340 C   0  0  0  0  0  2  0  0  0  0  0  0
  189.3530  175.9560  135.8700 S   0  0  0  0  0  0  0  0  0  0  0  0
  191.0280  173.8520  134.9670 C   0  0  0  0  0  1  0  0  0  0  0  0
  191.3010  176.9770  137.7090 C   0  0  1  0  0  3  0  0  0  0  0  0
  186.6900  178.3610  140.6760 C   0  0  0  0  0  2  0  0  0  0  0  0
  189.7900  174.2140  135.7120 C   0  0  0  0  0  0  0  0  0  0  0  0
  185.5600  174.5250  137.0680 C   0  0  0  0  0  2  0  0  0  0  0  0
  183.9120  176.3390  137.4330 C   0  0  0  0  0  2  0  0  0  0  0  0
  184.3250  178.7430  140.3000 N   0  0  0  0  0  2  0  0  0  0  0  0
  190.0800  176.1180  137.4990 C   0  0  1  0  0  3  0  0  0  0  0  0
  187.7840  173.4530  137.0240 C   0  0  0  0  0  2  0  0  0  0  0  0
  189.0350  173.2270  136.2270 C   0  0  0  0  0  3  0  0  0  0  0  0
  188.9800  177.9720  141.6130 C   0  0  0  0  0  2  0  0  0  0  0  0
  184.9880  175.8090  136.5040 C   0  0  0  0  0  2  0  0  0  0  0  0
  190.8730  177.6190  140.1580 N   0  0  0  0  0  0  0  0  0  0  0  0
  182.3980  177.5160  136.0970 C   0  0  0  0  0  1  0  0  0  0  0  0
  191.7880  176.9760  139.1870 C   0  0  0  0  0  2  0  0  0  0  0  0
  184.1140  179.0470  138.9200 C   0  0  0  0  0  0  0  0  0  0  0  0
  189.3150  176.0430  138.5350 C   0  0  0  0  0  2  0  0  0  0  0  0
  188.8720  176.2600  139.7240 C   0  0  0  0  0  2  0  0  0  0  0  0
  183.5170  177.6760  137.0120 N   0  0  0  0  0  0  0  0  0  0  0  0
  185.4910  179.2240  141.0300 C   0  0  1  0  0  3  0  0  0  0  0  0
  186.6800  174.0460  136.1680 C   0  0  0  0  0  2  0  0  0  0  0  0
  193.5890  176.5700  137.2460 N   0  0  0  0  0  0  0  0  0  0  0  0
  192.3810  176.5010  136.8570 N   0  0  0  0  0  0  0  0  0  0  0  0
  195.1650  176.9250  134.9560 S   0  0  0  0  0  0  0  0  0  0  0  0
  194.6570  176.0780  136.4380 C   0  0  0  0  0  0  0  0  0  0  0  0
  196.4850  174.7790  135.9050 C   0  0  0  0  0  2  0  0  0  0  0  0
  196.7490  176.0400  135.0960 C   0  0  0  0  0  2  0  0  0  0  0  0
  195.3810  175.0720  136.7990 N   0  0  0  0  0  0  0  0  0  0  0  0
  185.2400  179.1180  142.5280 C   0  0  0  0  0  2  0  0  0  0  0  0
  183.7940  179.4540  142.8710 C   0  0  0  0  0  2  0  0  0  0  0  0
  183.3010  178.5360  143.9830 C   0  0  0  0  0  2  0  0  0  0  0  0
  183.8800  178.9290  145.3340 C   0  0  0  0  0  2  0  0  0  0  0  0
  185.8830  178.4530  146.7900 N   0  0  0  0  0  2  0  0  0  0  0  0
  187.6710  178.0570  148.5380 C   0  0  0  0  0  2  0  0  0  0  0  0
  191.6310  177.1570  147.7430 S   0  0  0  0  0  0  0  0  0  0  0  0
  187.2230  178.0320  147.0930 C   0  0  0  0  0  0  0  0  0  0  0  0
  185.8080  177.7840  144.5420 O   0  0  0  0  0  0  0  0  0  0  0  0
  189.2000  178.1190  148.6700 C   0  0  0  0  0  2  0  0  0  0  0  0
  190.2300  177.0540  145.4920 N   0  0  0  0  0  0  0  0  0  0  0  0
  189.8230  177.0170  147.8210 C   0  0  1  0  0  3  0  0  0  0  0  0
  191.5720  176.7410  145.9570 C   0  0  2  0  0  3  0  0  0  0  0  0
  185.2480  178.3710  145.5070 C   0  0  0  0  0  0  0  0  0  0  0  0
  189.3540  177.1830  146.4260 C   0  0  0  0  0  0  0  0  0  0  0  0
  188.0190  177.6170  146.1460 N   0  0  0  0  0  0  0  0  0  0  0  0
  192.9570  174.8670  146.5160 O   0  0  0  0  0  1  0  0  0  0  0  0
  191.8660  175.2610  145.7440 C   0  0  2  0  0  3  0  0  0  0  0  0
  192.1550  175.0140  144.3390 N   0  0  0  0  0  1  0  0  0  0  0  0
  1 21  2  0  0  0  0
  2 21  1  0  0  0  0
  3 16  1  0  0  0  0
  4 16  1  0  0  0  0
  5 13  1  0  0  0  0
  6  9  1  0  0  0  0
  7 28  1  6  0  0  0
  7 20  1  0  0  0  0
  8 25  1  0  0  0  0
  8  4  1  0  0  0  0
  9  5  1  0  0  0  0
  9 15  2  0  0  0  0
 12 25  1  0  0  0  0
 13  7  1  0  0  0  0
 13 22  1  1  0  0  0
 15 14  1  0  0  0  0
 17 10  1  0  0  0  0
 17 11  1  0  0  0  0
 18  3  2  0  0  0  0
 19 24  1  0  0  0  0
 20 18  1  0  0  0  0
 21 12  1  0  0  0  0
 22 23  1  0  0  0  0
 23  3  1  0  0  0  0
 24 11  1  0  0  0  0
 24  2  1  0  0  0  0
 25 34  1  1  0  0  0
 26 14  1  0  0  0  0
 26 10  1  0  0  0  0
 28 27  2  0  0  0  0
 29 32  1  0  0  0  0
 29 30  1  0  0  0  0
 30 33  2  0  0  0  0
 30 27  1  0  0  0  0
 31 33  1  0  0  0  0
 32 31  1  0  0  0  0
 34 35  1  0  0  0  0
 35 36  1  0  0  0  0
 36 37  1  0  0  0  0
 37 47  1  0  0  0  0
 38 41  1  0  0  0  0
 39 43  1  0  0  0  0
 40 45  1  0  0  0  0
 41 39  1  0  0  0  0
 42 47  2  0  0  0  0
 44 46  1  0  0  0  0
 44 48  2  0  0  0  0
 45 43  1  1  0  0  0
 46 51  1  1  0  0  0
 46 40  1  0  0  0  0
 47 38  1  0  0  0  0
 48 45  1  0  0  0  0
 49 48  1  0  0  0  0
 49 41  2  0  0  0  0
 51 52  1  6  0  0  0
 51 50  1  0  0  0  0
M  END
>  <MODEL>
3

>  <REMARK>
 VINA RESULT:      -7.5      3.005      9.212
  Name = 
  8 active torsions:
  status: ('A' for Active; 'I' for Inactive)
    1  A    between atoms: C_6  and  C_14
    2  A    between atoms: C_6  and  C_21
    3  A    between atoms: C_9  and  N_22
    4  A    between atoms: C_14  and  C_24
    5  A    between atoms: C_17  and  N_41
    6  A    between atoms: C_21  and  C_48
    7  A    between atoms: C_24  and  C_42
    8  A    between atoms: C_32  and  C_40
                            x       y       z     vdW  Elec       q    Type
                         _______ _______ _______ _____ _____    ______ ____

>  <TORSDO>
F 8

$$$$
=
 OpenBabel10232409233D

 52 56  0  0  1  0  0  0  0  0999 V2000
  187.4970  176.8610  142.6420 O   0  0  0  0  0  0  0  0  0  0  0  0
  189.2570  178.2630  141.8440 C   0  0  0  0  0  2  0  0  0  0  0  0
  182.8620  176.9070  139.0430 C   0  0  0  0  0  0  0  0  0  0  0  0
  183.4810  177.6700  141.3420 C   0  0  0  0  0  2  0  0  0  0  0  0
  186.0900  173.9870  137.0270 S   0  0  0  0  0  0  0  0  0  0  0  0
  185.6630  173.1570  134.3480 C   0  0  0  0  0  1  0  0  0  0  0  0
  183.2970  174.0090  137.6710 C   0  0  1  0  0  3  0  0  0  0  0  0
  184.8710  178.2380  141.0780 C   0  0  0  0  0  2  0  0  0  0  0  0
  186.1180  174.2560  135.2450 C   0  0  0  0  0  0  0  0  0  0  0  0
  188.5400  177.4270  137.2210 C   0  0  0  0  0  2  0  0  0  0  0  0
  189.3200  177.9330  139.5180 C   0  0  0  0  0  2  0  0  0  0  0  0
  186.8820  179.0630  142.1530 N   0  0  0  0  0  2  0  0  0  0  0  0
  184.5100  174.8000  137.2500 C   0  0  1  0  0  3  0  0  0  0  0  0
  187.0020  176.5990  135.4750 C   0  0  0  0  0  2  0  0  0  0  0  0
  186.5460  175.4050  134.6900 C   0  0  0  0  0  3  0  0  0  0  0  0
  182.5780  177.8870  140.1330 C   0  0  0  0  0  2  0  0  0  0  0  0
  189.1290  176.8380  138.4850 C   0  0  0  0  0  2  0  0  0  0  0  0
  182.0430  175.8910  138.8860 N   0  0  0  0  0  0  0  0  0  0  0  0
  191.1270  177.2850  140.8500 C   0  0  0  0  0  1  0  0  0  0  0  0
  182.0200  174.8890  137.7950 C   0  0  0  0  0  2  0  0  0  0  0  0
  187.8370  178.0040  142.2350 C   0  0  0  0  0  0  0  0  0  0  0  0
  184.4880  176.0290  137.6410 C   0  0  0  0  0  2  0  0  0  0  0  0
  184.0770  177.1010  138.2220 C   0  0  0  0  0  2  0  0  0  0  0  0
  189.6750  177.3410  140.8000 N   0  0  0  0  0  0  0  0  0  0  0  0
  185.4550  178.8370  142.3470 C   0  0  1  0  0  3  0  0  0  0  0  0
  188.2890  176.3120  136.2260 C   0  0  0  0  0  2  0  0  0  0  0  0
  182.0020  172.2330  136.7840 N   0  0  0  0  0  0  0  0  0  0  0  0
  183.0480  172.9510  136.7020 N   0  0  0  0  0  0  0  0  0  0  0  0
  183.0350  170.3710  134.9640 S   0  0  0  0  0  0  0  0  0  0  0  0
  181.7250  171.2150  135.8240 C   0  0  0  0  0  0  0  0  0  0  0  0
  180.4510  169.6660  134.6870 C   0  0  0  0  0  2  0  0  0  0  0  0
  181.8380  169.0440  134.6190 C   0  0  0  0  0  2  0  0  0  0  0  0
  180.5290  170.7720  135.6210 N   0  0  0  0  0  0  0  0  0  0  0  0
  184.7570  180.1610  142.6270 C   0  0  0  0  0  2  0  0  0  0  0  0
  184.3360  180.2660  144.0870 C   0  0  0  0  0  2  0  0  0  0  0  0
  183.4260  179.0990  144.4470 C   0  0  0  0  0  2  0  0  0  0  0  0
  183.7260  178.5600  145.8380 C   0  0  0  0  0  2  0  0  0  0  0  0
  185.8990  178.3550  147.1030 N   0  0  0  0  0  2  0  0  0  0  0  0
  187.8850  178.2660  148.6690 C   0  0  0  0  0  2  0  0  0  0  0  0
  191.7690  177.3800  147.5510 S   0  0  0  0  0  0  0  0  0  0  0  0
  187.2820  178.0220  147.3030 C   0  0  0  0  0  0  0  0  0  0  0  0
  185.6050  177.3710  144.9930 O   0  0  0  0  0  0  0  0  0  0  0  0
  189.4150  178.3920  148.6120 C   0  0  0  0  0  2  0  0  0  0  0  0
  190.1340  176.9150  145.5150 N   0  0  0  0  0  0  0  0  0  0  0  0
  189.9900  177.1990  147.8580 C   0  0  1  0  0  3  0  0  0  0  0  0
  191.5320  176.7120  145.8590 C   0  0  2  0  0  3  0  0  0  0  0  0
  185.1300  178.0730  145.9260 C   0  0  0  0  0  0  0  0  0  0  0  0
  189.3620  177.1500  146.5170 C   0  0  0  0  0  0  0  0  0  0  0  0
  187.9860  177.5000  146.3370 N   0  0  0  0  0  0  0  0  0  0  0  0
  192.9120  174.9410  146.6990 O   0  0  0  0  0  1  0  0  0  0  0  0
  191.8680  175.2250  145.8200 C   0  0  2  0  0  3  0  0  0  0  0  0
  192.2550  174.8440  144.4710 N   0  0  0  0  0  1  0  0  0  0  0  0
  2 21  1  0  0  0  0
  3 16  1  0  0  0  0
  5 13  1  0  0  0  0
  6  9  1  0  0  0  0
  7 28  1  6  0  0  0
  7 20  1  0  0  0  0
  8  4  1  0  0  0  0
  8 25  1  0  0  0  0
  9  5  1  0  0  0  0
 10 17  1  0  0  0  0
 11 24  1  0  0  0  0
 12 21  1  0  0  0  0
 12 25  1  0  0  0  0
 13 22  1  1  0  0  0
 13  7  1  0  0  0  0
 14 26  1  0  0  0  0
 15  9  2  0  0  0  0
 15 14  1  0  0  0  0
 16  4  1  0  0  0  0
 17 11  1  0  0  0  0
 18  3  2  0  0  0  0
 20 18  1  0  0  0  0
 21  1  2  0  0  0  0
 22 23  1  0  0  0  0
 23  3  1  0  0  0  0
 24 19  1  0  0  0  0
 24  2  1  0  0  0  0
 25 34  1  6  0  0  0
 26 10  1  0  0  0  0
 28 27  2  0  0  0  0
 29 30  1  0  0  0  0
 30 27  1  0  0  0  0
 31 33  1  0  0  0  0
 32 31  1  0  0  0  0
 32 29  1  0  0  0  0
 33 30  2  0  0  0  0
 34 35  1  0  0  0  0
 35 36  1  0  0  0  0
 36 37  1  0  0  0  0
 37 47  1  0  0  0  0
 38 41  1  0  0  0  0
 40 45  1  0  0  0  0
 41 39  1  0  0  0  0
 42 47  2  0  0  0  0
 43 39  1  0  0  0  0
 44 46  1  0  0  0  0
 44 48  2  0  0  0  0
 45 43  1  1  0  0  0
 46 51  1  1  0  0  0
 46 40  1  0  0  0  0
 47 38  1  0  0  0  0
 48 45  1  0  0  0  0
 49 48  1  0  0  0  0
 49 41  2  0  0  0  0
 51 52  1  6  0  0  0
 51 50  1  0  0  0  0
M  END
>  <MODEL>
4

>  <REMARK>
 VINA RESULT:      -7.2      4.381     10.783
  Name = 
  8 active torsions:
  status: ('A' for Active; 'I' for Inactive)
    1  A    between atoms: C_6  and  C_14
    2  A    between atoms: C_6  and  C_21
    3  A    between atoms: C_9  and  N_22
    4  A    between atoms: C_14  and  C_24
    5  A    between atoms: C_17  and  N_41
    6  A    between atoms: C_21  and  C_48
    7  A    between atoms: C_24  and  C_42
    8  A    between atoms: C_32  and  C_40
                            x       y       z     vdW  Elec       q    Type
                         _______ _______ _______ _____ _____    ______ ____

>  <TORSDO>
F 8

$$$$
=
 OpenBabel10232409233D

 52 56  0  0  1  0  0  0  0  0999 V2000
  185.6890  173.7710  137.7110 O   0  0  0  0  0  0  0  0  0  0  0  0
  183.6630  174.6700  136.8220 C   0  0  0  0  0  2  0  0  0  0  0  0
  189.1880  177.9700  139.8500 C   0  0  0  0  0  0  0  0  0  0  0  0
  189.1310  176.3330  137.9600 C   0  0  0  0  0  2  0  0  0  0  0  0
  185.8160  177.2160  143.1780 S   0  0  0  0  0  0  0  0  0  0  0  0
  185.5950  179.0730  145.3100 C   0  0  0  0  0  1  0  0  0  0  0  0
  188.6670  177.4610  143.0020 C   0  0  1  0  0  3  0  0  0  0  0  0
  187.6750  176.4650  137.5250 C   0  0  0  0  0  2  0  0  0  0  0  0
  185.2960  178.7930  143.8780 C   0  0  0  0  0  0  0  0  0  0  0  0
  183.2070  178.1790  139.9940 C   0  0  0  0  0  2  0  0  0  0  0  0
  183.0190  176.3670  138.3140 C   0  0  0  0  0  2  0  0  0  0  0  0
  185.9540  175.4760  136.1330 N   0  0  0  0  0  2  0  0  0  0  0  0
  187.3210  177.8850  142.4720 C   0  0  1  0  0  3  0  0  0  0  0  0
  184.2990  179.5820  141.7080 C   0  0  0  0  0  2  0  0  0  0  0  0
  184.6360  179.7230  143.1630 C   0  0  0  0  0  3  0  0  0  0  0  0
  189.6600  177.6710  138.4650 C   0  0  0  0  0  2  0  0  0  0  0  0
  183.0280  176.6880  139.7970 C   0  0  0  0  0  2  0  0  0  0  0  0
  190.0240  177.7920  140.8480 N   0  0  0  0  0  0  0  0  0  0  0  0
  181.6920  174.4610  138.0530 C   0  0  0  0  0  1  0  0  0  0  0  0
  189.8480  178.1630  142.2710 C   0  0  0  0  0  2  0  0  0  0  0  0
  185.1520  174.6020  136.9300 C   0  0  0  0  0  0  0  0  0  0  0  0
  187.3350  178.2110  141.2240 C   0  0  0  0  0  2  0  0  0  0  0  0
  187.7870  178.4060  140.0350 C   0  0  0  0  0  2  0  0  0  0  0  0
  183.0690  174.9240  138.1250 N   0  0  0  0  0  0  0  0  0  0  0  0
  187.3960  175.5890  136.3160 C   0  0  1  0  0  3  0  0  0  0  0  0
  183.2860  178.4750  141.4780 C   0  0  0  0  0  2  0  0  0  0  0  0
  188.7410  176.8320  145.2860 N   0  0  0  0  0  0  0  0  0  0  0  0
  188.7460  177.7660  144.4240 N   0  0  0  0  0  0  0  0  0  0  0  0
  190.4310  177.1320  147.5010 S   0  0  0  0  0  0  0  0  0  0  0  0
  188.8510  177.1110  146.6810 C   0  0  0  0  0  0  0  0  0  0  0  0
  188.1530  177.8190  148.7600 C   0  0  0  0  0  2  0  0  0  0  0  0
  189.6430  178.1230  148.8090 C   0  0  0  0  0  2  0  0  0  0  0  0
  187.8350  177.4780  147.3880 N   0  0  0  0  0  0  0  0  0  0  0  0
  188.0210  176.2370  135.0890 C   0  0  0  0  0  2  0  0  0  0  0  0
  189.5350  176.0610  135.0810 C   0  0  0  0  0  2  0  0  0  0  0  0
  189.8910  174.6830  134.5400 C   0  0  0  0  0  2  0  0  0  0  0  0
  190.3680  173.7510  135.6440 C   0  0  0  0  0  2  0  0  0  0  0  0
  192.4900  172.4190  135.9250 N   0  0  0  0  0  2  0  0  0  0  0  0
  194.4030  170.7800  136.1770 C   0  0  0  0  0  2  0  0  0  0  0  0
  198.3310  171.8000  136.9850 S   0  0  0  0  0  0  0  0  0  0  0  0
  193.9050  172.2040  136.0590 C   0  0  0  0  0  0  0  0  0  0  0  0
  192.5330  174.7080  135.4150 O   0  0  0  0  0  0  0  0  0  0  0  0
  195.7880  170.7040  136.8380 C   0  0  0  0  0  2  0  0  0  0  0  0
  196.9360  173.9950  136.4620 N   0  0  0  0  0  0  0  0  0  0  0  0
  196.7370  171.6620  136.1280 C   0  0  1  0  0  3  0  0  0  0  0  0
  198.3210  173.6100  136.6850 C   0  0  2  0  0  3  0  0  0  0  0  0
  191.8540  173.6780  135.6710 C   0  0  0  0  0  0  0  0  0  0  0  0
  196.1470  173.0210  136.1740 C   0  0  0  0  0  0  0  0  0  0  0  0
  194.7330  173.2110  136.0530 N   0  0  0  0  0  0  0  0  0  0  0  0
  199.9560  172.8680  135.0990 O   0  0  0  0  0  1  0  0  0  0  0  0
  199.1620  173.9540  135.4610 C   0  0  2  0  0  3  0  0  0  0  0  0
  200.0110  175.0980  135.7540 N   0  0  0  0  0  1  0  0  0  0  0  0
  2 21  1  0  0  0  0
  2 24  1  0  0  0  0
  3 23  1  0  0  0  0
  3 18  2  0  0  0  0
  4 16  1  0  0  0  0
  5  9  1  0  0  0  0
  7 28  1  1  0  0  0
  8  4  1  0  0  0  0
  9  6  1  0  0  0  0
 10 26  1  0  0  0  0
 11 17  1  0  0  0  0
 12 25  1  0  0  0  0
 12 21  1  0  0  0  0
 13 22  1  6  0  0  0
 13  7  1  0  0  0  0
 13  5  1  0  0  0  0
 14 15  1  0  0  0  0
 15  9  2  0  0  0  0
 16  3  1  0  0  0  0
 17 10  1  0  0  0  0
 18 20  1  0  0  0  0
 19 24  1  0  0  0  0
 20  7  1  0  0  0  0
 21  1  2  0  0  0  0
 23 22  1  0  0  0  0
 24 11  1  0  0  0  0
 25 34  1  6  0  0  0
 25  8  1  0  0  0  0
 26 14  1  0  0  0  0
 27 30  1  0  0  0  0
 28 27  2  0  0  0  0
 29 32  1  0  0  0  0
 30 33  2  0  0  0  0
 30 29  1  0  0  0  0
 31 32  1  0  0  0  0
 33 31  1  0  0  0  0
 35 34  1  0  0  0  0
 36 35  1  0  0  0  0
 36 37  1  0  0  0  0
 37 47  1  0  0  0  0
 38 41  1  0  0  0  0
 39 43  1  0  0  0  0
 41 39  1  0  0  0  0
 42 47  2  0  0  0  0
 44 46  1  0  0  0  0
 45 48  1  0  0  0  0
 45 43  1  1  0  0  0
 45 40  1  0  0  0  0
 46 51  1  6  0  0  0
 46 40  1  0  0  0  0
 47 38  1  0  0  0  0
 48 44  2  0  0  0  0
 49 41  2  0  0  0  0
 49 48  1  0  0  0  0
 51 50  1  1  0  0  0
 51 52  1  0  0  0  0
M  END
>  <MODEL>
5

>  <REMARK>
 VINA RESULT:      -6.9      1.732      2.099
  Name = 
  8 active torsions:
  status: ('A' for Active; 'I' for Inactive)
    1  A    between atoms: C_6  and  C_14
    2  A    between atoms: C_6  and  C_21
    3  A    between atoms: C_9  and  N_22
    4  A    between atoms: C_14  and  C_24
    5  A    between atoms: C_17  and  N_41
    6  A    between atoms: C_21  and  C_48
    7  A    between atoms: C_24  and  C_42
    8  A    between atoms: C_32  and  C_40
                            x       y       z     vdW  Elec       q    Type
                         _______ _______ _______ _____ _____    ______ ____

>  <TORSDO>
F 8

$$$$
=
 OpenBabel10232409233D

 52 56  0  0  1  0  0  0  0  0999 V2000
  185.0090  174.6020  137.7470 O   0  0  0  0  0  0  0  0  0  0  0  0
  183.0060  175.8300  137.3200 C   0  0  0  0  0  2  0  0  0  0  0  0
  189.1750  177.9760  140.1340 C   0  0  0  0  0  0  0  0  0  0  0  0
  188.7200  176.7560  137.9990 C   0  0  0  0  0  2  0  0  0  0  0  0
  186.1480  176.8760  143.6880 S   0  0  0  0  0  0  0  0  0  0  0  0
  186.3820  178.2880  146.1370 C   0  0  0  0  0  1  0  0  0  0  0  0
  188.9690  176.9030  143.1790 C   0  0  1  0  0  3  0  0  0  0  0  0
  187.2480  177.0970  137.7960 C   0  0  0  0  0  2  0  0  0  0  0  0
  185.8900  178.3230  144.7310 C   0  0  0  0  0  0  0  0  0  0  0  0
  183.3120  178.6710  141.1170 C   0  0  0  0  0  2  0  0  0  0  0  0
  182.7310  177.2490  139.1730 C   0  0  0  0  0  2  0  0  0  0  0  0
  185.2780  176.5550  136.4900 N   0  0  0  0  0  2  0  0  0  0  0  0
  187.6260  177.5380  142.9220 C   0  0  1  0  0  3  0  0  0  0  0  0
  184.7430  179.6080  142.8990 C   0  0  0  0  0  2  0  0  0  0  0  0
  185.2590  179.4290  144.2960 C   0  0  0  0  0  3  0  0  0  0  0  0
  189.4490  177.9170  138.6670 C   0  0  0  0  0  2  0  0  0  0  0  0
  182.9470  177.2700  140.6740 C   0  0  0  0  0  2  0  0  0  0  0  0
  190.0970  177.5330  140.9600 N   0  0  0  0  0  0  0  0  0  0  0  0
  181.1800  175.5550  138.7450 C   0  0  0  0  0  1  0  0  0  0  0  0
  190.1280  177.6300  142.4380 C   0  0  0  0  0  2  0  0  0  0  0  0
  184.4820  175.6140  137.2120 C   0  0  0  0  0  0  0  0  0  0  0  0
  187.5320  178.1010  141.7650 C   0  0  0  0  0  2  0  0  0  0  0  0
  187.8630  178.4880  140.5830 C   0  0  0  0  0  2  0  0  0  0  0  0
  182.5990  175.8730  138.7160 N   0  0  0  0  0  0  0  0  0  0  0  0
  186.7350  176.5040  136.4950 C   0  0  1  0  0  3  0  0  0  0  0  0
  183.5940  178.6610  142.6060 C   0  0  0  0  0  2  0  0  0  0  0  0
  190.4400  176.8520  145.0360 N   0  0  0  0  0  0  0  0  0  0  0  0
  189.2450  176.9130  144.6080 N   0  0  0  0  0  0  0  0  0  0  0  0
  192.0910  175.9790  147.1250 S   0  0  0  0  0  0  0  0  0  0  0  0
  190.7300  176.8940  146.4330 C   0  0  0  0  0  0  0  0  0  0  0  0
  190.6010  177.6680  148.6000 C   0  0  0  0  0  2  0  0  0  0  0  0
  192.0160  177.1100  148.5490 C   0  0  0  0  0  2  0  0  0  0  0  0
  190.1030  177.6840  147.2380 N   0  0  0  0  0  0  0  0  0  0  0  0
  187.2830  177.3250  135.3360 C   0  0  0  0  0  2  0  0  0  0  0  0
  188.5820  176.7340  134.8040 C   0  0  0  0  0  2  0  0  0  0  0  0
  188.3500  175.2980  134.3520 C   0  0  0  0  0  2  0  0  0  0  0  0
  188.4870  174.3160  135.5060 C   0  0  0  0  0  2  0  0  0  0  0  0
  190.7920  174.5260  136.5090 N   0  0  0  0  0  2  0  0  0  0  0  0
  192.9470  174.9700  137.7610 C   0  0  0  0  0  2  0  0  0  0  0  0
  196.6740  173.5350  136.6810 S   0  0  0  0  0  0  0  0  0  0  0  0
  192.1880  174.2350  136.6770 C   0  0  0  0  0  0  0  0  0  0  0  0
  190.2550  172.8040  135.0090 O   0  0  0  0  0  0  0  0  0  0  0  0
  194.4600  174.9920  137.4970 C   0  0  0  0  0  2  0  0  0  0  0  0
  194.8140  172.3810  135.1830 N   0  0  0  0  0  0  0  0  0  0  0  0
  194.9420  173.5730  137.2220 C   0  0  1  0  0  3  0  0  0  0  0  0
  196.2420  172.2650  135.4300 C   0  0  2  0  0  3  0  0  0  0  0  0
  189.8910  173.8380  135.6310 C   0  0  0  0  0  0  0  0  0  0  0  0
  194.1630  173.0280  136.0860 C   0  0  0  0  0  0  0  0  0  0  0  0
  192.7750  173.3420  135.9290 N   0  0  0  0  0  0  0  0  0  0  0  0
  196.8950  170.9220  137.3030 O   0  0  0  0  0  1  0  0  0  0  0  0
  196.5700  170.8700  135.9490 C   0  0  2  0  0  3  0  0  0  0  0  0
  197.6920  170.3190  135.2040 N   0  0  0  0  0  1  0  0  0  0  0  0
  2 24  1  0  0  0  0
  3 23  1  0  0  0  0
  3 18  2  0  0  0  0
  4 16  1  0  0  0  0
  5  9  1  0  0  0  0
  7 28  1  1  0  0  0
  8  4  1  0  0  0  0
  9  6  1  0  0  0  0
 10 26  1  0  0  0  0
 11 17  1  0  0  0  0
 12 25  1  0  0  0  0
 12 21  1  0  0  0  0
 13 22  1  6  0  0  0
 13  7  1  0  0  0  0
 13  5  1  0  0  0  0
 14 15  1  0  0  0  0
 15  9  2  0  0  0  0
 16  3  1  0  0  0  0
 17 10  1  0  0  0  0
 18 20  1  0  0  0  0
 20  7  1  0  0  0  0
 21  2  1  0  0  0  0
 21  1  2  0  0  0  0
 23 22  1  0  0  0  0
 24 19  1  0  0  0  0
 24 11  1  0  0  0  0
 25 34  1  6  0  0  0
 25  8  1  0  0  0  0
 26 14  1  0  0  0  0
 27 30  1  0  0  0  0
 28 27  2  0  0  0  0
 29 32  1  0  0  0  0
 30 29  1  0  0  0  0
 30 33  2  0  0  0  0
 32 31  1  0  0  0  0
 33 31  1  0  0  0  0
 35 34  1  0  0  0  0
 36 35  1  0  0  0  0
 36 37  1  0  0  0  0
 37 47  1  0  0  0  0
 38 41  1  0  0  0  0
 40 45  1  0  0  0  0
 41 39  1  0  0  0  0
 42 47  2  0  0  0  0
 43 39  1  0  0  0  0
 44 46  1  0  0  0  0
 44 48  2  0  0  0  0
 45 43  1  6  0  0  0
 46 51  1  1  0  0  0
 46 40  1  0  0  0  0
 47 38  1  0  0  0  0
 48 45  1  0  0  0  0
 49 48  1  0  0  0  0
 49 41  2  0  0  0  0
 51 52  1  6  0  0  0
 51 50  1  0  0  0  0
M  END
>  <MODEL>
6

>  <REMARK>
 VINA RESULT:      -6.6      1.546      1.859
  Name = 
  8 active torsions:
  status: ('A' for Active; 'I' for Inactive)
    1  A    between atoms: C_6  and  C_14
    2  A    between atoms: C_6  and  C_21
    3  A    between atoms: C_9  and  N_22
    4  A    between atoms: C_14  and  C_24
    5  A    between atoms: C_17  and  N_41
    6  A    between atoms: C_21  and  C_48
    7  A    between atoms: C_24  and  C_42
    8  A    between atoms: C_32  and  C_40
                            x       y       z     vdW  Elec       q    Type
                         _______ _______ _______ _____ _____    ______ ____

>  <TORSDO>
F 8

$$$$
=
 OpenBabel10232409233D

 52 56  0  0  1  0  0  0  0  0999 V2000
  182.2630  177.6080  135.5850 O   0  0  0  0  0  0  0  0  0  0  0  0
  180.9110  175.8770  136.5230 C   0  0  0  0  0  2  0  0  0  0  0  0
  187.6050  177.7640  138.0130 C   0  0  0  0  0  0  0  0  0  0  0  0
  185.5260  179.1510  137.9200 C   0  0  0  0  0  2  0  0  0  0  0  0
  187.6760  174.1510  134.8570 S   0  0  0  0  0  0  0  0  0  0  0  0
  189.8650  172.3490  134.9280 C   0  0  0  0  0  1  0  0  0  0  0  0
  189.2690  176.4200  135.5850 C   0  0  1  0  0  3  0  0  0  0  0  0
  184.4650  178.0670  138.0720 C   0  0  0  0  0  2  0  0  0  0  0  0
  188.5780  172.7560  135.5570 C   0  0  0  0  0  0  0  0  0  0  0  0
  184.4320  172.7560  137.1830 C   0  0  0  0  0  2  0  0  0  0  0  0
  182.3470  174.0390  136.8040 C   0  0  0  0  0  2  0  0  0  0  0  0
  182.0860  177.6250  137.9170 N   0  0  0  0  0  2  0  0  0  0  0  0
  188.3340  175.3280  136.0370 C   0  0  1  0  0  3  0  0  0  0  0  0
  186.8670  172.3800  137.3610 C   0  0  0  0  0  2  0  0  0  0  0  0
  188.1290  172.0580  136.6160 C   0  0  0  0  0  3  0  0  0  0  0  0
  186.7760  178.7890  138.7140 C   0  0  0  0  0  2  0  0  0  0  0  0
  183.5240  173.3590  136.1320 C   0  0  0  0  0  2  0  0  0  0  0  0
  188.6880  178.1590  137.3820 N   0  0  0  0  0  0  0  0  0  0  0  0
  180.5620  173.9210  135.3010 C   0  0  0  0  0  1  0  0  0  0  0  0
  189.7420  177.3280  136.7570 C   0  0  0  0  0  2  0  0  0  0  0  0
  181.7940  177.0790  136.6290 C   0  0  0  0  0  0  0  0  0  0  0  0
  187.6230  175.6470  137.0650 C   0  0  0  0  0  2  0  0  0  0  0  0
  187.1420  176.3590  138.0220 C   0  0  0  0  0  2  0  0  0  0  0  0
  181.5950  174.8040  135.8200 N   0  0  0  0  0  0  0  0  0  0  0  0
  183.0750  178.6790  138.1070 C   0  0  1  0  0  3  0  0  0  0  0  0
  185.6390  172.1430  136.5010 C   0  0  0  0  0  2  0  0  0  0  0  0
  191.5060  175.6390  135.6080 N   0  0  0  0  0  0  0  0  0  0  0  0
  190.4360  175.8270  134.9480 N   0  0  0  0  0  0  0  0  0  0  0  0
  194.0770  175.9850  134.5490 S   0  0  0  0  0  0  0  0  0  0  0  0
  192.6480  175.0280  135.0080 C   0  0  0  0  0  0  0  0  0  0  0  0
  194.0230  173.3010  134.3460 C   0  0  0  0  0  2  0  0  0  0  0  0
  195.0200  174.4290  134.5700 C   0  0  0  0  0  2  0  0  0  0  0  0
  192.7520  173.7480  134.8810 N   0  0  0  0  0  0  0  0  0  0  0  0
  182.8680  179.3400  139.4620 C   0  0  0  0  0  2  0  0  0  0  0  0
  182.2410  178.3740  140.4600 C   0  0  0  0  0  2  0  0  0  0  0  0
  181.7680  179.1370  141.6900 C   0  0  0  0  0  2  0  0  0  0  0  0
  182.1990  178.4500  142.9780 C   0  0  0  0  0  2  0  0  0  0  0  0
  184.3480  178.0830  144.2450 N   0  0  0  0  0  2  0  0  0  0  0  0
  186.2880  177.6540  145.8140 C   0  0  0  0  0  2  0  0  0  0  0  0
  190.2880  178.0190  144.8200 S   0  0  0  0  0  0  0  0  0  0  0  0
  185.7660  177.9350  144.4210 C   0  0  0  0  0  0  0  0  0  0  0  0
  184.2870  178.0890  141.8990 O   0  0  0  0  0  0  0  0  0  0  0  0
  187.7640  178.0490  145.9690 C   0  0  0  0  0  2  0  0  0  0  0  0
  188.8090  178.2250  142.6270 N   0  0  0  0  0  0  0  0  0  0  0  0
  188.5740  177.4230  144.8400 C   0  0  1  0  0  3  0  0  0  0  0  0
  190.2140  178.1300  142.9900 C   0  0  2  0  0  3  0  0  0  0  0  0
  183.6680  178.2190  142.9900 C   0  0  0  0  0  0  0  0  0  0  0  0
  187.9890  177.8620  143.5500 C   0  0  0  0  0  0  0  0  0  0  0  0
  186.5740  178.0170  143.4010 N   0  0  0  0  0  0  0  0  0  0  0  0
  191.5380  176.1590  143.3070 O   0  0  0  0  0  1  0  0  0  0  0  0
  190.8350  176.8920  142.3540 C   0  0  2  0  0  3  0  0  0  0  0  0
  191.7390  177.2890  141.2860 N   0  0  0  0  0  1  0  0  0  0  0  0
  1 21  2  0  0  0  0
  2 21  1  0  0  0  0
  3 23  1  0  0  0  0
  3 16  1  0  0  0  0
  4  8  1  0  0  0  0
  4 16  1  0  0  0  0
  5  9  1  0  0  0  0
  5 13  1  0  0  0  0
  6  9  1  0  0  0  0
  7 28  1  1  0  0  0
  7 13  1  0  0  0  0
  7 20  1  0  0  0  0
  8 25  1  0  0  0  0
  9 15  2  0  0  0  0
 12 25  1  0  0  0  0
 13 22  1  6  0  0  0
 15 14  1  0  0  0  0
 17 11  1  0  0  0  0
 17 10  1  0  0  0  0
 18  3  2  0  0  0  0
 19 24  1  0  0  0  0
 20 18  1  0  0  0  0
 21 12  1  0  0  0  0
 22 23  1  0  0  0  0
 24  2  1  0  0  0  0
 24 11  1  0  0  0  0
 25 34  1  1  0  0  0
 26 10  1  0  0  0  0
 26 14  1  0  0  0  0
 28 27  2  0  0  0  0
 29 32  1  0  0  0  0
 29 30  1  0  0  0  0
 30 27  1  0  0  0  0
 31 32  1  0  0  0  0
 31 33  1  0  0  0  0
 33 30  2  0  0  0  0
 34 35  1  0  0  0  0
 35 36  1  0  0  0  0
 36 37  1  0  0  0  0
 37 47  1  0  0  0  0
 38 41  1  0  0  0  0
 39 43  1  0  0  0  0
 40 45  1  0  0  0  0
 41 39  1  0  0  0  0
 42 47  2  0  0  0  0
 44 46  1  0  0  0  0
 44 48  2  0  0  0  0
 45 43  1  1  0  0  0
 46 51  1  6  0  0  0
 46 40  1  0  0  0  0
 47 38  1  0  0  0  0
 48 45  1  0  0  0  0
 49 48  1  0  0  0  0
 49 41  2  0  0  0  0
 51 52  1  6  0  0  0
 51 50  1  0  0  0  0
M  END
>  <MODEL>
7

>  <REMARK>
 VINA RESULT:      -6.4      3.158      9.015
  Name = 
  8 active torsions:
  status: ('A' for Active; 'I' for Inactive)
    1  A    between atoms: C_6  and  C_14
    2  A    between atoms: C_6  and  C_21
    3  A    between atoms: C_9  and  N_22
    4  A    between atoms: C_14  and  C_24
    5  A    between atoms: C_17  and  N_41
    6  A    between atoms: C_21  and  C_48
    7  A    between atoms: C_24  and  C_42
    8  A    between atoms: C_32  and  C_40
                            x       y       z     vdW  Elec       q    Type
                         _______ _______ _______ _____ _____    ______ ____

>  <TORSDO>
F 8

$$$$
=
 OpenBabel10232409233D

 52 56  0  0  1  0  0  0  0  0999 V2000
  182.1560  178.1060  135.5290 O   0  0  0  0  0  0  0  0  0  0  0  0
  180.6230  176.4560  136.3240 C   0  0  0  0  0  2  0  0  0  0  0  0
  187.3950  177.6590  138.1370 C   0  0  0  0  0  0  0  0  0  0  0  0
  185.4500  179.2280  138.0520 C   0  0  0  0  0  2  0  0  0  0  0  0
  187.2700  174.2240  134.7910 S   0  0  0  0  0  0  0  0  0  0  0  0
  189.2900  172.2330  134.8340 C   0  0  0  0  0  1  0  0  0  0  0  0
  189.0260  176.3010  135.6950 C   0  0  1  0  0  3  0  0  0  0  0  0
  184.2930  178.2370  138.1090 C   0  0  0  0  0  2  0  0  0  0  0  0
  188.0200  172.7190  135.4410 C   0  0  0  0  0  0  0  0  0  0  0  0
  183.8320  173.0030  136.9270 C   0  0  0  0  0  2  0  0  0  0  0  0
  181.8820  174.4850  136.5510 C   0  0  0  0  0  2  0  0  0  0  0  0
  181.8930  178.0170  137.8510 N   0  0  0  0  0  2  0  0  0  0  0  0
  187.9830  175.2740  136.0540 C   0  0  1  0  0  3  0  0  0  0  0  0
  186.2160  172.4030  137.1640 C   0  0  0  0  0  2  0  0  0  0  0  0
  187.4720  172.0100  136.4450 C   0  0  0  0  0  3  0  0  0  0  0  0
  186.6330  178.7150  138.8660 C   0  0  0  0  0  2  0  0  0  0  0  0
  183.0200  173.7390  135.8810 C   0  0  0  0  0  2  0  0  0  0  0  0
  188.5320  177.9890  137.5650 N   0  0  0  0  0  0  0  0  0  0  0  0
  180.1510  174.6060  134.9860 C   0  0  0  0  0  1  0  0  0  0  0  0
  189.5320  177.1010  136.9300 C   0  0  0  0  0  2  0  0  0  0  0  0
  181.6030  177.5680  136.5260 C   0  0  0  0  0  0  0  0  0  0  0  0
  187.2640  175.6010  137.0750 C   0  0  0  0  0  2  0  0  0  0  0  0
  186.8110  176.3020  138.0530 C   0  0  0  0  0  2  0  0  0  0  0  0
  181.2370  175.3640  135.5860 N   0  0  0  0  0  0  0  0  0  0  0  0
  182.9620  178.9670  138.1320 C   0  0  1  0  0  3  0  0  0  0  0  0
  185.0050  172.3220  136.2520 C   0  0  0  0  0  2  0  0  0  0  0  0
  191.3260  175.7410  135.5640 N   0  0  0  0  0  0  0  0  0  0  0  0
  190.1610  175.6400  135.0650 N   0  0  0  0  0  0  0  0  0  0  0  0
  193.8380  175.9790  134.3460 S   0  0  0  0  0  0  0  0  0  0  0  0
  192.4420  175.0730  134.9790 C   0  0  0  0  0  0  0  0  0  0  0  0
  193.7990  173.2880  134.4420 C   0  0  0  0  0  2  0  0  0  0  0  0
  194.7950  174.4380  134.4910 C   0  0  0  0  0  2  0  0  0  0  0  0
  192.5520  173.7860  134.9870 N   0  0  0  0  0  0  0  0  0  0  0  0
  182.7620  179.5730  139.5140 C   0  0  0  0  0  2  0  0  0  0  0  0
  181.8820  178.6860  140.3850 C   0  0  0  0  0  2  0  0  0  0  0  0
  181.5010  179.4280  141.6590 C   0  0  0  0  0  2  0  0  0  0  0  0
  181.4120  178.4880  142.8530 C   0  0  0  0  0  2  0  0  0  0  0  0
  183.9260  178.2900  142.8420 N   0  0  0  0  0  2  0  0  0  0  0  0
  186.4250  178.1550  142.4640 C   0  0  0  0  0  2  0  0  0  0  0  0
  189.2250  177.1630  145.3450 S   0  0  0  0  0  0  0  0  0  0  0  0
  185.2400  178.1450  143.4050 C   0  0  0  0  0  0  0  0  0  0  0  0
  182.7220  178.5740  144.8360 O   0  0  0  0  0  0  0  0  0  0  0  0
  187.6570  177.4730  143.0780 C   0  0  0  0  0  2  0  0  0  0  0  0
  186.8570  177.5020  146.4920 N   0  0  0  0  0  0  0  0  0  0  0  0
  187.9240  178.0650  144.4580 C   0  0  1  0  0  3  0  0  0  0  0  0
  188.2400  177.2860  146.8880 C   0  0  2  0  0  3  0  0  0  0  0  0
  182.7070  178.4340  143.5830 C   0  0  0  0  0  0  0  0  0  0  0  0
  186.7010  177.9010  145.2790 C   0  0  0  0  0  0  0  0  0  0  0  0
  185.4010  178.0340  144.6940 N   0  0  0  0  0  0  0  0  0  0  0  0
  189.9230  178.1210  148.3750 O   0  0  0  0  0  1  0  0  0  0  0  0
  188.7270  178.4510  147.7410 C   0  0  2  0  0  3  0  0  0  0  0  0
  187.7250  178.7790  148.7430 N   0  0  0  0  0  1  0  0  0  0  0  0
  1 21  2  0  0  0  0
  2 21  1  0  0  0  0
  3 16  1  0  0  0  0
  4  8  1  0  0  0  0
  4 16  1  0  0  0  0
  5  9  1  0  0  0  0
  5 13  1  0  0  0  0
  6  9  1  0  0  0  0
  7 28  1  1  0  0  0
  7 13  1  0  0  0  0
  7 20  1  0  0  0  0
  8 25  1  0  0  0  0
  9 15  2  0  0  0  0
 12 25  1  0  0  0  0
 13 22  1  6  0  0  0
 15 14  1  0  0  0  0
 17 11  1  0  0  0  0
 17 10  1  0  0  0  0
 18  3  2  0  0  0  0
 19 24  1  0  0  0  0
 20 18  1  0  0  0  0
 21 12  1  0  0  0  0
 22 23  1  0  0  0  0
 23  3  1  0  0  0  0
 24  2  1  0  0  0  0
 24 11  1  0  0  0  0
 25 34  1  1  0  0  0
 26 10  1  0  0  0  0
 26 14  1  0  0  0  0
 28 27  2  0  0  0  0
 29 32  1  0  0  0  0
 29 30  1  0  0  0  0
 30 33  2  0  0  0  0
 30 27  1  0  0  0  0
 31 32  1  0  0  0  0
 31 33  1  0  0  0  0
 34 35  1  0  0  0  0
 35 36  1  0  0  0  0
 36 37  1  0  0  0  0
 37 47  1  0  0  0  0
 38 41  1  0  0  0  0
 38 47  1  0  0  0  0
 39 43  1  0  0  0  0
 39 41  1  0  0  0  0
 40 46  1  0  0  0  0
 41 49  2  0  0  0  0
 44 46  1  0  0  0  0
 45 43  1  6  0  0  0
 45 48  1  0  0  0  0
 45 40  1  0  0  0  0
 46 51  1  1  0  0  0
 47 42  2  0  0  0  0
 48 44  2  0  0  0  0
 49 48  1  0  0  0  0
 51 50  1  1  0  0  0
 51 52  1  0  0  0  0
M  END
>  <MODEL>
8

>  <REMARK>
 VINA RESULT:      -6.3      3.624      9.709
  Name = 
  8 active torsions:
  status: ('A' for Active; 'I' for Inactive)
    1  A    between atoms: C_6  and  C_14
    2  A    between atoms: C_6  and  C_21
    3  A    between atoms: C_9  and  N_22
    4  A    between atoms: C_14  and  C_24
    5  A    between atoms: C_17  and  N_41
    6  A    between atoms: C_21  and  C_48
    7  A    between atoms: C_24  and  C_42
    8  A    between atoms: C_32  and  C_40
                            x       y       z     vdW  Elec       q    Type
                         _______ _______ _______ _____ _____    ______ ____

>  <TORSDO>
F 8

$$$$
