=
 OpenBabel10232409203D

 30 31  0  0  1  0  0  0  0  0999 V2000
  187.5860  177.5510  145.4690 C   0  0  0  0  0  0  0  0  0  0  0  0
  185.6510  178.2660  143.5380 C   0  0  0  0  0  0  0  0  0  0  0  0
  186.2540  177.7800  145.8450 C   0  0  0  0  0  3  0  0  0  0  0  0
  186.9850  178.0350  143.1680 C   0  0  0  0  0  3  0  0  0  0  0  0
  185.2990  178.1360  144.8900 C   0  0  0  0  0  3  0  0  0  0  0  0
  187.9530  177.6820  144.1190 C   0  0  0  0  0  0  0  0  0  0  0  0
  182.1710  178.1890  140.8620 C   0  0  0  0  0  2  0  0  0  0  0  0
  182.1450  178.7160  142.2520 C   0  0  0  0  0  3  0  0  0  0  0  0
  183.2510  178.8970  142.9700 C   0  0  0  0  0  3  0  0  0  0  0  0
  182.8500  179.1370  139.9900 N   0  0  0  0  0  0  0  0  0  0  0  0
  184.2760  179.2960  140.0750 C   0  0  0  0  0  0  0  0  0  0  0  0
  184.6440  178.6550  142.5140 C   0  0  0  0  0  0  0  0  0  0  0  0
  185.0610  178.8630  141.2500 C   0  0  0  0  0  3  0  0  0  0  0  0
  184.9040  179.7950  139.1040 O   0  0  0  0  0  0  0  0  0  0  0  0
  181.6750  179.2950  137.8770 C   0  0  0  0  0  2  0  0  0  0  0  0
  182.1190  179.8660  138.9920 C   0  0  0  0  0  3  0  0  0  0  0  0
  188.5530  177.1960  146.4180 O   0  0  0  0  0  0  0  0  0  0  0  0
  188.4180  177.4880  147.8020 C   0  0  0  0  0  1  0  0  0  0  0  0
  189.3790  177.4440  143.7030 C   0  0  1  0  0  3  0  0  0  0  0  0
  190.3780  178.1220  144.6500 C   0  0  0  0  0  3  0  0  0  0  0  0
  191.0210  179.3200  143.9760 C   0  0  0  0  0  1  0  0  0  0  0  0
  191.4560  177.1730  145.1560 C   0  0  0  0  0  1  0  0  0  0  0  0
  189.6810  175.9640  143.4590 C   0  0  0  0  0  2  0  0  0  0  0  0
  190.4450  175.8060  142.2310 N   0  0  0  0  0  2  0  0  0  0  0  0
  189.9840  176.8300  141.3060 C   0  0  0  0  0  2  0  0  0  0  0  0
  190.4350  177.2320  138.8660 C   0  0  0  0  0  3  0  0  0  0  0  0
  190.8340  176.8300  140.0770 C   0  0  0  0  0  3  0  0  0  0  0  0
  189.0930  177.7150  138.4920 C   0  0  0  0  0  0  0  0  0  0  0  0
  188.1810  176.8740  138.2850 O   0  0  0  0  0  0  0  0  0  0  0  0
  188.7930  179.1040  138.3840 N   0  0  0  0  0  1  0  0  0  0  0  0
  1  3  1  0  0  0  0
  1 17  1  0  0  0  0
  2  5  1  0  0  0  0
  4  2  2  0  0  0  0
  4  6  1  0  0  0  0
  5  3  2  0  0  0  0
  6  1  2  0  0  0  0
  7  8  1  0  0  0  0
  8  9  2  0  0  0  0
 10 11  1  0  0  0  0
 10  7  1  0  0  0  0
 11 13  1  0  0  0  0
 12  9  1  0  0  0  0
 12  2  1  0  0  0  0
 13 12  2  0  0  0  0
 14 11  2  0  0  0  0
 15 16  2  0  0  0  0
 16 10  1  0  0  0  0
 17 18  1  0  0  0  0
 19 23  1  1  0  0  0
 19  6  1  0  0  0  0
 19 20  1  0  0  0  0
 20 22  1  0  0  0  0
 21 20  1  0  0  0  0
 24 23  1  0  0  0  0
 25 24  1  0  0  0  0
 26 27  2  0  0  0  0
 27 25  1  0  0  0  0
 28 26  1  0  0  0  0
 29 28  2  0  0  0  0
 30 28  1  0  0  0  0
M  END
>  <MODEL>
1

>  <REMARK>
 VINA RESULT:      -8.4      0.000      0.000
  Name = 
  10 active torsions:
  status: ('A' for Active; 'I' for Inactive)
    1  A    between atoms: N_4  and  C_12
    2  A    between atoms: N_4  and  C_21
    3  A    between atoms: C_5  and  C_28
    4  A    between atoms: C_6  and  C_18
    5  A    between atoms: O_7  and  C_8
    6  A    between atoms: C_9  and  C_16
    7  A    between atoms: C_12  and  C_28
    8  A    between atoms: N_13  and  C_17
    9  A    between atoms: C_21  and  C_24
   10  A    between atoms: C_28  and  C_30
                            x       y       z     vdW  Elec       q    Type
                         _______ _______ _______ _____ _____    ______ ____

>  <TORSDO>
F 10

$$$$
=
 OpenBabel10232409203D

 30 31  0  0  1  0  0  0  0  0999 V2000
  182.9720  178.8270  142.7610 C   0  0  0  0  0  0  0  0  0  0  0  0
  185.5580  178.0910  143.6330 C   0  0  0  0  0  0  0  0  0  0  0  0
  183.3330  178.9560  144.1110 C   0  0  0  0  0  3  0  0  0  0  0  0
  185.1910  177.9640  142.2840 C   0  0  0  0  0  3  0  0  0  0  0  0
  184.6110  178.5900  144.5410 C   0  0  0  0  0  3  0  0  0  0  0  0
  183.9100  178.3250  141.8420 C   0  0  0  0  0  0  0  0  0  0  0  0
  189.5370  178.1670  145.4860 C   0  0  0  0  0  2  0  0  0  0  0  0
  188.3000  177.7250  146.1810 C   0  0  0  0  0  3  0  0  0  0  0  0
  187.1480  177.5380  145.5420 C   0  0  0  0  0  3  0  0  0  0  0  0
  189.9670  177.1370  144.5490 N   0  0  0  0  0  0  0  0  0  0  0  0
  189.2300  176.9190  143.3350 C   0  0  0  0  0  0  0  0  0  0  0  0
  186.9170  177.6880  144.0820 C   0  0  0  0  0  0  0  0  0  0  0  0
  187.8400  177.3850  143.1490 C   0  0  0  0  0  3  0  0  0  0  0  0
  189.7850  176.3350  142.3670 O   0  0  0  0  0  0  0  0  0  0  0  0
  191.7810  176.3830  145.9670 C   0  0  0  0  0  2  0  0  0  0  0  0
  191.1660  176.3850  144.7890 C   0  0  0  0  0  3  0  0  0  0  0  0
  181.6940  179.1880  142.3180 O   0  0  0  0  0  0  0  0  0  0  0  0
  180.5960  179.3700  143.2000 C   0  0  0  0  0  1  0  0  0  0  0  0
  183.5340  178.1760  140.3930 C   0  0  1  0  0  3  0  0  0  0  0  0
  182.2160  177.4110  140.2140 C   0  0  0  0  0  3  0  0  0  0  0  0
  182.4840  175.9920  139.7450 C   0  0  0  0  0  1  0  0  0  0  0  0
  181.2550  178.0990  139.2540 C   0  0  0  0  0  1  0  0  0  0  0  0
  183.5740  179.5050  139.6360 C   0  0  0  0  0  2  0  0  0  0  0  0
  184.8670  179.6740  138.9920 N   0  0  0  0  0  2  0  0  0  0  0  0
  185.3540  178.3450  138.6570 C   0  0  0  0  0  2  0  0  0  0  0  0
  187.3640  178.2870  137.1480 C   0  0  0  0  0  3  0  0  0  0  0  0
  186.0430  178.3710  137.3310 C   0  0  0  0  0  3  0  0  0  0  0  0
  188.3970  178.1890  138.1960 C   0  0  0  0  0  0  0  0  0  0  0  0
  189.0010  179.2340  138.5520 O   0  0  0  0  0  0  0  0  0  0  0  0
  188.7130  176.9540  138.8330 N   0  0  0  0  0  1  0  0  0  0  0  0
  1  3  1  0  0  0  0
  2 12  1  0  0  0  0
  2  5  1  0  0  0  0
  3  5  2  0  0  0  0
  4  2  2  0  0  0  0
  6  4  1  0  0  0  0
  6  1  2  0  0  0  0
  7  8  1  0  0  0  0
  9  8  2  0  0  0  0
 10 16  1  0  0  0  0
 10  7  1  0  0  0  0
 11 10  1  0  0  0  0
 12  9  1  0  0  0  0
 13 11  1  0  0  0  0
 13 12  2  0  0  0  0
 14 11  2  0  0  0  0
 16 15  2  0  0  0  0
 17  1  1  0  0  0  0
 17 18  1  0  0  0  0
 19 23  1  1  0  0  0
 19  6  1  0  0  0  0
 20 19  1  0  0  0  0
 21 20  1  0  0  0  0
 22 20  1  0  0  0  0
 24 23  1  0  0  0  0
 25 24  1  0  0  0  0
 26 27  2  0  0  0  0
 26 28  1  0  0  0  0
 27 25  1  0  0  0  0
 28 29  2  0  0  0  0
 28 30  1  0  0  0  0
M  END
>  <MODEL>
2

>  <REMARK>
 VINA RESULT:      -8.1      1.942      6.952
  Name = 
  10 active torsions:
  status: ('A' for Active; 'I' for Inactive)
    1  A    between atoms: N_4  and  C_12
    2  A    between atoms: N_4  and  C_21
    3  A    between atoms: C_5  and  C_28
    4  A    between atoms: C_6  and  C_18
    5  A    between atoms: O_7  and  C_8
    6  A    between atoms: C_9  and  C_16
    7  A    between atoms: C_12  and  C_28
    8  A    between atoms: N_13  and  C_17
    9  A    between atoms: C_21  and  C_24
   10  A    between atoms: C_28  and  C_30
                            x       y       z     vdW  Elec       q    Type
                         _______ _______ _______ _____ _____    ______ ____

>  <TORSDO>
F 10

$$$$
=
 OpenBabel10232409203D

 30 31  0  0  1  0  0  0  0  0999 V2000
  182.6320  178.9620  143.0220 C   0  0  0  0  0  0  0  0  0  0  0  0
  185.2670  178.1920  143.6920 C   0  0  0  0  0  0  0  0  0  0  0  0
  183.0800  179.0340  144.3490 C   0  0  0  0  0  3  0  0  0  0  0  0
  184.8130  178.1230  142.3650 C   0  0  0  0  0  3  0  0  0  0  0  0
  184.3820  178.6510  144.6800 C   0  0  0  0  0  3  0  0  0  0  0  0
  183.5060  178.5010  142.0230 C   0  0  0  0  0  0  0  0  0  0  0  0
  189.3350  178.1620  145.3430 C   0  0  0  0  0  2  0  0  0  0  0  0
  188.1400  177.6400  146.0560 C   0  0  0  0  0  3  0  0  0  0  0  0
  186.9580  177.4930  145.4610 C   0  0  0  0  0  3  0  0  0  0  0  0
  189.7270  177.2280  144.2960 N   0  0  0  0  0  0  0  0  0  0  0  0
  188.9310  177.1090  143.1060 C   0  0  0  0  0  0  0  0  0  0  0  0
  186.6520  177.7710  144.0340 C   0  0  0  0  0  0  0  0  0  0  0  0
  187.5290  177.5690  143.0320 C   0  0  0  0  0  3  0  0  0  0  0  0
  189.4430  176.6240  142.0620 O   0  0  0  0  0  0  0  0  0  0  0  0
  191.6830  176.4740  145.5120 C   0  0  0  0  0  2  0  0  0  0  0  0
  190.9450  176.4760  144.4070 C   0  0  0  0  0  3  0  0  0  0  0  0
  181.3280  179.3410  142.6780 O   0  0  0  0  0  0  0  0  0  0  0  0
  180.1950  178.5250  142.9400 C   0  0  0  0  0  1  0  0  0  0  0  0
  183.0370  178.4130  140.5970 C   0  0  1  0  0  3  0  0  0  0  0  0
  183.8170  179.3580  139.6730 C   0  0  0  0  0  3  0  0  0  0  0  0
  182.8640  180.1930  138.8390 C   0  0  0  0  0  1  0  0  0  0  0  0
  184.7950  178.6260  138.7640 C   0  0  0  0  0  1  0  0  0  0  0  0
  182.9790  176.9720  140.0850 C   0  0  0  0  0  2  0  0  0  0  0  0
  181.6110  176.6210  139.7400 N   0  0  0  0  0  2  0  0  0  0  0  0
  181.6780  175.6410  138.6670 C   0  0  0  0  0  2  0  0  0  0  0  0
  183.5090  174.4170  137.4540 C   0  0  0  0  0  3  0  0  0  0  0  0
  183.1030  175.3020  138.3700 C   0  0  0  0  0  3  0  0  0  0  0  0
  182.6540  173.5840  136.5890 C   0  0  0  0  0  0  0  0  0  0  0  0
  182.3290  174.0200  135.4550 O   0  0  0  0  0  0  0  0  0  0  0  0
  182.2060  172.2910  136.9900 N   0  0  0  0  0  1  0  0  0  0  0  0
  1  3  1  0  0  0  0
  2 12  1  0  0  0  0
  2  5  1  0  0  0  0
  3  5  2  0  0  0  0
  4  2  2  0  0  0  0
  6  4  1  0  0  0  0
  6  1  2  0  0  0  0
  7  8  1  0  0  0  0
  9  8  2  0  0  0  0
 10 16  1  0  0  0  0
 10  7  1  0  0  0  0
 11 10  1  0  0  0  0
 12  9  1  0  0  0  0
 13 11  1  0  0  0  0
 13 12  2  0  0  0  0
 14 11  2  0  0  0  0
 16 15  2  0  0  0  0
 17 18  1  0  0  0  0
 17  1  1  0  0  0  0
 19 23  1  6  0  0  0
 19  6  1  0  0  0  0
 20 19  1  0  0  0  0
 21 20  1  0  0  0  0
 22 20  1  0  0  0  0
 24 23  1  0  0  0  0
 25 24  1  0  0  0  0
 26 27  2  0  0  0  0
 27 25  1  0  0  0  0
 28 30  1  0  0  0  0
 28 26  1  0  0  0  0
 29 28  2  0  0  0  0
M  END
>  <MODEL>
3

>  <REMARK>
 VINA RESULT:      -7.8      3.033      7.487
  Name = 
  10 active torsions:
  status: ('A' for Active; 'I' for Inactive)
    1  A    between atoms: N_4  and  C_12
    2  A    between atoms: N_4  and  C_21
    3  A    between atoms: C_5  and  C_28
    4  A    between atoms: C_6  and  C_18
    5  A    between atoms: O_7  and  C_8
    6  A    between atoms: C_9  and  C_16
    7  A    between atoms: C_12  and  C_28
    8  A    between atoms: N_13  and  C_17
    9  A    between atoms: C_21  and  C_24
   10  A    between atoms: C_28  and  C_30
                            x       y       z     vdW  Elec       q    Type
                         _______ _______ _______ _____ _____    ______ ____

>  <TORSDO>
F 10

$$$$
=
 OpenBabel10232409203D

 30 31  0  0  1  0  0  0  0  0999 V2000
  187.1780  177.9240  145.9350 C   0  0  0  0  0  0  0  0  0  0  0  0
  185.0100  178.3930  144.1830 C   0  0  0  0  0  0  0  0  0  0  0  0
  185.9090  178.2440  146.4400 C   0  0  0  0  0  3  0  0  0  0  0  0
  186.2820  178.0730  143.6830 C   0  0  0  0  0  3  0  0  0  0  0  0
  184.8390  178.4780  145.5740 C   0  0  0  0  0  3  0  0  0  0  0  0
  187.3650  177.8410  144.5440 C   0  0  0  0  0  0  0  0  0  0  0  0
  181.0790  178.2180  142.2370 C   0  0  0  0  0  2  0  0  0  0  0  0
  181.4150  179.1320  143.3600 C   0  0  0  0  0  3  0  0  0  0  0  0
  182.6600  179.2930  143.8040 C   0  0  0  0  0  3  0  0  0  0  0  0
  181.6920  178.7060  141.0080 N   0  0  0  0  0  0  0  0  0  0  0  0
  183.1120  178.5930  140.8220 C   0  0  0  0  0  0  0  0  0  0  0  0
  183.8800  178.6520  143.2510 C   0  0  0  0  0  0  0  0  0  0  0  0
  184.0530  178.3840  141.9420 C   0  0  0  0  0  3  0  0  0  0  0  0
  183.5920  178.6410  139.6580 O   0  0  0  0  0  0  0  0  0  0  0  0
  180.7460  180.5380  139.7360 C   0  0  0  0  0  2  0  0  0  0  0  0
  180.8820  179.2330  139.9460 C   0  0  0  0  0  3  0  0  0  0  0  0
  188.2590  177.6900  146.7930 O   0  0  0  0  0  0  0  0  0  0  0  0
  188.2590  178.0860  148.1580 C   0  0  0  0  0  1  0  0  0  0  0  0
  188.7220  177.5050  143.9880 C   0  0  1  0  0  3  0  0  0  0  0  0
  188.6310  176.6140  142.7420 C   0  0  0  0  0  3  0  0  0  0  0  0
  189.6050  175.4550  142.8440 C   0  0  0  0  0  1  0  0  0  0  0  0
  188.8710  177.3790  141.4470 C   0  0  0  0  0  1  0  0  0  0  0  0
  189.5980  178.7440  143.7900 C   0  0  0  0  0  2  0  0  0  0  0  0
  191.0000  178.3930  143.9480 N   0  0  0  0  0  2  0  0  0  0  0  0
  191.1280  177.7040  145.2220 C   0  0  0  0  0  2  0  0  0  0  0  0
  192.1520  175.5470  146.0100 C   0  0  0  0  0  3  0  0  0  0  0  0
  191.8210  176.3940  145.0300 C   0  0  0  0  0  3  0  0  0  0  0  0
  191.9370  175.7410  147.4560 C   0  0  0  0  0  0  0  0  0  0  0  0
  190.7710  175.6290  147.9170 O   0  0  0  0  0  0  0  0  0  0  0  0
  193.0110  176.0250  148.3490 N   0  0  0  0  0  1  0  0  0  0  0  0
  1  3  1  0  0  0  0
  1 17  1  0  0  0  0
  2  5  1  0  0  0  0
  4  2  2  0  0  0  0
  4  6  1  0  0  0  0
  5  3  2  0  0  0  0
  6  1  2  0  0  0  0
  7  8  1  0  0  0  0
  8  9  2  0  0  0  0
 10  7  1  0  0  0  0
 11 10  1  0  0  0  0
 11 13  1  0  0  0  0
 12  9  1  0  0  0  0
 12  2  1  0  0  0  0
 13 12  2  0  0  0  0
 14 11  2  0  0  0  0
 15 16  2  0  0  0  0
 16 10  1  0  0  0  0
 17 18  1  0  0  0  0
 19 23  1  6  0  0  0
 19  6  1  0  0  0  0
 20 21  1  0  0  0  0
 20 19  1  0  0  0  0
 22 20  1  0  0  0  0
 23 24  1  0  0  0  0
 24 25  1  0  0  0  0
 26 28  1  0  0  0  0
 27 25  1  0  0  0  0
 27 26  2  0  0  0  0
 28 29  2  0  0  0  0
 28 30  1  0  0  0  0
M  END
>  <MODEL>
4

>  <REMARK>
 VINA RESULT:      -7.7      2.075      4.152
  Name = 
  10 active torsions:
  status: ('A' for Active; 'I' for Inactive)
    1  A    between atoms: N_4  and  C_12
    2  A    between atoms: N_4  and  C_21
    3  A    between atoms: C_5  and  C_28
    4  A    between atoms: C_6  and  C_18
    5  A    between atoms: O_7  and  C_8
    6  A    between atoms: C_9  and  C_16
    7  A    between atoms: C_12  and  C_28
    8  A    between atoms: N_13  and  C_17
    9  A    between atoms: C_21  and  C_24
   10  A    between atoms: C_28  and  C_30
                            x       y       z     vdW  Elec       q    Type
                         _______ _______ _______ _____ _____    ______ ____

>  <TORSDO>
F 10

$$$$
=
 OpenBabel10232409203D

 30 31  0  0  1  0  0  0  0  0999 V2000
  182.3730  178.8990  143.1730 C   0  0  0  0  0  0  0  0  0  0  0  0
  185.1100  178.2780  143.5100 C   0  0  0  0  0  0  0  0  0  0  0  0
  182.9970  179.0770  144.4170 C   0  0  0  0  0  3  0  0  0  0  0  0
  184.4800  178.1010  142.2680 C   0  0  0  0  0  3  0  0  0  0  0  0
  184.3490  178.7680  144.5830 C   0  0  0  0  0  3  0  0  0  0  0  0
  183.1220  178.4050  142.0910 C   0  0  0  0  0  0  0  0  0  0  0  0
  188.9780  176.2270  143.1890 C   0  0  0  0  0  2  0  0  0  0  0  0
  188.5130  177.2850  142.2540 C   0  0  0  0  0  3  0  0  0  0  0  0
  187.4240  178.0140  142.4830 C   0  0  0  0  0  3  0  0  0  0  0  0
  189.3770  176.8320  144.4530 N   0  0  0  0  0  0  0  0  0  0  0  0
  188.3770  177.3410  145.3510 C   0  0  0  0  0  0  0  0  0  0  0  0
  186.5470  177.9340  143.6790 C   0  0  0  0  0  0  0  0  0  0  0  0
  187.0010  177.6620  144.9180 C   0  0  0  0  0  3  0  0  0  0  0  0
  188.6590  177.5000  146.5680 O   0  0  0  0  0  0  0  0  0  0  0  0
  191.6030  177.7860  144.4150 C   0  0  0  0  0  2  0  0  0  0  0  0
  190.7570  176.8580  144.8480 C   0  0  0  0  0  3  0  0  0  0  0  0
  181.0180  179.2040  142.9940 O   0  0  0  0  0  0  0  0  0  0  0  0
  179.9820  178.5580  143.7210 C   0  0  0  0  0  1  0  0  0  0  0  0
  182.4650  178.2030  140.7530 C   0  0  1  0  0  3  0  0  0  0  0  0
  182.3880  179.5050  139.9450 C   0  0  0  0  0  3  0  0  0  0  0  0
  181.0480  179.6180  139.2440 C   0  0  0  0  0  1  0  0  0  0  0  0
  183.5160  179.6420  138.9310 C   0  0  0  0  0  1  0  0  0  0  0  0
  183.0710  177.0360  139.9710 C   0  0  0  0  0  2  0  0  0  0  0  0
  182.0240  176.1100  139.5670 N   0  0  0  0  0  2  0  0  0  0  0  0
  182.4340  175.5300  138.2970 C   0  0  0  0  0  2  0  0  0  0  0  0
  183.4200  176.9640  136.4830 C   0  0  0  0  0  3  0  0  0  0  0  0
  182.3780  176.5630  137.2190 C   0  0  0  0  0  3  0  0  0  0  0  0
  184.8160  176.5060  136.6030 C   0  0  0  0  0  0  0  0  0  0  0  0
  185.1480  175.4200  136.0610 O   0  0  0  0  0  0  0  0  0  0  0  0
  185.8050  177.2670  137.2920 N   0  0  0  0  0  1  0  0  0  0  0  0
  1  3  1  0  0  0  0
  2 12  1  0  0  0  0
  2  5  1  0  0  0  0
  3  5  2  0  0  0  0
  4  2  2  0  0  0  0
  6  4  1  0  0  0  0
  6  1  2  0  0  0  0
  7 10  1  0  0  0  0
  8  9  2  0  0  0  0
  8  7  1  0  0  0  0
  9 12  1  0  0  0  0
 10 16  1  0  0  0  0
 10 11  1  0  0  0  0
 11 14  2  0  0  0  0
 12 13  2  0  0  0  0
 13 11  1  0  0  0  0
 15 16  2  0  0  0  0
 17  1  1  0  0  0  0
 17 18  1  0  0  0  0
 19 23  1  6  0  0  0
 19  6  1  0  0  0  0
 20 19  1  0  0  0  0
 21 20  1  0  0  0  0
 22 20  1  0  0  0  0
 24 23  1  0  0  0  0
 25 24  1  0  0  0  0
 26 28  1  0  0  0  0
 26 27  2  0  0  0  0
 27 25  1  0  0  0  0
 28 30  1  0  0  0  0
 29 28  2  0  0  0  0
M  END
>  <MODEL>
5

>  <REMARK>
 VINA RESULT:      -7.6      2.291      7.317
  Name = 
  10 active torsions:
  status: ('A' for Active; 'I' for Inactive)
    1  A    between atoms: N_4  and  C_12
    2  A    between atoms: N_4  and  C_21
    3  A    between atoms: C_5  and  C_28
    4  A    between atoms: C_6  and  C_18
    5  A    between atoms: O_7  and  C_8
    6  A    between atoms: C_9  and  C_16
    7  A    between atoms: C_12  and  C_28
    8  A    between atoms: N_13  and  C_17
    9  A    between atoms: C_21  and  C_24
   10  A    between atoms: C_28  and  C_30
                            x       y       z     vdW  Elec       q    Type
                         _______ _______ _______ _____ _____    ______ ____

>  <TORSDO>
F 10

$$$$
=
 OpenBabel10232409203D

 30 31  0  0  1  0  0  0  0  0999 V2000
  182.1480  178.8570  142.4030 C   0  0  0  0  0  0  0  0  0  0  0  0
  184.7080  178.4100  143.5150 C   0  0  0  0  0  0  0  0  0  0  0  0
  182.3730  179.0480  143.7750 C   0  0  0  0  0  3  0  0  0  0  0  0
  184.4760  178.2210  142.1430 C   0  0  0  0  0  3  0  0  0  0  0  0
  183.6380  178.8250  144.3240 C   0  0  0  0  0  3  0  0  0  0  0  0
  183.2090  178.4380  141.5830 C   0  0  0  0  0  0  0  0  0  0  0  0
  188.6070  176.5850  144.3740 C   0  0  0  0  0  2  0  0  0  0  0  0
  188.3700  177.5830  143.2970 C   0  0  0  0  0  3  0  0  0  0  0  0
  187.2260  178.2530  143.1810 C   0  0  0  0  0  3  0  0  0  0  0  0
  188.6080  177.2530  145.6680 N   0  0  0  0  0  0  0  0  0  0  0  0
  187.3740  177.7300  146.2290 C   0  0  0  0  0  0  0  0  0  0  0  0
  186.0560  178.1580  144.0910 C   0  0  0  0  0  0  0  0  0  0  0  0
  186.1590  177.9540  145.4180 C   0  0  0  0  0  3  0  0  0  0  0  0
  187.2970  177.9440  147.4680 O   0  0  0  0  0  0  0  0  0  0  0  0
  190.9870  176.9190  145.9830 C   0  0  0  0  0  2  0  0  0  0  0  0
  189.8200  177.3740  146.4280 C   0  0  0  0  0  3  0  0  0  0  0  0
  180.8840  179.0750  141.8420 O   0  0  0  0  0  0  0  0  0  0  0  0
  179.9820  180.0570  142.3340 C   0  0  0  0  0  1  0  0  0  0  0  0
  182.9800  178.2240  140.1120 C   0  0  1  0  0  3  0  0  0  0  0  0
  181.6840  177.4520  139.8350 C   0  0  0  0  0  3  0  0  0  0  0  0
  181.9800  175.9830  139.5950 C   0  0  0  0  0  1  0  0  0  0  0  0
  180.8930  178.0180  138.6630 C   0  0  0  0  0  1  0  0  0  0  0  0
  183.1020  179.5190  139.3040 C   0  0  0  0  0  2  0  0  0  0  0  0
  184.5000  179.8000  139.0220 N   0  0  0  0  0  2  0  0  0  0  0  0
  185.0650  178.6030  138.4200 C   0  0  0  0  0  2  0  0  0  0  0  0
  187.4320  177.7900  138.1770 C   0  0  0  0  0  3  0  0  0  0  0  0
  186.4780  178.4200  138.8700 C   0  0  0  0  0  3  0  0  0  0  0  0
  187.2820  177.1300  136.8670 C   0  0  0  0  0  0  0  0  0  0  0  0
  187.1610  177.8430  135.8380 O   0  0  0  0  0  0  0  0  0  0  0  0
  187.2970  175.7110  136.7300 N   0  0  0  0  0  1  0  0  0  0  0  0
  1  3  1  0  0  0  0
  2 12  1  0  0  0  0
  2  5  1  0  0  0  0
  3  5  2  0  0  0  0
  4  2  2  0  0  0  0
  6  4  1  0  0  0  0
  6  1  2  0  0  0  0
  7 10  1  0  0  0  0
  8  7  1  0  0  0  0
  9  8  2  0  0  0  0
  9 12  1  0  0  0  0
 10 11  1  0  0  0  0
 10 16  1  0  0  0  0
 11 14  2  0  0  0  0
 12 13  2  0  0  0  0
 13 11  1  0  0  0  0
 15 16  2  0  0  0  0
 17 18  1  0  0  0  0
 17  1  1  0  0  0  0
 19 23  1  6  0  0  0
 19  6  1  0  0  0  0
 20 19  1  0  0  0  0
 21 20  1  0  0  0  0
 22 20  1  0  0  0  0
 24 23  1  0  0  0  0
 25 27  1  0  0  0  0
 25 24  1  0  0  0  0
 26 27  2  0  0  0  0
 28 26  1  0  0  0  0
 29 28  2  0  0  0  0
 30 28  1  0  0  0  0
M  END
>  <MODEL>
6

>  <REMARK>
 VINA RESULT:      -7.4      2.162      7.217
  Name = 
  10 active torsions:
  status: ('A' for Active; 'I' for Inactive)
    1  A    between atoms: N_4  and  C_12
    2  A    between atoms: N_4  and  C_21
    3  A    between atoms: C_5  and  C_28
    4  A    between atoms: C_6  and  C_18
    5  A    between atoms: O_7  and  C_8
    6  A    between atoms: C_9  and  C_16
    7  A    between atoms: C_12  and  C_28
    8  A    between atoms: N_13  and  C_17
    9  A    between atoms: C_21  and  C_24
   10  A    between atoms: C_28  and  C_30
                            x       y       z     vdW  Elec       q    Type
                         _______ _______ _______ _____ _____    ______ ____

>  <TORSDO>
F 10

$$$$
=
 OpenBabel10232409203D

 30 31  0  0  1  0  0  0  0  0999 V2000
  189.7660  177.5150  138.8140 C   0  0  0  0  0  0  0  0  0  0  0  0
  189.2360  177.2960  141.5810 C   0  0  0  0  0  0  0  0  0  0  0  0
  190.8010  177.2280  139.7180 C   0  0  0  0  0  3  0  0  0  0  0  0
  188.2060  177.5840  140.6730 C   0  0  0  0  0  3  0  0  0  0  0  0
  190.5380  177.1220  141.0860 C   0  0  0  0  0  3  0  0  0  0  0  0
  188.4600  177.6960  139.2980 C   0  0  0  0  0  0  0  0  0  0  0  0
  187.5400  178.0410  145.5620 C   0  0  0  0  0  2  0  0  0  0  0  0
  186.9530  177.1080  144.5640 C   0  0  0  0  0  3  0  0  0  0  0  0
  187.5860  176.7650  143.4450 C   0  0  0  0  0  3  0  0  0  0  0  0
  188.7280  177.4400  146.1540 N   0  0  0  0  0  0  0  0  0  0  0  0
  189.9350  177.3270  145.3830 C   0  0  0  0  0  0  0  0  0  0  0  0
  188.9470  177.1980  143.0370 C   0  0  0  0  0  0  0  0  0  0  0  0
  189.9530  177.4100  143.9080 C   0  0  0  0  0  3  0  0  0  0  0  0
  191.0380  177.1820  145.9740 O   0  0  0  0  0  0  0  0  0  0  0  0
  188.2910  177.8070  148.5090 C   0  0  0  0  0  2  0  0  0  0  0  0
  188.7290  177.0240  147.5280 C   0  0  0  0  0  3  0  0  0  0  0  0
  190.0180  177.6260  137.4410 O   0  0  0  0  0  0  0  0  0  0  0  0
  190.8200  176.6950  136.7280 C   0  0  0  0  0  1  0  0  0  0  0  0
  187.3420  178.0110  138.3400 C   0  0  1  0  0  3  0  0  0  0  0  0
  187.3850  177.1220  137.0910 C   0  0  0  0  0  3  0  0  0  0  0  0
  187.0390  177.9280  135.8520 C   0  0  0  0  0  1  0  0  0  0  0  0
  186.4690  175.9100  137.1920 C   0  0  0  0  0  1  0  0  0  0  0  0
  185.9730  178.0360  139.0240 C   0  0  0  0  0  2  0  0  0  0  0  0
  185.2220  179.2040  138.5930 N   0  0  0  0  0  2  0  0  0  0  0  0
  184.2080  179.4570  139.6040 C   0  0  0  0  0  2  0  0  0  0  0  0
  184.1970  178.1380  141.7440 C   0  0  0  0  0  3  0  0  0  0  0  0
  183.9860  178.2300  140.4270 C   0  0  0  0  0  3  0  0  0  0  0  0
  184.7150  179.1950  142.6330 C   0  0  0  0  0  0  0  0  0  0  0  0
  185.7480  179.8250  142.2890 O   0  0  0  0  0  0  0  0  0  0  0  0
  184.0660  179.5400  143.8540 N   0  0  0  0  0  1  0  0  0  0  0  0
  1  6  2  0  0  0  0
  1  3  1  0  0  0  0
  2 12  1  0  0  0  0
  3  5  2  0  0  0  0
  4  2  2  0  0  0  0
  5  2  1  0  0  0  0
  6  4  1  0  0  0  0
  7 10  1  0  0  0  0
  8  7  1  0  0  0  0
  9  8  2  0  0  0  0
 10 16  1  0  0  0  0
 11 14  2  0  0  0  0
 11 10  1  0  0  0  0
 12  9  1  0  0  0  0
 12 13  2  0  0  0  0
 13 11  1  0  0  0  0
 16 15  2  0  0  0  0
 17  1  1  0  0  0  0
 18 17  1  0  0  0  0
 19 23  1  1  0  0  0
 19  6  1  0  0  0  0
 20 22  1  0  0  0  0
 20 19  1  0  0  0  0
 21 20  1  0  0  0  0
 24 23  1  0  0  0  0
 24 25  1  0  0  0  0
 25 27  1  0  0  0  0
 26 28  1  0  0  0  0
 27 26  2  0  0  0  0
 28 30  1  0  0  0  0
 29 28  2  0  0  0  0
M  END
>  <MODEL>
7

>  <REMARK>
 VINA RESULT:      -7.4      2.048      7.553
  Name = 
  10 active torsions:
  status: ('A' for Active; 'I' for Inactive)
    1  A    between atoms: N_4  and  C_12
    2  A    between atoms: N_4  and  C_21
    3  A    between atoms: C_5  and  C_28
    4  A    between atoms: C_6  and  C_18
    5  A    between atoms: O_7  and  C_8
    6  A    between atoms: C_9  and  C_16
    7  A    between atoms: C_12  and  C_28
    8  A    between atoms: N_13  and  C_17
    9  A    between atoms: C_21  and  C_24
   10  A    between atoms: C_28  and  C_30
                            x       y       z     vdW  Elec       q    Type
                         _______ _______ _______ _____ _____    ______ ____

>  <TORSDO>
F 10

$$$$
=
 OpenBabel10232409203D

 30 31  0  0  1  0  0  0  0  0999 V2000
  187.9060  178.0390  145.7810 C   0  0  0  0  0  0  0  0  0  0  0  0
  185.5770  178.2340  144.1920 C   0  0  0  0  0  0  0  0  0  0  0  0
  186.6540  178.2630  146.3750 C   0  0  0  0  0  3  0  0  0  0  0  0
  186.8320  178.0100  143.6040 C   0  0  0  0  0  3  0  0  0  0  0  0
  185.5040  178.3620  145.5880 C   0  0  0  0  0  3  0  0  0  0  0  0
  187.9940  177.9140  144.3850 C   0  0  0  0  0  0  0  0  0  0  0  0
  182.7580  179.5380  141.0890 C   0  0  0  0  0  2  0  0  0  0  0  0
  183.7630  178.4580  140.9040 C   0  0  0  0  0  3  0  0  0  0  0  0
  184.4740  177.9610  141.9140 C   0  0  0  0  0  3  0  0  0  0  0  0
  181.6610  179.0500  141.9140 N   0  0  0  0  0  0  0  0  0  0  0  0
  181.8600  178.8420  143.3210 C   0  0  0  0  0  0  0  0  0  0  0  0
  184.3610  178.3490  143.3430 C   0  0  0  0  0  0  0  0  0  0  0  0
  183.2000  178.7040  143.9280 C   0  0  0  0  0  3  0  0  0  0  0  0
  180.8630  178.8040  144.0900 O   0  0  0  0  0  0  0  0  0  0  0  0
  180.1420  177.9990  140.3460 C   0  0  0  0  0  2  0  0  0  0  0  0
  180.3570  178.8440  141.3490 C   0  0  0  0  0  3  0  0  0  0  0  0
  189.0660  177.9410  146.5590 O   0  0  0  0  0  0  0  0  0  0  0  0
  189.0380  177.6490  147.9500 C   0  0  0  0  0  1  0  0  0  0  0  0
  189.3300  177.6800  143.7350 C   0  0  1  0  0  3  0  0  0  0  0  0
  190.4950  178.0360  144.6670 C   0  0  0  0  0  3  0  0  0  0  0  0
  191.2970  179.1920  144.0990 C   0  0  0  0  0  1  0  0  0  0  0  0
  191.4170  176.8550  144.9450 C   0  0  0  0  0  1  0  0  0  0  0  0
  189.4470  176.2830  143.1200 C   0  0  0  0  0  2  0  0  0  0  0  0
  190.2950  176.3280  141.9390 N   0  0  0  0  0  2  0  0  0  0  0  0
  189.4240  176.5410  140.7950 C   0  0  0  0  0  2  0  0  0  0  0  0
  189.3010  178.2750  138.9790 C   0  0  0  0  0  3  0  0  0  0  0  0
  189.9860  177.6090  139.9140 C   0  0  0  0  0  3  0  0  0  0  0  0
  187.8880  178.0750  138.6070 C   0  0  0  0  0  0  0  0  0  0  0  0
  186.9920  178.4150  139.4230 O   0  0  0  0  0  0  0  0  0  0  0  0
  187.5080  177.5340  137.3450 N   0  0  0  0  0  1  0  0  0  0  0  0
  1  3  1  0  0  0  0
  1 17  1  0  0  0  0
  2  5  1  0  0  0  0
  4  2  2  0  0  0  0
  4  6  1  0  0  0  0
  5  3  2  0  0  0  0
  6  1  2  0  0  0  0
  7 10  1  0  0  0  0
  8  7  1  0  0  0  0
  8  9  2  0  0  0  0
  9 12  1  0  0  0  0
 10 11  1  0  0  0  0
 11 13  1  0  0  0  0
 11 14  2  0  0  0  0
 12 13  2  0  0  0  0
 12  2  1  0  0  0  0
 15 16  2  0  0  0  0
 16 10  1  0  0  0  0
 17 18  1  0  0  0  0
 19 23  1  1  0  0  0
 19  6  1  0  0  0  0
 19 20  1  0  0  0  0
 20 22  1  0  0  0  0
 21 20  1  0  0  0  0
 24 23  1  0  0  0  0
 25 24  1  0  0  0  0
 26 27  2  0  0  0  0
 27 25  1  0  0  0  0
 28 26  1  0  0  0  0
 28 29  2  0  0  0  0
 30 28  1  0  0  0  0
M  END
>  <MODEL>
8

>  <REMARK>
 VINA RESULT:      -7.1      1.660      2.053
  Name = 
  10 active torsions:
  status: ('A' for Active; 'I' for Inactive)
    1  A    between atoms: N_4  and  C_12
    2  A    between atoms: N_4  and  C_21
    3  A    between atoms: C_5  and  C_28
    4  A    between atoms: C_6  and  C_18
    5  A    between atoms: O_7  and  C_8
    6  A    between atoms: C_9  and  C_16
    7  A    between atoms: C_12  and  C_28
    8  A    between atoms: N_13  and  C_17
    9  A    between atoms: C_21  and  C_24
   10  A    between atoms: C_28  and  C_30
                            x       y       z     vdW  Elec       q    Type
                         _______ _______ _______ _____ _____    ______ ____

>  <TORSDO>
F 10

$$$$
=
 OpenBabel10232409203D

 30 31  0  0  1  0  0  0  0  0999 V2000
  187.3500  178.3020  140.3300 C   0  0  0  0  0  0  0  0  0  0  0  0
  189.4190  177.3280  138.6700 C   0  0  0  0  0  0  0  0  0  0  0  0
  187.1510  178.1670  138.9480 C   0  0  0  0  0  3  0  0  0  0  0  0
  189.6120  177.4660  140.0540 C   0  0  0  0  0  3  0  0  0  0  0  0
  188.1750  177.6880  138.1280 C   0  0  0  0  0  3  0  0  0  0  0  0
  188.5920  177.9500  140.8850 C   0  0  0  0  0  0  0  0  0  0  0  0
  191.7530  174.8550  135.8950 C   0  0  0  0  0  2  0  0  0  0  0  0
  190.8360  175.9450  135.4720 C   0  0  0  0  0  3  0  0  0  0  0  0
  190.2880  176.7950  136.3380 C   0  0  0  0  0  3  0  0  0  0  0  0
  192.9730  175.4270  136.4480 N   0  0  0  0  0  0  0  0  0  0  0  0
  192.9480  176.0570  137.7390 C   0  0  0  0  0  0  0  0  0  0  0  0
  190.5200  176.8280  137.8040 C   0  0  0  0  0  0  0  0  0  0  0  0
  191.7000  176.5230  138.3780 C   0  0  0  0  0  3  0  0  0  0  0  0
  194.0230  176.1980  138.3820 O   0  0  0  0  0  0  0  0  0  0  0  0
  194.9120  174.1690  135.7190 C   0  0  0  0  0  2  0  0  0  0  0  0
  194.2210  175.3040  135.7480 C   0  0  0  0  0  3  0  0  0  0  0  0
  186.3310  178.7840  141.1620 O   0  0  0  0  0  0  0  0  0  0  0  0
  185.0340  179.1080  140.6830 C   0  0  0  0  0  1  0  0  0  0  0  0
  188.8200  178.0960  142.3650 C   0  0  1  0  0  3  0  0  0  0  0  0
  187.9330  177.1480  143.1830 C   0  0  0  0  0  3  0  0  0  0  0  0
  187.6970  177.7070  144.5730 C   0  0  0  0  0  1  0  0  0  0  0  0
  188.5030  175.7390  143.2820 C   0  0  0  0  0  1  0  0  0  0  0  0
  190.3020  178.0190  142.7410 C   0  0  0  0  0  2  0  0  0  0  0  0
  190.6590  179.1430  143.5920 N   0  0  0  0  0  2  0  0  0  0  0  0
  191.5940  178.6450  144.5880 C   0  0  0  0  0  2  0  0  0  0  0  0
  191.3880  176.3720  145.6440 C   0  0  0  0  0  3  0  0  0  0  0  0
  191.6060  177.1510  144.5790 C   0  0  0  0  0  3  0  0  0  0  0  0
  191.1290  176.8170  147.0260 C   0  0  0  0  0  0  0  0  0  0  0  0
  192.0890  176.8620  147.8380 O   0  0  0  0  0  0  0  0  0  0  0  0
  189.8330  177.2210  147.4600 N   0  0  0  0  0  1  0  0  0  0  0  0
  1  6  1  0  0  0  0
  1 17  1  0  0  0  0
  2  4  1  0  0  0  0
  3  1  2  0  0  0  0
  4  6  2  0  0  0  0
  5  2  2  0  0  0  0
  5  3  1  0  0  0  0
  6 19  1  0  0  0  0
  7 10  1  0  0  0  0
  8  7  1  0  0  0  0
  8  9  2  0  0  0  0
  9 12  1  0  0  0  0
 10 11  1  0  0  0  0
 11 13  1  0  0  0  0
 11 14  2  0  0  0  0
 12 13  2  0  0  0  0
 12  2  1  0  0  0  0
 15 16  2  0  0  0  0
 16 10  1  0  0  0  0
 18 17  1  0  0  0  0
 19 23  1  6  0  0  0
 19 20  1  0  0  0  0
 20 22  1  0  0  0  0
 20 21  1  0  0  0  0
 23 24  1  0  0  0  0
 24 25  1  0  0  0  0
 26 28  1  0  0  0  0
 27 25  1  0  0  0  0
 27 26  2  0  0  0  0
 28 30  1  0  0  0  0
 28 29  2  0  0  0  0
M  END
>  <MODEL>
9

>  <REMARK>
 VINA RESULT:      -7.1      3.061      7.924
  Name = 
  10 active torsions:
  status: ('A' for Active; 'I' for Inactive)
    1  A    between atoms: N_4  and  C_12
    2  A    between atoms: N_4  and  C_21
    3  A    between atoms: C_5  and  C_28
    4  A    between atoms: C_6  and  C_18
    5  A    between atoms: O_7  and  C_8
    6  A    between atoms: C_9  and  C_16
    7  A    between atoms: C_12  and  C_28
    8  A    between atoms: N_13  and  C_17
    9  A    between atoms: C_21  and  C_24
   10  A    between atoms: C_28  and  C_30
                            x       y       z     vdW  Elec       q    Type
                         _______ _______ _______ _____ _____    ______ ____

>  <TORSDO>
F 10

$$$$
