=
 OpenBabel10232409333D

 33 39  0  0  1  0  0  0  0  0999 V2000
  190.6340  176.7860  137.1970 C   0  0  0  0  0  0  0  0  0  0  0  0
  189.3500  178.2180  142.7760 C   0  0  1  0  0  3  0  0  0  0  0  0
  190.4980  177.3110  145.9940 N   0  0  0  0  0  0  0  0  0  0  0  0
  188.5180  177.5550  138.1670 C   0  0  0  0  0  3  0  0  0  0  0  0
  191.8650  176.8270  139.1650 C   0  0  0  0  0  3  0  0  0  0  0  0
  192.0170  176.5000  137.7030 C   0  0  0  0  0  3  0  0  0  0  0  0
  190.6130  177.2150  139.3600 C   0  0  0  0  0  0  0  0  0  0  0  0
  188.0050  177.6670  144.8050 N   0  0  0  0  0  0  0  0  0  0  0  0
  189.0970  177.2070  143.9100 C   0  0  2  0  0  3  0  0  0  0  0  0
  191.7370  177.1700  143.9040 C   0  0  0  0  0  2  0  0  0  0  0  0
  190.0020  177.6210  140.5450 C   0  0  0  0  0  0  0  0  0  0  0  0
  186.5620  178.3100  139.3960 O   0  0  0  0  0  1  0  0  0  0  0  0
  189.4360  177.3630  146.7090 C   0  0  0  0  0  0  0  0  0  0  0  0
  190.4700  177.7040  141.9140 C   0  0  0  0  0  0  0  0  0  0  0  0
  187.2060  177.7910  147.1450 C   0  0  0  0  0  2  0  0  0  0  0  0
  189.3760  177.9930  148.0360 C   0  0  0  0  0  2  0  0  0  0  0  0
  191.5630  177.1450  142.4160 C   0  0  0  0  0  3  0  0  0  0  0  0
  188.2100  178.3090  141.8540 N   0  0  0  0  0  2  0  0  0  0  0  0
  190.4350  176.8010  144.6440 C   0  0  1  0  0  3  0  0  0  0  0  0
  187.9590  178.0460  148.3790 N   0  0  0  0  0  2  0  0  0  0  0  0
  188.1110  177.0740  146.1480 C   0  0  1  0  0  3  0  0  0  0  0  0
  189.8760  177.1920  138.1950 C   0  0  1  0  0  3  0  0  0  0  0  0
  187.9040  177.9530  139.3740 C   0  0  0  0  0  0  0  0  0  0  0  0
  188.6740  177.9760  140.5500 C   0  0  0  0  0  0  0  0  0  0  0  0
  190.1930  176.6490  135.8800 O   0  0  0  0  0  0  0  0  0  0  0  0
  189.8350  175.3840  135.3470 C   0  0  0  0  0  1  0  0  0  0  0  0
  186.7620  177.1680  144.2170 C   0  0  0  0  0  2  0  0  0  0  0  0
  183.6850  179.3980  144.7690 C   0  0  0  0  0  2  0  0  0  0  0  0
  185.7860  178.3070  143.9570 C   0  0  2  0  0  3  0  0  0  0  0  0
  184.7370  178.3330  145.0630 C   0  0  0  0  0  2  0  0  0  0  0  0
  184.1630  179.2350  142.3730 N   0  0  0  0  0  2  0  0  0  0  0  0
  183.1020  179.1680  143.3760 C   0  0  0  0  0  2  0  0  0  0  0  0
  185.0950  178.1340  142.6040 C   0  0  0  0  0  2  0  0  0  0  0  0
  1  6  2  0  0  0  0
  1 22  1  0  0  0  0
  2 18  1  6  0  0  0
  2  9  1  0  0  0  0
  3 13  2  0  0  0  0
  4 23  2  0  0  0  0
  5  7  2  0  0  0  0
  6  5  1  0  0  0  0
  7 11  1  0  0  0  0
  8 21  1  0  0  0  0
  9 19  1  0  0  0  0
  9  8  1  1  0  0  0
 11 24  2  0  0  0  0
 11 14  1  0  0  0  0
 13 16  1  0  0  0  0
 14 17  2  0  0  0  0
 14  2  1  0  0  0  0
 15 20  1  0  0  0  0
 16 20  1  0  0  0  0
 17 10  1  0  0  0  0
 19 10  1  6  0  0  0
 19  3  1  0  0  0  0
 21 13  1  0  0  0  0
 21 15  1  1  0  0  0
 22  4  1  1  0  0  0
 22  7  1  0  0  0  0
 23 12  1  0  0  0  0
 23 24  1  0  0  0  0
 24 18  1  0  0  0  0
 25  1  1  0  0  0  0
 26 25  1  0  0  0  0
 27  8  1  0  0  0  0
 28 30  1  0  0  0  0
 29 27  1  1  0  0  0
 29 30  1  0  0  0  0
 31 33  1  0  0  0  0
 31 32  1  0  0  0  0
 32 28  1  0  0  0  0
 33 29  1  0  0  0  0
M  END
>  <MODEL>
1

>  <REMARK>
 VINA RESULT:     -10.3      0.000      0.000
  Name = 
  3 active torsions:
  status: ('A' for Active; 'I' for Inactive)
    1  A    between atoms: C_1  and  O_13
    2  A    between atoms: C_3  and  C_7
    3  A    between atoms: C_7  and  N_11
                            x       y       z     vdW  Elec       q    Type
                         _______ _______ _______ _____ _____    ______ ____

>  <TORSDO>
F 3

$$$$
=
 OpenBabel10232409333D

 33 39  0  0  1  0  0  0  0  0999 V2000
  189.2050  176.9440  146.2410 C   0  0  0  0  0  0  0  0  0  0  0  0
  184.8750  179.0370  142.8210 C   0  0  1  0  0  3  0  0  0  0  0  0
  181.3710  179.4360  143.0610 N   0  0  0  0  0  0  0  0  0  0  0  0
  189.0490  177.0360  143.7960 C   0  0  0  0  0  3  0  0  0  0  0  0
  187.1470  177.9240  146.6800 C   0  0  0  0  0  3  0  0  0  0  0  0
  188.3380  177.3460  147.3980 C   0  0  0  0  0  2  0  0  0  0  0  0
  187.3780  177.8290  145.3800 C   0  0  0  0  0  0  0  0  0  0  0  0
  183.1320  178.5030  141.1160 N   0  0  0  0  0  0  0  0  0  0  0  0
  183.5520  178.3070  142.5270 C   0  0  2  0  0  3  0  0  0  0  0  0
  182.9590  179.2990  144.9010 C   0  0  0  0  0  2  0  0  0  0  0  0
  186.5680  178.2330  144.3190 C   0  0  0  0  0  0  0  0  0  0  0  0
  188.6150  177.2370  141.4130 O   0  0  0  0  0  1  0  0  0  0  0  0
  180.9710  179.2380  141.8610 C   0  0  0  0  0  0  0  0  0  0  0  0
  185.2410  178.8110  144.2620 C   0  0  0  0  0  0  0  0  0  0  0  0
  181.2130  178.8550  139.5940 C   0  0  0  0  0  2  0  0  0  0  0  0
  179.9840  180.0890  141.1790 C   0  0  0  0  0  2  0  0  0  0  0  0
  184.3490  178.8570  145.2430 C   0  0  0  0  0  3  0  0  0  0  0  0
  186.0020  178.4580  142.0770 N   0  0  0  0  0  2  0  0  0  0  0  0
  182.4470  178.6380  143.6050 C   0  0  1  0  0  3  0  0  0  0  0  0
  180.0040  179.6670  139.7830 N   0  0  0  0  0  2  0  0  0  0  0  0
  181.6800  178.3330  140.9490 C   0  0  1  0  0  3  0  0  0  0  0  0
  188.5980  177.2470  145.1110 C   0  0  0  0  0  0  0  0  0  0  0  0
  188.2160  177.4360  142.7290 C   0  0  0  0  0  0  0  0  0  0  0  0
  186.9780  178.0340  143.0220 C   0  0  0  0  0  0  0  0  0  0  0  0
  190.4600  176.3390  146.3220 O   0  0  0  0  0  0  0  0  0  0  0  0
  191.3250  176.5730  147.4210 C   0  0  0  0  0  1  0  0  0  0  0  0
  183.7770  177.4370  140.3500 C   0  0  0  0  0  2  0  0  0  0  0  0
  184.4750  177.3380  136.5750 C   0  0  0  0  0  2  0  0  0  0  0  0
  184.2400  177.9450  138.9920 C   0  0  2  0  0  3  0  0  0  0  0  0
  183.9240  176.8990  137.9280 C   0  0  0  0  0  2  0  0  0  0  0  0
  186.1680  178.7120  137.6890 N   0  0  0  0  0  2  0  0  0  0  0  0
  185.9640  177.6480  136.7070 C   0  0  0  0  0  2  0  0  0  0  0  0
  185.7420  178.2250  138.9990 C   0  0  0  0  0  2  0  0  0  0  0  0
  1 25  1  0  0  0  0
  1  6  1  0  0  0  0
  2 18  1  6  0  0  0
  2 14  1  0  0  0  0
  3 19  1  0  0  0  0
  4 22  1  0  0  0  0
  5  6  1  0  0  0  0
  7  5  2  0  0  0  0
  9  8  1  6  0  0  0
  9  2  1  0  0  0  0
  9 19  1  0  0  0  0
 10 17  1  0  0  0  0
 11  7  1  0  0  0  0
 12 23  1  0  0  0  0
 13  3  2  0  0  0  0
 14 11  1  0  0  0  0
 14 17  2  0  0  0  0
 15 20  1  0  0  0  0
 16 13  1  0  0  0  0
 18 24  1  0  0  0  0
 19 10  1  1  0  0  0
 20 16  1  0  0  0  0
 21 15  1  6  0  0  0
 21  8  1  0  0  0  0
 21 13  1  0  0  0  0
 22  7  1  0  0  0  0
 22  1  2  0  0  0  0
 23 24  1  0  0  0  0
 23  4  2  0  0  0  0
 24 11  2  0  0  0  0
 25 26  1  0  0  0  0
 27  8  1  0  0  0  0
 28 32  1  0  0  0  0
 28 30  1  0  0  0  0
 29 33  1  0  0  0  0
 29 27  1  1  0  0  0
 30 29  1  0  0  0  0
 31 33  1  0  0  0  0
 32 31  1  0  0  0  0
M  END
>  <MODEL>
2

>  <REMARK>
 VINA RESULT:      -9.9      3.255      7.729
  Name = 
  3 active torsions:
  status: ('A' for Active; 'I' for Inactive)
    1  A    between atoms: C_1  and  O_13
    2  A    between atoms: C_3  and  C_7
    3  A    between atoms: C_7  and  N_11
                            x       y       z     vdW  Elec       q    Type
                         _______ _______ _______ _____ _____    ______ ____

>  <TORSDO>
F 3

$$$$
=
 OpenBabel10232409333D

 33 39  0  0  1  0  0  0  0  0999 V2000
  187.0150  177.6970  135.6590 C   0  0  0  0  0  0  0  0  0  0  0  0
  188.8290  178.2900  141.2440 C   0  0  1  0  0  3  0  0  0  0  0  0
  191.4130  176.9710  143.2630 N   0  0  0  0  0  0  0  0  0  0  0  0
  185.7310  178.2630  137.6700 C   0  0  0  0  0  3  0  0  0  0  0  0
  189.0780  177.4950  136.7050 C   0  0  0  0  0  3  0  0  0  0  0  0
  188.4480  177.3810  135.3420 C   0  0  0  0  0  3  0  0  0  0  0  0
  188.1220  177.8160  137.5630 C   0  0  0  0  0  0  0  0  0  0  0  0
  188.6830  177.4210  143.5780 N   0  0  0  0  0  0  0  0  0  0  0  0
  189.1420  177.1230  142.1990 C   0  0  2  0  0  3  0  0  0  0  0  0
  191.4040  177.1610  140.8370 C   0  0  0  0  0  2  0  0  0  0  0  0
  188.2220  178.0340  138.9370 C   0  0  0  0  0  0  0  0  0  0  0  0
  184.7150  178.7810  139.8160 O   0  0  0  0  0  1  0  0  0  0  0  0
  190.8690  176.8920  144.4200 C   0  0  0  0  0  0  0  0  0  0  0  0
  189.3250  177.9350  139.8690 C   0  0  0  0  0  0  0  0  0  0  0  0
  189.1970  177.1910  145.9890 C   0  0  0  0  0  2  0  0  0  0  0  0
  191.5250  177.3260  145.6620 C   0  0  0  0  0  2  0  0  0  0  0  0
  190.4940  177.3420  139.6610 C   0  0  0  0  0  3  0  0  0  0  0  0
  187.3840  178.4790  141.0580 N   0  0  0  0  0  2  0  0  0  0  0  0
  190.6450  176.6550  142.0810 C   0  0  1  0  0  3  0  0  0  0  0  0
  190.4850  177.2900  146.6860 N   0  0  0  0  0  2  0  0  0  0  0  0
  189.4300  176.6470  144.5830 C   0  0  1  0  0  3  0  0  0  0  0  0
  186.8940  177.9370  136.9490 C   0  0  1  0  0  3  0  0  0  0  0  0
  185.8390  178.4680  139.0620 C   0  0  0  0  0  0  0  0  0  0  0  0
  187.1010  178.3470  139.6690 C   0  0  0  0  0  0  0  0  0  0  0  0
  185.9580  177.7350  134.7500 O   0  0  0  0  0  0  0  0  0  0  0  0
  185.2860  176.5540  134.3460 C   0  0  0  0  0  1  0  0  0  0  0  0
  187.2910  176.9760  143.6480 C   0  0  0  0  0  2  0  0  0  0  0  0
  184.9960  178.7730  146.1470 C   0  0  0  0  0  2  0  0  0  0  0  0
  186.3920  178.0780  144.1900 C   0  0  2  0  0  3  0  0  0  0  0  0
  185.9840  177.7380  145.6190 C   0  0  0  0  0  2  0  0  0  0  0  0
  184.2910  179.2950  143.8620 N   0  0  0  0  0  2  0  0  0  0  0  0
  183.8170  178.8920  145.1840 C   0  0  0  0  0  2  0  0  0  0  0  0
  185.1410  178.2340  143.3270 C   0  0  0  0  0  2  0  0  0  0  0  0
  1 22  1  0  0  0  0
  2 14  1  6  0  0  0
  2  9  1  0  0  0  0
  3 13  2  0  0  0  0
  4 23  2  0  0  0  0
  5  7  2  0  0  0  0
  6  1  2  0  0  0  0
  6  5  1  0  0  0  0
  7 11  1  0  0  0  0
  8 27  1  0  0  0  0
  8 21  1  0  0  0  0
  9  8  1  1  0  0  0
 11 24  2  0  0  0  0
 11 14  1  0  0  0  0
 13 21  1  0  0  0  0
 13 16  1  0  0  0  0
 15 20  1  0  0  0  0
 16 20  1  0  0  0  0
 17 14  2  0  0  0  0
 17 10  1  0  0  0  0
 18  2  1  0  0  0  0
 19 10  1  6  0  0  0
 19  9  1  0  0  0  0
 19  3  1  0  0  0  0
 21 15  1  1  0  0  0
 22  7  1  0  0  0  0
 22  4  1  1  0  0  0
 23 24  1  0  0  0  0
 23 12  1  0  0  0  0
 24 18  1  0  0  0  0
 25  1  1  0  0  0  0
 26 25  1  0  0  0  0
 29 27  1  6  0  0  0
 29 30  1  0  0  0  0
 30 28  1  0  0  0  0
 31 32  1  0  0  0  0
 32 28  1  0  0  0  0
 33 31  1  0  0  0  0
 33 29  1  0  0  0  0
M  END
>  <MODEL>
3

>  <REMARK>
 VINA RESULT:      -9.7      1.856      2.697
  Name = 
  3 active torsions:
  status: ('A' for Active; 'I' for Inactive)
    1  A    between atoms: C_1  and  O_13
    2  A    between atoms: C_3  and  C_7
    3  A    between atoms: C_7  and  N_11
                            x       y       z     vdW  Elec       q    Type
                         _______ _______ _______ _____ _____    ______ ____

>  <TORSDO>
F 3

$$$$
=
 OpenBabel10232409333D

 33 39  0  0  1  0  0  0  0  0999 V2000
  187.8450  177.4370  146.1290 C   0  0  0  0  0  0  0  0  0  0  0  0
  188.5620  178.2470  140.3280 C   0  0  1  0  0  3  0  0  0  0  0  0
  186.4850  178.3550  137.4690 N   0  0  0  0  0  0  0  0  0  0  0  0
  189.7790  176.9380  144.7070 C   0  0  0  0  0  3  0  0  0  0  0  0
  186.4880  178.2920  144.4500 C   0  0  0  0  0  3  0  0  0  0  0  0
  186.4750  178.0150  145.9300 C   0  0  0  0  0  2  0  0  0  0  0  0
  187.6700  177.9170  143.9840 C   0  0  0  0  0  0  0  0  0  0  0  0
  188.9200  177.1650  138.1080 N   0  0  0  0  0  0  0  0  0  0  0  0
  187.9660  177.3460  139.2310 C   0  0  2  0  0  3  0  0  0  0  0  0
  185.8330  178.8050  139.7710 C   0  0  0  0  0  2  0  0  0  0  0  0
  188.1510  177.9820  142.6760 C   0  0  0  0  0  0  0  0  0  0  0  0
  191.5240  176.5320  143.0640 O   0  0  0  0  0  1  0  0  0  0  0  0
  187.2200  177.8450  136.5530 C   0  0  0  0  0  0  0  0  0  0  0  0
  187.5480  178.4020  141.4280 C   0  0  0  0  0  0  0  0  0  0  0  0
  189.1590  176.9650  135.6520 C   0  0  0  0  0  2  0  0  0  0  0  0
  187.3580  178.4140  135.2050 C   0  0  0  0  0  2  0  0  0  0  0  0
  186.2570  178.5910  141.1910 C   0  0  0  0  0  3  0  0  0  0  0  0
  189.7110  177.6200  140.9940 N   0  0  0  0  0  2  0  0  0  0  0  0
  186.5180  177.8130  138.8080 C   0  0  1  0  0  3  0  0  0  0  0  0
  188.4530  177.6800  134.5810 N   0  0  0  0  0  2  0  0  0  0  0  0
  188.2300  176.8220  136.8530 C   0  0  1  0  0  3  0  0  0  0  0  0
  188.4810  177.4070  144.9750 C   0  0  0  0  0  0  0  0  0  0  0  0
  190.2520  176.9950  143.3780 C   0  0  0  0  0  0  0  0  0  0  0  0
  189.4130  177.5240  142.3820 C   0  0  0  0  0  0  0  0  0  0  0  0
  188.3850  176.9910  147.3360 O   0  0  0  0  0  0  0  0  0  0  0  0
  188.1790  177.7000  148.5460 C   0  0  0  0  0  1  0  0  0  0  0  0
  189.7510  176.0150  138.4640 C   0  0  0  0  0  2  0  0  0  0  0  0
  192.9210  174.7050  136.7370 C   0  0  0  0  0  2  0  0  0  0  0  0
  191.1020  176.0820  137.7660 C   0  0  2  0  0  3  0  0  0  0  0  0
  191.5210  174.6790  137.3430 C   0  0  0  0  0  2  0  0  0  0  0  0
  193.4530  176.7300  138.0070 N   0  0  0  0  0  2  0  0  0  0  0  0
  193.8890  175.3650  137.7170 C   0  0  0  0  0  2  0  0  0  0  0  0
  192.1640  176.6730  138.6930 C   0  0  0  0  0  2  0  0  0  0  0  0
  1 25  1  0  0  0  0
  2 18  1  1  0  0  0
  2 14  1  0  0  0  0
  3 19  1  0  0  0  0
  4 22  1  0  0  0  0
  5  6  1  0  0  0  0
  6  1  1  0  0  0  0
  7  5  2  0  0  0  0
  7 22  1  0  0  0  0
  8 27  1  0  0  0  0
  9  8  1  6  0  0  0
  9  2  1  0  0  0  0
 10 17  1  0  0  0  0
 11  7  1  0  0  0  0
 12 23  1  0  0  0  0
 13 21  1  0  0  0  0
 13  3  2  0  0  0  0
 14 11  1  0  0  0  0
 16 13  1  0  0  0  0
 17 14  2  0  0  0  0
 18 24  1  0  0  0  0
 19  9  1  0  0  0  0
 19 10  1  1  0  0  0
 20 16  1  0  0  0  0
 20 15  1  0  0  0  0
 21 15  1  6  0  0  0
 21  8  1  0  0  0  0
 22  1  2  0  0  0  0
 23  4  2  0  0  0  0
 24 11  2  0  0  0  0
 24 23  1  0  0  0  0
 25 26  1  0  0  0  0
 28 30  1  0  0  0  0
 28 32  1  0  0  0  0
 29 27  1  1  0  0  0
 29 33  1  0  0  0  0
 30 29  1  0  0  0  0
 31 33  1  0  0  0  0
 32 31  1  0  0  0  0
M  END
>  <MODEL>
4

>  <REMARK>
 VINA RESULT:      -9.1      3.073      8.734
  Name = 
  3 active torsions:
  status: ('A' for Active; 'I' for Inactive)
    1  A    between atoms: C_1  and  O_13
    2  A    between atoms: C_3  and  C_7
    3  A    between atoms: C_7  and  N_11
                            x       y       z     vdW  Elec       q    Type
                         _______ _______ _______ _____ _____    ______ ____

>  <TORSDO>
F 3

$$$$
=
 OpenBabel10232409333D

 33 39  0  0  1  0  0  0  0  0999 V2000
  191.3850  176.4590  137.3300 C   0  0  0  0  0  0  0  0  0  0  0  0
  187.8940  178.6040  141.5770 C   0  0  1  0  0  3  0  0  0  0  0  0
  187.4560  178.0960  145.0480 N   0  0  0  0  0  0  0  0  0  0  0  0
  189.1160  177.3750  137.1760 C   0  0  0  0  0  3  0  0  0  0  0  0
  191.6320  176.7320  139.6220 C   0  0  0  0  0  3  0  0  0  0  0  0
  192.3850  176.2200  138.4230 C   0  0  0  0  0  2  0  0  0  0  0  0
  190.4510  177.1590  139.2010 C   0  0  0  0  0  0  0  0  0  0  0  0
  185.7640  178.3340  142.8490 N   0  0  0  0  0  0  0  0  0  0  0  0
  187.1030  177.7490  142.5840 C   0  0  2  0  0  3  0  0  0  0  0  0
  189.4710  177.6740  143.7490 C   0  0  0  0  0  2  0  0  0  0  0  0
  189.4120  177.7210  139.9430 C   0  0  0  0  0  0  0  0  0  0  0  0
  186.8760  178.3070  137.3250 O   0  0  0  0  0  1  0  0  0  0  0  0
  186.1950  178.2530  145.2100 C   0  0  0  0  0  0  0  0  0  0  0  0
  189.2400  177.9700  141.3590 C   0  0  0  0  0  0  0  0  0  0  0  0
  184.0340  178.7640  144.5660 C   0  0  0  0  0  2  0  0  0  0  0  0
  185.6050  179.0470  146.2980 C   0  0  0  0  0  2  0  0  0  0  0  0
  189.9630  177.4630  142.3500 C   0  0  0  0  0  3  0  0  0  0  0  0
  187.2810  178.5950  140.2420 N   0  0  0  0  0  2  0  0  0  0  0  0
  187.9540  177.4200  143.8720 C   0  0  1  0  0  3  0  0  0  0  0  0
  184.1870  179.1630  145.9710 N   0  0  0  0  0  2  0  0  0  0  0  0
  185.2320  177.9140  144.1550 C   0  0  1  0  0  3  0  0  0  0  0  0
  190.2970  176.9990  137.8400 C   0  0  0  0  0  0  0  0  0  0  0  0
  188.0650  177.9310  137.9370 C   0  0  0  0  0  0  0  0  0  0  0  0
  188.2430  178.0930  139.3220 C   0  0  0  0  0  0  0  0  0  0  0  0
  191.5550  176.1630  135.9770 O   0  0  0  0  0  0  0  0  0  0  0  0
  191.4780  174.8310  135.4950 C   0  0  0  0  0  1  0  0  0  0  0  0
  184.8720  177.7830  141.8290 C   0  0  0  0  0  2  0  0  0  0  0  0
  181.6640  179.4420  140.5250 C   0  0  0  0  0  2  0  0  0  0  0  0
  183.9990  178.8710  141.2220 C   0  0  2  0  0  3  0  0  0  0  0  0
  182.5450  178.4130  141.2270 C   0  0  0  0  0  2  0  0  0  0  0  0
  183.5830  180.2250  139.2210 N   0  0  0  0  0  2  0  0  0  0  0  0
  182.2150  179.7180  139.1280 C   0  0  0  0  0  2  0  0  0  0  0  0
  184.4310  179.1780  139.7880 C   0  0  0  0  0  2  0  0  0  0  0  0
  1 22  2  0  0  0  0
  1  6  1  0  0  0  0
  2 18  1  6  0  0  0
  2  9  1  0  0  0  0
  3 13  2  0  0  0  0
  4 22  1  0  0  0  0
  4 23  2  0  0  0  0
  6  5  1  0  0  0  0
  7  5  2  0  0  0  0
  7 11  1  0  0  0  0
  8 21  1  0  0  0  0
  9  8  1  1  0  0  0
  9 19  1  0  0  0  0
 11 14  1  0  0  0  0
 12 23  1  0  0  0  0
 13 16  1  0  0  0  0
 14  2  1  0  0  0  0
 14 17  2  0  0  0  0
 15 20  1  0  0  0  0
 17 10  1  0  0  0  0
 19 10  1  6  0  0  0
 19  3  1  0  0  0  0
 20 16  1  0  0  0  0
 21 15  1  1  0  0  0
 21 13  1  0  0  0  0
 22  7  1  0  0  0  0
 23 24  1  0  0  0  0
 24 11  2  0  0  0  0
 24 18  1  0  0  0  0
 25  1  1  0  0  0  0
 26 25  1  0  0  0  0
 27  8  1  0  0  0  0
 28 30  1  0  0  0  0
 29 30  1  0  0  0  0
 29 27  1  6  0  0  0
 31 33  1  0  0  0  0
 32 31  1  0  0  0  0
 32 28  1  0  0  0  0
 33 29  1  0  0  0  0
M  END
>  <MODEL>
5

>  <REMARK>
 VINA RESULT:      -9.0      1.815      2.773
  Name = 
  3 active torsions:
  status: ('A' for Active; 'I' for Inactive)
    1  A    between atoms: C_1  and  O_13
    2  A    between atoms: C_3  and  C_7
    3  A    between atoms: C_7  and  N_11
                            x       y       z     vdW  Elec       q    Type
                         _______ _______ _______ _____ _____    ______ ____

>  <TORSDO>
F 3

$$$$
=
 OpenBabel10232409333D

 33 39  0  0  1  0  0  0  0  0999 V2000
  186.3210  177.9110  146.4690 C   0  0  0  0  0  0  0  0  0  0  0  0
  183.8850  178.9820  141.2010 C   0  0  1  0  0  3  0  0  0  0  0  0
  180.6350  178.9310  139.8120 N   0  0  0  0  0  0  0  0  0  0  0  0
  187.2850  177.6910  144.2250 C   0  0  0  0  0  3  0  0  0  0  0  0
  184.2270  178.6510  145.7920 C   0  0  0  0  0  3  0  0  0  0  0  0
  184.9990  178.3280  147.0440 C   0  0  0  0  0  2  0  0  0  0  0  0
  185.0290  178.4340  144.7600 C   0  0  0  0  0  0  0  0  0  0  0  0
  183.1450  178.0200  139.0210 N   0  0  0  0  0  0  0  0  0  0  0  0
  182.8910  178.0510  140.4830 C   0  0  2  0  0  3  0  0  0  0  0  0
  181.2210  179.2280  142.1560 C   0  0  0  0  0  2  0  0  0  0  0  0
  184.7630  178.5960  143.4010 C   0  0  0  0  0  0  0  0  0  0  0  0
  187.9670  177.5480  141.8970 O   0  0  0  0  0  1  0  0  0  0  0  0
  180.8370  178.5410  138.6090 C   0  0  0  0  0  0  0  0  0  0  0  0
  183.5710  178.9800  142.6720 C   0  0  0  0  0  0  0  0  0  0  0  0
  182.1060  177.9270  136.7760 C   0  0  0  0  0  2  0  0  0  0  0  0
  180.2130  179.1640  137.4330 C   0  0  0  0  0  2  0  0  0  0  0  0
  182.3310  179.0220  143.1400 C   0  0  0  0  0  3  0  0  0  0  0  0
  185.2630  178.4760  141.1350 N   0  0  0  0  0  2  0  0  0  0  0  0
  181.3980  178.3560  140.8960 C   0  0  1  0  0  3  0  0  0  0  0  0
  180.8920  178.5850  136.2780 N   0  0  0  0  0  2  0  0  0  0  0  0
  181.9420  177.6370  138.2650 C   0  0  1  0  0  3  0  0  0  0  0  0
  186.2740  177.9940  145.1550 C   0  0  0  0  0  0  0  0  0  0  0  0
  187.0030  177.8460  142.8510 C   0  0  0  0  0  0  0  0  0  0  0  0
  185.7290  178.3020  142.4680 C   0  0  0  0  0  0  0  0  0  0  0  0
  187.4400  177.4950  147.1910 O   0  0  0  0  0  0  0  0  0  0  0  0
  187.7980  178.1060  148.4200 C   0  0  0  0  0  1  0  0  0  0  0  0
  184.1360  176.9670  138.8040 C   0  0  0  0  0  2  0  0  0  0  0  0
  186.4860  176.2370  135.8560 C   0  0  0  0  0  2  0  0  0  0  0  0
  184.9880  177.2630  137.5780 C   0  0  2  0  0  3  0  0  0  0  0  0
  185.5420  175.9570  137.0210 C   0  0  0  0  0  2  0  0  0  0  0  0
  186.9500  178.4710  136.7430 N   0  0  0  0  0  2  0  0  0  0  0  0
  187.5650  177.2220  136.2980 C   0  0  0  0  0  2  0  0  0  0  0  0
  186.1450  178.1980  137.9310 C   0  0  0  0  0  2  0  0  0  0  0  0
  1  6  1  0  0  0  0
  1 25  1  0  0  0  0
  2 18  1  1  0  0  0
  2 14  1  0  0  0  0
  3 19  1  0  0  0  0
  4 22  1  0  0  0  0
  5  6  1  0  0  0  0
  7 22  1  0  0  0  0
  7  5  2  0  0  0  0
  9  8  1  6  0  0  0
  9 19  1  0  0  0  0
  9  2  1  0  0  0  0
 10 17  1  0  0  0  0
 11  7  1  0  0  0  0
 12 23  1  0  0  0  0
 13  3  2  0  0  0  0
 14 17  2  0  0  0  0
 14 11  1  0  0  0  0
 16 13  1  0  0  0  0
 18 24  1  0  0  0  0
 19 10  1  1  0  0  0
 20 15  1  0  0  0  0
 20 16  1  0  0  0  0
 21 15  1  6  0  0  0
 21 13  1  0  0  0  0
 21  8  1  0  0  0  0
 22  1  2  0  0  0  0
 23  4  2  0  0  0  0
 24 23  1  0  0  0  0
 24 11  2  0  0  0  0
 25 26  1  0  0  0  0
 27  8  1  0  0  0  0
 28 32  1  0  0  0  0
 28 30  1  0  0  0  0
 29 33  1  0  0  0  0
 29 27  1  1  0  0  0
 30 29  1  0  0  0  0
 31 33  1  0  0  0  0
 32 31  1  0  0  0  0
M  END
>  <MODEL>
6

>  <REMARK>
 VINA RESULT:      -8.8      3.610      9.044
  Name = 
  3 active torsions:
  status: ('A' for Active; 'I' for Inactive)
    1  A    between atoms: C_1  and  O_13
    2  A    between atoms: C_3  and  C_7
    3  A    between atoms: C_7  and  N_11
                            x       y       z     vdW  Elec       q    Type
                         _______ _______ _______ _____ _____    ______ ____

>  <TORSDO>
F 3

$$$$
=
 OpenBabel10232409333D

 33 39  0  0  1  0  0  0  0  0999 V2000
  189.2360  177.0480  144.4050 C   0  0  0  0  0  0  0  0  0  0  0  0
  184.8840  179.2780  141.1030 C   0  0  1  0  0  3  0  0  0  0  0  0
  181.3500  179.2190  141.1230 N   0  0  0  0  0  0  0  0  0  0  0  0
  189.2140  177.6100  142.0190 C   0  0  0  0  0  3  0  0  0  0  0  0
  187.0470  177.6790  144.8520 C   0  0  0  0  0  3  0  0  0  0  0  0
  188.2580  177.1090  145.5420 C   0  0  0  0  0  2  0  0  0  0  0  0
  187.3650  177.8740  143.5810 C   0  0  0  0  0  0  0  0  0  0  0  0
  183.3270  178.9020  139.1890 N   0  0  0  0  0  0  0  0  0  0  0  0
  183.6840  178.4760  140.5650 C   0  0  2  0  0  3  0  0  0  0  0  0
  182.8310  178.8970  143.0280 C   0  0  0  0  0  2  0  0  0  0  0  0
  186.5740  178.3870  142.5540 C   0  0  0  0  0  0  0  0  0  0  0  0
  188.9000  178.2350  139.6920 O   0  0  0  0  0  1  0  0  0  0  0  0
  181.0490  179.2220  139.8780 C   0  0  0  0  0  0  0  0  0  0  0  0
  185.1900  178.8110  142.4990 C   0  0  0  0  0  0  0  0  0  0  0  0
  181.4710  179.3310  137.6080 C   0  0  0  0  0  2  0  0  0  0  0  0
  180.0040  180.0740  139.2930 C   0  0  0  0  0  2  0  0  0  0  0  0
  184.2430  178.5570  143.3930 C   0  0  0  0  0  3  0  0  0  0  0  0
  186.1180  178.9920  140.3580 N   0  0  0  0  0  2  0  0  0  0  0  0
  182.4840  178.4560  141.5910 C   0  0  1  0  0  3  0  0  0  0  0  0
  180.1600  179.9450  137.8480 N   0  0  0  0  0  2  0  0  0  0  0  0
  181.9210  178.6050  138.8710 C   0  0  1  0  0  3  0  0  0  0  0  0
  188.6640  177.5000  143.3090 C   0  0  0  0  0  0  0  0  0  0  0  0
  188.4020  178.1190  140.9830 C   0  0  0  0  0  0  0  0  0  0  0  0
  187.0820  178.5010  141.2820 C   0  0  0  0  0  0  0  0  0  0  0  0
  190.5510  176.5860  144.4730 O   0  0  0  0  0  0  0  0  0  0  0  0
  191.4690  177.1000  145.4250 C   0  0  0  0  0  1  0  0  0  0  0  0
  184.1470  178.0920  138.2880 C   0  0  0  0  0  2  0  0  0  0  0  0
  182.8830  174.5450  137.5330 C   0  0  0  0  0  2  0  0  0  0  0  0
  183.3130  177.0090  137.6180 C   0  0  2  0  0  3  0  0  0  0  0  0
  183.6260  175.6620  138.2590 C   0  0  0  0  0  2  0  0  0  0  0  0
  182.8030  175.8980  135.4930 N   0  0  0  0  0  2  0  0  0  0  0  0
  183.2050  174.6030  136.0410 C   0  0  0  0  0  2  0  0  0  0  0  0
  183.6120  176.9410  136.1200 C   0  0  0  0  0  2  0  0  0  0  0  0
  1 25  1  0  0  0  0
  1  6  1  0  0  0  0
  2 18  1  6  0  0  0
  2 14  1  0  0  0  0
  3 19  1  0  0  0  0
  4 22  1  0  0  0  0
  5  6  1  0  0  0  0
  7  5  2  0  0  0  0
  9  8  1  6  0  0  0
  9  2  1  0  0  0  0
  9 19  1  0  0  0  0
 10 17  1  0  0  0  0
 11  7  1  0  0  0  0
 12 23  1  0  0  0  0
 13  3  2  0  0  0  0
 14 11  1  0  0  0  0
 14 17  2  0  0  0  0
 15 20  1  0  0  0  0
 16 13  1  0  0  0  0
 18 24  1  0  0  0  0
 19 10  1  1  0  0  0
 20 16  1  0  0  0  0
 21 15  1  6  0  0  0
 21  8  1  0  0  0  0
 21 13  1  0  0  0  0
 22  7  1  0  0  0  0
 22  1  2  0  0  0  0
 23 24  1  0  0  0  0
 23  4  2  0  0  0  0
 24 11  2  0  0  0  0
 25 26  1  0  0  0  0
 27  8  1  0  0  0  0
 28 30  1  0  0  0  0
 29 30  1  0  0  0  0
 29 27  1  1  0  0  0
 31 32  1  0  0  0  0
 31 33  1  0  0  0  0
 32 28  1  0  0  0  0
 33 29  1  0  0  0  0
M  END
>  <MODEL>
7

>  <REMARK>
 VINA RESULT:      -8.6      3.815      7.858
  Name = 
  3 active torsions:
  status: ('A' for Active; 'I' for Inactive)
    1  A    between atoms: C_1  and  O_13
    2  A    between atoms: C_3  and  C_7
    3  A    between atoms: C_7  and  N_11
                            x       y       z     vdW  Elec       q    Type
                         _______ _______ _______ _____ _____    ______ ____

>  <TORSDO>
F 3

$$$$
=
 OpenBabel10232409333D

 33 39  0  0  1  0  0  0  0  0999 V2000
  183.5650  177.6670  136.8450 C   0  0  0  0  0  0  0  0  0  0  0  0
  187.5560  178.5340  141.1040 C   0  0  1  0  0  3  0  0  0  0  0  0
  190.8760  177.5160  141.7650 N   0  0  0  0  0  0  0  0  0  0  0  0
  183.2330  178.1340  139.2280 C   0  0  0  0  0  3  0  0  0  0  0  0
  185.8860  177.6910  136.8860 C   0  0  0  0  0  3  0  0  0  0  0  0
  184.7410  177.4910  135.9290 C   0  0  0  0  0  3  0  0  0  0  0  0
  185.3720  177.9280  138.0820 C   0  0  0  0  0  0  0  0  0  0  0  0
  188.5240  177.6940  143.2460 N   0  0  0  0  0  0  0  0  0  0  0  0
  188.3650  177.4210  141.7950 C   0  0  2  0  0  3  0  0  0  0  0  0
  189.7950  177.6630  139.5890 C   0  0  0  0  0  2  0  0  0  0  0  0
  186.0360  178.1780  139.2830 C   0  0  0  0  0  0  0  0  0  0  0  0
  183.2040  178.5840  141.6160 O   0  0  0  0  0  1  0  0  0  0  0  0
  190.8990  177.4020  143.0410 C   0  0  0  0  0  0  0  0  0  0  0  0
  187.4390  178.2070  139.6410 C   0  0  0  0  0  0  0  0  0  0  0  0
  190.0540  177.5580  145.1870 C   0  0  0  0  0  2  0  0  0  0  0  0
  191.9830  177.9200  143.8870 C   0  0  0  0  0  2  0  0  0  0  0  0
  188.4520  177.7310  138.9300 C   0  0  0  0  0  3  0  0  0  0  0  0
  186.1630  178.5730  141.5690 N   0  0  0  0  0  2  0  0  0  0  0  0
  189.7060  177.1040  141.0240 C   0  0  1  0  0  3  0  0  0  0  0  0
  191.5000  177.7980  145.2590 N   0  0  0  0  0  2  0  0  0  0  0  0
  189.7060  177.0170  143.8040 C   0  0  1  0  0  3  0  0  0  0  0  0
  183.9930  177.9150  138.0650 C   0  0  1  0  0  3  0  0  0  0  0  0
  183.9140  178.3730  140.4410 C   0  0  0  0  0  0  0  0  0  0  0  0
  185.3200  178.3900  140.4370 C   0  0  0  0  0  0  0  0  0  0  0  0
  182.2200  177.5830  136.4850 O   0  0  0  0  0  0  0  0  0  0  0  0
  181.8080  177.6760  135.1310 C   0  0  0  0  0  1  0  0  0  0  0  0
  187.3520  177.1130  143.8990 C   0  0  0  0  0  2  0  0  0  0  0  0
  186.3400  178.4530  147.3520 C   0  0  0  0  0  2  0  0  0  0  0  0
  186.7570  178.0790  144.9130 C   0  0  2  0  0  3  0  0  0  0  0  0
  187.0200  177.5570  146.3210 C   0  0  0  0  0  2  0  0  0  0  0  0
  184.6980  179.1630  145.6810 N   0  0  0  0  0  2  0  0  0  0  0  0
  184.8570  178.5860  147.0150 C   0  0  0  0  0  2  0  0  0  0  0  0
  185.2510  178.2330  144.7000 C   0  0  0  0  0  2  0  0  0  0  0  0
  1 22  1  0  0  0  0
  2 14  1  6  0  0  0
  2 18  1  0  0  0  0
  2  9  1  0  0  0  0
  3 13  2  0  0  0  0
  4 23  2  0  0  0  0
  5  7  2  0  0  0  0
  6  1  2  0  0  0  0
  6  5  1  0  0  0  0
  7 11  1  0  0  0  0
  8 21  1  0  0  0  0
  8 27  1  0  0  0  0
  9  8  1  1  0  0  0
 11 14  1  0  0  0  0
 11 24  2  0  0  0  0
 13 21  1  0  0  0  0
 13 16  1  0  0  0  0
 15 20  1  0  0  0  0
 16 20  1  0  0  0  0
 17 10  1  0  0  0  0
 17 14  2  0  0  0  0
 19 10  1  6  0  0  0
 19  3  1  0  0  0  0
 19  9  1  0  0  0  0
 21 15  1  1  0  0  0
 22  7  1  0  0  0  0
 22  4  1  1  0  0  0
 23 12  1  0  0  0  0
 24 23  1  0  0  0  0
 24 18  1  0  0  0  0
 25  1  1  0  0  0  0
 26 25  1  0  0  0  0
 29 27  1  6  0  0  0
 29 30  1  0  0  0  0
 30 28  1  0  0  0  0
 31 32  1  0  0  0  0
 32 28  1  0  0  0  0
 33 29  1  0  0  0  0
 33 31  1  0  0  0  0
M  END
>  <MODEL>
8

>  <REMARK>
 VINA RESULT:      -8.5      2.757      4.569
  Name = 
  3 active torsions:
  status: ('A' for Active; 'I' for Inactive)
    1  A    between atoms: C_1  and  O_13
    2  A    between atoms: C_3  and  C_7
    3  A    between atoms: C_7  and  N_11
                            x       y       z     vdW  Elec       q    Type
                         _______ _______ _______ _____ _____    ______ ____

>  <TORSDO>
F 3

$$$$
=
 OpenBabel10232409333D

 33 39  0  0  1  0  0  0  0  0999 V2000
  189.4230  177.6920  147.7350 C   0  0  0  0  0  0  0  0  0  0  0  0
  188.6050  176.8940  141.9460 C   0  0  1  0  0  3  0  0  0  0  0  0
  190.5660  177.1290  139.0140 N   0  0  0  0  0  0  0  0  0  0  0  0
  187.3860  177.9410  146.3940 C   0  0  0  0  0  3  0  0  0  0  0  0
  190.8210  177.0660  145.9900 C   0  0  0  0  0  3  0  0  0  0  0  0
  190.8530  177.3150  147.4750 C   0  0  0  0  0  2  0  0  0  0  0  0
  189.5820  177.2800  145.5750 C   0  0  0  0  0  0  0  0  0  0  0  0
  188.0150  177.9560  139.7660 N   0  0  0  0  0  0  0  0  0  0  0  0
  189.0270  177.8900  140.8500 C   0  0  2  0  0  3  0  0  0  0  0  0
  191.3620  176.7330  141.2800 C   0  0  0  0  0  2  0  0  0  0  0  0
  189.0650  177.1720  144.2840 C   0  0  0  0  0  0  0  0  0  0  0  0
  185.5400  178.1280  144.8250 O   0  0  0  0  0  1  0  0  0  0  0  0
  189.7320  177.5480  138.1370 C   0  0  0  0  0  0  0  0  0  0  0  0
  189.6710  176.8630  143.0060 C   0  0  0  0  0  0  0  0  0  0  0  0
  187.6560  178.1640  137.3250 C   0  0  0  0  0  2  0  0  0  0  0  0
  189.6240  176.9900  136.7810 C   0  0  0  0  0  2  0  0  0  0  0  0
  190.9670  176.8610  142.7190 C   0  0  0  0  0  3  0  0  0  0  0  0
  187.4060  177.3420  142.6660 N   0  0  0  0  0  2  0  0  0  0  0  0
  190.5090  177.6370  140.3650 C   0  0  1  0  0  3  0  0  0  0  0  0
  188.4130  177.5750  136.2140 N   0  0  0  0  0  2  0  0  0  0  0  0
  188.6020  178.4140  138.4960 C   0  0  1  0  0  3  0  0  0  0  0  0
  188.7470  177.6530  146.6060 C   0  0  0  0  0  0  0  0  0  0  0  0
  186.8750  177.8420  145.0830 C   0  0  0  0  0  0  0  0  0  0  0  0
  187.7400  177.4530  144.0450 C   0  0  0  0  0  0  0  0  0  0  0  0
  188.8740  178.0360  148.9700 O   0  0  0  0  0  0  0  0  0  0  0  0
  187.5520  177.6630  149.3230 C   0  0  0  0  0  1  0  0  0  0  0  0
  187.0460  178.9710  140.1770 C   0  0  0  0  0  2  0  0  0  0  0  0
  183.4420  178.3140  139.0270 C   0  0  0  0  0  2  0  0  0  0  0  0
  185.6380  178.3950  140.2240 C   0  0  2  0  0  3  0  0  0  0  0  0
  184.8900  178.7890  138.9560 C   0  0  0  0  0  2  0  0  0  0  0  0
  183.5310  178.3490  141.4730 N   0  0  0  0  0  2  0  0  0  0  0  0
  182.7960  178.8370  140.3080 C   0  0  0  0  0  2  0  0  0  0  0  0
  184.8780  178.9120  141.4450 C   0  0  0  0  0  2  0  0  0  0  0  0
  1 25  1  0  0  0  0
  2 18  1  1  0  0  0
  2 14  1  0  0  0  0
  3 19  1  0  0  0  0
  4 22  1  0  0  0  0
  5  6  1  0  0  0  0
  6  1  1  0  0  0  0
  7  5  2  0  0  0  0
  7 22  1  0  0  0  0
  8 27  1  0  0  0  0
  9  8  1  6  0  0  0
  9  2  1  0  0  0  0
 10 17  1  0  0  0  0
 11  7  1  0  0  0  0
 12 23  1  0  0  0  0
 13 21  1  0  0  0  0
 13  3  2  0  0  0  0
 14 11  1  0  0  0  0
 16 13  1  0  0  0  0
 17 14  2  0  0  0  0
 18 24  1  0  0  0  0
 19  9  1  0  0  0  0
 19 10  1  1  0  0  0
 20 16  1  0  0  0  0
 20 15  1  0  0  0  0
 21 15  1  6  0  0  0
 21  8  1  0  0  0  0
 22  1  2  0  0  0  0
 23  4  2  0  0  0  0
 24 11  2  0  0  0  0
 24 23  1  0  0  0  0
 25 26  1  0  0  0  0
 28 32  1  0  0  0  0
 29 27  1  6  0  0  0
 29 33  1  0  0  0  0
 30 28  1  0  0  0  0
 30 29  1  0  0  0  0
 32 31  1  0  0  0  0
 33 31  1  0  0  0  0
M  END
>  <MODEL>
9

>  <REMARK>
 VINA RESULT:      -8.1      2.801      7.087
  Name = 
  3 active torsions:
  status: ('A' for Active; 'I' for Inactive)
    1  A    between atoms: C_1  and  O_13
    2  A    between atoms: C_3  and  C_7
    3  A    between atoms: C_7  and  N_11
                            x       y       z     vdW  Elec       q    Type
                         _______ _______ _______ _____ _____    ______ ____

>  <TORSDO>
F 3

$$$$
