=
 OpenBabel10232409493D

 45 50  0  0  1  0  0  0  0  0999 V2000
  189.7830  178.0790  142.9110 C   0  0  0  0  0  2  0  0  0  0  0  0
  191.1570  177.7910  142.9610 C   0  0  0  0  0  3  0  0  0  0  0  0
  188.3630  177.9520  140.8290 C   0  0  0  0  0  0  0  0  0  0  0  0
  190.1880  177.3020  139.6290 N   0  0  0  0  0  0  0  0  0  0  0  0
  188.8530  177.5800  139.5610 C   0  0  0  0  0  0  0  0  0  0  0  0
  189.4220  177.8830  141.6410 N   0  0  0  0  0  0  0  0  0  0  0  0
  191.6000  177.4200  141.6750 C   0  0  0  0  0  3  0  0  0  0  0  0
  190.4500  177.5110  140.9320 C   0  0  0  0  0  0  0  0  0  0  0  0
  184.4560  179.0850  142.0080 C   0  0  0  0  0  3  0  0  0  0  0  0
  186.6370  178.3000  142.5520 N   0  0  0  0  0  0  0  0  0  0  0  0
  185.3900  178.6580  142.9560 C   0  0  0  0  0  0  0  0  0  0  0  0
  186.0980  178.7540  140.3120 N   0  0  0  0  0  0  0  0  0  0  0  0
  184.8410  179.1230  140.6680 C   0  0  0  0  0  3  0  0  0  0  0  0
  187.0010  178.3450  141.2430 C   0  0  0  0  0  0  0  0  0  0  0  0
  183.8400  178.4250  144.7360 O   0  0  0  0  0  0  0  0  0  0  0  0
  185.0400  178.5880  144.3830 C   0  0  0  0  0  0  0  0  0  0  0  0
  186.0700  178.7010  145.3690 N   0  0  0  0  0  2  0  0  0  0  0  0
  185.7960  178.6660  146.7970 C   0  0  0  0  0  2  0  0  0  0  0  0
  187.0060  178.3170  147.5210 N   0  0  0  0  0  2  0  0  0  0  0  0
  187.5160  177.1600  146.9170 N   0  0  0  0  0  2  0  0  0  0  0  0
  188.8210  176.9120  147.5070 C   0  0  0  0  0  2  0  0  0  0  0  0
  192.0470  177.2880  145.8210 O   0  0  0  0  0  0  0  0  0  0  0  0
  189.8650  177.3800  146.6090 N   0  0  0  0  0  2  0  0  0  0  0  0
  191.1880  176.8420  146.6250 C   0  0  0  0  0  0  0  0  0  0  0  0
  191.5720  175.7610  147.5770 C   0  0  0  0  0  1  0  0  0  0  0  0
  188.0930  177.4890  138.2700 C   0  0  2  0  0  3  0  0  0  0  0  0
  187.8300  175.9920  136.3020 C   0  0  1  0  0  3  0  0  0  0  0  0
  188.4060  175.1680  137.4560 C   0  0  2  0  0  3  0  0  0  0  0  0
  188.8230  176.6110  137.2650 C   0  0  2  0  0  3  0  0  0  0  0  0
  188.4670  175.7260  135.0860 O   0  0  0  0  0  1  0  0  0  0  0  0
  189.5550  174.2500  137.0580 C   0  0  0  0  0  2  0  0  0  0  0  0
  190.6940  174.5680  137.8030 O   0  0  0  0  0  0  0  0  0  0  0  0
  192.0060  174.4300  136.7340 P   0  0  2  0  0  0  0  0  0  0  0  0
  191.7520  175.2740  135.5030 O   0  0  0  0  0  0  0  0  0  0  0  0
  192.1520  172.8130  136.2660 O   0  0  0  0  0  1  0  0  0  0  0  0
  194.4480  173.8400  137.9710 C   0  0  0  0  0  2  0  0  0  0  0  0
  194.1630  176.0710  136.8540 O   0  0  0  0  0  0  0  0  0  0  0  0
  195.9090  174.2250  137.8110 C   0  0  1  0  0  3  0  0  0  0  0  0
  196.7130  173.1170  138.0770 O   0  0  0  0  0  1  0  0  0  0  0  0
  195.1870  175.7600  135.9010 C   0  0  2  0  0  3  0  0  0  0  0  0
  195.2410  174.3390  135.3480 C   0  0  0  0  0  2  0  0  0  0  0  0
  196.2390  174.7770  136.4180 C   0  0  2  0  0  3  0  0  0  0  0  0
  193.5430  174.9920  137.5430 C   0  0  1  0  0  3  0  0  0  0  0  0
  189.0760  179.1080  137.1240 C   0  0  0  0  0  1  0  0  0  0  0  0
  187.8720  178.7620  137.7390 O   0  0  0  0  0  0  0  0  0  0  0  0
  1  2  1  0  0  0  0
  3 14  1  0  0  0  0
  3  6  1  0  0  0  0
  4  8  2  0  0  0  0
  5  4  1  0  0  0  0
  5  3  2  0  0  0  0
  6  1  1  0  0  0  0
  7  2  2  0  0  0  0
  8  6  1  0  0  0  0
  8  7  1  0  0  0  0
  9 11  2  0  0  0  0
 10 11  1  0  0  0  0
 11 16  1  0  0  0  0
 12 13  2  0  0  0  0
 12 14  1  0  0  0  0
 13  9  1  0  0  0  0
 14 10  2  0  0  0  0
 16 15  2  0  0  0  0
 16 17  1  0  0  0  0
 17 18  1  0  0  0  0
 18 19  1  0  0  0  0
 20 21  1  0  0  0  0
 20 19  1  0  0  0  0
 22 24  2  0  0  0  0
 23 24  1  0  0  0  0
 23 21  1  0  0  0  0
 24 25  1  0  0  0  0
 26 45  1  6  0  0  0
 26  5  1  0  0  0  0
 27 30  1  6  0  0  0
 27 29  1  0  0  0  0
 27 28  1  0  0  0  0
 28 31  1  6  0  0  0
 29 28  1  0  0  0  0
 29 26  1  1  0  0  0
 31 32  1  0  0  0  0
 33 34  2  6  0  0  0
 33 32  1  0  0  0  0
 35 33  1  0  0  0  0
 37 43  1  0  0  0  0
 38 36  1  0  0  0  0
 38 39  1  6  0  0  0
 40 41  1  6  0  0  0
 40 42  1  0  0  0  0
 40 37  1  0  0  0  0
 42 41  1  6  0  0  0
 42 38  1  0  0  0  0
 43 33  1  6  0  0  0
 43 36  1  0  0  0  0
 44 45  1  0  0  0  0
M  END
>  <MODEL>
1

>  <REMARK>
 VINA RESULT:      -8.3      0.000      0.000
  Name = 
  14 active torsions:
  status: ('A' for Active; 'I' for Inactive)
    1  A    between atoms: N_2  and  C_34
    2  A    between atoms: N_2  and  N_37
    3  A    between atoms: P_6  and  O_21
    4  A    between atoms: P_6  and  C_45
    5  A    between atoms: N_7  and  C_34
    6  A    between atoms: C_11  and  O_21
    7  A    between atoms: C_11  and  C_22
    8  A    between atoms: C_12  and  C_29
    9  A    between atoms: C_20  and  C_36
   10  A    between atoms: O_26  and  C_33
   11  A    between atoms: C_27  and  C_33
   12  A    between atoms: C_30  and  C_33
   13  A    between atoms: N_35  and  C_39
   14  A    between atoms: N_37  and  C_39
                            x       y       z     vdW  Elec       q    Type
                         _______ _______ _______ _____ _____    ______ ____

>  <TORSDO>
F 14

$$$$
=
 OpenBabel10232409493D

 45 50  0  0  1  0  0  0  0  0999 V2000
  188.8750  178.3820  142.8590 C   0  0  0  0  0  2  0  0  0  0  0  0
  190.1460  178.1370  143.4030 C   0  0  0  0  0  3  0  0  0  0  0  0
  188.2170  177.9060  140.4690 C   0  0  0  0  0  0  0  0  0  0  0  0
  190.3170  177.1230  140.0530 N   0  0  0  0  0  0  0  0  0  0  0  0
  189.0880  177.3570  139.5070 C   0  0  0  0  0  0  0  0  0  0  0  0
  188.9460  177.9860  141.5860 N   0  0  0  0  0  0  0  0  0  0  0  0
  190.9780  177.5850  142.4070 C   0  0  0  0  0  3  0  0  0  0  0  0
  190.1400  177.5340  141.3210 C   0  0  0  0  0  0  0  0  0  0  0  0
  184.1740  179.1150  140.1070 C   0  0  0  0  0  3  0  0  0  0  0  0
  186.0040  178.3810  141.4420 N   0  0  0  0  0  0  0  0  0  0  0  0
  184.7040  178.7650  141.3530 C   0  0  0  0  0  0  0  0  0  0  0  0
  186.3000  178.6580  139.1290 N   0  0  0  0  0  0  0  0  0  0  0  0
  185.0070  179.0510  138.9900 C   0  0  0  0  0  3  0  0  0  0  0  0
  186.8070  178.3260  140.3470 C   0  0  0  0  0  0  0  0  0  0  0  0
  182.6140  178.7980  142.4740 O   0  0  0  0  0  0  0  0  0  0  0  0
  183.8720  178.8050  142.5650 C   0  0  0  0  0  0  0  0  0  0  0  0
  184.4990  178.8460  143.8500 N   0  0  0  0  0  2  0  0  0  0  0  0
  183.7420  178.9120  145.0900 C   0  0  0  0  0  2  0  0  0  0  0  0
  184.6520  178.9330  146.2210 N   0  0  0  0  0  2  0  0  0  0  0  0
  185.9150  178.5770  145.7270 N   0  0  0  0  0  2  0  0  0  0  0  0
  186.6950  178.0990  146.8560 C   0  0  0  0  0  2  0  0  0  0  0  0
  190.1340  176.8630  146.6580 O   0  0  0  0  0  0  0  0  0  0  0  0
  187.9030  177.4460  146.3790 N   0  0  0  0  0  2  0  0  0  0  0  0
  189.1220  177.4480  147.1240 C   0  0  0  0  0  0  0  0  0  0  0  0
  189.2180  178.1290  148.4470 C   0  0  0  0  0  1  0  0  0  0  0  0
  188.7930  177.0520  138.0670 C   0  0  2  0  0  3  0  0  0  0  0  0
  190.3060  175.2630  137.2340 C   0  0  1  0  0  3  0  0  0  0  0  0
  189.0990  175.3440  136.2960 C   0  0  2  0  0  3  0  0  0  0  0  0
  188.9260  175.5630  137.7840 C   0  0  2  0  0  3  0  0  0  0  0  0
  190.6520  173.9450  137.5440 O   0  0  0  0  0  1  0  0  0  0  0  0
  188.5130  173.9920  135.9100 C   0  0  0  0  0  2  0  0  0  0  0  0
  187.2500  174.1690  135.3380 O   0  0  0  0  0  0  0  0  0  0  0  0
  186.2440  173.0030  136.0530 P   0  0  2  0  0  0  0  0  0  0  0  0
  186.7610  172.6620  137.4350 O   0  0  0  0  0  1  0  0  0  0  0  0
  186.2750  171.6070  135.1000 O   0  0  0  0  0  0  0  0  0  0  0  0
  184.1480  174.0070  137.6140 C   0  0  0  0  0  2  0  0  0  0  0  0
  184.2220  174.5810  135.1710 O   0  0  0  0  0  0  0  0  0  0  0  0
  183.2310  175.2180  137.6170 C   0  0  1  0  0  3  0  0  0  0  0  0
  182.9980  175.6200  138.9310 O   0  0  0  0  0  1  0  0  0  0  0  0
  184.3940  175.9710  135.4710 C   0  0  2  0  0  3  0  0  0  0  0  0
  185.3040  176.3440  136.6370 C   0  0  0  0  0  2  0  0  0  0  0  0
  183.7880  176.3970  136.8090 C   0  0  2  0  0  3  0  0  0  0  0  0
  184.5370  173.6360  136.1860 C   0  0  1  0  0  3  0  0  0  0  0  0
  189.0570  179.0560  137.1630 C   0  0  0  0  0  1  0  0  0  0  0  0
  189.6330  177.7870  137.2270 O   0  0  0  0  0  0  0  0  0  0  0  0
  1  2  1  0  0  0  0
  3  6  1  0  0  0  0
  4  8  2  0  0  0  0
  5  4  1  0  0  0  0
  5  3  2  0  0  0  0
  6  1  1  0  0  0  0
  7  2  2  0  0  0  0
  8  6  1  0  0  0  0
  8  7  1  0  0  0  0
  9 11  2  0  0  0  0
 11 10  1  0  0  0  0
 11 16  1  0  0  0  0
 12 14  1  0  0  0  0
 13 12  2  0  0  0  0
 13  9  1  0  0  0  0
 14  3  1  0  0  0  0
 14 10  2  0  0  0  0
 15 16  2  0  0  0  0
 16 17  1  0  0  0  0
 17 18  1  0  0  0  0
 18 19  1  0  0  0  0
 20 19  1  0  0  0  0
 20 21  1  0  0  0  0
 22 24  2  0  0  0  0
 23 21  1  0  0  0  0
 23 24  1  0  0  0  0
 24 25  1  0  0  0  0
 26 45  1  6  0  0  0
 26  5  1  0  0  0  0
 27 30  1  1  0  0  0
 27 29  1  0  0  0  0
 28 31  1  1  0  0  0
 28 27  1  0  0  0  0
 28 29  1  0  0  0  0
 29 26  1  6  0  0  0
 32 31  1  0  0  0  0
 32 33  1  0  0  0  0
 33 35  2  6  0  0  0
 33 34  1  0  0  0  0
 36 38  1  0  0  0  0
 37 40  1  0  0  0  0
 37 43  1  0  0  0  0
 38 39  1  1  0  0  0
 40 41  1  1  0  0  0
 40 42  1  0  0  0  0
 42 41  1  1  0  0  0
 42 38  1  0  0  0  0
 43 33  1  1  0  0  0
 43 36  1  0  0  0  0
 44 45  1  0  0  0  0
M  END
>  <MODEL>
2

>  <REMARK>
 VINA RESULT:      -8.0      2.660      5.325
  Name = 
  14 active torsions:
  status: ('A' for Active; 'I' for Inactive)
    1  A    between atoms: N_2  and  C_34
    2  A    between atoms: N_2  and  N_37
    3  A    between atoms: P_6  and  O_21
    4  A    between atoms: P_6  and  C_45
    5  A    between atoms: N_7  and  C_34
    6  A    between atoms: C_11  and  O_21
    7  A    between atoms: C_11  and  C_22
    8  A    between atoms: C_12  and  C_29
    9  A    between atoms: C_20  and  C_36
   10  A    between atoms: O_26  and  C_33
   11  A    between atoms: C_27  and  C_33
   12  A    between atoms: C_30  and  C_33
   13  A    between atoms: N_35  and  C_39
   14  A    between atoms: N_37  and  C_39
                            x       y       z     vdW  Elec       q    Type
                         _______ _______ _______ _____ _____    ______ ____

>  <TORSDO>
F 14

$$$$
=
 OpenBabel10232409493D

 45 50  0  0  1  0  0  0  0  0999 V2000
  181.3490  174.2330  137.5560 C   0  0  0  0  0  2  0  0  0  0  0  0
  180.1710  173.8630  138.2260 C   0  0  0  0  0  3  0  0  0  0  0  0
  182.8640  176.1280  138.2520 C   0  0  0  0  0  0  0  0  0  0  0  0
  181.4850  176.5790  140.0100 N   0  0  0  0  0  0  0  0  0  0  0  0
  182.6310  176.9540  139.3700 C   0  0  0  0  0  0  0  0  0  0  0  0
  181.8460  175.2620  138.2460 N   0  0  0  0  0  0  0  0  0  0  0  0
  179.9840  174.7110  139.3370 C   0  0  0  0  0  3  0  0  0  0  0  0
  181.0730  175.5420  139.2590 C   0  0  0  0  0  0  0  0  0  0  0  0
  185.9990  176.2080  135.4060 C   0  0  0  0  0  3  0  0  0  0  0  0
  185.0160  175.3070  137.3780 N   0  0  0  0  0  0  0  0  0  0  0  0
  186.0340  175.3130  136.4790 C   0  0  0  0  0  0  0  0  0  0  0  0
  183.9180  177.0340  136.2250 N   0  0  0  0  0  0  0  0  0  0  0  0
  184.9120  177.0750  135.3000 C   0  0  0  0  0  3  0  0  0  0  0  0
  183.9590  176.1540  137.2620 C   0  0  0  0  0  0  0  0  0  0  0  0
  186.9700  173.2410  137.1530 O   0  0  0  0  0  0  0  0  0  0  0  0
  187.1590  174.3810  136.6480 C   0  0  0  0  0  0  0  0  0  0  0  0
  188.4700  174.7720  136.2300 N   0  0  0  0  0  2  0  0  0  0  0  0
  189.6330  173.9140  136.3880 C   0  0  0  0  0  2  0  0  0  0  0  0
  190.2730  174.1840  137.6630 N   0  0  0  0  0  2  0  0  0  0  0  0
  191.0930  175.3050  137.4710 N   0  0  0  0  0  2  0  0  0  0  0  0
  190.7760  176.2510  138.5280 C   0  0  0  0  0  2  0  0  0  0  0  0
  188.9980  179.2770  137.4920 O   0  0  0  0  0  0  0  0  0  0  0  0
  190.4860  177.5540  137.9510 N   0  0  0  0  0  2  0  0  0  0  0  0
  189.1870  178.1460  138.0090 C   0  0  0  0  0  0  0  0  0  0  0  0
  188.0480  177.4480  138.6710 C   0  0  0  0  0  1  0  0  0  0  0  0
  183.4630  178.1060  139.8520 C   0  0  2  0  0  3  0  0  0  0  0  0
  183.8350  178.9100  142.1750 C   0  0  1  0  0  3  0  0  0  0  0  0
  185.1950  178.8080  141.4810 C   0  0  2  0  0  3  0  0  0  0  0  0
  184.1110  177.7910  141.1910 C   0  0  2  0  0  3  0  0  0  0  0  0
  183.8610  178.4010  143.4770 O   0  0  0  0  0  1  0  0  0  0  0  0
  186.2840  178.1610  142.3280 C   0  0  0  0  0  2  0  0  0  0  0  0
  187.5320  178.6810  141.9720 O   0  0  0  0  0  0  0  0  0  0  0  0
  188.6850  177.6260  142.6370 P   0  0  2  0  0  0  0  0  0  0  0  0
  189.8670  177.5060  141.6990 O   0  0  0  0  0  0  0  0  0  0  0  0
  187.9780  176.1020  142.8210 O   0  0  0  0  0  1  0  0  0  0  0  0
  188.8550  177.3560  145.4190 C   0  0  0  0  0  2  0  0  0  0  0  0
  190.6120  178.6920  144.2220 O   0  0  0  0  0  0  0  0  0  0  0  0
  189.9400  177.3450  146.4810 C   0  0  1  0  0  3  0  0  0  0  0  0
  189.6130  176.4180  147.4700 O   0  0  0  0  0  1  0  0  0  0  0  0
  191.6290  177.7620  144.6100 C   0  0  2  0  0  3  0  0  0  0  0  0
  191.2840  176.2750  144.5900 C   0  0  0  0  0  2  0  0  0  0  0  0
  191.3320  177.0260  145.9180 C   0  0  2  0  0  3  0  0  0  0  0  0
  189.2590  178.2530  144.2520 C   0  0  1  0  0  3  0  0  0  0  0  0
  182.8800  179.9220  138.7260 C   0  0  0  0  0  1  0  0  0  0  0  0
  182.6900  179.2670  139.9430 O   0  0  0  0  0  0  0  0  0  0  0  0
  1  2  1  0  0  0  0
  1  6  1  0  0  0  0
  2  7  2  0  0  0  0
  3  5  2  0  0  0  0
  5 26  1  0  0  0  0
  5  4  1  0  0  0  0
  6  3  1  0  0  0  0
  6  8  1  0  0  0  0
  8  7  1  0  0  0  0
  8  4  2  0  0  0  0
  9 11  2  0  0  0  0
 11 16  1  0  0  0  0
 11 10  1  0  0  0  0
 12 14  1  0  0  0  0
 13  9  1  0  0  0  0
 13 12  2  0  0  0  0
 14 10  2  0  0  0  0
 14  3  1  0  0  0  0
 16 15  2  0  0  0  0
 17 18  1  0  0  0  0
 17 16  1  0  0  0  0
 18 19  1  0  0  0  0
 20 19  1  0  0  0  0
 20 21  1  0  0  0  0
 22 24  2  0  0  0  0
 23 24  1  0  0  0  0
 23 21  1  0  0  0  0
 24 25  1  0  0  0  0
 26 45  1  1  0  0  0
 27 30  1  1  0  0  0
 28 27  1  0  0  0  0
 28 31  1  1  0  0  0
 29 26  1  6  0  0  0
 29 28  1  0  0  0  0
 29 27  1  0  0  0  0
 32 31  1  0  0  0  0
 32 33  1  0  0  0  0
 33 34  2  6  0  0  0
 33 35  1  0  0  0  0
 36 38  1  0  0  0  0
 37 43  1  0  0  0  0
 37 40  1  0  0  0  0
 38 39  1  1  0  0  0
 40 41  1  6  0  0  0
 40 42  1  0  0  0  0
 42 41  1  6  0  0  0
 42 38  1  0  0  0  0
 43 33  1  6  0  0  0
 43 36  1  0  0  0  0
 44 45  1  0  0  0  0
M  END
>  <MODEL>
3

>  <REMARK>
 VINA RESULT:      -7.9      4.404      8.813
  Name = 
  14 active torsions:
  status: ('A' for Active; 'I' for Inactive)
    1  A    between atoms: N_2  and  C_34
    2  A    between atoms: N_2  and  N_37
    3  A    between atoms: P_6  and  O_21
    4  A    between atoms: P_6  and  C_45
    5  A    between atoms: N_7  and  C_34
    6  A    between atoms: C_11  and  O_21
    7  A    between atoms: C_11  and  C_22
    8  A    between atoms: C_12  and  C_29
    9  A    between atoms: C_20  and  C_36
   10  A    between atoms: O_26  and  C_33
   11  A    between atoms: C_27  and  C_33
   12  A    between atoms: C_30  and  C_33
   13  A    between atoms: N_35  and  C_39
   14  A    between atoms: N_37  and  C_39
                            x       y       z     vdW  Elec       q    Type
                         _______ _______ _______ _____ _____    ______ ____

>  <TORSDO>
F 14

$$$$
=
 OpenBabel10232409493D

 45 50  0  0  1  0  0  0  0  0999 V2000
  182.7920  178.8080  143.6870 C   0  0  0  0  0  2  0  0  0  0  0  0
  183.5390  179.1720  144.8190 C   0  0  0  0  0  3  0  0  0  0  0  0
  183.7620  178.4210  141.3890 C   0  0  0  0  0  0  0  0  0  0  0  0
  185.8410  178.8970  142.1920 N   0  0  0  0  0  0  0  0  0  0  0  0
  185.1310  178.5450  141.0800 C   0  0  0  0  0  0  0  0  0  0  0  0
  183.6770  178.6980  142.6930 N   0  0  0  0  0  0  0  0  0  0  0  0
  184.8990  179.2780  144.4630 C   0  0  0  0  0  3  0  0  0  0  0  0
  184.8770  178.9670  143.1270 C   0  0  0  0  0  0  0  0  0  0  0  0
  180.4790  177.4270  138.9050 C   0  0  0  0  0  3  0  0  0  0  0  0
  182.5280  176.8370  139.9620 N   0  0  0  0  0  0  0  0  0  0  0  0
  181.4860  176.4920  139.1620 C   0  0  0  0  0  0  0  0  0  0  0  0
  181.6470  178.9910  140.2740 N   0  0  0  0  0  0  0  0  0  0  0  0
  180.5850  178.6920  139.4820 C   0  0  0  0  0  3  0  0  0  0  0  0
  182.6190  178.0720  140.5210 C   0  0  0  0  0  0  0  0  0  0  0  0
  180.4350  174.4010  138.7800 O   0  0  0  0  0  0  0  0  0  0  0  0
  181.4330  175.1450  138.5750 C   0  0  0  0  0  0  0  0  0  0  0  0
  182.5170  174.6850  137.7630 N   0  0  0  0  0  2  0  0  0  0  0  0
  182.5450  173.3570  137.1710 C   0  0  0  0  0  2  0  0  0  0  0  0
  183.8710  173.0820  136.6450 N   0  0  0  0  0  2  0  0  0  0  0  0
  184.7590  173.1780  137.7250 N   0  0  0  0  0  2  0  0  0  0  0  0
  186.0980  172.9940  137.1920 C   0  0  0  0  0  2  0  0  0  0  0  0
  188.5670  175.6090  136.5140 O   0  0  0  0  0  0  0  0  0  0  0  0
  186.6990  174.2880  136.9110 N   0  0  0  0  0  2  0  0  0  0  0  0
  188.1080  174.4630  136.7590 C   0  0  0  0  0  0  0  0  0  0  0  0
  189.0480  173.3130  136.8830 C   0  0  0  0  0  1  0  0  0  0  0  0
  185.7960  178.3490  139.7480 C   0  0  2  0  0  3  0  0  0  0  0  0
  187.9560  178.3550  138.5160 C   0  0  1  0  0  3  0  0  0  0  0  0
  188.1290  177.5120  139.7820 C   0  0  2  0  0  3  0  0  0  0  0  0
  187.2610  178.7530  139.8030 C   0  0  2  0  0  3  0  0  0  0  0  0
  189.0400  179.2080  138.2900 O   0  0  0  0  0  1  0  0  0  0  0  0
  189.4210  177.7840  140.5430 C   0  0  0  0  0  2  0  0  0  0  0  0
  190.1050  176.5840  140.7580 O   0  0  0  0  0  0  0  0  0  0  0  0
  190.4830  176.5500  142.4140 P   0  0  2  0  0  0  0  0  0  0  0  0
  191.9410  176.9070  142.6110 O   0  0  0  0  0  0  0  0  0  0  0  0
  190.2200  174.9840  142.9940 O   0  0  0  0  0  1  0  0  0  0  0  0
  188.2330  177.0900  143.9900 C   0  0  0  0  0  2  0  0  0  0  0  0
  190.2040  178.6400  144.1200 O   0  0  0  0  0  0  0  0  0  0  0  0
  187.9270  177.7680  145.3150 C   0  0  1  0  0  3  0  0  0  0  0  0
  186.9090  177.0750  145.9670 O   0  0  0  0  0  1  0  0  0  0  0  0
  190.4190  178.3020  145.4960 C   0  0  2  0  0  3  0  0  0  0  0  0
  190.2330  176.8460  145.9120 C   0  0  0  0  0  2  0  0  0  0  0  0
  189.1500  177.8730  146.2350 C   0  0  2  0  0  3  0  0  0  0  0  0
  189.4410  177.7410  143.3240 C   0  0  1  0  0  3  0  0  0  0  0  0
  184.8120  178.1230  137.7780 C   0  0  0  0  0  1  0  0  0  0  0  0
  185.1270  179.0690  138.7550 O   0  0  0  0  0  0  0  0  0  0  0  0
  1  2  1  0  0  0  0
  3  6  1  0  0  0  0
  4  8  2  0  0  0  0
  5  3  2  0  0  0  0
  5  4  1  0  0  0  0
  6  8  1  0  0  0  0
  6  1  1  0  0  0  0
  7  2  2  0  0  0  0
  8  7  1  0  0  0  0
  9 11  2  0  0  0  0
  9 13  1  0  0  0  0
 10 14  2  0  0  0  0
 11 10  1  0  0  0  0
 12 14  1  0  0  0  0
 13 12  2  0  0  0  0
 14  3  1  0  0  0  0
 16 15  2  0  0  0  0
 16 11  1  0  0  0  0
 17 16  1  0  0  0  0
 18 17  1  0  0  0  0
 19 18  1  0  0  0  0
 19 20  1  0  0  0  0
 21 20  1  0  0  0  0
 22 24  2  0  0  0  0
 23 21  1  0  0  0  0
 24 25  1  0  0  0  0
 24 23  1  0  0  0  0
 26 45  1  6  0  0  0
 26  5  1  0  0  0  0
 27 30  1  1  0  0  0
 27 28  1  0  0  0  0
 27 29  1  0  0  0  0
 28 29  1  0  0  0  0
 28 31  1  1  0  0  0
 29 26  1  6  0  0  0
 31 32  1  0  0  0  0
 32 33  1  0  0  0  0
 33 34  2  1  0  0  0
 33 35  1  0  0  0  0
 36 38  1  0  0  0  0
 37 40  1  0  0  0  0
 38 39  1  1  0  0  0
 38 42  1  0  0  0  0
 40 41  1  6  0  0  0
 40 42  1  0  0  0  0
 42 41  1  6  0  0  0
 43 33  1  1  0  0  0
 43 36  1  0  0  0  0
 43 37  1  0  0  0  0
 44 45  1  0  0  0  0
M  END
>  <MODEL>
4

>  <REMARK>
 VINA RESULT:      -7.9      3.766      7.982
  Name = 
  14 active torsions:
  status: ('A' for Active; 'I' for Inactive)
    1  A    between atoms: N_2  and  C_34
    2  A    between atoms: N_2  and  N_37
    3  A    between atoms: P_6  and  O_21
    4  A    between atoms: P_6  and  C_45
    5  A    between atoms: N_7  and  C_34
    6  A    between atoms: C_11  and  O_21
    7  A    between atoms: C_11  and  C_22
    8  A    between atoms: C_12  and  C_29
    9  A    between atoms: C_20  and  C_36
   10  A    between atoms: O_26  and  C_33
   11  A    between atoms: C_27  and  C_33
   12  A    between atoms: C_30  and  C_33
   13  A    between atoms: N_35  and  C_39
   14  A    between atoms: N_37  and  C_39
                            x       y       z     vdW  Elec       q    Type
                         _______ _______ _______ _____ _____    ______ ____

>  <TORSDO>
F 14

$$$$
=
 OpenBabel10232409493D

 45 50  0  0  1  0  0  0  0  0999 V2000
  189.9510  177.9930  142.0510 C   0  0  0  0  0  2  0  0  0  0  0  0
  191.3170  177.6840  141.9480 C   0  0  0  0  0  3  0  0  0  0  0  0
  188.2890  177.8120  140.1600 C   0  0  0  0  0  0  0  0  0  0  0  0
  189.9490  177.0850  138.7770 N   0  0  0  0  0  0  0  0  0  0  0  0
  188.6200  177.3840  138.8580 C   0  0  0  0  0  0  0  0  0  0  0  0
  189.4370  177.7560  140.8420 N   0  0  0  0  0  0  0  0  0  0  0  0
  191.5980  177.2570  140.6340 C   0  0  0  0  0  3  0  0  0  0  0  0
  190.3680  177.3390  140.0300 C   0  0  0  0  0  0  0  0  0  0  0  0
  184.5670  179.0560  141.7520 C   0  0  0  0  0  3  0  0  0  0  0  0
  186.7730  178.2140  142.0590 N   0  0  0  0  0  0  0  0  0  0  0  0
  185.5880  178.6080  142.5950 C   0  0  0  0  0  0  0  0  0  0  0  0
  186.0030  178.6730  139.8880 N   0  0  0  0  0  0  0  0  0  0  0  0
  184.8030  179.0780  140.3780 C   0  0  0  0  0  3  0  0  0  0  0  0
  186.9920  178.2440  140.7180 C   0  0  0  0  0  0  0  0  0  0  0  0
  184.2600  178.7840  144.5520 O   0  0  0  0  0  0  0  0  0  0  0  0
  185.3950  178.5540  144.0520 C   0  0  0  0  0  0  0  0  0  0  0  0
  186.5010  178.2330  144.9000 N   0  0  0  0  0  2  0  0  0  0  0  0
  186.3910  178.1860  146.3490 C   0  0  0  0  0  2  0  0  0  0  0  0
  187.4280  177.3260  146.8930 N   0  0  0  0  0  2  0  0  0  0  0  0
  188.1460  178.0980  147.8160 N   0  0  0  0  0  2  0  0  0  0  0  0
  189.4740  177.5160  147.9160 C   0  0  0  0  0  2  0  0  0  0  0  0
  191.7320  176.6310  145.1750 O   0  0  0  0  0  0  0  0  0  0  0  0
  190.0670  177.4140  146.5910 N   0  0  0  0  0  2  0  0  0  0  0  0
  191.2700  176.6830  146.3440 C   0  0  0  0  0  0  0  0  0  0  0  0
  191.9880  175.9810  147.4450 C   0  0  0  0  0  1  0  0  0  0  0  0
  187.7080  177.2570  137.6730 C   0  0  2  0  0  3  0  0  0  0  0  0
  187.5510  175.5170  135.9020 C   0  0  1  0  0  3  0  0  0  0  0  0
  186.1570  175.7150  136.5040 C   0  0  2  0  0  3  0  0  0  0  0  0
  187.3870  175.7980  137.3830 C   0  0  2  0  0  3  0  0  0  0  0  0
  187.8650  174.1680  135.7180 O   0  0  0  0  0  1  0  0  0  0  0  0
  185.4110  174.4190  136.7960 C   0  0  0  0  0  2  0  0  0  0  0  0
  184.3920  174.6580  137.7230 O   0  0  0  0  0  0  0  0  0  0  0  0
  182.9390  174.2880  136.9260 P   0  0  2  0  0  0  0  0  0  0  0  0
  182.6810  172.7980  137.0020 O   0  0  0  0  0  1  0  0  0  0  0  0
  183.0860  174.7350  135.3030 O   0  0  0  0  0  0  0  0  0  0  0  0
  181.8790  175.7070  139.0950 C   0  0  0  0  0  2  0  0  0  0  0  0
  180.9150  176.0900  136.8080 O   0  0  0  0  0  0  0  0  0  0  0  0
  181.1930  177.0410  139.3360 C   0  0  1  0  0  3  0  0  0  0  0  0
  181.6150  177.5650  140.5570 O   0  0  0  0  0  1  0  0  0  0  0  0
  181.3470  177.4550  136.8200 C   0  0  2  0  0  3  0  0  0  0  0  0
  182.7160  177.7660  137.4180 C   0  0  0  0  0  2  0  0  0  0  0  0
  181.4510  178.0620  138.2210 C   0  0  2  0  0  3  0  0  0  0  0  0
  181.5480  175.1810  137.7010 C   0  0  1  0  0  3  0  0  0  0  0  0
  187.7580  179.1620  136.5460 C   0  0  0  0  0  1  0  0  0  0  0  0
  188.2740  177.8660  136.5500 O   0  0  0  0  0  0  0  0  0  0  0  0
  2  1  1  0  0  0  0
  3 14  1  0  0  0  0
  3  6  1  0  0  0  0
  4  5  1  0  0  0  0
  4  8  2  0  0  0  0
  5  3  2  0  0  0  0
  6  1  1  0  0  0  0
  7  2  2  0  0  0  0
  8  7  1  0  0  0  0
  8  6  1  0  0  0  0
  9 11  2  0  0  0  0
 10 11  1  0  0  0  0
 11 16  1  0  0  0  0
 12 13  2  0  0  0  0
 12 14  1  0  0  0  0
 13  9  1  0  0  0  0
 14 10  2  0  0  0  0
 16 15  2  0  0  0  0
 16 17  1  0  0  0  0
 17 18  1  0  0  0  0
 18 19  1  0  0  0  0
 19 20  1  0  0  0  0
 20 21  1  0  0  0  0
 22 24  2  0  0  0  0
 23 21  1  0  0  0  0
 24 23  1  0  0  0  0
 24 25  1  0  0  0  0
 26 45  1  6  0  0  0
 26  5  1  0  0  0  0
 27 30  1  1  0  0  0
 27 28  1  0  0  0  0
 27 29  1  0  0  0  0
 28 31  1  1  0  0  0
 28 29  1  0  0  0  0
 29 26  1  6  0  0  0
 31 32  1  0  0  0  0
 33 35  2  6  0  0  0
 33 34  1  0  0  0  0
 33 32  1  0  0  0  0
 36 38  1  0  0  0  0
 37 40  1  0  0  0  0
 37 43  1  0  0  0  0
 38 39  1  1  0  0  0
 40 41  1  1  0  0  0
 40 42  1  0  0  0  0
 42 41  1  1  0  0  0
 42 38  1  0  0  0  0
 43 33  1  6  0  0  0
 43 36  1  0  0  0  0
 44 45  1  0  0  0  0
M  END
>  <MODEL>
5

>  <REMARK>
 VINA RESULT:      -7.6      3.332      6.521
  Name = 
  14 active torsions:
  status: ('A' for Active; 'I' for Inactive)
    1  A    between atoms: N_2  and  C_34
    2  A    between atoms: N_2  and  N_37
    3  A    between atoms: P_6  and  O_21
    4  A    between atoms: P_6  and  C_45
    5  A    between atoms: N_7  and  C_34
    6  A    between atoms: C_11  and  O_21
    7  A    between atoms: C_11  and  C_22
    8  A    between atoms: C_12  and  C_29
    9  A    between atoms: C_20  and  C_36
   10  A    between atoms: O_26  and  C_33
   11  A    between atoms: C_27  and  C_33
   12  A    between atoms: C_30  and  C_33
   13  A    between atoms: N_35  and  C_39
   14  A    between atoms: N_37  and  C_39
                            x       y       z     vdW  Elec       q    Type
                         _______ _______ _______ _____ _____    ______ ____

>  <TORSDO>
F 14

$$$$
=
 OpenBabel10232409493D

 45 50  0  0  1  0  0  0  0  0999 V2000
  183.6510  179.1410  140.1950 C   0  0  0  0  0  2  0  0  0  0  0  0
  183.7980  179.1680  138.7990 C   0  0  0  0  0  3  0  0  0  0  0  0
  185.5190  178.6800  141.8290 C   0  0  0  0  0  0  0  0  0  0  0  0
  186.9750  178.4470  140.0910 N   0  0  0  0  0  0  0  0  0  0  0  0
  186.8500  178.4150  141.4500 C   0  0  0  0  0  0  0  0  0  0  0  0
  184.8660  178.8730  140.6790 N   0  0  0  0  0  0  0  0  0  0  0  0
  185.1430  178.9030  138.4690 C   0  0  0  0  0  3  0  0  0  0  0  0
  185.7190  178.7340  139.7030 C   0  0  0  0  0  0  0  0  0  0  0  0
  183.7530  178.8650  145.6740 C   0  0  0  0  0  3  0  0  0  0  0  0
  185.6840  178.8180  144.2830 N   0  0  0  0  0  0  0  0  0  0  0  0
  185.1430  178.8790  145.5280 C   0  0  0  0  0  0  0  0  0  0  0  0
  183.5520  178.7240  143.3030 N   0  0  0  0  0  0  0  0  0  0  0  0
  182.9660  178.7840  144.5260 C   0  0  0  0  0  3  0  0  0  0  0  0
  184.9070  178.7430  143.1710 C   0  0  0  0  0  0  0  0  0  0  0  0
  185.9790  179.9540  147.4690 O   0  0  0  0  0  0  0  0  0  0  0  0
  186.0250  178.9540  146.7020 C   0  0  0  0  0  0  0  0  0  0  0  0
  186.9330  177.8820  146.9730 N   0  0  0  0  0  2  0  0  0  0  0  0
  187.8520  177.8990  148.1010 C   0  0  0  0  0  2  0  0  0  0  0  0
  189.0420  177.1330  147.7760 N   0  0  0  0  0  2  0  0  0  0  0  0
  189.1080  177.0670  146.3770 N   0  0  0  0  0  2  0  0  0  0  0  0
  190.4870  177.3290  146.0020 C   0  0  0  0  0  2  0  0  0  0  0  0
  192.9580  175.5050  147.9930 O   0  0  0  0  0  0  0  0  0  0  0  0
  191.3740  176.9420  147.0880 N   0  0  0  0  0  2  0  0  0  0  0  0
  192.2110  175.7860  147.0210 C   0  0  0  0  0  0  0  0  0  0  0  0
  192.2150  174.9040  145.8190 C   0  0  0  0  0  1  0  0  0  0  0  0
  188.0190  178.1190  142.3430 C   0  0  2  0  0  3  0  0  0  0  0  0
  190.4330  177.5550  142.1470 C   0  0  1  0  0  3  0  0  0  0  0  0
  189.9610  178.1110  140.8010 C   0  0  2  0  0  3  0  0  0  0  0  0
  189.0420  177.2430  141.6340 C   0  0  2  0  0  3  0  0  0  0  0  0
  191.2450  176.4270  142.0020 O   0  0  0  0  0  1  0  0  0  0  0  0
  190.4460  177.3220  139.5920 C   0  0  0  0  0  2  0  0  0  0  0  0
  189.3640  176.6870  138.9750 O   0  0  0  0  0  0  0  0  0  0  0  0
  190.0050  175.8690  137.6320 P   0  0  2  0  0  0  0  0  0  0  0  0
  190.7670  174.6460  138.0960 O   0  0  0  0  0  1  0  0  0  0  0  0
  191.0720  176.9050  136.8290 O   0  0  0  0  0  0  0  0  0  0  0  0
  187.2820  175.4240  137.1530 C   0  0  0  0  0  2  0  0  0  0  0  0
  188.7910  175.9130  135.2070 O   0  0  0  0  0  0  0  0  0  0  0  0
  186.2390  175.8430  136.1310 C   0  0  1  0  0  3  0  0  0  0  0  0
  185.0140  176.0330  136.7680 O   0  0  0  0  0  1  0  0  0  0  0  0
  188.0890  177.1300  134.9270 C   0  0  2  0  0  3  0  0  0  0  0  0
  187.6360  177.9820  136.1100 C   0  0  0  0  0  2  0  0  0  0  0  0
  186.6230  177.1160  135.3650 C   0  0  2  0  0  3  0  0  0  0  0  0
  188.6630  175.3520  136.5080 C   0  0  1  0  0  3  0  0  0  0  0  0
  187.8560  176.1530  143.3490 C   0  0  0  0  0  1  0  0  0  0  0  0
  187.5920  177.5120  143.5270 O   0  0  0  0  0  0  0  0  0  0  0  0
  1  6  1  0  0  0  0
  2  1  1  0  0  0  0
  3 14  1  0  0  0  0
  4  5  1  0  0  0  0
  5  3  2  0  0  0  0
  5 26  1  0  0  0  0
  6  3  1  0  0  0  0
  7  2  2  0  0  0  0
  7  8  1  0  0  0  0
  8  4  2  0  0  0  0
  8  6  1  0  0  0  0
 10 11  1  0  0  0  0
 11  9  2  0  0  0  0
 11 16  1  0  0  0  0
 12 13  2  0  0  0  0
 13  9  1  0  0  0  0
 14 12  1  0  0  0  0
 14 10  2  0  0  0  0
 16 17  1  0  0  0  0
 16 15  2  0  0  0  0
 17 18  1  0  0  0  0
 19 18  1  0  0  0  0
 20 19  1  0  0  0  0
 21 20  1  0  0  0  0
 21 23  1  0  0  0  0
 24 23  1  0  0  0  0
 24 22  2  0  0  0  0
 25 24  1  0  0  0  0
 26 45  1  1  0  0  0
 27 30  1  6  0  0  0
 28 31  1  6  0  0  0
 28 29  1  0  0  0  0
 28 27  1  0  0  0  0
 29 27  1  0  0  0  0
 29 26  1  1  0  0  0
 32 31  1  0  0  0  0
 33 35  2  6  0  0  0
 33 34  1  0  0  0  0
 33 32  1  0  0  0  0
 37 43  1  0  0  0  0
 38 39  1  1  0  0  0
 38 36  1  0  0  0  0
 40 37  1  0  0  0  0
 40 42  1  0  0  0  0
 40 41  1  1  0  0  0
 42 41  1  1  0  0  0
 42 38  1  0  0  0  0
 43 36  1  0  0  0  0
 43 33  1  1  0  0  0
 44 45  1  0  0  0  0
M  END
>  <MODEL>
6

>  <REMARK>
 VINA RESULT:      -7.5      2.943      5.297
  Name = 
  14 active torsions:
  status: ('A' for Active; 'I' for Inactive)
    1  A    between atoms: N_2  and  C_34
    2  A    between atoms: N_2  and  N_37
    3  A    between atoms: P_6  and  O_21
    4  A    between atoms: P_6  and  C_45
    5  A    between atoms: N_7  and  C_34
    6  A    between atoms: C_11  and  O_21
    7  A    between atoms: C_11  and  C_22
    8  A    between atoms: C_12  and  C_29
    9  A    between atoms: C_20  and  C_36
   10  A    between atoms: O_26  and  C_33
   11  A    between atoms: C_27  and  C_33
   12  A    between atoms: C_30  and  C_33
   13  A    between atoms: N_35  and  C_39
   14  A    between atoms: N_37  and  C_39
                            x       y       z     vdW  Elec       q    Type
                         _______ _______ _______ _____ _____    ______ ____

>  <TORSDO>
F 14

$$$$
=
 OpenBabel10232409493D

 45 50  0  0  1  0  0  0  0  0999 V2000
  184.8880  178.6140  139.2840 C   0  0  0  0  0  2  0  0  0  0  0  0
  185.3190  178.4710  137.9550 C   0  0  0  0  0  3  0  0  0  0  0  0
  186.3780  178.4080  141.3100 C   0  0  0  0  0  0  0  0  0  0  0  0
  188.1610  178.0000  139.9510 N   0  0  0  0  0  0  0  0  0  0  0  0
  187.7590  178.1330  141.2490 C   0  0  0  0  0  0  0  0  0  0  0  0
  185.9770  178.4400  140.0360 N   0  0  0  0  0  0  0  0  0  0  0  0
  186.7040  178.2030  137.9440 C   0  0  0  0  0  3  0  0  0  0  0  0
  187.0130  178.2040  139.2810 C   0  0  0  0  0  0  0  0  0  0  0  0
  183.8580  179.0250  144.6570 C   0  0  0  0  0  3  0  0  0  0  0  0
  186.0170  178.6320  143.7370 N   0  0  0  0  0  0  0  0  0  0  0  0
  185.2310  178.8280  144.8270 C   0  0  0  0  0  0  0  0  0  0  0  0
  184.1660  178.8080  142.3040 N   0  0  0  0  0  0  0  0  0  0  0  0
  183.3400  179.0100  143.3630 C   0  0  0  0  0  3  0  0  0  0  0  0
  185.5020  178.6220  142.4800 C   0  0  0  0  0  0  0  0  0  0  0  0
  185.5510  179.7370  146.9940 O   0  0  0  0  0  0  0  0  0  0  0  0
  185.8330  178.8260  146.1690 C   0  0  0  0  0  0  0  0  0  0  0  0
  186.7370  177.7790  146.5360 N   0  0  0  0  0  2  0  0  0  0  0  0
  187.3890  177.7260  147.8350 C   0  0  0  0  0  2  0  0  0  0  0  0
  188.7310  177.1910  147.6890 N   0  0  0  0  0  2  0  0  0  0  0  0
  189.3720  177.9740  146.7190 N   0  0  0  0  0  2  0  0  0  0  0  0
  190.4230  177.1560  146.1370 C   0  0  0  0  0  2  0  0  0  0  0  0
  193.1400  175.4920  147.9370 O   0  0  0  0  0  0  0  0  0  0  0  0
  191.4110  176.8290  147.1530 N   0  0  0  0  0  2  0  0  0  0  0  0
  192.3060  175.7220  147.0240 C   0  0  0  0  0  0  0  0  0  0  0  0
  192.2700  174.8340  145.8270 C   0  0  0  0  0  1  0  0  0  0  0  0
  188.7180  177.9810  142.3930 C   0  0  2  0  0  3  0  0  0  0  0  0
  191.1830  177.7340  142.6120 C   0  0  1  0  0  3  0  0  0  0  0  0
  190.8590  178.0050  141.1410 C   0  0  2  0  0  3  0  0  0  0  0  0
  189.9300  177.1570  141.9840 C   0  0  2  0  0  3  0  0  0  0  0  0
  192.1320  176.7190  142.7710 O   0  0  0  0  0  1  0  0  0  0  0  0
  191.6090  177.1140  140.1600 C   0  0  0  0  0  2  0  0  0  0  0  0
  190.7320  176.1800  139.6020 O   0  0  0  0  0  0  0  0  0  0  0  0
  191.3500  175.8170  138.0620 P   0  0  2  0  0  0  0  0  0  0  0  0
  190.8030  176.8000  137.0490 O   0  0  0  0  0  0  0  0  0  0  0  0
  190.8530  174.2590  137.6350 O   0  0  0  0  0  1  0  0  0  0  0  0
  193.8440  174.5450  138.0570 C   0  0  0  0  0  2  0  0  0  0  0  0
  193.6760  176.8850  137.1620 O   0  0  0  0  0  0  0  0  0  0  0  0
  195.1270  174.5910  137.2440 C   0  0  1  0  0  3  0  0  0  0  0  0
  195.6510  173.3050  137.1290 O   0  0  0  0  0  1  0  0  0  0  0  0
  194.0520  176.4450  135.8520 C   0  0  2  0  0  3  0  0  0  0  0  0
  193.4880  175.1170  135.3550 C   0  0  0  0  0  2  0  0  0  0  0  0
  194.9320  175.1940  135.8460 C   0  0  2  0  0  3  0  0  0  0  0  0
  193.1730  175.9150  138.0740 C   0  0  1  0  0  3  0  0  0  0  0  0
  188.2740  176.0290  143.3400 C   0  0  0  0  0  1  0  0  0  0  0  0
  188.0820  177.4020  143.4940 O   0  0  0  0  0  0  0  0  0  0  0  0
  1  6  1  0  0  0  0
  2  1  1  0  0  0  0
  3 14  1  0  0  0  0
  4  5  1  0  0  0  0
  5  3  2  0  0  0  0
  5 26  1  0  0  0  0
  6  3  1  0  0  0  0
  7  2  2  0  0  0  0
  7  8  1  0  0  0  0
  8  4  2  0  0  0  0
  8  6  1  0  0  0  0
  9 11  2  0  0  0  0
 10 11  1  0  0  0  0
 11 16  1  0  0  0  0
 12 14  1  0  0  0  0
 12 13  2  0  0  0  0
 13  9  1  0  0  0  0
 14 10  2  0  0  0  0
 16 17  1  0  0  0  0
 16 15  2  0  0  0  0
 17 18  1  0  0  0  0
 19 18  1  0  0  0  0
 20 19  1  0  0  0  0
 21 20  1  0  0  0  0
 21 23  1  0  0  0  0
 24 23  1  0  0  0  0
 24 22  2  0  0  0  0
 25 24  1  0  0  0  0
 26 45  1  1  0  0  0
 27 30  1  6  0  0  0
 28 31  1  6  0  0  0
 28 29  1  0  0  0  0
 28 27  1  0  0  0  0
 29 26  1  1  0  0  0
 29 27  1  0  0  0  0
 32 31  1  0  0  0  0
 33 34  2  6  0  0  0
 33 32  1  0  0  0  0
 35 33  1  0  0  0  0
 36 43  1  0  0  0  0
 37 43  1  0  0  0  0
 38 39  1  6  0  0  0
 38 36  1  0  0  0  0
 40 41  1  6  0  0  0
 40 37  1  0  0  0  0
 42 41  1  6  0  0  0
 42 40  1  0  0  0  0
 42 38  1  0  0  0  0
 43 33  1  6  0  0  0
 44 45  1  0  0  0  0
M  END
>  <MODEL>
7

>  <REMARK>
 VINA RESULT:      -7.5      1.862      3.660
  Name = 
  14 active torsions:
  status: ('A' for Active; 'I' for Inactive)
    1  A    between atoms: N_2  and  C_34
    2  A    between atoms: N_2  and  N_37
    3  A    between atoms: P_6  and  O_21
    4  A    between atoms: P_6  and  C_45
    5  A    between atoms: N_7  and  C_34
    6  A    between atoms: C_11  and  O_21
    7  A    between atoms: C_11  and  C_22
    8  A    between atoms: C_12  and  C_29
    9  A    between atoms: C_20  and  C_36
   10  A    between atoms: O_26  and  C_33
   11  A    between atoms: C_27  and  C_33
   12  A    between atoms: C_30  and  C_33
   13  A    between atoms: N_35  and  C_39
   14  A    between atoms: N_37  and  C_39
                            x       y       z     vdW  Elec       q    Type
                         _______ _______ _______ _____ _____    ______ ____

>  <TORSDO>
F 14

$$$$
=
 OpenBabel10232409493D

 45 50  0  0  1  0  0  0  0  0999 V2000
  190.5030  176.5990  141.4000 C   0  0  0  0  0  2  0  0  0  0  0  0
  189.9970  177.1960  142.5660 C   0  0  0  0  0  3  0  0  0  0  0  0
  189.4640  176.8080  139.1100 C   0  0  0  0  0  0  0  0  0  0  0  0
  187.8160  178.1190  139.9820 N   0  0  0  0  0  0  0  0  0  0  0  0
  188.2930  177.5440  138.8390 C   0  0  0  0  0  0  0  0  0  0  0  0
  189.6720  176.9620  140.4210 N   0  0  0  0  0  0  0  0  0  0  0  0
  188.8320  177.9240  142.2460 C   0  0  0  0  0  3  0  0  0  0  0  0
  188.7170  177.7130  140.8950 C   0  0  0  0  0  0  0  0  0  0  0  0
  191.9150  174.5310  136.5130 C   0  0  0  0  0  3  0  0  0  0  0  0
  191.5040  176.5160  137.7610 N   0  0  0  0  0  0  0  0  0  0  0  0
  192.3090  175.8060  136.9270 C   0  0  0  0  0  0  0  0  0  0  0  0
  189.9250  174.7790  137.8020 N   0  0  0  0  0  0  0  0  0  0  0  0
  190.6960  174.0310  136.9710 C   0  0  0  0  0  3  0  0  0  0  0  0
  190.3200  176.0170  138.2030 C   0  0  0  0  0  0  0  0  0  0  0  0
  194.1990  177.2130  137.1970 O   0  0  0  0  0  0  0  0  0  0  0  0
  193.5800  176.3890  136.4710 C   0  0  0  0  0  0  0  0  0  0  0  0
  194.1140  176.0110  135.1990 N   0  0  0  0  0  2  0  0  0  0  0  0
  195.3510  176.5640  134.6710 C   0  0  0  0  0  2  0  0  0  0  0  0
  196.4360  175.6200  134.8700 N   0  0  0  0  0  2  0  0  0  0  0  0
  197.2090  176.1130  135.9300 N   0  0  0  0  0  2  0  0  0  0  0  0
  197.7660  174.9620  136.6220 C   0  0  0  0  0  2  0  0  0  0  0  0
  195.5680  173.6410  139.2330 O   0  0  0  0  0  0  0  0  0  0  0  0
  197.0880  174.7780  137.8960 N   0  0  0  0  0  2  0  0  0  0  0  0
  196.1190  173.7500  138.1070 C   0  0  0  0  0  0  0  0  0  0  0  0
  195.7460  172.8030  137.0170 C   0  0  0  0  0  1  0  0  0  0  0  0
  187.5970  177.7150  137.5200 C   0  0  2  0  0  3  0  0  0  0  0  0
  187.3510  176.0440  135.6950 C   0  0  1  0  0  3  0  0  0  0  0  0
  185.9900  176.7070  135.9240 C   0  0  2  0  0  3  0  0  0  0  0  0
  186.9100  176.4260  137.0930 C   0  0  2  0  0  3  0  0  0  0  0  0
  187.2500  174.6590  135.5390 O   0  0  0  0  0  1  0  0  0  0  0  0
  184.8170  175.7350  135.9560 C   0  0  0  0  0  2  0  0  0  0  0  0
  183.6470  176.4160  136.3020 O   0  0  0  0  0  0  0  0  0  0  0  0
  183.0670  175.6650  137.7110 P   0  0  2  0  0  0  0  0  0  0  0  0
  183.9190  174.4550  138.0310 O   0  0  0  0  0  1  0  0  0  0  0  0
  181.4790  175.1570  137.4350 O   0  0  0  0  0  0  0  0  0  0  0  0
  184.1290  177.9570  138.9180 C   0  0  0  0  0  2  0  0  0  0  0  0
  181.8240  177.2020  139.5680 O   0  0  0  0  0  0  0  0  0  0  0  0
  183.6090  179.2480  139.5290 C   0  0  1  0  0  3  0  0  0  0  0  0
  184.4810  180.2910  139.2210 O   0  0  0  0  0  1  0  0  0  0  0  0
  181.2480  178.4030  139.0410 C   0  0  2  0  0  3  0  0  0  0  0  0
  181.8140  178.9550  137.7350 C   0  0  0  0  0  2  0  0  0  0  0  0
  182.1920  179.6070  139.0630 C   0  0  2  0  0  3  0  0  0  0  0  0
  183.1200  176.8290  139.1150 C   0  0  1  0  0  3  0  0  0  0  0  0
  188.9660  179.3720  136.9890 C   0  0  0  0  0  1  0  0  0  0  0  0
  188.4990  178.1360  136.5400 O   0  0  0  0  0  0  0  0  0  0  0  0
  1  2  1  0  0  0  0
  3  6  1  0  0  0  0
  4  8  2  0  0  0  0
  5  3  2  0  0  0  0
  5  4  1  0  0  0  0
  6  8  1  0  0  0  0
  6  1  1  0  0  0  0
  7  2  2  0  0  0  0
  8  7  1  0  0  0  0
  9 11  2  0  0  0  0
  9 13  1  0  0  0  0
 10 14  2  0  0  0  0
 11 10  1  0  0  0  0
 12 14  1  0  0  0  0
 13 12  2  0  0  0  0
 14  3  1  0  0  0  0
 16 11  1  0  0  0  0
 16 15  2  0  0  0  0
 17 16  1  0  0  0  0
 18 19  1  0  0  0  0
 18 17  1  0  0  0  0
 19 20  1  0  0  0  0
 20 21  1  0  0  0  0
 21 23  1  0  0  0  0
 23 24  1  0  0  0  0
 24 22  2  0  0  0  0
 25 24  1  0  0  0  0
 26 45  1  6  0  0  0
 26  5  1  0  0  0  0
 27 30  1  1  0  0  0
 27 28  1  0  0  0  0
 27 29  1  0  0  0  0
 28 31  1  1  0  0  0
 28 29  1  0  0  0  0
 29 26  1  6  0  0  0
 31 32  1  0  0  0  0
 32 33  1  0  0  0  0
 33 35  2  6  0  0  0
 33 34  1  0  0  0  0
 36 43  1  0  0  0  0
 36 38  1  0  0  0  0
 38 39  1  6  0  0  0
 40 41  1  6  0  0  0
 40 42  1  0  0  0  0
 40 37  1  0  0  0  0
 42 41  1  6  0  0  0
 42 38  1  0  0  0  0
 43 33  1  6  0  0  0
 43 37  1  0  0  0  0
 45 44  1  0  0  0  0
M  END
>  <MODEL>
8

>  <REMARK>
 VINA RESULT:      -7.4      3.698      9.506
  Name = 
  14 active torsions:
  status: ('A' for Active; 'I' for Inactive)
    1  A    between atoms: N_2  and  C_34
    2  A    between atoms: N_2  and  N_37
    3  A    between atoms: P_6  and  O_21
    4  A    between atoms: P_6  and  C_45
    5  A    between atoms: N_7  and  C_34
    6  A    between atoms: C_11  and  O_21
    7  A    between atoms: C_11  and  C_22
    8  A    between atoms: C_12  and  C_29
    9  A    between atoms: C_20  and  C_36
   10  A    between atoms: O_26  and  C_33
   11  A    between atoms: C_27  and  C_33
   12  A    between atoms: C_30  and  C_33
   13  A    between atoms: N_35  and  C_39
   14  A    between atoms: N_37  and  C_39
                            x       y       z     vdW  Elec       q    Type
                         _______ _______ _______ _____ _____    ______ ____

>  <TORSDO>
F 14

$$$$
=
 OpenBabel10232409493D

 45 50  0  0  1  0  0  0  0  0999 V2000
  193.1680  173.0730  136.9440 C   0  0  0  0  0  2  0  0  0  0  0  0
  194.4490  173.5100  137.3170 C   0  0  0  0  0  3  0  0  0  0  0  0
  191.1780  174.5860  136.5940 C   0  0  0  0  0  0  0  0  0  0  0  0
  192.4680  176.3930  137.1090 N   0  0  0  0  0  0  0  0  0  0  0  0
  191.2150  175.9860  136.7500 C   0  0  0  0  0  0  0  0  0  0  0  0
  192.4220  174.1770  136.8610 N   0  0  0  0  0  0  0  0  0  0  0  0
  194.4390  174.9130  137.4550 C   0  0  0  0  0  3  0  0  0  0  0  0
  193.1380  175.2270  137.1520 C   0  0  0  0  0  0  0  0  0  0  0  0
  187.9660  172.0400  135.5290 C   0  0  0  0  0  3  0  0  0  0  0  0
  188.8190  173.8940  136.7550 N   0  0  0  0  0  0  0  0  0  0  0  0
  187.7720  173.0910  136.4300 C   0  0  0  0  0  0  0  0  0  0  0  0
  190.2560  172.6760  135.3530 N   0  0  0  0  0  0  0  0  0  0  0  0
  189.2400  171.8490  134.9960 C   0  0  0  0  0  3  0  0  0  0  0  0
  190.0560  173.6990  136.2260 C   0  0  0  0  0  0  0  0  0  0  0  0
  186.1380  172.7870  138.1210 O   0  0  0  0  0  0  0  0  0  0  0  0
  186.4530  173.3380  137.0310 C   0  0  0  0  0  0  0  0  0  0  0  0
  185.5300  174.2120  136.3750 N   0  0  0  0  0  2  0  0  0  0  0  0
  184.1990  174.4820  136.8980 C   0  0  0  0  0  2  0  0  0  0  0  0
  184.2100  175.7260  137.6480 N   0  0  0  0  0  2  0  0  0  0  0  0
  183.1140  175.6780  138.5200 N   0  0  0  0  0  2  0  0  0  0  0  0
  182.6770  177.0490  138.7300 C   0  0  0  0  0  2  0  0  0  0  0  0
  184.7210  179.8770  139.8330 O   0  0  0  0  0  0  0  0  0  0  0  0
  183.7640  177.8290  139.3000 N   0  0  0  0  0  2  0  0  0  0  0  0
  183.7510  179.2580  139.3240 C   0  0  0  0  0  0  0  0  0  0  0  0
  182.6100  180.0310  138.7560 C   0  0  0  0  0  1  0  0  0  0  0  0
  190.0880  176.9610  136.5770 C   0  0  2  0  0  3  0  0  0  0  0  0
  188.6740  178.4320  138.0000 C   0  0  1  0  0  3  0  0  0  0  0  0
  189.8700  177.9650  138.8340 C   0  0  2  0  0  3  0  0  0  0  0  0
  189.2280  177.0310  137.8300 C   0  0  2  0  0  3  0  0  0  0  0  0
  187.4720  178.3730  138.7110 O   0  0  0  0  0  1  0  0  0  0  0  0
  189.5120  177.5160  140.2460 C   0  0  0  0  0  2  0  0  0  0  0  0
  190.2950  176.4150  140.6060 O   0  0  0  0  0  0  0  0  0  0  0  0
  190.4770  176.5010  142.2920 P   0  0  2  0  0  0  0  0  0  0  0  0
  191.8820  176.9510  142.6300 O   0  0  0  0  0  0  0  0  0  0  0  0
  190.2260  174.9600  142.9390 O   0  0  0  0  0  1  0  0  0  0  0  0
  188.0230  177.0060  143.5430 C   0  0  0  0  0  2  0  0  0  0  0  0
  189.8940  178.6550  143.8340 O   0  0  0  0  0  0  0  0  0  0  0  0
  187.5220  177.7320  144.7790 C   0  0  1  0  0  3  0  0  0  0  0  0
  186.4600  177.0220  145.3360 O   0  0  0  0  0  1  0  0  0  0  0  0
  189.9460  178.3960  145.2410 C   0  0  2  0  0  3  0  0  0  0  0  0
  189.7700  176.9540  145.7100 C   0  0  0  0  0  2  0  0  0  0  0  0
  188.6120  177.9410  145.8380 C   0  0  2  0  0  3  0  0  0  0  0  0
  189.2780  177.6820  142.9980 C   0  0  1  0  0  3  0  0  0  0  0  0
  189.7760  177.4390  134.4380 C   0  0  0  0  0  1  0  0  0  0  0  0
  189.3090  176.6210  135.4680 O   0  0  0  0  0  0  0  0  0  0  0  0
  1  2  1  0  0  0  0
  2  7  2  0  0  0  0
  3  5  2  0  0  0  0
  3  6  1  0  0  0  0
  4  8  2  0  0  0  0
  5  4  1  0  0  0  0
  6  1  1  0  0  0  0
  6  8  1  0  0  0  0
  8  7  1  0  0  0  0
  9 11  2  0  0  0  0
 11 10  1  0  0  0  0
 11 16  1  0  0  0  0
 12 14  1  0  0  0  0
 13 12  2  0  0  0  0
 13  9  1  0  0  0  0
 14  3  1  0  0  0  0
 14 10  2  0  0  0  0
 16 15  2  0  0  0  0
 17 18  1  0  0  0  0
 17 16  1  0  0  0  0
 18 19  1  0  0  0  0
 19 20  1  0  0  0  0
 20 21  1  0  0  0  0
 21 23  1  0  0  0  0
 23 24  1  0  0  0  0
 24 22  2  0  0  0  0
 25 24  1  0  0  0  0
 26 45  1  6  0  0  0
 26  5  1  0  0  0  0
 27 30  1  1  0  0  0
 27 28  1  0  0  0  0
 28 31  1  1  0  0  0
 29 26  1  6  0  0  0
 29 27  1  0  0  0  0
 29 28  1  0  0  0  0
 31 32  1  0  0  0  0
 32 33  1  0  0  0  0
 33 34  2  1  0  0  0
 33 35  1  0  0  0  0
 36 38  1  0  0  0  0
 37 40  1  0  0  0  0
 38 39  1  1  0  0  0
 38 42  1  0  0  0  0
 40 41  1  6  0  0  0
 40 42  1  0  0  0  0
 42 41  1  6  0  0  0
 43 33  1  1  0  0  0
 43 36  1  0  0  0  0
 43 37  1  0  0  0  0
 44 45  1  0  0  0  0
M  END
>  <MODEL>
9

>  <REMARK>
 VINA RESULT:      -7.3      3.786      8.368
  Name = 
  14 active torsions:
  status: ('A' for Active; 'I' for Inactive)
    1  A    between atoms: N_2  and  C_34
    2  A    between atoms: N_2  and  N_37
    3  A    between atoms: P_6  and  O_21
    4  A    between atoms: P_6  and  C_45
    5  A    between atoms: N_7  and  C_34
    6  A    between atoms: C_11  and  O_21
    7  A    between atoms: C_11  and  C_22
    8  A    between atoms: C_12  and  C_29
    9  A    between atoms: C_20  and  C_36
   10  A    between atoms: O_26  and  C_33
   11  A    between atoms: C_27  and  C_33
   12  A    between atoms: C_30  and  C_33
   13  A    between atoms: N_35  and  C_39
   14  A    between atoms: N_37  and  C_39
                            x       y       z     vdW  Elec       q    Type
                         _______ _______ _______ _____ _____    ______ ____

>  <TORSDO>
F 14

$$$$
