=
 OpenBabel10232411273D

 36 39  0  0  1  0  0  0  0  0999 V2000
  184.2010  179.1970  142.9410 C   0  0  1  0  0  3  0  0  0  0  0  0
  182.9570  178.9260  140.3400 N   0  0  0  0  0  1  0  0  0  0  0  0
  182.7370  178.9140  142.7880 C   0  0  0  0  0  0  0  0  0  0  0  0
  180.5530  178.5150  143.7630 C   0  0  0  0  0  3  0  0  0  0  0  0
  182.1600  178.7900  141.5130 C   0  0  0  0  0  0  0  0  0  0  0  0
  180.0240  178.3950  142.4780 C   0  0  0  0  0  3  0  0  0  0  0  0
  181.9150  178.7750  143.9160 C   0  0  0  0  0  3  0  0  0  0  0  0
  180.8290  178.5350  141.3910 N   0  0  0  0  0  0  0  0  0  0  0  0
  184.5120  179.6520  144.3630 C   0  0  0  0  0  2  0  0  0  0  0  0
  185.2580  178.5700  145.1170 C   0  0  2  0  0  3  0  0  0  0  0  0
  184.6060  178.3470  146.4610 C   0  0  0  0  0  2  0  0  0  0  0  0
  185.8770  179.1740  146.3670 C   0  0  1  0  0  3  0  0  0  0  0  0
  188.9230  177.2940  145.5170 C   0  0  0  0  0  3  0  0  0  0  0  0
  187.6030  178.5760  147.9790 C   0  0  0  0  0  3  0  0  0  0  0  0
  189.7870  177.3360  147.8560 C   0  0  0  0  0  3  0  0  0  0  0  0
  187.0760  178.3710  146.7680 C   0  0  0  0  0  0  0  0  0  0  0  0
  189.9320  177.3110  146.3880 C   0  0  0  0  0  3  0  0  0  0  0  0
  188.7760  177.8800  148.5450 C   0  0  0  0  0  3  0  0  0  0  0  0
  187.4910  177.2040  145.9270 C   0  0  0  0  0  2  0  0  0  0  0  0
  184.9820  178.0150  142.5970 N   0  0  0  0  0  2  0  0  0  0  0  0
  186.4160  178.3850  140.2580 S   0  0  0  0  0  0  0  0  0  0  0  0
  186.2280  178.0980  141.9030 C   0  0  0  0  0  0  0  0  0  0  0  0
  188.0950  178.3260  140.2960 C   0  0  0  0  0  0  0  0  0  0  0  0
  187.4660  177.9400  142.5060 C   0  0  0  0  0  3  0  0  0  0  0  0
  188.5240  178.0710  141.5950 C   0  0  0  0  0  3  0  0  0  0  0  0
  188.9760  178.5220  139.1400 C   0  0  0  0  0  0  0  0  0  0  0  0
  188.6550  179.3420  138.2370 O   0  0  0  0  0  0  0  0  0  0  0  0
  190.1630  177.7990  139.0440 O   0  0  0  0  0  0  0  0  0  0  0  0
  192.2980  176.5170  137.6670 N   0  0  0  0  0  2  0  0  0  0  0  0
  190.1490  176.4310  138.8900 N   0  0  0  0  0  2  0  0  0  0  0  0
  191.1500  174.5150  138.0490 O   0  0  0  0  0  0  0  0  0  0  0  0
  191.1980  175.7650  138.1920 C   0  0  0  0  0  0  0  0  0  0  0  0
  194.3700  176.9140  136.6900 O   0  0  0  0  0  1  0  0  0  0  0  0
  194.0010  174.9300  137.7130 F   0  0  0  0  0  0  0  0  0  0  0  0
  193.4210  175.9260  136.9470 C   0  0  1  0  0  0  0  0  0  0  0  0
  192.9480  175.3420  135.6290 C   0  0  0  0  0  1  0  0  0  0  0  0
  1  9  1  1  0  0  0
  2  5  1  0  0  0  0
  3  1  1  0  0  0  0
  3  7  1  0  0  0  0
  4  7  2  0  0  0  0
  5  3  2  0  0  0  0
  6  4  1  0  0  0  0
  8  5  1  0  0  0  0
  8  6  2  0  0  0  0
 10  9  1  6  0  0  0
 10 12  1  0  0  0  0
 10 11  1  0  0  0  0
 12 11  1  0  0  0  0
 12 16  1  1  0  0  0
 13 19  1  0  0  0  0
 13 17  2  0  0  0  0
 14 18  1  0  0  0  0
 15 18  2  0  0  0  0
 16 14  2  0  0  0  0
 17 15  1  0  0  0  0
 19 16  1  0  0  0  0
 20  1  1  0  0  0  0
 21 23  1  0  0  0  0
 21 22  1  0  0  0  0
 22 24  2  0  0  0  0
 22 20  1  0  0  0  0
 23 25  2  0  0  0  0
 25 24  1  0  0  0  0
 26 23  1  0  0  0  0
 27 26  2  0  0  0  0
 28 26  1  0  0  0  0
 29 32  1  0  0  0  0
 30 28  1  0  0  0  0
 31 32  2  0  0  0  0
 32 30  1  0  0  0  0
 33 35  1  0  0  0  0
 35 36  1  6  0  0  0
 35 29  1  0  0  0  0
 35 34  1  0  0  0  0
M  END
>  <MODEL>
1

>  <REMARK>
 VINA RESULT:      -9.4      0.000      0.000
  Name = 
  10 active torsions:
  status: ('A' for Active; 'I' for Inactive)
    1  A    between atoms: C_2  and  O_13
    2  A    between atoms: C_2  and  C_19
    3  A    between atoms: C_4  and  C_31
    4  A    between atoms: C_7  and  C_8
    5  A    between atoms: C_7  and  C_31
    6  A    between atoms: N_11  and  C_33
    7  A    between atoms: O_13  and  N_16
    8  A    between atoms: C_15  and  C_32
    9  A    between atoms: C_17  and  N_22
   10  A    between atoms: N_22  and  C_31
                            x       y       z     vdW  Elec       q    Type
                         _______ _______ _______ _____ _____    ______ ____

>  <TORSDO>
F 10

$$$$
=
 OpenBabel10232411273D

 36 39  0  0  1  0  0  0  0  0999 V2000
  184.3620  179.0730  143.1590 C   0  0  1  0  0  3  0  0  0  0  0  0
  183.3290  178.8130  140.4660 N   0  0  0  0  0  1  0  0  0  0  0  0
  182.9040  178.8550  142.8870 C   0  0  0  0  0  0  0  0  0  0  0  0
  180.6300  178.5740  143.6790 C   0  0  0  0  0  3  0  0  0  0  0  0
  182.4310  178.7340  141.5700 C   0  0  0  0  0  0  0  0  0  0  0  0
  180.2050  178.4560  142.3560 C   0  0  0  0  0  3  0  0  0  0  0  0
  181.9850  178.7730  143.9430 C   0  0  0  0  0  3  0  0  0  0  0  0
  181.1050  178.5380  141.3390 N   0  0  0  0  0  0  0  0  0  0  0  0
  184.5740  179.5320  144.5970 C   0  0  0  0  0  2  0  0  0  0  0  0
  185.3570  178.4960  145.3780 C   0  0  2  0  0  3  0  0  0  0  0  0
  184.7040  178.2740  146.7220 C   0  0  0  0  0  2  0  0  0  0  0  0
  185.9420  179.1490  146.6200 C   0  0  1  0  0  3  0  0  0  0  0  0
  189.0050  177.2730  145.8250 C   0  0  0  0  0  3  0  0  0  0  0  0
  187.7240  178.7070  148.2220 C   0  0  0  0  0  3  0  0  0  0  0  0
  189.9300  177.5060  148.1300 C   0  0  0  0  0  3  0  0  0  0  0  0
  187.1690  178.4030  147.0450 C   0  0  0  0  0  0  0  0  0  0  0  0
  190.0360  177.3750  146.6640 C   0  0  0  0  0  3  0  0  0  0  0  0
  188.9270  178.0790  148.8050 C   0  0  0  0  0  3  0  0  0  0  0  0
  187.5870  177.1840  146.2800 C   0  0  0  0  0  2  0  0  0  0  0  0
  185.1130  177.8520  142.8930 N   0  0  0  0  0  2  0  0  0  0  0  0
  187.6750  176.8060  142.8290 S   0  0  0  0  0  0  0  0  0  0  0  0
  186.4500  177.8700  142.3910 C   0  0  0  0  0  0  0  0  0  0  0  0
  188.8310  177.5020  141.8260 C   0  0  0  0  0  0  0  0  0  0  0  0
  186.9220  178.7910  141.4690 C   0  0  0  0  0  3  0  0  0  0  0  0
  188.2710  178.5810  141.1480 C   0  0  0  0  0  3  0  0  0  0  0  0
  190.2150  177.0400  141.6810 C   0  0  0  0  0  0  0  0  0  0  0  0
  190.8070  176.5110  142.6610 O   0  0  0  0  0  0  0  0  0  0  0  0
  190.8700  177.1910  140.4610 O   0  0  0  0  0  0  0  0  0  0  0  0
  189.3880  177.8730  138.1290 N   0  0  0  0  0  2  0  0  0  0  0  0
  190.7190  176.2640  139.4550 N   0  0  0  0  0  2  0  0  0  0  0  0
  189.8310  175.6990  137.3880 O   0  0  0  0  0  0  0  0  0  0  0  0
  189.9690  176.5740  138.2830 C   0  0  0  0  0  0  0  0  0  0  0  0
  188.2880  179.6380  137.0890 O   0  0  0  0  0  1  0  0  0  0  0  0
  189.3570  178.1060  135.8130 F   0  0  0  0  0  0  0  0  0  0  0  0
  188.6130  178.2880  136.9650 C   0  0  1  0  0  0  0  0  0  0  0  0
  187.3310  177.4790  136.8760 C   0  0  0  0  0  1  0  0  0  0  0  0
  1  9  1  1  0  0  0
  2  5  1  0  0  0  0
  3  1  1  0  0  0  0
  3  7  1  0  0  0  0
  4  7  2  0  0  0  0
  5  3  2  0  0  0  0
  6  4  1  0  0  0  0
  8  5  1  0  0  0  0
  8  6  2  0  0  0  0
 10  9  1  6  0  0  0
 10 12  1  0  0  0  0
 10 11  1  0  0  0  0
 12 11  1  0  0  0  0
 12 16  1  1  0  0  0
 13 19  1  0  0  0  0
 13 17  2  0  0  0  0
 14 18  1  0  0  0  0
 15 18  2  0  0  0  0
 16 14  2  0  0  0  0
 17 15  1  0  0  0  0
 19 16  1  0  0  0  0
 20  1  1  0  0  0  0
 22 21  1  0  0  0  0
 22 20  1  0  0  0  0
 23 21  1  0  0  0  0
 24 22  2  0  0  0  0
 25 24  1  0  0  0  0
 25 23  2  0  0  0  0
 26 23  1  0  0  0  0
 26 27  2  0  0  0  0
 28 26  1  0  0  0  0
 29 32  1  0  0  0  0
 30 28  1  0  0  0  0
 31 32  2  0  0  0  0
 32 30  1  0  0  0  0
 34 35  1  0  0  0  0
 35 36  1  6  0  0  0
 35 33  1  0  0  0  0
 35 29  1  0  0  0  0
M  END
>  <MODEL>
2

>  <REMARK>
 VINA RESULT:      -9.1      1.868      2.513
  Name = 
  10 active torsions:
  status: ('A' for Active; 'I' for Inactive)
    1  A    between atoms: C_2  and  O_13
    2  A    between atoms: C_2  and  C_19
    3  A    between atoms: C_4  and  C_31
    4  A    between atoms: C_7  and  C_8
    5  A    between atoms: C_7  and  C_31
    6  A    between atoms: N_11  and  C_33
    7  A    between atoms: O_13  and  N_16
    8  A    between atoms: C_15  and  C_32
    9  A    between atoms: C_17  and  N_22
   10  A    between atoms: N_22  and  C_31
                            x       y       z     vdW  Elec       q    Type
                         _______ _______ _______ _____ _____    ______ ____

>  <TORSDO>
F 10

$$$$
=
 OpenBabel10232411273D

 36 39  0  0  1  0  0  0  0  0999 V2000
  184.1680  179.1540  142.9650 C   0  0  1  0  0  3  0  0  0  0  0  0
  182.8800  178.9040  140.3840 N   0  0  0  0  0  1  0  0  0  0  0  0
  182.7020  178.8710  142.8350 C   0  0  0  0  0  0  0  0  0  0  0  0
  180.5360  178.4620  143.8450 C   0  0  0  0  0  3  0  0  0  0  0  0
  182.1040  178.7570  141.5690 C   0  0  0  0  0  0  0  0  0  0  0  0
  179.9850  178.3530  142.5680 C   0  0  0  0  0  3  0  0  0  0  0  0
  181.9010  178.7210  143.9760 C   0  0  0  0  0  3  0  0  0  0  0  0
  180.7710  178.5020  141.4690 N   0  0  0  0  0  0  0  0  0  0  0  0
  184.4980  179.6280  144.3750 C   0  0  0  0  0  2  0  0  0  0  0  0
  185.2490  178.5550  145.1380 C   0  0  2  0  0  3  0  0  0  0  0  0
  184.5640  178.2980  146.4590 C   0  0  0  0  0  2  0  0  0  0  0  0
  185.8160  179.1570  146.4130 C   0  0  1  0  0  3  0  0  0  0  0  0
  188.8900  177.2960  145.6220 C   0  0  0  0  0  3  0  0  0  0  0  0
  187.5400  178.6150  148.0480 C   0  0  0  0  0  3  0  0  0  0  0  0
  189.7400  177.4000  147.9650 C   0  0  0  0  0  3  0  0  0  0  0  0
  187.0230  178.3780  146.8390 C   0  0  0  0  0  0  0  0  0  0  0  0
  189.8930  177.3450  146.4980 C   0  0  0  0  0  3  0  0  0  0  0  0
  188.7180  177.9470  148.6360 C   0  0  0  0  0  3  0  0  0  0  0  0
  187.4560  177.1970  146.0250 C   0  0  0  0  0  2  0  0  0  0  0  0
  184.9430  177.9650  142.6280 N   0  0  0  0  0  2  0  0  0  0  0  0
  186.4380  178.4030  140.3400 S   0  0  0  0  0  0  0  0  0  0  0  0
  186.2060  178.0390  141.9640 C   0  0  0  0  0  0  0  0  0  0  0  0
  188.1140  178.2830  140.4080 C   0  0  0  0  0  0  0  0  0  0  0  0
  187.4240  177.8060  142.5820 C   0  0  0  0  0  3  0  0  0  0  0  0
  188.5060  177.9460  141.7000 C   0  0  0  0  0  3  0  0  0  0  0  0
  189.0250  178.5060  139.2810 C   0  0  0  0  0  0  0  0  0  0  0  0
  190.1960  178.0380  139.3170 O   0  0  0  0  0  0  0  0  0  0  0  0
  188.5950  179.2390  138.1770 O   0  0  0  0  0  0  0  0  0  0  0  0
  186.8360  177.5460  136.7150 N   0  0  0  0  0  2  0  0  0  0  0  0
  188.9270  178.8550  136.8970 N   0  0  0  0  0  2  0  0  0  0  0  0
  188.4110  177.6440  134.9880 O   0  0  0  0  0  0  0  0  0  0  0  0
  188.0720  177.9950  136.1490 C   0  0  0  0  0  0  0  0  0  0  0  0
  185.2270  177.4060  135.0420 O   0  0  0  0  0  1  0  0  0  0  0  0
  186.5670  175.6250  135.4270 F   0  0  0  0  0  0  0  0  0  0  0  0
  185.8910  176.6740  136.0240 C   0  0  1  0  0  0  0  0  0  0  0  0
  184.8710  176.1280  137.0060 C   0  0  0  0  0  1  0  0  0  0  0  0
  1  9  1  1  0  0  0
  2  5  1  0  0  0  0
  3  1  1  0  0  0  0
  3  7  1  0  0  0  0
  4  7  2  0  0  0  0
  5  3  2  0  0  0  0
  6  4  1  0  0  0  0
  8  5  1  0  0  0  0
  8  6  2  0  0  0  0
 10  9  1  6  0  0  0
 10 12  1  0  0  0  0
 10 11  1  0  0  0  0
 12 11  1  0  0  0  0
 12 16  1  1  0  0  0
 13 19  1  0  0  0  0
 13 17  2  0  0  0  0
 14 18  1  0  0  0  0
 15 18  2  0  0  0  0
 16 14  2  0  0  0  0
 17 15  1  0  0  0  0
 19 16  1  0  0  0  0
 20  1  1  0  0  0  0
 21 23  1  0  0  0  0
 21 22  1  0  0  0  0
 22 24  2  0  0  0  0
 22 20  1  0  0  0  0
 23 25  2  0  0  0  0
 25 24  1  0  0  0  0
 26 27  2  0  0  0  0
 26 23  1  0  0  0  0
 28 26  1  0  0  0  0
 30 28  1  0  0  0  0
 31 32  2  0  0  0  0
 32 29  1  0  0  0  0
 32 30  1  0  0  0  0
 33 35  1  0  0  0  0
 34 35  1  0  0  0  0
 35 29  1  0  0  0  0
 35 36  1  1  0  0  0
M  END
>  <MODEL>
3

>  <REMARK>
 VINA RESULT:      -9.0      2.396      3.218
  Name = 
  10 active torsions:
  status: ('A' for Active; 'I' for Inactive)
    1  A    between atoms: C_2  and  O_13
    2  A    between atoms: C_2  and  C_19
    3  A    between atoms: C_4  and  C_31
    4  A    between atoms: C_7  and  C_8
    5  A    between atoms: C_7  and  C_31
    6  A    between atoms: N_11  and  C_33
    7  A    between atoms: O_13  and  N_16
    8  A    between atoms: C_15  and  C_32
    9  A    between atoms: C_17  and  N_22
   10  A    between atoms: N_22  and  C_31
                            x       y       z     vdW  Elec       q    Type
                         _______ _______ _______ _____ _____    ______ ____

>  <TORSDO>
F 10

$$$$
=
 OpenBabel10232411273D

 36 39  0  0  1  0  0  0  0  0999 V2000
  188.4920  177.0400  144.5720 C   0  0  1  0  0  3  0  0  0  0  0  0
  191.2800  176.2710  144.4330 N   0  0  0  0  0  1  0  0  0  0  0  0
  189.4080  177.1660  145.7520 C   0  0  0  0  0  0  0  0  0  0  0  0
  189.7940  177.7730  148.0670 C   0  0  0  0  0  3  0  0  0  0  0  0
  190.7570  176.7830  145.6550 C   0  0  0  0  0  0  0  0  0  0  0  0
  191.1270  177.3840  147.9250 C   0  0  0  0  0  3  0  0  0  0  0  0
  188.9340  177.6630  146.9740 C   0  0  0  0  0  3  0  0  0  0  0  0
  191.5750  176.9020  146.7360 N   0  0  0  0  0  0  0  0  0  0  0  0
  187.0370  177.0040  145.0280 C   0  0  0  0  0  2  0  0  0  0  0  0
  186.2190  178.0390  144.2810 C   0  0  2  0  0  3  0  0  0  0  0  0
  185.7720  179.1190  145.2380 C   0  0  0  0  0  2  0  0  0  0  0  0
  184.7980  178.0300  144.8210 C   0  0  1  0  0  3  0  0  0  0  0  0
  183.7590  178.2660  141.2990 C   0  0  0  0  0  3  0  0  0  0  0  0
  182.5880  178.7600  144.0980 C   0  0  0  0  0  3  0  0  0  0  0  0
  181.4670  179.0690  141.8680 C   0  0  0  0  0  3  0  0  0  0  0  0
  183.8590  178.5210  143.7610 C   0  0  0  0  0  0  0  0  0  0  0  0
  182.4550  178.3550  141.0370 C   0  0  0  0  0  3  0  0  0  0  0  0
  181.5270  179.2470  143.1940 C   0  0  0  0  0  3  0  0  0  0  0  0
  184.4120  178.9680  142.4430 C   0  0  0  0  0  2  0  0  0  0  0  0
  188.7120  178.1410  143.6420 N   0  0  0  0  0  2  0  0  0  0  0  0
  190.0500  176.9540  141.5290 S   0  0  0  0  0  0  0  0  0  0  0  0
  188.8830  177.9330  142.2390 C   0  0  0  0  0  0  0  0  0  0  0  0
  189.5570  177.2700  139.9530 C   0  0  0  0  0  0  0  0  0  0  0  0
  188.1000  178.5310  141.2640 C   0  0  0  0  0  3  0  0  0  0  0  0
  188.4820  178.1530  139.9680 C   0  0  0  0  0  3  0  0  0  0  0  0
  190.1620  176.6970  138.7460 C   0  0  0  0  0  0  0  0  0  0  0  0
  190.0390  177.2900  137.6390 O   0  0  0  0  0  0  0  0  0  0  0  0
  190.8670  175.4980  138.8270 O   0  0  0  0  0  0  0  0  0  0  0  0
  193.4240  174.8220  137.7770 N   0  0  0  0  0  2  0  0  0  0  0  0
  190.9560  174.6530  137.7440 N   0  0  0  0  0  2  0  0  0  0  0  0
  192.2740  173.5500  136.1860 O   0  0  0  0  0  0  0  0  0  0  0  0
  192.2230  174.3100  137.1890 C   0  0  0  0  0  0  0  0  0  0  0  0
  195.7010  174.9420  138.2310 O   0  0  0  0  0  1  0  0  0  0  0  0
  194.9010  173.1590  137.0920 F   0  0  0  0  0  0  0  0  0  0  0  0
  194.7650  174.5210  137.2880 C   0  0  1  0  0  0  0  0  0  0  0  0
  195.0200  175.2510  135.9810 C   0  0  0  0  0  1  0  0  0  0  0  0
  1  9  1  1  0  0  0
  1  3  1  0  0  0  0
  2  5  1  0  0  0  0
  3  7  1  0  0  0  0
  5  3  2  0  0  0  0
  5  8  1  0  0  0  0
  6  4  1  0  0  0  0
  7  4  2  0  0  0  0
  8  6  2  0  0  0  0
 10 12  1  0  0  0  0
 10  9  1  1  0  0  0
 10 11  1  0  0  0  0
 12 16  1  6  0  0  0
 12 11  1  0  0  0  0
 13 19  1  0  0  0  0
 15 18  2  0  0  0  0
 16 14  2  0  0  0  0
 17 13  2  0  0  0  0
 17 15  1  0  0  0  0
 18 14  1  0  0  0  0
 19 16  1  0  0  0  0
 20  1  1  0  0  0  0
 21 22  1  0  0  0  0
 22 20  1  0  0  0  0
 23 25  2  0  0  0  0
 23 21  1  0  0  0  0
 24 22  2  0  0  0  0
 25 24  1  0  0  0  0
 26 28  1  0  0  0  0
 26 23  1  0  0  0  0
 27 26  2  0  0  0  0
 30 28  1  0  0  0  0
 31 32  2  0  0  0  0
 32 30  1  0  0  0  0
 32 29  1  0  0  0  0
 34 35  1  0  0  0  0
 35 36  1  6  0  0  0
 35 29  1  0  0  0  0
 35 33  1  0  0  0  0
M  END
>  <MODEL>
4

>  <REMARK>
 VINA RESULT:      -8.9      2.471      5.940
  Name = 
  10 active torsions:
  status: ('A' for Active; 'I' for Inactive)
    1  A    between atoms: C_2  and  O_13
    2  A    between atoms: C_2  and  C_19
    3  A    between atoms: C_4  and  C_31
    4  A    between atoms: C_7  and  C_8
    5  A    between atoms: C_7  and  C_31
    6  A    between atoms: N_11  and  C_33
    7  A    between atoms: O_13  and  N_16
    8  A    between atoms: C_15  and  C_32
    9  A    between atoms: C_17  and  N_22
   10  A    between atoms: N_22  and  C_31
                            x       y       z     vdW  Elec       q    Type
                         _______ _______ _______ _____ _____    ______ ____

>  <TORSDO>
F 10

$$$$
=
 OpenBabel10232411273D

 36 39  0  0  1  0  0  0  0  0999 V2000
  188.6200  176.9670  144.3790 C   0  0  1  0  0  3  0  0  0  0  0  0
  191.4110  176.2170  144.1920 N   0  0  0  0  0  1  0  0  0  0  0  0
  189.5400  177.0380  145.5600 C   0  0  0  0  0  0  0  0  0  0  0  0
  189.9320  177.5310  147.9010 C   0  0  0  0  0  3  0  0  0  0  0  0
  190.8900  176.6660  145.4400 C   0  0  0  0  0  0  0  0  0  0  0  0
  191.2660  177.1560  147.7360 C   0  0  0  0  0  3  0  0  0  0  0  0
  189.0690  177.4720  146.8070 C   0  0  0  0  0  3  0  0  0  0  0  0
  191.7120  176.7350  146.5220 N   0  0  0  0  0  0  0  0  0  0  0  0
  187.1690  176.8700  144.8380 C   0  0  0  0  0  2  0  0  0  0  0  0
  186.3300  177.9480  144.1820 C   0  0  2  0  0  3  0  0  0  0  0  0
  185.9420  178.9840  145.2100 C   0  0  0  0  0  2  0  0  0  0  0  0
  184.9360  177.9270  144.7880 C   0  0  1  0  0  3  0  0  0  0  0  0
  183.7430  178.3610  141.3340 C   0  0  0  0  0  3  0  0  0  0  0  0
  182.7000  178.7030  144.2050 C   0  0  0  0  0  3  0  0  0  0  0  0
  181.4830  179.1380  142.0480 C   0  0  0  0  0  3  0  0  0  0  0  0
  183.9540  178.4780  143.8000 C   0  0  0  0  0  0  0  0  0  0  0  0
  182.4300  178.4680  141.1350 C   0  0  0  0  0  3  0  0  0  0  0  0
  181.6030  179.2420  143.3780 C   0  0  0  0  0  3  0  0  0  0  0  0
  184.4510  178.9960  142.4850 C   0  0  0  0  0  2  0  0  0  0  0  0
  188.8110  178.1290  143.5200 N   0  0  0  0  0  2  0  0  0  0  0  0
  188.0220  178.6500  140.9180 S   0  0  0  0  0  0  0  0  0  0  0  0
  189.0190  178.0120  142.1120 C   0  0  0  0  0  0  0  0  0  0  0  0
  188.9530  178.0820  139.6390 C   0  0  0  0  0  0  0  0  0  0  0  0
  190.0850  177.3380  141.5360 C   0  0  0  0  0  3  0  0  0  0  0  0
  190.0480  177.3790  140.1340 C   0  0  0  0  0  3  0  0  0  0  0  0
  188.6640  178.3000  138.2180 C   0  0  0  0  0  0  0  0  0  0  0  0
  188.8430  179.4390  137.7070 O   0  0  0  0  0  0  0  0  0  0  0  0
  188.1870  177.2480  137.4390 O   0  0  0  0  0  0  0  0  0  0  0  0
  187.1250  174.6220  137.1600 N   0  0  0  0  0  2  0  0  0  0  0  0
  186.8380  177.0790  137.2230 N   0  0  0  0  0  2  0  0  0  0  0  0
  185.0480  175.6530  136.8480 O   0  0  0  0  0  0  0  0  0  0  0  0
  186.2820  175.7760  137.0650 C   0  0  0  0  0  0  0  0  0  0  0  0
  185.7520  172.9720  138.0520 O   0  0  0  0  0  1  0  0  0  0  0  0
  186.0050  173.0950  135.8070 F   0  0  0  0  0  0  0  0  0  0  0  0
  186.6490  173.2510  137.0220 C   0  0  1  0  0  0  0  0  0  0  0  0
  187.8140  172.2820  137.1080 C   0  0  0  0  0  1  0  0  0  0  0  0
  1  9  1  1  0  0  0
  1  3  1  0  0  0  0
  2  5  1  0  0  0  0
  3  7  1  0  0  0  0
  5  3  2  0  0  0  0
  5  8  1  0  0  0  0
  6  4  1  0  0  0  0
  7  4  2  0  0  0  0
  8  6  2  0  0  0  0
 10 12  1  0  0  0  0
 10  9  1  1  0  0  0
 10 11  1  0  0  0  0
 12 16  1  6  0  0  0
 12 11  1  0  0  0  0
 13 19  1  0  0  0  0
 15 18  2  0  0  0  0
 16 14  2  0  0  0  0
 17 13  2  0  0  0  0
 17 15  1  0  0  0  0
 18 14  1  0  0  0  0
 19 16  1  0  0  0  0
 20  1  1  0  0  0  0
 21 22  1  0  0  0  0
 22 20  1  0  0  0  0
 23 25  2  0  0  0  0
 23 21  1  0  0  0  0
 24 22  2  0  0  0  0
 25 24  1  0  0  0  0
 26 23  1  0  0  0  0
 27 26  2  0  0  0  0
 28 26  1  0  0  0  0
 30 28  1  0  0  0  0
 31 32  2  0  0  0  0
 32 29  1  0  0  0  0
 32 30  1  0  0  0  0
 34 35  1  0  0  0  0
 35 36  1  1  0  0  0
 35 29  1  0  0  0  0
 35 33  1  0  0  0  0
M  END
>  <MODEL>
5

>  <REMARK>
 VINA RESULT:      -8.9      3.251      6.627
  Name = 
  10 active torsions:
  status: ('A' for Active; 'I' for Inactive)
    1  A    between atoms: C_2  and  O_13
    2  A    between atoms: C_2  and  C_19
    3  A    between atoms: C_4  and  C_31
    4  A    between atoms: C_7  and  C_8
    5  A    between atoms: C_7  and  C_31
    6  A    between atoms: N_11  and  C_33
    7  A    between atoms: O_13  and  N_16
    8  A    between atoms: C_15  and  C_32
    9  A    between atoms: C_17  and  N_22
   10  A    between atoms: N_22  and  C_31
                            x       y       z     vdW  Elec       q    Type
                         _______ _______ _______ _____ _____    ______ ____

>  <TORSDO>
F 10

$$$$
=
 OpenBabel10232411273D

 36 39  0  0  1  0  0  0  0  0999 V2000
  184.9240  179.0070  142.2430 C   0  0  1  0  0  3  0  0  0  0  0  0
  183.7320  179.1610  144.8770 N   0  0  0  0  0  1  0  0  0  0  0  0
  183.4490  178.8460  142.4560 C   0  0  0  0  0  0  0  0  0  0  0  0
  181.2220  178.4580  141.5800 C   0  0  0  0  0  3  0  0  0  0  0  0
  182.8990  178.9240  143.7460 C   0  0  0  0  0  0  0  0  0  0  0  0
  180.7190  178.5470  142.8780 C   0  0  0  0  0  3  0  0  0  0  0  0
  182.5930  178.6100  141.3710 C   0  0  0  0  0  3  0  0  0  0  0  0
  181.5580  178.7750  143.9230 N   0  0  0  0  0  0  0  0  0  0  0  0
  185.6410  177.6760  142.4420 C   0  0  0  0  0  2  0  0  0  0  0  0
  186.8560  177.8520  143.3300 C   0  0  2  0  0  3  0  0  0  0  0  0
  187.6580  176.5720  143.3530 C   0  0  0  0  0  2  0  0  0  0  0  0
  186.7430  176.9100  144.5180 C   0  0  1  0  0  3  0  0  0  0  0  0
  186.9030  178.2930  147.9240 C   0  0  0  0  0  3  0  0  0  0  0  0
  188.7950  177.0940  145.8190 C   0  0  0  0  0  3  0  0  0  0  0  0
  189.3660  177.9470  148.1150 C   0  0  0  0  0  3  0  0  0  0  0  0
  187.5200  177.4670  145.6720 C   0  0  0  0  0  0  0  0  0  0  0  0
  187.9930  178.0440  148.6490 C   0  0  0  0  0  3  0  0  0  0  0  0
  189.7120  177.5390  146.8880 C   0  0  0  0  0  3  0  0  0  0  0  0
  186.9440  178.6000  146.4640 C   0  0  0  0  0  2  0  0  0  0  0  0
  185.1870  179.5370  140.9110 N   0  0  0  0  0  2  0  0  0  0  0  0
  187.5520  178.4200  140.0030 S   0  0  0  0  0  0  0  0  0  0  0  0
  185.9170  178.8030  139.9260 C   0  0  0  0  0  0  0  0  0  0  0  0
  187.5720  177.6000  138.5350 C   0  0  0  0  0  0  0  0  0  0  0  0
  185.3640  178.3110  138.7550 C   0  0  0  0  0  3  0  0  0  0  0  0
  186.3020  177.6280  137.9670 C   0  0  0  0  0  3  0  0  0  0  0  0
  188.7460  176.9470  137.9460 C   0  0  0  0  0  0  0  0  0  0  0  0
  188.8880  176.9200  136.6930 O   0  0  0  0  0  0  0  0  0  0  0  0
  189.6980  176.3570  138.7750 O   0  0  0  0  0  0  0  0  0  0  0  0
  190.8240  176.9810  141.3120 N   0  0  0  0  0  2  0  0  0  0  0  0
  190.9810  176.8520  138.8460 N   0  0  0  0  0  2  0  0  0  0  0  0
  192.7320  177.6560  140.1380 O   0  0  0  0  0  0  0  0  0  0  0  0
  191.5640  177.1870  140.1030 C   0  0  0  0  0  0  0  0  0  0  0  0
  191.1350  176.1810  143.4730 O   0  0  0  0  0  1  0  0  0  0  0  0
  192.6920  177.5560  142.5770 F   0  0  0  0  0  0  0  0  0  0  0  0
  191.3380  177.2830  142.6440 C   0  0  1  0  0  0  0  0  0  0  0  0
  190.6070  178.4790  143.2260 C   0  0  0  0  0  1  0  0  0  0  0  0
  1  9  1  6  0  0  0
  1  3  1  0  0  0  0
  3  5  1  0  0  0  0
  4  6  2  0  0  0  0
  5  8  2  0  0  0  0
  5  2  1  0  0  0  0
  6  8  1  0  0  0  0
  7  4  1  0  0  0  0
  7  3  2  0  0  0  0
 10  9  1  6  0  0  0
 10 11  1  0  0  0  0
 10 12  1  0  0  0  0
 11 12  1  0  0  0  0
 12 16  1  1  0  0  0
 13 17  2  0  0  0  0
 14 18  1  0  0  0  0
 15 17  1  0  0  0  0
 16 14  2  0  0  0  0
 16 19  1  0  0  0  0
 18 15  2  0  0  0  0
 19 13  1  0  0  0  0
 20  1  1  0  0  0  0
 22 21  1  0  0  0  0
 22 20  1  0  0  0  0
 23 21  1  0  0  0  0
 24 22  2  0  0  0  0
 25 23  2  0  0  0  0
 25 24  1  0  0  0  0
 26 23  1  0  0  0  0
 26 28  1  0  0  0  0
 27 26  2  0  0  0  0
 28 30  1  0  0  0  0
 29 35  1  0  0  0  0
 30 32  1  0  0  0  0
 32 31  2  0  0  0  0
 32 29  1  0  0  0  0
 34 35  1  0  0  0  0
 35 36  1  1  0  0  0
 35 33  1  0  0  0  0
M  END
>  <MODEL>
6

>  <REMARK>
 VINA RESULT:      -8.9      2.175      3.492
  Name = 
  10 active torsions:
  status: ('A' for Active; 'I' for Inactive)
    1  A    between atoms: C_2  and  O_13
    2  A    between atoms: C_2  and  C_19
    3  A    between atoms: C_4  and  C_31
    4  A    between atoms: C_7  and  C_8
    5  A    between atoms: C_7  and  C_31
    6  A    between atoms: N_11  and  C_33
    7  A    between atoms: O_13  and  N_16
    8  A    between atoms: C_15  and  C_32
    9  A    between atoms: C_17  and  N_22
   10  A    between atoms: N_22  and  C_31
                            x       y       z     vdW  Elec       q    Type
                         _______ _______ _______ _____ _____    ______ ____

>  <TORSDO>
F 10

$$$$
=
 OpenBabel10232411273D

 36 39  0  0  1  0  0  0  0  0999 V2000
  190.4120  177.6930  141.8200 C   0  0  1  0  0  3  0  0  0  0  0  0
  190.8530  179.5040  144.0360 N   0  0  0  0  0  1  0  0  0  0  0  0
  190.9230  177.2140  143.1460 C   0  0  0  0  0  0  0  0  0  0  0  0
  191.6900  175.4220  144.5880 C   0  0  0  0  0  3  0  0  0  0  0  0
  191.1290  178.1160  144.2020 C   0  0  0  0  0  0  0  0  0  0  0  0
  191.8750  176.3520  145.6110 C   0  0  0  0  0  3  0  0  0  0  0  0
  191.2100  175.8570  143.3520 C   0  0  0  0  0  3  0  0  0  0  0  0
  191.5960  177.6660  145.3990 N   0  0  0  0  0  0  0  0  0  0  0  0
  191.4250  177.3990  140.7190 C   0  0  0  0  0  2  0  0  0  0  0  0
  190.8050  176.5330  139.6410 C   0  0  2  0  0  3  0  0  0  0  0  0
  191.7540  176.4210  138.4720 C   0  0  0  0  0  2  0  0  0  0  0  0
  190.5760  177.3780  138.3980 C   0  0  1  0  0  3  0  0  0  0  0  0
  189.0450  174.5750  136.5710 C   0  0  0  0  0  3  0  0  0  0  0  0
  188.2220  177.2800  137.7760 C   0  0  0  0  0  3  0  0  0  0  0  0
  186.7790  175.6180  136.5620 C   0  0  0  0  0  3  0  0  0  0  0  0
  189.4530  176.7930  137.5970 C   0  0  0  0  0  0  0  0  0  0  0  0
  187.7150  174.4780  136.5760 C   0  0  0  0  0  3  0  0  0  0  0  0
  187.0000  176.8330  137.0780 C   0  0  0  0  0  3  0  0  0  0  0  0
  189.7680  175.8750  136.4550 C   0  0  0  0  0  2  0  0  0  0  0  0
  189.1300  177.0690  141.5180 N   0  0  0  0  0  2  0  0  0  0  0  0
  187.0280  177.3120  143.3030 S   0  0  0  0  0  0  0  0  0  0  0  0
  187.8850  177.6570  141.8990 C   0  0  0  0  0  0  0  0  0  0  0  0
  185.7740  178.3810  142.9690 C   0  0  0  0  0  0  0  0  0  0  0  0
  187.2060  178.5990  141.1430 C   0  0  0  0  0  3  0  0  0  0  0  0
  186.0100  179.0100  141.7500 C   0  0  0  0  0  3  0  0  0  0  0  0
  184.6130  178.6210  143.8310 C   0  0  0  0  0  0  0  0  0  0  0  0
  183.5810  179.1710  143.3580 O   0  0  0  0  0  0  0  0  0  0  0  0
  184.6570  178.2450  145.1720 O   0  0  0  0  0  0  0  0  0  0  0  0
  186.8330  177.9890  146.9880 N   0  0  0  0  0  2  0  0  0  0  0  0
  184.8270  179.1810  146.1670 N   0  0  0  0  0  2  0  0  0  0  0  0
  186.0180  179.9290  148.0110 O   0  0  0  0  0  0  0  0  0  0  0  0
  185.8990  179.0690  147.0990 C   0  0  0  0  0  0  0  0  0  0  0  0
  188.8190  178.8930  147.7910 O   0  0  0  0  0  1  0  0  0  0  0  0
  187.5190  177.6820  149.1910 F   0  0  0  0  0  0  0  0  0  0  0  0
  187.9660  177.7950  147.8870 C   0  0  1  0  0  0  0  0  0  0  0  0
  188.7300  176.5420  147.5010 C   0  0  0  0  0  1  0  0  0  0  0  0
  1  9  1  6  0  0  0
  1  3  1  0  0  0  0
  2  5  1  0  0  0  0
  3  7  2  0  0  0  0
  3  5  1  0  0  0  0
  4  6  2  0  0  0  0
  5  8  2  0  0  0  0
  7  4  1  0  0  0  0
  8  6  1  0  0  0  0
 10  9  1  1  0  0  0
 11 10  1  0  0  0  0
 12 16  1  6  0  0  0
 12 11  1  0  0  0  0
 12 10  1  0  0  0  0
 13 17  2  0  0  0  0
 15 17  1  0  0  0  0
 15 18  2  0  0  0  0
 16 14  2  0  0  0  0
 18 14  1  0  0  0  0
 19 13  1  0  0  0  0
 19 16  1  0  0  0  0
 20  1  1  0  0  0  0
 20 22  1  0  0  0  0
 22 21  1  0  0  0  0
 23 21  1  0  0  0  0
 23 26  1  0  0  0  0
 24 25  1  0  0  0  0
 24 22  2  0  0  0  0
 25 23  2  0  0  0  0
 26 28  1  0  0  0  0
 27 26  2  0  0  0  0
 28 30  1  0  0  0  0
 29 32  1  0  0  0  0
 29 35  1  0  0  0  0
 30 32  1  0  0  0  0
 32 31  2  0  0  0  0
 33 35  1  0  0  0  0
 35 36  1  6  0  0  0
 35 34  1  0  0  0  0
M  END
>  <MODEL>
7

>  <REMARK>
 VINA RESULT:      -8.9      4.744      9.499
  Name = 
  10 active torsions:
  status: ('A' for Active; 'I' for Inactive)
    1  A    between atoms: C_2  and  O_13
    2  A    between atoms: C_2  and  C_19
    3  A    between atoms: C_4  and  C_31
    4  A    between atoms: C_7  and  C_8
    5  A    between atoms: C_7  and  C_31
    6  A    between atoms: N_11  and  C_33
    7  A    between atoms: O_13  and  N_16
    8  A    between atoms: C_15  and  C_32
    9  A    between atoms: C_17  and  N_22
   10  A    between atoms: N_22  and  C_31
                            x       y       z     vdW  Elec       q    Type
                         _______ _______ _______ _____ _____    ______ ____

>  <TORSDO>
F 10

$$$$
=
 OpenBabel10232411273D

 36 39  0  0  1  0  0  0  0  0999 V2000
  188.0000  177.1020  143.9670 C   0  0  1  0  0  3  0  0  0  0  0  0
  190.7230  176.6210  144.8260 N   0  0  0  0  0  1  0  0  0  0  0  0
  188.4420  177.3530  145.3770 C   0  0  0  0  0  0  0  0  0  0  0  0
  187.9560  178.0580  147.6450 C   0  0  0  0  0  3  0  0  0  0  0  0
  189.7690  177.1090  145.7660 C   0  0  0  0  0  0  0  0  0  0  0  0
  189.2850  177.8060  147.9860 C   0  0  0  0  0  3  0  0  0  0  0  0
  187.5360  177.8310  146.3340 C   0  0  0  0  0  3  0  0  0  0  0  0
  190.1540  177.3400  147.0500 N   0  0  0  0  0  0  0  0  0  0  0  0
  186.4780  177.0860  143.8790 C   0  0  0  0  0  2  0  0  0  0  0  0
  185.9920  178.0900  142.8540 C   0  0  2  0  0  3  0  0  0  0  0  0
  185.1920  179.1710  143.5420 C   0  0  0  0  0  2  0  0  0  0  0  0
  184.4730  178.0540  142.8050 C   0  0  1  0  0  3  0  0  0  0  0  0
  185.0400  178.5660  139.2060 C   0  0  0  0  0  3  0  0  0  0  0  0
  182.6960  178.4750  141.1920 C   0  0  0  0  0  3  0  0  0  0  0  0
  182.6150  178.8740  138.7110 C   0  0  0  0  0  3  0  0  0  0  0  0
  184.0050  178.5080  141.4560 C   0  0  0  0  0  0  0  0  0  0  0  0
  183.9940  178.4600  138.3870 C   0  0  0  0  0  3  0  0  0  0  0  0
  182.0540  178.8840  139.9270 C   0  0  0  0  0  3  0  0  0  0  0  0
  184.9650  179.2140  140.5490 C   0  0  0  0  0  2  0  0  0  0  0  0
  188.5550  178.1140  143.0760 N   0  0  0  0  0  2  0  0  0  0  0  0
  190.2520  176.6550  141.4470 S   0  0  0  0  0  0  0  0  0  0  0  0
  189.0630  177.7960  141.7800 C   0  0  0  0  0  0  0  0  0  0  0  0
  190.2330  176.9130  139.7860 C   0  0  0  0  0  0  0  0  0  0  0  0
  188.6410  178.4030  140.6080 C   0  0  0  0  0  3  0  0  0  0  0  0
  189.3030  177.9020  139.4780 C   0  0  0  0  0  3  0  0  0  0  0  0
  191.0620  176.2010  138.8090 C   0  0  0  0  0  0  0  0  0  0  0  0
  190.7310  175.0450  138.4260 O   0  0  0  0  0  0  0  0  0  0  0  0
  192.2150  176.8020  138.3100 O   0  0  0  0  0  0  0  0  0  0  0  0
  194.5600  175.2110  138.5700 N   0  0  0  0  0  2  0  0  0  0  0  0
  192.8370  176.3170  137.1810 N   0  0  0  0  0  2  0  0  0  0  0  0
  194.5800  175.1160  136.2330 O   0  0  0  0  0  0  0  0  0  0  0  0
  194.0210  175.5310  137.2820 C   0  0  0  0  0  0  0  0  0  0  0  0
  195.3920  173.0710  138.9380 O   0  0  0  0  0  1  0  0  0  0  0  0
  196.5950  174.5150  137.6790 F   0  0  0  0  0  0  0  0  0  0  0  0
  195.7590  174.4060  138.7760 C   0  0  1  0  0  0  0  0  0  0  0  0
  196.4920  174.8700  140.0210 C   0  0  0  0  0  1  0  0  0  0  0  0
  1  9  1  1  0  0  0
  1  3  1  0  0  0  0
  2  5  1  0  0  0  0
  3  5  2  0  0  0  0
  3  7  1  0  0  0  0
  4  6  1  0  0  0  0
  5  8  1  0  0  0  0
  7  4  2  0  0  0  0
  8  6  2  0  0  0  0
 10 11  1  0  0  0  0
 10  9  1  1  0  0  0
 12 16  1  6  0  0  0
 12 10  1  0  0  0  0
 12 11  1  0  0  0  0
 13 19  1  0  0  0  0
 14 16  2  0  0  0  0
 15 18  2  0  0  0  0
 17 15  1  0  0  0  0
 17 13  2  0  0  0  0
 18 14  1  0  0  0  0
 19 16  1  0  0  0  0
 20  1  1  0  0  0  0
 21 22  1  0  0  0  0
 22 20  1  0  0  0  0
 23 21  1  0  0  0  0
 24 22  2  0  0  0  0
 25 23  2  0  0  0  0
 25 24  1  0  0  0  0
 26 23  1  0  0  0  0
 27 26  2  0  0  0  0
 28 26  1  0  0  0  0
 29 35  1  0  0  0  0
 30 32  1  0  0  0  0
 30 28  1  0  0  0  0
 31 32  2  0  0  0  0
 32 29  1  0  0  0  0
 34 35  1  0  0  0  0
 35 33  1  0  0  0  0
 35 36  1  1  0  0  0
M  END
>  <MODEL>
8

>  <REMARK>
 VINA RESULT:      -8.8      2.647      6.201
  Name = 
  10 active torsions:
  status: ('A' for Active; 'I' for Inactive)
    1  A    between atoms: C_2  and  O_13
    2  A    between atoms: C_2  and  C_19
    3  A    between atoms: C_4  and  C_31
    4  A    between atoms: C_7  and  C_8
    5  A    between atoms: C_7  and  C_31
    6  A    between atoms: N_11  and  C_33
    7  A    between atoms: O_13  and  N_16
    8  A    between atoms: C_15  and  C_32
    9  A    between atoms: C_17  and  N_22
   10  A    between atoms: N_22  and  C_31
                            x       y       z     vdW  Elec       q    Type
                         _______ _______ _______ _____ _____    ______ ____

>  <TORSDO>
F 10

$$$$
=
 OpenBabel10232411273D

 36 39  0  0  1  0  0  0  0  0999 V2000
  188.7200  177.4630  141.6350 C   0  0  1  0  0  3  0  0  0  0  0  0
  190.2130  175.2550  142.7640 N   0  0  0  0  0  1  0  0  0  0  0  0
  189.8340  177.6790  142.6150 C   0  0  0  0  0  0  0  0  0  0  0  0
  191.2220  179.1630  143.9360 C   0  0  0  0  0  3  0  0  0  0  0  0
  190.5400  176.5880  143.1480 C   0  0  0  0  0  0  0  0  0  0  0  0
  191.8990  178.0510  144.4370 C   0  0  0  0  0  3  0  0  0  0  0  0
  190.1860  178.9730  143.0210 C   0  0  0  0  0  3  0  0  0  0  0  0
  191.5470  176.8000  144.0380 N   0  0  0  0  0  0  0  0  0  0  0  0
  187.3800  177.8360  142.2590 C   0  0  0  0  0  2  0  0  0  0  0  0
  187.2720  177.2770  143.6640 C   0  0  2  0  0  3  0  0  0  0  0  0
  185.8520  177.4220  144.1600 C   0  0  0  0  0  2  0  0  0  0  0  0
  186.9160  178.4050  144.6200 C   0  0  1  0  0  3  0  0  0  0  0  0
  189.6460  177.6480  146.9680 C   0  0  0  0  0  3  0  0  0  0  0  0
  186.6850  178.4680  147.0450 C   0  0  0  0  0  3  0  0  0  0  0  0
  188.2280  178.0390  148.9830 C   0  0  0  0  0  3  0  0  0  0  0  0
  187.4070  178.0660  145.9940 C   0  0  0  0  0  0  0  0  0  0  0  0
  189.5020  178.0280  148.2370 C   0  0  0  0  0  3  0  0  0  0  0  0
  187.0080  178.2250  148.4650 C   0  0  0  0  0  3  0  0  0  0  0  0
  188.5300  177.0870  146.1510 C   0  0  0  0  0  2  0  0  0  0  0  0
  188.9560  178.2390  140.4240 N   0  0  0  0  0  2  0  0  0  0  0  0
  190.8590  176.5980  139.2630 S   0  0  0  0  0  0  0  0  0  0  0  0
  189.5700  177.6770  139.2630 C   0  0  0  0  0  0  0  0  0  0  0  0
  190.9300  176.4640  137.5890 C   0  0  0  0  0  0  0  0  0  0  0  0
  189.1830  177.9610  137.9630 C   0  0  0  0  0  3  0  0  0  0  0  0
  189.9530  177.2720  137.0140 C   0  0  0  0  0  3  0  0  0  0  0  0
  191.8720  175.6210  136.8460 C   0  0  0  0  0  0  0  0  0  0  0  0
  191.4720  174.9610  135.8480 O   0  0  0  0  0  0  0  0  0  0  0  0
  193.2040  175.5510  137.2480 O   0  0  0  0  0  0  0  0  0  0  0  0
  195.9800  174.9290  137.3390 N   0  0  0  0  0  2  0  0  0  0  0  0
  193.6470  174.5310  138.0610 N   0  0  0  0  0  2  0  0  0  0  0  0
  195.4040  173.2390  138.8510 O   0  0  0  0  0  0  0  0  0  0  0  0
  195.0290  174.1890  138.1140 C   0  0  0  0  0  0  0  0  0  0  0  0
  198.0220  175.4100  138.3400 O   0  0  0  0  0  1  0  0  0  0  0  0
  197.6430  173.3170  137.5690 F   0  0  0  0  0  0  0  0  0  0  0  0
  197.4140  174.6610  137.3340 C   0  0  1  0  0  0  0  0  0  0  0  0
  198.0140  175.0530  135.9960 C   0  0  0  0  0  1  0  0  0  0  0  0
  1  9  1  1  0  0  0
  1  3  1  0  0  0  0
  2  5  1  0  0  0  0
  3  7  2  0  0  0  0
  3  5  1  0  0  0  0
  4  6  2  0  0  0  0
  5  8  2  0  0  0  0
  7  4  1  0  0  0  0
  8  6  1  0  0  0  0
 10  9  1  6  0  0  0
 10 11  1  0  0  0  0
 10 12  1  0  0  0  0
 11 12  1  0  0  0  0
 12 16  1  1  0  0  0
 13 17  2  0  0  0  0
 14 18  1  0  0  0  0
 16 19  1  0  0  0  0
 16 14  2  0  0  0  0
 17 15  1  0  0  0  0
 18 15  2  0  0  0  0
 19 13  1  0  0  0  0
 20  1  1  0  0  0  0
 21 22  1  0  0  0  0
 22 20  1  0  0  0  0
 23 21  1  0  0  0  0
 24 22  2  0  0  0  0
 25 23  2  0  0  0  0
 25 24  1  0  0  0  0
 26 28  1  0  0  0  0
 26 23  1  0  0  0  0
 27 26  2  0  0  0  0
 28 30  1  0  0  0  0
 29 32  1  0  0  0  0
 30 32  1  0  0  0  0
 32 31  2  0  0  0  0
 35 36  1  6  0  0  0
 35 29  1  0  0  0  0
 35 34  1  0  0  0  0
 35 33  1  0  0  0  0
M  END
>  <MODEL>
9

>  <REMARK>
 VINA RESULT:      -8.8      3.317      5.487
  Name = 
  10 active torsions:
  status: ('A' for Active; 'I' for Inactive)
    1  A    between atoms: C_2  and  O_13
    2  A    between atoms: C_2  and  C_19
    3  A    between atoms: C_4  and  C_31
    4  A    between atoms: C_7  and  C_8
    5  A    between atoms: C_7  and  C_31
    6  A    between atoms: N_11  and  C_33
    7  A    between atoms: O_13  and  N_16
    8  A    between atoms: C_15  and  C_32
    9  A    between atoms: C_17  and  N_22
   10  A    between atoms: N_22  and  C_31
                            x       y       z     vdW  Elec       q    Type
                         _______ _______ _______ _____ _____    ______ ____

>  <TORSDO>
F 10

$$$$
