=
 OpenBabel10232410333D

 38 44  0  0  1  0  0  0  0  0999 V2000
  179.9830  180.4020  142.2340 O   0  0  0  0  0  0  0  0  0  0  0  0
  183.3890  177.8910  141.3910 C   0  0  0  0  0  2  0  0  0  0  0  0
  182.9090  178.8880  139.1400 C   0  0  0  0  0  0  0  0  0  0  0  0
  183.2890  178.7360  144.8200 O   0  0  0  0  0  0  0  0  0  0  0  0
  183.9640  178.7550  142.5100 C   0  0  1  0  0  3  0  0  0  0  0  0
  182.9350  179.2320  143.5490 C   0  0  1  0  0  3  0  0  0  0  0  0
  182.6370  178.7130  140.4490 N   0  0  0  0  0  0  0  0  0  0  0  0
  184.9300  177.9500  143.3140 C   0  0  2  0  0  3  0  0  0  0  0  0
  180.9600  179.6240  142.0670 C   0  0  0  0  0  0  0  0  0  0  0  0
  181.4820  178.8590  143.2410 C   0  0  0  0  0  2  0  0  0  0  0  0
  181.5600  179.4740  140.7270 C   0  0  0  0  0  0  0  0  0  0  0  0
  184.6450  178.3740  144.7460 C   0  0  1  0  0  3  0  0  0  0  0  0
  181.9870  179.7520  138.5720 C   0  0  0  0  0  3  0  0  0  0  0  0
  181.1260  180.1350  139.5910 C   0  0  0  0  0  3  0  0  0  0  0  0
  182.9460  174.7340  137.4620 C   0  0  1  0  0  3  0  0  0  0  0  0
  182.7420  176.2130  137.5120 C   0  0  0  0  0  0  0  0  0  0  0  0
  181.6760  173.2600  136.1830 N   0  0  0  0  0  0  0  0  0  0  0  0
  184.8150  174.7570  135.8140 N   0  0  0  0  0  0  0  0  0  0  0  0
  186.1280  177.7760  137.7730 C   0  0  0  0  0  0  0  0  0  0  0  0
  182.8650  173.4340  135.4710 N   0  0  0  0  0  2  0  0  0  0  0  0
  185.6650  175.7450  136.4280 C   0  0  0  0  0  2  0  0  0  0  0  0
  183.9270  177.0490  137.7330 C   0  0  0  0  0  0  0  0  0  0  0  0
  185.3980  178.6640  138.4300 C   0  0  0  0  0  2  0  0  0  0  0  0
  185.2730  176.7090  137.2750 C   0  0  0  0  0  0  0  0  0  0  0  0
  181.6700  173.9600  137.2740 C   0  0  0  0  0  3  0  0  0  0  0  0
  181.6050  176.7300  137.3290 O   0  0  0  0  0  0  0  0  0  0  0  0
  187.5950  177.9010  137.5520 C   0  0  0  0  0  1  0  0  0  0  0  0
  184.0020  178.2030  138.4100 C   0  0  0  0  0  0  0  0  0  0  0  0
  183.6440  174.3550  136.2090 C   0  0  0  0  0  0  0  0  0  0  0  0
  185.4390  179.4610  145.1340 O   0  0  0  0  0  0  0  0  0  0  0  0
  185.7710  179.2020  146.4640 C   0  0  0  0  0  1  0  0  0  0  0  0
  186.3670  178.1910  142.8580 C   0  0  0  0  0  2  0  0  0  0  0  0
  187.2980  177.1290  143.4160 C   0  0  0  0  0  2  0  0  0  0  0  0
  188.7370  177.4390  143.0330 C   0  0  0  0  0  2  0  0  0  0  0  0
  188.9780  177.5410  145.6560 C   0  0  0  0  0  1  0  0  0  0  0  0
  190.6360  178.7920  144.1370 C   0  0  0  0  0  2  0  0  0  0  0  0
  189.5640  177.7340  144.2710 C   0  0  0  0  0  0  0  0  0  0  0  0
  191.0090  177.3130  144.1560 C   0  0  0  0  0  2  0  0  0  0  0  0
  3  7  1  0  0  0  0
  5  2  1  6  0  0  0
  5  8  1  0  0  0  0
  5  6  1  0  0  0  0
  6 10  1  6  0  0  0
  6  4  1  0  0  0  0
  7 11  1  0  0  0  0
  7  2  1  0  0  0  0
  8 32  1  6  0  0  0
  8 12  1  0  0  0  0
  9  1  2  0  0  0  0
  9 10  1  0  0  0  0
 11  9  1  0  0  0  0
 12  4  1  0  0  0  0
 12 30  1  6  0  0  0
 13  3  2  0  0  0  0
 13 14  1  0  0  0  0
 14 11  2  0  0  0  0
 15 25  1  6  0  0  0
 15 16  1  0  0  0  0
 16 22  1  0  0  0  0
 17 25  2  0  0  0  0
 18 29  2  0  0  0  0
 18 21  1  0  0  0  0
 19 23  1  0  0  0  0
 20 17  1  0  0  0  0
 20 29  1  0  0  0  0
 21 24  1  0  0  0  0
 22 28  2  0  0  0  0
 24 22  1  0  0  0  0
 24 19  2  0  0  0  0
 26 16  2  0  0  0  0
 27 19  1  0  0  0  0
 28 23  1  0  0  0  0
 28  3  1  0  0  0  0
 29 15  1  0  0  0  0
 30 31  1  0  0  0  0
 32 33  1  0  0  0  0
 34 33  1  0  0  0  0
 34 37  1  0  0  0  0
 36 38  1  0  0  0  0
 36 37  1  0  0  0  0
 37 35  1  0  0  0  0
 38 37  1  0  0  0  0
M  END
>  <MODEL>
1

>  <REMARK>
 VINA RESULT:      -8.4      0.000      0.000
  Name = 
  6 active torsions:
  status: ('A' for Active; 'I' for Inactive)
    1  A    between atoms: C_5  and  C_35
    2  A    between atoms: O_7  and  C_30
    3  A    between atoms: C_16  and  C_19
    4  A    between atoms: C_16  and  C_23
    5  A    between atoms: C_23  and  C_34
    6  A    between atoms: C_25  and  C_34
                            x       y       z     vdW  Elec       q    Type
                         _______ _______ _______ _____ _____    ______ ____

>  <TORSDO>
F 6

$$$$
=
 OpenBabel10232410333D

 38 44  0  0  1  0  0  0  0  0999 V2000
  180.5230  179.2540  143.8850 O   0  0  0  0  0  0  0  0  0  0  0  0
  183.6680  178.7290  140.9790 C   0  0  0  0  0  2  0  0  0  0  0  0
  184.9190  178.5150  143.1420 C   0  0  0  0  0  0  0  0  0  0  0  0
  180.5270  177.9480  139.5620 O   0  0  0  0  0  0  0  0  0  0  0  0
  182.7060  177.6300  140.5340 C   0  0  1  0  0  3  0  0  0  0  0  0
  181.2210  177.9330  140.7890 C   0  0  1  0  0  3  0  0  0  0  0  0
  183.7940  178.7350  142.4320 N   0  0  0  0  0  0  0  0  0  0  0  0
  182.7840  177.4730  139.0510 C   0  0  2  0  0  3  0  0  0  0  0  0
  181.3850  179.1390  142.9740 C   0  0  0  0  0  0  0  0  0  0  0  0
  180.9450  179.2350  141.5480 C   0  0  0  0  0  2  0  0  0  0  0  0
  182.8020  178.9230  143.3250 C   0  0  0  0  0  0  0  0  0  0  0  0
  181.3350  177.2660  138.6360 C   0  0  1  0  0  3  0  0  0  0  0  0
  184.6480  178.5830  144.4990 C   0  0  0  0  0  3  0  0  0  0  0  0
  183.2890  178.8370  144.6170 C   0  0  0  0  0  3  0  0  0  0  0  0
  188.8360  177.9840  145.2500 C   0  0  1  0  0  3  0  0  0  0  0  0
  187.5400  177.6120  144.6080 C   0  0  0  0  0  0  0  0  0  0  0  0
  189.8360  176.8180  147.0000 N   0  0  0  0  0  0  0  0  0  0  0  0
  190.3150  176.9380  143.5390 N   0  0  0  0  0  0  0  0  0  0  0  0
  187.8670  178.3680  140.9620 C   0  0  0  0  0  0  0  0  0  0  0  0
  190.5310  176.4280  145.8550 N   0  0  0  0  0  2  0  0  0  0  0  0
  189.7300  177.4930  142.3450 C   0  0  0  0  0  3  0  0  0  0  0  0
  187.3790  177.9260  143.1840 C   0  0  0  0  0  0  0  0  0  0  0  0
  186.5700  178.5680  141.1370 C   0  0  0  0  0  3  0  0  0  0  0  0
  188.4720  177.9400  142.2150 C   0  0  0  0  0  0  0  0  0  0  0  0
  188.8920  177.6620  146.7180 C   0  0  0  0  0  3  0  0  0  0  0  0
  186.6330  177.0120  145.2500 O   0  0  0  0  0  0  0  0  0  0  0  0
  188.5670  178.5200  139.6560 C   0  0  0  0  0  1  0  0  0  0  0  0
  186.2580  178.2930  142.5470 C   0  0  0  0  0  0  0  0  0  0  0  0
  189.9220  177.0950  144.7670 C   0  0  0  0  0  0  0  0  0  0  0  0
  180.9860  175.9090  138.6250 O   0  0  0  0  0  0  0  0  0  0  0  0
  180.1870  175.7560  137.4920 C   0  0  0  0  0  1  0  0  0  0  0  0
  183.7210  176.3310  138.6630 C   0  0  0  0  0  2  0  0  0  0  0  0
  184.3860  176.6070  137.3260 C   0  0  0  0  0  2  0  0  0  0  0  0
  185.4500  177.6830  137.4820 C   0  0  0  0  0  2  0  0  0  0  0  0
  187.4310  176.0120  137.0020 C   0  0  0  0  0  1  0  0  0  0  0  0
  187.5440  178.4490  136.1840 C   0  0  0  0  0  2  0  0  0  0  0  0
  186.7020  177.3090  136.7100 C   0  0  0  0  0  0  0  0  0  0  0  0
  186.6420  177.6570  135.2420 C   0  0  0  0  0  2  0  0  0  0  0  0
  2  7  1  0  0  0  0
  3 13  2  0  0  0  0
  4  6  1  0  0  0  0
  5  6  1  0  0  0  0
  5  2  1  6  0  0  0
  6 10  1  6  0  0  0
  7  3  1  0  0  0  0
  7 11  1  0  0  0  0
  8 32  1  1  0  0  0
  8  5  1  0  0  0  0
  9 11  1  0  0  0  0
  9  1  2  0  0  0  0
 10  9  1  0  0  0  0
 11 14  2  0  0  0  0
 12 30  1  1  0  0  0
 12  8  1  0  0  0  0
 12  4  1  0  0  0  0
 13 14  1  0  0  0  0
 15 25  1  1  0  0  0
 16 15  1  0  0  0  0
 16 26  2  0  0  0  0
 18 29  2  0  0  0  0
 19 23  2  0  0  0  0
 19 24  1  0  0  0  0
 20 17  1  0  0  0  0
 21 18  1  0  0  0  0
 22 16  1  0  0  0  0
 23 28  1  0  0  0  0
 24 21  2  0  0  0  0
 24 22  1  0  0  0  0
 25 17  2  0  0  0  0
 27 19  1  0  0  0  0
 28  3  1  0  0  0  0
 28 22  2  0  0  0  0
 29 15  1  0  0  0  0
 29 20  1  0  0  0  0
 31 30  1  0  0  0  0
 33 34  1  0  0  0  0
 33 32  1  0  0  0  0
 36 37  1  0  0  0  0
 37 35  1  0  0  0  0
 37 34  1  0  0  0  0
 38 36  1  0  0  0  0
 38 37  1  0  0  0  0
M  END
>  <MODEL>
2

>  <REMARK>
 VINA RESULT:      -8.2      3.041      7.383
  Name = 
  6 active torsions:
  status: ('A' for Active; 'I' for Inactive)
    1  A    between atoms: C_5  and  C_35
    2  A    between atoms: O_7  and  C_30
    3  A    between atoms: C_16  and  C_19
    4  A    between atoms: C_16  and  C_23
    5  A    between atoms: C_23  and  C_34
    6  A    between atoms: C_25  and  C_34
                            x       y       z     vdW  Elec       q    Type
                         _______ _______ _______ _____ _____    ______ ____

>  <TORSDO>
F 6

$$$$
=
 OpenBabel10232410333D

 38 44  0  0  1  0  0  0  0  0999 V2000
  192.9370  176.5300  137.5530 O   0  0  0  0  0  0  0  0  0  0  0  0
  189.0330  176.5450  139.3890 C   0  0  0  0  0  2  0  0  0  0  0  0
  190.4790  177.4260  141.2380 C   0  0  0  0  0  0  0  0  0  0  0  0
  188.7480  176.6530  135.8690 O   0  0  0  0  0  0  0  0  0  0  0  0
  188.7520  177.4010  138.1570 C   0  0  1  0  0  3  0  0  0  0  0  0
  189.5980  177.0480  136.9220 C   0  0  1  0  0  3  0  0  0  0  0  0
  190.3010  176.9310  139.9970 N   0  0  0  0  0  0  0  0  0  0  0  0
  187.3490  177.1700  137.7000 C   0  0  2  0  0  3  0  0  0  0  0  0
  191.7690  176.4770  138.0220 C   0  0  0  0  0  0  0  0  0  0  0  0
  190.6630  175.9730  137.1510 C   0  0  0  0  0  2  0  0  0  0  0  0
  191.5150  176.8980  139.4140 C   0  0  0  0  0  0  0  0  0  0  0  0
  187.4660  177.1350  136.1850 C   0  0  1  0  0  3  0  0  0  0  0  0
  191.8210  177.6920  141.4580 C   0  0  0  0  0  3  0  0  0  0  0  0
  192.4860  177.3620  140.2850 C   0  0  0  0  0  3  0  0  0  0  0  0
  190.5640  176.4560  145.6120 C   0  0  1  0  0  3  0  0  0  0  0  0
  190.7140  177.2600  144.3610 C   0  0  0  0  0  0  0  0  0  0  0  0
  191.8620  176.7230  147.5260 N   0  0  0  0  0  0  0  0  0  0  0  0
  188.6640  177.7560  146.5640 N   0  0  0  0  0  0  0  0  0  0  0  0
  187.2780  177.8020  142.9920 C   0  0  0  0  0  0  0  0  0  0  0  0
  190.6550  177.3620  147.8090 N   0  0  0  0  0  2  0  0  0  0  0  0
  187.7900  177.7770  145.4180 C   0  0  0  0  0  3  0  0  0  0  0  0
  189.5030  177.5060  143.5700 C   0  0  0  0  0  0  0  0  0  0  0  0
  187.9870  177.7910  141.8740 C   0  0  0  0  0  3  0  0  0  0  0  0
  188.1620  177.6400  144.1360 C   0  0  0  0  0  0  0  0  0  0  0  0
  191.8640  176.2200  146.3310 C   0  0  0  0  0  3  0  0  0  0  0  0
  191.8270  177.7450  144.0170 O   0  0  0  0  0  0  0  0  0  0  0  0
  185.8030  178.0000  143.0430 C   0  0  0  0  0  1  0  0  0  0  0  0
  189.3980  177.5980  142.2370 C   0  0  0  0  0  0  0  0  0  0  0  0
  189.8560  177.2470  146.6480 C   0  0  0  0  0  0  0  0  0  0  0  0
  187.2960  178.4070  135.6200 O   0  0  0  0  0  0  0  0  0  0  0  0
  186.7840  178.1640  134.3460 C   0  0  0  0  0  1  0  0  0  0  0  0
  186.4080  178.2470  138.2360 C   0  0  0  0  0  2  0  0  0  0  0  0
  184.9650  177.7740  138.1970 C   0  0  0  0  0  2  0  0  0  0  0  0
  184.0910  178.6850  139.0440 C   0  0  0  0  0  2  0  0  0  0  0  0
  182.1730  178.4380  140.8350 C   0  0  0  0  0  1  0  0  0  0  0  0
  182.9550  176.4080  139.4620 C   0  0  0  0  0  2  0  0  0  0  0  0
  182.9250  177.9090  139.6300 C   0  0  0  0  0  0  0  0  0  0  0  0
  182.0390  177.2630  138.5930 C   0  0  0  0  0  2  0  0  0  0  0  0
  1  9  2  0  0  0  0
  2  7  1  0  0  0  0
  3 13  2  0  0  0  0
  3 28  1  0  0  0  0
  4 12  1  0  0  0  0
  4  6  1  0  0  0  0
  5  2  1  1  0  0  0
  6 10  1  1  0  0  0
  6  5  1  0  0  0  0
  7  3  1  0  0  0  0
  8  5  1  0  0  0  0
  8 32  1  6  0  0  0
  9 11  1  0  0  0  0
 10  9  1  0  0  0  0
 11  7  1  0  0  0  0
 11 14  2  0  0  0  0
 12 30  1  1  0  0  0
 12  8  1  0  0  0  0
 14 13  1  0  0  0  0
 15 25  1  1  0  0  0
 15 29  1  0  0  0  0
 16 15  1  0  0  0  0
 17 20  1  0  0  0  0
 18 29  2  0  0  0  0
 19 27  1  0  0  0  0
 19 24  1  0  0  0  0
 21 18  1  0  0  0  0
 22 24  1  0  0  0  0
 22 16  1  0  0  0  0
 23 28  1  0  0  0  0
 23 19  2  0  0  0  0
 24 21  2  0  0  0  0
 25 17  2  0  0  0  0
 26 16  2  0  0  0  0
 28 22  2  0  0  0  0
 29 20  1  0  0  0  0
 31 30  1  0  0  0  0
 33 32  1  0  0  0  0
 33 34  1  0  0  0  0
 34 37  1  0  0  0  0
 36 37  1  0  0  0  0
 37 35  1  0  0  0  0
 38 36  1  0  0  0  0
 38 37  1  0  0  0  0
M  END
>  <MODEL>
3

>  <REMARK>
 VINA RESULT:      -8.1      4.556      9.899
  Name = 
  6 active torsions:
  status: ('A' for Active; 'I' for Inactive)
    1  A    between atoms: C_5  and  C_35
    2  A    between atoms: O_7  and  C_30
    3  A    between atoms: C_16  and  C_19
    4  A    between atoms: C_16  and  C_23
    5  A    between atoms: C_23  and  C_34
    6  A    between atoms: C_25  and  C_34
                            x       y       z     vdW  Elec       q    Type
                         _______ _______ _______ _____ _____    ______ ____

>  <TORSDO>
F 6

$$$$
=
 OpenBabel10232410333D

 38 44  0  0  1  0  0  0  0  0999 V2000
  184.4930  178.7660  146.7050 O   0  0  0  0  0  0  0  0  0  0  0  0
  186.2270  177.3710  143.0090 C   0  0  0  0  0  2  0  0  0  0  0  0
  184.2450  178.6740  142.1940 C   0  0  0  0  0  0  0  0  0  0  0  0
  188.6560  177.4310  145.5730 O   0  0  0  0  0  0  0  0  0  0  0  0
  187.4280  178.0930  143.6120 C   0  0  1  0  0  3  0  0  0  0  0  0
  187.4810  178.0830  145.1490 C   0  0  1  0  0  3  0  0  0  0  0  0
  185.0180  178.1690  143.1760 N   0  0  0  0  0  0  0  0  0  0  0  0
  188.6830  177.3900  143.2120 C   0  0  2  0  0  3  0  0  0  0  0  0
  185.0460  178.2960  145.6750 C   0  0  0  0  0  0  0  0  0  0  0  0
  186.2680  177.4490  145.8350 C   0  0  0  0  0  2  0  0  0  0  0  0
  184.4790  178.5770  144.3420 C   0  0  0  0  0  0  0  0  0  0  0  0
  189.5320  177.4250  144.4730 C   0  0  1  0  0  3  0  0  0  0  0  0
  183.1920  179.3930  142.7350 C   0  0  0  0  0  3  0  0  0  0  0  0
  183.3450  179.3380  144.1130 C   0  0  0  0  0  3  0  0  0  0  0  0
  182.1130  175.7980  139.4990 C   0  0  1  0  0  3  0  0  0  0  0  0
  182.4110  177.0750  140.2150 C   0  0  0  0  0  0  0  0  0  0  0  0
  179.9820  175.0690  138.9110 N   0  0  0  0  0  0  0  0  0  0  0  0
  182.6010  176.6340  137.2030 N   0  0  0  0  0  0  0  0  0  0  0  0
  185.6020  178.4070  138.7940 C   0  0  0  0  0  0  0  0  0  0  0  0
  180.5320  175.5830  137.7360 N   0  0  0  0  0  2  0  0  0  0  0  0
  183.8890  177.2360  137.4360 C   0  0  0  0  0  2  0  0  0  0  0  0
  183.6860  177.7350  139.9120 C   0  0  0  0  0  0  0  0  0  0  0  0
  185.6770  178.8660  140.0340 C   0  0  0  0  0  2  0  0  0  0  0  0
  184.3540  177.6800  138.6140 C   0  0  0  0  0  0  0  0  0  0  0  0
  180.8070  175.1740  139.9060 C   0  0  0  0  0  3  0  0  0  0  0  0
  181.5840  177.5910  141.0160 O   0  0  0  0  0  0  0  0  0  0  0  0
  186.6330  178.6540  137.7490 C   0  0  0  0  0  1  0  0  0  0  0  0
  184.4650  178.4370  140.7470 C   0  0  0  0  0  0  0  0  0  0  0  0
  181.8180  176.0670  138.0710 C   0  0  0  0  0  0  0  0  0  0  0  0
  190.3460  178.5640  144.5220 O   0  0  0  0  0  0  0  0  0  0  0  0
  191.6200  178.0780  144.8160 C   0  0  0  0  0  1  0  0  0  0  0  0
  189.3290  178.0570  141.9990 C   0  0  0  0  0  2  0  0  0  0  0  0
  189.4260  177.0850  140.8350 C   0  0  0  0  0  2  0  0  0  0  0  0
  189.7310  177.8360  139.5490 C   0  0  0  0  0  2  0  0  0  0  0  0
  191.6010  176.1690  138.7300 C   0  0  0  0  0  1  0  0  0  0  0  0
  189.9230  177.1780  137.0620 C   0  0  0  0  0  2  0  0  0  0  0  0
  190.2880  176.8910  138.5000 C   0  0  0  0  0  0  0  0  0  0  0  0
  189.2380  176.0450  137.8200 C   0  0  0  0  0  2  0  0  0  0  0  0
  2  7  1  0  0  0  0
  3 13  2  0  0  0  0
  3  7  1  0  0  0  0
  5  2  1  1  0  0  0
  5  6  1  0  0  0  0
  6  4  1  0  0  0  0
  6 10  1  1  0  0  0
  7 11  1  0  0  0  0
  8 32  1  6  0  0  0
  8  5  1  0  0  0  0
  8 12  1  0  0  0  0
  9 10  1  0  0  0  0
  9  1  2  0  0  0  0
 11  9  1  0  0  0  0
 12 30  1  6  0  0  0
 12  4  1  0  0  0  0
 13 14  1  0  0  0  0
 14 11  2  0  0  0  0
 15 25  1  1  0  0  0
 15 16  1  0  0  0  0
 16 26  2  0  0  0  0
 17 25  2  0  0  0  0
 18 21  1  0  0  0  0
 18 29  2  0  0  0  0
 19 23  1  0  0  0  0
 20 29  1  0  0  0  0
 20 17  1  0  0  0  0
 21 24  1  0  0  0  0
 22 16  1  0  0  0  0
 22 28  2  0  0  0  0
 23 28  1  0  0  0  0
 24 19  2  0  0  0  0
 24 22  1  0  0  0  0
 27 19  1  0  0  0  0
 28  3  1  0  0  0  0
 29 15  1  0  0  0  0
 30 31  1  0  0  0  0
 33 32  1  0  0  0  0
 34 33  1  0  0  0  0
 36 38  1  0  0  0  0
 36 37  1  0  0  0  0
 37 35  1  0  0  0  0
 37 34  1  0  0  0  0
 38 37  1  0  0  0  0
M  END
>  <MODEL>
4

>  <REMARK>
 VINA RESULT:      -8.1      2.288      4.346
  Name = 
  6 active torsions:
  status: ('A' for Active; 'I' for Inactive)
    1  A    between atoms: C_5  and  C_35
    2  A    between atoms: O_7  and  C_30
    3  A    between atoms: C_16  and  C_19
    4  A    between atoms: C_16  and  C_23
    5  A    between atoms: C_23  and  C_34
    6  A    between atoms: C_25  and  C_34
                            x       y       z     vdW  Elec       q    Type
                         _______ _______ _______ _____ _____    ______ ____

>  <TORSDO>
F 6

$$$$
=
 OpenBabel10232410333D

 38 44  0  0  1  0  0  0  0  0999 V2000
  192.7730  176.8220  139.1680 O   0  0  0  0  0  0  0  0  0  0  0  0
  188.5320  176.8100  139.9620 C   0  0  0  0  0  2  0  0  0  0  0  0
  189.4540  177.7880  142.0790 C   0  0  0  0  0  0  0  0  0  0  0  0
  189.1420  176.7890  136.4820 O   0  0  0  0  0  0  0  0  0  0  0  0
  188.5590  177.6160  138.6660 C   0  0  1  0  0  3  0  0  0  0  0  0
  189.6930  177.2410  137.6980 C   0  0  1  0  0  3  0  0  0  0  0  0
  189.6010  177.2460  140.8540 N   0  0  0  0  0  0  0  0  0  0  0  0
  187.3200  177.3370  137.8810 C   0  0  2  0  0  3  0  0  0  0  0  0
  191.5250  176.7580  139.3300 C   0  0  0  0  0  0  0  0  0  0  0  0
  190.6810  176.1990  138.2300 C   0  0  0  0  0  2  0  0  0  0  0  0
  190.9240  177.2220  140.5960 C   0  0  0  0  0  0  0  0  0  0  0  0
  187.8150  177.2530  136.4460 C   0  0  1  0  0  3  0  0  0  0  0  0
  190.6940  178.0930  142.6180 C   0  0  0  0  0  3  0  0  0  0  0  0
  191.6360  177.7370  141.6640 C   0  0  0  0  0  3  0  0  0  0  0  0
  188.5010  177.1790  146.4150 C   0  0  1  0  0  3  0  0  0  0  0  0
  188.9200  177.8880  145.1680 C   0  0  0  0  0  0  0  0  0  0  0  0
  189.2750  177.6810  148.5520 N   0  0  0  0  0  0  0  0  0  0  0  0
  186.3710  178.4260  146.7540 N   0  0  0  0  0  0  0  0  0  0  0  0
  185.9060  178.0970  142.9650 C   0  0  0  0  0  0  0  0  0  0  0  0
  188.0090  178.2620  148.4750 N   0  0  0  0  0  2  0  0  0  0  0  0
  185.8060  178.2990  145.4350 C   0  0  0  0  0  3  0  0  0  0  0  0
  187.9310  177.9920  144.0880 C   0  0  0  0  0  0  0  0  0  0  0  0
  186.8690  178.0420  142.0580 C   0  0  0  0  0  3  0  0  0  0  0  0
  186.4880  178.0840  144.2990 C   0  0  0  0  0  0  0  0  0  0  0  0
  189.5930  177.0850  147.4450 C   0  0  0  0  0  3  0  0  0  0  0  0
  190.0610  178.4150  145.0590 O   0  0  0  0  0  0  0  0  0  0  0  0
  184.4570  178.2030  142.6400 C   0  0  0  0  0  1  0  0  0  0  0  0
  188.1540  177.9700  142.7670 C   0  0  0  0  0  0  0  0  0  0  0  0
  187.5260  178.0030  147.1710 C   0  0  0  0  0  0  0  0  0  0  0  0
  187.7760  178.5000  135.8080 O   0  0  0  0  0  0  0  0  0  0  0  0
  187.1240  178.2590  134.5980 C   0  0  0  0  0  1  0  0  0  0  0  0
  186.2600  178.4100  138.1210 C   0  0  0  0  0  2  0  0  0  0  0  0
  184.8820  177.7870  138.2680 C   0  0  0  0  0  2  0  0  0  0  0  0
  183.9680  178.7140  139.0550 C   0  0  0  0  0  2  0  0  0  0  0  0
  181.5920  178.7230  140.1960 C   0  0  0  0  0  1  0  0  0  0  0  0
  182.7500  176.5060  139.5960 C   0  0  0  0  0  2  0  0  0  0  0  0
  182.6760  178.0050  139.4170 C   0  0  0  0  0  0  0  0  0  0  0  0
  182.1480  177.1030  138.3280 C   0  0  0  0  0  2  0  0  0  0  0  0
  1  9  2  0  0  0  0
  2  7  1  0  0  0  0
  3 13  2  0  0  0  0
  3 28  1  0  0  0  0
  4  6  1  0  0  0  0
  5  2  1  1  0  0  0
  6 10  1  1  0  0  0
  6  5  1  0  0  0  0
  7  3  1  0  0  0  0
  8 32  1  6  0  0  0
  8  5  1  0  0  0  0
  9 11  1  0  0  0  0
 10  9  1  0  0  0  0
 11  7  1  0  0  0  0
 11 14  2  0  0  0  0
 12 30  1  1  0  0  0
 12  4  1  0  0  0  0
 12  8  1  0  0  0  0
 14 13  1  0  0  0  0
 15 29  1  0  0  0  0
 15 25  1  1  0  0  0
 16 15  1  0  0  0  0
 18 29  2  0  0  0  0
 19 24  1  0  0  0  0
 20 17  1  0  0  0  0
 21 18  1  0  0  0  0
 22 24  1  0  0  0  0
 22 16  1  0  0  0  0
 23 28  1  0  0  0  0
 23 19  2  0  0  0  0
 24 21  2  0  0  0  0
 25 17  2  0  0  0  0
 26 16  2  0  0  0  0
 27 19  1  0  0  0  0
 28 22  2  0  0  0  0
 29 20  1  0  0  0  0
 31 30  1  0  0  0  0
 32 33  1  0  0  0  0
 33 34  1  0  0  0  0
 34 37  1  0  0  0  0
 37 36  1  0  0  0  0
 37 35  1  0  0  0  0
 38 37  1  0  0  0  0
 38 36  1  0  0  0  0
M  END
>  <MODEL>
5

>  <REMARK>
 VINA RESULT:      -8.0      4.096      9.567
  Name = 
  6 active torsions:
  status: ('A' for Active; 'I' for Inactive)
    1  A    between atoms: C_5  and  C_35
    2  A    between atoms: O_7  and  C_30
    3  A    between atoms: C_16  and  C_19
    4  A    between atoms: C_16  and  C_23
    5  A    between atoms: C_23  and  C_34
    6  A    between atoms: C_25  and  C_34
                            x       y       z     vdW  Elec       q    Type
                         _______ _______ _______ _____ _____    ______ ____

>  <TORSDO>
F 6

$$$$
=
 OpenBabel10232410333D

 38 44  0  0  1  0  0  0  0  0999 V2000
  183.1640  179.1910  140.1530 O   0  0  0  0  0  0  0  0  0  0  0  0
  187.3440  178.4130  139.4230 C   0  0  0  0  0  2  0  0  0  0  0  0
  187.1820  178.0910  141.9050 C   0  0  0  0  0  0  0  0  0  0  0  0
  185.4550  177.9000  136.4820 O   0  0  0  0  0  0  0  0  0  0  0  0
  186.7130  177.4000  138.4720 C   0  0  1  0  0  3  0  0  0  0  0  0
  185.3570  177.8250  137.8860 C   0  0  1  0  0  3  0  0  0  0  0  0
  186.6510  178.4060  140.7060 N   0  0  0  0  0  0  0  0  0  0  0  0
  187.5820  177.2400  137.2690 C   0  0  2  0  0  3  0  0  0  0  0  0
  184.3750  179.0070  139.8590 C   0  0  0  0  0  0  0  0  0  0  0  0
  184.7990  179.1420  138.4310 C   0  0  0  0  0  2  0  0  0  0  0  0
  185.3470  178.6740  140.9170 C   0  0  0  0  0  0  0  0  0  0  0  0
  186.5900  177.1550  136.1190 C   0  0  1  0  0  3  0  0  0  0  0  0
  186.2150  178.1790  142.8940 C   0  0  0  0  0  3  0  0  0  0  0  0
  185.0360  178.5440  142.2600 C   0  0  0  0  0  3  0  0  0  0  0  0
  189.4160  177.9570  145.7860 C   0  0  1  0  0  3  0  0  0  0  0  0
  188.5950  177.4740  144.6350 C   0  0  0  0  0  0  0  0  0  0  0  0
  189.2710  177.1370  147.9600 N   0  0  0  0  0  0  0  0  0  0  0  0
  191.4480  176.6080  145.2760 N   0  0  0  0  0  0  0  0  0  0  0  0
  190.7980  177.5360  141.6160 C   0  0  0  0  0  0  0  0  0  0  0  0
  190.4090  176.5390  147.4170 N   0  0  0  0  0  2  0  0  0  0  0  0
  191.6070  176.9310  143.8810 C   0  0  0  0  0  3  0  0  0  0  0  0
  189.2100  177.5170  143.3040 C   0  0  0  0  0  0  0  0  0  0  0  0
  189.6180  177.7670  141.0620 C   0  0  0  0  0  3  0  0  0  0  0  0
  190.6390  177.3490  143.0500 C   0  0  0  0  0  0  0  0  0  0  0  0
  188.6890  177.9150  147.1010 C   0  0  0  0  0  3  0  0  0  0  0  0
  187.4350  177.0060  144.8030 O   0  0  0  0  0  0  0  0  0  0  0  0
  192.0740  177.4410  140.8540 C   0  0  0  0  0  1  0  0  0  0  0  0
  188.6090  177.7600  142.1310 C   0  0  0  0  0  0  0  0  0  0  0  0
  190.5040  176.9920  146.0810 C   0  0  0  0  0  0  0  0  0  0  0  0
  186.2130  175.8310  135.8540 O   0  0  0  0  0  0  0  0  0  0  0  0
  186.0840  175.7700  134.4670 C   0  0  0  0  0  1  0  0  0  0  0  0
  188.4980  176.0250  137.4040 C   0  0  0  0  0  2  0  0  0  0  0  0
  189.9560  176.4300  137.2770 C   0  0  0  0  0  2  0  0  0  0  0  0
  190.8250  175.5400  138.1530 C   0  0  0  0  0  2  0  0  0  0  0  0
  191.9940  173.7620  136.5960 C   0  0  0  0  0  1  0  0  0  0  0  0
  193.3930  175.4730  137.9140 C   0  0  0  0  0  2  0  0  0  0  0  0
  192.0410  175.0590  137.3810 C   0  0  0  0  0  0  0  0  0  0  0  0
  192.8020  176.1630  136.6890 C   0  0  0  0  0  2  0  0  0  0  0  0
  2  7  1  0  0  0  0
  3 28  1  0  0  0  0
  3 13  2  0  0  0  0
  4  6  1  0  0  0  0
  5  2  1  1  0  0  0
  6 10  1  1  0  0  0
  6  5  1  0  0  0  0
  7 11  1  0  0  0  0
  7  3  1  0  0  0  0
  8 32  1  1  0  0  0
  8  5  1  0  0  0  0
  9  1  2  0  0  0  0
  9 11  1  0  0  0  0
 10  9  1  0  0  0  0
 11 14  2  0  0  0  0
 12 30  1  1  0  0  0
 12  4  1  0  0  0  0
 12  8  1  0  0  0  0
 14 13  1  0  0  0  0
 15 29  1  0  0  0  0
 15 25  1  1  0  0  0
 16 26  2  0  0  0  0
 16 15  1  0  0  0  0
 18 29  2  0  0  0  0
 19 24  1  0  0  0  0
 20 17  1  0  0  0  0
 21 18  1  0  0  0  0
 22 16  1  0  0  0  0
 23 19  2  0  0  0  0
 23 28  1  0  0  0  0
 24 22  1  0  0  0  0
 24 21  2  0  0  0  0
 25 17  2  0  0  0  0
 27 19  1  0  0  0  0
 28 22  2  0  0  0  0
 29 20  1  0  0  0  0
 31 30  1  0  0  0  0
 33 32  1  0  0  0  0
 33 34  1  0  0  0  0
 35 37  1  0  0  0  0
 37 36  1  0  0  0  0
 37 34  1  0  0  0  0
 38 37  1  0  0  0  0
 38 36  1  0  0  0  0
M  END
>  <MODEL>
6

>  <REMARK>
 VINA RESULT:      -7.2      4.059      8.335
  Name = 
  6 active torsions:
  status: ('A' for Active; 'I' for Inactive)
    1  A    between atoms: C_5  and  C_35
    2  A    between atoms: O_7  and  C_30
    3  A    between atoms: C_16  and  C_19
    4  A    between atoms: C_16  and  C_23
    5  A    between atoms: C_23  and  C_34
    6  A    between atoms: C_25  and  C_34
                            x       y       z     vdW  Elec       q    Type
                         _______ _______ _______ _____ _____    ______ ____

>  <TORSDO>
F 6

$$$$
=
 OpenBabel10232410333D

 38 44  0  0  1  0  0  0  0  0999 V2000
  190.1460  177.5040  138.2090 O   0  0  0  0  0  0  0  0  0  0  0  0
  187.3170  177.3450  141.4640 C   0  0  0  0  0  2  0  0  0  0  0  0
  189.4740  177.7720  142.6700 C   0  0  0  0  0  0  0  0  0  0  0  0
  185.6830  178.1600  138.4390 O   0  0  0  0  0  0  0  0  0  0  0  0
  186.6820  178.4400  140.6110 C   0  0  1  0  0  3  0  0  0  0  0  0
  186.9210  178.2980  139.0990 C   0  0  1  0  0  3  0  0  0  0  0  0
  188.7600  177.5410  141.5500 N   0  0  0  0  0  0  0  0  0  0  0  0
  185.1960  178.3720  140.7410 C   0  0  2  0  0  3  0  0  0  0  0  0
  189.2610  177.4150  139.1020 C   0  0  0  0  0  0  0  0  0  0  0  0
  187.8470  177.1480  138.6940 C   0  0  0  0  0  2  0  0  0  0  0  0
  189.6310  177.5660  140.5220 C   0  0  0  0  0  0  0  0  0  0  0  0
  184.7010  178.6320  139.3270 C   0  0  1  0  0  3  0  0  0  0  0  0
  190.8150  177.9250  142.3590 C   0  0  0  0  0  3  0  0  0  0  0  0
  190.9160  177.8010  140.9810 C   0  0  0  0  0  3  0  0  0  0  0  0
  191.1670  175.9750  146.4090 C   0  0  1  0  0  3  0  0  0  0  0  0
  190.9030  176.9970  145.3520 C   0  0  0  0  0  0  0  0  0  0  0  0
  193.1380  175.8100  147.6370 N   0  0  0  0  0  0  0  0  0  0  0  0
  189.9670  177.1490  148.2500 N   0  0  0  0  0  0  0  0  0  0  0  0
  187.2970  177.9440  145.6200 C   0  0  0  0  0  0  0  0  0  0  0  0
  192.2270  176.4360  148.4880 N   0  0  0  0  0  2  0  0  0  0  0  0
  188.7210  177.4290  147.5840 C   0  0  0  0  0  3  0  0  0  0  0  0
  189.5170  177.4440  145.1780 C   0  0  0  0  0  0  0  0  0  0  0  0
  187.4990  178.1170  144.3230 C   0  0  0  0  0  3  0  0  0  0  0  0
  188.5360  177.5260  146.2580 C   0  0  0  0  0  0  0  0  0  0  0  0
  192.6070  175.5480  146.4830 C   0  0  0  0  0  3  0  0  0  0  0  0
  191.8380  177.4900  144.6620 O   0  0  0  0  0  0  0  0  0  0  0  0
  185.9970  178.1930  146.3040 C   0  0  0  0  0  1  0  0  0  0  0  0
  188.9050  177.7960  144.0390 C   0  0  0  0  0  0  0  0  0  0  0  0
  191.0260  176.5810  147.7560 C   0  0  0  0  0  0  0  0  0  0  0  0
  184.4820  179.9970  139.0940 O   0  0  0  0  0  0  0  0  0  0  0  0
  183.1260  180.0910  138.7790 C   0  0  0  0  0  1  0  0  0  0  0  0
  184.6860  179.3660  141.7810 C   0  0  0  0  0  2  0  0  0  0  0  0
  184.0030  178.6450  142.9310 C   0  0  0  0  0  2  0  0  0  0  0  0
  182.8600  179.4870  143.4740 C   0  0  0  0  0  2  0  0  0  0  0  0
  181.5050  178.3040  141.5470 C   0  0  0  0  0  1  0  0  0  0  0  0
  180.3250  179.8790  143.2050 C   0  0  0  0  0  2  0  0  0  0  0  0
  181.5400  179.0440  142.8700 C   0  0  0  0  0  0  0  0  0  0  0  0
  180.5460  178.5300  143.8830 C   0  0  0  0  0  2  0  0  0  0  0  0
  1  9  2  0  0  0  0
  2  7  1  0  0  0  0
  3 28  1  0  0  0  0
  4  6  1  0  0  0  0
  4 12  1  0  0  0  0
  5  8  1  0  0  0  0
  5  2  1  1  0  0  0
  6 10  1  1  0  0  0
  6  5  1  0  0  0  0
  7  3  1  0  0  0  0
  8 32  1  1  0  0  0
  9 11  1  0  0  0  0
 10  9  1  0  0  0  0
 11 14  2  0  0  0  0
 11  7  1  0  0  0  0
 12 30  1  1  0  0  0
 12  8  1  0  0  0  0
 13  3  2  0  0  0  0
 14 13  1  0  0  0  0
 15 25  1  6  0  0  0
 15 29  1  0  0  0  0
 16 15  1  0  0  0  0
 17 20  1  0  0  0  0
 19 24  1  0  0  0  0
 19 27  1  0  0  0  0
 21 18  1  0  0  0  0
 22 16  1  0  0  0  0
 22 24  1  0  0  0  0
 23 19  2  0  0  0  0
 24 21  2  0  0  0  0
 25 17  2  0  0  0  0
 26 16  2  0  0  0  0
 28 23  1  0  0  0  0
 28 22  2  0  0  0  0
 29 18  2  0  0  0  0
 29 20  1  0  0  0  0
 31 30  1  0  0  0  0
 32 33  1  0  0  0  0
 33 34  1  0  0  0  0
 35 37  1  0  0  0  0
 36 38  1  0  0  0  0
 37 36  1  0  0  0  0
 37 34  1  0  0  0  0
 37 38  1  0  0  0  0
M  END
>  <MODEL>
7

>  <REMARK>
 VINA RESULT:      -7.2      4.424      9.487
  Name = 
  6 active torsions:
  status: ('A' for Active; 'I' for Inactive)
    1  A    between atoms: C_5  and  C_35
    2  A    between atoms: O_7  and  C_30
    3  A    between atoms: C_16  and  C_19
    4  A    between atoms: C_16  and  C_23
    5  A    between atoms: C_23  and  C_34
    6  A    between atoms: C_25  and  C_34
                            x       y       z     vdW  Elec       q    Type
                         _______ _______ _______ _____ _____    ______ ____

>  <TORSDO>
F 6

$$$$
=
 OpenBabel10232410333D

 38 44  0  0  1  0  0  0  0  0999 V2000
  187.1660  177.7910  147.0670 O   0  0  0  0  0  0  0  0  0  0  0  0
  186.1460  178.9070  143.0260 C   0  0  0  0  0  2  0  0  0  0  0  0
  188.1420  177.4310  142.6690 C   0  0  0  0  0  0  0  0  0  0  0  0
  183.3370  179.2200  145.1460 O   0  0  0  0  0  0  0  0  0  0  0  0
  184.8180  178.3080  143.4820 C   0  0  1  0  0  3  0  0  0  0  0  0
  184.5200  178.4710  144.9810 C   0  0  1  0  0  3  0  0  0  0  0  0
  187.2570  178.0680  143.4620 N   0  0  0  0  0  0  0  0  0  0  0  0
  183.6930  179.0320  142.8180 C   0  0  2  0  0  3  0  0  0  0  0  0
  186.8190  178.1860  145.9220 C   0  0  0  0  0  0  0  0  0  0  0  0
  185.6460  179.1060  145.8010 C   0  0  0  0  0  2  0  0  0  0  0  0
  187.5730  177.7480  144.7320 C   0  0  0  0  0  0  0  0  0  0  0  0
  182.6530  179.1640  143.9190 C   0  0  1  0  0  3  0  0  0  0  0  0
  189.0450  176.7150  143.4390 C   0  0  0  0  0  3  0  0  0  0  0  0
  188.6760  176.9110  144.7620 C   0  0  0  0  0  3  0  0  0  0  0  0
  191.7210  177.6630  139.9830 C   0  0  1  0  0  3  0  0  0  0  0  0
  190.6130  177.0500  140.7760 C   0  0  0  0  0  0  0  0  0  0  0  0
  193.7820  176.6580  139.5800 N   0  0  0  0  0  0  0  0  0  0  0  0
  190.8380  177.0520  137.7340 N   0  0  0  0  0  0  0  0  0  0  0  0
  187.4080  178.0400  139.1250 C   0  0  0  0  0  0  0  0  0  0  0  0
  193.0530  176.4860  138.4020 N   0  0  0  0  0  2  0  0  0  0  0  0
  189.4840  177.5250  137.8710 C   0  0  0  0  0  2  0  0  0  0  0  0
  189.2390  177.3920  140.3900 C   0  0  0  0  0  0  0  0  0  0  0  0
  187.0140  177.9430  140.3860 C   0  0  0  0  0  2  0  0  0  0  0  0
  188.8180  177.6930  139.0240 C   0  0  0  0  0  0  0  0  0  0  0  0
  193.0900  177.2880  140.4780 C   0  0  0  0  0  3  0  0  0  0  0  0
  190.8430  176.2360  141.7120 O   0  0  0  0  0  0  0  0  0  0  0  0
  186.5100  178.4070  137.9950 C   0  0  0  0  0  1  0  0  0  0  0  0
  188.1750  177.5370  141.1910 C   0  0  0  0  0  0  0  0  0  0  0  0
  191.7800  177.0580  138.6300 C   0  0  0  0  0  0  0  0  0  0  0  0
  181.7670  178.0780  143.9310 O   0  0  0  0  0  0  0  0  0  0  0  0
  180.5010  178.6530  144.0390 C   0  0  0  0  0  1  0  0  0  0  0  0
  183.2090  178.2850  141.5780 C   0  0  0  0  0  2  0  0  0  0  0  0
  183.4910  179.0860  140.3180 C   0  0  0  0  0  2  0  0  0  0  0  0
  182.9520  178.3540  139.0990 C   0  0  0  0  0  2  0  0  0  0  0  0
  181.4870  178.8120  136.9560 C   0  0  0  0  0  1  0  0  0  0  0  0
  182.2320  180.7510  138.4740 C   0  0  0  0  0  2  0  0  0  0  0  0
  182.0410  179.2620  138.2940 C   0  0  0  0  0  0  0  0  0  0  0  0
  181.0550  180.0380  139.1320 C   0  0  0  0  0  2  0  0  0  0  0  0
  2  7  1  0  0  0  0
  3 13  2  0  0  0  0
  3  7  1  0  0  0  0
  5  2  1  1  0  0  0
  5  6  1  0  0  0  0
  6  4  1  0  0  0  0
  6 10  1  1  0  0  0
  7 11  1  0  0  0  0
  8 32  1  6  0  0  0
  8  5  1  0  0  0  0
  8 12  1  0  0  0  0
  9  1  2  0  0  0  0
 10  9  1  0  0  0  0
 11 14  2  0  0  0  0
 11  9  1  0  0  0  0
 12 30  1  1  0  0  0
 12  4  1  0  0  0  0
 13 14  1  0  0  0  0
 15 25  1  1  0  0  0
 15 16  1  0  0  0  0
 16 26  2  0  0  0  0
 17 25  2  0  0  0  0
 18 21  1  0  0  0  0
 18 29  2  0  0  0  0
 19 23  1  0  0  0  0
 20 29  1  0  0  0  0
 20 17  1  0  0  0  0
 21 24  1  0  0  0  0
 22 16  1  0  0  0  0
 22 28  2  0  0  0  0
 23 28  1  0  0  0  0
 24 19  2  0  0  0  0
 24 22  1  0  0  0  0
 27 19  1  0  0  0  0
 28  3  1  0  0  0  0
 29 15  1  0  0  0  0
 30 31  1  0  0  0  0
 33 32  1  0  0  0  0
 34 33  1  0  0  0  0
 35 37  1  0  0  0  0
 36 38  1  0  0  0  0
 37 36  1  0  0  0  0
 37 34  1  0  0  0  0
 37 38  1  0  0  0  0
M  END
>  <MODEL>
8

>  <REMARK>
 VINA RESULT:      -7.2      3.427      7.331
  Name = 
  6 active torsions:
  status: ('A' for Active; 'I' for Inactive)
    1  A    between atoms: C_5  and  C_35
    2  A    between atoms: O_7  and  C_30
    3  A    between atoms: C_16  and  C_19
    4  A    between atoms: C_16  and  C_23
    5  A    between atoms: C_23  and  C_34
    6  A    between atoms: C_25  and  C_34
                            x       y       z     vdW  Elec       q    Type
                         _______ _______ _______ _____ _____    ______ ____

>  <TORSDO>
F 6

$$$$
=
 OpenBabel10232410333D

 38 44  0  0  1  0  0  0  0  0999 V2000
  183.6750  177.2470  134.3460 O   0  0  0  0  0  0  0  0  0  0  0  0
  185.1340  177.0450  138.4020 C   0  0  0  0  0  2  0  0  0  0  0  0
  187.1900  177.7380  137.1450 C   0  0  0  0  0  0  0  0  0  0  0  0
  181.6330  177.5160  138.3650 O   0  0  0  0  0  0  0  0  0  0  0  0
  183.9750  178.0220  138.5820 C   0  0  1  0  0  3  0  0  0  0  0  0
  182.7950  177.8050  137.6220 C   0  0  1  0  0  3  0  0  0  0  0  0
  185.8930  177.3740  137.2010 N   0  0  0  0  0  0  0  0  0  0  0  0
  183.3700  177.8300  139.9340 C   0  0  2  0  0  3  0  0  0  0  0  0
  184.0270  177.1370  135.5510 C   0  0  0  0  0  0  0  0  0  0  0  0
  183.0100  176.7190  136.5640 C   0  0  0  0  0  2  0  0  0  0  0  0
  185.4240  177.4100  135.9380 C   0  0  0  0  0  0  0  0  0  0  0  0
  181.8760  177.9540  139.6780 C   0  0  1  0  0  3  0  0  0  0  0  0
  187.5590  177.9890  135.8330 C   0  0  0  0  0  3  0  0  0  0  0  0
  186.4250  177.7870  135.0590 C   0  0  0  0  0  3  0  0  0  0  0  0
  191.2070  175.8180  137.6420 C   0  0  1  0  0  3  0  0  0  0  0  0
  190.1970  176.8590  137.2840 C   0  0  0  0  0  0  0  0  0  0  0  0
  193.2430  175.5140  136.5540 N   0  0  0  0  0  0  0  0  0  0  0  0
  192.2540  177.0690  139.5250 N   0  0  0  0  0  0  0  0  0  0  0  0
  188.6780  178.0540  140.4840 C   0  0  0  0  0  0  0  0  0  0  0  0
  193.5540  176.1990  137.7300 N   0  0  0  0  0  2  0  0  0  0  0  0
  191.0690  177.4370  140.2570 C   0  0  0  0  0  3  0  0  0  0  0  0
  189.3760  177.4020  138.3720 C   0  0  0  0  0  0  0  0  0  0  0  0
  187.6590  178.2160  139.6550 C   0  0  0  0  0  3  0  0  0  0  0  0
  189.8310  177.5490  139.7530 C   0  0  0  0  0  0  0  0  0  0  0  0
  191.9700  175.2910  136.4570 C   0  0  0  0  0  3  0  0  0  0  0  0
  190.0800  177.2870  136.1030 O   0  0  0  0  0  0  0  0  0  0  0  0
  188.6370  178.3910  141.9340 C   0  0  0  0  0  1  0  0  0  0  0  0
  188.0970  177.7980  138.3150 C   0  0  0  0  0  0  0  0  0  0  0  0
  192.3290  176.4300  138.3970 C   0  0  0  0  0  0  0  0  0  0  0  0
  181.4320  179.2770  139.8160 O   0  0  0  0  0  0  0  0  0  0  0  0
  180.2930  179.1870  140.6170 C   0  0  0  0  0  1  0  0  0  0  0  0
  183.9240  178.8390  140.9370 C   0  0  0  0  0  2  0  0  0  0  0  0
  184.6260  178.1330  142.0840 C   0  0  0  0  0  2  0  0  0  0  0  0
  185.2050  179.1520  143.0530 C   0  0  0  0  0  2  0  0  0  0  0  0
  183.2140  178.7980  144.7450 C   0  0  0  0  0  1  0  0  0  0  0  0
  185.5710  179.3830  145.5960 C   0  0  0  0  0  2  0  0  0  0  0  0
  184.7010  178.8930  144.4610 C   0  0  0  0  0  0  0  0  0  0  0  0
  185.5340  177.9010  145.2350 C   0  0  0  0  0  2  0  0  0  0  0  0
  1  9  2  0  0  0  0
  3  7  1  0  0  0  0
  3 28  1  0  0  0  0
  4 12  1  0  0  0  0
  5  2  1  6  0  0  0
  5  8  1  0  0  0  0
  6 10  1  6  0  0  0
  6  4  1  0  0  0  0
  6  5  1  0  0  0  0
  7  2  1  0  0  0  0
  8 32  1  1  0  0  0
  9 11  1  0  0  0  0
  9 10  1  0  0  0  0
 11  7  1  0  0  0  0
 12 30  1  6  0  0  0
 12  8  1  0  0  0  0
 13  3  2  0  0  0  0
 14 13  1  0  0  0  0
 14 11  2  0  0  0  0
 15 25  1  6  0  0  0
 15 29  1  0  0  0  0
 16 15  1  0  0  0  0
 16 22  1  0  0  0  0
 17 20  1  0  0  0  0
 18 21  1  0  0  0  0
 19 27  1  0  0  0  0
 20 29  1  0  0  0  0
 22 24  1  0  0  0  0
 23 19  2  0  0  0  0
 24 21  2  0  0  0  0
 24 19  1  0  0  0  0
 25 17  2  0  0  0  0
 26 16  2  0  0  0  0
 28 22  2  0  0  0  0
 28 23  1  0  0  0  0
 29 18  2  0  0  0  0
 30 31  1  0  0  0  0
 32 33  1  0  0  0  0
 33 34  1  0  0  0  0
 34 37  1  0  0  0  0
 37 35  1  0  0  0  0
 37 38  1  0  0  0  0
 37 36  1  0  0  0  0
 38 36  1  0  0  0  0
M  END
>  <MODEL>
9

>  <REMARK>
 VINA RESULT:      -7.0      3.596      6.686
  Name = 
  6 active torsions:
  status: ('A' for Active; 'I' for Inactive)
    1  A    between atoms: C_5  and  C_35
    2  A    between atoms: O_7  and  C_30
    3  A    between atoms: C_16  and  C_19
    4  A    between atoms: C_16  and  C_23
    5  A    between atoms: C_23  and  C_34
    6  A    between atoms: C_25  and  C_34
                            x       y       z     vdW  Elec       q    Type
                         _______ _______ _______ _____ _____    ______ ____

>  <TORSDO>
F 6

$$$$
