=
 OpenBabel10232409183D

 30 32  0  0  1  0  0  0  0  0999 V2000
  186.2140  178.8650  141.4740 C   0  0  0  0  0  2  0  0  0  0  0  0
  184.6490  178.7260  143.3240 C   0  0  0  0  0  0  0  0  0  0  0  0
  184.4310  178.9050  144.5980 C   0  0  0  0  0  3  0  0  0  0  0  0
  184.8710  178.5540  142.0480 C   0  0  0  0  0  0  0  0  0  0  0  0
  185.4630  178.5280  145.6020 C   0  0  0  0  0  3  0  0  0  0  0  0
  186.0150  177.3100  145.2570 F   0  0  0  0  0  0  0  0  0  0  0  0
  184.8890  178.4310  146.8580 F   0  0  0  0  0  0  0  0  0  0  0  0
  183.8480  177.8620  141.2110 C   0  0  0  0  0  2  0  0  0  0  0  0
  182.5890  178.7050  141.0630 C   0  0  0  0  0  2  0  0  0  0  0  0
  181.9260  178.3890  139.8740 O   0  0  0  0  0  0  0  0  0  0  0  0
  182.7610  178.8540  138.8540 C   0  0  0  0  0  3  0  0  0  0  0  0
  181.0690  178.6700  137.0030 C   0  0  0  0  0  2  0  0  0  0  0  0
  182.6320  180.3740  138.7260 C   0  0  0  0  0  2  0  0  0  0  0  0
  182.4150  178.1710  137.5280 C   0  0  0  0  0  2  0  0  0  0  0  0
  181.1080  180.1210  136.8250 N   0  0  0  0  0  2  0  0  0  0  0  0
  181.2710  180.7430  138.1370 C   0  0  0  0  0  2  0  0  0  0  0  0
  187.3010  178.1150  142.2210 C   0  0  0  0  0  2  0  0  0  0  0  0
  188.5490  178.5950  141.8260 O   0  0  0  0  0  0  0  0  0  0  0  0
  189.0030  177.6740  140.8780 C   0  0  0  0  0  2  0  0  0  0  0  0
  190.0220  176.7350  141.5030 C   0  0  0  0  0  2  0  0  0  0  0  0
  191.2020  177.5180  142.0420 C   0  0  0  0  0  2  0  0  0  0  0  0
  191.7910  176.8090  143.0890 O   0  0  0  0  0  0  0  0  0  0  0  0
  189.2550  178.0190  145.3890 C   0  0  0  0  0  3  0  0  0  0  0  0
  192.4710  175.9400  147.3720 N   0  0  0  0  0  1  0  0  0  0  0  0
  189.1250  177.5560  146.6630 C   0  0  0  0  0  3  0  0  0  0  0  0
  190.2340  176.8660  147.4050 C   0  0  0  0  0  3  0  0  0  0  0  0
  190.5600  177.9350  144.6150 C   0  0  1  0  0  3  0  0  0  0  0  0
  191.3630  176.5810  146.7550 C   0  0  0  0  0  0  0  0  0  0  0  0
  191.3750  176.9780  145.4030 N   0  0  0  0  0  0  0  0  0  0  0  0
  190.7890  176.7070  144.0530 C   0  0  2  0  0  3  0  0  0  0  0  0
  1  4  1  0  0  0  0
  1 17  1  0  0  0  0
  2  3  2  0  0  0  0
  3  5  1  0  0  0  0
  4  2  2  0  0  0  0
  5  7  1  0  0  0  0
  6  5  1  0  0  0  0
  8  4  1  0  0  0  0
  9  8  1  0  0  0  0
 10  9  1  0  0  0  0
 11 10  1  0  0  0  0
 12 14  1  0  0  0  0
 13 11  1  0  0  0  0
 14 11  1  0  0  0  0
 15 12  1  0  0  0  0
 15 16  1  0  0  0  0
 16 13  1  0  0  0  0
 18 17  1  0  0  0  0
 19 20  1  0  0  0  0
 19 18  1  0  0  0  0
 20 21  1  0  0  0  0
 21 22  1  0  0  0  0
 23 25  2  0  0  0  0
 25 26  1  0  0  0  0
 27 23  1  1  0  0  0
 27 29  1  0  0  0  0
 28 24  1  0  0  0  0
 28 26  2  0  0  0  0
 29 28  1  0  0  0  0
 30 22  1  6  0  0  0
 30 27  1  0  0  0  0
 30 29  1  0  0  0  0
M  END
>  <MODEL>
1

>  <REMARK>
 VINA RESULT:      -7.1      0.000      0.000
  Name = 
  13 active torsions:
  status: ('A' for Active; 'I' for Inactive)
    1  A    between atoms: O_3  and  C_23
    2  A    between atoms: O_3  and  C_26
    3  A    between atoms: O_6  and  C_10
    4  A    between atoms: O_6  and  C_15
    5  A    between atoms: C_8  and  O_9
    6  A    between atoms: O_9  and  C_18
    7  A    between atoms: C_10  and  C_21
    8  A    between atoms: C_12  and  C_15
    9  A    between atoms: C_12  and  C_30
   10  A    between atoms: C_18  and  C_22
   11  A    between atoms: C_21  and  C_23
   12  A    between atoms: C_22  and  C_30
   13  A    between atoms: C_24  and  C_29
                            x       y       z     vdW  Elec       q    Type
                         _______ _______ _______ _____ _____    ______ ____

>  <TORSDO>
F 13

$$$$
=
 OpenBabel10232409183D

 30 32  0  0  1  0  0  0  0  0999 V2000
  190.1510  177.4530  144.8290 C   0  0  0  0  0  2  0  0  0  0  0  0
  188.0200  177.7600  145.9490 C   0  0  0  0  0  0  0  0  0  0  0  0
  187.3840  178.1650  147.0140 C   0  0  0  0  0  3  0  0  0  0  0  0
  188.6610  177.3610  144.8840 C   0  0  0  0  0  0  0  0  0  0  0  0
  187.9170  177.8680  148.3720 C   0  0  0  0  0  3  0  0  0  0  0  0
  189.1540  178.4630  148.5200 F   0  0  0  0  0  0  0  0  0  0  0  0
  188.0440  176.5000  148.5420 F   0  0  0  0  0  0  0  0  0  0  0  0
  187.9220  176.6350  143.8100 C   0  0  0  0  0  2  0  0  0  0  0  0
  187.1870  177.6010  142.8910 C   0  0  0  0  0  2  0  0  0  0  0  0
  185.8230  177.6250  143.1970 O   0  0  0  0  0  0  0  0  0  0  0  0
  185.4240  178.9480  142.9840 C   0  0  0  0  0  3  0  0  0  0  0  0
  183.1830  178.4040  141.9810 C   0  0  0  0  0  2  0  0  0  0  0  0
  184.6710  179.4700  144.2090 C   0  0  0  0  0  2  0  0  0  0  0  0
  184.5490  179.0450  141.7310 C   0  0  0  0  0  2  0  0  0  0  0  0
  182.5220  179.0590  143.1080 N   0  0  0  0  0  2  0  0  0  0  0  0
  183.3010  178.7990  144.3160 C   0  0  0  0  0  2  0  0  0  0  0  0
  190.5840  178.5120  143.8340 C   0  0  0  0  0  2  0  0  0  0  0  0
  191.7100  178.0640  143.1430 O   0  0  0  0  0  0  0  0  0  0  0  0
  191.2060  177.2280  142.1430 C   0  0  0  0  0  2  0  0  0  0  0  0
  191.8310  177.5750  140.8010 C   0  0  0  0  0  2  0  0  0  0  0  0
  191.0790  176.8930  139.6750 C   0  0  0  0  0  2  0  0  0  0  0  0
  189.7080  177.0730  139.8580 O   0  0  0  0  0  0  0  0  0  0  0  0
  189.3430  177.3770  136.2580 C   0  0  0  0  0  3  0  0  0  0  0  0
  185.8570  178.7080  138.4210 N   0  0  0  0  0  1  0  0  0  0  0  0
  188.1380  177.5270  135.6430 C   0  0  0  0  0  3  0  0  0  0  0  0
  186.9100  178.0290  136.3490 C   0  0  0  0  0  3  0  0  0  0  0  0
  189.5770  177.7630  137.7090 C   0  0  1  0  0  3  0  0  0  0  0  0
  186.9620  178.2260  137.6660 C   0  0  0  0  0  0  0  0  0  0  0  0
  188.2070  177.9290  138.2540 N   0  0  0  0  0  0  0  0  0  0  0  0
  189.1490  176.8210  138.6060 C   0  0  2  0  0  3  0  0  0  0  0  0
  1  4  1  0  0  0  0
  2  3  2  0  0  0  0
  3  5  1  0  0  0  0
  4  2  2  0  0  0  0
  5  6  1  0  0  0  0
  5  7  1  0  0  0  0
  8  4  1  0  0  0  0
  9 10  1  0  0  0  0
  9  8  1  0  0  0  0
 11 10  1  0  0  0  0
 11 13  1  0  0  0  0
 12 15  1  0  0  0  0
 13 16  1  0  0  0  0
 14 12  1  0  0  0  0
 14 11  1  0  0  0  0
 15 16  1  0  0  0  0
 17  1  1  0  0  0  0
 18 17  1  0  0  0  0
 19 18  1  0  0  0  0
 20 19  1  0  0  0  0
 21 22  1  0  0  0  0
 21 20  1  0  0  0  0
 25 23  2  0  0  0  0
 25 26  1  0  0  0  0
 26 28  2  0  0  0  0
 27 23  1  6  0  0  0
 27 29  1  0  0  0  0
 27 30  1  0  0  0  0
 28 29  1  0  0  0  0
 28 24  1  0  0  0  0
 29 30  1  0  0  0  0
 30 22  1  1  0  0  0
M  END
>  <MODEL>
2

>  <REMARK>
 VINA RESULT:      -7.1      3.642      6.310
  Name = 
  13 active torsions:
  status: ('A' for Active; 'I' for Inactive)
    1  A    between atoms: O_3  and  C_23
    2  A    between atoms: O_3  and  C_26
    3  A    between atoms: O_6  and  C_10
    4  A    between atoms: O_6  and  C_15
    5  A    between atoms: C_8  and  O_9
    6  A    between atoms: O_9  and  C_18
    7  A    between atoms: C_10  and  C_21
    8  A    between atoms: C_12  and  C_15
    9  A    between atoms: C_12  and  C_30
   10  A    between atoms: C_18  and  C_22
   11  A    between atoms: C_21  and  C_23
   12  A    between atoms: C_22  and  C_30
   13  A    between atoms: C_24  and  C_29
                            x       y       z     vdW  Elec       q    Type
                         _______ _______ _______ _____ _____    ______ ____

>  <TORSDO>
F 13

$$$$
=
 OpenBabel10232409183D

 30 32  0  0  1  0  0  0  0  0999 V2000
  190.9710  176.4370  143.5580 C   0  0  0  0  0  2  0  0  0  0  0  0
  190.8360  176.9770  145.9200 C   0  0  0  0  0  0  0  0  0  0  0  0
  191.3710  176.8730  147.1060 C   0  0  0  0  0  3  0  0  0  0  0  0
  190.3080  177.0820  144.7300 C   0  0  0  0  0  0  0  0  0  0  0  0
  191.9620  175.5840  147.5590 C   0  0  0  0  0  3  0  0  0  0  0  0
  193.0170  175.8370  148.4130 F   0  0  0  0  0  0  0  0  0  0  0  0
  192.4180  174.8630  146.4690 F   0  0  0  0  0  0  0  0  0  0  0  0
  188.9470  177.6760  144.5800 C   0  0  0  0  0  2  0  0  0  0  0  0
  187.9210  176.9300  145.4220 C   0  0  0  0  0  2  0  0  0  0  0  0
  186.6350  177.1230  144.9090 O   0  0  0  0  0  0  0  0  0  0  0  0
  186.4370  178.5070  144.9300 C   0  0  0  0  0  3  0  0  0  0  0  0
  184.0050  178.4490  144.2930 C   0  0  0  0  0  2  0  0  0  0  0  0
  185.9880  178.9500  146.3240 C   0  0  0  0  0  2  0  0  0  0  0  0
  185.4020  178.9130  143.8770 C   0  0  0  0  0  2  0  0  0  0  0  0
  183.6530  179.0230  145.5900 N   0  0  0  0  0  2  0  0  0  0  0  0
  184.5600  178.4780  146.5980 C   0  0  0  0  0  2  0  0  0  0  0  0
  189.9390  175.9990  142.5360 C   0  0  0  0  0  2  0  0  0  0  0  0
  190.4510  176.1870  141.2520 O   0  0  0  0  0  0  0  0  0  0  0  0
  190.1560  177.5170  140.9420 C   0  0  0  0  0  2  0  0  0  0  0  0
  188.9340  177.5890  140.0400 C   0  0  0  0  0  2  0  0  0  0  0  0
  189.3410  177.9590  138.6270 C   0  0  0  0  0  2  0  0  0  0  0  0
  188.2970  178.6490  138.0090 O   0  0  0  0  0  0  0  0  0  0  0  0
  185.4990  176.6580  136.8310 C   0  0  0  0  0  3  0  0  0  0  0  0
  184.2980  179.8620  139.4560 N   0  0  0  0  0  1  0  0  0  0  0  0
  184.2760  176.6680  137.4280 C   0  0  0  0  0  3  0  0  0  0  0  0
  183.8020  177.7850  138.3140 C   0  0  0  0  0  3  0  0  0  0  0  0
  186.4820  177.8100  136.9550 C   0  0  1  0  0  3  0  0  0  0  0  0
  184.6550  178.7580  138.6340 C   0  0  0  0  0  0  0  0  0  0  0  0
  185.9420  178.6140  138.0790 N   0  0  0  0  0  0  0  0  0  0  0  0
  187.1970  177.8010  138.1230 C   0  0  2  0  0  3  0  0  0  0  0  0
  1  4  1  0  0  0  0
  2  3  2  0  0  0  0
  3  5  1  0  0  0  0
  4  2  2  0  0  0  0
  5  6  1  0  0  0  0
  7  5  1  0  0  0  0
  8  4  1  0  0  0  0
  8  9  1  0  0  0  0
 10 11  1  0  0  0  0
 10  9  1  0  0  0  0
 11 13  1  0  0  0  0
 12 15  1  0  0  0  0
 13 16  1  0  0  0  0
 14 12  1  0  0  0  0
 14 11  1  0  0  0  0
 15 16  1  0  0  0  0
 17  1  1  0  0  0  0
 18 17  1  0  0  0  0
 19 18  1  0  0  0  0
 20 19  1  0  0  0  0
 21 20  1  0  0  0  0
 22 21  1  0  0  0  0
 23 25  2  0  0  0  0
 25 26  1  0  0  0  0
 26 28  2  0  0  0  0
 27 23  1  1  0  0  0
 27 29  1  0  0  0  0
 27 30  1  0  0  0  0
 28 24  1  0  0  0  0
 29 30  1  0  0  0  0
 29 28  1  0  0  0  0
 30 22  1  6  0  0  0
M  END
>  <MODEL>
3

>  <REMARK>
 VINA RESULT:      -7.1      3.806      7.712
  Name = 
  13 active torsions:
  status: ('A' for Active; 'I' for Inactive)
    1  A    between atoms: O_3  and  C_23
    2  A    between atoms: O_3  and  C_26
    3  A    between atoms: O_6  and  C_10
    4  A    between atoms: O_6  and  C_15
    5  A    between atoms: C_8  and  O_9
    6  A    between atoms: O_9  and  C_18
    7  A    between atoms: C_10  and  C_21
    8  A    between atoms: C_12  and  C_15
    9  A    between atoms: C_12  and  C_30
   10  A    between atoms: C_18  and  C_22
   11  A    between atoms: C_21  and  C_23
   12  A    between atoms: C_22  and  C_30
   13  A    between atoms: C_24  and  C_29
                            x       y       z     vdW  Elec       q    Type
                         _______ _______ _______ _____ _____    ______ ____

>  <TORSDO>
F 13

$$$$
=
 OpenBabel10232409183D

 30 32  0  0  1  0  0  0  0  0999 V2000
  186.3530  179.1480  142.2990 C   0  0  0  0  0  2  0  0  0  0  0  0
  184.6030  178.8140  143.9470 C   0  0  0  0  0  0  0  0  0  0  0  0
  184.2370  178.8980  145.1970 C   0  0  0  0  0  3  0  0  0  0  0  0
  184.9730  178.7380  142.6970 C   0  0  0  0  0  0  0  0  0  0  0  0
  185.1700  178.5020  146.2870 C   0  0  0  0  0  3  0  0  0  0  0  0
  186.0640  179.5290  146.5200 F   0  0  0  0  0  0  0  0  0  0  0  0
  185.8670  177.3630  145.9230 F   0  0  0  0  0  0  0  0  0  0  0  0
  184.0870  178.0580  141.7080 C   0  0  0  0  0  2  0  0  0  0  0  0
  183.8320  178.9390  140.4920 C   0  0  0  0  0  2  0  0  0  0  0  0
  182.7960  178.4120  139.7150 O   0  0  0  0  0  0  0  0  0  0  0  0
  183.2620  177.1670  139.2820 C   0  0  0  0  0  3  0  0  0  0  0  0
  181.1130  176.4260  138.2050 C   0  0  0  0  0  2  0  0  0  0  0  0
  183.8440  177.2890  137.8720 C   0  0  0  0  0  2  0  0  0  0  0  0
  182.1300  176.1360  139.3100 C   0  0  0  0  0  2  0  0  0  0  0  0
  181.7730  176.4120  136.9010 N   0  0  0  0  0  2  0  0  0  0  0  0
  182.7270  177.5180  136.8540 C   0  0  0  0  0  2  0  0  0  0  0  0
  187.2490  177.9330  142.1500 C   0  0  0  0  0  2  0  0  0  0  0  0
  188.5330  178.3470  141.7940 O   0  0  0  0  0  0  0  0  0  0  0  0
  188.9480  177.4270  140.8270 C   0  0  0  0  0  2  0  0  0  0  0  0
  190.2380  176.7510  141.2630 C   0  0  0  0  0  2  0  0  0  0  0  0
  191.0860  177.7060  142.0790 C   0  0  0  0  0  2  0  0  0  0  0  0
  191.7210  177.0030  143.1030 O   0  0  0  0  0  0  0  0  0  0  0  0
  189.1270  177.9780  145.4500 C   0  0  0  0  0  3  0  0  0  0  0  0
  192.4620  176.0110  147.3490 N   0  0  0  0  0  1  0  0  0  0  0  0
  189.0270  177.4600  146.7050 C   0  0  0  0  0  3  0  0  0  0  0  0
  190.1760  176.8060  147.4190 C   0  0  0  0  0  3  0  0  0  0  0  0
  190.4330  177.9980  144.6720 C   0  0  1  0  0  3  0  0  0  0  0  0
  191.3170  176.6110  146.7580 C   0  0  0  0  0  0  0  0  0  0  0  0
  191.3030  177.0600  145.4220 N   0  0  0  0  0  0  0  0  0  0  0  0
  190.7300  176.8070  144.0640 C   0  0  2  0  0  3  0  0  0  0  0  0
  1  4  1  0  0  0  0
  2  3  2  0  0  0  0
  3  5  1  0  0  0  0
  4  2  2  0  0  0  0
  5  6  1  0  0  0  0
  7  5  1  0  0  0  0
  8  4  1  0  0  0  0
  9  8  1  0  0  0  0
 10  9  1  0  0  0  0
 11 14  1  0  0  0  0
 11 10  1  0  0  0  0
 12 14  1  0  0  0  0
 13 11  1  0  0  0  0
 15 12  1  0  0  0  0
 16 15  1  0  0  0  0
 16 13  1  0  0  0  0
 17  1  1  0  0  0  0
 18 17  1  0  0  0  0
 19 20  1  0  0  0  0
 19 18  1  0  0  0  0
 20 21  1  0  0  0  0
 21 22  1  0  0  0  0
 23 25  2  0  0  0  0
 25 26  1  0  0  0  0
 27 29  1  0  0  0  0
 27 23  1  1  0  0  0
 28 24  1  0  0  0  0
 28 26  2  0  0  0  0
 29 28  1  0  0  0  0
 30 22  1  6  0  0  0
 30 27  1  0  0  0  0
 30 29  1  0  0  0  0
M  END
>  <MODEL>
4

>  <REMARK>
 VINA RESULT:      -7.0      1.325      1.558
  Name = 
  13 active torsions:
  status: ('A' for Active; 'I' for Inactive)
    1  A    between atoms: O_3  and  C_23
    2  A    between atoms: O_3  and  C_26
    3  A    between atoms: O_6  and  C_10
    4  A    between atoms: O_6  and  C_15
    5  A    between atoms: C_8  and  O_9
    6  A    between atoms: O_9  and  C_18
    7  A    between atoms: C_10  and  C_21
    8  A    between atoms: C_12  and  C_15
    9  A    between atoms: C_12  and  C_30
   10  A    between atoms: C_18  and  C_22
   11  A    between atoms: C_21  and  C_23
   12  A    between atoms: C_22  and  C_30
   13  A    between atoms: C_24  and  C_29
                            x       y       z     vdW  Elec       q    Type
                         _______ _______ _______ _____ _____    ______ ____

>  <TORSDO>
F 13

$$$$
=
 OpenBabel10232409183D

 30 32  0  0  1  0  0  0  0  0999 V2000
  187.7120  177.0440  143.9620 C   0  0  0  0  0  2  0  0  0  0  0  0
  186.5220  178.3680  142.3120 C   0  0  0  0  0  0  0  0  0  0  0  0
  185.4710  179.0870  142.0280 C   0  0  0  0  0  3  0  0  0  0  0  0
  187.5750  177.6530  142.6050 C   0  0  0  0  0  0  0  0  0  0  0  0
  184.1190  178.6650  142.4850 C   0  0  0  0  0  3  0  0  0  0  0  0
  184.2270  178.0210  143.7020 F   0  0  0  0  0  0  0  0  0  0  0  0
  183.5540  177.8040  141.5610 F   0  0  0  0  0  0  0  0  0  0  0  0
  188.5350  177.2820  141.5250 C   0  0  0  0  0  2  0  0  0  0  0  0
  188.7300  178.4270  140.5390 C   0  0  0  0  0  2  0  0  0  0  0  0
  188.2050  178.0900  139.2890 O   0  0  0  0  0  0  0  0  0  0  0  0
  189.2020  178.4300  138.3700 C   0  0  0  0  0  3  0  0  0  0  0  0
  189.5940  176.0990  137.5110 C   0  0  0  0  0  2  0  0  0  0  0  0
  188.5740  178.7490  137.0120 C   0  0  0  0  0  2  0  0  0  0  0  0
  190.2170  177.2910  138.2390 C   0  0  0  0  0  2  0  0  0  0  0  0
  189.1280  176.5110  136.1870 N   0  0  0  0  0  2  0  0  0  0  0  0
  188.0430  177.4740  136.3590 C   0  0  0  0  0  2  0  0  0  0  0  0
  187.2640  178.0210  145.0330 C   0  0  0  0  0  2  0  0  0  0  0  0
  186.6110  177.3250  146.0500 O   0  0  0  0  0  0  0  0  0  0  0  0
  187.1260  177.8580  147.2340 C   0  0  0  0  0  2  0  0  0  0  0  0
  188.3260  177.0480  147.6980 C   0  0  0  0  0  2  0  0  0  0  0  0
  189.4980  177.9620  147.9960 C   0  0  0  0  0  2  0  0  0  0  0  0
  190.6920  177.2720  147.7830 O   0  0  0  0  0  0  0  0  0  0  0  0
  191.7520  175.4630  144.8200 C   0  0  0  0  0  3  0  0  0  0  0  0
  191.1840  179.6780  144.1050 N   0  0  0  0  0  1  0  0  0  0  0  0
  191.6220  175.9600  143.5590 C   0  0  0  0  0  3  0  0  0  0  0  0
  191.4660  177.4250  143.2640 C   0  0  0  0  0  3  0  0  0  0  0  0
  191.8140  176.3530  146.0500 C   0  0  1  0  0  3  0  0  0  0  0  0
  191.3280  178.2750  144.2820 C   0  0  0  0  0  0  0  0  0  0  0  0
  191.3460  177.6710  145.5540 N   0  0  0  0  0  0  0  0  0  0  0  0
  190.5860  176.7780  146.4840 C   0  0  2  0  0  3  0  0  0  0  0  0
  1 17  1  0  0  0  0
  2  4  2  0  0  0  0
  3  2  2  0  0  0  0
  3  5  1  0  0  0  0
  4  1  1  0  0  0  0
  5  6  1  0  0  0  0
  7  5  1  0  0  0  0
  8  4  1  0  0  0  0
  9  8  1  0  0  0  0
 10  9  1  0  0  0  0
 11 10  1  0  0  0  0
 12 14  1  0  0  0  0
 13 11  1  0  0  0  0
 14 11  1  0  0  0  0
 15 16  1  0  0  0  0
 15 12  1  0  0  0  0
 16 13  1  0  0  0  0
 17 18  1  0  0  0  0
 18 19  1  0  0  0  0
 19 20  1  0  0  0  0
 20 21  1  0  0  0  0
 22 21  1  0  0  0  0
 24 28  1  0  0  0  0
 25 23  2  0  0  0  0
 26 25  1  0  0  0  0
 26 28  2  0  0  0  0
 27 23  1  6  0  0  0
 27 30  1  0  0  0  0
 28 29  1  0  0  0  0
 29 27  1  0  0  0  0
 29 30  1  0  0  0  0
 30 22  1  1  0  0  0
M  END
>  <MODEL>
5

>  <REMARK>
 VINA RESULT:      -6.9      3.359      5.227
  Name = 
  13 active torsions:
  status: ('A' for Active; 'I' for Inactive)
    1  A    between atoms: O_3  and  C_23
    2  A    between atoms: O_3  and  C_26
    3  A    between atoms: O_6  and  C_10
    4  A    between atoms: O_6  and  C_15
    5  A    between atoms: C_8  and  O_9
    6  A    between atoms: O_9  and  C_18
    7  A    between atoms: C_10  and  C_21
    8  A    between atoms: C_12  and  C_15
    9  A    between atoms: C_12  and  C_30
   10  A    between atoms: C_18  and  C_22
   11  A    between atoms: C_21  and  C_23
   12  A    between atoms: C_22  and  C_30
   13  A    between atoms: C_24  and  C_29
                            x       y       z     vdW  Elec       q    Type
                         _______ _______ _______ _____ _____    ______ ____

>  <TORSDO>
F 13

$$$$
=
 OpenBabel10232409183D

 30 32  0  0  1  0  0  0  0  0999 V2000
  188.8580  176.9050  144.2770 C   0  0  0  0  0  2  0  0  0  0  0  0
  191.1390  176.5800  145.0410 C   0  0  0  0  0  0  0  0  0  0  0  0
  191.9380  176.0670  145.9360 C   0  0  0  0  0  3  0  0  0  0  0  0
  190.3350  177.0860  144.1450 C   0  0  0  0  0  0  0  0  0  0  0  0
  191.5910  176.1280  147.3830 C   0  0  0  0  0  3  0  0  0  0  0  0
  190.8750  177.2820  147.6350 F   0  0  0  0  0  0  0  0  0  0  0  0
  192.7450  176.1300  148.1470 F   0  0  0  0  0  0  0  0  0  0  0  0
  190.8790  178.0080  143.1050 C   0  0  0  0  0  2  0  0  0  0  0  0
  191.5690  177.2380  141.9870 C   0  0  0  0  0  2  0  0  0  0  0  0
  191.1630  177.7200  140.7390 O   0  0  0  0  0  0  0  0  0  0  0  0
  190.1090  176.8880  140.3520 C   0  0  0  0  0  3  0  0  0  0  0  0
  188.8600  178.6220  139.0260 C   0  0  0  0  0  2  0  0  0  0  0  0
  190.4390  176.2090  139.0210 C   0  0  0  0  0  2  0  0  0  0  0  0
  188.8100  177.6920  140.2390 C   0  0  0  0  0  2  0  0  0  0  0  0
  189.0770  177.8430  137.8070 N   0  0  0  0  0  2  0  0  0  0  0  0
  190.4000  177.2270  137.8820 C   0  0  0  0  0  2  0  0  0  0  0  0
  188.3470  177.5880  145.5320 C   0  0  0  0  0  2  0  0  0  0  0  0
  187.1080  178.1710  145.2700 O   0  0  0  0  0  0  0  0  0  0  0  0
  186.3610  177.9600  146.4320 C   0  0  0  0  0  2  0  0  0  0  0  0
  185.0620  178.7470  146.3730 C   0  0  0  0  0  2  0  0  0  0  0  0
  184.7810  179.1990  144.9540 C   0  0  0  0  0  2  0  0  0  0  0  0
  183.8250  178.3600  144.3810 O   0  0  0  0  0  0  0  0  0  0  0  0
  185.6610  179.0310  141.3210 C   0  0  0  0  0  3  0  0  0  0  0  0
  181.4200  178.5860  140.6750 N   0  0  0  0  0  1  0  0  0  0  0  0
  185.1510  178.7970  140.0810 C   0  0  0  0  0  3  0  0  0  0  0  0
  183.6780  178.6790  139.8060 C   0  0  0  0  0  3  0  0  0  0  0  0
  184.7830  179.2580  142.5400 C   0  0  1  0  0  3  0  0  0  0  0  0
  182.8300  178.6830  140.8340 C   0  0  0  0  0  0  0  0  0  0  0  0
  183.4420  178.8020  142.0970 N   0  0  0  0  0  0  0  0  0  0  0  0
  184.3060  178.1020  143.0980 C   0  0  2  0  0  3  0  0  0  0  0  0
  1 17  1  0  0  0  0
  2  3  2  0  0  0  0
  3  5  1  0  0  0  0
  4  1  1  0  0  0  0
  4  2  2  0  0  0  0
  5  6  1  0  0  0  0
  5  7  1  0  0  0  0
  8  4  1  0  0  0  0
  9  8  1  0  0  0  0
 10  9  1  0  0  0  0
 11 10  1  0  0  0  0
 12 14  1  0  0  0  0
 13 11  1  0  0  0  0
 14 11  1  0  0  0  0
 15 16  1  0  0  0  0
 15 12  1  0  0  0  0
 16 13  1  0  0  0  0
 18 17  1  0  0  0  0
 18 19  1  0  0  0  0
 20 19  1  0  0  0  0
 21 20  1  0  0  0  0
 22 21  1  0  0  0  0
 24 28  1  0  0  0  0
 25 23  2  0  0  0  0
 26 25  1  0  0  0  0
 26 28  2  0  0  0  0
 27 23  1  6  0  0  0
 27 30  1  0  0  0  0
 28 29  1  0  0  0  0
 29 27  1  0  0  0  0
 29 30  1  0  0  0  0
 30 22  1  1  0  0  0
M  END
>  <MODEL>
6

>  <REMARK>
 VINA RESULT:      -6.8      3.435      7.822
  Name = 
  13 active torsions:
  status: ('A' for Active; 'I' for Inactive)
    1  A    between atoms: O_3  and  C_23
    2  A    between atoms: O_3  and  C_26
    3  A    between atoms: O_6  and  C_10
    4  A    between atoms: O_6  and  C_15
    5  A    between atoms: C_8  and  O_9
    6  A    between atoms: O_9  and  C_18
    7  A    between atoms: C_10  and  C_21
    8  A    between atoms: C_12  and  C_15
    9  A    between atoms: C_12  and  C_30
   10  A    between atoms: C_18  and  C_22
   11  A    between atoms: C_21  and  C_23
   12  A    between atoms: C_22  and  C_30
   13  A    between atoms: C_24  and  C_29
                            x       y       z     vdW  Elec       q    Type
                         _______ _______ _______ _____ _____    ______ ____

>  <TORSDO>
F 13

$$$$
=
 OpenBabel10232409183D

 30 32  0  0  1  0  0  0  0  0999 V2000
  185.1410  178.6310  142.7680 C   0  0  0  0  0  2  0  0  0  0  0  0
  186.1850  177.6770  144.7400 C   0  0  0  0  0  0  0  0  0  0  0  0
  186.1410  177.4980  146.0320 C   0  0  0  0  0  3  0  0  0  0  0  0
  186.2210  177.8550  143.4470 C   0  0  0  0  0  0  0  0  0  0  0  0
  185.7280  178.6070  146.9360 C   0  0  0  0  0  3  0  0  0  0  0  0
  184.4870  178.3240  147.4710 F   0  0  0  0  0  0  0  0  0  0  0  0
  185.6620  179.7940  146.2290 F   0  0  0  0  0  0  0  0  0  0  0  0
  187.4390  177.4540  142.6830 C   0  0  0  0  0  2  0  0  0  0  0  0
  188.6930  178.0930  143.2650 C   0  0  0  0  0  2  0  0  0  0  0  0
  189.3440  177.2010  144.1220 O   0  0  0  0  0  0  0  0  0  0  0  0
  190.1260  178.0030  144.9580 C   0  0  0  0  0  3  0  0  0  0  0  0
  189.7380  176.6740  147.0580 C   0  0  0  0  0  2  0  0  0  0  0  0
  191.5660  177.4860  144.9820 C   0  0  0  0  0  2  0  0  0  0  0  0
  189.5390  178.0270  146.3730 C   0  0  0  0  0  2  0  0  0  0  0  0
  191.1610  176.3440  147.1100 N   0  0  0  0  0  2  0  0  0  0  0  0
  191.6430  176.1630  145.7430 C   0  0  0  0  0  2  0  0  0  0  0  0
  185.5820  179.0590  141.3810 C   0  0  0  0  0  2  0  0  0  0  0  0
  184.7990  178.4120  140.4260 O   0  0  0  0  0  0  0  0  0  0  0  0
  185.1000  179.0550  139.2220 C   0  0  0  0  0  2  0  0  0  0  0  0
  185.1740  178.0440  138.0890 C   0  0  0  0  0  2  0  0  0  0  0  0
  186.6000  177.9080  137.5940 C   0  0  0  0  0  2  0  0  0  0  0  0
  187.4760  178.4050  138.5590 O   0  0  0  0  0  0  0  0  0  0  0  0
  190.0460  176.5010  136.8400 C   0  0  0  0  0  3  0  0  0  0  0  0
  191.0030  177.2690  140.9750 N   0  0  0  0  0  1  0  0  0  0  0  0
  191.3160  176.3700  137.3130 C   0  0  0  0  0  3  0  0  0  0  0  0
  191.6840  176.5860  138.7540 C   0  0  0  0  0  3  0  0  0  0  0  0
  188.8640  176.8190  137.7410 C   0  0  1  0  0  3  0  0  0  0  0  0
  190.7550  177.0430  139.5930 C   0  0  0  0  0  0  0  0  0  0  0  0
  189.4960  177.2750  139.0030 N   0  0  0  0  0  0  0  0  0  0  0  0
  188.7470  178.1490  138.0470 C   0  0  2  0  0  3  0  0  0  0  0  0
  1  4  1  0  0  0  0
  2  3  2  0  0  0  0
  3  5  1  0  0  0  0
  4  2  2  0  0  0  0
  5  6  1  0  0  0  0
  7  5  1  0  0  0  0
  8  9  1  0  0  0  0
  8  4  1  0  0  0  0
  9 10  1  0  0  0  0
 10 11  1  0  0  0  0
 11 13  1  0  0  0  0
 11 14  1  0  0  0  0
 12 15  1  0  0  0  0
 13 16  1  0  0  0  0
 14 12  1  0  0  0  0
 16 15  1  0  0  0  0
 17  1  1  0  0  0  0
 18 17  1  0  0  0  0
 19 18  1  0  0  0  0
 20 19  1  0  0  0  0
 21 20  1  0  0  0  0
 21 22  1  0  0  0  0
 23 25  2  0  0  0  0
 25 26  1  0  0  0  0
 26 28  2  0  0  0  0
 27 23  1  6  0  0  0
 27 30  1  0  0  0  0
 27 29  1  0  0  0  0
 28 24  1  0  0  0  0
 29 28  1  0  0  0  0
 30 22  1  1  0  0  0
 30 29  1  0  0  0  0
M  END
>  <MODEL>
7

>  <REMARK>
 VINA RESULT:      -6.7      2.718      7.622
  Name = 
  13 active torsions:
  status: ('A' for Active; 'I' for Inactive)
    1  A    between atoms: O_3  and  C_23
    2  A    between atoms: O_3  and  C_26
    3  A    between atoms: O_6  and  C_10
    4  A    between atoms: O_6  and  C_15
    5  A    between atoms: C_8  and  O_9
    6  A    between atoms: O_9  and  C_18
    7  A    between atoms: C_10  and  C_21
    8  A    between atoms: C_12  and  C_15
    9  A    between atoms: C_12  and  C_30
   10  A    between atoms: C_18  and  C_22
   11  A    between atoms: C_21  and  C_23
   12  A    between atoms: C_22  and  C_30
   13  A    between atoms: C_24  and  C_29
                            x       y       z     vdW  Elec       q    Type
                         _______ _______ _______ _____ _____    ______ ____

>  <TORSDO>
F 13

$$$$
=
 OpenBabel10232409183D

 30 32  0  0  1  0  0  0  0  0999 V2000
  184.2320  178.7460  142.3930 C   0  0  0  0  0  2  0  0  0  0  0  0
  185.8780  178.1160  144.0620 C   0  0  0  0  0  0  0  0  0  0  0  0
  186.1220  177.8100  145.3070 C   0  0  0  0  0  3  0  0  0  0  0  0
  185.6260  178.4170  142.8170 C   0  0  0  0  0  0  0  0  0  0  0  0
  185.4660  178.5620  146.4130 C   0  0  0  0  0  3  0  0  0  0  0  0
  184.0980  178.3880  146.3380 F   0  0  0  0  0  0  0  0  0  0  0  0
  185.7620  179.9090  146.3110 F   0  0  0  0  0  0  0  0  0  0  0  0
  186.7590  178.6240  141.8680 C   0  0  0  0  0  2  0  0  0  0  0  0
  187.8370  177.5640  142.0500 C   0  0  0  0  0  2  0  0  0  0  0  0
  189.0310  178.1500  142.4800 O   0  0  0  0  0  0  0  0  0  0  0  0
  189.8600  177.0780  142.8230 C   0  0  0  0  0  3  0  0  0  0  0  0
  191.5960  178.4440  144.0260 C   0  0  0  0  0  2  0  0  0  0  0  0
  189.4550  176.5190  144.1880 C   0  0  0  0  0  2  0  0  0  0  0  0
  191.3260  177.5220  142.8360 C   0  0  0  0  0  2  0  0  0  0  0  0
  191.2670  177.7580  145.2750 N   0  0  0  0  0  2  0  0  0  0  0  0
  189.8290  177.5030  145.2970 C   0  0  0  0  0  2  0  0  0  0  0  0
  183.8120  177.8780  141.2220 C   0  0  0  0  0  2  0  0  0  0  0  0
  183.5340  178.6890  140.1220 O   0  0  0  0  0  0  0  0  0  0  0  0
  183.7210  177.8600  139.0120 C   0  0  0  0  0  2  0  0  0  0  0  0
  185.0780  178.1230  138.3810 C   0  0  0  0  0  2  0  0  0  0  0  0
  185.2470  177.2920  137.1240 C   0  0  0  0  0  2  0  0  0  0  0  0
  186.5210  177.5030  136.5960 O   0  0  0  0  0  0  0  0  0  0  0  0
  189.3210  178.4700  138.6950 C   0  0  0  0  0  3  0  0  0  0  0  0
  189.6610  174.4450  137.1860 N   0  0  0  0  0  1  0  0  0  0  0  0
  190.1780  177.5710  139.2530 C   0  0  0  0  0  3  0  0  0  0  0  0
  190.3590  176.1740  138.7310 C   0  0  0  0  0  3  0  0  0  0  0  0
  188.5080  178.1640  137.4490 C   0  0  1  0  0  3  0  0  0  0  0  0
  189.5620  175.7450  137.7520 C   0  0  0  0  0  0  0  0  0  0  0  0
  188.6150  176.6910  137.3120 N   0  0  0  0  0  0  0  0  0  0  0  0
  187.3750  177.4350  137.6960 C   0  0  2  0  0  3  0  0  0  0  0  0
  1  4  1  0  0  0  0
  2  3  2  0  0  0  0
  3  5  1  0  0  0  0
  4  2  2  0  0  0  0
  6  5  1  0  0  0  0
  7  5  1  0  0  0  0
  8  9  1  0  0  0  0
  8  4  1  0  0  0  0
  9 10  1  0  0  0  0
 10 11  1  0  0  0  0
 11 14  1  0  0  0  0
 11 13  1  0  0  0  0
 12 15  1  0  0  0  0
 13 16  1  0  0  0  0
 14 12  1  0  0  0  0
 15 16  1  0  0  0  0
 17  1  1  0  0  0  0
 18 17  1  0  0  0  0
 19 18  1  0  0  0  0
 20 19  1  0  0  0  0
 21 20  1  0  0  0  0
 22 21  1  0  0  0  0
 23 25  2  0  0  0  0
 24 28  1  0  0  0  0
 26 25  1  0  0  0  0
 27 30  1  0  0  0  0
 27 23  1  1  0  0  0
 28 26  2  0  0  0  0
 29 27  1  0  0  0  0
 29 30  1  0  0  0  0
 29 28  1  0  0  0  0
 30 22  1  6  0  0  0
M  END
>  <MODEL>
8

>  <REMARK>
 VINA RESULT:      -6.7      3.019      7.437
  Name = 
  13 active torsions:
  status: ('A' for Active; 'I' for Inactive)
    1  A    between atoms: O_3  and  C_23
    2  A    between atoms: O_3  and  C_26
    3  A    between atoms: O_6  and  C_10
    4  A    between atoms: O_6  and  C_15
    5  A    between atoms: C_8  and  O_9
    6  A    between atoms: O_9  and  C_18
    7  A    between atoms: C_10  and  C_21
    8  A    between atoms: C_12  and  C_15
    9  A    between atoms: C_12  and  C_30
   10  A    between atoms: C_18  and  C_22
   11  A    between atoms: C_21  and  C_23
   12  A    between atoms: C_22  and  C_30
   13  A    between atoms: C_24  and  C_29
                            x       y       z     vdW  Elec       q    Type
                         _______ _______ _______ _____ _____    ______ ____

>  <TORSDO>
F 13

$$$$
=
 OpenBabel10232409183D

 30 32  0  0  1  0  0  0  0  0999 V2000
  187.8590  176.7810  143.0820 C   0  0  0  0  0  2  0  0  0  0  0  0
  190.1000  177.6930  142.8850 C   0  0  0  0  0  0  0  0  0  0  0  0
  191.3330  177.6870  143.3130 C   0  0  0  0  0  3  0  0  0  0  0  0
  188.8660  177.6900  142.4570 C   0  0  0  0  0  0  0  0  0  0  0  0
  191.6270  177.6010  144.7690 C   0  0  0  0  0  3  0  0  0  0  0  0
  191.3970  176.3120  145.2090 F   0  0  0  0  0  0  0  0  0  0  0  0
  190.8140  178.4750  145.4690 F   0  0  0  0  0  0  0  0  0  0  0  0
  188.4230  178.7310  141.4840 C   0  0  0  0  0  2  0  0  0  0  0  0
  187.8120  178.1040  140.2390 C   0  0  0  0  0  2  0  0  0  0  0  0
  188.6840  177.1610  139.6870 O   0  0  0  0  0  0  0  0  0  0  0  0
  189.4950  177.8850  138.8080 C   0  0  0  0  0  3  0  0  0  0  0  0
  190.1190  175.9390  137.3420 C   0  0  0  0  0  2  0  0  0  0  0  0
  188.6590  178.4080  137.6370 C   0  0  0  0  0  2  0  0  0  0  0  0
  190.6440  177.0090  138.3000 C   0  0  0  0  0  2  0  0  0  0  0  0
  189.4330  176.5700  136.2150 N   0  0  0  0  0  2  0  0  0  0  0  0
  188.2460  177.2550  136.7230 C   0  0  0  0  0  2  0  0  0  0  0  0
  187.9650  176.8280  144.5940 C   0  0  0  0  0  2  0  0  0  0  0  0
  187.5330  178.0740  145.0490 O   0  0  0  0  0  0  0  0  0  0  0  0
  187.4830  177.9480  146.4400 C   0  0  0  0  0  2  0  0  0  0  0  0
  186.2930  178.7150  146.9960 C   0  0  0  0  0  2  0  0  0  0  0  0
  185.0000  178.1800  146.4130 C   0  0  0  0  0  2  0  0  0  0  0  0
  184.4360  179.1420  145.5750 O   0  0  0  0  0  0  0  0  0  0  0  0
  184.6660  178.4890  142.0110 C   0  0  0  0  0  3  0  0  0  0  0  0
  180.6400  179.3240  143.3120 N   0  0  0  0  0  1  0  0  0  0  0  0
  183.5890  178.1690  141.2420 C   0  0  0  0  0  3  0  0  0  0  0  0
  182.1740  178.4810  141.6380 C   0  0  0  0  0  3  0  0  0  0  0  0
  184.5430  179.2510  143.3200 C   0  0  1  0  0  3  0  0  0  0  0  0
  181.9420  178.9870  142.8500 C   0  0  0  0  0  0  0  0  0  0  0  0
  183.0950  179.1730  143.6370 N   0  0  0  0  0  0  0  0  0  0  0  0
  184.1820  178.4660  144.3830 C   0  0  2  0  0  3  0  0  0  0  0  0
  1 17  1  0  0  0  0
  2  3  2  0  0  0  0
  3  5  1  0  0  0  0
  4  2  2  0  0  0  0
  4  1  1  0  0  0  0
  5  6  1  0  0  0  0
  5  7  1  0  0  0  0
  8  4  1  0  0  0  0
  9  8  1  0  0  0  0
 10  9  1  0  0  0  0
 11 10  1  0  0  0  0
 12 14  1  0  0  0  0
 13 11  1  0  0  0  0
 14 11  1  0  0  0  0
 15 16  1  0  0  0  0
 15 12  1  0  0  0  0
 16 13  1  0  0  0  0
 17 18  1  0  0  0  0
 18 19  1  0  0  0  0
 19 20  1  0  0  0  0
 21 20  1  0  0  0  0
 22 21  1  0  0  0  0
 25 26  1  0  0  0  0
 25 23  2  0  0  0  0
 26 28  2  0  0  0  0
 27 23  1  6  0  0  0
 27 29  1  0  0  0  0
 27 30  1  0  0  0  0
 28 24  1  0  0  0  0
 28 29  1  0  0  0  0
 29 30  1  0  0  0  0
 30 22  1  1  0  0  0
M  END
>  <MODEL>
9

>  <REMARK>
 VINA RESULT:      -6.6      3.973      7.218
  Name = 
  13 active torsions:
  status: ('A' for Active; 'I' for Inactive)
    1  A    between atoms: O_3  and  C_23
    2  A    between atoms: O_3  and  C_26
    3  A    between atoms: O_6  and  C_10
    4  A    between atoms: O_6  and  C_15
    5  A    between atoms: C_8  and  O_9
    6  A    between atoms: O_9  and  C_18
    7  A    between atoms: C_10  and  C_21
    8  A    between atoms: C_12  and  C_15
    9  A    between atoms: C_12  and  C_30
   10  A    between atoms: C_18  and  C_22
   11  A    between atoms: C_21  and  C_23
   12  A    between atoms: C_22  and  C_30
   13  A    between atoms: C_24  and  C_29
                            x       y       z     vdW  Elec       q    Type
                         _______ _______ _______ _____ _____    ______ ____

>  <TORSDO>
F 13

$$$$
