=
 OpenBabel10232410333D

 38 41  0  0  1  0  0  0  0  0999 V2000
  188.5090  178.1920  137.9580 C   0  0  2  0  0  3  0  0  0  0  0  0
  193.3670  172.4140  135.1110 N   0  0  0  0  0  1  0  0  0  0  0  0
  190.7310  177.0480  137.8700 C   0  0  1  0  0  3  0  0  0  0  0  0
  191.9040  177.2120  140.1050 C   0  0  1  0  0  3  0  0  0  0  0  0
  189.2690  176.9900  137.4300 C   0  0  1  0  0  3  0  0  0  0  0  0
  193.0390  176.1870  137.3320 C   0  0  0  0  0  0  0  0  0  0  0  0
  190.7410  176.9380  139.3070 N   0  0  1  0  0  0  0  0  0  0  0  0
  193.1620  177.1690  139.6380 C   0  0  0  0  0  3  0  0  0  0  0  0
  193.7770  174.8030  135.4530 N   0  0  0  0  0  0  0  0  0  0  0  0
  192.9430  173.6530  135.6650 C   0  0  0  0  0  0  0  0  0  0  0  0
  193.8540  175.8920  136.1540 C   0  0  0  0  0  3  0  0  0  0  0  0
  189.4060  176.8620  139.8670 C   0  0  0  0  0  2  0  0  0  0  0  0
  191.7420  173.6870  136.2470 C   0  0  0  0  0  3  0  0  0  0  0  0
  191.0460  174.8340  136.8450 C   0  0  0  0  0  3  0  0  0  0  0  0
  193.6370  176.7600  138.3380 N   0  0  0  0  0  0  0  0  0  0  0  0
  188.4360  176.8660  138.6950 C   0  0  1  0  0  3  0  0  0  0  0  0
  191.5890  175.9690  137.2920 C   0  0  1  0  0  3  0  0  0  0  0  0
  191.7420  177.5830  141.4870 C   0  0  0  0  0  0  0  0  0  0  0  0
  191.6100  177.8880  142.6460 C   0  0  0  0  0  0  0  0  0  0  0  0
  191.4600  178.2530  144.0580 C   0  0  0  0  0  2  0  0  0  0  0  0
  190.5930  177.2340  144.7760 C   0  0  0  0  0  2  0  0  0  0  0  0
  189.3310  177.8410  145.1720 N   0  0  0  0  0  2  0  0  0  0  0  0
  188.4440  175.9630  143.5240 O   0  0  0  0  0  0  0  0  0  0  0  0
  188.1290  177.3440  144.0290 S   0  0  0  0  0  0  0  0  0  0  0  0
  188.0960  178.3040  142.8730 O   0  0  0  0  0  0  0  0  0  0  0  0
  186.5350  177.3380  144.8190 C   0  0  0  0  0  2  0  0  0  0  0  0
  185.4920  178.4680  146.7540 C   0  0  0  0  0  1  0  0  0  0  0  0
  186.6830  177.6570  146.2940 C   0  0  0  0  0  2  0  0  0  0  0  0
  187.2440  178.3800  137.1470 C   0  0  0  0  0  2  0  0  0  0  0  0
  185.1870  177.2440  137.6660 N   0  0  0  0  0  2  0  0  0  0  0  0
  186.0530  178.1420  138.0080 C   0  0  0  0  0  0  0  0  0  0  0  0
  185.8370  178.9670  139.1560 N   0  0  0  0  0  2  0  0  0  0  0  0
  184.6540  178.8660  139.9990 C   0  0  0  0  0  2  0  0  0  0  0  0
  185.0620  178.7550  141.4580 C   0  0  0  0  0  2  0  0  0  0  0  0
  183.9260  178.1700  142.2820 C   0  0  0  0  0  2  0  0  0  0  0  0
  183.5050  179.1250  143.3880 C   0  0  1  0  0  3  0  0  0  0  0  0
  183.1400  178.3980  144.5050 F   0  0  0  0  0  0  0  0  0  0  0  0
  184.5680  179.9680  143.7140 O   0  0  0  0  0  1  0  0  0  0  0  0
  1 29  1  6  0  0  0
  1 16  1  0  0  0  0
  2 10  1  0  0  0  0
  3  7  1  0  0  0  0
  4 18  1  0  0  0  0
  5  3  1  0  0  0  0
  5  1  1  0  0  0  0
  5 16  1  0  0  0  0
  6 15  1  0  0  0  0
  7 12  1  0  0  0  0
  7  4  1  0  0  0  0
  8  4  1  0  0  0  0
  9 10  2  0  0  0  0
  9 11  1  0  0  0  0
 10 13  1  0  0  0  0
 11  6  2  0  0  0  0
 13 14  2  0  0  0  0
 14 17  1  0  0  0  0
 15  8  2  0  0  0  0
 16 12  1  0  0  0  0
 17  6  1  0  0  0  0
 17  3  1  0  0  0  0
 18 19  3  0  0  0  0
 19 20  1  0  0  0  0
 20 21  1  0  0  0  0
 21 22  1  0  0  0  0
 23 24  2  0  0  0  0
 24 26  1  0  0  0  0
 24 22  1  0  0  0  0
 25 24  2  0  0  0  0
 26 28  1  0  0  0  0
 28 27  1  0  0  0  0
 29 31  1  0  0  0  0
 30 31  2  0  0  0  0
 31 32  1  0  0  0  0
 32 33  1  0  0  0  0
 33 34  1  0  0  0  0
 34 35  1  0  0  0  0
 35 36  1  0  0  0  0
 36 38  1  0  0  0  0
 36 37  1  0  0  0  0
M  END
>  <MODEL>
1

>  <REMARK>
 VINA RESULT:      -7.5      0.000      0.000
  Name = 
  13 active torsions:
  status: ('A' for Active; 'I' for Inactive)
    1  A    between atoms: C_1  and  C_23
    2  A    between atoms: C_2  and  S_13
    3  A    between atoms: C_2  and  C_37
    4  A    between atoms: C_5  and  C_27
    5  A    between atoms: C_11  and  C_14
    6  A    between atoms: S_13  and  N_31
    7  A    between atoms: C_14  and  C_36
    8  A    between atoms: C_18  and  C_28
    9  A    between atoms: C_18  and  C_32
   10  A    between atoms: C_23  and  C_29
   11  A    between atoms: C_26  and  N_35
   12  A    between atoms: C_26  and  C_36
   13  A    between atoms: N_31  and  C_32
                            x       y       z     vdW  Elec       q    Type
                         _______ _______ _______ _____ _____    ______ ____

>  <TORSDO>
F 13

$$$$
=
 OpenBabel10232410333D

 38 41  0  0  1  0  0  0  0  0999 V2000
  188.5070  178.4100  137.8970 C   0  0  2  0  0  3  0  0  0  0  0  0
  193.5420  172.4520  135.8350 N   0  0  0  0  0  1  0  0  0  0  0  0
  190.6770  177.1930  138.1500 C   0  0  1  0  0  3  0  0  0  0  0  0
  191.5020  177.3340  140.5370 C   0  0  1  0  0  3  0  0  0  0  0  0
  189.2970  177.1800  137.4930 C   0  0  1  0  0  3  0  0  0  0  0  0
  193.0090  176.2510  137.9710 C   0  0  0  0  0  0  0  0  0  0  0  0
  190.4650  177.0940  139.5730 N   0  0  1  0  0  0  0  0  0  0  0  0
  192.8140  177.2460  140.2660 C   0  0  0  0  0  3  0  0  0  0  0  0
  193.9760  174.8290  136.2290 N   0  0  0  0  0  0  0  0  0  0  0  0
  193.0810  173.7090  136.3150 C   0  0  0  0  0  0  0  0  0  0  0  0
  193.9830  175.9200  136.9320 C   0  0  0  0  0  3  0  0  0  0  0  0
  189.0580  177.0660  139.9230 C   0  0  0  0  0  2  0  0  0  0  0  0
  191.8080  173.7880  136.7080 C   0  0  0  0  0  3  0  0  0  0  0  0
  191.0680  174.9620  137.1900 C   0  0  0  0  0  3  0  0  0  0  0  0
  193.4670  176.8120  139.0540 N   0  0  0  0  0  0  0  0  0  0  0  0
  188.2780  177.0930  138.6170 C   0  0  1  0  0  3  0  0  0  0  0  0
  191.5760  176.0810  137.7120 C   0  0  1  0  0  3  0  0  0  0  0  0
  191.1460  177.7210  141.8770 C   0  0  0  0  0  0  0  0  0  0  0  0
  190.8430  178.0500  142.9970 C   0  0  0  0  0  0  0  0  0  0  0  0
  190.4650  178.4550  144.3550 C   0  0  0  0  0  2  0  0  0  0  0  0
  189.6640  177.3560  145.0290 C   0  0  0  0  0  2  0  0  0  0  0  0
  190.0180  177.2710  146.4370 N   0  0  0  0  0  2  0  0  0  0  0  0
  188.7510  178.7850  148.2060 O   0  0  0  0  0  0  0  0  0  0  0  0
  188.5800  177.5540  147.3580 S   0  0  0  0  0  0  0  0  0  0  0  0
  188.3000  176.3720  148.2440 O   0  0  0  0  0  0  0  0  0  0  0  0
  187.2070  177.7830  146.2490 C   0  0  0  0  0  2  0  0  0  0  0  0
  184.8430  178.2970  146.7510 C   0  0  0  0  0  1  0  0  0  0  0  0
  186.2590  178.8270  146.8030 C   0  0  0  0  0  2  0  0  0  0  0  0
  187.3870  178.6340  136.9030 C   0  0  0  0  0  2  0  0  0  0  0  0
  185.4080  177.2740  137.0460 N   0  0  0  0  0  2  0  0  0  0  0  0
  186.0830  178.2680  137.5220 C   0  0  0  0  0  0  0  0  0  0  0  0
  185.5540  179.0740  138.5790 N   0  0  0  0  0  2  0  0  0  0  0  0
  184.2470  178.8450  139.1760 C   0  0  0  0  0  2  0  0  0  0  0  0
  184.3870  178.6490  140.6760 C   0  0  0  0  0  2  0  0  0  0  0  0
  185.8460  178.7590  141.0900 C   0  0  0  0  0  2  0  0  0  0  0  0
  186.0520  178.2560  142.5100 C   0  0  1  0  0  3  0  0  0  0  0  0
  187.3980  178.2990  142.8200 F   0  0  0  0  0  0  0  0  0  0  0  0
  185.3470  179.0630  143.4030 O   0  0  0  0  0  1  0  0  0  0  0  0
  1 29  1  6  0  0  0
  1 16  1  0  0  0  0
  2 10  1  0  0  0  0
  3  7  1  0  0  0  0
  4 18  1  0  0  0  0
  5  1  1  0  0  0  0
  5  3  1  0  0  0  0
  5 16  1  0  0  0  0
  6 15  1  0  0  0  0
  7 12  1  0  0  0  0
  7  4  1  0  0  0  0
  8  4  1  0  0  0  0
  9 10  2  0  0  0  0
  9 11  1  0  0  0  0
 10 13  1  0  0  0  0
 11  6  2  0  0  0  0
 13 14  2  0  0  0  0
 14 17  1  0  0  0  0
 15  8  2  0  0  0  0
 16 12  1  0  0  0  0
 17  6  1  0  0  0  0
 17  3  1  0  0  0  0
 18 19  3  0  0  0  0
 19 20  1  0  0  0  0
 20 21  1  0  0  0  0
 21 22  1  0  0  0  0
 22 24  1  0  0  0  0
 24 23  2  0  0  0  0
 24 25  2  0  0  0  0
 26 28  1  0  0  0  0
 26 24  1  0  0  0  0
 27 28  1  0  0  0  0
 29 31  1  0  0  0  0
 30 31  2  0  0  0  0
 31 32  1  0  0  0  0
 32 33  1  0  0  0  0
 33 34  1  0  0  0  0
 34 35  1  0  0  0  0
 35 36  1  0  0  0  0
 36 37  1  0  0  0  0
 36 38  1  0  0  0  0
M  END
>  <MODEL>
2

>  <REMARK>
 VINA RESULT:      -7.3      1.651      1.843
  Name = 
  13 active torsions:
  status: ('A' for Active; 'I' for Inactive)
    1  A    between atoms: C_1  and  C_23
    2  A    between atoms: C_2  and  S_13
    3  A    between atoms: C_2  and  C_37
    4  A    between atoms: C_5  and  C_27
    5  A    between atoms: C_11  and  C_14
    6  A    between atoms: S_13  and  N_31
    7  A    between atoms: C_14  and  C_36
    8  A    between atoms: C_18  and  C_28
    9  A    between atoms: C_18  and  C_32
   10  A    between atoms: C_23  and  C_29
   11  A    between atoms: C_26  and  N_35
   12  A    between atoms: C_26  and  C_36
   13  A    between atoms: N_31  and  C_32
                            x       y       z     vdW  Elec       q    Type
                         _______ _______ _______ _____ _____    ______ ____

>  <TORSDO>
F 13

$$$$
=
 OpenBabel10232410333D

 38 41  0  0  1  0  0  0  0  0999 V2000
  189.6450  177.0170  140.9340 C   0  0  2  0  0  3  0  0  0  0  0  0
  195.4210  175.4760  135.5150 N   0  0  0  0  0  1  0  0  0  0  0  0
  190.4510  175.8790  138.8580 C   0  0  1  0  0  3  0  0  0  0  0  0
  188.5520  175.5750  137.2170 C   0  0  1  0  0  3  0  0  0  0  0  0
  190.7820  176.9120  139.9340 C   0  0  1  0  0  3  0  0  0  0  0  0
  191.4810  174.3790  137.1130 C   0  0  0  0  0  0  0  0  0  0  0  0
  189.3120  176.3800  138.1310 N   0  0  1  0  0  0  0  0  0  0  0  0
  189.0240  174.4720  136.6150 C   0  0  0  0  0  3  0  0  0  0  0  0
  193.8450  173.9670  136.6230 N   0  0  0  0  0  0  0  0  0  0  0  0
  194.2590  175.3080  136.3170 C   0  0  0  0  0  0  0  0  0  0  0  0
  192.6650  173.5360  136.9500 C   0  0  0  0  0  3  0  0  0  0  0  0
  188.8240  177.6380  138.6630 C   0  0  0  0  0  2  0  0  0  0  0  0
  193.6980  176.4070  136.8250 C   0  0  0  0  0  3  0  0  0  0  0  0
  192.5370  176.5140  137.7190 C   0  0  0  0  0  3  0  0  0  0  0  0
  190.3560  173.9160  136.6480 N   0  0  0  0  0  0  0  0  0  0  0  0
  189.7550  178.0240  139.8030 C   0  0  1  0  0  3  0  0  0  0  0  0
  191.5660  175.6140  137.8980 C   0  0  1  0  0  3  0  0  0  0  0  0
  187.1870  175.9320  136.9270 C   0  0  0  0  0  0  0  0  0  0  0  0
  186.0430  176.2350  136.6920 C   0  0  0  0  0  0  0  0  0  0  0  0
  184.6540  176.6110  136.4110 C   0  0  0  0  0  2  0  0  0  0  0  0
  183.9770  177.1060  137.6770 C   0  0  0  0  0  2  0  0  0  0  0  0
  184.8830  177.9650  138.4250 N   0  0  0  0  0  2  0  0  0  0  0  0
  182.4660  178.9000  138.9850 O   0  0  0  0  0  0  0  0  0  0  0  0
  183.9180  179.0790  139.3340 S   0  0  0  0  0  0  0  0  0  0  0  0
  184.3370  180.4890  139.0230 O   0  0  0  0  0  0  0  0  0  0  0  0
  184.1520  178.7770  141.0720 C   0  0  0  0  0  2  0  0  0  0  0  0
  186.0640  178.1720  142.5160 C   0  0  0  0  0  1  0  0  0  0  0  0
  185.5620  179.1540  141.4810 C   0  0  0  0  0  2  0  0  0  0  0  0
  190.1600  177.6480  142.2110 C   0  0  0  0  0  2  0  0  0  0  0  0
  188.7500  175.9720  143.2080 N   0  0  0  0  0  2  0  0  0  0  0  0
  189.5380  176.9810  143.3890 C   0  0  0  0  0  0  0  0  0  0  0  0
  189.7520  177.5180  144.6970 N   0  0  0  0  0  2  0  0  0  0  0  0
  189.1090  176.9870  145.8900 C   0  0  0  0  0  2  0  0  0  0  0  0
  188.1680  178.0240  146.4790 C   0  0  0  0  0  2  0  0  0  0  0  0
  186.7300  177.7110  146.0960 C   0  0  0  0  0  2  0  0  0  0  0  0
  185.7950  178.8350  146.5120 C   0  0  1  0  0  3  0  0  0  0  0  0
  185.5950  179.6850  145.4400 F   0  0  0  0  0  0  0  0  0  0  0  0
  184.5690  178.3060  146.9160 O   0  0  0  0  0  1  0  0  0  0  0  0
  1 29  1  1  0  0  0
  2 10  1  0  0  0  0
  3  5  1  0  0  0  0
  4  7  1  0  0  0  0
  5  1  1  0  0  0  0
  6 17  1  0  0  0  0
  7 12  1  0  0  0  0
  7  3  1  0  0  0  0
  8 15  2  0  0  0  0
  8  4  1  0  0  0  0
  9 11  1  0  0  0  0
 10  9  2  0  0  0  0
 10 13  1  0  0  0  0
 11  6  2  0  0  0  0
 12 16  1  0  0  0  0
 13 14  2  0  0  0  0
 14 17  1  0  0  0  0
 15  6  1  0  0  0  0
 16  5  1  0  0  0  0
 16  1  1  0  0  0  0
 17  3  1  0  0  0  0
 18  4  1  0  0  0  0
 19 18  3  0  0  0  0
 20 19  1  0  0  0  0
 20 21  1  0  0  0  0
 21 22  1  0  0  0  0
 22 24  1  0  0  0  0
 23 24  2  0  0  0  0
 24 26  1  0  0  0  0
 25 24  2  0  0  0  0
 26 28  1  0  0  0  0
 28 27  1  0  0  0  0
 29 31  1  0  0  0  0
 30 31  2  0  0  0  0
 31 32  1  0  0  0  0
 32 33  1  0  0  0  0
 33 34  1  0  0  0  0
 35 34  1  0  0  0  0
 35 36  1  0  0  0  0
 36 38  1  0  0  0  0
 37 36  1  0  0  0  0
M  END
>  <MODEL>
3

>  <REMARK>
 VINA RESULT:      -7.2      2.326      5.317
  Name = 
  13 active torsions:
  status: ('A' for Active; 'I' for Inactive)
    1  A    between atoms: C_1  and  C_23
    2  A    between atoms: C_2  and  S_13
    3  A    between atoms: C_2  and  C_37
    4  A    between atoms: C_5  and  C_27
    5  A    between atoms: C_11  and  C_14
    6  A    between atoms: S_13  and  N_31
    7  A    between atoms: C_14  and  C_36
    8  A    between atoms: C_18  and  C_28
    9  A    between atoms: C_18  and  C_32
   10  A    between atoms: C_23  and  C_29
   11  A    between atoms: C_26  and  N_35
   12  A    between atoms: C_26  and  C_36
   13  A    between atoms: N_31  and  C_32
                            x       y       z     vdW  Elec       q    Type
                         _______ _______ _______ _____ _____    ______ ____

>  <TORSDO>
F 13

$$$$
=
 OpenBabel10232410333D

 38 41  0  0  1  0  0  0  0  0999 V2000
  189.9530  176.9310  140.9990 C   0  0  2  0  0  3  0  0  0  0  0  0
  195.4370  175.5500  135.2460 N   0  0  0  0  0  1  0  0  0  0  0  0
  190.6700  175.8050  138.8850 C   0  0  1  0  0  3  0  0  0  0  0  0
  188.6860  175.4210  137.3650 C   0  0  1  0  0  3  0  0  0  0  0  0
  191.0290  176.8570  139.9330 C   0  0  1  0  0  3  0  0  0  0  0  0
  191.6440  174.3280  137.0890 C   0  0  0  0  0  0  0  0  0  0  0  0
  189.4720  176.2590  138.2260 N   0  0  1  0  0  0  0  0  0  0  0  0
  189.1590  174.3300  136.7430 C   0  0  0  0  0  3  0  0  0  0  0  0
  193.9860  173.9960  136.4580 N   0  0  0  0  0  0  0  0  0  0  0  0
  194.3340  175.3470  136.1180 C   0  0  0  0  0  0  0  0  0  0  0  0
  192.8450  173.5250  136.8580 C   0  0  0  0  0  3  0  0  0  0  0  0
  188.9730  177.5040  138.7800 C   0  0  0  0  0  2  0  0  0  0  0  0
  193.7650  176.4300  136.6540 C   0  0  0  0  0  3  0  0  0  0  0  0
  192.6580  176.5040  137.6160 C   0  0  0  0  0  3  0  0  0  0  0  0
  190.5100  173.8220  136.6970 N   0  0  0  0  0  0  0  0  0  0  0  0
  189.9570  177.9320  139.8580 C   0  0  1  0  0  3  0  0  0  0  0  0
  191.7330  175.5720  137.8600 C   0  0  1  0  0  3  0  0  0  0  0  0
  187.2940  175.7270  137.1580 C   0  0  0  0  0  0  0  0  0  0  0  0
  186.1300  175.9910  136.9840 C   0  0  0  0  0  0  0  0  0  0  0  0
  184.7180  176.3200  136.7650 C   0  0  0  0  0  2  0  0  0  0  0  0
  184.4340  177.7440  137.2070 C   0  0  0  0  0  2  0  0  0  0  0  0
  183.6940  177.7400  138.4600 N   0  0  0  0  0  2  0  0  0  0  0  0
  184.1280  180.2590  139.1600 O   0  0  0  0  0  0  0  0  0  0  0  0
  184.4780  178.8460  139.5370 S   0  0  0  0  0  0  0  0  0  0  0  0
  185.9680  178.6620  139.4610 O   0  0  0  0  0  0  0  0  0  0  0  0
  183.9410  178.5250  141.2030 C   0  0  0  0  0  2  0  0  0  0  0  0
  184.5760  178.8700  143.5660 C   0  0  0  0  0  1  0  0  0  0  0  0
  185.1050  178.6720  142.1620 C   0  0  0  0  0  2  0  0  0  0  0  0
  190.5210  177.5890  142.2390 C   0  0  0  0  0  2  0  0  0  0  0  0
  188.6530  176.4820  143.2760 N   0  0  0  0  0  2  0  0  0  0  0  0
  189.6590  177.2830  143.4140 C   0  0  0  0  0  0  0  0  0  0  0  0
  189.9020  177.9450  144.6580 N   0  0  0  0  0  2  0  0  0  0  0  0
  189.0540  177.7770  145.8290 C   0  0  0  0  0  2  0  0  0  0  0  0
  189.7030  176.8130  146.8080 C   0  0  0  0  0  2  0  0  0  0  0  0
  191.2180  176.9100  146.7200 C   0  0  0  0  0  2  0  0  0  0  0  0
  191.8820  175.7210  147.3960 C   0  0  1  0  0  3  0  0  0  0  0  0
  192.4940  174.9340  146.4380 F   0  0  0  0  0  0  0  0  0  0  0  0
  192.8410  176.1690  148.3050 O   0  0  0  0  0  1  0  0  0  0  0  0
  1 29  1  1  0  0  0
  2 10  1  0  0  0  0
  3  5  1  0  0  0  0
  4  7  1  0  0  0  0
  5  1  1  0  0  0  0
  6 17  1  0  0  0  0
  7 12  1  0  0  0  0
  7  3  1  0  0  0  0
  8  4  1  0  0  0  0
  9 11  1  0  0  0  0
 10  9  2  0  0  0  0
 10 13  1  0  0  0  0
 11  6  2  0  0  0  0
 12 16  1  0  0  0  0
 13 14  2  0  0  0  0
 14 17  1  0  0  0  0
 15  8  2  0  0  0  0
 15  6  1  0  0  0  0
 16  5  1  0  0  0  0
 16  1  1  0  0  0  0
 17  3  1  0  0  0  0
 18  4  1  0  0  0  0
 19 18  3  0  0  0  0
 20 19  1  0  0  0  0
 20 21  1  0  0  0  0
 21 22  1  0  0  0  0
 22 24  1  0  0  0  0
 23 24  2  0  0  0  0
 24 26  1  0  0  0  0
 25 24  2  0  0  0  0
 26 28  1  0  0  0  0
 28 27  1  0  0  0  0
 29 31  1  0  0  0  0
 30 31  2  0  0  0  0
 31 32  1  0  0  0  0
 32 33  1  0  0  0  0
 33 34  1  0  0  0  0
 35 34  1  0  0  0  0
 35 36  1  0  0  0  0
 36 38  1  0  0  0  0
 37 36  1  0  0  0  0
M  END
>  <MODEL>
4

>  <REMARK>
 VINA RESULT:      -7.0      2.897      5.993
  Name = 
  13 active torsions:
  status: ('A' for Active; 'I' for Inactive)
    1  A    between atoms: C_1  and  C_23
    2  A    between atoms: C_2  and  S_13
    3  A    between atoms: C_2  and  C_37
    4  A    between atoms: C_5  and  C_27
    5  A    between atoms: C_11  and  C_14
    6  A    between atoms: S_13  and  N_31
    7  A    between atoms: C_14  and  C_36
    8  A    between atoms: C_18  and  C_28
    9  A    between atoms: C_18  and  C_32
   10  A    between atoms: C_23  and  C_29
   11  A    between atoms: C_26  and  N_35
   12  A    between atoms: C_26  and  C_36
   13  A    between atoms: N_31  and  C_32
                            x       y       z     vdW  Elec       q    Type
                         _______ _______ _______ _____ _____    ______ ____

>  <TORSDO>
F 13

$$$$
=
 OpenBabel10232410333D

 38 41  0  0  1  0  0  0  0  0999 V2000
  188.4310  178.2630  138.0690 C   0  0  2  0  0  3  0  0  0  0  0  0
  193.4890  172.4970  135.5670 N   0  0  0  0  0  1  0  0  0  0  0  0
  190.6630  177.1370  138.1210 C   0  0  1  0  0  3  0  0  0  0  0  0
  191.7040  177.3320  140.4180 C   0  0  1  0  0  3  0  0  0  0  0  0
  189.2300  177.0620  137.5980 C   0  0  1  0  0  3  0  0  0  0  0  0
  193.0050  176.2890  137.7260 C   0  0  0  0  0  0  0  0  0  0  0  0
  190.5910  177.0410  139.5580 N   0  0  1  0  0  0  0  0  0  0  0  0
  192.9870  177.2940  140.0250 C   0  0  0  0  0  3  0  0  0  0  0  0
  193.8610  174.8920  135.9070 N   0  0  0  0  0  0  0  0  0  0  0  0
  193.0250  173.7380  136.0820 C   0  0  0  0  0  0  0  0  0  0  0  0
  193.8890  175.9890  136.6010 C   0  0  0  0  0  3  0  0  0  0  0  0
  189.2260  176.9590  140.0400 C   0  0  0  0  0  2  0  0  0  0  0  0
  191.7920  173.7680  136.5940 C   0  0  0  0  0  3  0  0  0  0  0  0
  191.0530  174.9150  137.1390 C   0  0  0  0  0  3  0  0  0  0  0  0
  193.5390  176.8770  138.7590 N   0  0  0  0  0  0  0  0  0  0  0  0
  188.3250  176.9440  138.8140 C   0  0  1  0  0  3  0  0  0  0  0  0
  191.5620  176.0590  137.6050 C   0  0  1  0  0  3  0  0  0  0  0  0
  191.4590  177.7150  141.7850 C   0  0  0  0  0  0  0  0  0  0  0  0
  191.2520  178.0290  142.9300 C   0  0  0  0  0  0  0  0  0  0  0  0
  191.0000  178.4010  144.3260 C   0  0  0  0  0  2  0  0  0  0  0  0
  189.5370  178.1910  144.6720 C   0  0  0  0  0  2  0  0  0  0  0  0
  189.3630  176.9180  145.3560 N   0  0  0  0  0  2  0  0  0  0  0  0
  188.3830  176.2320  147.7210 O   0  0  0  0  0  0  0  0  0  0  0  0
  189.2740  177.2430  147.0540 S   0  0  0  0  0  0  0  0  0  0  0  0
  188.7220  178.6230  147.2810 O   0  0  0  0  0  0  0  0  0  0  0  0
  190.9060  177.1520  147.7560 C   0  0  0  0  0  2  0  0  0  0  0  0
  192.8140  175.5980  147.9840 C   0  0  0  0  0  1  0  0  0  0  0  0
  191.7120  176.0710  147.0630 C   0  0  0  0  0  2  0  0  0  0  0  0
  187.2140  178.4330  137.1850 C   0  0  0  0  0  2  0  0  0  0  0  0
  185.1250  177.3040  137.5710 N   0  0  0  0  0  2  0  0  0  0  0  0
  185.9770  178.1880  137.9760 C   0  0  0  0  0  0  0  0  0  0  0  0
  185.7060  178.9930  139.1270 N   0  0  0  0  0  2  0  0  0  0  0  0
  184.4790  178.8850  139.9030 C   0  0  0  0  0  2  0  0  0  0  0  0
  184.7950  178.4200  141.3150 C   0  0  0  0  0  2  0  0  0  0  0  0
  183.6650  178.7940  142.2600 C   0  0  0  0  0  2  0  0  0  0  0  0
  184.0360  178.4870  143.7030 C   0  0  1  0  0  3  0  0  0  0  0  0
  185.3820  178.1820  143.7750 F   0  0  0  0  0  0  0  0  0  0  0  0
  183.7710  179.5980  144.5050 O   0  0  0  0  0  1  0  0  0  0  0  0
  1 29  1  6  0  0  0
  1 16  1  0  0  0  0
  2 10  1  0  0  0  0
  3  7  1  0  0  0  0
  4 18  1  0  0  0  0
  5  1  1  0  0  0  0
  5  3  1  0  0  0  0
  5 16  1  0  0  0  0
  6 15  1  0  0  0  0
  7 12  1  0  0  0  0
  7  4  1  0  0  0  0
  8  4  1  0  0  0  0
  9 10  2  0  0  0  0
  9 11  1  0  0  0  0
 10 13  1  0  0  0  0
 11  6  2  0  0  0  0
 13 14  2  0  0  0  0
 14 17  1  0  0  0  0
 15  8  2  0  0  0  0
 16 12  1  0  0  0  0
 17  6  1  0  0  0  0
 17  3  1  0  0  0  0
 18 19  3  0  0  0  0
 19 20  1  0  0  0  0
 20 21  1  0  0  0  0
 21 22  1  0  0  0  0
 22 24  1  0  0  0  0
 24 25  2  0  0  0  0
 24 23  2  0  0  0  0
 24 26  1  0  0  0  0
 28 26  1  0  0  0  0
 28 27  1  0  0  0  0
 29 31  1  0  0  0  0
 30 31  2  0  0  0  0
 31 32  1  0  0  0  0
 32 33  1  0  0  0  0
 33 34  1  0  0  0  0
 34 35  1  0  0  0  0
 35 36  1  0  0  0  0
 36 37  1  0  0  0  0
 36 38  1  0  0  0  0
M  END
>  <MODEL>
5

>  <REMARK>
 VINA RESULT:      -6.9      1.600      2.189
  Name = 
  13 active torsions:
  status: ('A' for Active; 'I' for Inactive)
    1  A    between atoms: C_1  and  C_23
    2  A    between atoms: C_2  and  S_13
    3  A    between atoms: C_2  and  C_37
    4  A    between atoms: C_5  and  C_27
    5  A    between atoms: C_11  and  C_14
    6  A    between atoms: S_13  and  N_31
    7  A    between atoms: C_14  and  C_36
    8  A    between atoms: C_18  and  C_28
    9  A    between atoms: C_18  and  C_32
   10  A    between atoms: C_23  and  C_29
   11  A    between atoms: C_26  and  N_35
   12  A    between atoms: C_26  and  C_36
   13  A    between atoms: N_31  and  C_32
                            x       y       z     vdW  Elec       q    Type
                         _______ _______ _______ _____ _____    ______ ____

>  <TORSDO>
F 13

$$$$
=
 OpenBabel10232410333D

 38 41  0  0  1  0  0  0  0  0999 V2000
  190.7680  176.5180  144.0180 C   0  0  2  0  0  3  0  0  0  0  0  0
  194.1710  177.0820  136.7250 N   0  0  0  0  0  1  0  0  0  0  0  0
  190.6010  176.5730  141.5240 C   0  0  1  0  0  3  0  0  0  0  0  0
  188.4100  177.6110  140.8020 C   0  0  1  0  0  3  0  0  0  0  0  0
  191.5270  176.7530  142.7260 C   0  0  1  0  0  3  0  0  0  0  0  0
  190.5740  176.1080  139.0460 C   0  0  0  0  0  0  0  0  0  0  0  0
  189.6010  177.6080  141.6050 N   0  0  1  0  0  0  0  0  0  0  0  0
  188.2870  176.9520  139.6400 C   0  0  0  0  0  3  0  0  0  0  0  0
  192.4360  175.5670  137.5500 N   0  0  0  0  0  0  0  0  0  0  0  0
  193.2430  176.7390  137.7450 C   0  0  0  0  0  0  0  0  0  0  0  0
  191.2850  175.2760  138.0760 C   0  0  0  0  0  3  0  0  0  0  0  0
  189.7540  178.4340  142.7870 C   0  0  0  0  0  2  0  0  0  0  0  0
  193.2640  177.4640  138.8660 C   0  0  0  0  0  3  0  0  0  0  0  0
  192.4600  177.2940  140.0830 C   0  0  0  0  0  3  0  0  0  0  0  0
  189.2840  176.2150  138.9000 N   0  0  0  0  0  0  0  0  0  0  0  0
  190.9910  177.9340  143.5180 C   0  0  1  0  0  3  0  0  0  0  0  0
  191.2900  176.6610  140.2000 C   0  0  1  0  0  3  0  0  0  0  0  0
  187.2520  178.3340  141.2590 C   0  0  0  0  0  0  0  0  0  0  0  0
  186.2780  178.9340  141.6410 C   0  0  0  0  0  0  0  0  0  0  0  0
  185.0900  179.6540  142.1100 C   0  0  0  0  0  2  0  0  0  0  0  0
  183.9100  178.7060  142.2220 C   0  0  0  0  0  2  0  0  0  0  0  0
  183.8390  177.8540  141.0440 N   0  0  0  0  0  2  0  0  0  0  0  0
  182.0880  177.1840  139.1700 O   0  0  0  0  0  0  0  0  0  0  0  0
  182.3700  178.2320  140.2110 S   0  0  0  0  0  0  0  0  0  0  0  0
  182.4910  179.5760  139.5470 O   0  0  0  0  0  0  0  0  0  0  0  0
  181.0280  178.2840  141.3780 C   0  0  0  0  0  2  0  0  0  0  0  0
  180.1320  179.9660  142.9520 C   0  0  0  0  0  1  0  0  0  0  0  0
  180.5080  179.7020  141.5110 C   0  0  0  0  0  2  0  0  0  0  0  0
  191.7530  176.2230  145.1300 C   0  0  0  0  0  2  0  0  0  0  0  0
  191.9550  176.6820  147.4830 N   0  0  0  0  0  2  0  0  0  0  0  0
  191.2090  176.7090  146.4280 C   0  0  0  0  0  0  0  0  0  0  0  0
  189.8400  177.1190  146.5090 N   0  0  0  0  0  2  0  0  0  0  0  0
  189.2010  177.5180  147.7540 C   0  0  0  0  0  2  0  0  0  0  0  0
  187.7090  177.7030  147.5370 C   0  0  0  0  0  2  0  0  0  0  0  0
  187.4060  177.8680  146.0560 C   0  0  0  0  0  2  0  0  0  0  0  0
  186.1630  178.7180  145.8440 C   0  0  1  0  0  3  0  0  0  0  0  0
  185.2510  178.0130  145.0810 F   0  0  0  0  0  0  0  0  0  0  0  0
  185.5890  179.0320  147.0760 O   0  0  0  0  0  1  0  0  0  0  0  0
  1 29  1  1  0  0  0
  2 10  1  0  0  0  0
  3  7  1  0  0  0  0
  3  5  1  0  0  0  0
  4 18  1  0  0  0  0
  4  7  1  0  0  0  0
  5 16  1  0  0  0  0
  5  1  1  0  0  0  0
  6 17  1  0  0  0  0
  7 12  1  0  0  0  0
  8  4  1  0  0  0  0
  9 10  2  0  0  0  0
  9 11  1  0  0  0  0
 10 13  1  0  0  0  0
 11  6  2  0  0  0  0
 12 16  1  0  0  0  0
 13 14  2  0  0  0  0
 14 17  1  0  0  0  0
 15  6  1  0  0  0  0
 15  8  2  0  0  0  0
 16  1  1  0  0  0  0
 17  3  1  0  0  0  0
 18 19  3  0  0  0  0
 19 20  1  0  0  0  0
 20 21  1  0  0  0  0
 22 21  1  0  0  0  0
 23 24  2  0  0  0  0
 24 22  1  0  0  0  0
 24 26  1  0  0  0  0
 25 24  2  0  0  0  0
 26 28  1  0  0  0  0
 28 27  1  0  0  0  0
 29 31  1  0  0  0  0
 31 32  1  0  0  0  0
 31 30  2  0  0  0  0
 32 33  1  0  0  0  0
 34 33  1  0  0  0  0
 35 34  1  0  0  0  0
 36 35  1  0  0  0  0
 36 38  1  0  0  0  0
 37 36  1  0  0  0  0
M  END
>  <MODEL>
6

>  <REMARK>
 VINA RESULT:      -6.7      2.574      6.088
  Name = 
  13 active torsions:
  status: ('A' for Active; 'I' for Inactive)
    1  A    between atoms: C_1  and  C_23
    2  A    between atoms: C_2  and  S_13
    3  A    between atoms: C_2  and  C_37
    4  A    between atoms: C_5  and  C_27
    5  A    between atoms: C_11  and  C_14
    6  A    between atoms: S_13  and  N_31
    7  A    between atoms: C_14  and  C_36
    8  A    between atoms: C_18  and  C_28
    9  A    between atoms: C_18  and  C_32
   10  A    between atoms: C_23  and  C_29
   11  A    between atoms: C_26  and  N_35
   12  A    between atoms: C_26  and  C_36
   13  A    between atoms: N_31  and  C_32
                            x       y       z     vdW  Elec       q    Type
                         _______ _______ _______ _____ _____    ______ ____

>  <TORSDO>
F 13

$$$$
=
 OpenBabel10232410333D

 38 41  0  0  1  0  0  0  0  0999 V2000
  185.5150  179.0960  144.4190 C   0  0  2  0  0  3  0  0  0  0  0  0
  180.3850  176.9750  138.5640 N   0  0  0  0  0  1  0  0  0  0  0  0
  184.9300  178.8690  141.9980 C   0  0  1  0  0  3  0  0  0  0  0  0
  187.0020  178.4130  140.6220 C   0  0  1  0  0  3  0  0  0  0  0  0
  184.5030  178.5480  143.4300 C   0  0  1  0  0  3  0  0  0  0  0  0
  184.0730  179.1010  139.6390 C   0  0  0  0  0  0  0  0  0  0  0  0
  186.1610  178.1590  141.7580 N   0  0  1  0  0  0  0  0  0  0  0  0
  186.5730  178.9750  139.4810 C   0  0  0  0  0  3  0  0  0  0  0  0
  181.7740  178.9750  138.8060 N   0  0  0  0  0  0  0  0  0  0  0  0
  181.4370  177.6490  139.2420 C   0  0  0  0  0  0  0  0  0  0  0  0
  182.8930  179.6170  138.9440 C   0  0  0  0  0  3  0  0  0  0  0  0
  186.6180  177.4310  142.9270 C   0  0  0  0  0  2  0  0  0  0  0  0
  181.9660  177.0480  140.3100 C   0  0  0  0  0  3  0  0  0  0  0  0
  183.0140  177.5390  141.2140 C   0  0  0  0  0  3  0  0  0  0  0  0
  185.2320  179.3400  139.0940 N   0  0  0  0  0  0  0  0  0  0  0  0
  185.5700  177.6350  144.0110 C   0  0  1  0  0  3  0  0  0  0  0  0
  183.9300  178.4770  140.9580 C   0  0  1  0  0  3  0  0  0  0  0  0
  188.4010  178.0790  140.6900 C   0  0  0  0  0  0  0  0  0  0  0  0
  189.5720  177.7930  140.7430 C   0  0  0  0  0  0  0  0  0  0  0  0
  190.9930  177.4390  140.7990 C   0  0  0  0  0  2  0  0  0  0  0  0
  191.4380  176.8330  139.4800 C   0  0  0  0  0  2  0  0  0  0  0  0
  190.5110  175.7880  139.0720 N   0  0  0  0  0  2  0  0  0  0  0  0
  191.1380  173.9130  137.3060 O   0  0  0  0  0  0  0  0  0  0  0  0
  190.8640  175.3880  137.4250 S   0  0  0  0  0  0  0  0  0  0  0  0
  192.0680  176.1590  136.9590 O   0  0  0  0  0  0  0  0  0  0  0  0
  189.4720  175.8180  136.4040 C   0  0  0  0  0  2  0  0  0  0  0  0
  189.0400  178.2170  136.8100 C   0  0  0  0  0  1  0  0  0  0  0  0
  188.5830  176.8100  137.1270 C   0  0  0  0  0  2  0  0  0  0  0  0
  184.8700  179.2060  145.7850 C   0  0  0  0  0  2  0  0  0  0  0  0
  185.9820  179.8530  147.8180 N   0  0  0  0  0  2  0  0  0  0  0  0
  185.8970  179.0070  146.8450 C   0  0  0  0  0  0  0  0  0  0  0  0
  186.8320  177.9310  146.7260 N   0  0  0  0  0  2  0  0  0  0  0  0
  187.9240  177.7190  147.6650 C   0  0  0  0  0  2  0  0  0  0  0  0
  189.1770  177.2930  146.9180 C   0  0  0  0  0  2  0  0  0  0  0  0
  189.2030  177.9160  145.5310 C   0  0  0  0  0  2  0  0  0  0  0  0
  190.5140  177.6140  144.8210 C   0  0  1  0  0  3  0  0  0  0  0  0
  190.3520  176.5030  144.0150 F   0  0  0  0  0  0  0  0  0  0  0  0
  190.8860  178.7040  144.0340 O   0  0  0  0  0  1  0  0  0  0  0  0
  1 29  1  1  0  0  0
  2 10  1  0  0  0  0
  3  5  1  0  0  0  0
  4 18  1  0  0  0  0
  4  7  1  0  0  0  0
  5 16  1  0  0  0  0
  5  1  1  0  0  0  0
  6 17  1  0  0  0  0
  7  3  1  0  0  0  0
  7 12  1  0  0  0  0
  8  4  1  0  0  0  0
  9 11  1  0  0  0  0
  9 10  2  0  0  0  0
 10 13  1  0  0  0  0
 11  6  2  0  0  0  0
 12 16  1  0  0  0  0
 13 14  2  0  0  0  0
 15  8  2  0  0  0  0
 15  6  1  0  0  0  0
 16  1  1  0  0  0  0
 17 14  1  0  0  0  0
 17  3  1  0  0  0  0
 18 19  3  0  0  0  0
 19 20  1  0  0  0  0
 21 20  1  0  0  0  0
 22 21  1  0  0  0  0
 23 24  2  0  0  0  0
 24 22  1  0  0  0  0
 25 24  2  0  0  0  0
 26 28  1  0  0  0  0
 26 24  1  0  0  0  0
 27 28  1  0  0  0  0
 29 31  1  0  0  0  0
 31 30  2  0  0  0  0
 32 31  1  0  0  0  0
 32 33  1  0  0  0  0
 34 33  1  0  0  0  0
 35 34  1  0  0  0  0
 36 35  1  0  0  0  0
 37 36  1  0  0  0  0
 38 36  1  0  0  0  0
M  END
>  <MODEL>
7

>  <REMARK>
 VINA RESULT:      -6.6      3.171      8.347
  Name = 
  13 active torsions:
  status: ('A' for Active; 'I' for Inactive)
    1  A    between atoms: C_1  and  C_23
    2  A    between atoms: C_2  and  S_13
    3  A    between atoms: C_2  and  C_37
    4  A    between atoms: C_5  and  C_27
    5  A    between atoms: C_11  and  C_14
    6  A    between atoms: S_13  and  N_31
    7  A    between atoms: C_14  and  C_36
    8  A    between atoms: C_18  and  C_28
    9  A    between atoms: C_18  and  C_32
   10  A    between atoms: C_23  and  C_29
   11  A    between atoms: C_26  and  N_35
   12  A    between atoms: C_26  and  C_36
   13  A    between atoms: N_31  and  C_32
                            x       y       z     vdW  Elec       q    Type
                         _______ _______ _______ _____ _____    ______ ____

>  <TORSDO>
F 13

$$$$
=
 OpenBabel10232410333D

 38 41  0  0  1  0  0  0  0  0999 V2000
  191.0930  178.2690  143.3070 C   0  0  2  0  0  3  0  0  0  0  0  0
  183.0400  178.0380  142.8650 N   0  0  0  0  0  1  0  0  0  0  0  0
  188.9750  178.2270  141.9790 C   0  0  1  0  0  3  0  0  0  0  0  0
  189.3290  177.0330  139.7780 C   0  0  1  0  0  3  0  0  0  0  0  0
  189.5860  178.1060  143.3740 C   0  0  1  0  0  3  0  0  0  0  0  0
  186.8280  178.7140  140.7490 C   0  0  0  0  0  0  0  0  0  0  0  0
  189.4720  177.1180  141.2040 N   0  0  1  0  0  0  0  0  0  0  0  0
  188.3940  177.6930  139.0760 C   0  0  0  0  0  3  0  0  0  0  0  0
  184.6560  179.4090  141.6400 N   0  0  0  0  0  0  0  0  0  0  0  0
  184.3930  178.3000  142.5140 C   0  0  0  0  0  0  0  0  0  0  0  0
  185.6760  179.6070  140.8620 C   0  0  0  0  0  3  0  0  0  0  0  0
  190.4040  176.2940  141.9510 C   0  0  0  0  0  2  0  0  0  0  0  0
  185.3360  177.5670  143.1090 C   0  0  0  0  0  3  0  0  0  0  0  0
  186.7950  177.6630  142.9710 C   0  0  0  0  0  3  0  0  0  0  0  0
  187.3050  178.5100  139.5540 N   0  0  0  0  0  0  0  0  0  0  0  0
  190.4840  176.8790  143.3530 C   0  0  1  0  0  3  0  0  0  0  0  0
  187.4800  178.2050  141.9600 C   0  0  1  0  0  3  0  0  0  0  0  0
  190.2470  176.2200  139.0230 C   0  0  0  0  0  0  0  0  0  0  0  0
  191.0200  175.5430  138.3910 C   0  0  0  0  0  0  0  0  0  0  0  0
  191.9690  174.7250  137.6300 C   0  0  0  0  0  2  0  0  0  0  0  0
  193.3590  175.3300  137.6970 C   0  0  0  0  0  2  0  0  0  0  0  0
  194.3320  174.4150  137.1200 N   0  0  0  0  0  2  0  0  0  0  0  0
  195.3550  172.6870  138.8510 O   0  0  0  0  0  0  0  0  0  0  0  0
  195.5260  174.0870  138.3300 S   0  0  0  0  0  0  0  0  0  0  0  0
  195.3850  175.0640  139.4640 O   0  0  0  0  0  0  0  0  0  0  0  0
  197.1470  174.2610  137.6170 C   0  0  0  0  0  2  0  0  0  0  0  0
  197.0780  174.6850  135.1840 C   0  0  0  0  0  1  0  0  0  0  0  0
  197.1860  173.6150  136.2470 C   0  0  0  0  0  2  0  0  0  0  0  0
  191.6190  178.6260  144.6820 C   0  0  0  0  0  2  0  0  0  0  0  0
  191.7400  176.5500  145.8920 N   0  0  0  0  0  2  0  0  0  0  0  0
  191.1030  177.6560  145.6870 C   0  0  0  0  0  0  0  0  0  0  0  0
  189.8640  177.9210  146.3500 N   0  0  0  0  0  2  0  0  0  0  0  0
  189.2400  176.9870  147.2760 C   0  0  0  0  0  2  0  0  0  0  0  0
  187.9070  177.5370  147.7520 C   0  0  0  0  0  2  0  0  0  0  0  0
  186.9400  177.6640  146.5850 C   0  0  0  0  0  2  0  0  0  0  0  0
  186.0090  178.8520  146.7730 C   0  0  1  0  0  3  0  0  0  0  0  0
  185.9630  179.5860  145.6030 F   0  0  0  0  0  0  0  0  0  0  0  0
  184.7260  178.4020  147.0850 O   0  0  0  0  0  1  0  0  0  0  0  0
  1 16  1  0  0  0  0
  1  5  1  0  0  0  0
  1 29  1  1  0  0  0
  3  5  1  0  0  0  0
  4  7  1  0  0  0  0
  6 11  2  0  0  0  0
  6 17  1  0  0  0  0
  7 12  1  0  0  0  0
  7  3  1  0  0  0  0
  8 15  2  0  0  0  0
  8  4  1  0  0  0  0
  9 10  2  0  0  0  0
 10  2  1  0  0  0  0
 10 13  1  0  0  0  0
 11  9  1  0  0  0  0
 12 16  1  0  0  0  0
 14 13  2  0  0  0  0
 15  6  1  0  0  0  0
 16  5  1  0  0  0  0
 17  3  1  0  0  0  0
 17 14  1  0  0  0  0
 18  4  1  0  0  0  0
 19 18  3  0  0  0  0
 20 21  1  0  0  0  0
 20 19  1  0  0  0  0
 22 21  1  0  0  0  0
 22 24  1  0  0  0  0
 24 23  2  0  0  0  0
 24 25  2  0  0  0  0
 26 24  1  0  0  0  0
 27 28  1  0  0  0  0
 28 26  1  0  0  0  0
 29 31  1  0  0  0  0
 31 30  2  0  0  0  0
 31 32  1  0  0  0  0
 32 33  1  0  0  0  0
 33 34  1  0  0  0  0
 35 36  1  0  0  0  0
 35 34  1  0  0  0  0
 36 38  1  0  0  0  0
 37 36  1  0  0  0  0
M  END
>  <MODEL>
8

>  <REMARK>
 VINA RESULT:      -6.5      3.323      8.559
  Name = 
  13 active torsions:
  status: ('A' for Active; 'I' for Inactive)
    1  A    between atoms: C_1  and  C_23
    2  A    between atoms: C_2  and  S_13
    3  A    between atoms: C_2  and  C_37
    4  A    between atoms: C_5  and  C_27
    5  A    between atoms: C_11  and  C_14
    6  A    between atoms: S_13  and  N_31
    7  A    between atoms: C_14  and  C_36
    8  A    between atoms: C_18  and  C_28
    9  A    between atoms: C_18  and  C_32
   10  A    between atoms: C_23  and  C_29
   11  A    between atoms: C_26  and  N_35
   12  A    between atoms: C_26  and  C_36
   13  A    between atoms: N_31  and  C_32
                            x       y       z     vdW  Elec       q    Type
                         _______ _______ _______ _____ _____    ______ ____

>  <TORSDO>
F 13

$$$$
=
 OpenBabel10232410333D

 38 41  0  0  1  0  0  0  0  0999 V2000
  185.5960  179.0330  144.4500 C   0  0  2  0  0  3  0  0  0  0  0  0
  180.6230  176.9750  138.4400 N   0  0  0  0  0  1  0  0  0  0  0  0
  185.0860  178.8080  142.0120 C   0  0  1  0  0  3  0  0  0  0  0  0
  187.1930  178.3150  140.7050 C   0  0  1  0  0  3  0  0  0  0  0  0
  184.6080  178.4990  143.4310 C   0  0  1  0  0  3  0  0  0  0  0  0
  184.3080  179.0470  139.6260 C   0  0  0  0  0  0  0  0  0  0  0  0
  186.3130  178.0780  141.8140 N   0  0  1  0  0  0  0  0  0  0  0  0
  186.8100  178.8800  139.5490 C   0  0  0  0  0  3  0  0  0  0  0  0
  182.0350  178.9540  138.7200 N   0  0  0  0  0  0  0  0  0  0  0  0
  181.6640  177.6350  139.1490 C   0  0  0  0  0  0  0  0  0  0  0  0
  183.1600  179.5790  138.8930 C   0  0  0  0  0  3  0  0  0  0  0  0
  186.7200  177.3470  142.9980 C   0  0  0  0  0  2  0  0  0  0  0  0
  182.1480  177.0290  140.2350 C   0  0  0  0  0  3  0  0  0  0  0  0
  183.1750  177.5060  141.1700 C   0  0  0  0  0  3  0  0  0  0  0  0
  185.4880  179.2650  139.1180 N   0  0  0  0  0  0  0  0  0  0  0  0
  185.6410  177.5700  144.0480 C   0  0  1  0  0  3  0  0  0  0  0  0
  184.1140  178.4290  140.9420 C   0  0  1  0  0  3  0  0  0  0  0  0
  188.5840  177.9590  140.8180 C   0  0  0  0  0  0  0  0  0  0  0  0
  189.7480  177.6590  140.9200 C   0  0  0  0  0  0  0  0  0  0  0  0
  191.1610  177.2890  141.0530 C   0  0  0  0  0  2  0  0  0  0  0  0
  191.7440  176.9420  139.6950 C   0  0  0  0  0  2  0  0  0  0  0  0
  190.8650  176.0180  138.9940 N   0  0  0  0  0  2  0  0  0  0  0  0
  191.4690  176.1360  136.4160 O   0  0  0  0  0  0  0  0  0  0  0  0
  191.7540  175.3520  137.6670 S   0  0  0  0  0  0  0  0  0  0  0  0
  191.3610  173.9160  137.4590 O   0  0  0  0  0  0  0  0  0  0  0  0
  193.4950  175.4260  138.0300 C   0  0  0  0  0  2  0  0  0  0  0  0
  195.3960  173.9400  138.5620 C   0  0  0  0  0  1  0  0  0  0  0  0
  194.1480  174.0940  137.7210 C   0  0  0  0  0  2  0  0  0  0  0  0
  184.9100  179.1580  145.7950 C   0  0  0  0  0  2  0  0  0  0  0  0
  185.9840  180.0250  147.7650 N   0  0  0  0  0  2  0  0  0  0  0  0
  185.9210  179.0800  146.8850 C   0  0  0  0  0  0  0  0  0  0  0  0
  186.8650  178.0050  146.8960 N   0  0  0  0  0  2  0  0  0  0  0  0
  187.9430  177.9020  147.8690 C   0  0  0  0  0  2  0  0  0  0  0  0
  189.2610  177.6460  147.1590 C   0  0  0  0  0  2  0  0  0  0  0  0
  189.0440  177.5490  145.6570 C   0  0  0  0  0  2  0  0  0  0  0  0
  190.3690  177.5380  144.9120 C   0  0  1  0  0  3  0  0  0  0  0  0
  190.5680  178.7680  144.3140 F   0  0  0  0  0  0  0  0  0  0  0  0
  191.4110  177.2860  145.8050 O   0  0  0  0  0  1  0  0  0  0  0  0
  1 29  1  1  0  0  0
  2 10  1  0  0  0  0
  3  5  1  0  0  0  0
  4 18  1  0  0  0  0
  4  7  1  0  0  0  0
  5 16  1  0  0  0  0
  5  1  1  0  0  0  0
  6 17  1  0  0  0  0
  7  3  1  0  0  0  0
  7 12  1  0  0  0  0
  8  4  1  0  0  0  0
  9 11  1  0  0  0  0
  9 10  2  0  0  0  0
 10 13  1  0  0  0  0
 11  6  2  0  0  0  0
 12 16  1  0  0  0  0
 13 14  2  0  0  0  0
 15  8  2  0  0  0  0
 15  6  1  0  0  0  0
 16  1  1  0  0  0  0
 17 14  1  0  0  0  0
 17  3  1  0  0  0  0
 18 19  3  0  0  0  0
 19 20  1  0  0  0  0
 21 20  1  0  0  0  0
 22 21  1  0  0  0  0
 23 24  2  0  0  0  0
 24 26  1  0  0  0  0
 24 22  1  0  0  0  0
 25 24  2  0  0  0  0
 28 26  1  0  0  0  0
 28 27  1  0  0  0  0
 29 31  1  0  0  0  0
 31 32  1  0  0  0  0
 31 30  2  0  0  0  0
 32 33  1  0  0  0  0
 34 33  1  0  0  0  0
 35 34  1  0  0  0  0
 36 35  1  0  0  0  0
 36 38  1  0  0  0  0
 37 36  1  0  0  0  0
M  END
>  <MODEL>
9

>  <REMARK>
 VINA RESULT:      -6.5      3.250      8.538
  Name = 
  13 active torsions:
  status: ('A' for Active; 'I' for Inactive)
    1  A    between atoms: C_1  and  C_23
    2  A    between atoms: C_2  and  S_13
    3  A    between atoms: C_2  and  C_37
    4  A    between atoms: C_5  and  C_27
    5  A    between atoms: C_11  and  C_14
    6  A    between atoms: S_13  and  N_31
    7  A    between atoms: C_14  and  C_36
    8  A    between atoms: C_18  and  C_28
    9  A    between atoms: C_18  and  C_32
   10  A    between atoms: C_23  and  C_29
   11  A    between atoms: C_26  and  N_35
   12  A    between atoms: C_26  and  C_36
   13  A    between atoms: N_31  and  C_32
                            x       y       z     vdW  Elec       q    Type
                         _______ _______ _______ _____ _____    ______ ____

>  <TORSDO>
F 13

$$$$
