=
 OpenBabel10232408123D

 32 35  0  0  1  0  0  0  0  0999 V2000
  190.5820  177.1090  142.0280 C   0  0  0  0  0  0  0  0  0  0  0  0
  193.1790  175.2440  134.5600 C   0  0  0  0  0  2  0  0  0  0  0  0
  195.4750  177.8850  135.4390 C   0  0  0  0  0  1  0  0  0  0  0  0
  188.8030  176.3870  135.4280 C   0  0  0  0  0  2  0  0  0  0  0  0
  193.8420  176.3620  137.8910 N   0  0  0  0  0  2  0  0  0  0  0  0
  194.4330  175.9670  134.3460 N   0  0  0  0  0  2  0  0  0  0  0  0
  186.6020  178.7600  137.2540 O   0  0  0  0  0  1  0  0  0  0  0  0
  190.8270  173.9810  136.0470 C   0  0  1  0  0  3  0  0  0  0  0  0
  191.7340  175.0380  136.6240 C   0  0  0  0  0  0  0  0  0  0  0  0
  187.7140  176.8380  136.3810 C   0  0  0  0  0  2  0  0  0  0  0  0
  187.6390  177.0630  142.9030 C   0  0  0  0  0  3  0  0  0  0  0  0
  188.7000  176.5820  143.5630 C   0  0  0  0  0  3  0  0  0  0  0  0
  192.7410  176.3420  139.9580 O   0  0  0  0  0  0  0  0  0  0  0  0
  192.5520  176.4520  138.5790 C   0  0  2  0  0  3  0  0  0  0  0  0
  188.4240  178.4150  139.5510 N   0  0  0  0  0  0  0  0  0  0  0  0
  187.6910  178.1180  141.8280 C   0  0  2  0  0  3  0  0  0  0  0  0
  187.7260  178.3530  136.5370 C   0  0  2  0  0  3  0  0  0  0  0  0
  194.8290  176.5290  135.6410 C   0  0  2  0  0  3  0  0  0  0  0  0
  189.7300  176.8150  140.8230 C   0  0  0  0  0  2  0  0  0  0  0  0
  192.5030  177.6250  140.4540 C   0  0  0  0  0  2  0  0  0  0  0  0
  193.5840  176.6700  136.4880 C   0  0  1  0  0  3  0  0  0  0  0  0
  190.1270  174.4720  134.9390 O   0  0  0  0  0  0  0  0  0  0  0  0
  192.0140  177.5420  141.8940 C   0  0  0  0  0  2  0  0  0  0  0  0
  191.5940  175.3460  138.0990 C   0  0  0  0  0  2  0  0  0  0  0  0
  188.8870  174.8740  135.4420 C   0  0  0  0  0  2  0  0  0  0  0  0
  188.9980  178.8470  137.2280 C   0  0  0  0  0  2  0  0  0  0  0  0
  192.7000  175.6440  135.9020 C   0  0  0  0  0  0  0  0  0  0  0  0
  188.6150  177.8100  140.6820 C   0  0  0  0  0  0  0  0  0  0  0  0
  189.2250  178.1730  138.4570 O   0  0  0  0  0  0  0  0  0  0  0  0
  191.5950  172.7260  135.6710 C   0  0  0  0  0  1  0  0  0  0  0  0
  190.1010  176.9350  143.2620 C   0  0  0  0  0  3  0  0  0  0  0  0
  188.0050  179.4810  142.4220 C   0  0  0  0  0  1  0  0  0  0  0  0
  1 31  2  0  0  0  0
  2 27  1  0  0  0  0
  4 25  1  0  0  0  0
  4 10  1  0  0  0  0
  5 14  1  0  0  0  0
  6  2  1  0  0  0  0
  6 18  1  0  0  0  0
  8 30  1  6  0  0  0
  8  9  1  0  0  0  0
  9 24  1  0  0  0  0
 10 17  1  0  0  0  0
 11 12  2  0  0  0  0
 13 20  1  0  0  0  0
 14 24  1  6  0  0  0
 14 13  1  0  0  0  0
 15 28  2  0  0  0  0
 16 32  1  1  0  0  0
 16 11  1  0  0  0  0
 17 26  1  0  0  0  0
 17  7  1  1  0  0  0
 18  3  1  6  0  0  0
 18 21  1  0  0  0  0
 19  1  1  0  0  0  0
 20 23  1  0  0  0  0
 21 27  1  6  0  0  0
 21  5  1  0  0  0  0
 22 25  1  0  0  0  0
 22  8  1  0  0  0  0
 23  1  1  0  0  0  0
 26 29  1  0  0  0  0
 27  9  2  0  0  0  0
 28 19  1  0  0  0  0
 28 16  1  0  0  0  0
 29 15  1  0  0  0  0
 31 12  1  0  0  0  0
M  END
>  <MODEL>
1

>  <REMARK>
 VINA RESULT:      -6.7      0.000      0.000
  Name = 
  0 active torsions:
  status: ('A' for Active; 'I' for Inactive)
                            x       y       z     vdW  Elec       q    Type
                         _______ _______ _______ _____ _____    ______ ____

>  <TORSDO>
F 0

$$$$
=
 OpenBabel10232408123D

 32 35  0  0  1  0  0  0  0  0999 V2000
  187.8680  178.2990  138.6900 C   0  0  0  0  0  0  0  0  0  0  0  0
  180.1190  179.7110  140.6790 C   0  0  0  0  0  2  0  0  0  0  0  0
  181.3300  178.1700  143.7090 C   0  0  0  0  0  1  0  0  0  0  0  0
  181.2970  177.3190  136.9240 C   0  0  0  0  0  2  0  0  0  0  0  0
  183.5620  179.4270  141.6020 N   0  0  0  0  0  2  0  0  0  0  0  0
  179.9820  179.4270  142.1070 N   0  0  0  0  0  2  0  0  0  0  0  0
  183.5460  174.6680  135.6090 O   0  0  0  0  0  1  0  0  0  0  0  0
  181.4630  180.3310  138.0050 C   0  0  1  0  0  3  0  0  0  0  0  0
  182.1710  179.7470  139.2010 C   0  0  0  0  0  0  0  0  0  0  0  0
  182.3440  176.6860  136.0290 C   0  0  0  0  0  2  0  0  0  0  0  0
  188.8190  177.4920  135.8840 C   0  0  0  0  0  3  0  0  0  0  0  0
  189.3610  178.4000  136.7060 C   0  0  0  0  0  3  0  0  0  0  0  0
  185.6340  179.4050  140.5120 O   0  0  0  0  0  0  0  0  0  0  0  0
  184.2970  179.0200  140.4030 C   0  0  2  0  0  3  0  0  0  0  0  0
  185.6990  175.9670  137.1550 N   0  0  0  0  0  0  0  0  0  0  0  0
  187.9230  176.3590  136.3130 C   0  0  2  0  0  3  0  0  0  0  0  0
  182.7370  175.3090  136.5470 C   0  0  2  0  0  3  0  0  0  0  0  0
  181.3360  179.2450  142.6400 C   0  0  2  0  0  3  0  0  0  0  0  0
  186.6600  178.0930  137.8160 C   0  0  0  0  0  2  0  0  0  0  0  0
  186.3350  178.2130  140.7080 C   0  0  0  0  0  2  0  0  0  0  0  0
  182.2350  178.8310  141.4950 C   0  0  1  0  0  3  0  0  0  0  0  0
  180.4700  179.4630  137.5370 O   0  0  0  0  0  0  0  0  0  0  0  0
  187.7580  178.3560  140.1860 C   0  0  0  0  0  2  0  0  0  0  0  0
  183.6790  179.6480  139.1400 C   0  0  0  0  0  2  0  0  0  0  0  0
  181.0700  178.7540  136.4940 C   0  0  0  0  0  2  0  0  0  0  0  0
  183.4560  175.3870  137.8950 C   0  0  0  0  0  2  0  0  0  0  0  0
  181.5230  179.3930  140.3320 C   0  0  0  0  0  0  0  0  0  0  0  0
  186.7130  176.7720  137.1050 C   0  0  0  0  0  0  0  0  0  0  0  0
  184.5560  176.2860  137.8530 O   0  0  0  0  0  0  0  0  0  0  0  0
  180.8700  181.6950  138.3150 C   0  0  0  0  0  1  0  0  0  0  0  0
  189.0740  178.4950  138.1500 C   0  0  0  0  0  3  0  0  0  0  0  0
  188.7140  175.2930  137.0530 C   0  0  0  0  0  1  0  0  0  0  0  0
  1 23  1  0  0  0  0
  2  6  1  0  0  0  0
  6 18  1  0  0  0  0
  8 30  1  1  0  0  0
  8  9  1  0  0  0  0
  9 27  2  0  0  0  0
 10 17  1  0  0  0  0
 10  4  1  0  0  0  0
 11 16  1  0  0  0  0
 11 12  2  0  0  0  0
 12 31  1  0  0  0  0
 13 20  1  0  0  0  0
 14 24  1  6  0  0  0
 14 13  1  0  0  0  0
 14  5  1  0  0  0  0
 15 29  1  0  0  0  0
 16 32  1  1  0  0  0
 16 28  1  0  0  0  0
 17  7  1  6  0  0  0
 17 26  1  0  0  0  0
 18  3  1  1  0  0  0
 19  1  1  0  0  0  0
 21 27  1  6  0  0  0
 21  5  1  0  0  0  0
 21 18  1  0  0  0  0
 22  8  1  0  0  0  0
 23 20  1  0  0  0  0
 24  9  1  0  0  0  0
 25  4  1  0  0  0  0
 25 22  1  0  0  0  0
 27  2  1  0  0  0  0
 28 15  2  0  0  0  0
 28 19  1  0  0  0  0
 29 26  1  0  0  0  0
 31  1  2  0  0  0  0
M  END
>  <MODEL>
2

>  <REMARK>
 VINA RESULT:      -6.7      5.009      9.533
  Name = 
  0 active torsions:
  status: ('A' for Active; 'I' for Inactive)
                            x       y       z     vdW  Elec       q    Type
                         _______ _______ _______ _____ _____    ______ ____

>  <TORSDO>
F 0

$$$$
=
 OpenBabel10232408123D

 32 35  0  0  1  0  0  0  0  0999 V2000
  188.9950  176.8520  136.4850 C   0  0  0  0  0  0  0  0  0  0  0  0
  181.1970  178.0500  138.4230 C   0  0  0  0  0  2  0  0  0  0  0  0
  182.7750  178.5060  141.6350 C   0  0  0  0  0  1  0  0  0  0  0  0
  182.6450  174.2260  136.3040 C   0  0  0  0  0  2  0  0  0  0  0  0
  184.6670  178.7550  138.9230 N   0  0  0  0  0  2  0  0  0  0  0  0
  181.1660  178.5430  139.7990 N   0  0  0  0  0  2  0  0  0  0  0  0
  185.2810  171.6070  136.2590 O   0  0  0  0  0  1  0  0  0  0  0  0
  182.3090  177.3480  135.6640 C   0  0  1  0  0  3  0  0  0  0  0  0
  183.1530  177.5780  136.8910 C   0  0  0  0  0  0  0  0  0  0  0  0
  183.7550  173.3640  135.7350 C   0  0  0  0  0  2  0  0  0  0  0  0
  189.9710  174.8280  134.3910 C   0  0  0  0  0  3  0  0  0  0  0  0
  190.3710  176.0950  134.5590 C   0  0  0  0  0  3  0  0  0  0  0  0
  186.6680  178.4400  137.7480 O   0  0  0  0  0  0  0  0  0  0  0  0
  185.4180  177.8810  138.0190 C   0  0  2  0  0  3  0  0  0  0  0  0
  187.2240  173.7970  136.6420 N   0  0  0  0  0  0  0  0  0  0  0  0
  189.3080  173.9810  135.4470 C   0  0  2  0  0  3  0  0  0  0  0  0
  184.4060  172.5300  136.8300 C   0  0  2  0  0  3  0  0  0  0  0  0
  182.5500  178.8490  140.1760 C   0  0  2  0  0  3  0  0  0  0  0  0
  187.8120  176.0600  135.9970 C   0  0  0  0  0  2  0  0  0  0  0  0
  187.5770  177.6350  138.4360 C   0  0  0  0  0  2  0  0  0  0  0  0
  183.4650  178.0200  139.3020 C   0  0  1  0  0  3  0  0  0  0  0  0
  181.4710  176.2400  135.8330 O   0  0  0  0  0  0  0  0  0  0  0  0
  188.9320  177.6700  137.7420 C   0  0  0  0  0  2  0  0  0  0  0  0
  184.6520  177.6640  136.7010 C   0  0  0  0  0  2  0  0  0  0  0  0
  182.1490  175.1760  135.2330 C   0  0  0  0  0  2  0  0  0  0  0  0
  185.1490  173.3990  137.8470 C   0  0  0  0  0  2  0  0  0  0  0  0
  182.6220  177.7870  138.1140 C   0  0  0  0  0  0  0  0  0  0  0  0
  188.0750  174.5830  136.0610 C   0  0  0  0  0  0  0  0  0  0  0  0
  186.0680  174.2790  137.2150 O   0  0  0  0  0  0  0  0  0  0  0  0
  181.4930  178.5770  135.3050 C   0  0  0  0  0  1  0  0  0  0  0  0
  190.1260  176.8950  135.7750 C   0  0  0  0  0  3  0  0  0  0  0  0
  190.3040  173.5790  136.5230 C   0  0  0  0  0  1  0  0  0  0  0  0
  1 23  1  0  0  0  0
  2  6  1  0  0  0  0
  5 21  1  0  0  0  0
  6 18  1  0  0  0  0
  8 30  1  1  0  0  0
  8 22  1  0  0  0  0
  8  9  1  0  0  0  0
  9 27  2  0  0  0  0
 10  4  1  0  0  0  0
 10 17  1  0  0  0  0
 11 12  2  0  0  0  0
 11 16  1  0  0  0  0
 12 31  1  0  0  0  0
 13 14  1  0  0  0  0
 13 20  1  0  0  0  0
 14 24  1  6  0  0  0
 14  5  1  0  0  0  0
 15 29  1  0  0  0  0
 16 28  1  0  0  0  0
 16 32  1  1  0  0  0
 17  7  1  6  0  0  0
 17 26  1  0  0  0  0
 18  3  1  1  0  0  0
 19 28  1  0  0  0  0
 19  1  1  0  0  0  0
 21 27  1  6  0  0  0
 21 18  1  0  0  0  0
 23 20  1  0  0  0  0
 24  9  1  0  0  0  0
 25 22  1  0  0  0  0
 25  4  1  0  0  0  0
 27  2  1  0  0  0  0
 28 15  2  0  0  0  0
 29 26  1  0  0  0  0
 31  1  2  0  0  0  0
M  END
>  <MODEL>
3

>  <REMARK>
 VINA RESULT:      -5.9      4.376      8.713
  Name = 
  0 active torsions:
  status: ('A' for Active; 'I' for Inactive)
                            x       y       z     vdW  Elec       q    Type
                         _______ _______ _______ _____ _____    ______ ____

>  <TORSDO>
F 0

$$$$
=
 OpenBabel10232408123D

 32 35  0  0  1  0  0  0  0  0999 V2000
  181.8590  173.2940  136.4150 C   0  0  0  0  0  0  0  0  0  0  0  0
  182.2160  181.0740  138.7270 C   0  0  0  0  0  2  0  0  0  0  0  0
  180.1970  181.3410  135.7480 C   0  0  0  0  0  1  0  0  0  0  0  0
  185.9970  178.5370  138.0400 C   0  0  0  0  0  2  0  0  0  0  0  0
  180.4560  178.3660  137.1910 N   0  0  0  0  0  2  0  0  0  0  0  0
  181.2800  181.8180  137.8830 N   0  0  0  0  0  2  0  0  0  0  0  0
  187.6200  176.0790  135.7730 O   0  0  0  0  0  1  0  0  0  0  0  0
  183.5510  178.6940  140.1030 C   0  0  1  0  0  3  0  0  0  0  0  0
  182.6630  178.5910  138.8890 C   0  0  0  0  0  0  0  0  0  0  0  0
  186.6700  177.2430  137.6270 C   0  0  0  0  0  2  0  0  0  0  0  0
  184.1610  171.2850  136.7270 C   0  0  0  0  0  3  0  0  0  0  0  0
  182.8640  171.0980  137.0020 C   0  0  0  0  0  3  0  0  0  0  0  0
  180.6200  176.0310  137.1270 O   0  0  0  0  0  0  0  0  0  0  0  0
  181.3590  177.2140  137.1870 C   0  0  2  0  0  3  0  0  0  0  0  0
  185.0010  174.7220  135.6500 N   0  0  0  0  0  0  0  0  0  0  0  0
  184.7070  172.3340  135.7920 C   0  0  2  0  0  3  0  0  0  0  0  0
  186.8290  177.1760  136.1140 C   0  0  2  0  0  3  0  0  0  0  0  0
  180.4910  180.8280  137.1440 C   0  0  2  0  0  3  0  0  0  0  0  0
  183.0660  174.0270  136.9360 C   0  0  0  0  0  2  0  0  0  0  0  0
  180.8340  175.5410  135.8380 C   0  0  0  0  0  2  0  0  0  0  0  0
  181.2980  179.5510  137.0670 C   0  0  1  0  0  3  0  0  0  0  0  0
  184.7030  179.4380  139.8200 O   0  0  0  0  0  0  0  0  0  0  0  0
  180.6870  174.0250  135.8280 C   0  0  0  0  0  2  0  0  0  0  0  0
  182.2470  177.2060  138.4460 C   0  0  0  0  0  2  0  0  0  0  0  0
  185.6830  178.4890  139.5210 C   0  0  0  0  0  2  0  0  0  0  0  0
  185.4800  177.0930  135.3980 C   0  0  0  0  0  2  0  0  0  0  0  0
  182.1730  179.6730  138.2490 C   0  0  0  0  0  0  0  0  0  0  0  0
  184.2840  173.7430  136.1040 C   0  0  0  0  0  0  0  0  0  0  0  0
  184.6790  176.0360  135.9070 O   0  0  0  0  0  0  0  0  0  0  0  0
  182.8140  179.2940  141.2880 C   0  0  0  0  0  1  0  0  0  0  0  0
  181.7730  171.9650  136.5150 C   0  0  0  0  0  3  0  0  0  0  0  0
  184.3950  171.9860  134.3460 C   0  0  0  0  0  1  0  0  0  0  0  0
  1 31  2  0  0  0  0
  1 19  1  0  0  0  0
  4 25  1  0  0  0  0
  6  2  1  0  0  0  0
  8 30  1  1  0  0  0
  9  8  1  0  0  0  0
 10  4  1  0  0  0  0
 11 12  2  0  0  0  0
 13 14  1  0  0  0  0
 14  5  1  0  0  0  0
 14 24  1  1  0  0  0
 15 29  1  0  0  0  0
 15 28  2  0  0  0  0
 16 32  1  6  0  0  0
 16 28  1  0  0  0  0
 16 11  1  0  0  0  0
 17  7  1  1  0  0  0
 17 10  1  0  0  0  0
 18  3  1  6  0  0  0
 18  6  1  0  0  0  0
 20 13  1  0  0  0  0
 21 18  1  0  0  0  0
 21  5  1  1  0  0  0
 21 27  1  0  0  0  0
 22  8  1  0  0  0  0
 23 20  1  0  0  0  0
 23  1  1  0  0  0  0
 24  9  1  0  0  0  0
 25 22  1  0  0  0  0
 26 29  1  0  0  0  0
 26 17  1  0  0  0  0
 27  2  1  0  0  0  0
 27  9  2  0  0  0  0
 28 19  1  0  0  0  0
 31 12  1  0  0  0  0
M  END
>  <MODEL>
4

>  <REMARK>
 VINA RESULT:      -5.4      5.816     10.351
  Name = 
  0 active torsions:
  status: ('A' for Active; 'I' for Inactive)
                            x       y       z     vdW  Elec       q    Type
                         _______ _______ _______ _____ _____    ______ ____

>  <TORSDO>
F 0

$$$$
=
 OpenBabel10232408123D

 32 35  0  0  1  0  0  0  0  0999 V2000
  190.0910  176.6720  136.4910 C   0  0  0  0  0  0  0  0  0  0  0  0
  182.0760  177.5880  137.4450 C   0  0  0  0  0  2  0  0  0  0  0  0
  183.2240  178.0730  140.8310 C   0  0  0  0  0  1  0  0  0  0  0  0
  183.9090  173.8310  135.5120 C   0  0  0  0  0  2  0  0  0  0  0  0
  185.4300  178.4070  138.3770 N   0  0  0  0  0  2  0  0  0  0  0  0
  181.8560  178.0680  138.8090 N   0  0  0  0  0  2  0  0  0  0  0  0
  186.6200  171.3040  135.7870 O   0  0  0  0  0  1  0  0  0  0  0  0
  183.5470  176.9440  134.8440 C   0  0  1  0  0  3  0  0  0  0  0  0
  184.2220  177.1940  136.1680 C   0  0  0  0  0  0  0  0  0  0  0  0
  185.1100  173.0120  135.0820 C   0  0  0  0  0  2  0  0  0  0  0  0
  191.3900  174.6990  134.5290 C   0  0  0  0  0  3  0  0  0  0  0  0
  191.7220  175.9770  134.7500 C   0  0  0  0  0  3  0  0  0  0  0  0
  187.5710  178.1700  137.4590 O   0  0  0  0  0  0  0  0  0  0  0  0
  186.3170  177.5660  137.5710 C   0  0  2  0  0  3  0  0  0  0  0  0
  188.4220  173.5570  136.4160 N   0  0  0  0  0  0  0  0  0  0  0  0
  190.6320  173.8210  135.4920 C   0  0  2  0  0  3  0  0  0  0  0  0
  185.6490  172.1930  136.2480 C   0  0  2  0  0  3  0  0  0  0  0  0
  183.1700  178.4190  139.3560 C   0  0  2  0  0  3  0  0  0  0  0  0
  189.0060  175.8430  135.8580 C   0  0  0  0  0  2  0  0  0  0  0  0
  188.4150  177.3910  138.2530 C   0  0  0  0  0  2  0  0  0  0  0  0
  184.2160  177.6290  138.6010 C   0  0  1  0  0  3  0  0  0  0  0  0
  182.7330  175.8070  134.9040 O   0  0  0  0  0  0  0  0  0  0  0  0
  189.8430  177.4780  137.7330 C   0  0  0  0  0  2  0  0  0  0  0  0
  185.7290  177.3330  136.1670 C   0  0  0  0  0  2  0  0  0  0  0  0
  183.5170  174.7720  134.3900 C   0  0  0  0  0  2  0  0  0  0  0  0
  186.2280  173.0790  137.3520 C   0  0  0  0  0  2  0  0  0  0  0  0
  183.5360  177.3760  137.3160 C   0  0  0  0  0  0  0  0  0  0  0  0
  189.3110  174.3760  135.9490 C   0  0  0  0  0  0  0  0  0  0  0  0
  187.1870  173.9950  136.8420 O   0  0  0  0  0  0  0  0  0  0  0  0
  182.7390  178.1480  134.3900 C   0  0  0  0  0  1  0  0  0  0  0  0
  191.2990  176.7590  135.9280 C   0  0  0  0  0  3  0  0  0  0  0  0
  191.4990  173.4460  136.6820 C   0  0  0  0  0  1  0  0  0  0  0  0
  1 23  1  0  0  0  0
  2  6  1  0  0  0  0
  5 21  1  0  0  0  0
  6 18  1  0  0  0  0
  8 30  1  1  0  0  0
  8 22  1  0  0  0  0
  8  9  1  0  0  0  0
  9 27  2  0  0  0  0
 10  4  1  0  0  0  0
 10 17  1  0  0  0  0
 11 12  2  0  0  0  0
 11 16  1  0  0  0  0
 12 31  1  0  0  0  0
 13 14  1  0  0  0  0
 13 20  1  0  0  0  0
 14 24  1  6  0  0  0
 14  5  1  0  0  0  0
 15 29  1  0  0  0  0
 16 28  1  0  0  0  0
 16 32  1  1  0  0  0
 17  7  1  6  0  0  0
 17 26  1  0  0  0  0
 18  3  1  1  0  0  0
 19 28  1  0  0  0  0
 19  1  1  0  0  0  0
 21 27  1  6  0  0  0
 21 18  1  0  0  0  0
 23 20  1  0  0  0  0
 24  9  1  0  0  0  0
 25 22  1  0  0  0  0
 25  4  1  0  0  0  0
 27  2  1  0  0  0  0
 28 15  2  0  0  0  0
 29 26  1  0  0  0  0
 31  1  2  0  0  0  0
M  END
>  <MODEL>
5

>  <REMARK>
 VINA RESULT:      -5.2      3.795      8.136
  Name = 
  0 active torsions:
  status: ('A' for Active; 'I' for Inactive)
                            x       y       z     vdW  Elec       q    Type
                         _______ _______ _______ _____ _____    ______ ____

>  <TORSDO>
F 0

$$$$
=
 OpenBabel10232408123D

 32 35  0  0  1  0  0  0  0  0999 V2000
  193.6380  175.2850  136.7940 C   0  0  0  0  0  0  0  0  0  0  0  0
  186.3970  178.4420  138.6930 C   0  0  0  0  0  2  0  0  0  0  0  0
  187.7210  177.7500  141.9770 C   0  0  0  0  0  1  0  0  0  0  0  0
  186.8430  174.8460  135.8490 C   0  0  0  0  0  2  0  0  0  0  0  0
  189.8550  177.9230  139.4440 N   0  0  0  0  0  2  0  0  0  0  0  0
  186.3800  178.6410  140.1420 N   0  0  0  0  0  2  0  0  0  0  0  0
  188.5760  171.6000  135.3270 O   0  0  0  0  0  1  0  0  0  0  0  0
  187.5120  177.9800  135.8850 C   0  0  1  0  0  3  0  0  0  0  0  0
  188.2630  177.6940  137.1590 C   0  0  0  0  0  0  0  0  0  0  0  0
  187.6970  173.8110  135.1440 C   0  0  0  0  0  2  0  0  0  0  0  0
  194.1670  173.5070  134.3460 C   0  0  0  0  0  3  0  0  0  0  0  0
  194.9070  174.5290  134.7950 C   0  0  0  0  0  3  0  0  0  0  0  0
  191.7760  177.2390  138.2930 O   0  0  0  0  0  0  0  0  0  0  0  0
  190.3970  177.0530  138.3980 C   0  0  2  0  0  3  0  0  0  0  0  0
  191.0340  172.9610  136.2330 N   0  0  0  0  0  0  0  0  0  0  0  0
  193.1840  172.7180  135.1740 C   0  0  2  0  0  3  0  0  0  0  0  0
  187.9630  172.6200  136.0540 C   0  0  2  0  0  3  0  0  0  0  0  0
  187.7500  178.4240  140.6200 C   0  0  2  0  0  3  0  0  0  0  0  0
  192.3260  175.0100  136.1090 C   0  0  0  0  0  2  0  0  0  0  0  0
  192.3340  176.0730  138.8210 C   0  0  0  0  0  2  0  0  0  0  0  0
  188.4580  177.5390  139.6180 C   0  0  1  0  0  3  0  0  0  0  0  0
  186.3700  177.1760  135.7850 O   0  0  0  0  0  0  0  0  0  0  0  0
  193.6990  175.8210  138.1940 C   0  0  0  0  0  2  0  0  0  0  0  0
  189.7310  177.3460  137.0400 C   0  0  0  0  0  2  0  0  0  0  0  0
  186.7570  176.0930  134.9920 C   0  0  0  0  0  2  0  0  0  0  0  0
  188.8280  172.9990  137.2570 C   0  0  0  0  0  2  0  0  0  0  0  0
  187.7020  177.8150  138.3810 C   0  0  0  0  0  0  0  0  0  0  0  0
  192.1310  173.5420  135.8630 C   0  0  0  0  0  0  0  0  0  0  0  0
  190.0230  173.6560  136.8590 O   0  0  0  0  0  0  0  0  0  0  0  0
  187.1350  179.4470  135.7720 C   0  0  0  0  0  1  0  0  0  0  0  0
  194.7930  175.1130  136.1460 C   0  0  0  0  0  3  0  0  0  0  0  0
  193.9080  171.8260  136.1690 C   0  0  0  0  0  1  0  0  0  0  0  0
  1 23  1  0  0  0  0
  2  6  1  0  0  0  0
  5 21  1  0  0  0  0
  6 18  1  0  0  0  0
  8 30  1  1  0  0  0
  8  9  1  0  0  0  0
  9 27  2  0  0  0  0
 10  4  1  0  0  0  0
 10 17  1  0  0  0  0
 11 12  2  0  0  0  0
 11 16  1  0  0  0  0
 12 31  1  0  0  0  0
 13 14  1  0  0  0  0
 13 20  1  0  0  0  0
 14 24  1  6  0  0  0
 14  5  1  0  0  0  0
 15 29  1  0  0  0  0
 16 28  1  0  0  0  0
 16 32  1  1  0  0  0
 17  7  1  6  0  0  0
 17 26  1  0  0  0  0
 18  3  1  1  0  0  0
 19  1  1  0  0  0  0
 21 27  1  6  0  0  0
 21 18  1  0  0  0  0
 22  8  1  0  0  0  0
 23 20  1  0  0  0  0
 24  9  1  0  0  0  0
 25 22  1  0  0  0  0
 25  4  1  0  0  0  0
 27  2  1  0  0  0  0
 28 19  1  0  0  0  0
 28 15  2  0  0  0  0
 29 26  1  0  0  0  0
 31  1  2  0  0  0  0
M  END
>  <MODEL>
6

>  <REMARK>
 VINA RESULT:      -5.2      2.158      6.931
  Name = 
  0 active torsions:
  status: ('A' for Active; 'I' for Inactive)
                            x       y       z     vdW  Elec       q    Type
                         _______ _______ _______ _____ _____    ______ ____

>  <TORSDO>
F 0

$$$$
=
 OpenBabel10232408123D

 32 35  0  0  1  0  0  0  0  0999 V2000
  183.9880  174.0760  135.7290 C   0  0  0  0  0  0  0  0  0  0  0  0
  180.8450  180.6190  139.3770 C   0  0  0  0  0  2  0  0  0  0  0  0
  180.5650  181.5730  135.9080 C   0  0  0  0  0  1  0  0  0  0  0  0
  185.0360  179.0080  140.4010 C   0  0  0  0  0  2  0  0  0  0  0  0
  180.9540  178.3550  136.6110 N   0  0  0  0  0  2  0  0  0  0  0  0
  180.2690  181.4620  138.3290 N   0  0  0  0  0  2  0  0  0  0  0  0
  188.2040  177.6930  138.9710 O   0  0  0  0  0  1  0  0  0  0  0  0
  181.9730  178.1290  140.7420 C   0  0  1  0  0  3  0  0  0  0  0  0
  181.8690  178.3110  139.2500 C   0  0  0  0  0  0  0  0  0  0  0  0
  186.1730  178.0310  140.1770 C   0  0  0  0  0  2  0  0  0  0  0  0
  186.3210  172.4200  136.8460 C   0  0  0  0  0  3  0  0  0  0  0  0
  185.1770  171.9730  136.3120 C   0  0  0  0  0  3  0  0  0  0  0  0
  181.8120  176.2210  136.1740 O   0  0  0  0  0  0  0  0  0  0  0  0
  182.0390  177.4070  136.8730 C   0  0  2  0  0  3  0  0  0  0  0  0
  186.5180  176.1010  137.1430 N   0  0  0  0  0  0  0  0  0  0  0  0
  186.9140  173.7850  136.6080 C   0  0  2  0  0  3  0  0  0  0  0  0
  187.0630  178.4930  139.0310 C   0  0  2  0  0  3  0  0  0  0  0  0
  180.2760  180.6730  137.0930 C   0  0  2  0  0  3  0  0  0  0  0  0
  184.5070  174.7560  136.9670 C   0  0  0  0  0  2  0  0  0  0  0  0
  182.7630  176.2200  135.1520 C   0  0  0  0  0  2  0  0  0  0  0  0
  181.3550  179.6200  137.2180 C   0  0  1  0  0  3  0  0  0  0  0  0
  182.8370  179.0770  141.3040 O   0  0  0  0  0  0  0  0  0  0  0  0
  183.0970  174.7890  134.7540 C   0  0  0  0  0  2  0  0  0  0  0  0
  182.1540  177.1070  138.3790 C   0  0  0  0  0  2  0  0  0  0  0  0
  184.0680  178.4270  141.4130 C   0  0  0  0  0  2  0  0  0  0  0  0
  186.3300  178.4640  137.6880 C   0  0  0  0  0  2  0  0  0  0  0  0
  181.4590  179.4640  138.6820 C   0  0  0  0  0  0  0  0  0  0  0  0
  185.9970  174.9370  136.9130 C   0  0  0  0  0  0  0  0  0  0  0  0
  185.7380  177.1970  137.4390 O   0  0  0  0  0  0  0  0  0  0  0  0
  180.6120  178.1930  141.4120 C   0  0  0  0  0  1  0  0  0  0  0  0
  184.2630  172.7910  135.4910 C   0  0  0  0  0  3  0  0  0  0  0  0
  187.4690  173.8960  135.1980 C   0  0  0  0  0  1  0  0  0  0  0  0
  1 19  1  0  0  0  0
  4 25  1  0  0  0  0
  5 14  1  0  0  0  0
  6  2  1  0  0  0  0
  8 22  1  0  0  0  0
  8 30  1  1  0  0  0
  9  8  1  0  0  0  0
 10  4  1  0  0  0  0
 12 11  2  0  0  0  0
 13 14  1  0  0  0  0
 14 24  1  1  0  0  0
 15 29  1  0  0  0  0
 16 32  1  6  0  0  0
 16 11  1  0  0  0  0
 16 28  1  0  0  0  0
 17  7  1  6  0  0  0
 17 10  1  0  0  0  0
 18  3  1  6  0  0  0
 18 21  1  0  0  0  0
 18  6  1  0  0  0  0
 20 13  1  0  0  0  0
 21  5  1  6  0  0  0
 21 27  1  0  0  0  0
 22 25  1  0  0  0  0
 23 20  1  0  0  0  0
 23  1  1  0  0  0  0
 24  9  1  0  0  0  0
 26 17  1  0  0  0  0
 27  9  2  0  0  0  0
 27  2  1  0  0  0  0
 28 19  1  0  0  0  0
 28 15  2  0  0  0  0
 29 26  1  0  0  0  0
 31  1  2  0  0  0  0
 31 12  1  0  0  0  0
M  END
>  <MODEL>
7

>  <REMARK>
 VINA RESULT:      -5.1      5.284     10.114
  Name = 
  0 active torsions:
  status: ('A' for Active; 'I' for Inactive)
                            x       y       z     vdW  Elec       q    Type
                         _______ _______ _______ _____ _____    ______ ____

>  <TORSDO>
F 0

$$$$
=
 OpenBabel10232408123D

 32 35  0  0  1  0  0  0  0  0999 V2000
  191.1060  177.1870  141.2750 C   0  0  0  0  0  0  0  0  0  0  0  0
  194.6030  174.0360  134.6540 C   0  0  0  0  0  2  0  0  0  0  0  0
  196.4500  177.1160  134.9990 C   0  0  0  0  0  1  0  0  0  0  0  0
  190.0550  174.6970  134.9550 C   0  0  0  0  0  2  0  0  0  0  0  0
  194.8040  175.9840  137.6470 N   0  0  0  0  0  2  0  0  0  0  0  0
  195.7680  174.8650  134.3460 N   0  0  0  0  0  2  0  0  0  0  0  0
  187.4090  177.0820  136.0150 O   0  0  0  0  0  1  0  0  0  0  0  0
  192.3030  172.8240  136.2610 C   0  0  1  0  0  3  0  0  0  0  0  0
  193.0100  174.1070  136.6160 C   0  0  0  0  0  0  0  0  0  0  0  0
  188.8330  175.1930  135.7030 C   0  0  0  0  0  2  0  0  0  0  0  0
  188.1240  176.9160  141.9580 C   0  0  0  0  0  3  0  0  0  0  0  0
  189.1720  176.7630  142.7770 C   0  0  0  0  0  3  0  0  0  0  0  0
  193.5280  176.2840  139.5870 O   0  0  0  0  0  0  0  0  0  0  0  0
  193.4550  176.0410  138.2140 C   0  0  2  0  0  3  0  0  0  0  0  0
  189.0380  177.5510  138.4310 N   0  0  0  0  0  0  0  0  0  0  0  0
  188.1410  177.6890  140.6630 C   0  0  2  0  0  3  0  0  0  0  0  0
  188.6370  176.6880  135.4860 C   0  0  2  0  0  3  0  0  0  0  0  0
  195.9670  175.7650  135.4870 C   0  0  2  0  0  3  0  0  0  0  0  0
  190.4130  176.5000  140.1300 C   0  0  0  0  0  2  0  0  0  0  0  0
  193.0830  177.5990  139.7410 C   0  0  0  0  0  2  0  0  0  0  0  0
  194.6400  175.9150  136.1980 C   0  0  1  0  0  3  0  0  0  0  0  0
  191.6510  172.9360  135.0270 O   0  0  0  0  0  0  0  0  0  0  0  0
  192.4760  177.7820  141.1260 C   0  0  0  0  0  2  0  0  0  0  0  0
  192.6950  174.7260  137.9610 C   0  0  0  0  0  2  0  0  0  0  0  0
  190.3290  173.2580  135.3420 C   0  0  0  0  0  2  0  0  0  0  0  0
  189.7660  177.5100  136.1110 C   0  0  0  0  0  2  0  0  0  0  0  0
  193.9530  174.6630  135.8280 C   0  0  0  0  0  0  0  0  0  0  0  0
  189.1990  177.2610  139.6840 C   0  0  0  0  0  0  0  0  0  0  0  0
  189.9620  177.1810  137.4790 O   0  0  0  0  0  0  0  0  0  0  0  0
  193.2570  171.6420  136.2480 C   0  0  0  0  0  1  0  0  0  0  0  0
  190.5380  177.2370  142.4840 C   0  0  0  0  0  3  0  0  0  0  0  0
  188.2210  179.1830  140.9250 C   0  0  0  0  0  1  0  0  0  0  0  0
  1 31  2  0  0  0  0
  2 27  1  0  0  0  0
  4 25  1  0  0  0  0
  4 10  1  0  0  0  0
  5 14  1  0  0  0  0
  6  2  1  0  0  0  0
  6 18  1  0  0  0  0
  8 30  1  6  0  0  0
  8  9  1  0  0  0  0
  9 24  1  0  0  0  0
 11 12  2  0  0  0  0
 13 20  1  0  0  0  0
 14 24  1  1  0  0  0
 14 13  1  0  0  0  0
 15 28  2  0  0  0  0
 16 32  1  1  0  0  0
 16 11  1  0  0  0  0
 17 10  1  0  0  0  0
 17  7  1  1  0  0  0
 17 26  1  0  0  0  0
 18  3  1  6  0  0  0
 18 21  1  0  0  0  0
 19  1  1  0  0  0  0
 20 23  1  0  0  0  0
 21 27  1  1  0  0  0
 21  5  1  0  0  0  0
 22 25  1  0  0  0  0
 22  8  1  0  0  0  0
 23  1  1  0  0  0  0
 26 29  1  0  0  0  0
 27  9  2  0  0  0  0
 28 19  1  0  0  0  0
 28 16  1  0  0  0  0
 29 15  1  0  0  0  0
 31 12  1  0  0  0  0
M  END
>  <MODEL>
8

>  <REMARK>
 VINA RESULT:      -4.9      1.325      1.564
  Name = 
  0 active torsions:
  status: ('A' for Active; 'I' for Inactive)
                            x       y       z     vdW  Elec       q    Type
                         _______ _______ _______ _____ _____    ______ ____

>  <TORSDO>
F 0

$$$$
=
 OpenBabel10232408123D

 32 35  0  0  1  0  0  0  0  0999 V2000
  181.5820  179.2890  136.9690 C   0  0  0  0  0  0  0  0  0  0  0  0
  188.4820  175.0100  137.2640 C   0  0  0  0  0  2  0  0  0  0  0  0
  186.0480  172.3600  137.0030 C   0  0  0  0  0  1  0  0  0  0  0  0
  187.3570  178.0880  140.4990 C   0  0  0  0  0  2  0  0  0  0  0  0
  185.1240  175.4150  136.1040 N   0  0  0  0  0  2  0  0  0  0  0  0
  188.1400  173.6190  136.9710 N   0  0  0  0  0  2  0  0  0  0  0  0
  184.5980  179.3460  142.6490 O   0  0  0  0  0  1  0  0  0  0  0  0
  188.2070  178.0510  137.4100 C   0  0  1  0  0  3  0  0  0  0  0  0
  187.0560  177.0980  137.2180 C   0  0  0  0  0  0  0  0  0  0  0  0
  186.3920  179.0940  141.0960 C   0  0  0  0  0  2  0  0  0  0  0  0
  181.0890  181.8940  138.5190 C   0  0  0  0  0  3  0  0  0  0  0  0
  180.7950  181.6300  137.2390 C   0  0  0  0  0  3  0  0  0  0  0  0
  183.5620  177.1530  135.9440 O   0  0  0  0  0  0  0  0  0  0  0  0
  184.5990  176.6350  136.7220 C   0  0  2  0  0  3  0  0  0  0  0  0
  182.8800  179.1630  140.2550 N   0  0  0  0  0  0  0  0  0  0  0  0
  181.2980  180.8560  139.5930 C   0  0  2  0  0  3  0  0  0  0  0  0
  185.3480  178.3960  141.9570 C   0  0  2  0  0  3  0  0  0  0  0  0
  186.7480  173.6090  136.5070 C   0  0  2  0  0  3  0  0  0  0  0  0
  182.7660  179.5450  137.8630 C   0  0  0  0  0  2  0  0  0  0  0  0
  182.4040  176.9070  136.6840 C   0  0  0  0  0  2  0  0  0  0  0  0
  186.0640  174.8400  137.0600 C   0  0  1  0  0  3  0  0  0  0  0  0
  188.8290  177.8430  138.6480 O   0  0  0  0  0  0  0  0  0  0  0  0
  181.3420  177.9440  136.3460 C   0  0  0  0  0  2  0  0  0  0  0  0
  185.7070  177.6930  136.8760 C   0  0  0  0  0  2  0  0  0  0  0  0
  188.2590  178.7890  139.5030 C   0  0  0  0  0  2  0  0  0  0  0  0
  184.4260  177.5010  141.1280 C   0  0  0  0  0  2  0  0  0  0  0  0
  187.2030  175.7570  137.2590 C   0  0  0  0  0  0  0  0  0  0  0  0
  182.3390  179.8180  139.2760 C   0  0  0  0  0  0  0  0  0  0  0  0
  183.8470  178.2070  140.0390 O   0  0  0  0  0  0  0  0  0  0  0  0
  189.2220  177.9400  136.2850 C   0  0  0  0  0  1  0  0  0  0  0  0
  180.7380  180.2750  136.6570 C   0  0  0  0  0  3  0  0  0  0  0  0
  179.9820  180.2000  139.9750 C   0  0  0  0  0  1  0  0  0  0  0  0
  1 19  1  0  0  0  0
  4 10  1  0  0  0  0
  5 14  1  0  0  0  0
  6  2  1  0  0  0  0
  8 30  1  6  0  0  0
  8 22  1  0  0  0  0
  9 27  2  0  0  0  0
  9  8  1  0  0  0  0
 10 17  1  0  0  0  0
 11 16  1  0  0  0  0
 12 11  2  0  0  0  0
 13 20  1  0  0  0  0
 13 14  1  0  0  0  0
 14 24  1  6  0  0  0
 16 32  1  6  0  0  0
 17  7  1  6  0  0  0
 18  6  1  0  0  0  0
 18  3  1  1  0  0  0
 18 21  1  0  0  0  0
 19 28  1  0  0  0  0
 21  5  1  6  0  0  0
 21 27  1  0  0  0  0
 22 25  1  0  0  0  0
 23 20  1  0  0  0  0
 23  1  1  0  0  0  0
 24  9  1  0  0  0  0
 25  4  1  0  0  0  0
 26 17  1  0  0  0  0
 27  2  1  0  0  0  0
 28 16  1  0  0  0  0
 28 15  2  0  0  0  0
 29 15  1  0  0  0  0
 29 26  1  0  0  0  0
 31  1  2  0  0  0  0
 31 12  1  0  0  0  0
M  END
>  <MODEL>
9

>  <REMARK>
 VINA RESULT:      -4.7      4.687      7.898
  Name = 
  0 active torsions:
  status: ('A' for Active; 'I' for Inactive)
                            x       y       z     vdW  Elec       q    Type
                         _______ _______ _______ _____ _____    ______ ____

>  <TORSDO>
F 0

$$$$
