=
 OpenBabel10232408393D

 28 30  0  0  1  0  0  0  0  0999 V2000
  186.5810  177.3220  144.7670 C   0  0  2  0  0  3  0  0  0  0  0  0
  186.4980  177.5260  146.2890 C   0  0  0  0  0  2  0  0  0  0  0  0
  190.0570  177.9330  143.2790 C   0  0  2  0  0  3  0  0  0  0  0  0
  189.7860  177.6380  145.7560 C   0  0  2  0  0  3  0  0  0  0  0  0
  191.0310  176.7600  143.3510 C   0  0  0  0  0  2  0  0  0  0  0  0
  191.5900  176.6840  144.7700 C   0  0  0  0  0  2  0  0  0  0  0  0
  188.8830  177.5760  146.9930 C   0  0  0  0  0  2  0  0  0  0  0  0
  187.9280  176.8640  144.1880 C   0  0  0  0  0  2  0  0  0  0  0  0
  187.6090  178.3980  146.8650 C   0  0  0  0  0  2  0  0  0  0  0  0
  189.0390  177.8900  144.4270 C   0  0  2  0  0  3  0  0  0  0  0  0
  190.5460  176.4530  145.6820 O   0  0  0  0  0  0  0  0  0  0  0  0
  189.4230  177.9660  142.0360 O   0  0  0  0  0  0  0  0  0  0  0  0
  189.8640  176.8140  141.3820 C   0  0  0  0  0  2  0  0  0  0  0  0
  190.5310  175.6760  138.1940 C   0  0  0  0  0  2  0  0  0  0  0  0
  188.9470  176.9650  139.0830 C   0  0  2  0  0  3  0  0  0  0  0  0
  191.1480  176.2040  139.4070 N   0  0  0  0  0  0  0  0  0  0  0  0
  190.1770  177.1370  139.9320 C   0  0  2  0  0  3  0  0  0  0  0  0
  189.3740  176.4080  137.8730 O   0  0  0  0  0  0  0  0  0  0  0  0
  192.3060  176.9840  138.9990 C   0  0  0  0  0  2  0  0  0  0  0  0
  193.1100  176.2100  137.9730 C   0  0  0  0  0  1  0  0  0  0  0  0
  188.2530  178.2760  138.8460 C   0  0  0  0  0  0  0  0  0  0  0  0
  188.8990  179.2500  138.2870 N   0  0  0  0  0  2  0  0  0  0  0  0
  186.8950  178.4130  139.1550 O   0  0  0  0  0  0  0  0  0  0  0  0
  185.8770  178.3100  138.1700 C   0  0  0  0  0  1  0  0  0  0  0  0
  185.9120  178.3650  143.9820 N   0  0  0  0  0  2  0  0  0  0  0  0
  185.8970  178.0250  142.5640 C   0  0  0  0  0  2  0  0  0  0  0  0
  184.2580  178.3690  141.8670 S   0  0  0  0  0  0  0  0  0  0  0  0
  183.5590  178.8180  143.4800 C   0  0  0  0  0  1  0  0  0  0  0  0
  1 25  1  6  0  0  0
  1  2  1  0  0  0  0
  2  9  1  0  0  0  0
  3 12  1  6  0  0  0
  3  5  1  0  0  0  0
  3 10  1  0  0  0  0
  4  7  1  1  0  0  0
  5  6  1  0  0  0  0
  6 11  1  0  0  0  0
  8  1  1  0  0  0  0
  9  7  1  0  0  0  0
 10  8  1  6  0  0  0
 10  4  1  0  0  0  0
 11  4  1  0  0  0  0
 13 12  1  0  0  0  0
 14 16  1  0  0  0  0
 15 21  1  6  0  0  0
 15 17  1  0  0  0  0
 16 17  1  0  0  0  0
 17 13  1  1  0  0  0
 18 14  1  0  0  0  0
 18 15  1  0  0  0  0
 19 16  1  0  0  0  0
 20 19  1  0  0  0  0
 21 23  1  0  0  0  0
 22 21  2  0  0  0  0
 24 23  1  0  0  0  0
 26 25  1  0  0  0  0
 27 26  1  0  0  0  0
 27 28  1  0  0  0  0
M  END
>  <MODEL>
1

>  <REMARK>
 VINA RESULT:      -7.3      0.000      0.000
  Name = 
  9 active torsions:
  status: ('A' for Active; 'I' for Inactive)
    1  A    between atoms: C_2  and  N_20
    2  A    between atoms: C_4  and  C_7
    3  A    between atoms: O_5  and  C_8
    4  A    between atoms: O_5  and  C_21
    5  A    between atoms: C_6  and  N_22
    6  A    between atoms: C_7  and  O_16
    7  A    between atoms: S_9  and  C_12
    8  A    between atoms: C_12  and  N_20
    9  A    between atoms: C_21  and  C_25
                            x       y       z     vdW  Elec       q    Type
                         _______ _______ _______ _____ _____    ______ ____

>  <TORSDO>
F 9

$$$$
=
 OpenBabel10232408393D

 28 30  0  0  1  0  0  0  0  0999 V2000
  186.7110  177.1260  144.8700 C   0  0  2  0  0  3  0  0  0  0  0  0
  187.1840  177.4360  146.3000 C   0  0  0  0  0  2  0  0  0  0  0  0
  189.3940  177.6040  142.1800 C   0  0  2  0  0  3  0  0  0  0  0  0
  190.0500  177.4850  144.5990 C   0  0  2  0  0  3  0  0  0  0  0  0
  190.3490  176.4310  141.9710 C   0  0  0  0  0  2  0  0  0  0  0  0
  191.3880  176.4510  143.0910 C   0  0  0  0  0  2  0  0  0  0  0  0
  189.6600  177.5170  146.0810 C   0  0  0  0  0  2  0  0  0  0  0  0
  187.7630  176.6170  143.8730 C   0  0  0  0  0  2  0  0  0  0  0  0
  188.4120  178.3380  146.3700 C   0  0  0  0  0  2  0  0  0  0  0  0
  188.8650  177.6490  143.6200 C   0  0  2  0  0  3  0  0  0  0  0  0
  190.7520  176.2920  144.3340 O   0  0  0  0  0  0  0  0  0  0  0  0
  188.3500  177.5540  141.2540 O   0  0  0  0  0  0  0  0  0  0  0  0
  188.7210  178.4530  140.2520 C   0  0  0  0  0  2  0  0  0  0  0  0
  188.4170  178.7750  136.8310 C   0  0  0  0  0  2  0  0  0  0  0  0
  189.9260  177.8390  138.1750 C   0  0  2  0  0  3  0  0  0  0  0  0
  187.6730  178.5000  138.0570 N   0  0  0  0  0  0  0  0  0  0  0  0
  188.6070  177.7840  138.8950 C   0  0  2  0  0  3  0  0  0  0  0  0
  189.6340  178.0710  136.8270 O   0  0  0  0  0  0  0  0  0  0  0  0
  186.6090  177.5690  137.7170 C   0  0  0  0  0  2  0  0  0  0  0  0
  185.2800  178.1030  138.2170 C   0  0  0  0  0  1  0  0  0  0  0  0
  190.6980  176.5610  138.3370 C   0  0  0  0  0  0  0  0  0  0  0  0
  190.1120  175.4270  138.1100 N   0  0  0  0  0  2  0  0  0  0  0  0
  192.0600  176.6020  138.6520 O   0  0  0  0  0  0  0  0  0  0  0  0
  193.0550  176.0530  137.7990 C   0  0  0  0  0  1  0  0  0  0  0  0
  185.7820  178.1150  144.3140 N   0  0  0  0  0  2  0  0  0  0  0  0
  184.8850  178.6280  145.3430 C   0  0  0  0  0  2  0  0  0  0  0  0
  183.2850  179.0590  144.6030 S   0  0  0  0  0  0  0  0  0  0  0  0
  183.8520  178.6810  142.9210 C   0  0  0  0  0  1  0  0  0  0  0  0
  1 25  1  6  0  0  0
  1  2  1  0  0  0  0
  2  9  1  0  0  0  0
  3 12  1  6  0  0  0
  3 10  1  0  0  0  0
  4  7  1  1  0  0  0
  5  3  1  0  0  0  0
  5  6  1  0  0  0  0
  6 11  1  0  0  0  0
  7  9  1  0  0  0  0
  8  1  1  0  0  0  0
 10  8  1  6  0  0  0
 10  4  1  0  0  0  0
 11  4  1  0  0  0  0
 13 12  1  0  0  0  0
 14 16  1  0  0  0  0
 15 21  1  6  0  0  0
 15 17  1  0  0  0  0
 16 17  1  0  0  0  0
 17 13  1  1  0  0  0
 18 14  1  0  0  0  0
 18 15  1  0  0  0  0
 19 16  1  0  0  0  0
 19 20  1  0  0  0  0
 21 23  1  0  0  0  0
 22 21  2  0  0  0  0
 24 23  1  0  0  0  0
 25 26  1  0  0  0  0
 27 26  1  0  0  0  0
 28 27  1  0  0  0  0
M  END
>  <MODEL>
2

>  <REMARK>
 VINA RESULT:      -7.1      1.383      3.258
  Name = 
  9 active torsions:
  status: ('A' for Active; 'I' for Inactive)
    1  A    between atoms: C_2  and  N_20
    2  A    between atoms: C_4  and  C_7
    3  A    between atoms: O_5  and  C_8
    4  A    between atoms: O_5  and  C_21
    5  A    between atoms: C_6  and  N_22
    6  A    between atoms: C_7  and  O_16
    7  A    between atoms: S_9  and  C_12
    8  A    between atoms: C_12  and  N_20
    9  A    between atoms: C_21  and  C_25
                            x       y       z     vdW  Elec       q    Type
                         _______ _______ _______ _____ _____    ______ ____

>  <TORSDO>
F 9

$$$$
=
 OpenBabel10232408393D

 28 30  0  0  1  0  0  0  0  0999 V2000
  186.6740  177.1220  144.6010 C   0  0  2  0  0  3  0  0  0  0  0  0
  187.1190  177.4100  146.0440 C   0  0  0  0  0  2  0  0  0  0  0  0
  189.3860  177.7120  141.9620 C   0  0  2  0  0  3  0  0  0  0  0  0
  190.0080  177.5530  144.3880 C   0  0  2  0  0  3  0  0  0  0  0  0
  190.3670  176.5630  141.7430 C   0  0  0  0  0  2  0  0  0  0  0  0
  191.3890  176.5780  142.8780 C   0  0  0  0  0  2  0  0  0  0  0  0
  189.5970  177.5450  145.8640 C   0  0  0  0  0  2  0  0  0  0  0  0
  187.7500  176.6570  143.6080 C   0  0  0  0  0  2  0  0  0  0  0  0
  188.3280  178.3340  146.1530 C   0  0  0  0  0  2  0  0  0  0  0  0
  188.8350  177.7150  143.3950 C   0  0  2  0  0  3  0  0  0  0  0  0
  190.7380  176.3800  144.1080 O   0  0  0  0  0  0  0  0  0  0  0  0
  188.3570  177.6630  141.0200 O   0  0  0  0  0  0  0  0  0  0  0  0
  188.9120  178.2050  139.8590 C   0  0  0  0  0  2  0  0  0  0  0  0
  187.6170  178.7120  136.7020 C   0  0  0  0  0  2  0  0  0  0  0  0
  189.2040  177.3900  137.5360 C   0  0  2  0  0  3  0  0  0  0  0  0
  187.2610  178.5830  138.1120 N   0  0  0  0  0  0  0  0  0  0  0  0
  188.2120  177.6310  138.6410 C   0  0  2  0  0  3  0  0  0  0  0  0
  188.5610  177.7340  136.3420 O   0  0  0  0  0  0  0  0  0  0  0  0
  185.9530  177.9510  138.1720 C   0  0  0  0  0  2  0  0  0  0  0  0
  185.0660  178.6980  139.1490 C   0  0  0  0  0  1  0  0  0  0  0  0
  189.6540  175.9570  137.5020 C   0  0  0  0  0  0  0  0  0  0  0  0
  190.5330  175.5430  138.3580 N   0  0  0  0  0  2  0  0  0  0  0  0
  189.0640  175.0620  136.6030 O   0  0  0  0  0  0  0  0  0  0  0  0
  187.8140  174.4380  136.8600 C   0  0  0  0  0  1  0  0  0  0  0  0
  185.7340  178.1060  144.0530 N   0  0  0  0  0  2  0  0  0  0  0  0
  184.8660  178.6390  145.0950 C   0  0  0  0  0  2  0  0  0  0  0  0
  183.2320  179.0130  144.4020 S   0  0  0  0  0  0  0  0  0  0  0  0
  183.7810  178.7210  142.6980 C   0  0  0  0  0  1  0  0  0  0  0  0
  1 25  1  6  0  0  0
  1  2  1  0  0  0  0
  2  9  1  0  0  0  0
  3 12  1  6  0  0  0
  3 10  1  0  0  0  0
  4  7  1  1  0  0  0
  5  3  1  0  0  0  0
  5  6  1  0  0  0  0
  6 11  1  0  0  0  0
  7  9  1  0  0  0  0
  8  1  1  0  0  0  0
 10  8  1  6  0  0  0
 10  4  1  0  0  0  0
 11  4  1  0  0  0  0
 13 12  1  0  0  0  0
 14 16  1  0  0  0  0
 15 21  1  6  0  0  0
 15 17  1  0  0  0  0
 16 19  1  0  0  0  0
 16 17  1  0  0  0  0
 17 13  1  1  0  0  0
 18 14  1  0  0  0  0
 18 15  1  0  0  0  0
 19 20  1  0  0  0  0
 21 22  2  0  0  0  0
 23 24  1  0  0  0  0
 23 21  1  0  0  0  0
 25 26  1  0  0  0  0
 27 26  1  0  0  0  0
 28 27  1  0  0  0  0
M  END
>  <MODEL>
3

>  <REMARK>
 VINA RESULT:      -6.9      1.603      3.165
  Name = 
  9 active torsions:
  status: ('A' for Active; 'I' for Inactive)
    1  A    between atoms: C_2  and  N_20
    2  A    between atoms: C_4  and  C_7
    3  A    between atoms: O_5  and  C_8
    4  A    between atoms: O_5  and  C_21
    5  A    between atoms: C_6  and  N_22
    6  A    between atoms: C_7  and  O_16
    7  A    between atoms: S_9  and  C_12
    8  A    between atoms: C_12  and  N_20
    9  A    between atoms: C_21  and  C_25
                            x       y       z     vdW  Elec       q    Type
                         _______ _______ _______ _____ _____    ______ ____

>  <TORSDO>
F 9

$$$$
=
 OpenBabel10232408393D

 28 30  0  0  1  0  0  0  0  0999 V2000
  188.5050  178.4710  139.7020 C   0  0  2  0  0  3  0  0  0  0  0  0
  189.7440  178.1830  138.8380 C   0  0  0  0  0  2  0  0  0  0  0  0
  188.4570  176.6300  143.0600 C   0  0  2  0  0  3  0  0  0  0  0  0
  190.5870  176.7860  141.7440 C   0  0  2  0  0  3  0  0  0  0  0  0
  189.2320  177.2910  144.1960 C   0  0  0  0  0  2  0  0  0  0  0  0
  190.7190  177.0040  143.9960 C   0  0  0  0  0  2  0  0  0  0  0  0
  191.3160  177.0990  140.4330 C   0  0  0  0  0  2  0  0  0  0  0  0
  188.6720  178.3890  141.2270 C   0  0  0  0  0  2  0  0  0  0  0  0
  190.4630  176.8850  139.1900 C   0  0  0  0  0  2  0  0  0  0  0  0
  189.0560  176.9820  141.6910 C   0  0  2  0  0  3  0  0  0  0  0  0
  191.1520  177.5590  142.7790 O   0  0  0  0  0  0  0  0  0  0  0  0
  187.1040  176.9710  143.1280 O   0  0  0  0  0  0  0  0  0  0  0  0
  186.8130  176.9980  144.4930 C   0  0  0  0  0  2  0  0  0  0  0  0
  183.7390  178.5050  144.9200 C   0  0  0  0  0  2  0  0  0  0  0  0
  185.5070  178.1830  146.2360 C   0  0  2  0  0  3  0  0  0  0  0  0
  184.8470  178.3390  143.9840 N   0  0  0  0  0  0  0  0  0  0  0  0
  186.0210  178.2490  144.8240 C   0  0  2  0  0  3  0  0  0  0  0  0
  184.2240  178.7390  146.2190 O   0  0  0  0  0  0  0  0  0  0  0  0
  184.9620  179.5750  143.2270 C   0  0  0  0  0  2  0  0  0  0  0  0
  185.0940  179.2610  141.7490 C   0  0  0  0  0  1  0  0  0  0  0  0
  186.3980  178.9350  147.1830 C   0  0  0  0  0  0  0  0  0  0  0  0
  185.9480  179.9930  147.7800 N   0  0  0  0  0  2  0  0  0  0  0  0
  187.6760  178.4460  147.4760 O   0  0  0  0  0  0  0  0  0  0  0  0
  188.0030  177.8800  148.7370 C   0  0  0  0  0  1  0  0  0  0  0  0
  187.2660  177.8680  139.1980 N   0  0  0  0  0  2  0  0  0  0  0  0
  187.1470  178.0430  137.7560 C   0  0  0  0  0  2  0  0  0  0  0  0
  186.9470  176.4270  136.9550 S   0  0  0  0  0  0  0  0  0  0  0  0
  186.0030  177.1210  135.5710 C   0  0  0  0  0  1  0  0  0  0  0  0
  1 25  1  6  0  0  0
  1  8  1  0  0  0  0
  2  9  1  0  0  0  0
  2  1  1  0  0  0  0
  3 12  1  6  0  0  0
  3  5  1  0  0  0  0
  4  7  1  6  0  0  0
  4 11  1  0  0  0  0
  6  5  1  0  0  0  0
  9  7  1  0  0  0  0
 10  8  1  1  0  0  0
 10  4  1  0  0  0  0
 10  3  1  0  0  0  0
 11  6  1  0  0  0  0
 12 13  1  0  0  0  0
 14 18  1  0  0  0  0
 15 21  1  1  0  0  0
 16 17  1  0  0  0  0
 16 14  1  0  0  0  0
 17 13  1  6  0  0  0
 17 15  1  0  0  0  0
 18 15  1  0  0  0  0
 19 16  1  0  0  0  0
 20 19  1  0  0  0  0
 21 23  1  0  0  0  0
 21 22  2  0  0  0  0
 23 24  1  0  0  0  0
 26 25  1  0  0  0  0
 27 26  1  0  0  0  0
 28 27  1  0  0  0  0
M  END
>  <MODEL>
4

>  <REMARK>
 VINA RESULT:      -6.7      2.465      6.955
  Name = 
  9 active torsions:
  status: ('A' for Active; 'I' for Inactive)
    1  A    between atoms: C_2  and  N_20
    2  A    between atoms: C_4  and  C_7
    3  A    between atoms: O_5  and  C_8
    4  A    between atoms: O_5  and  C_21
    5  A    between atoms: C_6  and  N_22
    6  A    between atoms: C_7  and  O_16
    7  A    between atoms: S_9  and  C_12
    8  A    between atoms: C_12  and  N_20
    9  A    between atoms: C_21  and  C_25
                            x       y       z     vdW  Elec       q    Type
                         _______ _______ _______ _____ _____    ______ ____

>  <TORSDO>
F 9

$$$$
=
 OpenBabel10232408393D

 28 30  0  0  1  0  0  0  0  0999 V2000
  185.2710  178.2410  142.9110 C   0  0  2  0  0  3  0  0  0  0  0  0
  184.7030  178.5120  144.3140 C   0  0  0  0  0  2  0  0  0  0  0  0
  189.0960  178.1240  142.7510 C   0  0  2  0  0  3  0  0  0  0  0  0
  187.9280  177.9770  144.9660 C   0  0  2  0  0  3  0  0  0  0  0  0
  189.7410  176.7910  143.1190 C   0  0  0  0  0  2  0  0  0  0  0  0
  189.7450  176.6620  144.6410 C   0  0  0  0  0  2  0  0  0  0  0  0
  186.6560  178.1340  145.8080 C   0  0  0  0  0  2  0  0  0  0  0  0
  186.6220  177.5130  142.8240 C   0  0  0  0  0  2  0  0  0  0  0  0
  185.6880  179.1770  145.2700 C   0  0  0  0  0  2  0  0  0  0  0  0
  187.7530  178.3170  143.4690 C   0  0  2  0  0  3  0  0  0  0  0  0
  188.4250  176.6670  145.1230 O   0  0  0  0  0  0  0  0  0  0  0  0
  188.9540  178.2320  141.3660 O   0  0  0  0  0  0  0  0  0  0  0  0
  189.3680  176.9940  140.8690 C   0  0  0  0  0  2  0  0  0  0  0  0
  190.1880  175.5090  137.8650 C   0  0  0  0  0  2  0  0  0  0  0  0
  188.6810  177.0260  138.4870 C   0  0  2  0  0  3  0  0  0  0  0  0
  190.7490  176.0810  139.0860 N   0  0  0  0  0  0  0  0  0  0  0  0
  189.8420  177.1500  139.4360 C   0  0  2  0  0  3  0  0  0  0  0  0
  189.1500  176.3200  137.3750 O   0  0  0  0  0  0  0  0  0  0  0  0
  192.0160  176.7010  138.7310 C   0  0  0  0  0  2  0  0  0  0  0  0
  192.6770  175.9140  137.6140 C   0  0  0  0  0  1  0  0  0  0  0  0
  188.1560  178.3720  138.0780 C   0  0  0  0  0  0  0  0  0  0  0  0
  188.9890  179.3250  137.8000 N   0  0  0  0  0  2  0  0  0  0  0  0
  186.7800  178.5670  137.9220 O   0  0  0  0  0  0  0  0  0  0  0  0
  185.8960  177.5110  137.5750 C   0  0  0  0  0  1  0  0  0  0  0  0
  185.1290  179.3610  141.9760 N   0  0  0  0  0  2  0  0  0  0  0  0
  184.5440  178.9210  140.7160 C   0  0  0  0  0  2  0  0  0  0  0  0
  182.7970  178.4990  140.9640 S   0  0  0  0  0  0  0  0  0  0  0  0
  182.9080  177.0150  139.9260 C   0  0  0  0  0  1  0  0  0  0  0  0
  1 25  1  1  0  0  0
  1  2  1  0  0  0  0
  2  9  1  0  0  0  0
  3 12  1  6  0  0  0
  3  5  1  0  0  0  0
  3 10  1  0  0  0  0
  4 11  1  0  0  0  0
  4  7  1  1  0  0  0
  5  6  1  0  0  0  0
  6 11  1  0  0  0  0
  8  1  1  0  0  0  0
  9  7  1  0  0  0  0
 10  8  1  6  0  0  0
 10  4  1  0  0  0  0
 13 12  1  0  0  0  0
 14 16  1  0  0  0  0
 15 21  1  6  0  0  0
 15 17  1  0  0  0  0
 16 17  1  0  0  0  0
 17 13  1  1  0  0  0
 18 14  1  0  0  0  0
 18 15  1  0  0  0  0
 19 16  1  0  0  0  0
 20 19  1  0  0  0  0
 22 21  2  0  0  0  0
 23 21  1  0  0  0  0
 24 23  1  0  0  0  0
 26 27  1  0  0  0  0
 26 25  1  0  0  0  0
 28 27  1  0  0  0  0
M  END
>  <MODEL>
5

>  <REMARK>
 VINA RESULT:      -6.6      1.433      1.770
  Name = 
  9 active torsions:
  status: ('A' for Active; 'I' for Inactive)
    1  A    between atoms: C_2  and  N_20
    2  A    between atoms: C_4  and  C_7
    3  A    between atoms: O_5  and  C_8
    4  A    between atoms: O_5  and  C_21
    5  A    between atoms: C_6  and  N_22
    6  A    between atoms: C_7  and  O_16
    7  A    between atoms: S_9  and  C_12
    8  A    between atoms: C_12  and  N_20
    9  A    between atoms: C_21  and  C_25
                            x       y       z     vdW  Elec       q    Type
                         _______ _______ _______ _____ _____    ______ ____

>  <TORSDO>
F 9

$$$$
=
 OpenBabel10232408393D

 28 30  0  0  1  0  0  0  0  0999 V2000
  188.8460  176.7610  144.5680 C   0  0  2  0  0  3  0  0  0  0  0  0
  190.2430  177.0600  145.1370 C   0  0  0  0  0  2  0  0  0  0  0  0
  188.2410  178.1480  141.0500 C   0  0  2  0  0  3  0  0  0  0  0  0
  190.5760  177.9970  141.9550 C   0  0  2  0  0  3  0  0  0  0  0  0
  188.7450  177.2860  139.8950 C   0  0  0  0  0  2  0  0  0  0  0  0
  190.2550  177.4790  139.7730 C   0  0  0  0  0  2  0  0  0  0  0  0
  191.5290  177.8000  143.1400 C   0  0  0  0  0  2  0  0  0  0  0  0
  188.7170  176.6300  143.0420 C   0  0  0  0  0  2  0  0  0  0  0  0
  190.9470  178.2400  144.4750 C   0  0  0  0  0  2  0  0  0  0  0  0
  189.0760  177.9300  142.3190 C   0  0  2  0  0  3  0  0  0  0  0  0
  190.8870  177.0550  140.9540 O   0  0  0  0  0  0  0  0  0  0  0  0
  186.8860  177.9080  141.2830 O   0  0  0  0  0  0  0  0  0  0  0  0
  186.3470  179.1640  141.5680 C   0  0  0  0  0  2  0  0  0  0  0  0
  183.6480  177.5890  140.1050 C   0  0  0  0  0  2  0  0  0  0  0  0
  184.1270  178.2440  142.1790 C   0  0  2  0  0  3  0  0  0  0  0  0
  184.6320  178.6510  139.9190 N   0  0  0  0  0  0  0  0  0  0  0  0
  184.8630  179.1690  141.2480 C   0  0  2  0  0  3  0  0  0  0  0  0
  183.1380  177.6150  141.4150 O   0  0  0  0  0  0  0  0  0  0  0  0
  183.9860  179.7100  139.1590 C   0  0  0  0  0  2  0  0  0  0  0  0
  182.8600  179.1290  138.3250 C   0  0  0  0  0  1  0  0  0  0  0  0
  183.5130  178.9920  143.3280 C   0  0  0  0  0  0  0  0  0  0  0  0
  182.2290  179.1600  143.3680 N   0  0  0  0  0  2  0  0  0  0  0  0
  184.3170  179.4300  144.3850 O   0  0  0  0  0  0  0  0  0  0  0  0
  184.3310  178.7840  145.6500 C   0  0  0  0  0  1  0  0  0  0  0  0
  187.7620  177.5190  145.2010 N   0  0  0  0  0  2  0  0  0  0  0  0
  187.5430  177.0740  146.5720 C   0  0  0  0  0  2  0  0  0  0  0  0
  187.4760  178.5090  147.6810 S   0  0  0  0  0  0  0  0  0  0  0  0
  189.0050  178.0390  148.5380 C   0  0  0  0  0  1  0  0  0  0  0  0
  1  2  1  0  0  0  0
  1 25  1  6  0  0  0
  3 12  1  1  0  0  0
  3 10  1  0  0  0  0
  4 10  1  0  0  0  0
  4  7  1  1  0  0  0
  5  3  1  0  0  0  0
  6  5  1  0  0  0  0
  6 11  1  0  0  0  0
  7  9  1  0  0  0  0
  8  1  1  0  0  0  0
  9  2  1  0  0  0  0
 10  8  1  6  0  0  0
 11  4  1  0  0  0  0
 12 13  1  0  0  0  0
 14 18  1  0  0  0  0
 15 21  1  1  0  0  0
 16 14  1  0  0  0  0
 16 17  1  0  0  0  0
 17 13  1  1  0  0  0
 17 15  1  0  0  0  0
 18 15  1  0  0  0  0
 19 16  1  0  0  0  0
 20 19  1  0  0  0  0
 21 22  2  0  0  0  0
 21 23  1  0  0  0  0
 23 24  1  0  0  0  0
 25 26  1  0  0  0  0
 26 27  1  0  0  0  0
 27 28  1  0  0  0  0
M  END
>  <MODEL>
6

>  <REMARK>
 VINA RESULT:      -6.3      2.793      5.763
  Name = 
  9 active torsions:
  status: ('A' for Active; 'I' for Inactive)
    1  A    between atoms: C_2  and  N_20
    2  A    between atoms: C_4  and  C_7
    3  A    between atoms: O_5  and  C_8
    4  A    between atoms: O_5  and  C_21
    5  A    between atoms: C_6  and  N_22
    6  A    between atoms: C_7  and  O_16
    7  A    between atoms: S_9  and  C_12
    8  A    between atoms: C_12  and  N_20
    9  A    between atoms: C_21  and  C_25
                            x       y       z     vdW  Elec       q    Type
                         _______ _______ _______ _____ _____    ______ ____

>  <TORSDO>
F 9

$$$$
=
 OpenBabel10232408393D

 28 30  0  0  1  0  0  0  0  0999 V2000
  188.5270  176.9800  144.4570 C   0  0  2  0  0  3  0  0  0  0  0  0
  189.9030  176.8670  145.1330 C   0  0  0  0  0  2  0  0  0  0  0  0
  188.6410  178.2370  140.8410 C   0  0  2  0  0  3  0  0  0  0  0  0
  190.7390  177.4280  141.9560 C   0  0  2  0  0  3  0  0  0  0  0  0
  188.9250  177.1830  139.7750 C   0  0  0  0  0  2  0  0  0  0  0  0
  190.4230  176.8850  139.7780 C   0  0  0  0  0  2  0  0  0  0  0  0
  191.4940  177.0270  143.2270 C   0  0  0  0  0  2  0  0  0  0  0  0
  188.4700  176.7900  142.9340 C   0  0  0  0  0  2  0  0  0  0  0  0
  190.9900  177.7190  144.4860 C   0  0  0  0  0  2  0  0  0  0  0  0
  189.2730  177.8590  142.1880 C   0  0  2  0  0  3  0  0  0  0  0  0
  190.8040  176.3680  141.0290 O   0  0  0  0  0  0  0  0  0  0  0  0
  187.2670  178.4500  140.9640 O   0  0  0  0  0  0  0  0  0  0  0  0
  186.7980  178.5100  139.6510 C   0  0  0  0  0  2  0  0  0  0  0  0
  183.5750  179.7260  139.4620 C   0  0  0  0  0  2  0  0  0  0  0  0
  184.7820  178.3260  138.2200 C   0  0  2  0  0  3  0  0  0  0  0  0
  184.5910  179.2260  140.3840 N   0  0  0  0  0  0  0  0  0  0  0  0
  185.3070  178.2250  139.6250 C   0  0  2  0  0  3  0  0  0  0  0  0
  183.5210  178.9240  138.3090 O   0  0  0  0  0  0  0  0  0  0  0  0
  183.8970  178.5280  141.4550 C   0  0  0  0  0  2  0  0  0  0  0  0
  184.3550  179.0640  142.7970 C   0  0  0  0  0  1  0  0  0  0  0  0
  184.6830  176.9760  137.5700 C   0  0  0  0  0  0  0  0  0  0  0  0
  185.7520  176.4080  137.1090 N   0  0  0  0  0  2  0  0  0  0  0  0
  183.4550  176.3040  137.5380 O   0  0  0  0  0  0  0  0  0  0  0  0
  183.0040  175.4930  138.6120 C   0  0  0  0  0  1  0  0  0  0  0  0
  187.6980  178.0810  144.9580 N   0  0  0  0  0  2  0  0  0  0  0  0
  186.4260  177.5880  145.4730 C   0  0  0  0  0  2  0  0  0  0  0  0
  185.9100  178.5890  146.8960 S   0  0  0  0  0  0  0  0  0  0  0  0
  187.3920  178.1660  147.8540 C   0  0  0  0  0  1  0  0  0  0  0  0
  1 25  1  6  0  0  0
  1  2  1  0  0  0  0
  3 12  1  1  0  0  0
  3 10  1  0  0  0  0
  4 10  1  0  0  0  0
  4  7  1  1  0  0  0
  5  6  1  0  0  0  0
  5  3  1  0  0  0  0
  6 11  1  0  0  0  0
  7  9  1  0  0  0  0
  8  1  1  0  0  0  0
  9  2  1  0  0  0  0
 10  8  1  6  0  0  0
 11  4  1  0  0  0  0
 13 12  1  0  0  0  0
 14 16  1  0  0  0  0
 15 21  1  1  0  0  0
 15 18  1  0  0  0  0
 15 17  1  0  0  0  0
 16 19  1  0  0  0  0
 17 13  1  6  0  0  0
 17 16  1  0  0  0  0
 18 14  1  0  0  0  0
 19 20  1  0  0  0  0
 22 21  2  0  0  0  0
 23 21  1  0  0  0  0
 23 24  1  0  0  0  0
 25 26  1  0  0  0  0
 26 27  1  0  0  0  0
 27 28  1  0  0  0  0
M  END
>  <MODEL>
7

>  <REMARK>
 VINA RESULT:      -6.2      2.465      5.043
  Name = 
  9 active torsions:
  status: ('A' for Active; 'I' for Inactive)
    1  A    between atoms: C_2  and  N_20
    2  A    between atoms: C_4  and  C_7
    3  A    between atoms: O_5  and  C_8
    4  A    between atoms: O_5  and  C_21
    5  A    between atoms: C_6  and  N_22
    6  A    between atoms: C_7  and  O_16
    7  A    between atoms: S_9  and  C_12
    8  A    between atoms: C_12  and  N_20
    9  A    between atoms: C_21  and  C_25
                            x       y       z     vdW  Elec       q    Type
                         _______ _______ _______ _____ _____    ______ ____

>  <TORSDO>
F 9

$$$$
=
 OpenBabel10232408393D

 28 30  0  0  1  0  0  0  0  0999 V2000
  182.3310  178.0430  140.6230 C   0  0  2  0  0  3  0  0  0  0  0  0
  181.1580  178.3980  141.5530 C   0  0  0  0  0  2  0  0  0  0  0  0
  185.7660  179.1180  141.9300 C   0  0  2  0  0  3  0  0  0  0  0  0
  183.7950  179.0600  143.4810 C   0  0  2  0  0  3  0  0  0  0  0  0
  186.4370  178.1630  142.9140 C   0  0  0  0  0  2  0  0  0  0  0  0
  185.7930  178.3540  144.2860 C   0  0  0  0  0  2  0  0  0  0  0  0
  182.2810  178.9720  143.6980 C   0  0  0  0  0  2  0  0  0  0  0  0
  183.6960  177.7810  141.2770 C   0  0  0  0  0  2  0  0  0  0  0  0
  181.4620  179.5220  142.5390 C   0  0  0  0  0  2  0  0  0  0  0  0
  184.2360  179.0160  142.0010 C   0  0  2  0  0  3  0  0  0  0  0  0
  184.4250  178.0370  144.2180 O   0  0  0  0  0  0  0  0  0  0  0  0
  186.2330  178.8900  140.6340 O   0  0  0  0  0  0  0  0  0  0  0  0
  187.5630  178.4980  140.7990 C   0  0  0  0  0  2  0  0  0  0  0  0
  188.5370  178.7680  137.5000 C   0  0  0  0  0  2  0  0  0  0  0  0
  189.5320  178.0520  139.3600 C   0  0  2  0  0  3  0  0  0  0  0  0
  187.4260  178.3960  138.3710 N   0  0  0  0  0  0  0  0  0  0  0  0
  188.0570  177.8170  139.5360 C   0  0  2  0  0  3  0  0  0  0  0  0
  189.7440  178.2390  137.9900 O   0  0  0  0  0  0  0  0  0  0  0  0
  186.6970  177.3260  137.7090 C   0  0  0  0  0  2  0  0  0  0  0  0
  185.2620  177.7560  137.4690 C   0  0  0  0  0  1  0  0  0  0  0  0
  190.3400  176.8920  139.8680 C   0  0  0  0  0  0  0  0  0  0  0  0
  190.6210  175.9110  139.0700 N   0  0  0  0  0  2  0  0  0  0  0  0
  190.8510  176.9150  141.1700 O   0  0  0  0  0  0  0  0  0  0  0  0
  190.2180  176.2390  142.2470 C   0  0  0  0  0  1  0  0  0  0  0  0
  182.3930  178.8460  139.3980 N   0  0  0  0  0  2  0  0  0  0  0  0
  181.1650  178.7160  138.6230 C   0  0  0  0  0  2  0  0  0  0  0  0
  180.8370  180.2600  137.7290 S   0  0  0  0  0  0  0  0  0  0  0  0
  180.0440  181.0350  139.1650 C   0  0  0  0  0  1  0  0  0  0  0  0
  1 25  1  6  0  0  0
  1  8  1  0  0  0  0
  1  2  1  0  0  0  0
  2  9  1  0  0  0  0
  3 12  1  6  0  0  0
  3 10  1  0  0  0  0
  3  5  1  0  0  0  0
  4  7  1  6  0  0  0
  4 11  1  0  0  0  0
  5  6  1  0  0  0  0
  9  7  1  0  0  0  0
 10  8  1  1  0  0  0
 10  4  1  0  0  0  0
 11  6  1  0  0  0  0
 12 13  1  0  0  0  0
 14 18  1  0  0  0  0
 14 16  1  0  0  0  0
 15 17  1  0  0  0  0
 15 21  1  6  0  0  0
 16 17  1  0  0  0  0
 17 13  1  1  0  0  0
 18 15  1  0  0  0  0
 19 16  1  0  0  0  0
 20 19  1  0  0  0  0
 21 23  1  0  0  0  0
 22 21  2  0  0  0  0
 23 24  1  0  0  0  0
 26 25  1  0  0  0  0
 27 26  1  0  0  0  0
 27 28  1  0  0  0  0
M  END
>  <MODEL>
8

>  <REMARK>
 VINA RESULT:      -6.2      2.810      5.388
  Name = 
  9 active torsions:
  status: ('A' for Active; 'I' for Inactive)
    1  A    between atoms: C_2  and  N_20
    2  A    between atoms: C_4  and  C_7
    3  A    between atoms: O_5  and  C_8
    4  A    between atoms: O_5  and  C_21
    5  A    between atoms: C_6  and  N_22
    6  A    between atoms: C_7  and  O_16
    7  A    between atoms: S_9  and  C_12
    8  A    between atoms: C_12  and  N_20
    9  A    between atoms: C_21  and  C_25
                            x       y       z     vdW  Elec       q    Type
                         _______ _______ _______ _____ _____    ______ ____

>  <TORSDO>
F 9

$$$$
=
 OpenBabel10232408393D

 28 30  0  0  1  0  0  0  0  0999 V2000
  186.8150  177.5170  144.4530 C   0  0  2  0  0  3  0  0  0  0  0  0
  187.7420  177.3560  145.6700 C   0  0  0  0  0  2  0  0  0  0  0  0
  188.6280  178.3720  141.1900 C   0  0  2  0  0  3  0  0  0  0  0  0
  189.9240  177.5050  143.1550 C   0  0  2  0  0  3  0  0  0  0  0  0
  189.2090  177.1900  140.4170 C   0  0  0  0  0  2  0  0  0  0  0  0
  190.5100  176.7650  141.0950 C   0  0  0  0  0  2  0  0  0  0  0  0
  190.0030  177.1750  144.6500 C   0  0  0  0  0  2  0  0  0  0  0  0
  187.3960  177.1740  143.0730 C   0  0  0  0  0  2  0  0  0  0  0  0
  189.0980  178.0370  145.5180 C   0  0  0  0  0  2  0  0  0  0  0  0
  188.5670  178.0840  142.6960 C   0  0  2  0  0  3  0  0  0  0  0  0
  190.2490  176.3520  142.4120 O   0  0  0  0  0  0  0  0  0  0  0  0
  187.3720  178.7150  140.6840 O   0  0  0  0  0  0  0  0  0  0  0  0
  187.0750  177.7130  139.7590 C   0  0  0  0  0  2  0  0  0  0  0  0
  185.8240  177.2940  136.5710 C   0  0  0  0  0  2  0  0  0  0  0  0
  184.9440  177.9380  138.5130 C   0  0  2  0  0  3  0  0  0  0  0  0
  186.9700  177.7890  137.3290 N   0  0  0  0  0  0  0  0  0  0  0  0
  186.3980  178.3210  138.5450 C   0  0  2  0  0  3  0  0  0  0  0  0
  184.6230  177.7080  137.1710 O   0  0  0  0  0  0  0  0  0  0  0  0
  187.5220  178.9150  136.5920 C   0  0  0  0  0  2  0  0  0  0  0  0
  188.9410  179.1830  137.0530 C   0  0  0  0  0  1  0  0  0  0  0  0
  184.0750  179.0200  139.0880 C   0  0  0  0  0  0  0  0  0  0  0  0
  184.4590  180.2550  139.0130 N   0  0  0  0  0  2  0  0  0  0  0  0
  182.8250  178.6980  139.6270 O   0  0  0  0  0  0  0  0  0  0  0  0
  182.4610  177.3680  139.9660 C   0  0  0  0  0  1  0  0  0  0  0  0
  185.9950  178.7330  144.4760 N   0  0  0  0  0  2  0  0  0  0  0  0
  184.5820  178.4090  144.6290 C   0  0  0  0  0  2  0  0  0  0  0  0
  183.6620  178.9710  143.1690 S   0  0  0  0  0  0  0  0  0  0  0  0
  182.0550  178.7770  143.9880 C   0  0  0  0  0  1  0  0  0  0  0  0
  1 25  1  6  0  0  0
  1  2  1  0  0  0  0
  3 12  1  6  0  0  0
  3 10  1  0  0  0  0
  4  7  1  1  0  0  0
  5  6  1  0  0  0  0
  5  3  1  0  0  0  0
  6 11  1  0  0  0  0
  7  9  1  0  0  0  0
  8  1  1  0  0  0  0
  9  2  1  0  0  0  0
 10  8  1  6  0  0  0
 10  4  1  0  0  0  0
 11  4  1  0  0  0  0
 13 12  1  0  0  0  0
 14 18  1  0  0  0  0
 14 16  1  0  0  0  0
 15 17  1  0  0  0  0
 15 21  1  6  0  0  0
 16 17  1  0  0  0  0
 17 13  1  1  0  0  0
 18 15  1  0  0  0  0
 19 20  1  0  0  0  0
 19 16  1  0  0  0  0
 21 23  1  0  0  0  0
 22 21  2  0  0  0  0
 23 24  1  0  0  0  0
 25 26  1  0  0  0  0
 27 28  1  0  0  0  0
 27 26  1  0  0  0  0
M  END
>  <MODEL>
9

>  <REMARK>
 VINA RESULT:      -6.1      2.148      3.491
  Name = 
  9 active torsions:
  status: ('A' for Active; 'I' for Inactive)
    1  A    between atoms: C_2  and  N_20
    2  A    between atoms: C_4  and  C_7
    3  A    between atoms: O_5  and  C_8
    4  A    between atoms: O_5  and  C_21
    5  A    between atoms: C_6  and  N_22
    6  A    between atoms: C_7  and  O_16
    7  A    between atoms: S_9  and  C_12
    8  A    between atoms: C_12  and  N_20
    9  A    between atoms: C_21  and  C_25
                            x       y       z     vdW  Elec       q    Type
                         _______ _______ _______ _____ _____    ______ ____

>  <TORSDO>
F 9

$$$$
