=
 OpenBabel10232411443D

 27 29  0  0  1  0  0  0  0  0999 V2000
  186.6820  178.0070  145.1800 C   0  0  0  0  0  0  0  0  0  0  0  0
  185.6310  178.7500  145.6950 C   0  0  0  0  0  0  0  0  0  0  0  0
  185.6140  179.1160  147.0030 N   0  0  0  0  0  0  0  0  0  0  0  0
  186.3640  177.6510  143.5670 S   0  0  0  0  0  0  0  0  0  0  0  0
  186.6330  178.7460  147.8320 C   0  0  0  0  0  3  0  0  0  0  0  0
  187.7130  177.9890  147.3440 C   0  0  0  0  0  3  0  0  0  0  0  0
  184.8940  178.4810  143.5330 C   0  0  0  0  0  0  0  0  0  0  0  0
  184.6120  179.0360  144.7830 C   0  0  0  0  0  3  0  0  0  0  0  0
  187.7570  177.6240  145.9910 C   0  0  0  0  0  0  0  0  0  0  0  0
  184.0680  178.5720  142.3660 N   0  0  0  0  0  2  0  0  0  0  0  0
  181.6920  178.2030  141.0790 O   0  0  0  0  0  0  0  0  0  0  0  0
  185.6500  179.5040  140.9140 O   0  0  0  0  0  0  0  0  0  0  0  0
  182.1950  178.6780  140.0260 C   0  0  0  0  0  0  0  0  0  0  0  0
  183.5590  179.1190  139.9910 N   0  0  0  0  0  2  0  0  0  0  0  0
  184.4760  179.0820  141.0890 C   0  0  0  0  0  0  0  0  0  0  0  0
  181.3530  178.7670  138.7960 C   0  0  1  0  0  3  0  0  0  0  0  0
  180.0540  178.3490  139.0810 O   0  0  0  0  0  1  0  0  0  0  0  0
  181.3240  180.1900  138.2620 C   0  0  0  0  0  2  0  0  0  0  0  0
  180.8490  181.0600  139.2430 O   0  0  0  0  0  1  0  0  0  0  0  0
  188.8450  176.8310  145.5060 N   0  0  0  0  0  2  0  0  0  0  0  0
  191.1370  178.6720  143.3400 N   0  0  0  0  0  0  0  0  0  0  0  0
  189.7250  177.2280  144.4520 C   0  0  1  0  0  3  0  0  0  0  0  0
  189.8840  176.3190  142.9050 S   0  0  0  0  0  0  0  0  0  0  0  0
  191.8000  177.4930  141.3930 C   0  0  0  0  0  0  0  0  0  0  0  0
  192.5950  177.3530  140.4560 O   0  0  0  0  0  0  0  0  0  0  0  0
  190.3720  178.3830  144.4990 C   0  0  0  0  0  3  0  0  0  0  0  0
  190.9640  177.6420  142.3810 C   0  0  0  0  0  0  0  0  0  0  0  0
  1  2  2  0  0  0  0
  1  9  1  0  0  0  0
  2  3  1  0  0  0  0
  3  5  2  0  0  0  0
  4  1  1  0  0  0  0
  6  5  1  0  0  0  0
  7  4  1  0  0  0  0
  7  8  2  0  0  0  0
  8  2  1  0  0  0  0
  9  6  2  0  0  0  0
 10  7  1  0  0  0  0
 12 15  2  0  0  0  0
 13 11  2  0  0  0  0
 14 13  1  0  0  0  0
 14 15  1  0  0  0  0
 15 10  1  0  0  0  0
 16 17  1  1  0  0  0
 16 13  1  0  0  0  0
 18 16  1  0  0  0  0
 18 19  1  0  0  0  0
 20  9  1  0  0  0  0
 21 26  2  0  0  0  0
 22 26  1  0  0  0  0
 22 20  1  6  0  0  0
 23 22  1  0  0  0  0
 24 27  2  0  0  0  0
 25 24  2  0  0  0  0
 27 23  1  0  0  0  0
 27 21  1  0  0  0  0
M  END
>  <MODEL>
1

>  <REMARK>
 VINA RESULT:      -7.8      0.000      0.000
  Name = 
  5 active torsions:
  status: ('A' for Active; 'I' for Inactive)
    1  A    between atoms: C_5  and  C_11
    2  A    between atoms: C_5  and  C_18
    3  A    between atoms: N_7  and  C_13
    4  A    between atoms: C_9  and  N_24
    5  A    between atoms: C_23  and  N_24
                            x       y       z     vdW  Elec       q    Type
                         _______ _______ _______ _____ _____    ______ ____

>  <TORSDO>
F 5

$$$$
=
 OpenBabel10232411443D

 27 29  0  0  1  0  0  0  0  0999 V2000
  187.8620  177.5690  145.9270 C   0  0  0  0  0  0  0  0  0  0  0  0
  186.9510  178.2470  146.7240 C   0  0  0  0  0  0  0  0  0  0  0  0
  187.2220  178.4980  148.0300 N   0  0  0  0  0  0  0  0  0  0  0  0
  187.1970  177.3500  144.3980 S   0  0  0  0  0  0  0  0  0  0  0  0
  188.3970  178.0750  148.5800 C   0  0  0  0  0  3  0  0  0  0  0  0
  189.3420  177.3810  147.8020 C   0  0  0  0  0  3  0  0  0  0  0  0
  185.7570  178.1550  144.7600 C   0  0  0  0  0  0  0  0  0  0  0  0
  185.7580  178.5930  146.0850 C   0  0  0  0  0  3  0  0  0  0  0  0
  189.0870  177.1370  146.4460 C   0  0  0  0  0  0  0  0  0  0  0  0
  184.6960  178.3320  143.8140 N   0  0  0  0  0  2  0  0  0  0  0  0
  183.6950  178.1840  141.2820 O   0  0  0  0  0  0  0  0  0  0  0  0
  183.0830  179.1780  145.2840 O   0  0  0  0  0  0  0  0  0  0  0  0
  182.5960  178.6430  141.6940 C   0  0  0  0  0  0  0  0  0  0  0  0
  182.4080  178.9790  143.0760 N   0  0  0  0  0  2  0  0  0  0  0  0
  183.3880  178.8420  144.1090 C   0  0  0  0  0  0  0  0  0  0  0  0
  181.4830  178.8480  140.7200 C   0  0  1  0  0  3  0  0  0  0  0  0
  182.0050  179.0900  139.4500 O   0  0  0  0  0  1  0  0  0  0  0  0
  180.5740  177.6310  140.6740 C   0  0  0  0  0  2  0  0  0  0  0  0
  181.2040  176.5890  139.9940 O   0  0  0  0  0  1  0  0  0  0  0  0
  190.0410  176.4070  145.6660 N   0  0  0  0  0  2  0  0  0  0  0  0
  191.8000  178.4600  143.2110 N   0  0  0  0  0  0  0  0  0  0  0  0
  190.6630  176.9060  144.4800 C   0  0  1  0  0  3  0  0  0  0  0  0
  190.4600  176.1410  142.8620 S   0  0  0  0  0  0  0  0  0  0  0  0
  191.9950  177.4670  141.0670 C   0  0  0  0  0  0  0  0  0  0  0  0
  192.5560  177.4200  139.9660 O   0  0  0  0  0  0  0  0  0  0  0  0
  191.3150  178.0600  144.4830 C   0  0  0  0  0  3  0  0  0  0  0  0
  191.4050  177.5180  142.2280 C   0  0  0  0  0  0  0  0  0  0  0  0
  1  9  2  0  0  0  0
  1  2  1  0  0  0  0
  2  3  2  0  0  0  0
  3  5  1  0  0  0  0
  4  7  1  0  0  0  0
  4  1  1  0  0  0  0
  6  5  2  0  0  0  0
  7  8  2  0  0  0  0
  8  2  1  0  0  0  0
  9  6  1  0  0  0  0
 10 15  1  0  0  0  0
 10  7  1  0  0  0  0
 11 13  2  0  0  0  0
 13 14  1  0  0  0  0
 14 15  1  0  0  0  0
 15 12  2  0  0  0  0
 16 17  1  6  0  0  0
 16 13  1  0  0  0  0
 18 16  1  0  0  0  0
 19 18  1  0  0  0  0
 20  9  1  0  0  0  0
 21 26  2  0  0  0  0
 22 26  1  0  0  0  0
 22 20  1  6  0  0  0
 23 22  1  0  0  0  0
 24 27  2  0  0  0  0
 25 24  2  0  0  0  0
 27 23  1  0  0  0  0
 27 21  1  0  0  0  0
M  END
>  <MODEL>
2

>  <REMARK>
 VINA RESULT:      -7.7      1.594      2.188
  Name = 
  5 active torsions:
  status: ('A' for Active; 'I' for Inactive)
    1  A    between atoms: C_5  and  C_11
    2  A    between atoms: C_5  and  C_18
    3  A    between atoms: N_7  and  C_13
    4  A    between atoms: C_9  and  N_24
    5  A    between atoms: C_23  and  N_24
                            x       y       z     vdW  Elec       q    Type
                         _______ _______ _______ _____ _____    ______ ____

>  <TORSDO>
F 5

$$$$
=
 OpenBabel10232411443D

 27 29  0  0  1  0  0  0  0  0999 V2000
  187.3510  177.8120  142.5720 C   0  0  0  0  0  0  0  0  0  0  0  0
  187.0820  178.6230  141.4790 C   0  0  0  0  0  0  0  0  0  0  0  0
  185.9940  179.4350  141.4670 N   0  0  0  0  0  0  0  0  0  0  0  0
  188.7090  176.8780  142.2410 S   0  0  0  0  0  0  0  0  0  0  0  0
  185.1420  179.4570  142.5340 C   0  0  0  0  0  3  0  0  0  0  0  0
  185.3830  178.6450  143.6570 C   0  0  0  0  0  3  0  0  0  0  0  0
  188.9610  177.5430  140.7090 C   0  0  0  0  0  0  0  0  0  0  0  0
  187.9810  178.4930  140.4180 C   0  0  0  0  0  3  0  0  0  0  0  0
  186.5140  177.8190  143.6940 C   0  0  0  0  0  0  0  0  0  0  0  0
  190.0380  177.1520  139.8490 N   0  0  0  0  0  2  0  0  0  0  0  0
  190.9760  176.1080  137.5110 O   0  0  0  0  0  0  0  0  0  0  0  0
  191.8140  177.7440  141.2520 O   0  0  0  0  0  0  0  0  0  0  0  0
  192.1570  176.2710  137.9170 C   0  0  0  0  0  0  0  0  0  0  0  0
  192.4220  176.8360  139.2090 N   0  0  0  0  0  2  0  0  0  0  0  0
  191.4350  177.2650  140.1510 C   0  0  0  0  0  0  0  0  0  0  0  0
  193.2910  175.8570  137.0390 C   0  0  1  0  0  3  0  0  0  0  0  0
  194.1730  176.9240  136.8720 O   0  0  0  0  0  1  0  0  0  0  0  0
  194.0320  174.6720  137.6360 C   0  0  0  0  0  2  0  0  0  0  0  0
  195.2160  175.1010  138.2360 O   0  0  0  0  0  1  0  0  0  0  0  0
  186.7390  176.9750  144.8280 N   0  0  0  0  0  2  0  0  0  0  0  0
  188.7630  177.8800  147.7300 N   0  0  0  0  0  2  0  0  0  0  0  0
  187.8060  177.1490  145.7640 C   0  0  0  0  0  0  0  0  0  0  0  0
  189.5330  176.8360  145.3610 S   0  0  0  0  0  0  0  0  0  0  0  0
  191.0330  177.2120  147.5840 C   0  0  0  0  0  0  0  0  0  0  0  0
  192.1080  176.9720  148.1480 O   0  0  0  0  0  0  0  0  0  0  0  0
  187.5910  177.6960  146.9520 C   0  0  0  0  0  3  0  0  0  0  0  0
  189.9000  177.4640  146.9920 C   0  0  0  0  0  0  0  0  0  0  0  0
  1  9  1  0  0  0  0
  2  1  2  0  0  0  0
  3  2  1  0  0  0  0
  3  5  2  0  0  0  0
  4  1  1  0  0  0  0
  5  6  1  0  0  0  0
  6  9  2  0  0  0  0
  7  4  1  0  0  0  0
  8  7  2  0  0  0  0
  8  2  1  0  0  0  0
  9 20  1  0  0  0  0
 10 15  1  0  0  0  0
 10  7  1  0  0  0  0
 11 13  2  0  0  0  0
 13 14  1  0  0  0  0
 14 15  1  0  0  0  0
 15 12  2  0  0  0  0
 16 17  1  1  0  0  0
 16 18  1  0  0  0  0
 16 13  1  0  0  0  0
 18 19  1  0  0  0  0
 20 22  1  0  0  0  0
 22 26  2  0  0  0  0
 23 22  1  0  0  0  0
 23 27  1  0  0  0  0
 24 25  2  0  0  0  0
 26 21  1  0  0  0  0
 27 24  2  0  0  0  0
 27 21  1  0  0  0  0
M  END
>  <MODEL>
3

>  <REMARK>
 VINA RESULT:      -7.4      4.591      7.667
  Name = 
  5 active torsions:
  status: ('A' for Active; 'I' for Inactive)
    1  A    between atoms: C_5  and  C_11
    2  A    between atoms: C_5  and  C_18
    3  A    between atoms: N_7  and  C_13
    4  A    between atoms: C_9  and  N_24
    5  A    between atoms: C_23  and  N_24
                            x       y       z     vdW  Elec       q    Type
                         _______ _______ _______ _____ _____    ______ ____

>  <TORSDO>
F 5

$$$$
=
 OpenBabel10232411443D

 27 29  0  0  1  0  0  0  0  0999 V2000
  188.8980  177.8340  138.8120 C   0  0  0  0  0  0  0  0  0  0  0  0
  190.1050  177.1500  138.7800 C   0  0  0  0  0  0  0  0  0  0  0  0
  190.6550  176.7690  137.5980 N   0  0  0  0  0  0  0  0  0  0  0  0
  188.4540  178.0860  140.4150 S   0  0  0  0  0  0  0  0  0  0  0  0
  190.0180  177.0460  136.4230 C   0  0  0  0  0  3  0  0  0  0  0  0
  188.7920  177.7350  136.4200 C   0  0  0  0  0  3  0  0  0  0  0  0
  189.8290  177.3440  141.0550 C   0  0  0  0  0  0  0  0  0  0  0  0
  190.6520  176.8680  140.0330 C   0  0  0  0  0  3  0  0  0  0  0  0
  188.2230  178.1570  137.6300 C   0  0  0  0  0  0  0  0  0  0  0  0
  190.0780  177.2250  142.4610 N   0  0  0  0  0  2  0  0  0  0  0  0
  191.6100  177.6870  144.6690 O   0  0  0  0  0  0  0  0  0  0  0  0
  188.1600  176.0130  143.0340 O   0  0  0  0  0  0  0  0  0  0  0  0
  190.7690  177.0710  145.3750 C   0  0  0  0  0  0  0  0  0  0  0  0
  189.5880  176.5030  144.7920 N   0  0  0  0  0  2  0  0  0  0  0  0
  189.2310  176.5600  143.4080 C   0  0  0  0  0  0  0  0  0  0  0  0
  191.0180  176.9260  146.8410 C   0  0  1  0  0  3  0  0  0  0  0  0
  189.8320  176.5910  147.4910 O   0  0  0  0  0  1  0  0  0  0  0  0
  192.0650  175.8570  147.1080 C   0  0  0  0  0  2  0  0  0  0  0  0
  192.8120  176.1910  148.2370 O   0  0  0  0  0  1  0  0  0  0  0  0
  186.9620  178.8330  137.6220 N   0  0  0  0  0  2  0  0  0  0  0  0
  183.9870  176.7150  137.6500 N   0  0  0  0  0  0  0  0  0  0  0  0
  185.7130  178.2150  137.9430 C   0  0  1  0  0  3  0  0  0  0  0  0
  184.5440  178.9080  139.1240 S   0  0  0  0  0  0  0  0  0  0  0  0
  182.4550  177.2050  139.3910 C   0  0  0  0  0  0  0  0  0  0  0  0
  181.5050  176.8520  140.1000 O   0  0  0  0  0  0  0  0  0  0  0  0
  185.2800  177.1580  137.2710 C   0  0  0  0  0  3  0  0  0  0  0  0
  183.4560  177.5750  138.6440 C   0  0  0  0  0  0  0  0  0  0  0  0
  1  4  1  0  0  0  0
  2  1  1  0  0  0  0
  2  8  1  0  0  0  0
  3  2  2  0  0  0  0
  4  7  1  0  0  0  0
  5  3  1  0  0  0  0
  6  5  2  0  0  0  0
  6  9  1  0  0  0  0
  7 10  1  0  0  0  0
  8  7  2  0  0  0  0
  9  1  2  0  0  0  0
 10 15  1  0  0  0  0
 11 13  2  0  0  0  0
 12 15  2  0  0  0  0
 13 16  1  0  0  0  0
 14 13  1  0  0  0  0
 15 14  1  0  0  0  0
 16 18  1  0  0  0  0
 16 17  1  1  0  0  0
 18 19  1  0  0  0  0
 20  9  1  0  0  0  0
 21 27  1  0  0  0  0
 22 20  1  6  0  0  0
 22 23  1  0  0  0  0
 24 25  2  0  0  0  0
 26 21  2  0  0  0  0
 26 22  1  0  0  0  0
 27 23  1  0  0  0  0
 27 24  2  0  0  0  0
M  END
>  <MODEL>
4

>  <REMARK>
 VINA RESULT:      -7.3      4.108      9.585
  Name = 
  5 active torsions:
  status: ('A' for Active; 'I' for Inactive)
    1  A    between atoms: C_5  and  C_11
    2  A    between atoms: C_5  and  C_18
    3  A    between atoms: N_7  and  C_13
    4  A    between atoms: C_9  and  N_24
    5  A    between atoms: C_23  and  N_24
                            x       y       z     vdW  Elec       q    Type
                         _______ _______ _______ _____ _____    ______ ____

>  <TORSDO>
F 5

$$$$
=
 OpenBabel10232411443D

 27 29  0  0  1  0  0  0  0  0999 V2000
  188.8950  177.8470  139.2180 C   0  0  0  0  0  0  0  0  0  0  0  0
  190.1090  177.1850  139.3190 C   0  0  0  0  0  0  0  0  0  0  0  0
  190.7850  176.8000  138.2060 N   0  0  0  0  0  0  0  0  0  0  0  0
  188.2830  178.1090  140.7630 S   0  0  0  0  0  0  0  0  0  0  0  0
  190.2690  177.0530  136.9680 C   0  0  0  0  0  3  0  0  0  0  0  0
  189.0380  177.7200  136.8300 C   0  0  0  0  0  3  0  0  0  0  0  0
  189.5960  177.3980  141.5510 C   0  0  0  0  0  0  0  0  0  0  0  0
  190.5290  176.9260  140.6260 C   0  0  0  0  0  3  0  0  0  0  0  0
  188.3400  178.1450  137.9680 C   0  0  0  0  0  0  0  0  0  0  0  0
  189.7000  177.3000  142.9760 N   0  0  0  0  0  2  0  0  0  0  0  0
  191.1230  177.5040  145.2940 O   0  0  0  0  0  0  0  0  0  0  0  0
  187.5090  176.6070  143.4200 O   0  0  0  0  0  0  0  0  0  0  0  0
  190.1060  177.1430  145.9440 C   0  0  0  0  0  0  0  0  0  0  0  0
  188.8730  176.8390  145.2790 N   0  0  0  0  0  2  0  0  0  0  0  0
  188.6480  176.9050  143.8670 C   0  0  0  0  0  0  0  0  0  0  0  0
  190.2000  177.0220  147.4300 C   0  0  1  0  0  3  0  0  0  0  0  0
  191.5240  177.1850  147.8340 O   0  0  0  0  0  1  0  0  0  0  0  0
  189.3260  178.0600  148.1140 C   0  0  0  0  0  2  0  0  0  0  0  0
  188.1530  177.4660  148.5800 O   0  0  0  0  0  1  0  0  0  0  0  0
  187.0760  178.7990  137.8210 N   0  0  0  0  0  2  0  0  0  0  0  0
  184.0760  176.7210  137.6740 N   0  0  0  0  0  0  0  0  0  0  0  0
  185.8130  178.1810  138.0830 C   0  0  1  0  0  3  0  0  0  0  0  0
  184.6270  178.8260  139.2740 S   0  0  0  0  0  0  0  0  0  0  0  0
  182.5130  177.1380  139.4070 C   0  0  0  0  0  0  0  0  0  0  0  0
  181.5430  176.7610  140.0760 O   0  0  0  0  0  0  0  0  0  0  0  0
  185.3820  177.1670  137.3460 C   0  0  0  0  0  3  0  0  0  0  0  0
  183.5340  177.5340  138.7020 C   0  0  0  0  0  0  0  0  0  0  0  0
  1  2  1  0  0  0  0
  1  4  1  0  0  0  0
  2  8  1  0  0  0  0
  3  2  2  0  0  0  0
  4  7  1  0  0  0  0
  5  3  1  0  0  0  0
  6  5  2  0  0  0  0
  6  9  1  0  0  0  0
  7 10  1  0  0  0  0
  8  7  2  0  0  0  0
  9  1  2  0  0  0  0
 10 15  1  0  0  0  0
 11 13  2  0  0  0  0
 12 15  2  0  0  0  0
 13 16  1  0  0  0  0
 14 13  1  0  0  0  0
 15 14  1  0  0  0  0
 16 17  1  1  0  0  0
 16 18  1  0  0  0  0
 18 19  1  0  0  0  0
 20  9  1  0  0  0  0
 21 27  1  0  0  0  0
 22 20  1  6  0  0  0
 22 23  1  0  0  0  0
 24 25  2  0  0  0  0
 26 21  2  0  0  0  0
 26 22  1  0  0  0  0
 27 23  1  0  0  0  0
 27 24  2  0  0  0  0
M  END
>  <MODEL>
5

>  <REMARK>
 VINA RESULT:      -7.2      3.945      9.169
  Name = 
  5 active torsions:
  status: ('A' for Active; 'I' for Inactive)
    1  A    between atoms: C_5  and  C_11
    2  A    between atoms: C_5  and  C_18
    3  A    between atoms: N_7  and  C_13
    4  A    between atoms: C_9  and  N_24
    5  A    between atoms: C_23  and  N_24
                            x       y       z     vdW  Elec       q    Type
                         _______ _______ _______ _____ _____    ______ ____

>  <TORSDO>
F 5

$$$$
=
 OpenBabel10232411443D

 27 29  0  0  1  0  0  0  0  0999 V2000
  189.7860  177.2230  138.4990 C   0  0  0  0  0  0  0  0  0  0  0  0
  188.9990  178.2660  138.9640 C   0  0  0  0  0  0  0  0  0  0  0  0
  188.3430  179.0810  138.0980 N   0  0  0  0  0  0  0  0  0  0  0  0
  190.5200  176.4640  139.8080 S   0  0  0  0  0  0  0  0  0  0  0  0
  188.4590  178.8870  136.7520 C   0  0  0  0  0  3  0  0  0  0  0  0
  189.2520  177.8410  136.2460 C   0  0  0  0  0  3  0  0  0  0  0  0
  189.7970  177.4590  140.9650 C   0  0  0  0  0  0  0  0  0  0  0  0
  188.9850  178.4150  140.3530 C   0  0  0  0  0  3  0  0  0  0  0  0
  189.9160  176.9770  137.1270 C   0  0  0  0  0  0  0  0  0  0  0  0
  190.0200  177.3200  142.3730 N   0  0  0  0  0  2  0  0  0  0  0  0
  191.6080  177.5440  144.5790 O   0  0  0  0  0  0  0  0  0  0  0  0
  187.9210  176.4660  142.9580 O   0  0  0  0  0  0  0  0  0  0  0  0
  190.6720  177.0930  145.2920 C   0  0  0  0  0  0  0  0  0  0  0  0
  189.4120  176.7280  144.7130 N   0  0  0  0  0  2  0  0  0  0  0  0
  189.0710  176.8250  143.3270 C   0  0  0  0  0  0  0  0  0  0  0  0
  190.8920  176.9290  146.7600 C   0  0  1  0  0  3  0  0  0  0  0  0
  189.7140  176.4960  147.3680 O   0  0  0  0  0  1  0  0  0  0  0  0
  192.0030  175.9280  147.0320 C   0  0  0  0  0  2  0  0  0  0  0  0
  192.6920  176.2820  148.1910 O   0  0  0  0  0  1  0  0  0  0  0  0
  190.7420  175.9320  136.6060 N   0  0  0  0  0  2  0  0  0  0  0  0
  194.2610  176.0880  137.5710 N   0  0  0  0  0  2  0  0  0  0  0  0
  192.0550  175.6270  137.0840 C   0  0  0  0  0  0  0  0  0  0  0  0
  192.6160  173.9500  137.4260 S   0  0  0  0  0  0  0  0  0  0  0  0
  195.1290  174.0560  138.4300 C   0  0  0  0  0  0  0  0  0  0  0  0
  195.9980  173.4630  139.0810 O   0  0  0  0  0  0  0  0  0  0  0  0
  192.9890  176.5640  137.1630 C   0  0  0  0  0  3  0  0  0  0  0  0
  194.2140  174.6810  137.7450 C   0  0  0  0  0  0  0  0  0  0  0  0
  1  2  1  0  0  0  0
  1  4  1  0  0  0  0
  2  8  1  0  0  0  0
  3  2  2  0  0  0  0
  4  7  1  0  0  0  0
  5  3  1  0  0  0  0
  6  5  2  0  0  0  0
  6  9  1  0  0  0  0
  7 10  1  0  0  0  0
  8  7  2  0  0  0  0
  9  1  2  0  0  0  0
 10 15  1  0  0  0  0
 11 13  2  0  0  0  0
 12 15  2  0  0  0  0
 13 16  1  0  0  0  0
 14 13  1  0  0  0  0
 15 14  1  0  0  0  0
 16 18  1  0  0  0  0
 16 17  1  1  0  0  0
 18 19  1  0  0  0  0
 20 22  1  0  0  0  0
 20  9  1  0  0  0  0
 21 27  1  0  0  0  0
 22 26  2  0  0  0  0
 22 23  1  0  0  0  0
 23 27  1  0  0  0  0
 24 25  2  0  0  0  0
 26 21  1  0  0  0  0
 27 24  2  0  0  0  0
M  END
>  <MODEL>
6

>  <REMARK>
 VINA RESULT:      -7.1      5.072      8.983
  Name = 
  5 active torsions:
  status: ('A' for Active; 'I' for Inactive)
    1  A    between atoms: C_5  and  C_11
    2  A    between atoms: C_5  and  C_18
    3  A    between atoms: N_7  and  C_13
    4  A    between atoms: C_9  and  N_24
    5  A    between atoms: C_23  and  N_24
                            x       y       z     vdW  Elec       q    Type
                         _______ _______ _______ _____ _____    ______ ____

>  <TORSDO>
F 5

$$$$
=
 OpenBabel10232411443D

 27 29  0  0  1  0  0  0  0  0999 V2000
  188.1350  177.6300  142.1520 C   0  0  0  0  0  0  0  0  0  0  0  0
  189.0760  176.8380  142.7940 C   0  0  0  0  0  0  0  0  0  0  0  0
  188.9480  176.5370  144.1110 N   0  0  0  0  0  0  0  0  0  0  0  0
  188.6210  177.8800  140.5620 S   0  0  0  0  0  0  0  0  0  0  0  0
  187.8920  177.0210  144.8270 C   0  0  0  0  0  3  0  0  0  0  0  0
  186.9210  177.8310  144.2090 C   0  0  0  0  0  3  0  0  0  0  0  0
  190.0200  176.9440  140.6990 C   0  0  0  0  0  0  0  0  0  0  0  0
  190.1460  176.4330  141.9920 C   0  0  0  0  0  3  0  0  0  0  0  0
  187.0260  178.1300  142.8430 C   0  0  0  0  0  0  0  0  0  0  0  0
  190.9360  176.7350  139.6180 N   0  0  0  0  0  2  0  0  0  0  0  0
  193.4310  176.8960  138.5290 O   0  0  0  0  0  0  0  0  0  0  0  0
  189.4350  175.7940  138.0890 O   0  0  0  0  0  0  0  0  0  0  0  0
  192.9950  176.3810  137.4660 C   0  0  0  0  0  0  0  0  0  0  0  0
  191.6160  176.0090  137.3350 N   0  0  0  0  0  2  0  0  0  0  0  0
  190.6120  176.1650  138.3430 C   0  0  0  0  0  0  0  0  0  0  0  0
  193.9330  176.1680  136.3230 C   0  0  1  0  0  3  0  0  0  0  0  0
  194.7560  177.2830  136.1740 O   0  0  0  0  0  1  0  0  0  0  0  0
  194.7870  174.9310  136.5470 C   0  0  0  0  0  2  0  0  0  0  0  0
  195.9350  175.2660  137.2660 O   0  0  0  0  0  1  0  0  0  0  0  0
  186.0500  178.9760  142.2270 N   0  0  0  0  0  2  0  0  0  0  0  0
  182.4720  178.4150  141.7530 N   0  0  0  0  0  0  0  0  0  0  0  0
  184.6380  178.8480  142.4150 C   0  0  1  0  0  3  0  0  0  0  0  0
  183.7780  179.4540  143.8770 S   0  0  0  0  0  0  0  0  0  0  0  0
  181.1600  178.7870  143.6920 C   0  0  0  0  0  0  0  0  0  0  0  0
  180.1010  178.6120  144.3080 O   0  0  0  0  0  0  0  0  0  0  0  0
  183.8560  178.4010  141.4430 C   0  0  0  0  0  3  0  0  0  0  0  0
  182.2750  178.9700  143.0430 C   0  0  0  0  0  0  0  0  0  0  0  0
  1  2  2  0  0  0  0
  1  9  1  0  0  0  0
  2  3  1  0  0  0  0
  3  5  2  0  0  0  0
  4  7  1  0  0  0  0
  4  1  1  0  0  0  0
  6  5  1  0  0  0  0
  7  8  2  0  0  0  0
  8  2  1  0  0  0  0
  9  6  2  0  0  0  0
 10  7  1  0  0  0  0
 12 15  2  0  0  0  0
 13 11  2  0  0  0  0
 14 13  1  0  0  0  0
 14 15  1  0  0  0  0
 15 10  1  0  0  0  0
 16 17  1  1  0  0  0
 16 18  1  0  0  0  0
 16 13  1  0  0  0  0
 18 19  1  0  0  0  0
 20  9  1  0  0  0  0
 21 27  1  0  0  0  0
 22 20  1  6  0  0  0
 22 23  1  0  0  0  0
 24 25  2  0  0  0  0
 26 21  2  0  0  0  0
 26 22  1  0  0  0  0
 27 24  2  0  0  0  0
 27 23  1  0  0  0  0
M  END
>  <MODEL>
7

>  <REMARK>
 VINA RESULT:      -7.1      3.464      8.973
  Name = 
  5 active torsions:
  status: ('A' for Active; 'I' for Inactive)
    1  A    between atoms: C_5  and  C_11
    2  A    between atoms: C_5  and  C_18
    3  A    between atoms: N_7  and  C_13
    4  A    between atoms: C_9  and  N_24
    5  A    between atoms: C_23  and  N_24
                            x       y       z     vdW  Elec       q    Type
                         _______ _______ _______ _____ _____    ______ ____

>  <TORSDO>
F 5

$$$$
=
 OpenBabel10232411443D

 27 29  0  0  1  0  0  0  0  0999 V2000
  184.3350  178.8380  140.8630 C   0  0  0  0  0  0  0  0  0  0  0  0
  183.3520  178.7120  141.8340 C   0  0  0  0  0  0  0  0  0  0  0  0
  182.0380  178.8170  141.5110 N   0  0  0  0  0  0  0  0  0  0  0  0
  185.8450  178.7400  141.5960 S   0  0  0  0  0  0  0  0  0  0  0  0
  181.6660  179.0600  140.2200 C   0  0  0  0  0  3  0  0  0  0  0  0
  182.6370  179.1980  139.2110 C   0  0  0  0  0  3  0  0  0  0  0  0
  185.2280  178.5040  143.1500 C   0  0  0  0  0  0  0  0  0  0  0  0
  183.8320  178.5160  143.1320 C   0  0  0  0  0  3  0  0  0  0  0  0
  183.9960  179.0670  139.5250 C   0  0  0  0  0  0  0  0  0  0  0  0
  186.0530  178.3310  144.3070 N   0  0  0  0  0  2  0  0  0  0  0  0
  188.4080  177.6190  145.4850 O   0  0  0  0  0  0  0  0  0  0  0  0
  184.5090  179.0290  145.9220 O   0  0  0  0  0  0  0  0  0  0  0  0
  187.9240  177.9010  146.6130 C   0  0  0  0  0  0  0  0  0  0  0  0
  186.5790  178.3840  146.7400 N   0  0  0  0  0  2  0  0  0  0  0  0
  185.6640  178.5990  145.6610 C   0  0  0  0  0  0  0  0  0  0  0  0
  188.7650  177.7140  147.8320 C   0  0  1  0  0  3  0  0  0  0  0  0
  187.9500  177.4690  148.9360 O   0  0  0  0  0  1  0  0  0  0  0  0
  189.7340  176.5570  147.6480 C   0  0  0  0  0  2  0  0  0  0  0  0
  191.0450  177.0330  147.6060 O   0  0  0  0  0  1  0  0  0  0  0  0
  184.9800  179.2350  138.4990 N   0  0  0  0  0  2  0  0  0  0  0  0
  185.9120  176.1580  136.7660 N   0  0  0  0  0  0  0  0  0  0  0  0
  185.7000  178.1610  137.8890 C   0  0  1  0  0  3  0  0  0  0  0  0
  187.4700  177.9110  138.1050 S   0  0  0  0  0  0  0  0  0  0  0  0
  188.2500  175.8060  136.5900 C   0  0  0  0  0  0  0  0  0  0  0  0
  189.1990  175.2350  136.0390 O   0  0  0  0  0  0  0  0  0  0  0  0
  185.0670  177.1950  137.2390 C   0  0  0  0  0  3  0  0  0  0  0  0
  187.2490  176.4070  137.1690 C   0  0  0  0  0  0  0  0  0  0  0  0
  1  4  1  0  0  0  0
  1  2  1  0  0  0  0
  2  8  1  0  0  0  0
  3  2  2  0  0  0  0
  4  7  1  0  0  0  0
  5  3  1  0  0  0  0
  6  9  1  0  0  0  0
  6  5  2  0  0  0  0
  7 10  1  0  0  0  0
  8  7  2  0  0  0  0
  9  1  2  0  0  0  0
 10 15  1  0  0  0  0
 11 13  2  0  0  0  0
 13 14  1  0  0  0  0
 13 16  1  0  0  0  0
 15 12  2  0  0  0  0
 15 14  1  0  0  0  0
 16 17  1  1  0  0  0
 18 16  1  0  0  0  0
 19 18  1  0  0  0  0
 20  9  1  0  0  0  0
 21 27  1  0  0  0  0
 21 26  2  0  0  0  0
 22 23  1  0  0  0  0
 22 20  1  1  0  0  0
 24 27  2  0  0  0  0
 25 24  2  0  0  0  0
 26 22  1  0  0  0  0
 27 23  1  0  0  0  0
M  END
>  <MODEL>
8

>  <REMARK>
 VINA RESULT:      -7.0      3.928      7.893
  Name = 
  5 active torsions:
  status: ('A' for Active; 'I' for Inactive)
    1  A    between atoms: C_5  and  C_11
    2  A    between atoms: C_5  and  C_18
    3  A    between atoms: N_7  and  C_13
    4  A    between atoms: C_9  and  N_24
    5  A    between atoms: C_23  and  N_24
                            x       y       z     vdW  Elec       q    Type
                         _______ _______ _______ _____ _____    ______ ____

>  <TORSDO>
F 5

$$$$
=
 OpenBabel10232411443D

 27 29  0  0  1  0  0  0  0  0999 V2000
  185.7070  178.2940  144.2420 C   0  0  0  0  0  0  0  0  0  0  0  0
  184.4390  178.6820  144.6480 C   0  0  0  0  0  0  0  0  0  0  0  0
  184.1640  178.8930  145.9600 N   0  0  0  0  0  0  0  0  0  0  0  0
  185.6980  178.0380  142.5800 S   0  0  0  0  0  0  0  0  0  0  0  0
  185.1350  178.7150  146.9020 C   0  0  0  0  0  3  0  0  0  0  0  0
  186.4310  178.3180  146.5270 C   0  0  0  0  0  3  0  0  0  0  0  0
  184.0730  178.4590  142.3880 C   0  0  0  0  0  0  0  0  0  0  0  0
  183.5010  178.7880  143.6170 C   0  0  0  0  0  3  0  0  0  0  0  0
  186.7370  178.1200  145.1730 C   0  0  0  0  0  0  0  0  0  0  0  0
  183.4030  178.4540  141.1220 N   0  0  0  0  0  2  0  0  0  0  0  0
  181.3820  177.6320  139.4850 O   0  0  0  0  0  0  0  0  0  0  0  0
  184.8560  179.8840  139.9730 O   0  0  0  0  0  0  0  0  0  0  0  0
  181.8710  178.3160  138.5470 C   0  0  0  0  0  0  0  0  0  0  0  0
  183.0680  179.0830  138.7360 N   0  0  0  0  0  2  0  0  0  0  0  0
  183.8200  179.1690  139.9510 C   0  0  0  0  0  0  0  0  0  0  0  0
  181.1940  178.3110  137.2160 C   0  0  1  0  0  3  0  0  0  0  0  0
  181.4030  179.5320  136.5760 O   0  0  0  0  0  1  0  0  0  0  0  0
  181.7200  177.1830  136.3450 C   0  0  0  0  0  2  0  0  0  0  0  0
  182.7760  177.6390  135.5560 O   0  0  0  0  0  1  0  0  0  0  0  0
  188.0510  177.6910  144.8000 N   0  0  0  0  0  2  0  0  0  0  0  0
  189.9490  176.9210  147.8230 N   0  0  0  0  0  2  0  0  0  0  0  0
  189.0570  177.2750  145.7270 C   0  0  0  0  0  0  0  0  0  0  0  0
  190.7540  176.9140  145.2450 S   0  0  0  0  0  0  0  0  0  0  0  0
  192.1180  176.0500  147.4200 C   0  0  0  0  0  0  0  0  0  0  0  0
  193.1060  175.4300  147.8300 O   0  0  0  0  0  0  0  0  0  0  0  0
  188.8260  177.2750  147.0320 C   0  0  0  0  0  3  0  0  0  0  0  0
  191.0750  176.7030  146.9890 C   0  0  0  0  0  0  0  0  0  0  0  0
  1  2  2  0  0  0  0
  1  9  1  0  0  0  0
  2  3  1  0  0  0  0
  3  5  2  0  0  0  0
  4  1  1  0  0  0  0
  6  5  1  0  0  0  0
  7  4  1  0  0  0  0
  7  8  2  0  0  0  0
  8  2  1  0  0  0  0
  9  6  2  0  0  0  0
 10  7  1  0  0  0  0
 13 14  1  0  0  0  0
 13 11  2  0  0  0  0
 14 15  1  0  0  0  0
 15 12  2  0  0  0  0
 15 10  1  0  0  0  0
 16 17  1  6  0  0  0
 16 13  1  0  0  0  0
 18 16  1  0  0  0  0
 19 18  1  0  0  0  0
 20  9  1  0  0  0  0
 20 22  1  0  0  0  0
 22 26  2  0  0  0  0
 23 22  1  0  0  0  0
 23 27  1  0  0  0  0
 24 25  2  0  0  0  0
 26 21  1  0  0  0  0
 27 24  2  0  0  0  0
 27 21  1  0  0  0  0
M  END
>  <MODEL>
9

>  <REMARK>
 VINA RESULT:      -7.0      2.508      3.056
  Name = 
  5 active torsions:
  status: ('A' for Active; 'I' for Inactive)
    1  A    between atoms: C_5  and  C_11
    2  A    between atoms: C_5  and  C_18
    3  A    between atoms: N_7  and  C_13
    4  A    between atoms: C_9  and  N_24
    5  A    between atoms: C_23  and  N_24
                            x       y       z     vdW  Elec       q    Type
                         _______ _______ _______ _____ _____    ______ ____

>  <TORSDO>
F 5

$$$$
