=
 OpenBabel10232410293D

 43 46  0  0  1  0  0  0  0  0999 V2000
  188.6840  178.3780  139.2300 C   0  0  0  0  0  2  0  0  0  0  0  0
  189.2130  176.6170  137.5480 C   0  0  0  0  0  0  0  0  0  0  0  0
  190.1180  175.7320  137.9680 C   0  0  0  0  0  3  0  0  0  0  0  0
  187.5930  178.1600  137.0130 C   0  0  2  0  0  3  0  0  0  0  0  0
  188.7730  177.3800  135.9440 S   0  0  0  0  0  0  0  0  0  0  0  0
  188.0970  177.4150  138.2040 C   0  0  2  0  0  3  0  0  0  0  0  0
  193.0510  173.6410  136.9150 C   0  0  1  0  0  3  0  0  0  0  0  0
  191.9700  173.0630  136.0080 C   0  0  0  0  0  3  0  0  0  0  0  0
  193.3230  176.1500  137.5850 C   0  0  0  0  0  2  0  0  0  0  0  0
  190.7260  173.9270  136.1610 C   0  0  0  0  0  3  0  0  0  0  0  0
  191.1050  175.1140  137.0290 C   0  0  2  0  0  0  0  0  0  0  0  0
  194.3490  173.8420  136.1390 C   0  0  0  0  0  1  0  0  0  0  0  0
  192.4750  174.8910  137.5990 C   0  0  2  0  0  0  0  0  0  0  0  0
  192.2360  175.9910  136.5450 C   0  0  2  0  0  3  0  0  0  0  0  0
  185.1320  177.3220  136.3970 C   0  0  0  0  0  0  0  0  0  0  0  0
  186.2430  177.6980  136.6760 C   0  0  0  0  0  0  0  0  0  0  0  0
  182.8490  177.7260  136.6400 O   0  0  0  0  0  1  0  0  0  0  0  0
  183.7830  176.8700  136.0580 C   0  0  2  0  0  3  0  0  0  0  0  0
  183.5780  175.4530  136.5700 C   0  0  0  0  0  2  0  0  0  0  0  0
  184.8810  174.6690  136.5490 C   0  0  0  0  0  2  0  0  0  0  0  0
  184.8180  173.5140  137.5310 C   0  0  0  0  0  2  0  0  0  0  0  0
  186.1670  172.8320  137.5970 C   0  0  0  0  0  1  0  0  0  0  0  0
  187.2560  178.8400  141.0900 O   0  0  0  0  0  1  0  0  0  0  0  0
  188.2690  177.9890  140.6390 C   0  0  2  0  0  3  0  0  0  0  0  0
  189.4740  178.0970  141.5600 C   0  0  0  0  0  2  0  0  0  0  0  0
  190.4480  176.9510  141.3220 C   0  0  1  0  0  3  0  0  0  0  0  0
  191.6770  177.4370  140.8720 O   0  0  0  0  0  1  0  0  0  0  0  0
  190.6280  176.1010  142.5790 C   0  0  0  0  0  2  0  0  0  0  0  0
  189.5360  176.3100  143.5850 C   0  0  0  0  0  0  0  0  0  0  0  0
  188.3860  175.8550  143.3410 O   0  0  0  0  0  0  0  0  0  0  0  0
  189.7950  177.0600  144.8270 C   0  0  0  0  0  0  0  0  0  0  0  0
  191.2670  176.9560  145.5520 S   0  0  0  0  0  0  0  0  0  0  0  0
  188.8220  178.0140  145.2790 N   0  0  0  0  0  2  0  0  0  0  0  0
  188.5030  177.5510  147.8960 S   0  0  0  0  0  0  0  0  0  0  0  0
  187.9260  177.8740  146.3890 C   0  0  0  0  0  0  0  0  0  0  0  0
  186.2980  176.8690  144.9370 O   0  0  0  0  0  1  0  0  0  0  0  0
  186.4740  177.6500  146.0840 C   0  0  2  0  0  3  0  0  0  0  0  0
  185.7320  179.6120  147.2320 O   0  0  0  0  0  1  0  0  0  0  0  0
  185.6910  178.9610  145.9990 C   0  0  2  0  0  3  0  0  0  0  0  0
  184.2430  178.7430  145.5720 C   0  0  0  0  0  2  0  0  0  0  0  0
  184.9260  179.9460  143.6330 O   0  0  0  0  0  0  0  0  0  0  0  0
  183.9810  179.4060  144.2650 C   0  0  0  0  0  0  0  0  0  0  0  0
  182.7010  179.4040  143.7300 O   0  0  0  0  0  1  0  0  0  0  0  0
  1 24  1  0  0  0  0
  2  3  2  0  0  0  0
  2  6  1  0  0  0  0
  4 16  1  6  0  0  0
  4  6  1  0  0  0  0
  5  4  1  0  0  0  0
  5  2  1  0  0  0  0
  6  1  1  1  0  0  0
  7 12  1  6  0  0  0
  7 13  1  0  0  0  0
  8 10  2  0  0  0  0
  8  7  1  0  0  0  0
 10 11  1  0  0  0  0
 11 13  1  0  0  0  0
 11  3  1  1  0  0  0
 13  9  1  1  0  0  0
 14 11  1  0  0  0  0
 14  9  1  1  0  0  0
 14 13  1  0  0  0  0
 15 16  3  0  0  0  0
 18 15  1  0  0  0  0
 18 19  1  0  0  0  0
 18 17  1  1  0  0  0
 20 19  1  0  0  0  0
 20 21  1  0  0  0  0
 21 22  1  0  0  0  0
 24 23  1  1  0  0  0
 24 25  1  0  0  0  0
 26 27  1  1  0  0  0
 26 25  1  0  0  0  0
 26 28  1  0  0  0  0
 28 29  1  0  0  0  0
 29 31  1  0  0  0  0
 30 29  2  0  0  0  0
 31 33  1  0  0  0  0
 31 32  2  0  0  0  0
 33 35  1  0  0  0  0
 35 34  2  0  0  0  0
 37 36  1  6  0  0  0
 37 35  1  0  0  0  0
 39 37  1  0  0  0  0
 39 38  1  1  0  0  0
 40 39  1  0  0  0  0
 41 42  2  0  0  0  0
 42 40  1  0  0  0  0
 43 42  1  0  0  0  0
M  END
>  <MODEL>
1

>  <REMARK>
 VINA RESULT:      -6.9      0.000      0.000
  Name = 
  19 active torsions:
  status: ('A' for Active; 'I' for Inactive)
    1  A    between atoms: N_1  and  C_3
    2  A    between atoms: N_1  and  C_39
    3  A    between atoms: C_3  and  C_22
    4  A    between atoms: C_6  and  C_35
    5  A    between atoms: C_6  and  C_37
    6  A    between atoms: C_7  and  C_30
    7  A    between atoms: C_8  and  C_26
    8  A    between atoms: C_10  and  C_32
    9  A    between atoms: C_13  and  C_16
   10  A    between atoms: C_13  and  C_22
   11  A    between atoms: C_15  and  C_36
   12  A    between atoms: C_16  and  C_17
   13  A    between atoms: C_17  and  C_37
   14  A    between atoms: C_18  and  C_19
   15  A    between atoms: C_19  and  C_43
   16  A    between atoms: C_20  and  C_26
   17  A    between atoms: C_20  and  C_30
   18  A    between atoms: C_39  and  C_40
   19  A    between atoms: C_40  and  C_43
                            x       y       z     vdW  Elec       q    Type
                         _______ _______ _______ _____ _____    ______ ____

>  <TORSDO>
F 19

$$$$
=
 OpenBabel10232410293D

 43 46  0  0  1  0  0  0  0  0999 V2000
  188.7320  178.6600  139.1750 C   0  0  0  0  0  2  0  0  0  0  0  0
  189.1720  176.6570  137.7590 C   0  0  0  0  0  0  0  0  0  0  0  0
  190.2230  175.9400  138.1600 C   0  0  0  0  0  3  0  0  0  0  0  0
  187.3300  177.9410  137.2590 C   0  0  2  0  0  3  0  0  0  0  0  0
  188.4010  177.0640  136.1510 S   0  0  0  0  0  0  0  0  0  0  0  0
  188.0970  177.4780  138.4530 C   0  0  2  0  0  3  0  0  0  0  0  0
  193.0800  173.8020  136.9980 C   0  0  1  0  0  3  0  0  0  0  0  0
  191.9180  173.0890  136.3160 C   0  0  0  0  0  3  0  0  0  0  0  0
  193.3350  176.3820  137.3150 C   0  0  0  0  0  2  0  0  0  0  0  0
  190.6690  173.9360  136.5240 C   0  0  0  0  0  3  0  0  0  0  0  0
  191.1080  175.2310  137.1830 C   0  0  2  0  0  0  0  0  0  0  0  0
  194.2610  173.9350  136.0410 C   0  0  0  0  0  1  0  0  0  0  0  0
  192.5460  175.1150  137.5930 C   0  0  2  0  0  0  0  0  0  0  0  0
  192.1320  176.0670  136.4530 C   0  0  2  0  0  3  0  0  0  0  0  0
  184.9100  176.8090  137.2520 C   0  0  0  0  0  0  0  0  0  0  0  0
  186.0020  177.3210  137.2530 C   0  0  0  0  0  0  0  0  0  0  0  0
  183.1110  176.1140  138.5630 O   0  0  0  0  0  1  0  0  0  0  0  0
  183.5880  176.1840  137.2540 C   0  0  2  0  0  3  0  0  0  0  0  0
  183.6860  174.7860  136.6620 C   0  0  0  0  0  2  0  0  0  0  0  0
  183.9690  173.7530  137.7410 C   0  0  0  0  0  2  0  0  0  0  0  0
  185.0330  172.7780  137.2720 C   0  0  0  0  0  2  0  0  0  0  0  0
  186.3640  173.4900  137.1760 C   0  0  0  0  0  1  0  0  0  0  0  0
  189.6210  177.7160  141.1820 O   0  0  0  0  0  1  0  0  0  0  0  0
  188.5920  178.5170  140.6810 C   0  0  2  0  0  3  0  0  0  0  0  0
  187.2490  177.8810  140.9980 C   0  0  0  0  0  2  0  0  0  0  0  0
  186.3610  178.8390  141.7820 C   0  0  1  0  0  3  0  0  0  0  0  0
  185.5310  179.5570  140.9200 O   0  0  0  0  0  1  0  0  0  0  0  0
  185.5380  178.1000  142.8360 C   0  0  0  0  0  2  0  0  0  0  0  0
  185.2010  178.9580  144.0190 C   0  0  0  0  0  0  0  0  0  0  0  0
  184.4690  179.9700  143.8520 O   0  0  0  0  0  0  0  0  0  0  0  0
  185.7410  178.6390  145.3540 C   0  0  0  0  0  0  0  0  0  0  0  0
  184.7130  178.3480  146.6030 S   0  0  0  0  0  0  0  0  0  0  0  0
  187.1500  178.4030  145.4940 N   0  0  0  0  0  2  0  0  0  0  0  0
  187.6530  178.3280  148.1220 S   0  0  0  0  0  0  0  0  0  0  0  0
  187.8120  177.7550  146.5880 C   0  0  0  0  0  0  0  0  0  0  0  0
  189.8860  176.7600  147.2780 O   0  0  0  0  0  1  0  0  0  0  0  0
  188.9300  176.8080  146.2590 C   0  0  2  0  0  3  0  0  0  0  0  0
  189.0190  176.2720  143.9310 O   0  0  0  0  0  1  0  0  0  0  0  0
  189.5650  177.1110  144.9020 C   0  0  2  0  0  3  0  0  0  0  0  0
  191.0820  176.9590  144.9270 C   0  0  0  0  0  2  0  0  0  0  0  0
  192.1540  177.2450  142.8200 O   0  0  0  0  0  0  0  0  0  0  0  0
  191.7050  177.7910  143.8610 C   0  0  0  0  0  0  0  0  0  0  0  0
  191.7640  179.1700  144.0010 O   0  0  0  0  0  1  0  0  0  0  0  0
  1 24  1  0  0  0  0
  2  3  2  0  0  0  0
  2  6  1  0  0  0  0
  4 16  1  1  0  0  0
  4  6  1  0  0  0  0
  5  4  1  0  0  0  0
  5  2  1  0  0  0  0
  6  1  1  6  0  0  0
  7 12  1  6  0  0  0
  7 13  1  0  0  0  0
  8 10  2  0  0  0  0
  8  7  1  0  0  0  0
 10 11  1  0  0  0  0
 11 13  1  0  0  0  0
 11  3  1  1  0  0  0
 13  9  1  1  0  0  0
 14 11  1  0  0  0  0
 14  9  1  1  0  0  0
 14 13  1  0  0  0  0
 15 16  3  0  0  0  0
 15 18  1  0  0  0  0
 18 17  1  1  0  0  0
 19 18  1  0  0  0  0
 19 20  1  0  0  0  0
 21 20  1  0  0  0  0
 22 21  1  0  0  0  0
 24 25  1  0  0  0  0
 24 23  1  6  0  0  0
 25 26  1  0  0  0  0
 26 27  1  6  0  0  0
 26 28  1  0  0  0  0
 28 29  1  0  0  0  0
 29 31  1  0  0  0  0
 30 29  2  0  0  0  0
 31 33  1  0  0  0  0
 31 32  2  0  0  0  0
 33 35  1  0  0  0  0
 35 34  2  0  0  0  0
 37 35  1  0  0  0  0
 37 36  1  1  0  0  0
 39 38  1  6  0  0  0
 39 40  1  0  0  0  0
 39 37  1  0  0  0  0
 41 42  2  0  0  0  0
 42 43  1  0  0  0  0
 42 40  1  0  0  0  0
M  END
>  <MODEL>
2

>  <REMARK>
 VINA RESULT:      -6.6      1.547      3.680
  Name = 
  19 active torsions:
  status: ('A' for Active; 'I' for Inactive)
    1  A    between atoms: N_1  and  C_3
    2  A    between atoms: N_1  and  C_39
    3  A    between atoms: C_3  and  C_22
    4  A    between atoms: C_6  and  C_35
    5  A    between atoms: C_6  and  C_37
    6  A    between atoms: C_7  and  C_30
    7  A    between atoms: C_8  and  C_26
    8  A    between atoms: C_10  and  C_32
    9  A    between atoms: C_13  and  C_16
   10  A    between atoms: C_13  and  C_22
   11  A    between atoms: C_15  and  C_36
   12  A    between atoms: C_16  and  C_17
   13  A    between atoms: C_17  and  C_37
   14  A    between atoms: C_18  and  C_19
   15  A    between atoms: C_19  and  C_43
   16  A    between atoms: C_20  and  C_26
   17  A    between atoms: C_20  and  C_30
   18  A    between atoms: C_39  and  C_40
   19  A    between atoms: C_40  and  C_43
                            x       y       z     vdW  Elec       q    Type
                         _______ _______ _______ _____ _____    ______ ____

>  <TORSDO>
F 19

$$$$
=
 OpenBabel10232410293D

 43 46  0  0  1  0  0  0  0  0999 V2000
  188.5480  178.0150  139.5140 C   0  0  0  0  0  2  0  0  0  0  0  0
  190.0580  177.0360  141.2380 C   0  0  0  0  0  0  0  0  0  0  0  0
  189.4830  176.8930  142.4330 C   0  0  0  0  0  3  0  0  0  0  0  0
  190.8710  177.2510  139.0970 C   0  0  2  0  0  3  0  0  0  0  0  0
  191.7410  177.4190  140.6320 S   0  0  0  0  0  0  0  0  0  0  0  0
  189.5890  176.9380  139.7950 C   0  0  2  0  0  3  0  0  0  0  0  0
  190.4280  176.3000  146.0160 C   0  0  1  0  0  3  0  0  0  0  0  0
  191.7720  176.0530  145.3400 C   0  0  0  0  0  3  0  0  0  0  0  0
  188.6700  178.1090  145.3410 C   0  0  0  0  0  2  0  0  0  0  0  0
  191.6300  176.4350  143.8730 C   0  0  0  0  0  3  0  0  0  0  0  0
  190.2580  177.0630  143.7020 C   0  0  2  0  0  0  0  0  0  0  0  0
  190.6100  177.1350  147.2790 C   0  0  0  0  0  1  0  0  0  0  0  0
  189.4670  176.8740  144.9630 C   0  0  2  0  0  0  0  0  0  0  0  0
  189.9440  178.2790  144.5420 C   0  0  2  0  0  3  0  0  0  0  0  0
  191.7440  175.0850  137.8000 C   0  0  0  0  0  0  0  0  0  0  0  0
  191.3500  176.0610  138.3870 C   0  0  0  0  0  0  0  0  0  0  0  0
  193.6020  173.9950  136.9070 O   0  0  0  0  0  1  0  0  0  0  0  0
  192.2220  173.9030  137.0830 C   0  0  2  0  0  3  0  0  0  0  0  0
  191.5310  173.8150  135.7320 C   0  0  0  0  0  2  0  0  0  0  0  0
  190.1870  173.1120  135.8480 C   0  0  0  0  0  2  0  0  0  0  0  0
  189.5990  172.8670  134.4700 C   0  0  0  0  0  2  0  0  0  0  0  0
  188.2780  173.5940  134.3480 C   0  0  0  0  0  1  0  0  0  0  0  0
  188.9240  179.6730  137.8370 O   0  0  0  0  0  1  0  0  0  0  0  0
  188.5030  178.3560  138.0350 C   0  0  2  0  0  3  0  0  0  0  0  0
  187.0780  178.1940  137.5300 C   0  0  0  0  0  2  0  0  0  0  0  0
  186.9830  177.0620  136.5160 C   0  0  1  0  0  3  0  0  0  0  0  0
  188.1580  176.3070  136.5110 O   0  0  0  0  0  1  0  0  0  0  0  0
  185.7700  176.1730  136.7850 C   0  0  0  0  0  2  0  0  0  0  0  0
  184.6120  176.4800  135.8830 C   0  0  0  0  0  0  0  0  0  0  0  0
  184.7150  176.2360  134.6510 O   0  0  0  0  0  0  0  0  0  0  0  0
  183.3800  177.0830  136.4250 C   0  0  0  0  0  0  0  0  0  0  0  0
  181.9140  176.5010  135.9640 S   0  0  0  0  0  0  0  0  0  0  0  0
  183.4870  178.0420  137.4880 N   0  0  0  0  0  2  0  0  0  0  0  0
  182.7720  176.3760  139.4570 S   0  0  0  0  0  0  0  0  0  0  0  0
  183.4150  177.7830  138.8950 C   0  0  0  0  0  0  0  0  0  0  0  0
  184.5760  179.8270  139.3890 O   0  0  0  0  0  1  0  0  0  0  0  0
  183.5770  178.9510  139.8250 C   0  0  2  0  0  3  0  0  0  0  0  0
  182.6760  178.8170  142.0350 O   0  0  0  0  0  1  0  0  0  0  0  0
  183.8030  178.5120  141.2720 C   0  0  2  0  0  3  0  0  0  0  0  0
  185.0390  179.1620  141.8860 C   0  0  0  0  0  2  0  0  0  0  0  0
  186.3570  177.4490  142.8870 O   0  0  0  0  0  0  0  0  0  0  0  0
  185.5160  178.3690  143.0530 C   0  0  0  0  0  0  0  0  0  0  0  0
  185.0540  178.6650  144.3280 O   0  0  0  0  0  1  0  0  0  0  0  0
  2  3  2  0  0  0  0
  4 16  1  6  0  0  0
  4  6  1  0  0  0  0
  4  5  1  0  0  0  0
  5  2  1  0  0  0  0
  6  1  1  1  0  0  0
  6  2  1  0  0  0  0
  7 12  1  1  0  0  0
  8  7  1  0  0  0  0
 10  8  2  0  0  0  0
 11  3  1  6  0  0  0
 11 10  1  0  0  0  0
 11 14  1  0  0  0  0
 11 13  1  0  0  0  0
 13  9  1  6  0  0  0
 13  7  1  0  0  0  0
 14 13  1  0  0  0  0
 14  9  1  6  0  0  0
 15 16  3  0  0  0  0
 18 17  1  6  0  0  0
 18 15  1  0  0  0  0
 19 20  1  0  0  0  0
 19 18  1  0  0  0  0
 21 20  1  0  0  0  0
 22 21  1  0  0  0  0
 24 23  1  1  0  0  0
 24  1  1  0  0  0  0
 25 24  1  0  0  0  0
 26 27  1  1  0  0  0
 26 28  1  0  0  0  0
 26 25  1  0  0  0  0
 29 31  1  0  0  0  0
 29 28  1  0  0  0  0
 30 29  2  0  0  0  0
 31 33  1  0  0  0  0
 32 31  2  0  0  0  0
 33 35  1  0  0  0  0
 35 34  2  0  0  0  0
 35 37  1  0  0  0  0
 37 36  1  6  0  0  0
 37 39  1  0  0  0  0
 39 40  1  0  0  0  0
 39 38  1  1  0  0  0
 40 42  1  0  0  0  0
 41 42  2  0  0  0  0
 42 43  1  0  0  0  0
M  END
>  <MODEL>
3

>  <REMARK>
 VINA RESULT:      -6.5      3.121      7.321
  Name = 
  19 active torsions:
  status: ('A' for Active; 'I' for Inactive)
    1  A    between atoms: N_1  and  C_3
    2  A    between atoms: N_1  and  C_39
    3  A    between atoms: C_3  and  C_22
    4  A    between atoms: C_6  and  C_35
    5  A    between atoms: C_6  and  C_37
    6  A    between atoms: C_7  and  C_30
    7  A    between atoms: C_8  and  C_26
    8  A    between atoms: C_10  and  C_32
    9  A    between atoms: C_13  and  C_16
   10  A    between atoms: C_13  and  C_22
   11  A    between atoms: C_15  and  C_36
   12  A    between atoms: C_16  and  C_17
   13  A    between atoms: C_17  and  C_37
   14  A    between atoms: C_18  and  C_19
   15  A    between atoms: C_19  and  C_43
   16  A    between atoms: C_20  and  C_26
   17  A    between atoms: C_20  and  C_30
   18  A    between atoms: C_39  and  C_40
   19  A    between atoms: C_40  and  C_43
                            x       y       z     vdW  Elec       q    Type
                         _______ _______ _______ _____ _____    ______ ____

>  <TORSDO>
F 19

$$$$
=
 OpenBabel10232410293D

 43 46  0  0  1  0  0  0  0  0999 V2000
  185.4800  177.7530  143.3920 C   0  0  0  0  0  2  0  0  0  0  0  0
  187.9570  177.5150  143.5260 C   0  0  0  0  0  0  0  0  0  0  0  0
  188.3650  176.7410  144.5340 C   0  0  0  0  0  3  0  0  0  0  0  0
  187.0910  178.7350  141.7800 C   0  0  2  0  0  3  0  0  0  0  0  0
  188.6000  178.9990  142.6720 S   0  0  0  0  0  0  0  0  0  0  0  0
  186.7580  177.5280  142.5920 C   0  0  2  0  0  3  0  0  0  0  0  0
  191.0750  176.2210  147.0770 C   0  0  1  0  0  3  0  0  0  0  0  0
  191.9100  176.2690  145.8030 C   0  0  0  0  0  3  0  0  0  0  0  0
  188.9650  177.6690  147.5950 C   0  0  0  0  0  2  0  0  0  0  0  0
  190.9870  176.6660  144.6590 C   0  0  0  0  0  3  0  0  0  0  0  0
  189.6410  177.0160  145.2670 C   0  0  2  0  0  0  0  0  0  0  0  0
  191.7430  177.0310  148.1840 C   0  0  0  0  0  1  0  0  0  0  0  0
  189.6380  176.6310  146.7170 C   0  0  2  0  0  0  0  0  0  0  0  0
  189.6140  178.1150  146.3030 C   0  0  2  0  0  3  0  0  0  0  0  0
  187.6460  178.0040  139.2710 C   0  0  0  0  0  0  0  0  0  0  0  0
  187.3960  178.3360  140.4030 C   0  0  0  0  0  0  0  0  0  0  0  0
  187.5140  176.2860  137.7000 O   0  0  0  0  0  1  0  0  0  0  0  0
  187.9490  177.5950  137.9000 C   0  0  2  0  0  3  0  0  0  0  0  0
  189.4480  177.6860  137.6630 C   0  0  0  0  0  2  0  0  0  0  0  0
  190.1570  176.4290  138.1450 C   0  0  0  0  0  2  0  0  0  0  0  0
  191.3010  176.7910  139.0720 C   0  0  0  0  0  2  0  0  0  0  0  0
  190.7960  176.8590  140.4970 C   0  0  0  0  0  1  0  0  0  0  0  0
  185.5940  179.1450  145.3300 O   0  0  0  0  0  1  0  0  0  0  0  0
  185.4260  179.1670  143.9430 C   0  0  2  0  0  3  0  0  0  0  0  0
  184.0790  179.7830  143.6010 C   0  0  0  0  0  2  0  0  0  0  0  0
  183.0340  178.7050  143.3450 C   0  0  1  0  0  3  0  0  0  0  0  0
  182.2840  178.4640  144.4980 O   0  0  0  0  0  1  0  0  0  0  0  0
  182.1250  179.0750  142.1740 C   0  0  0  0  0  2  0  0  0  0  0  0
  182.5380  178.4250  140.8880 C   0  0  0  0  0  0  0  0  0  0  0  0
  183.4670  177.5730  140.9040 O   0  0  0  0  0  0  0  0  0  0  0  0
  181.8860  178.7960  139.6180 C   0  0  0  0  0  0  0  0  0  0  0  0
  182.4530  180.0720  138.7510 S   0  0  0  0  0  0  0  0  0  0  0  0
  180.8880  177.9230  139.0690 N   0  0  0  0  0  2  0  0  0  0  0  0
  180.6840  175.2670  139.3300 S   0  0  0  0  0  0  0  0  0  0  0  0
  181.0960  176.6260  138.4970 C   0  0  0  0  0  0  0  0  0  0  0  0
  181.4210  175.8870  136.2350 O   0  0  0  0  0  1  0  0  0  0  0  0
  182.0250  176.5260  137.3220 C   0  0  2  0  0  3  0  0  0  0  0  0
  184.3270  176.8590  137.8780 O   0  0  0  0  0  1  0  0  0  0  0  0
  183.3570  175.8740  137.6920 C   0  0  2  0  0  3  0  0  0  0  0  0
  183.8250  174.8770  136.6350 C   0  0  0  0  0  2  0  0  0  0  0  0
  184.9460  173.2350  137.9470 O   0  0  0  0  0  1  0  0  0  0  0  0
  183.9540  173.5170  137.2270 C   0  0  0  0  0  0  0  0  0  0  0  0
  182.9640  172.5680  137.0070 O   0  0  0  0  0  0  0  0  0  0  0  0
  1 24  1  0  0  0  0
  2  3  2  0  0  0  0
  4 16  1  6  0  0  0
  4  6  1  0  0  0  0
  4  5  1  0  0  0  0
  5  2  1  0  0  0  0
  6  1  1  1  0  0  0
  6  2  1  0  0  0  0
  7 12  1  1  0  0  0
  8  7  1  0  0  0  0
 10 11  1  0  0  0  0
 10  8  2  0  0  0  0
 11  3  1  6  0  0  0
 11 14  1  0  0  0  0
 11 13  1  0  0  0  0
 13  7  1  0  0  0  0
 13  9  1  1  0  0  0
 14 13  1  0  0  0  0
 14  9  1  6  0  0  0
 15 16  3  0  0  0  0
 18 17  1  1  0  0  0
 18 15  1  0  0  0  0
 19 18  1  0  0  0  0
 19 20  1  0  0  0  0
 20 21  1  0  0  0  0
 21 22  1  0  0  0  0
 24 23  1  1  0  0  0
 25 24  1  0  0  0  0
 26 25  1  0  0  0  0
 26 27  1  1  0  0  0
 28 26  1  0  0  0  0
 29 30  2  0  0  0  0
 29 28  1  0  0  0  0
 31 29  1  0  0  0  0
 32 31  2  0  0  0  0
 33 31  1  0  0  0  0
 35 33  1  0  0  0  0
 35 34  2  0  0  0  0
 37 36  1  6  0  0  0
 37 39  1  0  0  0  0
 37 35  1  0  0  0  0
 39 38  1  6  0  0  0
 40 42  1  0  0  0  0
 40 39  1  0  0  0  0
 42 41  1  0  0  0  0
 43 42  2  0  0  0  0
M  END
>  <MODEL>
4

>  <REMARK>
 VINA RESULT:      -6.2      3.380      8.406
  Name = 
  19 active torsions:
  status: ('A' for Active; 'I' for Inactive)
    1  A    between atoms: N_1  and  C_3
    2  A    between atoms: N_1  and  C_39
    3  A    between atoms: C_3  and  C_22
    4  A    between atoms: C_6  and  C_35
    5  A    between atoms: C_6  and  C_37
    6  A    between atoms: C_7  and  C_30
    7  A    between atoms: C_8  and  C_26
    8  A    between atoms: C_10  and  C_32
    9  A    between atoms: C_13  and  C_16
   10  A    between atoms: C_13  and  C_22
   11  A    between atoms: C_15  and  C_36
   12  A    between atoms: C_16  and  C_17
   13  A    between atoms: C_17  and  C_37
   14  A    between atoms: C_18  and  C_19
   15  A    between atoms: C_19  and  C_43
   16  A    between atoms: C_20  and  C_26
   17  A    between atoms: C_20  and  C_30
   18  A    between atoms: C_39  and  C_40
   19  A    between atoms: C_40  and  C_43
                            x       y       z     vdW  Elec       q    Type
                         _______ _______ _______ _____ _____    ______ ____

>  <TORSDO>
F 19

$$$$
=
 OpenBabel10232410293D

 43 46  0  0  1  0  0  0  0  0999 V2000
  188.5550  178.3560  139.4250 C   0  0  0  0  0  2  0  0  0  0  0  0
  189.1320  176.6100  137.7420 C   0  0  0  0  0  0  0  0  0  0  0  0
  190.0760  175.7630  138.1550 C   0  0  0  0  0  3  0  0  0  0  0  0
  187.4470  178.0870  137.2220 C   0  0  2  0  0  3  0  0  0  0  0  0
  188.6430  177.3480  136.1420 S   0  0  0  0  0  0  0  0  0  0  0  0
  187.9950  177.3670  138.4090 C   0  0  2  0  0  3  0  0  0  0  0  0
  193.0930  173.8090  137.0750 C   0  0  1  0  0  3  0  0  0  0  0  0
  192.0270  173.1580  136.2020 C   0  0  0  0  0  3  0  0  0  0  0  0
  193.2460  176.3420  137.6940 C   0  0  0  0  0  2  0  0  0  0  0  0
  190.7410  173.9580  136.3680 C   0  0  0  0  0  3  0  0  0  0  0  0
  191.0750  175.1790  137.2050 C   0  0  2  0  0  0  0  0  0  0  0  0
  194.3620  174.0640  136.2680 C   0  0  0  0  0  1  0  0  0  0  0  0
  192.4660  175.0410  137.7490 C   0  0  2  0  0  0  0  0  0  0  0  0
  192.1470  176.1060  136.6810 C   0  0  2  0  0  3  0  0  0  0  0  0
  185.0120  177.1500  136.6440 C   0  0  0  0  0  0  0  0  0  0  0  0
  186.1120  177.5700  136.9040 C   0  0  0  0  0  0  0  0  0  0  0  0
  183.0710  177.4810  135.3960 O   0  0  0  0  0  1  0  0  0  0  0  0
  183.6760  176.6430  136.3320 C   0  0  2  0  0  3  0  0  0  0  0  0
  182.8420  176.5940  137.6020 C   0  0  0  0  0  2  0  0  0  0  0  0
  183.0280  177.8570  138.4280 C   0  0  0  0  0  2  0  0  0  0  0  0
  182.7270  177.5810  139.8900 C   0  0  0  0  0  2  0  0  0  0  0  0
  181.4910  176.7150  139.9960 C   0  0  0  0  0  1  0  0  0  0  0  0
  186.6810  178.6500  140.8760 O   0  0  0  0  0  1  0  0  0  0  0  0
  187.9680  178.1110  140.8040 C   0  0  2  0  0  3  0  0  0  0  0  0
  188.8560  178.7700  141.8470 C   0  0  0  0  0  2  0  0  0  0  0  0
  189.8440  177.7700  142.4340 C   0  0  1  0  0  3  0  0  0  0  0  0
  190.9320  177.5940  141.5770 O   0  0  0  0  0  1  0  0  0  0  0  0
  190.3110  178.1980  143.8240 C   0  0  0  0  0  2  0  0  0  0  0  0
  190.6610  177.0360  144.7050 C   0  0  0  0  0  0  0  0  0  0  0  0
  191.4920  176.1840  144.2910 O   0  0  0  0  0  0  0  0  0  0  0  0
  190.0230  176.8780  146.0250 C   0  0  0  0  0  0  0  0  0  0  0  0
  190.9540  176.7790  147.3760 S   0  0  0  0  0  0  0  0  0  0  0  0
  188.5970  177.0020  146.1250 N   0  0  0  0  0  2  0  0  0  0  0  0
  187.9240  177.7800  148.5970 S   0  0  0  0  0  0  0  0  0  0  0  0
  187.8650  177.9110  146.9570 C   0  0  0  0  0  0  0  0  0  0  0  0
  186.0620  179.4700  147.2510 O   0  0  0  0  0  1  0  0  0  0  0  0
  186.7730  178.7140  146.3130 C   0  0  2  0  0  3  0  0  0  0  0  0
  186.2570  177.8820  144.1310 O   0  0  0  0  0  1  0  0  0  0  0  0
  185.8420  177.8490  145.4630 C   0  0  2  0  0  3  0  0  0  0  0  0
  184.3870  178.2930  145.5650 C   0  0  0  0  0  2  0  0  0  0  0  0
  183.0260  178.6390  143.6410 O   0  0  0  0  0  0  0  0  0  0  0  0
  183.9870  179.0460  144.3440 C   0  0  0  0  0  0  0  0  0  0  0  0
  184.6540  180.2130  143.9990 O   0  0  0  0  0  1  0  0  0  0  0  0
  1 24  1  0  0  0  0
  2  3  2  0  0  0  0
  2  6  1  0  0  0  0
  4 16  1  6  0  0  0
  4  6  1  0  0  0  0
  5  4  1  0  0  0  0
  5  2  1  0  0  0  0
  6  1  1  1  0  0  0
  7 12  1  6  0  0  0
  7 13  1  0  0  0  0
  8 10  2  0  0  0  0
  8  7  1  0  0  0  0
 10 11  1  0  0  0  0
 11 13  1  0  0  0  0
 11  3  1  1  0  0  0
 13  9  1  1  0  0  0
 14 11  1  0  0  0  0
 14  9  1  1  0  0  0
 14 13  1  0  0  0  0
 15 16  3  0  0  0  0
 18 17  1  6  0  0  0
 18 15  1  0  0  0  0
 18 19  1  0  0  0  0
 19 20  1  0  0  0  0
 20 21  1  0  0  0  0
 21 22  1  0  0  0  0
 24 23  1  6  0  0  0
 24 25  1  0  0  0  0
 25 26  1  0  0  0  0
 26 27  1  6  0  0  0
 26 28  1  0  0  0  0
 28 29  1  0  0  0  0
 29 31  1  0  0  0  0
 30 29  2  0  0  0  0
 31 33  1  0  0  0  0
 31 32  2  0  0  0  0
 33 35  1  0  0  0  0
 35 34  2  0  0  0  0
 37 35  1  0  0  0  0
 37 36  1  1  0  0  0
 39 38  1  6  0  0  0
 39 40  1  0  0  0  0
 39 37  1  0  0  0  0
 41 42  2  0  0  0  0
 42 40  1  0  0  0  0
 43 42  1  0  0  0  0
M  END
>  <MODEL>
5

>  <REMARK>
 VINA RESULT:      -6.2      1.342      1.944
  Name = 
  19 active torsions:
  status: ('A' for Active; 'I' for Inactive)
    1  A    between atoms: N_1  and  C_3
    2  A    between atoms: N_1  and  C_39
    3  A    between atoms: C_3  and  C_22
    4  A    between atoms: C_6  and  C_35
    5  A    between atoms: C_6  and  C_37
    6  A    between atoms: C_7  and  C_30
    7  A    between atoms: C_8  and  C_26
    8  A    between atoms: C_10  and  C_32
    9  A    between atoms: C_13  and  C_16
   10  A    between atoms: C_13  and  C_22
   11  A    between atoms: C_15  and  C_36
   12  A    between atoms: C_16  and  C_17
   13  A    between atoms: C_17  and  C_37
   14  A    between atoms: C_18  and  C_19
   15  A    between atoms: C_19  and  C_43
   16  A    between atoms: C_20  and  C_26
   17  A    between atoms: C_20  and  C_30
   18  A    between atoms: C_39  and  C_40
   19  A    between atoms: C_40  and  C_43
                            x       y       z     vdW  Elec       q    Type
                         _______ _______ _______ _____ _____    ______ ____

>  <TORSDO>
F 19

$$$$
=
 OpenBabel10232410293D

 43 46  0  0  1  0  0  0  0  0999 V2000
  186.2300  177.8000  142.6490 C   0  0  0  0  0  2  0  0  0  0  0  0
  188.5550  177.2880  141.9130 C   0  0  0  0  0  0  0  0  0  0  0  0
  188.8520  177.7730  140.7060 C   0  0  0  0  0  3  0  0  0  0  0  0
  187.9230  176.6100  144.0180 C   0  0  2  0  0  3  0  0  0  0  0  0
  189.0180  175.8060  142.8790 S   0  0  0  0  0  0  0  0  0  0  0  0
  187.6920  177.7460  143.0780 C   0  0  2  0  0  3  0  0  0  0  0  0
  190.9630  177.2350  137.6500 C   0  0  1  0  0  3  0  0  0  0  0  0
  191.9860  176.9320  138.7390 C   0  0  0  0  0  3  0  0  0  0  0  0
  188.4290  176.6080  137.6960 C   0  0  0  0  0  2  0  0  0  0  0  0
  191.2520  176.9170  140.0730 C   0  0  0  0  0  3  0  0  0  0  0  0
  189.7690  177.0460  139.7730 C   0  0  2  0  0  0  0  0  0  0  0  0
  191.0630  176.2110  136.5240 C   0  0  0  0  0  1  0  0  0  0  0  0
  189.5860  177.3670  138.3190 C   0  0  2  0  0  0  0  0  0  0  0  0
  189.1500  175.9980  138.8780 C   0  0  2  0  0  3  0  0  0  0  0  0
  189.3010  177.4640  146.1410 C   0  0  0  0  0  0  0  0  0  0  0  0
  188.6810  177.0780  145.1820 C   0  0  0  0  0  0  0  0  0  0  0  0
  190.9380  176.9440  147.7180 O   0  0  0  0  0  1  0  0  0  0  0  0
  190.0490  177.9360  147.3070 C   0  0  2  0  0  3  0  0  0  0  0  0
  189.0810  178.2640  148.4320 C   0  0  0  0  0  2  0  0  0  0  0  0
  187.6730  177.7950  148.0990 C   0  0  0  0  0  2  0  0  0  0  0  0
  186.7740  178.9830  147.8160 C   0  0  0  0  0  2  0  0  0  0  0  0
  185.6520  178.5600  146.8920 C   0  0  0  0  0  1  0  0  0  0  0  0
  184.8400  179.7380  142.7900 O   0  0  0  0  0  1  0  0  0  0  0  0
  185.8840  179.1580  142.0640 C   0  0  2  0  0  3  0  0  0  0  0  0
  185.4640  178.9830  140.6150 C   0  0  0  0  0  2  0  0  0  0  0  0
  183.9510  179.0840  140.4680 C   0  0  1  0  0  3  0  0  0  0  0  0
  183.6160  179.8500  139.3500 O   0  0  0  0  0  1  0  0  0  0  0  0
  183.3040  177.7020  140.3920 C   0  0  0  0  0  2  0  0  0  0  0  0
  181.9020  177.7430  139.8610 C   0  0  0  0  0  0  0  0  0  0  0  0
  181.0540  178.4800  140.4330 O   0  0  0  0  0  0  0  0  0  0  0  0
  181.5140  176.9150  138.7050 C   0  0  0  0  0  0  0  0  0  0  0  0
  180.3100  175.8070  138.8610 S   0  0  0  0  0  0  0  0  0  0  0  0
  182.0660  177.2200  137.4160 N   0  0  0  0  0  2  0  0  0  0  0  0
  184.7060  177.2290  136.9730 S   0  0  0  0  0  0  0  0  0  0  0  0
  183.1960  176.5990  136.7910 C   0  0  0  0  0  0  0  0  0  0  0  0
  181.7700  175.9490  134.9710 O   0  0  0  0  0  1  0  0  0  0  0  0
  182.9260  175.6200  135.6850 C   0  0  2  0  0  3  0  0  0  0  0  0
  181.5630  173.7630  136.3270 O   0  0  0  0  0  1  0  0  0  0  0  0
  182.8880  174.1760  136.1880 C   0  0  2  0  0  3  0  0  0  0  0  0
  183.6290  174.0050  137.5100 C   0  0  0  0  0  2  0  0  0  0  0  0
  184.2790  171.8430  136.7520 O   0  0  0  0  0  0  0  0  0  0  0  0
  184.5780  172.8610  137.4290 C   0  0  0  0  0  0  0  0  0  0  0  0
  185.8040  172.9290  138.0760 O   0  0  0  0  0  1  0  0  0  0  0  0
  2  5  1  0  0  0  0
  2  6  1  0  0  0  0
  3  2  2  0  0  0  0
  4 16  1  1  0  0  0
  5  4  1  0  0  0  0
  6  1  1  6  0  0  0
  6  4  1  0  0  0  0
  7 12  1  6  0  0  0
  7 13  1  0  0  0  0
  7  8  1  0  0  0  0
  8 10  2  0  0  0  0
 11 10  1  0  0  0  0
 11  3  1  1  0  0  0
 13  9  1  6  0  0  0
 13 14  1  0  0  0  0
 13 11  1  0  0  0  0
 14  9  1  1  0  0  0
 14 11  1  0  0  0  0
 15 18  1  0  0  0  0
 16 15  3  0  0  0  0
 18 17  1  1  0  0  0
 18 19  1  0  0  0  0
 20 19  1  0  0  0  0
 21 20  1  0  0  0  0
 22 21  1  0  0  0  0
 24  1  1  0  0  0  0
 24 23  1  1  0  0  0
 25 24  1  0  0  0  0
 26 27  1  6  0  0  0
 26 25  1  0  0  0  0
 28 26  1  0  0  0  0
 29 28  1  0  0  0  0
 29 30  2  0  0  0  0
 31 32  2  0  0  0  0
 31 29  1  0  0  0  0
 33 31  1  0  0  0  0
 35 34  2  0  0  0  0
 35 33  1  0  0  0  0
 37 36  1  1  0  0  0
 37 39  1  0  0  0  0
 37 35  1  0  0  0  0
 39 38  1  1  0  0  0
 39 40  1  0  0  0  0
 41 42  2  0  0  0  0
 42 40  1  0  0  0  0
 42 43  1  0  0  0  0
M  END
>  <MODEL>
6

>  <REMARK>
 VINA RESULT:      -6.1      3.466      8.854
  Name = 
  19 active torsions:
  status: ('A' for Active; 'I' for Inactive)
    1  A    between atoms: N_1  and  C_3
    2  A    between atoms: N_1  and  C_39
    3  A    between atoms: C_3  and  C_22
    4  A    between atoms: C_6  and  C_35
    5  A    between atoms: C_6  and  C_37
    6  A    between atoms: C_7  and  C_30
    7  A    between atoms: C_8  and  C_26
    8  A    between atoms: C_10  and  C_32
    9  A    between atoms: C_13  and  C_16
   10  A    between atoms: C_13  and  C_22
   11  A    between atoms: C_15  and  C_36
   12  A    between atoms: C_16  and  C_17
   13  A    between atoms: C_17  and  C_37
   14  A    between atoms: C_18  and  C_19
   15  A    between atoms: C_19  and  C_43
   16  A    between atoms: C_20  and  C_26
   17  A    between atoms: C_20  and  C_30
   18  A    between atoms: C_39  and  C_40
   19  A    between atoms: C_40  and  C_43
                            x       y       z     vdW  Elec       q    Type
                         _______ _______ _______ _____ _____    ______ ____

>  <TORSDO>
F 19

$$$$
=
 OpenBabel10232410293D

 43 46  0  0  1  0  0  0  0  0999 V2000
  185.8740  179.2860  141.9300 C   0  0  0  0  0  2  0  0  0  0  0  0
  186.5570  178.1920  139.7980 C   0  0  0  0  0  0  0  0  0  0  0  0
  187.8210  177.7630  139.7990 C   0  0  0  0  0  3  0  0  0  0  0  0
  184.3760  178.8940  139.9920 C   0  0  2  0  0  3  0  0  0  0  0  0
  185.4080  178.8770  138.5510 S   0  0  0  0  0  0  0  0  0  0  0  0
  185.4560  178.3070  140.8390 C   0  0  2  0  0  3  0  0  0  0  0  0
  188.6200  177.3420  136.1560 C   0  0  1  0  0  3  0  0  0  0  0  0
  189.0520  178.7890  136.3590 C   0  0  0  0  0  3  0  0  0  0  0  0
  188.9180  175.3870  137.8630 C   0  0  0  0  0  2  0  0  0  0  0  0
  188.9750  179.0910  137.8500 C   0  0  0  0  0  3  0  0  0  0  0  0
  188.6570  177.7860  138.5580 C   0  0  2  0  0  0  0  0  0  0  0  0
  189.6460  176.5900  135.3150 C   0  0  0  0  0  1  0  0  0  0  0  0
  188.3130  176.7410  137.5380 C   0  0  2  0  0  0  0  0  0  0  0  0
  189.6160  176.6370  138.3550 C   0  0  2  0  0  3  0  0  0  0  0  0
  182.4010  177.1180  139.7000 C   0  0  0  0  0  0  0  0  0  0  0  0
  183.2910  177.9210  139.8310 C   0  0  0  0  0  0  0  0  0  0  0  0
  181.8260  175.0010  138.9110 O   0  0  0  0  0  1  0  0  0  0  0  0
  181.3260  176.1390  139.5410 C   0  0  2  0  0  3  0  0  0  0  0  0
  180.2070  176.7450  138.7090 C   0  0  0  0  0  2  0  0  0  0  0  0
  180.7370  177.2870  137.3900 C   0  0  0  0  0  2  0  0  0  0  0  0
  180.1060  178.6320  137.0810 C   0  0  0  0  0  2  0  0  0  0  0  0
  181.1060  179.7340  137.3560 C   0  0  0  0  0  1  0  0  0  0  0  0
  184.9710  180.5740  143.7280 O   0  0  0  0  0  1  0  0  0  0  0  0
  184.8090  179.3880  143.0080 C   0  0  2  0  0  3  0  0  0  0  0  0
  184.9360  178.1990  143.9460 C   0  0  0  0  0  2  0  0  0  0  0  0
  185.0250  178.6540  145.3970 C   0  0  1  0  0  3  0  0  0  0  0  0
  183.7490  178.7880  145.9480 O   0  0  0  0  0  1  0  0  0  0  0  0
  185.8780  177.6990  146.2300 C   0  0  0  0  0  2  0  0  0  0  0  0
  186.7140  178.4070  147.2540 C   0  0  0  0  0  0  0  0  0  0  0  0
  186.2400  179.4190  147.8360 O   0  0  0  0  0  0  0  0  0  0  0  0
  188.0800  177.9430  147.5560 C   0  0  0  0  0  0  0  0  0  0  0  0
  188.7890  178.3590  148.9800 S   0  0  0  0  0  0  0  0  0  0  0  0
  188.6950  176.9810  146.6860 N   0  0  0  0  0  2  0  0  0  0  0  0
  191.2820  176.7060  146.0560 S   0  0  0  0  0  0  0  0  0  0  0  0
  189.7490  177.2180  145.7440 C   0  0  0  0  0  0  0  0  0  0  0  0
  188.3830  177.9530  143.9110 O   0  0  0  0  0  1  0  0  0  0  0  0
  189.5110  178.2510  144.6820 C   0  0  2  0  0  3  0  0  0  0  0  0
  191.2880  179.7350  144.0840 O   0  0  0  0  0  1  0  0  0  0  0  0
  190.7460  178.4790  143.8100 C   0  0  2  0  0  3  0  0  0  0  0  0
  190.4320  178.3620  142.3220 C   0  0  0  0  0  2  0  0  0  0  0  0
  192.3080  177.2690  141.3420 O   0  0  0  0  0  0  0  0  0  0  0  0
  191.1180  177.1760  141.7380 C   0  0  0  0  0  0  0  0  0  0  0  0
  190.4540  175.9590  141.6600 O   0  0  0  0  0  1  0  0  0  0  0  0
  1 24  1  0  0  0  0
  2  3  2  0  0  0  0
  2  6  1  0  0  0  0
  4 16  1  6  0  0  0
  4  6  1  0  0  0  0
  5  2  1  0  0  0  0
  5  4  1  0  0  0  0
  6  1  1  1  0  0  0
  7 12  1  1  0  0  0
  7  8  1  0  0  0  0
  7 13  1  0  0  0  0
  8 10  2  0  0  0  0
 10 11  1  0  0  0  0
 11  3  1  1  0  0  0
 13  9  1  1  0  0  0
 13 14  1  0  0  0  0
 13 11  1  0  0  0  0
 14  9  1  1  0  0  0
 14 11  1  0  0  0  0
 15 16  3  0  0  0  0
 18 17  1  6  0  0  0
 18 15  1  0  0  0  0
 19 18  1  0  0  0  0
 20 19  1  0  0  0  0
 21 22  1  0  0  0  0
 21 20  1  0  0  0  0
 24 23  1  1  0  0  0
 24 25  1  0  0  0  0
 25 26  1  0  0  0  0
 26 27  1  1  0  0  0
 26 28  1  0  0  0  0
 28 29  1  0  0  0  0
 29 31  1  0  0  0  0
 29 30  2  0  0  0  0
 31 32  2  0  0  0  0
 33 31  1  0  0  0  0
 35 34  2  0  0  0  0
 35 33  1  0  0  0  0
 37 36  1  6  0  0  0
 37 35  1  0  0  0  0
 39 38  1  6  0  0  0
 39 37  1  0  0  0  0
 40 39  1  0  0  0  0
 41 42  2  0  0  0  0
 42 40  1  0  0  0  0
 43 42  1  0  0  0  0
M  END
>  <MODEL>
7

>  <REMARK>
 VINA RESULT:      -6.0      2.652      5.355
  Name = 
  19 active torsions:
  status: ('A' for Active; 'I' for Inactive)
    1  A    between atoms: N_1  and  C_3
    2  A    between atoms: N_1  and  C_39
    3  A    between atoms: C_3  and  C_22
    4  A    between atoms: C_6  and  C_35
    5  A    between atoms: C_6  and  C_37
    6  A    between atoms: C_7  and  C_30
    7  A    between atoms: C_8  and  C_26
    8  A    between atoms: C_10  and  C_32
    9  A    between atoms: C_13  and  C_16
   10  A    between atoms: C_13  and  C_22
   11  A    between atoms: C_15  and  C_36
   12  A    between atoms: C_16  and  C_17
   13  A    between atoms: C_17  and  C_37
   14  A    between atoms: C_18  and  C_19
   15  A    between atoms: C_19  and  C_43
   16  A    between atoms: C_20  and  C_26
   17  A    between atoms: C_20  and  C_30
   18  A    between atoms: C_39  and  C_40
   19  A    between atoms: C_40  and  C_43
                            x       y       z     vdW  Elec       q    Type
                         _______ _______ _______ _____ _____    ______ ____

>  <TORSDO>
F 19

$$$$
=
 OpenBabel10232410293D

 43 46  0  0  1  0  0  0  0  0999 V2000
  190.4070  176.9040  139.8060 C   0  0  0  0  0  2  0  0  0  0  0  0
  189.1110  176.9450  137.6780 C   0  0  0  0  0  0  0  0  0  0  0  0
  188.3150  178.0090  137.5580 C   0  0  0  0  0  3  0  0  0  0  0  0
  190.6070  175.2260  137.9900 C   0  0  2  0  0  3  0  0  0  0  0  0
  189.0410  175.1920  137.1600 S   0  0  0  0  0  0  0  0  0  0  0  0
  190.4730  176.6800  138.3000 C   0  0  2  0  0  3  0  0  0  0  0  0
  185.5080  176.4140  135.6430 C   0  0  1  0  0  3  0  0  0  0  0  0
  184.7370  176.9700  136.8350 C   0  0  0  0  0  3  0  0  0  0  0  0
  187.5180  177.5630  134.4340 C   0  0  0  0  0  2  0  0  0  0  0  0
  185.6970  177.8290  137.6480 C   0  0  0  0  0  3  0  0  0  0  0  0
  186.9920  177.9240  136.8620 C   0  0  2  0  0  0  0  0  0  0  0  0
  184.7480  176.6750  134.3470 C   0  0  0  0  0  1  0  0  0  0  0  0
  186.9410  176.9700  135.7060 C   0  0  2  0  0  0  0  0  0  0  0  0
  186.9140  178.4920  135.4650 C   0  0  2  0  0  3  0  0  0  0  0  0
  192.5680  174.8620  136.2120 C   0  0  0  0  0  0  0  0  0  0  0  0
  191.6840  175.0250  137.0160 C   0  0  0  0  0  0  0  0  0  0  0  0
  194.7930  174.2430  135.8890 O   0  0  0  0  0  1  0  0  0  0  0  0
  193.6360  174.6650  135.2330 C   0  0  2  0  0  3  0  0  0  0  0  0
  193.9020  175.9700  134.5010 C   0  0  0  0  0  2  0  0  0  0  0  0
  194.6140  176.9690  135.4010 C   0  0  0  0  0  2  0  0  0  0  0  0
  196.0210  177.2260  134.8940 C   0  0  0  0  0  2  0  0  0  0  0  0
  196.2360  178.7150  134.7330 C   0  0  0  0  0  1  0  0  0  0  0  0
  192.7830  177.1260  139.6930 O   0  0  0  0  0  1  0  0  0  0  0  0
  191.6370  177.6470  140.2990 C   0  0  2  0  0  3  0  0  0  0  0  0
  191.7410  177.4900  141.8070 C   0  0  0  0  0  2  0  0  0  0  0  0
  190.4440  176.9460  142.3910 C   0  0  1  0  0  3  0  0  0  0  0  0
  190.6840  175.7790  143.1190 O   0  0  0  0  0  1  0  0  0  0  0  0
  189.7420  177.9900  143.2580 C   0  0  0  0  0  2  0  0  0  0  0  0
  190.4280  178.2120  144.5730 C   0  0  0  0  0  0  0  0  0  0  0  0
  191.1950  179.2030  144.7020 O   0  0  0  0  0  0  0  0  0  0  0  0
  190.2280  177.2710  145.6900 C   0  0  0  0  0  0  0  0  0  0  0  0
  191.4810  176.9140  146.6910 S   0  0  0  0  0  0  0  0  0  0  0  0
  188.8970  176.8290  145.9960 N   0  0  0  0  0  2  0  0  0  0  0  0
  187.8770  178.2850  147.9960 S   0  0  0  0  0  0  0  0  0  0  0  0
  187.8140  177.6260  146.4890 C   0  0  0  0  0  0  0  0  0  0  0  0
  186.6580  177.1290  144.4430 O   0  0  0  0  0  1  0  0  0  0  0  0
  186.4980  177.5270  145.7740 C   0  0  2  0  0  3  0  0  0  0  0  0
  184.4430  178.5380  146.4640 O   0  0  0  0  0  1  0  0  0  0  0  0
  185.6810  178.8150  145.8840 C   0  0  2  0  0  3  0  0  0  0  0  0
  185.4810  179.4890  144.5300 C   0  0  0  0  0  2  0  0  0  0  0  0
  183.1980  180.0600  144.1650 O   0  0  0  0  0  1  0  0  0  0  0  0
  184.1140  179.2120  144.0090 C   0  0  0  0  0  0  0  0  0  0  0  0
  183.8580  178.0310  143.3260 O   0  0  0  0  0  0  0  0  0  0  0  0
  1 24  1  0  0  0  0
  2  6  1  0  0  0  0
  3  2  2  0  0  0  0
  4 16  1  6  0  0  0
  4  6  1  0  0  0  0
  5  2  1  0  0  0  0
  5  4  1  0  0  0  0
  6  1  1  1  0  0  0
  7 12  1  6  0  0  0
  7 13  1  0  0  0  0
  7  8  1  0  0  0  0
  8 10  2  0  0  0  0
 11  3  1  1  0  0  0
 11 10  1  0  0  0  0
 13  9  1  6  0  0  0
 13 11  1  0  0  0  0
 14  9  1  6  0  0  0
 14 13  1  0  0  0  0
 14 11  1  0  0  0  0
 15 16  3  0  0  0  0
 18 17  1  1  0  0  0
 18 15  1  0  0  0  0
 19 18  1  0  0  0  0
 19 20  1  0  0  0  0
 21 20  1  0  0  0  0
 22 21  1  0  0  0  0
 24 23  1  6  0  0  0
 24 25  1  0  0  0  0
 25 26  1  0  0  0  0
 26 27  1  1  0  0  0
 26 28  1  0  0  0  0
 28 29  1  0  0  0  0
 29 30  2  0  0  0  0
 29 31  1  0  0  0  0
 31 33  1  0  0  0  0
 31 32  2  0  0  0  0
 33 35  1  0  0  0  0
 35 34  2  0  0  0  0
 37 36  1  6  0  0  0
 37 39  1  0  0  0  0
 37 35  1  0  0  0  0
 39 38  1  6  0  0  0
 40 39  1  0  0  0  0
 42 41  1  0  0  0  0
 42 40  1  0  0  0  0
 43 42  2  0  0  0  0
M  END
>  <MODEL>
8

>  <REMARK>
 VINA RESULT:      -5.9      2.070      5.792
  Name = 
  19 active torsions:
  status: ('A' for Active; 'I' for Inactive)
    1  A    between atoms: N_1  and  C_3
    2  A    between atoms: N_1  and  C_39
    3  A    between atoms: C_3  and  C_22
    4  A    between atoms: C_6  and  C_35
    5  A    between atoms: C_6  and  C_37
    6  A    between atoms: C_7  and  C_30
    7  A    between atoms: C_8  and  C_26
    8  A    between atoms: C_10  and  C_32
    9  A    between atoms: C_13  and  C_16
   10  A    between atoms: C_13  and  C_22
   11  A    between atoms: C_15  and  C_36
   12  A    between atoms: C_16  and  C_17
   13  A    between atoms: C_17  and  C_37
   14  A    between atoms: C_18  and  C_19
   15  A    between atoms: C_19  and  C_43
   16  A    between atoms: C_20  and  C_26
   17  A    between atoms: C_20  and  C_30
   18  A    between atoms: C_39  and  C_40
   19  A    between atoms: C_40  and  C_43
                            x       y       z     vdW  Elec       q    Type
                         _______ _______ _______ _____ _____    ______ ____

>  <TORSDO>
F 19

$$$$
=
 OpenBabel10232410293D

 43 46  0  0  1  0  0  0  0  0999 V2000
  184.7940  178.0190  138.2520 C   0  0  0  0  0  2  0  0  0  0  0  0
  186.1570  176.3740  136.9680 C   0  0  0  0  0  0  0  0  0  0  0  0
  187.3690  176.1670  137.4840 C   0  0  0  0  0  3  0  0  0  0  0  0
  184.0020  176.7630  136.2640 C   0  0  2  0  0  3  0  0  0  0  0  0
  185.4370  176.4070  135.2870 S   0  0  0  0  0  0  0  0  0  0  0  0
  184.7780  176.6730  137.5360 C   0  0  2  0  0  3  0  0  0  0  0  0
  190.7750  174.8700  136.5880 C   0  0  1  0  0  3  0  0  0  0  0  0
  189.9400  174.2030  135.5010 C   0  0  0  0  0  3  0  0  0  0  0  0
  190.4290  177.2770  137.5420 C   0  0  0  0  0  2  0  0  0  0  0  0
  188.5290  174.7680  135.5890 C   0  0  0  0  0  3  0  0  0  0  0  0
  188.5550  175.8880  136.6140 C   0  0  2  0  0  0  0  0  0  0  0  0
  192.0680  175.4290  136.0020 C   0  0  0  0  0  1  0  0  0  0  0  0
  189.8770  175.8800  137.3210 C   0  0  2  0  0  0  0  0  0  0  0  0
  189.5090  177.0320  136.3650 C   0  0  2  0  0  3  0  0  0  0  0  0
  182.2840  174.7220  136.1160 C   0  0  0  0  0  0  0  0  0  0  0  0
  183.0600  175.6430  136.1810 C   0  0  0  0  0  0  0  0  0  0  0  0
  180.6420  173.5120  137.2450 O   0  0  0  0  0  1  0  0  0  0  0  0
  181.3430  173.6050  136.0430 C   0  0  2  0  0  3  0  0  0  0  0  0
  182.1050  172.3150  135.7850 C   0  0  0  0  0  2  0  0  0  0  0  0
  183.0390  171.9890  136.9400 C   0  0  0  0  0  2  0  0  0  0  0  0
  184.3640  171.4700  136.4160 C   0  0  0  0  0  2  0  0  0  0  0  0
  185.2450  172.6360  136.0230 C   0  0  0  0  0  1  0  0  0  0  0  0
  183.1540  177.2830  139.8260 O   0  0  0  0  0  1  0  0  0  0  0  0
  184.4220  177.8610  139.7160 C   0  0  2  0  0  3  0  0  0  0  0  0
  184.4200  179.2280  140.3790 C   0  0  0  0  0  2  0  0  0  0  0  0
  185.6120  179.3840  141.3150 C   0  0  1  0  0  3  0  0  0  0  0  0
  185.1900  179.7750  142.5870 O   0  0  0  0  0  1  0  0  0  0  0  0
  186.4350  178.0990  141.3880 C   0  0  0  0  0  2  0  0  0  0  0  0
  187.8560  178.2910  140.9490 C   0  0  0  0  0  0  0  0  0  0  0  0
  188.0830  178.7880  139.8130 O   0  0  0  0  0  0  0  0  0  0  0  0
  188.9710  177.8810  141.8220 C   0  0  0  0  0  0  0  0  0  0  0  0
  190.0880  176.8080  141.2710 S   0  0  0  0  0  0  0  0  0  0  0  0
  189.1670  178.5680  143.0670 N   0  0  0  0  0  2  0  0  0  0  0  0
  191.1050  178.0400  144.8370 S   0  0  0  0  0  0  0  0  0  0  0  0
  189.5420  177.9890  144.3230 C   0  0  0  0  0  0  0  0  0  0  0  0
  187.7430  176.4290  144.0100 O   0  0  0  0  0  1  0  0  0  0  0  0
  188.5810  177.0250  144.9570 C   0  0  2  0  0  3  0  0  0  0  0  0
  188.2240  177.1630  147.3170 O   0  0  0  0  0  1  0  0  0  0  0  0
  187.7840  177.6660  146.0930 C   0  0  2  0  0  3  0  0  0  0  0  0
  186.2830  177.4350  145.9460 C   0  0  0  0  0  2  0  0  0  0  0  0
  186.1040  179.5460  147.0340 O   0  0  0  0  0  1  0  0  0  0  0  0
  185.5280  178.6470  146.3690 C   0  0  0  0  0  0  0  0  0  0  0  0
  184.1980  178.7990  146.0040 O   0  0  0  0  0  0  0  0  0  0  0  0
  1 24  1  0  0  0  0
  2  3  2  0  0  0  0
  2  6  1  0  0  0  0
  4 16  1  1  0  0  0
  4  6  1  0  0  0  0
  5  4  1  0  0  0  0
  5  2  1  0  0  0  0
  6  1  1  6  0  0  0
  7 12  1  6  0  0  0
  7 13  1  0  0  0  0
  8 10  2  0  0  0  0
  8  7  1  0  0  0  0
 10 11  1  0  0  0  0
 11 13  1  0  0  0  0
 11  3  1  1  0  0  0
 13  9  1  1  0  0  0
 14 11  1  0  0  0  0
 14 13  1  0  0  0  0
 14  9  1  1  0  0  0
 15 16  3  0  0  0  0
 18 15  1  0  0  0  0
 18 17  1  1  0  0  0
 19 18  1  0  0  0  0
 19 20  1  0  0  0  0
 21 20  1  0  0  0  0
 22 21  1  0  0  0  0
 24 23  1  6  0  0  0
 24 25  1  0  0  0  0
 25 26  1  0  0  0  0
 26 28  1  0  0  0  0
 26 27  1  1  0  0  0
 29 28  1  0  0  0  0
 29 31  1  0  0  0  0
 30 29  2  0  0  0  0
 31 33  1  0  0  0  0
 32 31  2  0  0  0  0
 33 35  1  0  0  0  0
 35 34  2  0  0  0  0
 35 37  1  0  0  0  0
 37 36  1  6  0  0  0
 37 39  1  0  0  0  0
 39 38  1  1  0  0  0
 40 39  1  0  0  0  0
 40 42  1  0  0  0  0
 42 41  1  0  0  0  0
 43 42  2  0  0  0  0
M  END
>  <MODEL>
9

>  <REMARK>
 VINA RESULT:      -5.9      2.148      3.601
  Name = 
  19 active torsions:
  status: ('A' for Active; 'I' for Inactive)
    1  A    between atoms: N_1  and  C_3
    2  A    between atoms: N_1  and  C_39
    3  A    between atoms: C_3  and  C_22
    4  A    between atoms: C_6  and  C_35
    5  A    between atoms: C_6  and  C_37
    6  A    between atoms: C_7  and  C_30
    7  A    between atoms: C_8  and  C_26
    8  A    between atoms: C_10  and  C_32
    9  A    between atoms: C_13  and  C_16
   10  A    between atoms: C_13  and  C_22
   11  A    between atoms: C_15  and  C_36
   12  A    between atoms: C_16  and  C_17
   13  A    between atoms: C_17  and  C_37
   14  A    between atoms: C_18  and  C_19
   15  A    between atoms: C_19  and  C_43
   16  A    between atoms: C_20  and  C_26
   17  A    between atoms: C_20  and  C_30
   18  A    between atoms: C_39  and  C_40
   19  A    between atoms: C_40  and  C_43
                            x       y       z     vdW  Elec       q    Type
                         _______ _______ _______ _____ _____    ______ ____

>  <TORSDO>
F 19

$$$$
