=
 OpenBabel10222421573D

 40 46  0  0  1  0  0  0  0  0999 V2000
  192.3420  175.9890  137.9660 C   0  0  0  0  0  3  0  0  0  0  0  0
  190.1770  174.8690  136.7800 S   0  0  0  0  0  0  0  0  0  0  0  0
  189.7520  177.5380  136.4550 N   0  0  0  0  0  2  0  0  0  0  0  0
  190.2030  176.5480  137.4390 C   0  0  2  0  0  0  0  0  0  0  0  0
  191.9060  174.6710  137.3770 C   0  0  1  0  0  3  0  0  0  0  0  0
  191.4670  176.9190  137.9970 N   0  0  0  0  0  0  0  0  0  0  0  0
  188.9840  177.3170  137.7010 C   0  0  1  0  0  3  0  0  0  0  0  0
  192.8670  174.1360  136.2860 C   0  0  0  0  0  0  0  0  0  0  0  0
  193.4340  175.3040  135.4960 C   0  0  0  0  0  1  0  0  0  0  0  0
  192.1190  173.2300  135.3110 C   0  0  0  0  0  1  0  0  0  0  0  0
  195.2870  170.4070  137.7970 C   0  0  2  0  0  3  0  0  0  0  0  0
  194.2080  168.2110  138.1860 C   0  0  0  0  0  1  0  0  0  0  0  0
  197.8830  170.1680  136.8480 C   0  0  0  0  0  2  0  0  0  0  0  0
  194.6460  173.7080  138.1780 C   0  0  0  0  0  3  0  0  0  0  0  0
  194.5240  172.3060  136.3930 N   0  0  0  0  0  0  0  0  0  0  0  0
  197.2300  171.8670  136.4280 S   0  0  0  0  0  0  0  0  0  0  0  0
  195.4720  169.5680  136.5340 C   0  0  2  0  0  3  0  0  0  0  0  0
  195.5640  172.7820  138.4090 C   0  0  0  0  0  3  0  0  0  0  0  0
  194.1950  169.4700  137.3440 C   0  0  2  0  0  3  0  0  0  0  0  0
  195.5760  171.8100  137.2740 C   0  0  2  0  0  0  0  0  0  0  0  0
  196.8480  169.0110  136.8380 C   0  0  0  0  0  2  0  0  0  0  0  0
  194.0310  173.3880  136.8980 C   0  0  0  0  0  0  0  0  0  0  0  0
  189.2210  178.4520  138.6860 C   0  0  0  0  0  2  0  0  0  0  0  0
  191.1060  177.6980  141.1730 C   0  0  0  0  0  1  0  0  0  0  0  0
  188.3700  176.8960  143.0470 N   0  0  0  0  0  0  0  0  0  0  0  0
  188.2830  178.3490  139.7930 N   0  0  0  0  0  2  0  0  0  0  0  0
  189.6100  176.3660  142.5970 C   0  0  0  0  0  0  0  0  0  0  0  0
  188.6240  177.6790  141.0090 C   0  0  0  0  0  0  0  0  0  0  0  0
  187.8350  177.6910  142.0340 N   0  0  0  0  0  0  0  0  0  0  0  0
  190.2200  175.3270  143.1580 C   0  0  0  0  0  2  0  0  0  0  0  0
  189.8570  176.8310  141.2030 C   0  0  1  0  0  3  0  0  0  0  0  0
  186.1030  177.8070  145.8780 N   0  0  0  0  0  2  0  0  0  0  0  0
  187.1320  178.2550  146.8130 C   0  0  0  0  0  2  0  0  0  0  0  0
  186.6530  177.8370  144.5270 C   0  0  0  0  0  2  0  0  0  0  0  0
  187.8170  176.8510  144.3970 C   0  0  2  0  0  3  0  0  0  0  0  0
  188.2870  177.2580  146.8240 C   0  0  1  0  0  3  0  0  0  0  0  0
  188.9000  177.1550  145.4320 C   0  0  0  0  0  2  0  0  0  0  0  0
  189.3170  177.6510  147.8280 C   0  0  0  0  0  0  0  0  0  0  0  0
  188.9820  178.3460  148.8220 O   0  0  0  0  0  1  0  0  0  0  0  0
  190.6380  177.2350  147.6920 O   0  0  0  0  0  0  0  0  0  0  0  0
  1  6  2  0  0  0  0
  2  5  1  0  0  0  0
  2  4  1  0  0  0  0
  3  7  1  0  0  0  0
  4  3  1  6  0  0  0
  4  7  1  0  0  0  0
  4  6  1  0  0  0  0
  5  8  1  6  0  0  0
  5  1  1  0  0  0  0
  7 23  1  1  0  0  0
  8 22  1  0  0  0  0
  9  8  1  0  0  0  0
 10  8  1  0  0  0  0
 14 18  2  0  0  0  0
 15 22  2  0  0  0  0
 15 20  1  0  0  0  0
 16 13  1  0  0  0  0
 16 20  1  0  0  0  0
 17 21  1  0  0  0  0
 17 19  1  0  0  0  0
 17 11  1  0  0  0  0
 19 11  1  0  0  0  0
 19 12  1  0  0  0  0
 20 11  1  0  0  0  0
 20 18  1  0  0  0  0
 21 13  1  0  0  0  0
 22 14  1  0  0  0  0
 23 26  1  0  0  0  0
 24 31  1  0  0  0  0
 25 35  1  0  0  0  0
 26 28  1  0  0  0  0
 27 25  1  0  0  0  0
 27 30  2  0  0  0  0
 28 31  1  0  0  0  0
 28 29  2  0  0  0  0
 29 25  1  0  0  0  0
 31 27  1  0  0  0  0
 32 33  1  0  0  0  0
 33 36  1  0  0  0  0
 34 32  1  0  0  0  0
 35 34  1  0  0  0  0
 35 37  1  0  0  0  0
 36 38  1  0  0  0  0
 37 36  1  0  0  0  0
 38 39  1  0  0  0  0
 40 38  2  0  0  0  0
M  END
>  <MODEL>
1

>  <REMARK>
 VINA RESULT:      -8.8      0.000      0.000
  Name = 
  6 active torsions:
  status: ('A' for Active; 'I' for Inactive)
    1  A    between atoms: N_10  and  C_16
    2  A    between atoms: N_13  and  C_24
    3  A    between atoms: C_17  and  C_31
    4  A    between atoms: C_17  and  C_34
    5  A    between atoms: C_19  and  C_28
    6  A    between atoms: C_24  and  C_39
                            x       y       z     vdW  Elec       q    Type
                         _______ _______ _______ _____ _____    ______ ____

>  <TORSDO>
F 6

$$$$
=
 OpenBabel10222421573D

 40 46  0  0  1  0  0  0  0  0999 V2000
  192.5290  176.0820  137.9800 C   0  0  0  0  0  3  0  0  0  0  0  0
  190.4370  174.7740  136.8580 S   0  0  0  0  0  0  0  0  0  0  0  0
  189.8090  177.3940  136.4720 N   0  0  0  0  0  2  0  0  0  0  0  0
  190.3460  176.4670  137.4740 C   0  0  2  0  0  0  0  0  0  0  0  0
  192.1830  174.7210  137.4330 C   0  0  1  0  0  3  0  0  0  0  0  0
  191.5870  176.9460  138.0010 N   0  0  0  0  0  0  0  0  0  0  0  0
  189.0770  177.1510  137.7350 C   0  0  1  0  0  3  0  0  0  0  0  0
  193.1660  174.2290  136.3400 C   0  0  0  0  0  0  0  0  0  0  0  0
  193.4770  175.3720  135.3890 C   0  0  0  0  0  1  0  0  0  0  0  0
  192.5400  173.1000  135.5270 C   0  0  0  0  0  1  0  0  0  0  0  0
  197.7170  173.0760  136.4190 C   0  0  2  0  0  3  0  0  0  0  0  0
  198.9900  172.6120  134.3460 C   0  0  0  0  0  1  0  0  0  0  0  0
  199.2580  174.3170  138.3640 C   0  0  0  0  0  2  0  0  0  0  0  0
  194.6440  172.5590  137.7390 C   0  0  0  0  0  3  0  0  0  0  0  0
  195.6060  174.3460  136.7160 N   0  0  0  0  0  0  0  0  0  0  0  0
  197.4510  174.6270  138.7230 S   0  0  0  0  0  0  0  0  0  0  0  0
  198.4180  174.3690  136.0050 C   0  0  2  0  0  3  0  0  0  0  0  0
  195.9350  172.4520  138.0090 C   0  0  0  0  0  3  0  0  0  0  0  0
  197.8670  173.4220  134.9590 C   0  0  2  0  0  3  0  0  0  0  0  0
  196.6630  173.6000  137.3890 C   0  0  2  0  0  0  0  0  0  0  0  0
  199.6580  174.2330  136.8660 C   0  0  0  0  0  2  0  0  0  0  0  0
  194.4740  173.7670  136.9460 C   0  0  0  0  0  0  0  0  0  0  0  0
  189.2440  178.3260  138.6860 C   0  0  0  0  0  2  0  0  0  0  0  0
  191.1300  177.6890  141.2050 C   0  0  0  0  0  1  0  0  0  0  0  0
  188.4070  176.8210  143.0680 N   0  0  0  0  0  0  0  0  0  0  0  0
  188.2990  178.2090  139.7860 N   0  0  0  0  0  2  0  0  0  0  0  0
  189.6710  176.3300  142.6390 C   0  0  0  0  0  0  0  0  0  0  0  0
  188.6520  177.5750  141.0170 C   0  0  0  0  0  0  0  0  0  0  0  0
  187.8530  177.5760  142.0350 N   0  0  0  0  0  0  0  0  0  0  0  0
  190.3140  175.3240  143.2250 C   0  0  0  0  0  2  0  0  0  0  0  0
  189.9140  176.7770  141.2380 C   0  0  1  0  0  3  0  0  0  0  0  0
  186.0930  177.7150  145.8660 N   0  0  0  0  0  2  0  0  0  0  0  0
  187.1030  178.1980  146.8040 C   0  0  0  0  0  2  0  0  0  0  0  0
  186.6550  177.7400  144.5200 C   0  0  0  0  0  2  0  0  0  0  0  0
  187.8430  176.7800  144.4130 C   0  0  2  0  0  3  0  0  0  0  0  0
  188.2810  177.2280  146.8380 C   0  0  1  0  0  3  0  0  0  0  0  0
  188.9090  177.1220  145.4540 C   0  0  0  0  0  2  0  0  0  0  0  0
  189.2920  177.6580  147.8470 C   0  0  0  0  0  0  0  0  0  0  0  0
  190.5010  177.3540  147.6840 O   0  0  0  0  0  0  0  0  0  0  0  0
  188.9150  178.4150  148.9520 O   0  0  0  0  0  1  0  0  0  0  0  0
  1  6  2  0  0  0  0
  2  5  1  0  0  0  0
  2  4  1  0  0  0  0
  3  7  1  0  0  0  0
  4  3  1  6  0  0  0
  4  7  1  0  0  0  0
  4  6  1  0  0  0  0
  5  8  1  6  0  0  0
  5  1  1  0  0  0  0
  7 23  1  1  0  0  0
  8 22  1  0  0  0  0
  9  8  1  0  0  0  0
 10  8  1  0  0  0  0
 11 20  1  0  0  0  0
 12 19  1  0  0  0  0
 13 16  1  0  0  0  0
 14 18  2  0  0  0  0
 15 22  2  0  0  0  0
 15 20  1  0  0  0  0
 17 11  1  0  0  0  0
 17 21  1  0  0  0  0
 19 17  1  0  0  0  0
 19 11  1  0  0  0  0
 20 18  1  0  0  0  0
 20 16  1  0  0  0  0
 21 13  1  0  0  0  0
 22 14  1  0  0  0  0
 23 26  1  0  0  0  0
 24 31  1  0  0  0  0
 25 35  1  0  0  0  0
 26 28  1  0  0  0  0
 27 25  1  0  0  0  0
 27 30  2  0  0  0  0
 28 31  1  0  0  0  0
 28 29  2  0  0  0  0
 29 25  1  0  0  0  0
 31 27  1  0  0  0  0
 32 33  1  0  0  0  0
 33 36  1  0  0  0  0
 34 32  1  0  0  0  0
 35 34  1  0  0  0  0
 35 37  1  0  0  0  0
 36 38  1  0  0  0  0
 37 36  1  0  0  0  0
 38 40  1  0  0  0  0
 39 38  2  0  0  0  0
M  END
>  <MODEL>
2

>  <REMARK>
 VINA RESULT:      -8.7      1.656      2.406
  Name = 
  6 active torsions:
  status: ('A' for Active; 'I' for Inactive)
    1  A    between atoms: N_10  and  C_16
    2  A    between atoms: N_13  and  C_24
    3  A    between atoms: C_17  and  C_31
    4  A    between atoms: C_17  and  C_34
    5  A    between atoms: C_19  and  C_28
    6  A    between atoms: C_24  and  C_39
                            x       y       z     vdW  Elec       q    Type
                         _______ _______ _______ _____ _____    ______ ____

>  <TORSDO>
F 6

$$$$
=
 OpenBabel10222421573D

 40 46  0  0  1  0  0  0  0  0999 V2000
  184.0390  178.2370  139.1120 C   0  0  0  0  0  3  0  0  0  0  0  0
  181.9930  176.6280  139.8700 S   0  0  0  0  0  0  0  0  0  0  0  0
  181.2840  179.0530  140.8820 N   0  0  0  0  0  2  0  0  0  0  0  0
  182.4340  178.1570  140.7190 C   0  0  2  0  0  0  0  0  0  0  0  0
  183.4160  176.9150  138.7400 C   0  0  1  0  0  3  0  0  0  0  0  0
  183.5360  178.8430  140.1170 N   0  0  0  0  0  0  0  0  0  0  0  0
  181.9610  178.4810  142.0680 C   0  0  1  0  0  3  0  0  0  0  0  0
  183.0300  176.8160  137.2420 C   0  0  0  0  0  0  0  0  0  0  0  0
  182.2470  178.0550  136.8400 C   0  0  0  0  0  1  0  0  0  0  0  0
  182.1410  175.6000  136.9980 C   0  0  0  0  0  1  0  0  0  0  0  0
  187.5290  177.4370  136.0520 C   0  0  2  0  0  3  0  0  0  0  0  0
  189.0100  178.9970  137.2820 C   0  0  0  0  0  1  0  0  0  0  0  0
  188.8720  175.1900  135.1340 C   0  0  0  0  0  2  0  0  0  0  0  0
  184.3260  177.2110  134.9850 C   0  0  0  0  0  3  0  0  0  0  0  0
  185.4170  176.3640  136.7900 N   0  0  0  0  0  0  0  0  0  0  0  0
  187.0420  174.8230  135.2090 S   0  0  0  0  0  0  0  0  0  0  0  0
  188.2900  176.6270  137.1000 C   0  0  2  0  0  3  0  0  0  0  0  0
  185.5790  177.0620  134.5870 C   0  0  0  0  0  3  0  0  0  0  0  0
  187.8390  178.0430  137.3980 C   0  0  2  0  0  3  0  0  0  0  0  0
  186.3860  176.4890  135.7070 C   0  0  2  0  0  0  0  0  0  0  0  0
  189.4280  176.1450  136.2250 C   0  0  0  0  0  2  0  0  0  0  0  0
  184.2590  176.7440  136.3620 C   0  0  0  0  0  0  0  0  0  0  0  0
  182.8320  179.5290  142.7450 C   0  0  0  0  0  2  0  0  0  0  0  0
  186.0230  179.4550  142.3940 C   0  0  0  0  0  1  0  0  0  0  0  0
  186.3270  177.5910  145.2350 N   0  0  0  0  0  0  0  0  0  0  0  0
  183.2950  179.0300  144.0300 N   0  0  0  0  0  2  0  0  0  0  0  0
  186.6830  177.5960  143.8580 C   0  0  0  0  0  0  0  0  0  0  0  0
  184.6090  178.4930  144.2000 C   0  0  0  0  0  0  0  0  0  0  0  0
  185.0600  178.1600  145.3660 N   0  0  0  0  0  0  0  0  0  0  0  0
  187.6510  176.8490  143.3400 C   0  0  0  0  0  2  0  0  0  0  0  0
  185.5580  178.1750  143.0710 C   0  0  1  0  0  3  0  0  0  0  0  0
  187.9010  178.0690  148.5940 N   0  0  0  0  0  2  0  0  0  0  0  0
  189.2920  178.1060  148.1510 C   0  0  0  0  0  2  0  0  0  0  0  0
  187.0390  178.3630  147.4540 C   0  0  0  0  0  2  0  0  0  0  0  0
  187.1820  177.2840  146.3770 C   0  0  2  0  0  3  0  0  0  0  0  0
  189.5450  176.9810  147.1510 C   0  0  1  0  0  3  0  0  0  0  0  0
  188.6400  177.1490  145.9370 C   0  0  0  0  0  2  0  0  0  0  0  0
  190.9790  176.9480  146.7420 C   0  0  0  0  0  0  0  0  0  0  0  0
  191.2810  177.0520  145.5260 O   0  0  0  0  0  0  0  0  0  0  0  0
  191.9860  176.8300  147.6950 O   0  0  0  0  0  1  0  0  0  0  0  0
  1  6  2  0  0  0  0
  3  7  1  0  0  0  0
  4  2  1  6  0  0  0
  4  3  1  0  0  0  0
  4  7  1  0  0  0  0
  5  8  1  6  0  0  0
  5  1  1  0  0  0  0
  5  2  1  0  0  0  0
  6  4  1  0  0  0  0
  7 23  1  1  0  0  0
  9  8  1  0  0  0  0
 10  8  1  0  0  0  0
 11 17  1  0  0  0  0
 11 19  1  0  0  0  0
 12 19  1  0  0  0  0
 13 16  1  0  0  0  0
 13 21  1  0  0  0  0
 14 22  1  0  0  0  0
 16 20  1  0  0  0  0
 17 19  1  0  0  0  0
 18 14  2  0  0  0  0
 18 20  1  0  0  0  0
 20 11  1  0  0  0  0
 20 15  1  0  0  0  0
 21 17  1  0  0  0  0
 22 15  2  0  0  0  0
 22  8  1  0  0  0  0
 23 26  1  0  0  0  0
 24 31  1  0  0  0  0
 25 29  1  0  0  0  0
 25 35  1  0  0  0  0
 26 28  1  0  0  0  0
 27 25  1  0  0  0  0
 28 29  2  0  0  0  0
 30 27  2  0  0  0  0
 31 27  1  0  0  0  0
 31 28  1  0  0  0  0
 33 32  1  0  0  0  0
 34 32  1  0  0  0  0
 35 34  1  0  0  0  0
 36 33  1  0  0  0  0
 37 35  1  0  0  0  0
 37 36  1  0  0  0  0
 38 36  1  0  0  0  0
 38 40  1  0  0  0  0
 39 38  2  0  0  0  0
M  END
>  <MODEL>
3

>  <REMARK>
 VINA RESULT:      -8.7      5.380      7.996
  Name = 
  6 active torsions:
  status: ('A' for Active; 'I' for Inactive)
    1  A    between atoms: N_10  and  C_16
    2  A    between atoms: N_13  and  C_24
    3  A    between atoms: C_17  and  C_31
    4  A    between atoms: C_17  and  C_34
    5  A    between atoms: C_19  and  C_28
    6  A    between atoms: C_24  and  C_39
                            x       y       z     vdW  Elec       q    Type
                         _______ _______ _______ _____ _____    ______ ____

>  <TORSDO>
F 6

$$$$
=
 OpenBabel10222421573D

 40 46  0  0  1  0  0  0  0  0999 V2000
  191.1810  175.5950  137.6340 C   0  0  0  0  0  3  0  0  0  0  0  0
  188.8240  175.4520  136.3020 S   0  0  0  0  0  0  0  0  0  0  0  0
  189.3010  178.1280  136.4330 N   0  0  0  0  0  2  0  0  0  0  0  0
  189.3630  176.9000  137.2320 C   0  0  2  0  0  0  0  0  0  0  0  0
  190.3670  174.6060  136.8390 C   0  0  1  0  0  3  0  0  0  0  0  0
  190.6540  176.7420  137.8290 N   0  0  0  0  0  0  0  0  0  0  0  0
  188.4490  177.9720  137.6330 C   0  0  1  0  0  3  0  0  0  0  0  0
  191.1500  173.9700  135.6620 C   0  0  0  0  0  0  0  0  0  0  0  0
  190.4710  174.3310  134.3510 C   0  0  0  0  0  1  0  0  0  0  0  0
  191.1540  172.4480  135.7830 C   0  0  0  0  0  1  0  0  0  0  0  0
  195.5040  174.8140  137.2010 C   0  0  2  0  0  3  0  0  0  0  0  0
  196.1060  174.6470  139.5980 C   0  0  0  0  0  1  0  0  0  0  0  0
  197.5680  174.0230  135.5240 C   0  0  0  0  0  2  0  0  0  0  0  0
  192.9450  175.8470  135.2410 C   0  0  0  0  0  3  0  0  0  0  0  0
  193.5940  173.8000  135.9860 N   0  0  0  0  0  0  0  0  0  0  0  0
  195.9510  173.9300  134.5930 S   0  0  0  0  0  0  0  0  0  0  0  0
  196.0740  173.4170  137.4410 C   0  0  2  0  0  3  0  0  0  0  0  0
  194.2580  175.9380  135.3910 C   0  0  0  0  0  3  0  0  0  0  0  0
  195.2240  174.0950  138.4970 C   0  0  2  0  0  3  0  0  0  0  0  0
  194.7900  174.6250  135.8670 C   0  0  2  0  0  0  0  0  0  0  0  0
  197.5090  173.6910  137.0400 C   0  0  0  0  0  2  0  0  0  0  0  0
  192.5700  174.4880  135.6020 C   0  0  0  0  0  0  0  0  0  0  0  0
  188.9980  178.7930  138.7910 C   0  0  0  0  0  2  0  0  0  0  0  0
  190.9910  177.7780  141.0950 C   0  0  0  0  0  1  0  0  0  0  0  0
  188.3380  176.9830  143.0870 N   0  0  0  0  0  0  0  0  0  0  0  0
  188.1260  178.6600  139.9470 N   0  0  0  0  0  2  0  0  0  0  0  0
  189.5180  176.4260  142.5230 C   0  0  0  0  0  0  0  0  0  0  0  0
  188.5060  177.8910  141.0920 C   0  0  0  0  0  0  0  0  0  0  0  0
  187.7840  177.8710  142.1650 N   0  0  0  0  0  0  0  0  0  0  0  0
  190.1060  175.3230  142.9730 C   0  0  0  0  0  2  0  0  0  0  0  0
  189.7020  176.9730  141.1490 C   0  0  1  0  0  3  0  0  0  0  0  0
  186.1650  177.6560  146.0550 N   0  0  0  0  0  2  0  0  0  0  0  0
  187.2030  178.1790  146.9390 C   0  0  0  0  0  2  0  0  0  0  0  0
  186.6330  177.7520  144.6760 C   0  0  0  0  0  2  0  0  0  0  0  0
  187.8680  176.8720  144.4640 C   0  0  2  0  0  3  0  0  0  0  0  0
  188.4380  177.2850  146.8680 C   0  0  1  0  0  3  0  0  0  0  0  0
  188.9780  177.2550  145.4430 C   0  0  0  0  0  2  0  0  0  0  0  0
  189.4850  177.7530  147.8210 C   0  0  0  0  0  0  0  0  0  0  0  0
  189.2240  178.6880  148.6220 O   0  0  0  0  0  1  0  0  0  0  0  0
  190.7380  177.1480  147.8530 O   0  0  0  0  0  0  0  0  0  0  0  0
  1  6  2  0  0  0  0
  2  5  1  0  0  0  0
  3  4  1  0  0  0  0
  3  7  1  0  0  0  0
  4  2  1  6  0  0  0
  4  7  1  0  0  0  0
  4  6  1  0  0  0  0
  5  8  1  6  0  0  0
  5  1  1  0  0  0  0
  7 23  1  1  0  0  0
  8 10  1  0  0  0  0
  9  8  1  0  0  0  0
 11 17  1  0  0  0  0
 11 19  1  0  0  0  0
 13 21  1  0  0  0  0
 14 18  2  0  0  0  0
 14 22  1  0  0  0  0
 16 13  1  0  0  0  0
 16 20  1  0  0  0  0
 17 19  1  0  0  0  0
 18 20  1  0  0  0  0
 19 12  1  0  0  0  0
 20 15  1  0  0  0  0
 20 11  1  0  0  0  0
 21 17  1  0  0  0  0
 22  8  1  0  0  0  0
 22 15  2  0  0  0  0
 23 26  1  0  0  0  0
 24 31  1  0  0  0  0
 25 35  1  0  0  0  0
 26 28  1  0  0  0  0
 27 30  2  0  0  0  0
 27 25  1  0  0  0  0
 28 31  1  0  0  0  0
 28 29  2  0  0  0  0
 29 25  1  0  0  0  0
 31 27  1  0  0  0  0
 32 33  1  0  0  0  0
 34 32  1  0  0  0  0
 35 34  1  0  0  0  0
 35 37  1  0  0  0  0
 36 33  1  0  0  0  0
 36 38  1  0  0  0  0
 37 36  1  0  0  0  0
 38 40  2  0  0  0  0
 38 39  1  0  0  0  0
M  END
>  <MODEL>
4

>  <REMARK>
 VINA RESULT:      -8.5      1.883      2.436
  Name = 
  6 active torsions:
  status: ('A' for Active; 'I' for Inactive)
    1  A    between atoms: N_10  and  C_16
    2  A    between atoms: N_13  and  C_24
    3  A    between atoms: C_17  and  C_31
    4  A    between atoms: C_17  and  C_34
    5  A    between atoms: C_19  and  C_28
    6  A    between atoms: C_24  and  C_39
                            x       y       z     vdW  Elec       q    Type
                         _______ _______ _______ _____ _____    ______ ____

>  <TORSDO>
F 6

$$$$
=
 OpenBabel10222421573D

 40 46  0  0  1  0  0  0  0  0999 V2000
  187.1400  177.9160  137.5080 C   0  0  0  0  0  3  0  0  0  0  0  0
  184.9580  176.3130  137.3780 S   0  0  0  0  0  0  0  0  0  0  0  0
  183.8880  178.7900  137.7400 N   0  0  0  0  0  2  0  0  0  0  0  0
  184.9750  177.9190  138.2000 C   0  0  2  0  0  0  0  0  0  0  0  0
  186.7440  176.5500  137.0070 C   0  0  1  0  0  3  0  0  0  0  0  0
  186.2380  178.5860  138.1140 N   0  0  0  0  0  0  0  0  0  0  0  0
  183.9390  178.3370  139.1480 C   0  0  1  0  0  3  0  0  0  0  0  0
  187.0880  176.3180  135.5140 C   0  0  0  0  0  0  0  0  0  0  0  0
  186.6440  177.5220  134.7000 C   0  0  0  0  0  1  0  0  0  0  0  0
  186.3510  175.0930  134.9790 C   0  0  0  0  0  1  0  0  0  0  0  0
  191.6100  176.0830  136.7560 C   0  0  2  0  0  3  0  0  0  0  0  0
  192.4150  176.9110  138.9470 C   0  0  0  0  0  1  0  0  0  0  0  0
  193.0030  173.8480  135.8810 C   0  0  0  0  0  2  0  0  0  0  0  0
  189.3760  176.8920  134.3460 C   0  0  0  0  0  3  0  0  0  0  0  0
  189.3200  175.4150  136.0730 N   0  0  0  0  0  0  0  0  0  0  0  0
  191.3580  173.9300  134.9990 S   0  0  0  0  0  0  0  0  0  0  0  0
  191.6540  174.8940  137.7140 C   0  0  2  0  0  3  0  0  0  0  0  0
  190.6380  176.5380  134.5330 C   0  0  0  0  0  3  0  0  0  0  0  0
  191.2570  176.2690  138.2100 C   0  0  2  0  0  3  0  0  0  0  0  0
  190.7090  175.5460  135.6480 C   0  0  2  0  0  0  0  0  0  0  0  0
  193.0250  174.3630  137.3460 C   0  0  0  0  0  2  0  0  0  0  0  0
  188.5790  176.1530  135.3130 C   0  0  0  0  0  0  0  0  0  0  0  0
  184.4130  179.4620  140.0560 C   0  0  0  0  0  2  0  0  0  0  0  0
  183.1910  178.1570  142.7230 C   0  0  0  0  0  1  0  0  0  0  0  0
  186.2800  178.1410  144.1710 N   0  0  0  0  0  0  0  0  0  0  0  0
  185.5960  179.0400  140.7900 N   0  0  0  0  0  2  0  0  0  0  0  0
  184.9470  178.5880  144.3860 C   0  0  0  0  0  0  0  0  0  0  0  0
  185.5490  178.7440  142.1870 C   0  0  0  0  0  0  0  0  0  0  0  0
  186.5710  178.2550  142.8120 N   0  0  0  0  0  0  0  0  0  0  0  0
  184.4610  178.9250  145.5750 C   0  0  0  0  0  2  0  0  0  0  0  0
  184.3740  179.0410  143.0870 C   0  0  1  0  0  3  0  0  0  0  0  0
  187.8460  177.3440  147.4720 N   0  0  0  0  0  2  0  0  0  0  0  0
  189.2320  177.6150  147.0980 C   0  0  0  0  0  2  0  0  0  0  0  0
  186.9650  178.0190  146.5250 C   0  0  0  0  0  2  0  0  0  0  0  0
  187.1550  177.4530  145.1150 C   0  0  2  0  0  3  0  0  0  0  0  0
  189.5330  176.9810  145.7430 C   0  0  1  0  0  3  0  0  0  0  0  0
  188.6150  177.5680  144.6780 C   0  0  0  0  0  2  0  0  0  0  0  0
  190.9650  177.1760  145.3740 C   0  0  0  0  0  0  0  0  0  0  0  0
  191.2560  177.7370  144.2860 O   0  0  0  0  0  0  0  0  0  0  0  0
  191.9820  176.7690  146.2320 O   0  0  0  0  0  1  0  0  0  0  0  0
  1  6  2  0  0  0  0
  3  4  1  0  0  0  0
  3  7  1  0  0  0  0
  4  2  1  6  0  0  0
  4  7  1  0  0  0  0
  5  8  1  6  0  0  0
  5  2  1  0  0  0  0
  5  1  1  0  0  0  0
  6  4  1  0  0  0  0
  7 23  1  1  0  0  0
  9  8  1  0  0  0  0
 10  8  1  0  0  0  0
 11 17  1  0  0  0  0
 11 19  1  0  0  0  0
 13 21  1  0  0  0  0
 14 18  2  0  0  0  0
 14 22  1  0  0  0  0
 16 20  1  0  0  0  0
 16 13  1  0  0  0  0
 17 19  1  0  0  0  0
 18 20  1  0  0  0  0
 19 12  1  0  0  0  0
 20 15  1  0  0  0  0
 20 11  1  0  0  0  0
 21 17  1  0  0  0  0
 22  8  1  0  0  0  0
 22 15  2  0  0  0  0
 23 26  1  0  0  0  0
 24 31  1  0  0  0  0
 25 27  1  0  0  0  0
 25 35  1  0  0  0  0
 26 28  1  0  0  0  0
 27 30  2  0  0  0  0
 28 29  2  0  0  0  0
 28 31  1  0  0  0  0
 29 25  1  0  0  0  0
 31 27  1  0  0  0  0
 33 32  1  0  0  0  0
 34 32  1  0  0  0  0
 35 34  1  0  0  0  0
 36 33  1  0  0  0  0
 37 35  1  0  0  0  0
 37 36  1  0  0  0  0
 38 36  1  0  0  0  0
 38 40  1  0  0  0  0
 39 38  2  0  0  0  0
M  END
>  <MODEL>
5

>  <REMARK>
 VINA RESULT:      -8.4      3.238      5.516
  Name = 
  6 active torsions:
  status: ('A' for Active; 'I' for Inactive)
    1  A    between atoms: N_10  and  C_16
    2  A    between atoms: N_13  and  C_24
    3  A    between atoms: C_17  and  C_31
    4  A    between atoms: C_17  and  C_34
    5  A    between atoms: C_19  and  C_28
    6  A    between atoms: C_24  and  C_39
                            x       y       z     vdW  Elec       q    Type
                         _______ _______ _______ _____ _____    ______ ____

>  <TORSDO>
F 6

$$$$
=
 OpenBabel10222421573D

 40 46  0  0  1  0  0  0  0  0999 V2000
  188.7110  177.9070  138.4580 C   0  0  0  0  0  3  0  0  0  0  0  0
  186.7420  176.3880  137.3800 S   0  0  0  0  0  0  0  0  0  0  0  0
  185.5570  178.8190  137.6780 N   0  0  0  0  0  2  0  0  0  0  0  0
  186.4400  177.8700  138.3630 C   0  0  2  0  0  0  0  0  0  0  0  0
  188.5410  176.6290  137.6760 C   0  0  1  0  0  3  0  0  0  0  0  0
  187.6400  178.5130  138.8020 N   0  0  0  0  0  0  0  0  0  0  0  0
  185.1340  178.1840  138.9460 C   0  0  1  0  0  3  0  0  0  0  0  0
  189.3810  176.5880  136.3740 C   0  0  0  0  0  0  0  0  0  0  0  0
  189.3740  177.9620  135.7250 C   0  0  0  0  0  1  0  0  0  0  0  0
  188.7780  175.5980  135.3800 C   0  0  0  0  0  1  0  0  0  0  0  0
  193.2440  173.9190  136.3470 C   0  0  2  0  0  3  0  0  0  0  0  0
  193.1620  171.4950  135.8470 C   0  0  0  0  0  1  0  0  0  0  0  0
  195.5570  175.1270  135.4040 C   0  0  0  0  0  2  0  0  0  0  0  0
  191.4520  176.2890  137.9690 C   0  0  0  0  0  3  0  0  0  0  0  0
  191.6080  175.6970  135.7800 N   0  0  0  0  0  0  0  0  0  0  0  0
  194.2470  176.4320  135.6670 S   0  0  0  0  0  0  0  0  0  0  0  0
  193.5430  173.7410  134.8600 C   0  0  2  0  0  3  0  0  0  0  0  0
  192.6780  175.8080  137.8320 C   0  0  0  0  0  3  0  0  0  0  0  0
  192.5400  172.8450  135.5570 C   0  0  2  0  0  3  0  0  0  0  0  0
  192.8900  175.4020  136.4100 C   0  0  2  0  0  0  0  0  0  0  0  0
  195.0560  173.7330  134.9370 C   0  0  0  0  0  2  0  0  0  0  0  0
  190.8210  176.2230  136.6600 C   0  0  0  0  0  0  0  0  0  0  0  0
  185.2420  179.1680  140.1010 C   0  0  0  0  0  2  0  0  0  0  0  0
  183.7050  178.0360  142.6820 C   0  0  0  0  0  1  0  0  0  0  0  0
  186.6110  178.0620  144.4680 N   0  0  0  0  0  0  0  0  0  0  0  0
  186.3270  178.7730  140.9860 N   0  0  0  0  0  2  0  0  0  0  0  0
  185.2720  178.5390  144.5060 C   0  0  0  0  0  0  0  0  0  0  0  0
  186.1180  178.5590  142.3840 C   0  0  0  0  0  0  0  0  0  0  0  0
  187.0540  178.0940  143.1460 N   0  0  0  0  0  0  0  0  0  0  0  0
  184.6620  178.9500  145.6120 C   0  0  0  0  0  2  0  0  0  0  0  0
  184.8570  178.9230  143.1270 C   0  0  1  0  0  3  0  0  0  0  0  0
  187.8280  177.4750  147.9550 N   0  0  0  0  0  2  0  0  0  0  0  0
  189.2540  177.6560  147.6950 C   0  0  0  0  0  2  0  0  0  0  0  0
  187.0720  178.1060  146.8780 C   0  0  0  0  0  2  0  0  0  0  0  0
  187.3610  177.4180  145.5420 C   0  0  2  0  0  3  0  0  0  0  0  0
  189.6460  176.9010  146.4270 C   0  0  1  0  0  3  0  0  0  0  0  0
  188.8590  177.4350  145.2370 C   0  0  0  0  0  2  0  0  0  0  0  0
  191.1130  177.0040  146.1820 C   0  0  0  0  0  0  0  0  0  0  0  0
  191.9190  176.7320  147.1090 O   0  0  0  0  0  1  0  0  0  0  0  0
  191.6000  177.3730  144.9320 O   0  0  0  0  0  0  0  0  0  0  0  0
  1  6  2  0  0  0  0
  2  5  1  0  0  0  0
  3  4  1  0  0  0  0
  3  7  1  0  0  0  0
  4  2  1  6  0  0  0
  4  6  1  0  0  0  0
  4  7  1  0  0  0  0
  5  8  1  6  0  0  0
  5  1  1  0  0  0  0
  7 23  1  1  0  0  0
  8 22  1  0  0  0  0
  9  8  1  0  0  0  0
 10  8  1  0  0  0  0
 11 20  1  0  0  0  0
 13 16  1  0  0  0  0
 15 20  1  0  0  0  0
 15 22  2  0  0  0  0
 16 20  1  0  0  0  0
 17 21  1  0  0  0  0
 17 19  1  0  0  0  0
 17 11  1  0  0  0  0
 18 14  2  0  0  0  0
 19 12  1  0  0  0  0
 19 11  1  0  0  0  0
 20 18  1  0  0  0  0
 21 13  1  0  0  0  0
 22 14  1  0  0  0  0
 23 26  1  0  0  0  0
 24 31  1  0  0  0  0
 25 27  1  0  0  0  0
 25 35  1  0  0  0  0
 26 28  1  0  0  0  0
 27 30  2  0  0  0  0
 28 31  1  0  0  0  0
 28 29  2  0  0  0  0
 29 25  1  0  0  0  0
 31 27  1  0  0  0  0
 33 32  1  0  0  0  0
 34 32  1  0  0  0  0
 35 34  1  0  0  0  0
 36 33  1  0  0  0  0
 37 35  1  0  0  0  0
 37 36  1  0  0  0  0
 38 36  1  0  0  0  0
 38 39  1  0  0  0  0
 40 38  2  0  0  0  0
M  END
>  <MODEL>
6

>  <REMARK>
 VINA RESULT:      -8.1      2.640      4.188
  Name = 
  6 active torsions:
  status: ('A' for Active; 'I' for Inactive)
    1  A    between atoms: N_10  and  C_16
    2  A    between atoms: N_13  and  C_24
    3  A    between atoms: C_17  and  C_31
    4  A    between atoms: C_17  and  C_34
    5  A    between atoms: C_19  and  C_28
    6  A    between atoms: C_24  and  C_39
                            x       y       z     vdW  Elec       q    Type
                         _______ _______ _______ _____ _____    ______ ____

>  <TORSDO>
F 6

$$$$
=
 OpenBabel10222421573D

 40 46  0  0  1  0  0  0  0  0999 V2000
  192.4080  175.8020  137.0920 C   0  0  0  0  0  3  0  0  0  0  0  0
  190.3720  174.0140  137.1750 S   0  0  0  0  0  0  0  0  0  0  0  0
  189.2010  176.2390  136.1330 N   0  0  0  0  0  2  0  0  0  0  0  0
  190.1360  175.8020  137.1750 C   0  0  2  0  0  0  0  0  0  0  0  0
  192.1870  174.3130  137.1720 C   0  0  1  0  0  3  0  0  0  0  0  0
  191.3620  176.5360  137.1040 N   0  0  0  0  0  0  0  0  0  0  0  0
  188.8740  176.4370  137.5630 C   0  0  1  0  0  3  0  0  0  0  0  0
  192.9300  173.5190  136.0670 C   0  0  0  0  0  0  0  0  0  0  0  0
  193.4240  174.4820  135.0010 C   0  0  0  0  0  1  0  0  0  0  0  0
  191.9870  172.5230  135.3980 C   0  0  0  0  0  1  0  0  0  0  0  0
  195.3590  169.9190  137.8530 C   0  0  2  0  0  3  0  0  0  0  0  0
  194.2420  167.9140  138.7830 C   0  0  0  0  0  1  0  0  0  0  0  0
  197.7570  169.3190  136.5930 C   0  0  0  0  0  2  0  0  0  0  0  0
  194.9600  173.2780  137.7250 C   0  0  0  0  0  3  0  0  0  0  0  0
  194.4850  171.6080  136.2580 N   0  0  0  0  0  0  0  0  0  0  0  0
  197.1350  170.9680  135.9750 S   0  0  0  0  0  0  0  0  0  0  0  0
  195.2980  168.8670  136.7470 C   0  0  2  0  0  3  0  0  0  0  0  0
  195.8530  172.3340  137.9810 C   0  0  0  0  0  3  0  0  0  0  0  0
  194.1620  169.0090  137.7390 C   0  0  2  0  0  3  0  0  0  0  0  0
  195.6350  171.1860  137.0500 C   0  0  2  0  0  0  0  0  0  0  0  0
  196.6740  168.2620  136.9420 C   0  0  0  0  0  2  0  0  0  0  0  0
  194.1350  172.7960  136.6270 C   0  0  0  0  0  0  0  0  0  0  0  0
  189.0620  177.8940  137.9590 C   0  0  0  0  0  2  0  0  0  0  0  0
  191.2180  177.6050  140.3200 C   0  0  0  0  0  1  0  0  0  0  0  0
  188.7220  177.6210  142.6470 N   0  0  0  0  0  0  0  0  0  0  0  0
  188.2850  178.1850  139.1540 N   0  0  0  0  0  2  0  0  0  0  0  0
  189.8430  176.8590  142.2150 C   0  0  0  0  0  0  0  0  0  0  0  0
  188.7430  177.8170  140.4570 C   0  0  0  0  0  0  0  0  0  0  0  0
  188.1110  178.1800  141.5260 N   0  0  0  0  0  0  0  0  0  0  0  0
  190.4470  175.9390  142.9610 C   0  0  0  0  0  2  0  0  0  0  0  0
  189.9240  176.9180  140.7290 C   0  0  1  0  0  3  0  0  0  0  0  0
  188.4840  177.2700  146.3630 N   0  0  0  0  0  2  0  0  0  0  0  0
  187.0270  177.2980  146.4660 C   0  0  0  0  0  2  0  0  0  0  0  0
  188.8500  176.9170  144.9950 C   0  0  0  0  0  2  0  0  0  0  0  0
  188.3640  177.9870  144.0140 C   0  0  2  0  0  3  0  0  0  0  0  0
  186.4700  178.4200  145.5940 C   0  0  1  0  0  3  0  0  0  0  0  0
  186.8540  178.1890  144.1380 C   0  0  0  0  0  2  0  0  0  0  0  0
  184.9890  178.5200  145.7420 C   0  0  0  0  0  0  0  0  0  0  0  0
  184.4710  178.4180  146.8840 O   0  0  0  0  0  1  0  0  0  0  0  0
  184.1780  178.7510  144.6360 O   0  0  0  0  0  0  0  0  0  0  0  0
  1  6  2  0  0  0  0
  1  5  1  0  0  0  0
  2  4  1  0  0  0  0
  3  7  1  0  0  0  0
  4  3  1  6  0  0  0
  4  7  1  0  0  0  0
  5  8  1  6  0  0  0
  5  2  1  0  0  0  0
  6  4  1  0  0  0  0
  7 23  1  6  0  0  0
  8 22  1  0  0  0  0
  9  8  1  0  0  0  0
 10  8  1  0  0  0  0
 13 21  1  0  0  0  0
 14 18  2  0  0  0  0
 15 22  2  0  0  0  0
 15 20  1  0  0  0  0
 16 13  1  0  0  0  0
 16 20  1  0  0  0  0
 17 21  1  0  0  0  0
 17 19  1  0  0  0  0
 17 11  1  0  0  0  0
 19 11  1  0  0  0  0
 19 12  1  0  0  0  0
 20 11  1  0  0  0  0
 20 18  1  0  0  0  0
 22 14  1  0  0  0  0
 23 26  1  0  0  0  0
 24 31  1  0  0  0  0
 25 35  1  0  0  0  0
 26 28  1  0  0  0  0
 27 25  1  0  0  0  0
 27 30  2  0  0  0  0
 28 31  1  0  0  0  0
 28 29  2  0  0  0  0
 29 25  1  0  0  0  0
 31 27  1  0  0  0  0
 32 33  1  0  0  0  0
 34 32  1  0  0  0  0
 35 37  1  0  0  0  0
 35 34  1  0  0  0  0
 36 38  1  0  0  0  0
 36 33  1  0  0  0  0
 37 36  1  0  0  0  0
 38 39  1  0  0  0  0
 40 38  2  0  0  0  0
M  END
>  <MODEL>
7

>  <REMARK>
 VINA RESULT:      -7.9      1.594      1.930
  Name = 
  6 active torsions:
  status: ('A' for Active; 'I' for Inactive)
    1  A    between atoms: N_10  and  C_16
    2  A    between atoms: N_13  and  C_24
    3  A    between atoms: C_17  and  C_31
    4  A    between atoms: C_17  and  C_34
    5  A    between atoms: C_19  and  C_28
    6  A    between atoms: C_24  and  C_39
                            x       y       z     vdW  Elec       q    Type
                         _______ _______ _______ _____ _____    ______ ____

>  <TORSDO>
F 6

$$$$
=
 OpenBabel10222421573D

 40 46  0  0  1  0  0  0  0  0999 V2000
  192.8490  175.5420  137.0240 C   0  0  0  0  0  3  0  0  0  0  0  0
  190.6720  173.9290  136.9780 S   0  0  0  0  0  0  0  0  0  0  0  0
  189.6550  176.3630  136.3050 N   0  0  0  0  0  2  0  0  0  0  0  0
  190.5920  175.7130  137.2290 C   0  0  2  0  0  0  0  0  0  0  0  0
  192.5040  174.0790  136.9180 C   0  0  1  0  0  3  0  0  0  0  0  0
  191.8730  176.3490  137.1900 N   0  0  0  0  0  0  0  0  0  0  0  0
  189.4070  176.3880  137.7640 C   0  0  1  0  0  3  0  0  0  0  0  0
  193.1290  173.3870  135.6790 C   0  0  0  0  0  0  0  0  0  0  0  0
  192.3390  173.7680  134.4370 C   0  0  0  0  0  1  0  0  0  0  0  0
  193.0680  171.8690  135.8260 C   0  0  0  0  0  1  0  0  0  0  0  0
  197.5200  174.5250  136.8890 C   0  0  2  0  0  3  0  0  0  0  0  0
  198.1450  175.0390  139.2310 C   0  0  0  0  0  1  0  0  0  0  0  0
  199.5440  173.2320  135.5020 C   0  0  0  0  0  2  0  0  0  0  0  0
  194.9630  175.0180  134.7270 C   0  0  0  0  0  3  0  0  0  0  0  0
  195.5720  173.2540  136.0260 N   0  0  0  0  0  0  0  0  0  0  0  0
  197.9150  172.9180  134.6440 S   0  0  0  0  0  0  0  0  0  0  0  0
  198.0590  173.2420  137.5180 C   0  0  2  0  0  3  0  0  0  0  0  0
  196.2780  175.1140  134.8390 C   0  0  0  0  0  3  0  0  0  0  0  0
  197.2380  174.2170  138.3380 C   0  0  2  0  0  3  0  0  0  0  0  0
  196.7860  173.9800  135.6690 C   0  0  2  0  0  0  0  0  0  0  0  0
  199.4950  173.3520  137.0490 C   0  0  0  0  0  2  0  0  0  0  0  0
  194.5590  173.8300  135.4660 C   0  0  0  0  0  0  0  0  0  0  0  0
  189.7370  177.7570  138.3400 C   0  0  0  0  0  2  0  0  0  0  0  0
  191.7730  177.6630  140.8210 C   0  0  0  0  0  1  0  0  0  0  0  0
  189.1570  177.5880  143.0100 N   0  0  0  0  0  0  0  0  0  0  0  0
  188.8790  178.0310  139.4830 N   0  0  0  0  0  2  0  0  0  0  0  0
  190.3440  176.8860  142.6610 C   0  0  0  0  0  0  0  0  0  0  0  0
  189.2860  177.7280  140.8190 C   0  0  0  0  0  0  0  0  0  0  0  0
  188.5750  178.0790  141.8410 N   0  0  0  0  0  0  0  0  0  0  0  0
  190.9590  176.0250  143.4650 C   0  0  0  0  0  2  0  0  0  0  0  0
  190.5020  176.9090  141.1800 C   0  0  1  0  0  3  0  0  0  0  0  0
  188.6630  177.2800  146.7040 N   0  0  0  0  0  2  0  0  0  0  0  0
  187.2030  177.2990  146.7050 C   0  0  0  0  0  2  0  0  0  0  0  0
  189.1260  176.9130  145.3690 C   0  0  0  0  0  2  0  0  0  0  0  0
  188.7030  177.9680  144.3440 C   0  0  2  0  0  3  0  0  0  0  0  0
  186.7010  178.4080  145.7840 C   0  0  1  0  0  3  0  0  0  0  0  0
  187.1860  178.1620  144.3610 C   0  0  0  0  0  2  0  0  0  0  0  0
  185.2130  178.5000  145.8280 C   0  0  0  0  0  0  0  0  0  0  0  0
  184.5670  178.6320  144.7570 O   0  0  0  0  0  0  0  0  0  0  0  0
  184.5320  178.4130  147.0380 O   0  0  0  0  0  1  0  0  0  0  0  0
  1  6  2  0  0  0  0
  2  4  1  0  0  0  0
  3  7  1  0  0  0  0
  4  3  1  6  0  0  0
  4  7  1  0  0  0  0
  5  8  1  6  0  0  0
  5  2  1  0  0  0  0
  5  1  1  0  0  0  0
  6  4  1  0  0  0  0
  7 23  1  1  0  0  0
  8 10  1  0  0  0  0
  9  8  1  0  0  0  0
 11 17  1  0  0  0  0
 11 19  1  0  0  0  0
 13 21  1  0  0  0  0
 14 18  2  0  0  0  0
 14 22  1  0  0  0  0
 16 13  1  0  0  0  0
 16 20  1  0  0  0  0
 17 19  1  0  0  0  0
 18 20  1  0  0  0  0
 19 12  1  0  0  0  0
 20 15  1  0  0  0  0
 20 11  1  0  0  0  0
 21 17  1  0  0  0  0
 22  8  1  0  0  0  0
 22 15  2  0  0  0  0
 23 26  1  0  0  0  0
 24 31  1  0  0  0  0
 25 35  1  0  0  0  0
 26 28  1  0  0  0  0
 27 25  1  0  0  0  0
 27 30  2  0  0  0  0
 28 31  1  0  0  0  0
 28 29  2  0  0  0  0
 29 25  1  0  0  0  0
 31 27  1  0  0  0  0
 32 33  1  0  0  0  0
 34 32  1  0  0  0  0
 35 37  1  0  0  0  0
 35 34  1  0  0  0  0
 36 38  1  0  0  0  0
 36 33  1  0  0  0  0
 37 36  1  0  0  0  0
 38 40  1  0  0  0  0
 39 38  2  0  0  0  0
M  END
>  <MODEL>
8

>  <REMARK>
 VINA RESULT:      -7.8      2.289      3.076
  Name = 
  6 active torsions:
  status: ('A' for Active; 'I' for Inactive)
    1  A    between atoms: N_10  and  C_16
    2  A    between atoms: N_13  and  C_24
    3  A    between atoms: C_17  and  C_31
    4  A    between atoms: C_17  and  C_34
    5  A    between atoms: C_19  and  C_28
    6  A    between atoms: C_24  and  C_39
                            x       y       z     vdW  Elec       q    Type
                         _______ _______ _______ _____ _____    ______ ____

>  <TORSDO>
F 6

$$$$
=
 OpenBabel10222421573D

 40 46  0  0  1  0  0  0  0  0999 V2000
  183.4740  178.0500  138.7960 C   0  0  0  0  0  3  0  0  0  0  0  0
  181.3530  176.8210  139.9520 S   0  0  0  0  0  0  0  0  0  0  0  0
  181.2960  179.3140  141.0420 N   0  0  0  0  0  2  0  0  0  0  0  0
  182.2140  178.2300  140.6790 C   0  0  2  0  0  0  0  0  0  0  0  0
  182.5650  176.8690  138.5690 C   0  0  1  0  0  3  0  0  0  0  0  0
  183.2870  178.7180  139.8690 N   0  0  0  0  0  0  0  0  0  0  0  0
  182.0710  178.6080  142.0870 C   0  0  1  0  0  3  0  0  0  0  0  0
  181.8920  176.8680  137.1730 C   0  0  0  0  0  0  0  0  0  0  0  0
  182.4250  178.0340  136.3560 C   0  0  0  0  0  1  0  0  0  0  0  0
  180.3820  177.0430  137.3080 C   0  0  0  0  0  1  0  0  0  0  0  0
  184.5300  173.3270  135.5780 C   0  0  2  0  0  3  0  0  0  0  0  0
  187.0050  173.4060  135.6300 C   0  0  0  0  0  1  0  0  0  0  0  0
  183.5330  170.7730  136.0030 C   0  0  0  0  0  2  0  0  0  0  0  0
  181.8880  175.3660  135.0130 C   0  0  0  0  0  3  0  0  0  0  0  0
  182.8880  174.6220  136.9140 N   0  0  0  0  0  0  0  0  0  0  0  0
  182.1970  172.0240  136.3780 S   0  0  0  0  0  0  0  0  0  0  0  0
  184.9900  172.6240  136.8530 C   0  0  2  0  0  3  0  0  0  0  0  0
  182.3900  174.1830  134.6940 C   0  0  0  0  0  3  0  0  0  0  0  0
  185.7330  173.8370  136.3310 C   0  0  2  0  0  3  0  0  0  0  0  0
  183.0620  173.5950  135.8920 C   0  0  2  0  0  0  0  0  0  0  0  0
  184.9890  171.2010  136.3350 C   0  0  0  0  0  2  0  0  0  0  0  0
  182.2010  175.5960  136.4150 C   0  0  0  0  0  0  0  0  0  0  0  0
  183.2280  179.4700  142.5700 C   0  0  0  0  0  2  0  0  0  0  0  0
  186.4050  179.1600  142.2330 C   0  0  0  0  0  1  0  0  0  0  0  0
  186.5890  177.4660  145.1880 N   0  0  0  0  0  0  0  0  0  0  0  0
  183.6590  179.0240  143.8860 N   0  0  0  0  0  2  0  0  0  0  0  0
  186.9420  177.3590  143.8150 C   0  0  0  0  0  0  0  0  0  0  0  0
  184.9340  178.4130  144.0940 C   0  0  0  0  0  0  0  0  0  0  0  0
  185.3640  178.1260  145.2800 N   0  0  0  0  0  0  0  0  0  0  0  0
  187.8570  176.5170  143.3480 C   0  0  0  0  0  2  0  0  0  0  0  0
  185.8570  177.9600  142.9890 C   0  0  1  0  0  3  0  0  0  0  0  0
  188.0780  177.9770  148.5810 N   0  0  0  0  0  2  0  0  0  0  0  0
  189.4780  178.0390  148.1700 C   0  0  0  0  0  2  0  0  0  0  0  0
  187.2360  178.2530  147.4210 C   0  0  0  0  0  2  0  0  0  0  0  0
  187.4230  177.1760  146.3500 C   0  0  2  0  0  3  0  0  0  0  0  0
  189.7740  176.9180  147.1770 C   0  0  1  0  0  3  0  0  0  0  0  0
  188.8930  177.0680  145.9430 C   0  0  0  0  0  2  0  0  0  0  0  0
  191.2170  176.9120  146.8010 C   0  0  0  0  0  0  0  0  0  0  0  0
  191.5590  177.2610  145.6420 O   0  0  0  0  0  0  0  0  0  0  0  0
  192.1910  176.5490  147.7270 O   0  0  0  0  0  1  0  0  0  0  0  0
  1  6  2  0  0  0  0
  2  4  1  0  0  0  0
  3  7  1  0  0  0  0
  4  6  1  6  0  0  0
  4  3  1  0  0  0  0
  4  7  1  0  0  0  0
  5  8  1  6  0  0  0
  5  1  1  0  0  0  0
  5  2  1  0  0  0  0
  7 23  1  6  0  0  0
  8 10  1  0  0  0  0
  9  8  1  0  0  0  0
 11 20  1  0  0  0  0
 11 19  1  0  0  0  0
 11 17  1  0  0  0  0
 12 19  1  0  0  0  0
 13 21  1  0  0  0  0
 13 16  1  0  0  0  0
 14 22  1  0  0  0  0
 18 14  2  0  0  0  0
 18 20  1  0  0  0  0
 19 17  1  0  0  0  0
 20 16  1  0  0  0  0
 20 15  1  0  0  0  0
 21 17  1  0  0  0  0
 22 15  2  0  0  0  0
 22  8  1  0  0  0  0
 23 26  1  0  0  0  0
 24 31  1  0  0  0  0
 25 29  1  0  0  0  0
 25 35  1  0  0  0  0
 26 28  1  0  0  0  0
 27 25  1  0  0  0  0
 28 29  2  0  0  0  0
 30 27  2  0  0  0  0
 31 27  1  0  0  0  0
 31 28  1  0  0  0  0
 33 32  1  0  0  0  0
 34 32  1  0  0  0  0
 35 34  1  0  0  0  0
 36 33  1  0  0  0  0
 37 35  1  0  0  0  0
 37 36  1  0  0  0  0
 38 36  1  0  0  0  0
 38 40  1  0  0  0  0
 39 38  2  0  0  0  0
M  END
>  <MODEL>
9

>  <REMARK>
 VINA RESULT:      -7.8      6.653      8.771
  Name = 
  6 active torsions:
  status: ('A' for Active; 'I' for Inactive)
    1  A    between atoms: N_10  and  C_16
    2  A    between atoms: N_13  and  C_24
    3  A    between atoms: C_17  and  C_31
    4  A    between atoms: C_17  and  C_34
    5  A    between atoms: C_19  and  C_28
    6  A    between atoms: C_24  and  C_39
                            x       y       z     vdW  Elec       q    Type
                         _______ _______ _______ _____ _____    ______ ____

>  <TORSDO>
F 6

$$$$
