=
 OpenBabel10232408303D

 45 49  0  0  1  0  0  0  0  0999 V2000
  191.0830  176.5120  140.1810 O   0  0  0  0  0  0  0  0  0  0  0  0
  186.3930  178.3820  135.3730 O   0  0  0  0  0  1  0  0  0  0  0  0
  185.9940  178.6890  138.2920 C   0  0  0  0  0  2  0  0  0  0  0  0
  192.5310  174.5360  136.4290 C   0  0  0  0  0  0  0  0  0  0  0  0
  186.2490  176.8190  137.1510 N   0  0  1  0  0  0  0  0  0  0  0  0
  188.0880  177.9240  140.3090 C   0  0  0  0  0  0  0  0  0  0  0  0
  187.7970  176.4390  135.3070 C   0  0  0  0  0  3  0  0  0  0  0  0
  190.8060  176.7590  138.9760 C   0  0  0  0  0  0  0  0  0  0  0  0
  188.7280  177.1470  134.6520 C   0  0  0  0  0  3  0  0  0  0  0  0
  189.7450  177.6410  138.4580 C   0  0  0  0  0  0  0  0  0  0  0  0
  186.4600  177.0200  135.7060 C   0  0  2  0  0  3  0  0  0  0  0  0
  189.7910  177.6530  137.1650 N   0  0  0  0  0  0  0  0  0  0  0  0
  191.5380  176.2320  137.8800 N   0  0  0  0  0  0  0  0  0  0  0  0
  193.4690  173.4080  136.1870 C   0  0  0  0  0  1  0  0  0  0  0  0
  188.5500  178.1000  139.1050 N   0  0  0  0  0  0  0  0  0  0  0  0
  191.8790  175.0810  135.3880 C   0  0  0  0  0  3  0  0  0  0  0  0
  192.2530  174.9580  137.8520 C   0  0  0  0  0  2  0  0  0  0  0  0
  185.7780  178.6030  139.7770 C   0  0  0  0  0  0  0  0  0  0  0  0
  185.2950  177.6800  137.6130 O   0  0  0  0  0  0  0  0  0  0  0  0
  190.9110  176.1830  135.5550 C   0  0  0  0  0  0  0  0  0  0  0  0
  188.8510  177.2620  141.3180 N   0  0  0  0  0  1  0  0  0  0  0  0
  186.7310  178.2840  140.6140 N   0  0  0  0  0  0  0  0  0  0  0  0
  190.8240  176.7580  136.7670 C   0  0  0  0  0  0  0  0  0  0  0  0
  190.0930  176.5930  134.3460 C   0  0  0  0  0  2  0  0  0  0  0  0
  186.9190  174.4160  137.3410 C   0  0  0  0  0  2  0  0  0  0  0  0
  184.6150  175.1230  136.4230 C   0  0  0  0  0  0  0  0  0  0  0  0
  185.8410  173.0370  135.6310 C   0  0  1  0  0  3  0  0  0  0  0  0
  185.7660  175.4430  137.3580 C   0  0  2  0  0  3  0  0  0  0  0  0
  184.5510  173.8520  135.6100 C   0  0  0  0  0  2  0  0  0  0  0  0
  186.4290  173.0150  137.0300 C   0  0  0  0  0  2  0  0  0  0  0  0
  183.4980  175.8380  136.5260 C   0  0  0  0  0  2  0  0  0  0  0  0
  185.5010  171.3430  135.0620 S   0  0  0  0  0  0  0  0  0  0  0  0
  183.6940  171.5810  135.0530 C   0  0  0  0  0  2  0  0  0  0  0  0
  183.1610  171.1850  137.3400 O   0  0  0  0  0  1  0  0  0  0  0  0
  183.0480  170.6490  136.0570 C   0  0  0  0  0  2  0  0  0  0  0  0
  184.4220  178.9260  140.3140 C   0  0  0  0  0  2  0  0  0  0  0  0
  181.3610  178.3540  144.0440 F   0  0  0  0  0  0  0  0  0  0  0  0
  182.4130  180.3250  143.7840 F   0  0  0  0  0  0  0  0  0  0  0  0
  183.6890  178.4550  144.5410 C   0  0  1  0  0  3  0  0  0  0  0  0
  182.7990  178.6130  142.1740 C   0  0  0  0  0  2  0  0  0  0  0  0
  183.4380  178.7400  145.8710 F   0  0  0  0  0  0  0  0  0  0  0  0
  185.1170  179.4750  142.6710 C   0  0  0  0  0  2  0  0  0  0  0  0
  182.5430  178.9520  143.6510 C   0  0  0  0  0  0  0  0  0  0  0  0
  184.2830  178.5510  141.7850 C   0  0  2  0  0  3  0  0  0  0  0  0
  185.0520  179.0350  144.1370 C   0  0  0  0  0  2  0  0  0  0  0  0
  3 18  1  0  0  0  0
  4 17  1  0  0  0  0
  5 28  1  0  0  0  0
  5 19  1  6  0  0  0
  6 22  1  0  0  0  0
  6 21  1  0  0  0  0
  7 11  1  0  0  0  0
  8  1  2  0  0  0  0
  9  7  2  0  0  0  0
 10  8  1  0  0  0  0
 10 15  1  0  0  0  0
 11  2  1  1  0  0  0
 11  5  1  0  0  0  0
 12 10  2  0  0  0  0
 13  8  1  0  0  0  0
 14  4  1  0  0  0  0
 15  6  2  0  0  0  0
 16 20  1  0  0  0  0
 16  4  2  0  0  0  0
 17 13  1  0  0  0  0
 18 36  1  0  0  0  0
 18 22  2  0  0  0  0
 19  3  1  0  0  0  0
 20 23  2  0  0  0  0
 23 12  1  0  0  0  0
 23 13  1  0  0  0  0
 24  9  1  0  0  0  0
 24 20  1  0  0  0  0
 26 31  2  0  0  0  0
 26 28  1  0  0  0  0
 27 32  1  1  0  0  0
 27 30  1  0  0  0  0
 28 25  1  6  0  0  0
 29 27  1  0  0  0  0
 29 26  1  0  0  0  0
 30 25  1  0  0  0  0
 33 32  1  0  0  0  0
 33 35  1  0  0  0  0
 35 34  1  0  0  0  0
 39 41  1  1  0  0  0
 40 43  1  0  0  0  0
 42 45  1  0  0  0  0
 43 38  1  0  0  0  0
 43 37  1  0  0  0  0
 43 39  1  0  0  0  0
 44 36  1  6  0  0  0
 44 40  1  0  0  0  0
 44 42  1  0  0  0  0
 45 39  1  0  0  0  0
M  END
>  <MODEL>
1

>  <REMARK>
 VINA RESULT:      -7.5      0.000      0.000
  Name = 
  6 active torsions:
  status: ('A' for Active; 'I' for Inactive)
    1  A    between atoms: C_1  and  C_34
    2  A    between atoms: C_1  and  C_36
    3  A    between atoms: N_8  and  C_16
    4  A    between atoms: C_14  and  S_23
    5  A    between atoms: S_23  and  C_39
    6  A    between atoms: C_39  and  C_40
                            x       y       z     vdW  Elec       q    Type
                         _______ _______ _______ _____ _____    ______ ____

>  <TORSDO>
F 6

$$$$
=
 OpenBabel10232408303D

 45 49  0  0  1  0  0  0  0  0999 V2000
  190.5260  176.9500  140.2590 O   0  0  0  0  0  0  0  0  0  0  0  0
  186.6920  178.1290  134.5560 O   0  0  0  0  0  1  0  0  0  0  0  0
  185.7980  178.7340  137.3140 C   0  0  0  0  0  2  0  0  0  0  0  0
  192.6230  174.6340  137.0460 C   0  0  0  0  0  0  0  0  0  0  0  0
  186.2730  176.7620  136.4480 N   0  0  1  0  0  0  0  0  0  0  0  0
  187.5310  178.2630  139.7260 C   0  0  0  0  0  0  0  0  0  0  0  0
  188.1180  176.2400  134.9430 C   0  0  0  0  0  3  0  0  0  0  0  0
  190.4540  177.0570  139.0050 C   0  0  0  0  0  0  0  0  0  0  0  0
  189.1350  176.9060  134.3780 C   0  0  0  0  0  3  0  0  0  0  0  0
  189.4830  177.8400  138.2210 C   0  0  0  0  0  0  0  0  0  0  0  0
  186.7240  176.8150  135.0450 C   0  0  2  0  0  3  0  0  0  0  0  0
  189.7480  177.7160  136.9610 N   0  0  0  0  0  0  0  0  0  0  0  0
  191.3700  176.4400  138.1120 N   0  0  0  0  0  0  0  0  0  0  0  0
  193.6060  173.5200  137.0910 C   0  0  0  0  0  1  0  0  0  0  0  0
  188.1880  178.3250  138.6040 N   0  0  0  0  0  0  0  0  0  0  0  0
  192.1490  175.0410  135.8560 C   0  0  0  0  0  3  0  0  0  0  0  0
  192.1000  175.1970  138.3460 C   0  0  0  0  0  2  0  0  0  0  0  0
  185.3350  178.8000  138.7420 C   0  0  0  0  0  0  0  0  0  0  0  0
  185.2410  177.6340  136.6440 O   0  0  0  0  0  0  0  0  0  0  0  0
  191.1490  176.1210  135.7350 C   0  0  0  0  0  0  0  0  0  0  0  0
  188.1220  177.7400  140.9160 N   0  0  0  0  0  1  0  0  0  0  0  0
  186.1360  178.6060  139.7570 N   0  0  0  0  0  0  0  0  0  0  0  0
  190.8480  176.8190  136.8430 C   0  0  0  0  0  0  0  0  0  0  0  0
  190.5420  176.3690  134.3680 C   0  0  0  0  0  2  0  0  0  0  0  0
  186.9180  174.4610  137.1910 C   0  0  0  0  0  2  0  0  0  0  0  0
  184.9590  174.8730  135.5650 C   0  0  0  0  0  0  0  0  0  0  0  0
  186.4110  172.7830  135.4850 C   0  0  1  0  0  3  0  0  0  0  0  0
  185.7850  175.4000  136.7230 C   0  0  2  0  0  3  0  0  0  0  0  0
  185.1620  173.4970  134.9760 C   0  0  0  0  0  2  0  0  0  0  0  0
  186.5720  173.0010  136.9780 C   0  0  0  0  0  2  0  0  0  0  0  0
  183.8430  175.5180  135.2380 C   0  0  0  0  0  2  0  0  0  0  0  0
  186.2890  171.0060  135.1160 S   0  0  0  0  0  0  0  0  0  0  0  0
  184.4740  171.0420  134.9520 C   0  0  0  0  0  2  0  0  0  0  0  0
  183.0930  170.9850  136.8920 O   0  0  0  0  0  1  0  0  0  0  0  0
  183.8440  170.1840  136.0300 C   0  0  0  0  0  2  0  0  0  0  0  0
  183.9020  179.1320  139.0050 C   0  0  0  0  0  2  0  0  0  0  0  0
  182.3110  174.6340  138.0830 F   0  0  0  0  0  0  0  0  0  0  0  0
  180.9600  176.3810  137.6580 F   0  0  0  0  0  0  0  0  0  0  0  0
  181.3470  175.7800  139.9360 C   0  0  1  0  0  3  0  0  0  0  0  0
  183.1500  176.8160  138.4880 C   0  0  0  0  0  2  0  0  0  0  0  0
  180.2640  174.9210  139.9600 F   0  0  0  0  0  0  0  0  0  0  0  0
  181.6880  178.3210  139.8890 C   0  0  0  0  0  2  0  0  0  0  0  0
  181.9260  175.8870  138.5200 C   0  0  0  0  0  0  0  0  0  0  0  0
  183.1250  177.9340  139.5410 C   0  0  2  0  0  3  0  0  0  0  0  0
  180.9390  177.1420  140.5170 C   0  0  0  0  0  2  0  0  0  0  0  0
  3 18  1  0  0  0  0
  4 14  1  0  0  0  0
  4 17  1  0  0  0  0
  5 19  1  6  0  0  0
  5 28  1  0  0  0  0
  6 22  1  0  0  0  0
  6 21  1  0  0  0  0
  7 11  1  0  0  0  0
  8  1  2  0  0  0  0
  9  7  2  0  0  0  0
 10 15  1  0  0  0  0
 10  8  1  0  0  0  0
 11  2  1  1  0  0  0
 11  5  1  0  0  0  0
 12 10  2  0  0  0  0
 13 17  1  0  0  0  0
 13  8  1  0  0  0  0
 15  6  2  0  0  0  0
 16  4  2  0  0  0  0
 18 36  1  0  0  0  0
 18 22  2  0  0  0  0
 19  3  1  0  0  0  0
 20 16  1  0  0  0  0
 20 23  2  0  0  0  0
 23 12  1  0  0  0  0
 23 13  1  0  0  0  0
 24  9  1  0  0  0  0
 24 20  1  0  0  0  0
 26 28  1  0  0  0  0
 27 32  1  1  0  0  0
 27 30  1  0  0  0  0
 28 25  1  6  0  0  0
 29 27  1  0  0  0  0
 29 26  1  0  0  0  0
 30 25  1  0  0  0  0
 31 26  2  0  0  0  0
 33 32  1  0  0  0  0
 33 35  1  0  0  0  0
 35 34  1  0  0  0  0
 37 43  1  0  0  0  0
 38 43  1  0  0  0  0
 39 41  1  6  0  0  0
 39 45  1  0  0  0  0
 40 43  1  0  0  0  0
 40 44  1  0  0  0  0
 42 45  1  0  0  0  0
 43 39  1  0  0  0  0
 44 36  1  6  0  0  0
 44 42  1  0  0  0  0
M  END
>  <MODEL>
2

>  <REMARK>
 VINA RESULT:      -7.0      2.376      2.728
  Name = 
  6 active torsions:
  status: ('A' for Active; 'I' for Inactive)
    1  A    between atoms: C_1  and  C_34
    2  A    between atoms: C_1  and  C_36
    3  A    between atoms: N_8  and  C_16
    4  A    between atoms: C_14  and  S_23
    5  A    between atoms: S_23  and  C_39
    6  A    between atoms: C_39  and  C_40
                            x       y       z     vdW  Elec       q    Type
                         _______ _______ _______ _____ _____    ______ ____

>  <TORSDO>
F 6

$$$$
=
 OpenBabel10232408303D

 45 49  0  0  1  0  0  0  0  0999 V2000
  186.0620  173.2420  136.4510 O   0  0  0  0  0  0  0  0  0  0  0  0
  188.9820  179.4660  137.6130 O   0  0  0  0  0  1  0  0  0  0  0  0
  190.4690  177.0800  136.6800 C   0  0  0  0  0  2  0  0  0  0  0  0
  182.9490  175.4830  138.7680 C   0  0  0  0  0  0  0  0  0  0  0  0
  189.4060  177.3490  138.5940 N   0  0  1  0  0  0  0  0  0  0  0  0
  189.1330  174.4420  136.1340 C   0  0  0  0  0  0  0  0  0  0  0  0
  187.2520  178.4420  138.9210 C   0  0  0  0  0  3  0  0  0  0  0  0
  185.9310  174.4800  136.6440 C   0  0  0  0  0  0  0  0  0  0  0  0
  186.3310  179.0350  138.1490 C   0  0  0  0  0  3  0  0  0  0  0  0
  186.9000  175.5470  136.3390 C   0  0  0  0  0  0  0  0  0  0  0  0
  188.7360  178.6550  138.7310 C   0  0  2  0  0  3  0  0  0  0  0  0
  186.3930  176.6930  136.6610 N   0  0  0  0  0  0  0  0  0  0  0  0
  184.7530  175.0710  137.1740 N   0  0  0  0  0  0  0  0  0  0  0  0
  181.7600  175.0380  139.5420 C   0  0  0  0  0  1  0  0  0  0  0  0
  188.3190  175.4570  136.1460 N   0  0  0  0  0  0  0  0  0  0  0  0
  183.2840  176.7850  138.7730 C   0  0  0  0  0  3  0  0  0  0  0  0
  183.8110  174.4420  138.0960 C   0  0  0  0  0  2  0  0  0  0  0  0
  191.1820  175.7810  136.4300 C   0  0  0  0  0  0  0  0  0  0  0  0
  190.6290  177.5050  138.0070 O   0  0  0  0  0  0  0  0  0  0  0  0
  184.4670  177.2960  138.0520 C   0  0  0  0  0  0  0  0  0  0  0  0
  188.6600  173.0970  136.2070 N   0  0  0  0  0  1  0  0  0  0  0  0
  190.5530  174.6640  136.1760 N   0  0  0  0  0  0  0  0  0  0  0  0
  185.1140  176.4470  137.2350 C   0  0  0  0  0  0  0  0  0  0  0  0
  184.8610  178.7420  138.2790 C   0  0  0  0  0  2  0  0  0  0  0  0
  188.3800  177.0110  140.8510 C   0  0  0  0  0  2  0  0  0  0  0  0
  190.9270  177.2590  140.5310 C   0  0  0  0  0  0  0  0  0  0  0  0
  189.7080  178.0640  142.6160 C   0  0  1  0  0  3  0  0  0  0  0  0
  189.6090  176.7920  139.9420 C   0  0  2  0  0  3  0  0  0  0  0  0
  191.0480  177.8050  141.9340 C   0  0  0  0  0  2  0  0  0  0  0  0
  188.7390  176.9340  142.3220 C   0  0  0  0  0  2  0  0  0  0  0  0
  192.0530  176.9220  139.9080 C   0  0  0  0  0  2  0  0  0  0  0  0
  189.9600  178.2300  144.4100 S   0  0  0  0  0  0  0  0  0  0  0  0
  191.5680  177.3730  144.3840 C   0  0  0  0  0  2  0  0  0  0  0  0
  191.9810  176.9130  146.6840 O   0  0  0  0  0  1  0  0  0  0  0  0
  191.6080  176.3230  145.4760 C   0  0  0  0  0  2  0  0  0  0  0  0
  192.6760  175.7820  136.4420 C   0  0  0  0  0  2  0  0  0  0  0  0
  195.8670  173.9130  139.5950 F   0  0  0  0  0  0  0  0  0  0  0  0
  196.4640  174.1410  137.4390 F   0  0  0  0  0  0  0  0  0  0  0  0
  194.9000  172.4280  138.0030 C   0  0  1  0  0  3  0  0  0  0  0  0
  194.3020  174.8880  138.1010 C   0  0  0  0  0  2  0  0  0  0  0  0
  195.8990  171.4920  138.2030 F   0  0  0  0  0  0  0  0  0  0  0  0
  193.8470  173.6010  135.9800 C   0  0  0  0  0  2  0  0  0  0  0  0
  195.4140  173.8430  138.2920 C   0  0  0  0  0  0  0  0  0  0  0  0
  193.2460  174.5060  137.0540 C   0  0  2  0  0  3  0  0  0  0  0  0
  194.3300  172.2790  136.5840 C   0  0  0  0  0  2  0  0  0  0  0  0
  1  8  2  0  0  0  0
  3 19  1  0  0  0  0
  4 16  2  0  0  0  0
  4 14  1  0  0  0  0
  5 19  1  1  0  0  0
  5 11  1  0  0  0  0
  5 28  1  0  0  0  0
  6 15  2  0  0  0  0
  6 22  1  0  0  0  0
  6 21  1  0  0  0  0
  8 13  1  0  0  0  0
  9 24  1  0  0  0  0
  9  7  2  0  0  0  0
 10  8  1  0  0  0  0
 10 12  2  0  0  0  0
 11  2  1  6  0  0  0
 11  7  1  0  0  0  0
 12 23  1  0  0  0  0
 13 23  1  0  0  0  0
 13 17  1  0  0  0  0
 15 10  1  0  0  0  0
 17  4  1  0  0  0  0
 18 36  1  0  0  0  0
 18  3  1  0  0  0  0
 20 24  1  0  0  0  0
 20 16  1  0  0  0  0
 22 18  2  0  0  0  0
 23 20  2  0  0  0  0
 25 30  1  0  0  0  0
 26 29  1  0  0  0  0
 27 32  1  1  0  0  0
 28 26  1  0  0  0  0
 28 25  1  1  0  0  0
 29 27  1  0  0  0  0
 30 27  1  0  0  0  0
 31 26  2  0  0  0  0
 33 32  1  0  0  0  0
 33 35  1  0  0  0  0
 35 34  1  0  0  0  0
 38 43  1  0  0  0  0
 39 41  1  6  0  0  0
 39 43  1  0  0  0  0
 40 43  1  0  0  0  0
 42 45  1  0  0  0  0
 42 44  1  0  0  0  0
 43 37  1  0  0  0  0
 44 36  1  6  0  0  0
 44 40  1  0  0  0  0
 45 39  1  0  0  0  0
M  END
>  <MODEL>
3

>  <REMARK>
 VINA RESULT:      -6.7      5.152      9.562
  Name = 
  6 active torsions:
  status: ('A' for Active; 'I' for Inactive)
    1  A    between atoms: C_1  and  C_34
    2  A    between atoms: C_1  and  C_36
    3  A    between atoms: N_8  and  C_16
    4  A    between atoms: C_14  and  S_23
    5  A    between atoms: S_23  and  C_39
    6  A    between atoms: C_39  and  C_40
                            x       y       z     vdW  Elec       q    Type
                         _______ _______ _______ _____ _____    ______ ____

>  <TORSDO>
F 6

$$$$
=
 OpenBabel10232408303D

 45 49  0  0  1  0  0  0  0  0999 V2000
  185.2180  171.4720  135.3660 O   0  0  0  0  0  0  0  0  0  0  0  0
  186.6450  178.2630  134.6880 O   0  0  0  0  0  1  0  0  0  0  0  0
  188.6430  176.1020  134.3460 C   0  0  0  0  0  2  0  0  0  0  0  0
  181.6550  173.5120  137.1620 C   0  0  0  0  0  0  0  0  0  0  0  0
  187.5260  176.6360  136.1720 N   0  0  1  0  0  0  0  0  0  0  0  0
  187.9430  173.1880  134.5860 C   0  0  0  0  0  0  0  0  0  0  0  0
  185.1780  177.2740  136.3070 C   0  0  0  0  0  3  0  0  0  0  0  0
  184.8090  172.6560  135.2300 C   0  0  0  0  0  0  0  0  0  0  0  0
  184.1550  177.4200  135.4530 C   0  0  0  0  0  3  0  0  0  0  0  0
  185.5160  173.7880  134.6050 C   0  0  0  0  0  0  0  0  0  0  0  0
  186.5780  177.7500  135.9920 C   0  0  2  0  0  3  0  0  0  0  0  0
  184.7600  174.8370  134.6370 N   0  0  0  0  0  0  0  0  0  0  0  0
  183.5230  173.0940  135.6440 N   0  0  0  0  0  0  0  0  0  0  0  0
  180.5900  173.0410  138.0860 C   0  0  0  0  0  1  0  0  0  0  0  0
  186.9200  173.9630  134.3700 N   0  0  0  0  0  0  0  0  0  0  0  0
  181.6880  174.8070  136.8050 C   0  0  0  0  0  3  0  0  0  0  0  0
  182.7380  172.5440  136.7470 C   0  0  0  0  0  2  0  0  0  0  0  0
  189.6330  174.9740  134.4120 C   0  0  0  0  0  0  0  0  0  0  0  0
  188.6880  176.8940  135.5030 O   0  0  0  0  0  0  0  0  0  0  0  0
  182.7330  175.3530  135.9160 C   0  0  0  0  0  0  0  0  0  0  0  0
  187.7850  171.8420  135.0370 N   0  0  0  0  0  1  0  0  0  0  0  0
  189.2750  173.7200  134.4960 N   0  0  0  0  0  0  0  0  0  0  0  0
  183.5630  174.4790  135.3200 C   0  0  0  0  0  0  0  0  0  0  0  0
  182.7870  176.8560  135.7320 C   0  0  0  0  0  2  0  0  0  0  0  0
  188.0640  177.9020  138.2620 C   0  0  0  0  0  2  0  0  0  0  0  0
  188.9420  175.5130  137.8480 C   0  0  0  0  0  0  0  0  0  0  0  0
  190.2370  177.2530  139.1800 C   0  0  1  0  0  3  0  0  0  0  0  0
  187.8360  176.5220  137.6070 C   0  0  2  0  0  3  0  0  0  0  0  0
  190.1290  175.7970  138.7370 C   0  0  0  0  0  2  0  0  0  0  0  0
  188.8680  177.7980  139.5430 C   0  0  0  0  0  2  0  0  0  0  0  0
  188.7320  174.2470  137.4980 C   0  0  0  0  0  2  0  0  0  0  0  0
  191.3630  177.3760  140.6030 S   0  0  0  0  0  0  0  0  0  0  0  0
  190.0530  177.0260  141.8210 C   0  0  0  0  0  2  0  0  0  0  0  0
  190.2570  176.7030  144.1720 O   0  0  0  0  0  1  0  0  0  0  0  0
  190.6050  176.1600  142.9350 C   0  0  0  0  0  2  0  0  0  0  0  0
  191.0880  175.3080  134.3480 C   0  0  0  0  0  2  0  0  0  0  0  0
  193.6550  176.8810  138.1630 F   0  0  0  0  0  0  0  0  0  0  0  0
  194.7450  176.1860  136.3220 F   0  0  0  0  0  0  0  0  0  0  0  0
  193.6970  174.5440  137.7020 C   0  0  1  0  0  3  0  0  0  0  0  0
  192.3630  176.1800  136.3000 C   0  0  0  0  0  2  0  0  0  0  0  0
  194.8340  174.3680  138.4680 F   0  0  0  0  0  0  0  0  0  0  0  0
  192.9590  173.9320  135.3230 C   0  0  0  0  0  2  0  0  0  0  0  0
  193.6400  175.9650  137.1280 C   0  0  0  0  0  0  0  0  0  0  0  0
  191.8250  174.9110  135.6230 C   0  0  2  0  0  3  0  0  0  0  0  0
  193.6330  173.4600  136.6150 C   0  0  0  0  0  2  0  0  0  0  0  0
  3 18  1  0  0  0  0
  3 19  1  0  0  0  0
  4 14  1  0  0  0  0
  5 19  1  6  0  0  0
  5 28  1  0  0  0  0
  6 21  1  0  0  0  0
  8  1  2  0  0  0  0
  8 13  1  0  0  0  0
  9 24  1  0  0  0  0
  9  7  2  0  0  0  0
 10 12  2  0  0  0  0
 10  8  1  0  0  0  0
 11  2  1  6  0  0  0
 11  5  1  0  0  0  0
 11  7  1  0  0  0  0
 12 23  1  0  0  0  0
 13 17  1  0  0  0  0
 15  6  2  0  0  0  0
 15 10  1  0  0  0  0
 16  4  2  0  0  0  0
 17  4  1  0  0  0  0
 18 22  2  0  0  0  0
 20 16  1  0  0  0  0
 22  6  1  0  0  0  0
 23 13  1  0  0  0  0
 23 20  2  0  0  0  0
 24 20  1  0  0  0  0
 25 30  1  0  0  0  0
 26 29  1  0  0  0  0
 27 30  1  0  0  0  0
 27 32  1  1  0  0  0
 28 26  1  0  0  0  0
 28 25  1  6  0  0  0
 29 27  1  0  0  0  0
 31 26  2  0  0  0  0
 32 33  1  0  0  0  0
 33 35  1  0  0  0  0
 35 34  1  0  0  0  0
 36 18  1  0  0  0  0
 38 43  1  0  0  0  0
 39 41  1  6  0  0  0
 40 43  1  0  0  0  0
 42 44  1  0  0  0  0
 42 45  1  0  0  0  0
 43 39  1  0  0  0  0
 43 37  1  0  0  0  0
 44 36  1  6  0  0  0
 44 40  1  0  0  0  0
 45 39  1  0  0  0  0
M  END
>  <MODEL>
4

>  <REMARK>
 VINA RESULT:      -6.7      4.875      8.989
  Name = 
  6 active torsions:
  status: ('A' for Active; 'I' for Inactive)
    1  A    between atoms: C_1  and  C_34
    2  A    between atoms: C_1  and  C_36
    3  A    between atoms: N_8  and  C_16
    4  A    between atoms: C_14  and  S_23
    5  A    between atoms: S_23  and  C_39
    6  A    between atoms: C_39  and  C_40
                            x       y       z     vdW  Elec       q    Type
                         _______ _______ _______ _____ _____    ______ ____

>  <TORSDO>
F 6

$$$$
=
 OpenBabel10232408303D

 45 49  0  0  1  0  0  0  0  0999 V2000
  186.5600  173.2940  136.7640 O   0  0  0  0  0  0  0  0  0  0  0  0
  188.9900  179.5180  138.7540 O   0  0  0  0  0  1  0  0  0  0  0  0
  190.7080  177.1990  138.0870 C   0  0  0  0  0  2  0  0  0  0  0  0
  182.9580  175.3830  138.4200 C   0  0  0  0  0  0  0  0  0  0  0  0
  189.2460  177.3720  139.7300 N   0  0  1  0  0  0  0  0  0  0  0  0
  189.5940  174.5610  137.1690 C   0  0  0  0  0  0  0  0  0  0  0  0
  187.0440  178.4110  139.6150 C   0  0  0  0  0  3  0  0  0  0  0  0
  186.3570  174.5210  136.9670 C   0  0  0  0  0  0  0  0  0  0  0  0
  186.2990  179.0180  138.6810 C   0  0  0  0  0  3  0  0  0  0  0  0
  187.3410  175.6170  136.9190 C   0  0  0  0  0  0  0  0  0  0  0  0
  188.5280  178.6590  139.7630 C   0  0  2  0  0  3  0  0  0  0  0  0
  186.7460  176.7390  137.1620 N   0  0  0  0  0  0  0  0  0  0  0  0
  185.0770  175.0680  137.2460 N   0  0  0  0  0  0  0  0  0  0  0  0
  181.6410  174.8850  138.8980 C   0  0  0  0  0  1  0  0  0  0  0  0
  188.7700  175.5600  137.0380 N   0  0  0  0  0  0  0  0  0  0  0  0
  183.2490  176.6890  138.5430 C   0  0  0  0  0  3  0  0  0  0  0  0
  183.9740  174.3850  137.9160 C   0  0  0  0  0  2  0  0  0  0  0  0
  191.4920  175.9250  137.9540 C   0  0  0  0  0  0  0  0  0  0  0  0
  190.5630  177.5740  139.4310 O   0  0  0  0  0  0  0  0  0  0  0  0
  184.5470  177.2500  138.1180 C   0  0  0  0  0  0  0  0  0  0  0  0
  189.1520  173.2060  137.0900 N   0  0  0  0  0  1  0  0  0  0  0  0
  190.9630  174.8070  137.5290 N   0  0  0  0  0  0  0  0  0  0  0  0
  185.3790  176.4470  137.4330 C   0  0  0  0  0  0  0  0  0  0  0  0
  184.8430  178.6930  138.4760 C   0  0  0  0  0  2  0  0  0  0  0  0
  187.7680  176.9450  141.7040 C   0  0  0  0  0  2  0  0  0  0  0  0
  190.3210  177.2140  141.9420 C   0  0  0  0  0  0  0  0  0  0  0  0
  188.6790  177.9360  143.7470 C   0  0  1  0  0  3  0  0  0  0  0  0
  189.1650  176.7660  141.0700 C   0  0  2  0  0  3  0  0  0  0  0  0
  190.1360  177.7080  143.3570 C   0  0  0  0  0  2  0  0  0  0  0  0
  187.8070  176.8140  143.2140 C   0  0  0  0  0  2  0  0  0  0  0  0
  191.5580  176.9060  141.5610 C   0  0  0  0  0  2  0  0  0  0  0  0
  188.5410  178.0350  145.5590 S   0  0  0  0  0  0  0  0  0  0  0  0
  186.7260  177.8700  145.5490 C   0  0  0  0  0  2  0  0  0  0  0  0
  184.8340  178.7910  146.6650 O   0  0  0  0  0  1  0  0  0  0  0  0
  186.1570  178.3890  146.8540 C   0  0  0  0  0  2  0  0  0  0  0  0
  192.9470  175.9520  138.2940 C   0  0  0  0  0  2  0  0  0  0  0  0
  196.7260  172.9010  138.1370 F   0  0  0  0  0  0  0  0  0  0  0  0
  197.0180  175.0380  137.4990 F   0  0  0  0  0  0  0  0  0  0  0  0
  195.7840  173.5880  136.0590 C   0  0  1  0  0  3  0  0  0  0  0  0
  194.8710  174.3740  138.2890 C   0  0  0  0  0  2  0  0  0  0  0  0
  196.9180  173.2030  135.3680 F   0  0  0  0  0  0  0  0  0  0  0  0
  194.3400  175.7020  136.2110 C   0  0  0  0  0  2  0  0  0  0  0  0
  196.1300  173.9740  137.5020 C   0  0  0  0  0  0  0  0  0  0  0  0
  193.7570  174.9900  137.4310 C   0  0  2  0  0  3  0  0  0  0  0  0
  195.0690  174.7130  135.2960 C   0  0  0  0  0  2  0  0  0  0  0  0
  1  8  2  0  0  0  0
  3 19  1  0  0  0  0
  4 16  2  0  0  0  0
  4 14  1  0  0  0  0
  5 19  1  1  0  0  0
  5 11  1  0  0  0  0
  5 28  1  0  0  0  0
  6 22  1  0  0  0  0
  7 11  1  0  0  0  0
  8 13  1  0  0  0  0
  9  7  2  0  0  0  0
 10  8  1  0  0  0  0
 10 15  1  0  0  0  0
 10 12  2  0  0  0  0
 11  2  1  6  0  0  0
 12 23  1  0  0  0  0
 13 23  1  0  0  0  0
 13 17  1  0  0  0  0
 15  6  2  0  0  0  0
 17  4  1  0  0  0  0
 18  3  1  0  0  0  0
 18 36  1  0  0  0  0
 20 24  1  0  0  0  0
 20 16  1  0  0  0  0
 21  6  1  0  0  0  0
 22 18  2  0  0  0  0
 23 20  2  0  0  0  0
 24  9  1  0  0  0  0
 25 30  1  0  0  0  0
 26 29  1  0  0  0  0
 27 32  1  1  0  0  0
 28 25  1  1  0  0  0
 28 26  1  0  0  0  0
 29 27  1  0  0  0  0
 30 27  1  0  0  0  0
 31 26  2  0  0  0  0
 33 32  1  0  0  0  0
 33 35  1  0  0  0  0
 34 35  1  0  0  0  0
 38 43  1  0  0  0  0
 39 41  1  6  0  0  0
 39 43  1  0  0  0  0
 42 44  1  0  0  0  0
 43 37  1  0  0  0  0
 43 40  1  0  0  0  0
 44 40  1  0  0  0  0
 44 36  1  1  0  0  0
 45 39  1  0  0  0  0
 45 42  1  0  0  0  0
M  END
>  <MODEL>
5

>  <REMARK>
 VINA RESULT:      -6.7      5.423      9.690
  Name = 
  6 active torsions:
  status: ('A' for Active; 'I' for Inactive)
    1  A    between atoms: C_1  and  C_34
    2  A    between atoms: C_1  and  C_36
    3  A    between atoms: N_8  and  C_16
    4  A    between atoms: C_14  and  S_23
    5  A    between atoms: S_23  and  C_39
    6  A    between atoms: C_39  and  C_40
                            x       y       z     vdW  Elec       q    Type
                         _______ _______ _______ _____ _____    ______ ____

>  <TORSDO>
F 6

$$$$
=
 OpenBabel10232408303D

 45 49  0  0  1  0  0  0  0  0999 V2000
  190.1250  177.2520  140.4700 O   0  0  0  0  0  0  0  0  0  0  0  0
  186.0100  178.1350  134.9110 O   0  0  0  0  0  1  0  0  0  0  0  0
  185.2020  178.7550  137.6930 C   0  0  0  0  0  2  0  0  0  0  0  0
  192.1960  174.9710  137.2160 C   0  0  0  0  0  0  0  0  0  0  0  0
  185.7340  176.7900  136.8440 N   0  0  1  0  0  0  0  0  0  0  0  0
  187.0520  178.4130  140.0390 C   0  0  0  0  0  0  0  0  0  0  0  0
  187.5380  176.3230  135.2740 C   0  0  0  0  0  3  0  0  0  0  0  0
  189.9970  177.3300  139.2190 C   0  0  0  0  0  0  0  0  0  0  0  0
  188.4990  177.0230  134.6550 C   0  0  0  0  0  3  0  0  0  0  0  0
  188.9590  178.0510  138.4620 C   0  0  0  0  0  0  0  0  0  0  0  0
  186.1240  176.8340  135.4240 C   0  0  2  0  0  3  0  0  0  0  0  0
  189.1770  177.9130  137.1950 N   0  0  0  0  0  0  0  0  0  0  0  0
  190.9040  176.7380  138.3000 N   0  0  0  0  0  0  0  0  0  0  0  0
  193.2320  173.9040  137.2420 C   0  0  0  0  0  1  0  0  0  0  0  0
  187.6590  178.4830  138.8900 N   0  0  0  0  0  0  0  0  0  0  0  0
  191.6550  175.3310  136.0410 C   0  0  0  0  0  3  0  0  0  0  0  0
  191.7000  175.5350  138.5270 C   0  0  0  0  0  2  0  0  0  0  0  0
  184.7950  178.8280  139.1380 C   0  0  0  0  0  0  0  0  0  0  0  0
  184.6710  177.6170  137.0680 O   0  0  0  0  0  0  0  0  0  0  0  0
  190.6010  176.3600  135.9410 C   0  0  0  0  0  0  0  0  0  0  0  0
  187.7150  177.9430  141.2120 N   0  0  0  0  0  1  0  0  0  0  0  0
  185.6450  178.6920  140.1220 N   0  0  0  0  0  0  0  0  0  0  0  0
  190.3130  177.0660  137.0480 C   0  0  0  0  0  0  0  0  0  0  0  0
  189.9280  176.5520  134.5960 C   0  0  0  0  0  2  0  0  0  0  0  0
  186.5210  174.4400  137.1970 C   0  0  0  0  0  2  0  0  0  0  0  0
  184.1680  174.9700  136.2850 C   0  0  0  0  0  0  0  0  0  0  0  0
  185.4750  172.8880  135.6220 C   0  0  1  0  0  3  0  0  0  0  0  0
  185.3220  175.4120  137.1650 C   0  0  2  0  0  3  0  0  0  0  0  0
  184.1480  173.6390  135.5710 C   0  0  0  0  0  2  0  0  0  0  0  0
  186.0920  173.0000  137.0040 C   0  0  0  0  0  2  0  0  0  0  0  0
  183.0210  175.6390  136.3620 C   0  0  0  0  0  2  0  0  0  0  0  0
  185.2040  171.1420  135.1900 S   0  0  0  0  0  0  0  0  0  0  0  0
  183.9910  170.8770  136.5250 C   0  0  0  0  0  2  0  0  0  0  0  0
  182.7850  170.2090  134.5820 O   0  0  0  0  0  1  0  0  0  0  0  0
  182.6390  170.5390  135.9310 C   0  0  0  0  0  2  0  0  0  0  0  0
  183.3600  179.0980  139.4540 C   0  0  0  0  0  2  0  0  0  0  0  0
  181.9500  183.4980  137.9500 F   0  0  0  0  0  0  0  0  0  0  0  0
  180.4960  182.2130  139.0870 F   0  0  0  0  0  0  0  0  0  0  0  0
  181.0190  181.6090  136.8370 C   0  0  1  0  0  3  0  0  0  0  0  0
  182.6990  181.3830  138.7210 C   0  0  0  0  0  2  0  0  0  0  0  0
  179.9820  182.3660  136.3240 F   0  0  0  0  0  0  0  0  0  0  0  0
  181.2320  179.4130  138.1440 C   0  0  0  0  0  2  0  0  0  0  0  0
  181.5250  182.2000  138.1580 C   0  0  0  0  0  0  0  0  0  0  0  0
  182.6680  179.8930  138.3520 C   0  0  2  0  0  3  0  0  0  0  0  0
  180.5730  180.1450  136.9720 C   0  0  0  0  0  2  0  0  0  0  0  0
  3 18  1  0  0  0  0
  4 14  1  0  0  0  0
  4 17  1  0  0  0  0
  5 19  1  6  0  0  0
  5 28  1  0  0  0  0
  6 22  1  0  0  0  0
  6 21  1  0  0  0  0
  7 11  1  0  0  0  0
  8  1  2  0  0  0  0
  9  7  2  0  0  0  0
 10 15  1  0  0  0  0
 10  8  1  0  0  0  0
 11  2  1  1  0  0  0
 11  5  1  0  0  0  0
 12 10  2  0  0  0  0
 13 17  1  0  0  0  0
 13  8  1  0  0  0  0
 15  6  2  0  0  0  0
 16  4  2  0  0  0  0
 18 36  1  0  0  0  0
 18 22  2  0  0  0  0
 19  3  1  0  0  0  0
 20 16  1  0  0  0  0
 20 23  2  0  0  0  0
 23 12  1  0  0  0  0
 23 13  1  0  0  0  0
 24  9  1  0  0  0  0
 24 20  1  0  0  0  0
 26 31  2  0  0  0  0
 26 28  1  0  0  0  0
 27 32  1  1  0  0  0
 27 30  1  0  0  0  0
 28 25  1  6  0  0  0
 29 27  1  0  0  0  0
 29 26  1  0  0  0  0
 30 25  1  0  0  0  0
 32 33  1  0  0  0  0
 34 35  1  0  0  0  0
 35 33  1  0  0  0  0
 37 43  1  0  0  0  0
 39 41  1  1  0  0  0
 39 45  1  0  0  0  0
 39 43  1  0  0  0  0
 42 44  1  0  0  0  0
 43 40  1  0  0  0  0
 43 38  1  0  0  0  0
 44 40  1  0  0  0  0
 44 36  1  1  0  0  0
 45 42  1  0  0  0  0
M  END
>  <MODEL>
6

>  <REMARK>
 VINA RESULT:      -6.5      2.528      3.354
  Name = 
  6 active torsions:
  status: ('A' for Active; 'I' for Inactive)
    1  A    between atoms: C_1  and  C_34
    2  A    between atoms: C_1  and  C_36
    3  A    between atoms: N_8  and  C_16
    4  A    between atoms: C_14  and  S_23
    5  A    between atoms: S_23  and  C_39
    6  A    between atoms: C_39  and  C_40
                            x       y       z     vdW  Elec       q    Type
                         _______ _______ _______ _____ _____    ______ ____

>  <TORSDO>
F 6

$$$$
=
 OpenBabel10232408303D

 45 49  0  0  1  0  0  0  0  0999 V2000
  186.4080  178.5240  141.0520 O   0  0  0  0  0  0  0  0  0  0  0  0
  190.0410  176.5760  135.4290 O   0  0  0  0  0  1  0  0  0  0  0  0
  187.1380  177.1630  135.4110 C   0  0  0  0  0  2  0  0  0  0  0  0
  190.2680  176.9920  142.7340 C   0  0  0  0  0  0  0  0  0  0  0  0
  188.1880  175.5600  136.5030 N   0  0  1  0  0  0  0  0  0  0  0  0
  185.6450  178.0650  137.8600 C   0  0  0  0  0  0  0  0  0  0  0  0
  190.3240  175.7460  137.6610 C   0  0  0  0  0  3  0  0  0  0  0  0
  187.5220  178.3460  140.4910 C   0  0  0  0  0  0  0  0  0  0  0  0
  191.2280  176.7080  137.8930 C   0  0  0  0  0  3  0  0  0  0  0  0
  187.8210  178.3880  139.0480 C   0  0  0  0  0  0  0  0  0  0  0  0
  189.6500  175.5660  136.3200 C   0  0  2  0  0  3  0  0  0  0  0  0
  189.0850  178.1780  138.8660 N   0  0  0  0  0  0  0  0  0  0  0  0
  188.7280  178.1080  141.2010 N   0  0  0  0  0  0  0  0  0  0  0  0
  190.6590  176.5380  144.0950 C   0  0  0  0  0  1  0  0  0  0  0  0
  186.9340  178.2330  137.9320 N   0  0  0  0  0  0  0  0  0  0  0  0
  191.1520  176.8830  141.7280 C   0  0  0  0  0  3  0  0  0  0  0  0
  188.8490  177.4540  142.5010 C   0  0  0  0  0  2  0  0  0  0  0  0
  185.6430  177.2560  135.5310 C   0  0  0  0  0  0  0  0  0  0  0  0
  187.5630  175.8290  135.3190 O   0  0  0  0  0  0  0  0  0  0  0  0
  190.8240  177.2850  140.3450 C   0  0  0  0  0  0  0  0  0  0  0  0
  184.8120  178.1330  139.0180 N   0  0  0  0  0  1  0  0  0  0  0  0
  185.0430  177.6750  136.6150 N   0  0  0  0  0  0  0  0  0  0  0  0
  189.6650  177.9360  140.1430 C   0  0  0  0  0  0  0  0  0  0  0  0
  191.8210  176.9430  139.2570 C   0  0  0  0  0  2  0  0  0  0  0  0
  188.5510  173.1040  136.1870 C   0  0  0  0  0  2  0  0  0  0  0  0
  186.2750  174.0640  136.9280 C   0  0  0  0  0  0  0  0  0  0  0  0
  186.4960  171.9660  135.5040 C   0  0  1  0  0  3  0  0  0  0  0  0
  187.7840  174.2130  136.9410 C   0  0  2  0  0  3  0  0  0  0  0  0
  185.5750  172.8770  136.3110 C   0  0  0  0  0  2  0  0  0  0  0  0
  187.8170  171.7780  136.2260 C   0  0  0  0  0  2  0  0  0  0  0  0
  185.5540  174.8520  137.7210 C   0  0  0  0  0  2  0  0  0  0  0  0
  185.6850  170.3580  135.2430 S   0  0  0  0  0  0  0  0  0  0  0  0
  184.0540  170.9560  135.7950 C   0  0  0  0  0  2  0  0  0  0  0  0
  183.7320  168.6330  136.2090 O   0  0  0  0  0  1  0  0  0  0  0  0
  183.0710  169.8040  135.8340 C   0  0  0  0  0  2  0  0  0  0  0  0
  184.8140  176.8810  134.3460 C   0  0  0  0  0  2  0  0  0  0  0  0
  181.1200  177.7220  137.3890 F   0  0  0  0  0  0  0  0  0  0  0  0
  182.5840  176.0860  137.8720 F   0  0  0  0  0  0  0  0  0  0  0  0
  181.0380  175.7270  136.0890 C   0  0  1  0  0  3  0  0  0  0  0  0
  182.9450  177.3860  135.9100 C   0  0  0  0  0  2  0  0  0  0  0  0
  180.0970  175.1640  136.9320 F   0  0  0  0  0  0  0  0  0  0  0  0
  183.3010  175.0190  135.1120 C   0  0  0  0  0  2  0  0  0  0  0  0
  181.9160  176.7320  136.8450 C   0  0  0  0  0  0  0  0  0  0  0  0
  183.3910  176.4980  134.7380 C   0  0  2  0  0  3  0  0  0  0  0  0
  181.8540  174.6170  135.4100 C   0  0  0  0  0  2  0  0  0  0  0  0
  3 18  1  0  0  0  0
  4 14  1  0  0  0  0
  5 19  1  6  0  0  0
  5 28  1  0  0  0  0
  6 15  2  0  0  0  0
  6 21  1  0  0  0  0
  7  9  2  0  0  0  0
  8  1  2  0  0  0  0
  8 13  1  0  0  0  0
  9 24  1  0  0  0  0
 10  8  1  0  0  0  0
 11  2  1  6  0  0  0
 11  5  1  0  0  0  0
 11  7  1  0  0  0  0
 12 10  2  0  0  0  0
 12 23  1  0  0  0  0
 13 17  1  0  0  0  0
 15 10  1  0  0  0  0
 16  4  2  0  0  0  0
 17  4  1  0  0  0  0
 18 22  2  0  0  0  0
 19  3  1  0  0  0  0
 20 16  1  0  0  0  0
 22  6  1  0  0  0  0
 23 20  2  0  0  0  0
 23 13  1  0  0  0  0
 24 20  1  0  0  0  0
 25 30  1  0  0  0  0
 26 28  1  0  0  0  0
 26 31  2  0  0  0  0
 27 32  1  1  0  0  0
 27 30  1  0  0  0  0
 27 29  1  0  0  0  0
 28 25  1  6  0  0  0
 29 26  1  0  0  0  0
 32 33  1  0  0  0  0
 33 35  1  0  0  0  0
 35 34  1  0  0  0  0
 36 18  1  0  0  0  0
 39 43  1  0  0  0  0
 39 41  1  1  0  0  0
 40 43  1  0  0  0  0
 42 45  1  0  0  0  0
 43 37  1  0  0  0  0
 43 38  1  0  0  0  0
 44 36  1  1  0  0  0
 44 42  1  0  0  0  0
 44 40  1  0  0  0  0
 45 39  1  0  0  0  0
M  END
>  <MODEL>
7

>  <REMARK>
 VINA RESULT:      -6.2      3.186      5.213
  Name = 
  6 active torsions:
  status: ('A' for Active; 'I' for Inactive)
    1  A    between atoms: C_1  and  C_34
    2  A    between atoms: C_1  and  C_36
    3  A    between atoms: N_8  and  C_16
    4  A    between atoms: C_14  and  S_23
    5  A    between atoms: S_23  and  C_39
    6  A    between atoms: C_39  and  C_40
                            x       y       z     vdW  Elec       q    Type
                         _______ _______ _______ _____ _____    ______ ____

>  <TORSDO>
F 6

$$$$
=
 OpenBabel10232408303D

 45 49  0  0  1  0  0  0  0  0999 V2000
  181.7260  179.9350  140.2080 O   0  0  0  0  0  0  0  0  0  0  0  0
  181.3140  176.1700  134.3540 O   0  0  0  0  0  1  0  0  0  0  0  0
  182.2470  175.1020  136.9550 C   0  0  0  0  0  2  0  0  0  0  0  0
  181.2250  183.0030  136.9800 C   0  0  0  0  0  0  0  0  0  0  0  0
  183.1720  176.6890  135.7340 N   0  0  1  0  0  0  0  0  0  0  0  0
  182.3350  176.7660  139.4580 C   0  0  0  0  0  0  0  0  0  0  0  0
  182.0110  178.4590  134.5250 C   0  0  0  0  0  3  0  0  0  0  0  0
  181.2970  179.8090  139.0300 C   0  0  0  0  0  0  0  0  0  0  0  0
  180.7400  178.8470  134.3460 C   0  0  0  0  0  3  0  0  0  0  0  0
  181.0370  178.5580  138.2950 C   0  0  0  0  0  0  0  0  0  0  0  0
  182.4310  177.0070  134.5000 C   0  0  2  0  0  3  0  0  0  0  0  0
  180.5820  178.8390  137.1170 N   0  0  0  0  0  0  0  0  0  0  0  0
  180.9420  180.9070  138.2020 N   0  0  0  0  0  0  0  0  0  0  0  0
  181.4950  184.4640  136.9340 C   0  0  0  0  0  1  0  0  0  0  0  0
  181.5530  177.2420  138.5330 N   0  0  0  0  0  0  0  0  0  0  0  0
  180.8270  182.3750  135.8610 C   0  0  0  0  0  3  0  0  0  0  0  0
  181.5170  182.2490  138.2550 C   0  0  0  0  0  2  0  0  0  0  0  0
  182.9150  174.7020  138.2400 C   0  0  0  0  0  0  0  0  0  0  0  0
  183.1870  175.3400  135.9410 O   0  0  0  0  0  0  0  0  0  0  0  0
  180.5690  180.9210  135.8230 C   0  0  0  0  0  0  0  0  0  0  0  0
  182.7500  177.5580  140.5720 N   0  0  0  0  0  1  0  0  0  0  0  0
  182.9060  175.4560  139.3090 N   0  0  0  0  0  0  0  0  0  0  0  0
  180.5700  180.2570  136.9920 C   0  0  0  0  0  0  0  0  0  0  0  0
  180.3130  180.2860  134.4710 C   0  0  0  0  0  2  0  0  0  0  0  0
  185.4000  176.1550  134.7280 C   0  0  0  0  0  2  0  0  0  0  0  0
  185.1760  177.5270  136.8990 C   0  0  0  0  0  0  0  0  0  0  0  0
  187.1460  175.9840  136.4330 C   0  0  1  0  0  3  0  0  0  0  0  0
  184.5620  177.1450  135.5660 C   0  0  2  0  0  3  0  0  0  0  0  0
  186.5420  177.0550  137.3370 C   0  0  0  0  0  2  0  0  0  0  0  0
  186.8870  176.3150  134.9750 C   0  0  0  0  0  2  0  0  0  0  0  0
  184.6270  178.5250  137.5860 C   0  0  0  0  0  2  0  0  0  0  0  0
  188.9340  175.8610  136.7450 S   0  0  0  0  0  0  0  0  0  0  0  0
  188.8310  176.6990  138.3600 C   0  0  0  0  0  2  0  0  0  0  0  0
  190.7890  175.8480  139.4150 O   0  0  0  0  0  1  0  0  0  0  0  0
  190.2240  177.0020  138.8710 C   0  0  0  0  0  2  0  0  0  0  0  0
  183.5890  173.3710  138.3010 C   0  0  0  0  0  2  0  0  0  0  0  0
  184.3570  170.4980  134.4580 F   0  0  0  0  0  0  0  0  0  0  0  0
  185.4720  170.0920  136.3680 F   0  0  0  0  0  0  0  0  0  0  0  0
  186.1040  171.9960  135.0740 C   0  0  1  0  0  3  0  0  0  0  0  0
  183.9060  171.8850  136.3290 C   0  0  0  0  0  2  0  0  0  0  0  0
  187.0370  171.2750  134.3500 F   0  0  0  0  0  0  0  0  0  0  0  0
  185.9170  172.8950  137.4680 C   0  0  0  0  0  2  0  0  0  0  0  0
  184.9640  171.0880  135.5500 C   0  0  0  0  0  0  0  0  0  0  0  0
  184.4570  173.1100  137.0750 C   0  0  2  0  0  3  0  0  0  0  0  0
  186.8010  172.7310  136.2280 C   0  0  0  0  0  2  0  0  0  0  0  0
  3 18  1  0  0  0  0
  4 17  1  0  0  0  0
  5 19  1  6  0  0  0
  6 21  1  0  0  0  0
  8  1  2  0  0  0  0
  9 24  1  0  0  0  0
  9  7  2  0  0  0  0
 10 15  1  0  0  0  0
 10  8  1  0  0  0  0
 11  2  1  1  0  0  0
 11  7  1  0  0  0  0
 11  5  1  0  0  0  0
 12 10  2  0  0  0  0
 13 17  1  0  0  0  0
 13  8  1  0  0  0  0
 14  4  1  0  0  0  0
 15  6  2  0  0  0  0
 16  4  2  0  0  0  0
 18 36  1  0  0  0  0
 18 22  2  0  0  0  0
 19  3  1  0  0  0  0
 20 16  1  0  0  0  0
 20 23  2  0  0  0  0
 22  6  1  0  0  0  0
 23 12  1  0  0  0  0
 23 13  1  0  0  0  0
 24 20  1  0  0  0  0
 25 30  1  0  0  0  0
 26 29  1  0  0  0  0
 26 31  2  0  0  0  0
 27 32  1  6  0  0  0
 27 29  1  0  0  0  0
 28 25  1  1  0  0  0
 28  5  1  0  0  0  0
 28 26  1  0  0  0  0
 30 27  1  0  0  0  0
 32 33  1  0  0  0  0
 33 35  1  0  0  0  0
 35 34  1  0  0  0  0
 37 43  1  0  0  0  0
 39 41  1  1  0  0  0
 39 43  1  0  0  0  0
 39 45  1  0  0  0  0
 40 44  1  0  0  0  0
 43 40  1  0  0  0  0
 43 38  1  0  0  0  0
 44 42  1  0  0  0  0
 44 36  1  1  0  0  0
 45 42  1  0  0  0  0
M  END
>  <MODEL>
8

>  <REMARK>
 VINA RESULT:      -5.9      4.974      8.885
  Name = 
  6 active torsions:
  status: ('A' for Active; 'I' for Inactive)
    1  A    between atoms: C_1  and  C_34
    2  A    between atoms: C_1  and  C_36
    3  A    between atoms: N_8  and  C_16
    4  A    between atoms: C_14  and  S_23
    5  A    between atoms: S_23  and  C_39
    6  A    between atoms: C_39  and  C_40
                            x       y       z     vdW  Elec       q    Type
                         _______ _______ _______ _____ _____    ______ ____

>  <TORSDO>
F 6

$$$$
=
 OpenBabel10232408303D

 45 49  0  0  1  0  0  0  0  0999 V2000
  197.6180  176.4030  135.2800 O   0  0  0  0  0  0  0  0  0  0  0  0
  192.1410  172.1180  134.7810 O   0  0  0  0  0  1  0  0  0  0  0  0
  192.0010  175.0490  134.3740 C   0  0  0  0  0  2  0  0  0  0  0  0
  199.0540  172.5890  137.1430 C   0  0  0  0  0  0  0  0  0  0  0  0
  192.5380  173.9630  136.2170 N   0  0  1  0  0  0  0  0  0  0  0  0
  194.4180  176.8300  134.5370 C   0  0  0  0  0  0  0  0  0  0  0  0
  193.9240  171.9650  136.3780 C   0  0  0  0  0  3  0  0  0  0  0  0
  197.1660  175.2310  135.1780 C   0  0  0  0  0  0  0  0  0  0  0  0
  194.6000  171.1740  135.5320 C   0  0  0  0  0  3  0  0  0  0  0  0
  195.8870  174.8080  134.5800 C   0  0  0  0  0  0  0  0  0  0  0  0
  192.5430  172.4960  136.0710 C   0  0  2  0  0  3  0  0  0  0  0  0
  195.7890  173.5190  134.6440 N   0  0  0  0  0  0  0  0  0  0  0  0
  197.8730  174.0780  135.6080 N   0  0  0  0  0  0  0  0  0  0  0  0
  200.1860  172.2830  138.0570 C   0  0  0  0  0  1  0  0  0  0  0  0
  194.6970  175.5740  134.3460 N   0  0  0  0  0  0  0  0  0  0  0  0
  198.1900  171.6120  136.8200 C   0  0  0  0  0  3  0  0  0  0  0  0
  198.8440  174.0170  136.6970 C   0  0  0  0  0  2  0  0  0  0  0  0
  191.9720  176.5500  134.4060 C   0  0  0  0  0  0  0  0  0  0  0  0
  191.4730  174.5000  135.5520 O   0  0  0  0  0  0  0  0  0  0  0  0
  197.0260  171.8480  135.9430 C   0  0  0  0  0  0  0  0  0  0  0  0
  195.4120  177.7670  134.9520 N   0  0  0  0  0  1  0  0  0  0  0  0
  193.0550  177.2800  134.4570 N   0  0  0  0  0  0  0  0  0  0  0  0
  196.9450  173.0370  135.3210 C   0  0  0  0  0  0  0  0  0  0  0  0
  196.0130  170.7300  135.8000 C   0  0  0  0  0  2  0  0  0  0  0  0
  190.9560  174.7090  138.0070 C   0  0  0  0  0  2  0  0  0  0  0  0
  193.4760  175.2460  138.1010 C   0  0  0  0  0  0  0  0  0  0  0  0
  191.6940  176.7920  139.0570 C   0  0  1  0  0  3  0  0  0  0  0  0
  192.3960  174.2820  137.6480 C   0  0  2  0  0  3  0  0  0  0  0  0
  193.1810  176.4780  138.9230 C   0  0  0  0  0  2  0  0  0  0  0  0
  190.9040  175.5170  139.2880 C   0  0  0  0  0  2  0  0  0  0  0  0
  194.7460  174.8580  138.0180 C   0  0  0  0  0  2  0  0  0  0  0  0
  191.4380  177.9520  140.4350 S   0  0  0  0  0  0  0  0  0  0  0  0
  190.6130  176.7110  141.4840 C   0  0  0  0  0  2  0  0  0  0  0  0
  191.5700  176.0790  143.5710 O   0  0  0  0  0  1  0  0  0  0  0  0
  190.8050  177.0640  142.9440 C   0  0  0  0  0  2  0  0  0  0  0  0
  190.6440  177.2320  134.3460 C   0  0  0  0  0  2  0  0  0  0  0  0
  186.6460  175.8430  136.7340 F   0  0  0  0  0  0  0  0  0  0  0  0
  186.7470  177.9240  135.8870 F   0  0  0  0  0  0  0  0  0  0  0  0
  188.0720  177.4210  137.8080 C   0  0  1  0  0  3  0  0  0  0  0  0
  188.5900  176.4600  135.5210 C   0  0  0  0  0  2  0  0  0  0  0  0
  187.0690  177.8010  138.6800 F   0  0  0  0  0  0  0  0  0  0  0  0
  189.6930  178.6180  136.2210 C   0  0  0  0  0  2  0  0  0  0  0  0
  187.4830  176.9140  136.4860 C   0  0  0  0  0  0  0  0  0  0  0  0
  189.9230  177.2040  135.6890 C   0  0  2  0  0  3  0  0  0  0  0  0
  189.0570  178.5840  137.6140 C   0  0  0  0  0  2  0  0  0  0  0  0
  3 18  1  0  0  0  0
  3 19  1  0  0  0  0
  4 14  1  0  0  0  0
  5 19  1  6  0  0  0
  5 28  1  0  0  0  0
  6 21  1  0  0  0  0
  8  1  2  0  0  0  0
  8 13  1  0  0  0  0
  9 24  1  0  0  0  0
  9  7  2  0  0  0  0
 10 12  2  0  0  0  0
 10  8  1  0  0  0  0
 11  2  1  6  0  0  0
 11  5  1  0  0  0  0
 11  7  1  0  0  0  0
 12 23  1  0  0  0  0
 13 17  1  0  0  0  0
 15  6  2  0  0  0  0
 15 10  1  0  0  0  0
 16  4  2  0  0  0  0
 17  4  1  0  0  0  0
 18 22  2  0  0  0  0
 20 16  1  0  0  0  0
 22  6  1  0  0  0  0
 23 13  1  0  0  0  0
 23 20  2  0  0  0  0
 24 20  1  0  0  0  0
 25 30  1  0  0  0  0
 26 29  1  0  0  0  0
 27 30  1  0  0  0  0
 27 32  1  1  0  0  0
 28 25  1  6  0  0  0
 28 26  1  0  0  0  0
 29 27  1  0  0  0  0
 31 26  2  0  0  0  0
 32 33  1  0  0  0  0
 33 35  1  0  0  0  0
 35 34  1  0  0  0  0
 36 18  1  0  0  0  0
 38 43  1  0  0  0  0
 39 41  1  1  0  0  0
 40 44  1  0  0  0  0
 40 43  1  0  0  0  0
 42 45  1  0  0  0  0
 43 37  1  0  0  0  0
 43 39  1  0  0  0  0
 44 36  1  6  0  0  0
 44 42  1  0  0  0  0
 45 39  1  0  0  0  0
M  END
>  <MODEL>
9

>  <REMARK>
 VINA RESULT:      -5.2      5.281      8.398
  Name = 
  6 active torsions:
  status: ('A' for Active; 'I' for Inactive)
    1  A    between atoms: C_1  and  C_34
    2  A    between atoms: C_1  and  C_36
    3  A    between atoms: N_8  and  C_16
    4  A    between atoms: C_14  and  S_23
    5  A    between atoms: S_23  and  C_39
    6  A    between atoms: C_39  and  C_40
                            x       y       z     vdW  Elec       q    Type
                         _______ _______ _______ _____ _____    ______ ____

>  <TORSDO>
F 6

$$$$
