=
 OpenBabel10232408323D

 53 59  0  0  1  0  0  0  0  0999 V2000
  188.3120  178.1600  137.6130 C   0  0  1  0  0  3  0  0  0  0  0  0
  190.9220  174.1730  135.9310 C   0  0  0  0  0  2  0  0  0  0  0  0
  188.1410  177.1140  138.7150 C   0  0  1  0  0  3  0  0  0  0  0  0
  187.6710  175.7220  136.6770 C   0  0  2  0  0  3  0  0  0  0  0  0
  189.9350  174.7380  136.9350 C   0  0  2  0  0  3  0  0  0  0  0  0
  193.8140  174.6250  137.5570 C   0  0  0  0  0  2  0  0  0  0  0  0
  188.4980  174.4510  136.4900 C   0  0  0  0  0  2  0  0  0  0  0  0
  191.2250  176.8120  137.8500 C   0  0  0  0  0  2  0  0  0  0  0  0
  191.9370  173.4950  136.6100 O   0  0  0  0  0  0  0  0  0  0  0  0
  187.2870  176.1910  135.4190 O   0  0  0  0  0  1  0  0  0  0  0  0
  193.1180  174.1650  136.2800 C   0  0  2  0  0  3  0  0  0  0  0  0
  191.9460  175.8000  138.4930 O   0  0  0  0  0  0  0  0  0  0  0  0
  190.0580  176.2500  137.0250 C   0  0  2  0  0  3  0  0  0  0  0  0
  188.6340  176.6980  137.3250 C   0  0  1  0  0  0  0  0  0  0  0  0
  193.2550  175.9570  138.0350 C   0  0  0  0  0  2  0  0  0  0  0  0
  189.1810  177.3220  139.7600 C   0  0  0  0  0  3  0  0  0  0  0  0
  188.8290  177.6120  141.0030 C   0  0  0  0  0  3  0  0  0  0  0  0
  189.8540  177.7970  142.0210 C   0  0  0  0  0  3  0  0  0  0  0  0
  189.5200  177.8320  143.3010 C   0  0  0  0  0  3  0  0  0  0  0  0
  190.5700  178.0120  144.3380 C   0  0  0  0  0  2  0  0  0  0  0  0
  190.8130  176.6940  145.0470 C   0  0  0  0  0  2  0  0  0  0  0  0
  191.5690  176.1030  147.4070 C   0  0  0  0  0  2  0  0  0  0  0  0
  191.7060  177.4930  147.1840 O   0  0  0  0  0  0  0  0  0  0  0  0
  190.6350  176.8490  146.5480 C   0  0  1  0  0  0  0  0  0  0  0  0
  187.9160  177.5800  146.0220 O   0  0  0  0  0  0  0  0  0  0  0  0
  189.0110  177.2520  147.2680 P   0  0  0  0  0  0  0  0  0  0  0  0
  188.5020  176.0890  148.0890 O   0  0  0  0  0  1  0  0  0  0  0  0
  189.1530  178.6140  148.2600 O   0  0  0  0  0  1  0  0  0  0  0  0
  186.9460  178.5830  137.0910 C   0  0  0  0  0  2  0  0  0  0  0  0
  184.8340  178.0400  138.3790 C   0  0  0  0  0  0  0  0  0  0  0  0
  184.5180  177.1550  137.5360 O   0  0  0  0  0  0  0  0  0  0  0  0
  186.0310  178.8040  138.2000 N   0  0  0  0  0  2  0  0  0  0  0  0
  183.9640  178.2920  139.5420 C   0  0  0  0  0  0  0  0  0  0  0  0
  181.2780  179.0810  143.1390 Cl  0  0  0  0  0  0  0  0  0  0  0  0
  181.7760  178.8180  140.4650 C   0  0  0  0  0  3  0  0  0  0  0  0
  182.3100  178.7790  141.7560 C   0  0  0  0  0  0  0  0  0  0  0  0
  182.6010  178.5730  139.3610 C   0  0  0  0  0  3  0  0  0  0  0  0
  183.6670  178.5030  141.9450 C   0  0  0  0  0  3  0  0  0  0  0  0
  184.4920  178.2620  140.8420 C   0  0  0  0  0  3  0  0  0  0  0  0
  194.0260  173.2180  135.5140 C   0  0  0  0  0  2  0  0  0  0  0  0
  195.3130  173.2440  136.0550 O   0  0  0  0  0  0  0  0  0  0  0  0
  198.0170  173.4350  136.0860 C   0  0  0  0  0  1  0  0  0  0  0  0
  198.0450  171.5330  134.4470 C   0  0  0  0  0  1  0  0  0  0  0  0
  198.3620  170.5660  137.5240 O   0  0  0  0  0  0  0  0  0  0  0  0
  197.4090  172.0880  135.7100 C   0  0  0  0  0  0  0  0  0  0  0  0
  197.4880  171.0980  136.8580 C   0  0  0  0  0  0  0  0  0  0  0  0
  195.9020  172.0450  135.6380 C   0  0  1  0  0  3  0  0  0  0  0  0
  195.9630  171.0900  136.7950 C   0  0  1  0  0  3  0  0  0  0  0  0
  195.3480  169.7210  136.4420 C   0  0  0  0  0  0  0  0  0  0  0  0
  193.8330  169.7250  136.4580 C   0  0  0  0  0  2  0  0  0  0  0  0
  195.3680  168.6710  137.5400 C   0  0  0  0  0  2  0  0  0  0  0  0
  193.8490  168.6660  137.5470 C   0  0  0  0  0  2  0  0  0  0  0  0
  195.8330  169.2200  135.2480 F   0  0  0  0  0  0  0  0  0  0  0  0
  1 29  1  6  0  0  0
  1  3  1  0  0  0  0
  2  9  1  0  0  0  0
  3 16  1  1  0  0  0
  4 10  1  6  0  0  0
  4 14  1  0  0  0  0
  5  2  1  6  0  0  0
  5 13  1  0  0  0  0
  6 15  1  0  0  0  0
  7  4  1  0  0  0  0
  7  5  1  0  0  0  0
  8 12  1  0  0  0  0
 11 40  1  1  0  0  0
 11  9  1  0  0  0  0
 11  6  1  0  0  0  0
 13 14  1  0  0  0  0
 13  8  1  1  0  0  0
 14  1  1  0  0  0  0
 14  3  1  0  0  0  0
 15 12  1  0  0  0  0
 16 17  2  0  0  0  0
 17 18  1  0  0  0  0
 18 19  2  0  0  0  0
 19 20  1  0  0  0  0
 20 21  1  0  0  0  0
 21 24  1  0  0  0  0
 23 22  1  0  0  0  0
 24 23  1  0  0  0  0
 24 26  1  0  0  0  0
 24 22  1  0  0  0  0
 25 26  2  0  0  0  0
 26 27  1  0  0  0  0
 26 28  1  0  0  0  0
 29 32  1  0  0  0  0
 30 33  1  0  0  0  0
 31 30  2  0  0  0  0
 32 30  1  0  0  0  0
 33 39  1  0  0  0  0
 35 36  2  0  0  0  0
 36 38  1  0  0  0  0
 36 34  1  0  0  0  0
 37 33  2  0  0  0  0
 37 35  1  0  0  0  0
 39 38  2  0  0  0  0
 40 41  1  0  0  0  0
 43 45  1  0  0  0  0
 45 42  1  0  0  0  0
 45 46  1  0  0  0  0
 46 44  2  0  0  0  0
 47 45  1  0  0  0  0
 47 41  1  0  0  0  0
 47 48  1  0  0  0  0
 48 46  1  0  0  0  0
 49 50  1  0  0  0  0
 49 48  1  0  0  0  0
 49 51  1  0  0  0  0
 50 52  1  0  0  0  0
 51 52  1  0  0  0  0
 53 49  1  0  0  0  0
M  END
>  <MODEL>
1

>  <REMARK>
 VINA RESULT:      -7.7      0.000      0.000
  Name = 
  13 active torsions:
  status: ('A' for Active; 'I' for Inactive)
    1  A    between atoms: C_3  and  C_17
    2  A    between atoms: C_4  and  C_10
    3  A    between atoms: C_5  and  C_26
    4  A    between atoms: C_6  and  C_53
    5  A    between atoms: P_8  and  C_48
    6  A    between atoms: C_14  and  C_33
    7  A    between atoms: C_18  and  C_50
    8  A    between atoms: C_26  and  N_43
    9  A    between atoms: C_30  and  C_37
   10  A    between atoms: C_30  and  O_52
   11  A    between atoms: C_47  and  C_48
   12  A    between atoms: C_47  and  C_50
   13  A    between atoms: C_49  and  O_52
                            x       y       z     vdW  Elec       q    Type
                         _______ _______ _______ _____ _____    ______ ____

>  <TORSDO>
F 13

$$$$
=
 OpenBabel10232408323D

 53 59  0  0  1  0  0  0  0  0999 V2000
  189.5940  175.5160  136.9940 C   0  0  1  0  0  3  0  0  0  0  0  0
  185.3660  178.2290  137.5440 C   0  0  0  0  0  2  0  0  0  0  0  0
  190.0600  176.9640  136.8320 C   0  0  1  0  0  3  0  0  0  0  0  0
  188.0300  176.9600  135.3500 C   0  0  2  0  0  3  0  0  0  0  0  0
  186.8280  178.1880  137.1410 C   0  0  2  0  0  3  0  0  0  0  0  0
  185.6190  179.0790  140.7720 C   0  0  0  0  0  2  0  0  0  0  0  0
  186.9580  178.0140  135.6250 C   0  0  0  0  0  2  0  0  0  0  0  0
  187.9350  177.1130  139.2440 C   0  0  0  0  0  2  0  0  0  0  0  0
  185.1620  179.2830  138.4390 O   0  0  0  0  0  0  0  0  0  0  0  0
  187.4180  175.8420  134.7810 O   0  0  0  0  0  1  0  0  0  0  0  0
  184.7050  178.6870  139.6170 C   0  0  2  0  0  3  0  0  0  0  0  0
  187.6780  178.3890  139.7560 O   0  0  0  0  0  0  0  0  0  0  0  0
  187.5290  176.9930  137.7670 C   0  0  2  0  0  3  0  0  0  0  0  0
  188.5710  176.6140  136.7240 C   0  0  1  0  0  0  0  0  0  0  0  0
  186.8330  178.1660  140.8440 C   0  0  0  0  0  2  0  0  0  0  0  0
  190.5320  177.4820  138.1450 C   0  0  0  0  0  3  0  0  0  0  0  0
  191.4360  176.8090  138.8410 C   0  0  0  0  0  3  0  0  0  0  0  0
  191.9030  177.3330  140.1180 C   0  0  0  0  0  3  0  0  0  0  0  0
  191.1800  177.1560  141.2120 C   0  0  0  0  0  3  0  0  0  0  0  0
  191.6650  177.6850  142.5140 C   0  0  0  0  0  2  0  0  0  0  0  0
  191.7110  176.5620  143.5310 C   0  0  0  0  0  2  0  0  0  0  0  0
  191.4910  176.4840  146.0680 C   0  0  0  0  0  2  0  0  0  0  0  0
  191.6130  177.8230  145.6290 O   0  0  0  0  0  0  0  0  0  0  0  0
  190.9340  176.9350  144.7820 C   0  0  1  0  0  0  0  0  0  0  0  0
  188.4960  177.0390  146.2820 O   0  0  0  0  0  1  0  0  0  0  0  0
  189.1350  177.2130  144.7260 P   0  0  0  0  0  0  0  0  0  0  0  0
  188.8400  178.6060  144.2180 O   0  0  0  0  0  1  0  0  0  0  0  0
  188.4170  176.0800  143.6960 O   0  0  0  0  0  0  0  0  0  0  0  0
  189.9550  174.7200  135.7480 C   0  0  0  0  0  2  0  0  0  0  0  0
  192.4360  174.3740  136.1230 C   0  0  0  0  0  0  0  0  0  0  0  0
  192.2070  173.6660  137.1430 O   0  0  0  0  0  0  0  0  0  0  0  0
  191.3470  174.9470  135.3920 N   0  0  0  0  0  2  0  0  0  0  0  0
  193.8230  174.6160  135.6920 C   0  0  0  0  0  0  0  0  0  0  0  0
  198.1160  175.3560  134.3480 Cl  0  0  0  0  0  0  0  0  0  0  0  0
  195.4430  175.9170  134.4260 C   0  0  0  0  0  3  0  0  0  0  0  0
  196.4660  175.0710  134.8630 C   0  0  0  0  0  0  0  0  0  0  0  0
  194.1250  175.6910  134.8410 C   0  0  0  0  0  3  0  0  0  0  0  0
  196.1740  173.9970  135.7070 C   0  0  0  0  0  3  0  0  0  0  0  0
  194.8570  173.7680  136.1180 C   0  0  0  0  0  3  0  0  0  0  0  0
  183.2910  179.1660  139.8970 C   0  0  0  0  0  2  0  0  0  0  0  0
  182.6640  178.3100  140.8040 O   0  0  0  0  0  0  0  0  0  0  0  0
  180.0050  178.1390  141.3060 C   0  0  0  0  0  1  0  0  0  0  0  0
  180.2040  180.3680  142.4440 C   0  0  0  0  0  1  0  0  0  0  0  0
  180.4610  177.8670  144.4890 O   0  0  0  0  0  0  0  0  0  0  0  0
  180.8450  179.0060  142.2380 C   0  0  0  0  0  0  0  0  0  0  0  0
  181.1150  178.3090  143.5580 C   0  0  0  0  0  0  0  0  0  0  0  0
  182.3070  179.1280  141.8820 C   0  0  1  0  0  3  0  0  0  0  0  0
  182.5880  178.4100  143.1700 C   0  0  1  0  0  3  0  0  0  0  0  0
  183.4420  179.2640  144.1280 C   0  0  0  0  0  0  0  0  0  0  0  0
  184.9320  179.0660  143.9380 C   0  0  0  0  0  2  0  0  0  0  0  0
  183.5470  178.7670  145.5600 C   0  0  0  0  0  2  0  0  0  0  0  0
  185.0440  178.5810  145.3730 C   0  0  0  0  0  2  0  0  0  0  0  0
  183.1060  180.6040  144.0770 F   0  0  0  0  0  0  0  0  0  0  0  0
  1 29  1  6  0  0  0
  2  9  1  0  0  0  0
  3  1  1  0  0  0  0
  3 16  1  1  0  0  0
  4 10  1  1  0  0  0
  4  7  1  0  0  0  0
  4 14  1  0  0  0  0
  5  7  1  6  0  0  0
  5  2  1  0  0  0  0
  5 13  1  0  0  0  0
  6 15  1  0  0  0  0
  8 12  1  0  0  0  0
  9 11  1  0  0  0  0
 11 40  1  1  0  0  0
 11  6  1  0  0  0  0
 12 15  1  0  0  0  0
 13  8  1  1  0  0  0
 14  3  1  0  0  0  0
 14  1  1  0  0  0  0
 14 13  1  0  0  0  0
 16 17  2  0  0  0  0
 17 18  1  0  0  0  0
 18 19  2  0  0  0  0
 19 20  1  0  0  0  0
 20 21  1  0  0  0  0
 21 24  1  0  0  0  0
 23 22  1  0  0  0  0
 24 23  1  0  0  0  0
 24 22  1  0  0  0  0
 26 24  1  0  0  0  0
 26 25  1  0  0  0  0
 27 26  1  0  0  0  0
 28 26  2  0  0  0  0
 30 31  2  0  0  0  0
 32 29  1  0  0  0  0
 32 30  1  0  0  0  0
 33 39  1  0  0  0  0
 33 30  1  0  0  0  0
 34 36  1  0  0  0  0
 35 37  1  0  0  0  0
 35 36  2  0  0  0  0
 36 38  1  0  0  0  0
 37 33  2  0  0  0  0
 38 39  2  0  0  0  0
 40 41  1  0  0  0  0
 41 47  1  0  0  0  0
 42 45  1  0  0  0  0
 45 43  1  0  0  0  0
 45 46  1  0  0  0  0
 46 44  2  0  0  0  0
 47 45  1  0  0  0  0
 47 48  1  0  0  0  0
 48 46  1  0  0  0  0
 48 49  1  0  0  0  0
 49 51  1  0  0  0  0
 50 49  1  0  0  0  0
 50 52  1  0  0  0  0
 52 51  1  0  0  0  0
 53 49  1  0  0  0  0
M  END
>  <MODEL>
2

>  <REMARK>
 VINA RESULT:      -7.6      4.498     11.226
  Name = 
  13 active torsions:
  status: ('A' for Active; 'I' for Inactive)
    1  A    between atoms: C_3  and  C_17
    2  A    between atoms: C_4  and  C_10
    3  A    between atoms: C_5  and  C_26
    4  A    between atoms: C_6  and  C_53
    5  A    between atoms: P_8  and  C_48
    6  A    between atoms: C_14  and  C_33
    7  A    between atoms: C_18  and  C_50
    8  A    between atoms: C_26  and  N_43
    9  A    between atoms: C_30  and  C_37
   10  A    between atoms: C_30  and  O_52
   11  A    between atoms: C_47  and  C_48
   12  A    between atoms: C_47  and  C_50
   13  A    between atoms: C_49  and  O_52
                            x       y       z     vdW  Elec       q    Type
                         _______ _______ _______ _____ _____    ______ ____

>  <TORSDO>
F 13

$$$$
=
 OpenBabel10232408323D

 53 59  0  0  1  0  0  0  0  0999 V2000
  188.6650  178.1660  137.4370 C   0  0  1  0  0  3  0  0  0  0  0  0
  191.2070  174.1760  135.6610 C   0  0  0  0  0  2  0  0  0  0  0  0
  188.3770  177.0610  138.4550 C   0  0  1  0  0  3  0  0  0  0  0  0
  187.9840  175.8240  136.3030 C   0  0  2  0  0  3  0  0  0  0  0  0
  190.1820  174.7210  136.6370 C   0  0  2  0  0  3  0  0  0  0  0  0
  194.0030  174.3890  137.4910 C   0  0  0  0  0  2  0  0  0  0  0  0
  188.7660  174.5300  136.0840 C   0  0  0  0  0  2  0  0  0  0  0  0
  191.4960  176.6710  137.7660 C   0  0  0  0  0  2  0  0  0  0  0  0
  192.1470  173.4090  136.3560 O   0  0  0  0  0  0  0  0  0  0  0  0
  187.7030  176.3890  135.0580 O   0  0  0  0  0  1  0  0  0  0  0  0
  193.3740  174.0430  136.1460 C   0  0  2  0  0  3  0  0  0  0  0  0
  192.1290  175.5880  138.3850 O   0  0  0  0  0  0  0  0  0  0  0  0
  190.3620  176.2180  136.8340 C   0  0  2  0  0  3  0  0  0  0  0  0
  188.9420  176.7120  137.0730 C   0  0  1  0  0  0  0  0  0  0  0  0
  193.4710  175.7120  138.0210 C   0  0  0  0  0  2  0  0  0  0  0  0
  189.3540  177.1540  139.5740 C   0  0  0  0  0  3  0  0  0  0  0  0
  188.9310  177.3290  140.8160 C   0  0  0  0  0  3  0  0  0  0  0  0
  189.8950  177.4020  141.9060 C   0  0  0  0  0  3  0  0  0  0  0  0
  189.6030  178.0760  143.0070 C   0  0  0  0  0  3  0  0  0  0  0  0
  190.5860  178.1410  144.1200 C   0  0  0  0  0  2  0  0  0  0  0  0
  190.6830  176.7830  144.7890 C   0  0  0  0  0  2  0  0  0  0  0  0
  191.6060  176.1440  147.0750 C   0  0  0  0  0  2  0  0  0  0  0  0
  191.7580  177.5330  146.8590 O   0  0  0  0  0  0  0  0  0  0  0  0
  190.6260  176.9210  146.3000 C   0  0  1  0  0  0  0  0  0  0  0  0
  187.9790  177.9820  146.0240 O   0  0  0  0  0  0  0  0  0  0  0  0
  189.0730  177.3500  147.1490 P   0  0  0  0  0  0  0  0  0  0  0  0
  188.4740  176.1200  147.7920 O   0  0  0  0  0  1  0  0  0  0  0  0
  189.3800  178.5090  148.3420 O   0  0  0  0  0  1  0  0  0  0  0  0
  187.3540  178.6830  136.8600 C   0  0  0  0  0  2  0  0  0  0  0  0
  185.1570  178.1030  137.9770 C   0  0  0  0  0  0  0  0  0  0  0  0
  184.8860  177.2710  137.0660 O   0  0  0  0  0  0  0  0  0  0  0  0
  186.3720  178.8560  137.9190 N   0  0  0  0  0  2  0  0  0  0  0  0
  184.2170  178.3020  139.0940 C   0  0  0  0  0  0  0  0  0  0  0  0
  181.3120  178.9300  142.5500 Cl  0  0  0  0  0  0  0  0  0  0  0  0
  181.9450  178.5850  139.9140 C   0  0  0  0  0  3  0  0  0  0  0  0
  182.4280  178.6900  141.2210 C   0  0  0  0  0  0  0  0  0  0  0  0
  182.8370  178.3900  138.8540 C   0  0  0  0  0  3  0  0  0  0  0  0
  183.8010  178.6070  141.4690 C   0  0  0  0  0  3  0  0  0  0  0  0
  184.6930  178.4160  140.4100 C   0  0  0  0  0  3  0  0  0  0  0  0
  194.2890  173.1060  135.3770 C   0  0  0  0  0  2  0  0  0  0  0  0
  193.9190  171.7790  135.6070 O   0  0  0  0  0  0  0  0  0  0  0  0
  193.4150  169.1930  136.2470 C   0  0  0  0  0  1  0  0  0  0  0  0
  194.9800  169.4990  138.1860 C   0  0  0  0  0  1  0  0  0  0  0  0
  196.4310  168.2690  135.5620 O   0  0  0  0  0  0  0  0  0  0  0  0
  194.7380  169.7910  136.7160 C   0  0  0  0  0  0  0  0  0  0  0  0
  195.8970  169.3280  135.8540 C   0  0  0  0  0  0  0  0  0  0  0  0
  194.9470  171.2520  136.3980 C   0  0  1  0  0  3  0  0  0  0  0  0
  196.0770  170.8060  135.5150 C   0  0  1  0  0  3  0  0  0  0  0  0
  197.4250  171.4020  135.9650 C   0  0  0  0  0  0  0  0  0  0  0  0
  197.6780  172.7910  135.4130 C   0  0  0  0  0  2  0  0  0  0  0  0
  198.6620  170.8820  135.2520 C   0  0  0  0  0  2  0  0  0  0  0  0
  198.9230  172.2780  134.7100 C   0  0  0  0  0  2  0  0  0  0  0  0
  197.5800  171.3760  137.3390 F   0  0  0  0  0  0  0  0  0  0  0  0
  1 29  1  6  0  0  0
  1  3  1  0  0  0  0
  2  9  1  0  0  0  0
  3 16  1  1  0  0  0
  4 10  1  6  0  0  0
  4 14  1  0  0  0  0
  5  2  1  6  0  0  0
  5 13  1  0  0  0  0
  6 15  1  0  0  0  0
  7  4  1  0  0  0  0
  7  5  1  0  0  0  0
  8 12  1  0  0  0  0
 11 40  1  1  0  0  0
 11  9  1  0  0  0  0
 11  6  1  0  0  0  0
 13 14  1  0  0  0  0
 13  8  1  1  0  0  0
 14  1  1  0  0  0  0
 14  3  1  0  0  0  0
 15 12  1  0  0  0  0
 16 17  2  0  0  0  0
 17 18  1  0  0  0  0
 18 19  2  0  0  0  0
 19 20  1  0  0  0  0
 20 21  1  0  0  0  0
 21 24  1  0  0  0  0
 23 22  1  0  0  0  0
 24 23  1  0  0  0  0
 24 22  1  0  0  0  0
 24 26  1  0  0  0  0
 25 26  2  0  0  0  0
 26 27  1  0  0  0  0
 26 28  1  0  0  0  0
 29 32  1  0  0  0  0
 30 33  1  0  0  0  0
 31 30  2  0  0  0  0
 32 30  1  0  0  0  0
 33 39  1  0  0  0  0
 35 36  2  0  0  0  0
 36 38  1  0  0  0  0
 36 34  1  0  0  0  0
 37 33  2  0  0  0  0
 37 35  1  0  0  0  0
 39 38  2  0  0  0  0
 40 41  1  0  0  0  0
 41 47  1  0  0  0  0
 42 45  1  0  0  0  0
 44 46  2  0  0  0  0
 45 43  1  0  0  0  0
 46 45  1  0  0  0  0
 47 45  1  0  0  0  0
 48 46  1  0  0  0  0
 48 49  1  0  0  0  0
 48 47  1  0  0  0  0
 49 53  1  0  0  0  0
 50 49  1  0  0  0  0
 51 49  1  0  0  0  0
 52 51  1  0  0  0  0
 52 50  1  0  0  0  0
M  END
>  <MODEL>
3

>  <REMARK>
 VINA RESULT:      -7.5      0.944      2.071
  Name = 
  13 active torsions:
  status: ('A' for Active; 'I' for Inactive)
    1  A    between atoms: C_3  and  C_17
    2  A    between atoms: C_4  and  C_10
    3  A    between atoms: C_5  and  C_26
    4  A    between atoms: C_6  and  C_53
    5  A    between atoms: P_8  and  C_48
    6  A    between atoms: C_14  and  C_33
    7  A    between atoms: C_18  and  C_50
    8  A    between atoms: C_26  and  N_43
    9  A    between atoms: C_30  and  C_37
   10  A    between atoms: C_30  and  O_52
   11  A    between atoms: C_47  and  C_48
   12  A    between atoms: C_47  and  C_50
   13  A    between atoms: C_49  and  O_52
                            x       y       z     vdW  Elec       q    Type
                         _______ _______ _______ _____ _____    ______ ____

>  <TORSDO>
F 13

$$$$
=
 OpenBabel10232408323D

 53 59  0  0  1  0  0  0  0  0999 V2000
  190.6360  176.4880  139.8260 C   0  0  1  0  0  3  0  0  0  0  0  0
  193.3280  174.1410  136.2510 C   0  0  0  0  0  2  0  0  0  0  0  0
  190.4440  177.3610  138.5850 C   0  0  1  0  0  3  0  0  0  0  0  0
  192.9310  177.0050  138.5220 C   0  0  2  0  0  3  0  0  0  0  0  0
  192.5630  175.3760  136.6860 C   0  0  2  0  0  3  0  0  0  0  0  0
  190.9080  172.3940  134.7340 C   0  0  0  0  0  2  0  0  0  0  0  0
  193.5250  176.4330  137.2360 C   0  0  0  0  0  2  0  0  0  0  0  0
  190.2820  174.3590  137.4380 C   0  0  0  0  0  2  0  0  0  0  0  0
  192.8690  173.7290  134.9970 O   0  0  0  0  0  0  0  0  0  0  0  0
  193.7450  176.6320  139.5920 O   0  0  0  0  0  1  0  0  0  0  0  0
  192.3620  172.4410  135.1910 C   0  0  2  0  0  3  0  0  0  0  0  0
  190.1330  174.2400  136.0520 O   0  0  0  0  0  0  0  0  0  0  0  0
  191.6010  175.0480  137.8170 C   0  0  2  0  0  3  0  0  0  0  0  0
  191.5770  176.3310  138.6370 C   0  0  1  0  0  0  0  0  0  0  0  0
  189.9720  172.8700  135.8340 C   0  0  0  0  0  2  0  0  0  0  0  0
  189.1980  176.9510  137.8800 C   0  0  0  0  0  3  0  0  0  0  0  0
  188.1400  177.7470  137.8790 C   0  0  0  0  0  3  0  0  0  0  0  0
  186.9310  177.3430  137.1720 C   0  0  0  0  0  3  0  0  0  0  0  0
  186.8120  176.1060  136.7160 C   0  0  0  0  0  3  0  0  0  0  0  0
  185.5740  175.6960  136.0030 C   0  0  0  0  0  2  0  0  0  0  0  0
  185.5160  174.1830  135.9190 C   0  0  0  0  0  2  0  0  0  0  0  0
  184.1860  172.1790  136.7580 C   0  0  0  0  0  2  0  0  0  0  0  0
  184.7870  172.8560  137.8450 O   0  0  0  0  0  0  0  0  0  0  0  0
  184.3720  173.6390  136.7570 C   0  0  1  0  0  0  0  0  0  0  0  0
  182.4410  175.4730  135.7040 O   0  0  0  0  0  0  0  0  0  0  0  0
  182.8980  174.6480  137.1080 P   0  0  0  0  0  0  0  0  0  0  0  0
  181.7580  173.7640  137.5620 O   0  0  0  0  0  1  0  0  0  0  0  0
  183.2530  175.7680  138.3240 O   0  0  0  0  0  1  0  0  0  0  0  0
  191.2330  177.3220  140.9510 C   0  0  0  0  0  2  0  0  0  0  0  0
  189.7630  176.7230  142.9240 C   0  0  0  0  0  0  0  0  0  0  0  0
  190.2370  175.5530  142.9530 O   0  0  0  0  0  0  0  0  0  0  0  0
  190.2090  177.6510  141.9300 N   0  0  0  0  0  2  0  0  0  0  0  0
  188.7460  177.1280  143.9100 C   0  0  0  0  0  0  0  0  0  0  0  0
  185.5930  178.3700  146.9600 Cl  0  0  0  0  0  0  0  0  0  0  0  0
  188.1340  177.7260  146.1870 C   0  0  0  0  0  3  0  0  0  0  0  0
  186.8050  177.8910  145.7880 C   0  0  0  0  0  0  0  0  0  0  0  0
  189.1020  177.3480  145.2490 C   0  0  0  0  0  3  0  0  0  0  0  0
  186.4410  177.6720  144.4570 C   0  0  0  0  0  3  0  0  0  0  0  0
  187.4070  177.2900  143.5220 C   0  0  0  0  0  3  0  0  0  0  0  0
  193.1880  171.4580  134.3800 C   0  0  0  0  0  2  0  0  0  0  0  0
  193.3180  170.2530  135.0740 O   0  0  0  0  0  0  0  0  0  0  0  0
  193.9180  167.9900  136.4400 C   0  0  0  0  0  1  0  0  0  0  0  0
  194.7670  169.4740  138.2780 C   0  0  0  0  0  1  0  0  0  0  0  0
  197.0960  168.5190  136.2370 O   0  0  0  0  0  0  0  0  0  0  0  0
  194.7100  169.2490  136.7770 C   0  0  0  0  0  0  0  0  0  0  0  0
  196.0970  169.2180  136.1630 C   0  0  0  0  0  0  0  0  0  0  0  0
  194.2970  170.5010  136.0420 C   0  0  1  0  0  3  0  0  0  0  0  0
  195.6550  170.4650  135.4020 C   0  0  1  0  0  3  0  0  0  0  0  0
  196.4740  171.7310  135.7230 C   0  0  0  0  0  0  0  0  0  0  0  0
  196.3650  172.8000  134.6540 C   0  0  0  0  0  2  0  0  0  0  0  0
  197.9730  171.6380  135.4940 C   0  0  0  0  0  2  0  0  0  0  0  0
  197.8660  172.7190  134.4310 C   0  0  0  0  0  2  0  0  0  0  0  0
  196.1790  172.2440  136.9730 F   0  0  0  0  0  0  0  0  0  0  0  0
  1 29  1  1  0  0  0
  3 16  1  6  0  0  0
  3 14  1  0  0  0  0
  3  1  1  0  0  0  0
  4 14  1  0  0  0  0
  4 10  1  1  0  0  0
  5  2  1  1  0  0  0
  5  7  1  0  0  0  0
  5 13  1  0  0  0  0
  6 11  1  0  0  0  0
  6 15  1  0  0  0  0
  7  4  1  0  0  0  0
  9 11  1  0  0  0  0
  9  2  1  0  0  0  0
 11 40  1  6  0  0  0
 12  8  1  0  0  0  0
 13  8  1  6  0  0  0
 13 14  1  0  0  0  0
 14  1  1  0  0  0  0
 15 12  1  0  0  0  0
 17 16  2  0  0  0  0
 18 17  1  0  0  0  0
 19 18  2  0  0  0  0
 20 19  1  0  0  0  0
 21 20  1  0  0  0  0
 21 24  1  0  0  0  0
 22 23  1  0  0  0  0
 24 22  1  0  0  0  0
 24 26  1  0  0  0  0
 24 23  1  0  0  0  0
 25 26  2  0  0  0  0
 26 27  1  0  0  0  0
 26 28  1  0  0  0  0
 29 32  1  0  0  0  0
 30 31  2  0  0  0  0
 30 33  1  0  0  0  0
 32 30  1  0  0  0  0
 33 37  1  0  0  0  0
 36 35  1  0  0  0  0
 36 34  1  0  0  0  0
 37 35  2  0  0  0  0
 38 36  2  0  0  0  0
 39 33  2  0  0  0  0
 39 38  1  0  0  0  0
 40 41  1  0  0  0  0
 41 47  1  0  0  0  0
 42 45  1  0  0  0  0
 45 43  1  0  0  0  0
 46 44  2  0  0  0  0
 46 45  1  0  0  0  0
 47 45  1  0  0  0  0
 48 49  1  0  0  0  0
 48 47  1  0  0  0  0
 48 46  1  0  0  0  0
 49 53  1  0  0  0  0
 50 49  1  0  0  0  0
 51 49  1  0  0  0  0
 52 50  1  0  0  0  0
 52 51  1  0  0  0  0
M  END
>  <MODEL>
4

>  <REMARK>
 VINA RESULT:      -7.4      3.333      6.652
  Name = 
  13 active torsions:
  status: ('A' for Active; 'I' for Inactive)
    1  A    between atoms: C_3  and  C_17
    2  A    between atoms: C_4  and  C_10
    3  A    between atoms: C_5  and  C_26
    4  A    between atoms: C_6  and  C_53
    5  A    between atoms: P_8  and  C_48
    6  A    between atoms: C_14  and  C_33
    7  A    between atoms: C_18  and  C_50
    8  A    between atoms: C_26  and  N_43
    9  A    between atoms: C_30  and  C_37
   10  A    between atoms: C_30  and  O_52
   11  A    between atoms: C_47  and  C_48
   12  A    between atoms: C_47  and  C_50
   13  A    between atoms: C_49  and  O_52
                            x       y       z     vdW  Elec       q    Type
                         _______ _______ _______ _____ _____    ______ ____

>  <TORSDO>
F 13

$$$$
=
 OpenBabel10232408323D

 53 59  0  0  1  0  0  0  0  0999 V2000
  187.9710  175.7310  135.7800 C   0  0  1  0  0  3  0  0  0  0  0  0
  187.6570  178.1510  140.2050 C   0  0  0  0  0  2  0  0  0  0  0  0
  188.6900  177.0570  135.5280 C   0  0  1  0  0  3  0  0  0  0  0  0
  186.6140  177.8670  136.6900 C   0  0  2  0  0  3  0  0  0  0  0  0
  187.9920  178.2060  138.7260 C   0  0  2  0  0  3  0  0  0  0  0  0
  190.6470  177.3990  141.5090 C   0  0  0  0  0  2  0  0  0  0  0  0
  186.8000  178.7420  137.9290 C   0  0  0  0  0  2  0  0  0  0  0  0
  189.6570  176.2130  138.4790 C   0  0  0  0  0  2  0  0  0  0  0  0
  188.7180  178.6840  140.9410 O   0  0  0  0  0  0  0  0  0  0  0  0
  185.4050  177.1800  136.8090 O   0  0  0  0  0  1  0  0  0  0  0  0
  189.1630  177.6430  141.7600 C   0  0  2  0  0  3  0  0  0  0  0  0
  190.4950  177.1230  139.1320 O   0  0  0  0  0  0  0  0  0  0  0  0
  188.2750  176.8140  138.1830 C   0  0  2  0  0  3  0  0  0  0  0  0
  187.7750  176.8930  136.7470 C   0  0  1  0  0  0  0  0  0  0  0  0
  190.8570  176.4780  140.3160 C   0  0  0  0  0  2  0  0  0  0  0  0
  190.1500  176.8790  135.7580 C   0  0  0  0  0  3  0  0  0  0  0  0
  190.8090  175.9100  135.1420 C   0  0  0  0  0  3  0  0  0  0  0  0
  192.2410  175.7550  135.3610 C   0  0  0  0  0  3  0  0  0  0  0  0
  192.7460  175.9110  136.5750 C   0  0  0  0  0  3  0  0  0  0  0  0
  194.2070  175.7430  136.7960 C   0  0  0  0  0  2  0  0  0  0  0  0
  194.5170  174.2800  137.0440 C   0  0  0  0  0  2  0  0  0  0  0  0
  195.7510  174.4330  139.2670 C   0  0  0  0  0  2  0  0  0  0  0  0
  195.7730  173.1040  138.7870 O   0  0  0  0  0  0  0  0  0  0  0  0
  195.8080  174.1270  137.8290 C   0  0  1  0  0  0  0  0  0  0  0  0
  198.6500  174.1840  138.1840 O   0  0  0  0  0  1  0  0  0  0  0  0
  197.4300  174.3130  137.0210 P   0  0  0  0  0  0  0  0  0  0  0  0
  197.6170  173.2360  135.9770 O   0  0  0  0  0  0  0  0  0  0  0  0
  197.5230  175.8300  136.2780 O   0  0  0  0  0  1  0  0  0  0  0  0
  186.8210  175.5770  134.7940 C   0  0  0  0  0  2  0  0  0  0  0  0
  185.6760  173.6040  135.8940 C   0  0  0  0  0  0  0  0  0  0  0  0
  185.4990  174.2660  136.9540 O   0  0  0  0  0  0  0  0  0  0  0  0
  186.3500  174.2010  134.7810 N   0  0  0  0  0  2  0  0  0  0  0  0
  185.1940  172.2140  135.8060 C   0  0  0  0  0  0  0  0  0  0  0  0
  183.6970  167.9180  135.5250 Cl  0  0  0  0  0  0  0  0  0  0  0  0
  185.5110  169.9130  135.0840 C   0  0  0  0  0  3  0  0  0  0  0  0
  184.2720  169.5690  135.6320 C   0  0  0  0  0  0  0  0  0  0  0  0
  185.9710  171.2320  135.1720 C   0  0  0  0  0  3  0  0  0  0  0  0
  183.4910  170.5410  136.2620 C   0  0  0  0  0  3  0  0  0  0  0  0
  183.9480  171.8600  136.3470 C   0  0  0  0  0  3  0  0  0  0  0  0
  188.9450  178.0300  143.2120 C   0  0  0  0  0  2  0  0  0  0  0  0
  189.9520  177.4840  144.0110 O   0  0  0  0  0  0  0  0  0  0  0  0
  191.6030  177.4020  146.1600 C   0  0  0  0  0  1  0  0  0  0  0  0
  190.0670  175.6630  147.1170 C   0  0  0  0  0  1  0  0  0  0  0  0
  189.3720  178.6650  148.1220 O   0  0  0  0  0  0  0  0  0  0  0  0
  190.1520  176.9820  146.3690 C   0  0  0  0  0  0  0  0  0  0  0  0
  189.3480  178.0700  147.0560 C   0  0  0  0  0  0  0  0  0  0  0  0
  189.2860  176.9760  145.1320 C   0  0  1  0  0  3  0  0  0  0  0  0
  188.5000  178.0760  145.7870 C   0  0  1  0  0  3  0  0  0  0  0  0
  187.0270  177.6770  146.0030 C   0  0  0  0  0  0  0  0  0  0  0  0
  186.3010  177.3520  144.7140 C   0  0  0  0  0  2  0  0  0  0  0  0
  186.0560  178.8130  146.2770 C   0  0  0  0  0  2  0  0  0  0  0  0
  185.3200  178.4790  144.9900 C   0  0  0  0  0  2  0  0  0  0  0  0
  186.8890  176.6560  146.9250 F   0  0  0  0  0  0  0  0  0  0  0  0
  1 29  1  6  0  0  0
  1 14  1  0  0  0  0
  2  9  1  0  0  0  0
  3 16  1  1  0  0  0
  3  1  1  0  0  0  0
  3 14  1  0  0  0  0
  4 14  1  0  0  0  0
  4 10  1  1  0  0  0
  4  7  1  0  0  0  0
  5  7  1  6  0  0  0
  5  2  1  0  0  0  0
  6 11  1  0  0  0  0
  8 12  1  0  0  0  0
  9 11  1  0  0  0  0
 11 40  1  1  0  0  0
 12 15  1  0  0  0  0
 13  8  1  6  0  0  0
 13  5  1  0  0  0  0
 14 13  1  0  0  0  0
 15  6  1  0  0  0  0
 17 18  1  0  0  0  0
 17 16  2  0  0  0  0
 18 19  2  0  0  0  0
 19 20  1  0  0  0  0
 20 21  1  0  0  0  0
 21 24  1  0  0  0  0
 23 22  1  0  0  0  0
 24 23  1  0  0  0  0
 24 22  1  0  0  0  0
 26 24  1  0  0  0  0
 26 25  1  0  0  0  0
 27 26  2  0  0  0  0
 28 26  1  0  0  0  0
 30 31  2  0  0  0  0
 32 29  1  0  0  0  0
 32 30  1  0  0  0  0
 33 30  1  0  0  0  0
 33 39  1  0  0  0  0
 34 36  1  0  0  0  0
 35 37  1  0  0  0  0
 35 36  2  0  0  0  0
 36 38  1  0  0  0  0
 37 33  2  0  0  0  0
 38 39  2  0  0  0  0
 40 41  1  0  0  0  0
 41 47  1  0  0  0  0
 42 45  1  0  0  0  0
 45 46  1  0  0  0  0
 45 43  1  0  0  0  0
 46 44  2  0  0  0  0
 47 48  1  0  0  0  0
 47 45  1  0  0  0  0
 48 49  1  0  0  0  0
 48 46  1  0  0  0  0
 49 51  1  0  0  0  0
 49 53  1  0  0  0  0
 50 52  1  0  0  0  0
 50 49  1  0  0  0  0
 52 51  1  0  0  0  0
M  END
>  <MODEL>
5

>  <REMARK>
 VINA RESULT:      -7.3      4.513     10.064
  Name = 
  13 active torsions:
  status: ('A' for Active; 'I' for Inactive)
    1  A    between atoms: C_3  and  C_17
    2  A    between atoms: C_4  and  C_10
    3  A    between atoms: C_5  and  C_26
    4  A    between atoms: C_6  and  C_53
    5  A    between atoms: P_8  and  C_48
    6  A    between atoms: C_14  and  C_33
    7  A    between atoms: C_18  and  C_50
    8  A    between atoms: C_26  and  N_43
    9  A    between atoms: C_30  and  C_37
   10  A    between atoms: C_30  and  O_52
   11  A    between atoms: C_47  and  C_48
   12  A    between atoms: C_47  and  C_50
   13  A    between atoms: C_49  and  O_52
                            x       y       z     vdW  Elec       q    Type
                         _______ _______ _______ _____ _____    ______ ____

>  <TORSDO>
F 13

$$$$
=
 OpenBabel10232408323D

 53 59  0  0  1  0  0  0  0  0999 V2000
  185.8680  177.4410  138.1820 C   0  0  1  0  0  3  0  0  0  0  0  0
  190.2310  175.8050  136.2270 C   0  0  0  0  0  2  0  0  0  0  0  0
  185.6430  177.5050  136.6700 C   0  0  1  0  0  3  0  0  0  0  0  0
  187.9050  178.5850  136.8500 C   0  0  2  0  0  3  0  0  0  0  0  0
  188.8850  176.4680  136.0010 C   0  0  2  0  0  3  0  0  0  0  0  0
  189.4640  172.5960  135.6610 C   0  0  0  0  0  2  0  0  0  0  0  0
  189.0340  177.9920  136.0070 C   0  0  0  0  0  2  0  0  0  0  0  0
  187.2510  174.7490  137.0860 C   0  0  0  0  0  2  0  0  0  0  0  0
  190.3960  174.7650  135.3090 O   0  0  0  0  0  0  0  0  0  0  0  0
  188.4610  179.1670  137.9900 O   0  0  0  0  0  1  0  0  0  0  0  0
  190.5270  173.6060  136.0790 C   0  0  2  0  0  3  0  0  0  0  0  0
  187.5720  174.0450  135.9210 O   0  0  0  0  0  0  0  0  0  0  0  0
  187.9200  176.1310  137.1260 C   0  0  2  0  0  3  0  0  0  0  0  0
  187.0620  177.3850  137.2360 C   0  0  1  0  0  0  0  0  0  0  0  0
  188.1470  172.8580  136.3760 C   0  0  0  0  0  2  0  0  0  0  0  0
  184.9950  176.2450  136.2130 C   0  0  0  0  0  3  0  0  0  0  0  0
  184.5720  176.1290  134.9630 C   0  0  0  0  0  3  0  0  0  0  0  0
  183.9540  174.8850  134.5220 C   0  0  0  0  0  3  0  0  0  0  0  0
  184.2920  173.7380  135.0900 C   0  0  0  0  0  3  0  0  0  0  0  0
  183.6530  172.4730  134.6420 C   0  0  0  0  0  2  0  0  0  0  0  0
  183.0950  171.7350  135.8440 C   0  0  0  0  0  2  0  0  0  0  0  0
  180.7190  171.4900  134.9600 C   0  0  0  0  0  2  0  0  0  0  0  0
  180.8360  170.8650  136.2220 O   0  0  0  0  0  0  0  0  0  0  0  0
  181.6100  172.0150  136.0060 C   0  0  1  0  0  0  0  0  0  0  0  0
  180.3340  174.5730  135.8390 O   0  0  0  0  0  0  0  0  0  0  0  0
  181.0210  173.4730  136.9240 P   0  0  0  0  0  0  0  0  0  0  0  0
  179.9830  173.0610  137.9440 O   0  0  0  0  0  1  0  0  0  0  0  0
  182.3210  174.2070  137.7180 O   0  0  0  0  0  1  0  0  0  0  0  0
  185.6550  178.8210  138.7890 C   0  0  0  0  0  2  0  0  0  0  0  0
  184.9040  178.5750  141.1950 C   0  0  0  0  0  0  0  0  0  0  0  0
  183.7020  178.4400  140.8310 O   0  0  0  0  0  0  0  0  0  0  0  0
  185.9270  178.7890  140.2180 N   0  0  0  0  0  2  0  0  0  0  0  0
  185.2490  178.5210  142.6260 C   0  0  0  0  0  0  0  0  0  0  0  0
  186.3070  178.3440  147.0570 Cl  0  0  0  0  0  0  0  0  0  0  0  0
  186.6890  177.7330  144.4210 C   0  0  0  0  0  3  0  0  0  0  0  0
  185.9000  178.4110  145.3540 C   0  0  0  0  0  0  0  0  0  0  0  0
  186.3650  177.7890  143.0600 C   0  0  0  0  0  3  0  0  0  0  0  0
  184.7850  179.1390  144.9310 C   0  0  0  0  0  3  0  0  0  0  0  0
  184.4590  179.1920  143.5730 C   0  0  0  0  0  3  0  0  0  0  0  0
  191.9090  173.0190  135.8550 C   0  0  0  0  0  2  0  0  0  0  0  0
  192.8140  173.5570  136.7730 O   0  0  0  0  0  0  0  0  0  0  0  0
  193.8450  176.0630  136.7170 C   0  0  0  0  0  1  0  0  0  0  0  0
  195.1960  175.3280  134.7330 C   0  0  0  0  0  1  0  0  0  0  0  0
  196.7940  175.0400  137.5370 O   0  0  0  0  0  0  0  0  0  0  0  0
  194.6820  174.9430  136.1090 C   0  0  0  0  0  0  0  0  0  0  0  0
  195.8110  174.5240  137.0320 C   0  0  0  0  0  0  0  0  0  0  0  0
  194.0410  173.5760  136.0990 C   0  0  1  0  0  3  0  0  0  0  0  0
  195.1340  173.1550  137.0390 C   0  0  1  0  0  3  0  0  0  0  0  0
  195.9900  172.0180  136.4500 C   0  0  0  0  0  0  0  0  0  0  0  0
  195.2960  170.6710  136.4770 C   0  0  0  0  0  2  0  0  0  0  0  0
  197.0970  171.4780  137.3400 C   0  0  0  0  0  2  0  0  0  0  0  0
  196.4080  170.1240  137.3570 C   0  0  0  0  0  2  0  0  0  0  0  0
  196.4550  172.3130  135.1810 F   0  0  0  0  0  0  0  0  0  0  0  0
  1 29  1  1  0  0  0
  3 16  1  6  0  0  0
  3 14  1  0  0  0  0
  3  1  1  0  0  0  0
  4 14  1  0  0  0  0
  4 10  1  1  0  0  0
  5  7  1  1  0  0  0
  5  2  1  0  0  0  0
  5 13  1  0  0  0  0
  6 11  1  0  0  0  0
  6 15  1  0  0  0  0
  7  4  1  0  0  0  0
  9 11  1  0  0  0  0
  9  2  1  0  0  0  0
 11 40  1  6  0  0  0
 12 15  1  0  0  0  0
 12  8  1  0  0  0  0
 13  8  1  6  0  0  0
 13 14  1  0  0  0  0
 14  1  1  0  0  0  0
 17 16  2  0  0  0  0
 18 17  1  0  0  0  0
 18 19  2  0  0  0  0
 20 19  1  0  0  0  0
 20 21  1  0  0  0  0
 21 24  1  0  0  0  0
 22 24  1  0  0  0  0
 22 23  1  0  0  0  0
 24 23  1  0  0  0  0
 24 26  1  0  0  0  0
 25 26  2  0  0  0  0
 26 28  1  0  0  0  0
 26 27  1  0  0  0  0
 29 32  1  0  0  0  0
 30 33  1  0  0  0  0
 31 30  2  0  0  0  0
 32 30  1  0  0  0  0
 33 37  2  0  0  0  0
 33 39  1  0  0  0  0
 35 36  2  0  0  0  0
 36 34  1  0  0  0  0
 37 35  1  0  0  0  0
 38 36  1  0  0  0  0
 39 38  2  0  0  0  0
 40 41  1  0  0  0  0
 43 45  1  0  0  0  0
 45 42  1  0  0  0  0
 45 46  1  0  0  0  0
 46 48  1  0  0  0  0
 46 44  2  0  0  0  0
 47 45  1  0  0  0  0
 47 41  1  0  0  0  0
 47 48  1  0  0  0  0
 49 50  1  0  0  0  0
 49 48  1  0  0  0  0
 49 51  1  0  0  0  0
 50 52  1  0  0  0  0
 51 52  1  0  0  0  0
 53 49  1  0  0  0  0
M  END
>  <MODEL>
6

>  <REMARK>
 VINA RESULT:      -7.0      3.957      7.146
  Name = 
  13 active torsions:
  status: ('A' for Active; 'I' for Inactive)
    1  A    between atoms: C_3  and  C_17
    2  A    between atoms: C_4  and  C_10
    3  A    between atoms: C_5  and  C_26
    4  A    between atoms: C_6  and  C_53
    5  A    between atoms: P_8  and  C_48
    6  A    between atoms: C_14  and  C_33
    7  A    between atoms: C_18  and  C_50
    8  A    between atoms: C_26  and  N_43
    9  A    between atoms: C_30  and  C_37
   10  A    between atoms: C_30  and  O_52
   11  A    between atoms: C_47  and  C_48
   12  A    between atoms: C_47  and  C_50
   13  A    between atoms: C_49  and  O_52
                            x       y       z     vdW  Elec       q    Type
                         _______ _______ _______ _____ _____    ______ ____

>  <TORSDO>
F 13

$$$$
=
 OpenBabel10232408323D

 53 59  0  0  1  0  0  0  0  0999 V2000
  192.0110  176.1680  134.7990 C   0  0  1  0  0  3  0  0  0  0  0  0
  190.4810  177.3600  139.4660 C   0  0  0  0  0  2  0  0  0  0  0  0
  191.6350  174.8220  135.4210 C   0  0  1  0  0  3  0  0  0  0  0  0
  193.0040  175.8240  137.2750 C   0  0  2  0  0  3  0  0  0  0  0  0
  190.8800  176.2820  138.4760 C   0  0  2  0  0  3  0  0  0  0  0  0
  187.1670  177.4580  139.0000 C   0  0  0  0  0  2  0  0  0  0  0  0
  192.3550  175.9120  138.6560 C   0  0  0  0  0  2  0  0  0  0  0  0
  189.3230  176.8090  136.4510 C   0  0  0  0  0  2  0  0  0  0  0  0
  189.2620  177.0190  140.0560 O   0  0  0  0  0  0  0  0  0  0  0  0
  193.9380  176.8530  137.1560 O   0  0  0  0  0  1  0  0  0  0  0  0
  188.3800  178.0470  139.7110 C   0  0  2  0  0  3  0  0  0  0  0  0
  188.3780  176.2520  137.3190 O   0  0  0  0  0  0  0  0  0  0  0  0
  190.7390  176.7790  137.0460 C   0  0  2  0  0  3  0  0  0  0  0  0
  191.8550  176.0500  136.3110 C   0  0  1  0  0  0  0  0  0  0  0  0
  187.4420  177.2680  137.5160 C   0  0  0  0  0  2  0  0  0  0  0  0
  190.2260  174.4920  135.0710 C   0  0  0  0  0  3  0  0  0  0  0  0
  189.7490  173.2780  135.3000 C   0  0  0  0  0  3  0  0  0  0  0  0
  188.3640  172.9700  134.9690 C   0  0  0  0  0  3  0  0  0  0  0  0
  187.3780  173.5790  135.6090 C   0  0  0  0  0  3  0  0  0  0  0  0
  185.9660  173.2690  135.2620 C   0  0  0  0  0  2  0  0  0  0  0  0
  185.4440  172.1860  136.1860 C   0  0  0  0  0  2  0  0  0  0  0  0
  183.0430  171.3600  135.9840 C   0  0  0  0  0  2  0  0  0  0  0  0
  183.4210  171.4330  137.3440 O   0  0  0  0  0  0  0  0  0  0  0  0
  183.9670  172.3920  136.4790 C   0  0  1  0  0  0  0  0  0  0  0  0
  183.0840  174.7980  135.2010 O   0  0  0  0  0  0  0  0  0  0  0  0
  183.2770  174.0610  136.7110 P   0  0  0  0  0  0  0  0  0  0  0  0
  181.9350  173.9770  137.4020 O   0  0  0  0  0  1  0  0  0  0  0  0
  184.3330  174.9850  137.6550 O   0  0  0  0  0  1  0  0  0  0  0  0
  193.4640  176.1350  134.3470 C   0  0  0  0  0  2  0  0  0  0  0  0
  195.2840  174.4280  134.7810 C   0  0  0  0  0  0  0  0  0  0  0  0
  196.0830  175.3360  135.1420 O   0  0  0  0  0  0  0  0  0  0  0  0
  193.9610  174.7680  134.3530 N   0  0  0  0  0  2  0  0  0  0  0  0
  195.7170  173.0200  134.7940 C   0  0  0  0  0  0  0  0  0  0  0  0
  197.0560  168.6630  134.8220 Cl  0  0  0  0  0  0  0  0  0  0  0  0
  197.4940  171.3590  134.7640 C   0  0  0  0  0  3  0  0  0  0  0  0
  196.5420  170.3370  134.8100 C   0  0  0  0  0  0  0  0  0  0  0  0
  197.0830  172.6970  134.7580 C   0  0  0  0  0  3  0  0  0  0  0  0
  195.1810  170.6500  134.8430 C   0  0  0  0  0  3  0  0  0  0  0  0
  194.7690  171.9860  134.8330 C   0  0  0  0  0  3  0  0  0  0  0  0
  187.9370  178.7620  140.9760 C   0  0  0  0  0  2  0  0  0  0  0  0
  188.9810  178.7910  141.9020 O   0  0  0  0  0  0  0  0  0  0  0  0
  191.3050  177.8740  142.9560 C   0  0  0  0  0  1  0  0  0  0  0  0
  190.1300  175.6860  143.3210 C   0  0  0  0  0  1  0  0  0  0  0  0
  190.0480  177.6230  145.9180 O   0  0  0  0  0  0  0  0  0  0  0  0
  190.0130  177.1980  143.4020 C   0  0  0  0  0  0  0  0  0  0  0  0
  189.5920  177.6540  144.7860 C   0  0  0  0  0  0  0  0  0  0  0  0
  188.7500  177.6930  142.7390 C   0  0  1  0  0  3  0  0  0  0  0  0
  188.3340  178.1790  144.0980 C   0  0  1  0  0  3  0  0  0  0  0  0
  187.0260  177.5150  144.5690 C   0  0  0  0  0  0  0  0  0  0  0  0
  185.7840  178.1760  144.0060 C   0  0  0  0  0  2  0  0  0  0  0  0
  186.5750  177.8440  145.9820 C   0  0  0  0  0  2  0  0  0  0  0  0
  185.3230  178.4960  145.4180 C   0  0  0  0  0  2  0  0  0  0  0  0
  187.0150  176.1520  144.3350 F   0  0  0  0  0  0  0  0  0  0  0  0
  1 29  1  1  0  0  0
  1  3  1  0  0  0  0
  1 14  1  0  0  0  0
  2  9  1  0  0  0  0
  3 16  1  6  0  0  0
  3 14  1  0  0  0  0
  4 10  1  1  0  0  0
  4  7  1  0  0  0  0
  5  7  1  1  0  0  0
  5  2  1  0  0  0  0
  6 11  1  0  0  0  0
  8 12  1  0  0  0  0
 11  9  1  0  0  0  0
 11 40  1  1  0  0  0
 12 15  1  0  0  0  0
 13  8  1  6  0  0  0
 13  5  1  0  0  0  0
 14 13  1  0  0  0  0
 14  4  1  0  0  0  0
 15  6  1  0  0  0  0
 16 17  2  0  0  0  0
 18 17  1  0  0  0  0
 18 19  2  0  0  0  0
 20 19  1  0  0  0  0
 20 21  1  0  0  0  0
 21 24  1  0  0  0  0
 22 24  1  0  0  0  0
 22 23  1  0  0  0  0
 24 26  1  0  0  0  0
 24 23  1  0  0  0  0
 25 26  2  0  0  0  0
 26 27  1  0  0  0  0
 26 28  1  0  0  0  0
 29 32  1  0  0  0  0
 30 33  1  0  0  0  0
 30 31  2  0  0  0  0
 32 30  1  0  0  0  0
 33 39  1  0  0  0  0
 35 36  2  0  0  0  0
 36 34  1  0  0  0  0
 36 38  1  0  0  0  0
 37 35  1  0  0  0  0
 37 33  2  0  0  0  0
 39 38  2  0  0  0  0
 40 41  1  0  0  0  0
 41 47  1  0  0  0  0
 42 45  1  0  0  0  0
 43 45  1  0  0  0  0
 45 46  1  0  0  0  0
 46 44  2  0  0  0  0
 47 45  1  0  0  0  0
 47 48  1  0  0  0  0
 48 49  1  0  0  0  0
 48 46  1  0  0  0  0
 49 51  1  0  0  0  0
 50 49  1  0  0  0  0
 50 52  1  0  0  0  0
 52 51  1  0  0  0  0
 53 49  1  0  0  0  0
M  END
>  <MODEL>
7

>  <REMARK>
 VINA RESULT:      -7.0      4.779     11.331
  Name = 
  13 active torsions:
  status: ('A' for Active; 'I' for Inactive)
    1  A    between atoms: C_3  and  C_17
    2  A    between atoms: C_4  and  C_10
    3  A    between atoms: C_5  and  C_26
    4  A    between atoms: C_6  and  C_53
    5  A    between atoms: P_8  and  C_48
    6  A    between atoms: C_14  and  C_33
    7  A    between atoms: C_18  and  C_50
    8  A    between atoms: C_26  and  N_43
    9  A    between atoms: C_30  and  C_37
   10  A    between atoms: C_30  and  O_52
   11  A    between atoms: C_47  and  C_48
   12  A    between atoms: C_47  and  C_50
   13  A    between atoms: C_49  and  O_52
                            x       y       z     vdW  Elec       q    Type
                         _______ _______ _______ _____ _____    ______ ____

>  <TORSDO>
F 13

$$$$
=
 OpenBabel10232408323D

 53 59  0  0  1  0  0  0  0  0999 V2000
  190.4290  175.8800  137.7400 C   0  0  1  0  0  3  0  0  0  0  0  0
  186.0230  178.3530  137.7850 C   0  0  0  0  0  2  0  0  0  0  0  0
  190.8310  177.3500  137.8650 C   0  0  1  0  0  3  0  0  0  0  0  0
  189.1310  177.4890  136.0200 C   0  0  2  0  0  3  0  0  0  0  0  0
  187.5350  178.4150  137.6800 C   0  0  2  0  0  3  0  0  0  0  0  0
  185.5950  178.7490  141.0820 C   0  0  0  0  0  2  0  0  0  0  0  0
  187.9660  178.4600  136.2120 C   0  0  0  0  0  2  0  0  0  0  0  0
  188.2750  177.0910  139.8020 C   0  0  0  0  0  2  0  0  0  0  0  0
  185.5870  179.2640  138.7510 O   0  0  0  0  0  0  0  0  0  0  0  0
  188.7070  176.4440  135.1980 O   0  0  0  0  0  1  0  0  0  0  0  0
  184.9460  178.4940  139.7260 C   0  0  2  0  0  3  0  0  0  0  0  0
  187.8490  178.2740  140.4150 O   0  0  0  0  0  0  0  0  0  0  0  0
  188.1700  177.1670  138.2720 C   0  0  2  0  0  3  0  0  0  0  0  0
  189.4150  176.9720  137.4170 C   0  0  1  0  0  0  0  0  0  0  0  0
  186.8240  177.8730  141.2740 C   0  0  0  0  0  2  0  0  0  0  0  0
  191.0090  177.6930  139.3030 C   0  0  0  0  0  3  0  0  0  0  0  0
  191.7000  176.8910  140.0990 C   0  0  0  0  0  3  0  0  0  0  0  0
  191.8820  177.2450  141.5010 C   0  0  0  0  0  3  0  0  0  0  0  0
  190.8340  177.3240  142.3060 C   0  0  0  0  0  3  0  0  0  0  0  0
  191.0250  177.6760  143.7380 C   0  0  0  0  0  2  0  0  0  0  0  0
  190.5850  176.5150  144.6080 C   0  0  0  0  0  2  0  0  0  0  0  0
  191.7630  176.1660  146.8390 C   0  0  0  0  0  2  0  0  0  0  0  0
  191.9190  177.5030  146.4100 O   0  0  0  0  0  0  0  0  0  0  0  0
  190.7140  176.8650  146.0800 C   0  0  1  0  0  0  0  0  0  0  0  0
  189.8320  178.4640  148.2870 O   0  0  0  0  0  1  0  0  0  0  0  0
  189.2850  177.4700  147.0330 P   0  0  0  0  0  0  0  0  0  0  0  0
  188.3580  178.2600  146.1370 O   0  0  0  0  0  0  0  0  0  0  0  0
  188.4420  176.1570  147.6870 O   0  0  0  0  0  1  0  0  0  0  0  0
  191.0710  175.2780  136.4970 C   0  0  0  0  0  2  0  0  0  0  0  0
  193.1250  173.8240  136.2120 C   0  0  0  0  0  0  0  0  0  0  0  0
  193.5360  174.5490  135.2640 O   0  0  0  0  0  0  0  0  0  0  0  0
  191.8840  174.1280  136.8580 N   0  0  0  0  0  2  0  0  0  0  0  0
  193.9190  172.6620  136.6460 C   0  0  0  0  0  0  0  0  0  0  0  0
  196.3830  169.0650  137.9780 Cl  0  0  0  0  0  0  0  0  0  0  0  0
  195.7910  171.7320  137.8890 C   0  0  0  0  0  3  0  0  0  0  0  0
  195.4370  170.4480  137.4660 C   0  0  0  0  0  0  0  0  0  0  0  0
  195.0330  172.8360  137.4820 C   0  0  0  0  0  3  0  0  0  0  0  0
  194.3310  170.2660  136.6310 C   0  0  0  0  0  3  0  0  0  0  0  0
  193.5760  171.3690  136.2210 C   0  0  0  0  0  3  0  0  0  0  0  0
  183.4790  178.8850  139.7770 C   0  0  0  0  0  2  0  0  0  0  0  0
  182.8030  178.0890  140.7050 O   0  0  0  0  0  0  0  0  0  0  0  0
  180.1010  177.8980  140.8230 C   0  0  0  0  0  1  0  0  0  0  0  0
  180.1030  180.2230  141.7680 C   0  0  0  0  0  1  0  0  0  0  0  0
  180.0820  177.9230  144.0510 O   0  0  0  0  0  0  0  0  0  0  0  0
  180.7830  178.8650  141.7850 C   0  0  0  0  0  0  0  0  0  0  0  0
  180.8620  178.2960  143.1890 C   0  0  0  0  0  0  0  0  0  0  0  0
  182.2800  178.9920  141.6380 C   0  0  1  0  0  3  0  0  0  0  0  0
  182.3750  178.3980  143.0140 C   0  0  1  0  0  3  0  0  0  0  0  0
  183.0670  179.3560  144.0040 C   0  0  0  0  0  0  0  0  0  0  0  0
  184.5450  179.5390  143.7250 C   0  0  0  0  0  2  0  0  0  0  0  0
  183.3850  178.7890  145.3780 C   0  0  0  0  0  2  0  0  0  0  0  0
  184.8670  178.9850  145.1020 C   0  0  0  0  0  2  0  0  0  0  0  0
  182.4210  180.5760  144.0940 F   0  0  0  0  0  0  0  0  0  0  0  0
  1 29  1  6  0  0  0
  1  3  1  0  0  0  0
  2  9  1  0  0  0  0
  3 16  1  1  0  0  0
  4 10  1  6  0  0  0
  4  7  1  0  0  0  0
  4 14  1  0  0  0  0
  5  7  1  6  0  0  0
  5  2  1  0  0  0  0
  5 13  1  0  0  0  0
  6 15  1  0  0  0  0
  8 12  1  0  0  0  0
  9 11  1  0  0  0  0
 11 40  1  1  0  0  0
 11  6  1  0  0  0  0
 12 15  1  0  0  0  0
 13  8  1  1  0  0  0
 14  1  1  0  0  0  0
 14  3  1  0  0  0  0
 14 13  1  0  0  0  0
 16 17  2  0  0  0  0
 17 18  1  0  0  0  0
 18 19  2  0  0  0  0
 19 20  1  0  0  0  0
 20 21  1  0  0  0  0
 21 24  1  0  0  0  0
 23 22  1  0  0  0  0
 24 23  1  0  0  0  0
 24 22  1  0  0  0  0
 24 26  1  0  0  0  0
 26 28  1  0  0  0  0
 26 25  1  0  0  0  0
 27 26  2  0  0  0  0
 29 32  1  0  0  0  0
 30 33  1  0  0  0  0
 30 32  1  0  0  0  0
 31 30  2  0  0  0  0
 33 37  1  0  0  0  0
 36 35  1  0  0  0  0
 36 34  1  0  0  0  0
 37 35  2  0  0  0  0
 38 36  2  0  0  0  0
 39 38  1  0  0  0  0
 39 33  2  0  0  0  0
 40 41  1  0  0  0  0
 41 47  1  0  0  0  0
 42 45  1  0  0  0  0
 43 45  1  0  0  0  0
 45 46  1  0  0  0  0
 46 44  2  0  0  0  0
 47 45  1  0  0  0  0
 47 48  1  0  0  0  0
 48 46  1  0  0  0  0
 48 49  1  0  0  0  0
 49 53  1  0  0  0  0
 49 51  1  0  0  0  0
 50 49  1  0  0  0  0
 50 52  1  0  0  0  0
 52 51  1  0  0  0  0
M  END
>  <MODEL>
8

>  <REMARK>
 VINA RESULT:      -6.8      4.372     11.258
  Name = 
  13 active torsions:
  status: ('A' for Active; 'I' for Inactive)
    1  A    between atoms: C_3  and  C_17
    2  A    between atoms: C_4  and  C_10
    3  A    between atoms: C_5  and  C_26
    4  A    between atoms: C_6  and  C_53
    5  A    between atoms: P_8  and  C_48
    6  A    between atoms: C_14  and  C_33
    7  A    between atoms: C_18  and  C_50
    8  A    between atoms: C_26  and  N_43
    9  A    between atoms: C_30  and  C_37
   10  A    between atoms: C_30  and  O_52
   11  A    between atoms: C_47  and  C_48
   12  A    between atoms: C_47  and  C_50
   13  A    between atoms: C_49  and  O_52
                            x       y       z     vdW  Elec       q    Type
                         _______ _______ _______ _____ _____    ______ ____

>  <TORSDO>
F 13

$$$$
=
 OpenBabel10232408323D

 53 59  0  0  1  0  0  0  0  0999 V2000
  189.7610  176.5600  139.9370 C   0  0  1  0  0  3  0  0  0  0  0  0
  193.6720  174.9590  137.1660 C   0  0  0  0  0  2  0  0  0  0  0  0
  189.9710  177.6770  138.9140 C   0  0  1  0  0  3  0  0  0  0  0  0
  192.3350  177.2920  139.6750 C   0  0  2  0  0  3  0  0  0  0  0  0
  192.7340  176.0920  137.5390 C   0  0  2  0  0  3  0  0  0  0  0  0
  192.0480  173.6190  134.5630 C   0  0  0  0  0  2  0  0  0  0  0  0
  193.3780  176.9900  138.5990 C   0  0  0  0  0  2  0  0  0  0  0  0
  190.3960  174.9860  137.2020 C   0  0  0  0  0  2  0  0  0  0  0  0
  193.7100  174.8280  135.7750 O   0  0  0  0  0  0  0  0  0  0  0  0
  192.7380  176.6860  140.8660 O   0  0  0  0  0  1  0  0  0  0  0  0
  193.2410  173.5390  135.5090 C   0  0  2  0  0  3  0  0  0  0  0  0
  190.7530  175.1630  135.8610 O   0  0  0  0  0  0  0  0  0  0  0  0
  191.4540  175.5530  138.1590 C   0  0  2  0  0  3  0  0  0  0  0  0
  191.0690  176.6360  139.1580 C   0  0  1  0  0  0  0  0  0  0  0  0
  190.7580  173.8730  135.3270 C   0  0  0  0  0  2  0  0  0  0  0  0
  189.0810  177.4490  137.7430 C   0  0  0  0  0  3  0  0  0  0  0  0
  187.8370  177.9040  137.7520 C   0  0  0  0  0  3  0  0  0  0  0  0
  186.9800  177.6890  136.5940 C   0  0  0  0  0  3  0  0  0  0  0  0
  187.2360  176.7000  135.7530 C   0  0  0  0  0  3  0  0  0  0  0  0
  186.3540  176.4790  134.5770 C   0  0  0  0  0  2  0  0  0  0  0  0
  184.9120  176.7350  134.9710 C   0  0  0  0  0  2  0  0  0  0  0  0
  183.5840  174.6520  134.3520 C   0  0  0  0  0  2  0  0  0  0  0  0
  184.8370  174.2880  134.8950 O   0  0  0  0  0  0  0  0  0  0  0  0
  184.2340  175.4470  135.4050 C   0  0  1  0  0  0  0  0  0  0  0  0
  183.8670  176.6660  137.9710 O   0  0  0  0  0  1  0  0  0  0  0  0
  183.5850  175.2470  137.0950 P   0  0  0  0  0  0  0  0  0  0  0  0
  182.0990  174.9730  137.0520 O   0  0  0  0  0  0  0  0  0  0  0  0
  184.3680  173.9550  137.8540 O   0  0  0  0  0  1  0  0  0  0  0  0
  189.8730  177.1270  141.3450 C   0  0  0  0  0  2  0  0  0  0  0  0
  188.0590  177.2440  143.1090 C   0  0  0  0  0  0  0  0  0  0  0  0
  188.7340  176.5120  143.8850 O   0  0  0  0  0  0  0  0  0  0  0  0
  188.5700  177.5730  141.8130 N   0  0  0  0  0  2  0  0  0  0  0  0
  186.7450  177.7530  143.5360 C   0  0  0  0  0  0  0  0  0  0  0  0
  182.6710  179.3170  144.8570 Cl  0  0  0  0  0  0  0  0  0  0  0  0
  185.2130  178.4180  145.3050 C   0  0  0  0  0  3  0  0  0  0  0  0
  184.2360  178.7150  144.3510 C   0  0  0  0  0  0  0  0  0  0  0  0
  186.4640  177.9400  144.8990 C   0  0  0  0  0  3  0  0  0  0  0  0
  184.5060  178.5290  142.9920 C   0  0  0  0  0  3  0  0  0  0  0  0
  185.7550  178.0470  142.5860 C   0  0  0  0  0  3  0  0  0  0  0  0
  194.3540  172.7320  134.8660 C   0  0  0  0  0  2  0  0  0  0  0  0
  194.2630  171.3930  135.2540 O   0  0  0  0  0  0  0  0  0  0  0  0
  194.8320  168.8100  135.8480 C   0  0  0  0  0  1  0  0  0  0  0  0
  195.1800  169.5630  138.2180 C   0  0  0  0  0  1  0  0  0  0  0  0
  197.9240  169.4730  136.4950 O   0  0  0  0  0  0  0  0  0  0  0  0
  195.4190  169.8880  136.7540 C   0  0  0  0  0  0  0  0  0  0  0  0
  196.8900  170.1210  136.4640 C   0  0  0  0  0  0  0  0  0  0  0  0
  195.0210  171.3070  136.4280 C   0  0  1  0  0  3  0  0  0  0  0  0
  196.4680  171.5440  136.1060 C   0  0  1  0  0  3  0  0  0  0  0  0
  197.0840  172.6350  137.0050 C   0  0  0  0  0  0  0  0  0  0  0  0
  197.0740  174.0100  136.3670 C   0  0  0  0  0  2  0  0  0  0  0  0
  198.6010  172.6680  137.0800 C   0  0  0  0  0  2  0  0  0  0  0  0
  198.5910  174.0520  136.4520 C   0  0  0  0  0  2  0  0  0  0  0  0
  196.5100  172.6650  138.2620 F   0  0  0  0  0  0  0  0  0  0  0  0
  1 29  1  1  0  0  0
  3 16  1  6  0  0  0
  3 14  1  0  0  0  0
  3  1  1  0  0  0  0
  4 10  1  1  0  0  0
  5  2  1  1  0  0  0
  5 13  1  0  0  0  0
  5  7  1  0  0  0  0
  6 15  1  0  0  0  0
  6 11  1  0  0  0  0
  7  4  1  0  0  0  0
  9  2  1  0  0  0  0
 11 40  1  6  0  0  0
 11  9  1  0  0  0  0
 12  8  1  0  0  0  0
 13  8  1  6  0  0  0
 13 14  1  0  0  0  0
 14  4  1  0  0  0  0
 14  1  1  0  0  0  0
 15 12  1  0  0  0  0
 16 17  2  0  0  0  0
 18 17  1  0  0  0  0
 19 18  2  0  0  0  0
 20 21  1  0  0  0  0
 20 19  1  0  0  0  0
 21 24  1  0  0  0  0
 22 23  1  0  0  0  0
 22 24  1  0  0  0  0
 23 24  1  0  0  0  0
 24 26  1  0  0  0  0
 26 28  1  0  0  0  0
 26 25  1  0  0  0  0
 27 26  2  0  0  0  0
 29 32  1  0  0  0  0
 30 33  1  0  0  0  0
 30 31  2  0  0  0  0
 32 30  1  0  0  0  0
 33 37  1  0  0  0  0
 36 34  1  0  0  0  0
 36 35  1  0  0  0  0
 37 35  2  0  0  0  0
 38 36  2  0  0  0  0
 39 38  1  0  0  0  0
 39 33  2  0  0  0  0
 40 41  1  0  0  0  0
 41 47  1  0  0  0  0
 42 45  1  0  0  0  0
 45 43  1  0  0  0  0
 46 44  2  0  0  0  0
 46 45  1  0  0  0  0
 47 45  1  0  0  0  0
 48 47  1  0  0  0  0
 48 46  1  0  0  0  0
 48 49  1  0  0  0  0
 49 51  1  0  0  0  0
 49 53  1  0  0  0  0
 50 52  1  0  0  0  0
 50 49  1  0  0  0  0
 52 51  1  0  0  0  0
M  END
>  <MODEL>
9

>  <REMARK>
 VINA RESULT:      -6.8      2.940      6.490
  Name = 
  13 active torsions:
  status: ('A' for Active; 'I' for Inactive)
    1  A    between atoms: C_3  and  C_17
    2  A    between atoms: C_4  and  C_10
    3  A    between atoms: C_5  and  C_26
    4  A    between atoms: C_6  and  C_53
    5  A    between atoms: P_8  and  C_48
    6  A    between atoms: C_14  and  C_33
    7  A    between atoms: C_18  and  C_50
    8  A    between atoms: C_26  and  N_43
    9  A    between atoms: C_30  and  C_37
   10  A    between atoms: C_30  and  O_52
   11  A    between atoms: C_47  and  C_48
   12  A    between atoms: C_47  and  C_50
   13  A    between atoms: C_49  and  O_52
                            x       y       z     vdW  Elec       q    Type
                         _______ _______ _______ _____ _____    ______ ____

>  <TORSDO>
F 13

$$$$
