=
 OpenBabel10232409103D

 59 65  0  0  1  0  0  0  0  0999 V2000
  185.9190  177.0470  137.3620 C   0  0  2  0  0  3  0  0  0  0  0  0
  185.5040  179.6190  146.0010 N   0  0  0  0  0  0  0  0  0  0  0  0
  181.8350  179.5290  138.0550 C   0  0  0  0  0  2  0  0  0  0  0  0
  189.0960  178.1730  142.2940 C   0  0  0  0  0  2  0  0  0  0  0  0
  188.1530  178.1410  137.7490 C   0  0  0  0  0  2  0  0  0  0  0  0
  182.6320  179.4070  139.3340 C   0  0  2  0  0  3  0  0  0  0  0  0
  190.7530  177.9950  139.2310 O   0  0  0  0  0  1  0  0  0  0  0  0
  187.6080  178.3130  142.2560 C   0  0  0  0  0  3  0  0  0  0  0  0
  181.9290  178.5370  137.1870 C   0  0  1  0  0  3  0  0  0  0  0  0
  186.5930  178.8850  145.3000 C   0  0  2  0  0  3  0  0  0  0  0  0
  185.0300  178.1910  137.2500 N   0  0  0  0  0  2  0  0  0  0  0  0
  189.5000  177.9790  139.8380 C   0  0  2  0  0  3  0  0  0  0  0  0
  182.6860  177.3280  137.1970 C   0  0  1  0  0  0  0  0  0  0  0  0
  187.2710  177.4000  136.7420 C   0  0  1  0  0  3  0  0  0  0  0  0
  186.7590  177.4700  142.8560 C   0  0  0  0  0  0  0  0  0  0  0  0
  187.2500  176.3900  143.7410 C   0  0  0  0  0  0  0  0  0  0  0  0
  185.3450  179.1780  147.3770 C   0  0  0  0  0  1  0  0  0  0  0  0
  184.9300  175.8740  136.3760 S   0  0  0  0  0  0  0  0  0  0  0  0
  185.2710  177.7170  142.7770 C   0  0  1  0  0  3  0  0  0  0  0  0
  184.0460  177.4620  136.4640 C   0  0  2  0  0  3  0  0  0  0  0  0
  185.2080  178.4630  145.1410 C   0  0  2  0  0  3  0  0  0  0  0  0
  187.4280  175.2490  143.2400 O   0  0  0  0  0  0  0  0  0  0  0  0
  182.7790  176.8730  138.6680 C   0  0  0  0  0  2  0  0  0  0  0  0
  181.7710  176.5900  136.3860 N   0  0  0  0  0  2  0  0  0  0  0  0
  189.5870  177.2710  141.1730 C   0  0  0  0  0  2  0  0  0  0  0  0
  181.1130  177.8760  136.1220 C   0  0  0  0  0  0  0  0  0  0  0  0
  183.5470  180.4550  139.4210 O   0  0  0  0  0  1  0  0  0  0  0  0
  184.8330  178.8380  143.7210 C   0  0  0  0  0  2  0  0  0  0  0  0
  188.5070  177.2680  138.9450 C   0  0  0  0  0  2  0  0  0  0  0  0
  187.5030  176.5650  145.1500 N   0  0  0  0  0  2  0  0  0  0  0  0
  180.1640  178.2500  135.3780 O   0  0  0  0  0  0  0  0  0  0  0  0
  183.3640  178.0440  139.4970 C   0  0  2  0  0  3  0  0  0  0  0  0
  184.8550  178.0130  141.3720 C   0  0  0  0  0  3  0  0  0  0  0  0
  187.3040  177.7430  146.0130 C   0  0  1  0  0  3  0  0  0  0  0  0
  183.6530  177.7030  140.9170 C   0  0  0  0  0  3  0  0  0  0  0  0
  187.9730  176.2390  136.2190 N   0  0  0  0  0  2  0  0  0  0  0  0
  189.0100  176.3750  135.2540 C   0  0  0  0  0  0  0  0  0  0  0  0
  189.1450  177.4450  134.6020 O   0  0  0  0  0  0  0  0  0  0  0  0
  189.9750  175.2690  135.0480 C   0  0  0  0  0  2  0  0  0  0  0  0
  191.1840  175.4940  135.8240 N   0  0  0  0  0  2  0  0  0  0  0  0
  192.3410  173.7650  134.7620 O   0  0  0  0  0  0  0  0  0  0  0  0
  192.3490  174.6920  135.6220 C   0  0  0  0  0  0  0  0  0  0  0  0
  196.7370  175.3650  135.5960 C   0  0  0  0  0  2  0  0  0  0  0  0
  196.0820  174.3500  136.5490 C   0  0  0  0  0  2  0  0  0  0  0  0
  194.3250  172.6290  136.8660 C   0  0  0  0  0  1  0  0  0  0  0  0
  193.6170  174.9780  136.3740 C   0  0  1  0  0  3  0  0  0  0  0  0
  195.8420  175.7890  134.4280 C   0  0  0  0  0  2  0  0  0  0  0  0
  194.6850  173.9010  136.1250 C   0  0  1  0  0  3  0  0  0  0  0  0
  194.7320  176.7480  134.8500 C   0  0  0  0  0  2  0  0  0  0  0  0
  194.0920  176.4290  136.2070 C   0  0  0  0  0  2  0  0  0  0  0  0
  189.2620  177.5580  147.4900 C   0  0  0  0  0  3  0  0  0  0  0  0
  188.6120  178.2290  146.5440 C   0  0  0  0  0  3  0  0  0  0  0  0
  190.5400  178.0680  148.0710 C   0  0  0  0  0  2  0  0  0  0  0  0
  191.5680  176.9580  148.1870 C   0  0  0  0  0  2  0  0  0  0  0  0
  191.6480  176.2230  146.8680 C   0  0  0  0  0  2  0  0  0  0  0  0
  191.9780  177.9190  143.3900 C   0  0  0  0  0  1  0  0  0  0  0  0
  191.9730  177.1340  145.7870 N   0  0  0  0  0  2  0  0  0  0  0  0
  190.9440  175.9010  144.0850 O   0  0  0  0  0  0  0  0  0  0  0  0
  191.6010  176.9180  144.4270 C   0  0  0  0  0  0  0  0  0  0  0  0
  1 18  1  6  0  0  0
  2 17  1  0  0  0  0
  3  6  1  0  0  0  0
  5 29  1  0  0  0  0
  6 27  1  6  0  0  0
  6 32  1  0  0  0  0
  8  4  1  0  0  0  0
  8 15  2  0  0  0  0
  9 13  1  0  0  0  0
  9  3  1  1  0  0  0
 10  2  1  1  0  0  0
 10 34  1  0  0  0  0
 11  1  1  0  0  0  0
 12  7  1  6  0  0  0
 12 25  1  0  0  0  0
 13 23  1  1  0  0  0
 14 36  1  1  0  0  0
 14  1  1  0  0  0  0
 14  5  1  0  0  0  0
 15 16  1  0  0  0  0
 16 30  1  0  0  0  0
 19 33  1  6  0  0  0
 19 15  1  0  0  0  0
 19 28  1  0  0  0  0
 20 18  1  1  0  0  0
 20 13  1  0  0  0  0
 20 11  1  0  0  0  0
 21 28  1  6  0  0  0
 21 10  1  0  0  0  0
 21  2  1  0  0  0  0
 22 16  2  0  0  0  0
 24 13  1  0  0  0  0
 25  4  1  0  0  0  0
 26 24  1  0  0  0  0
 26  9  1  0  0  0  0
 29 12  1  0  0  0  0
 30 34  1  0  0  0  0
 31 26  2  0  0  0  0
 32 23  1  1  0  0  0
 32 35  1  0  0  0  0
 34 52  1  6  0  0  0
 35 33  2  0  0  0  0
 37 36  1  0  0  0  0
 38 37  2  0  0  0  0
 39 37  1  0  0  0  0
 39 40  1  0  0  0  0
 41 42  2  0  0  0  0
 42 40  1  0  0  0  0
 43 44  1  0  0  0  0
 46 42  1  6  0  0  0
 47 49  1  0  0  0  0
 47 43  1  0  0  0  0
 48 46  1  0  0  0  0
 48 44  1  0  0  0  0
 48 45  1  1  0  0  0
 49 50  1  0  0  0  0
 50 46  1  0  0  0  0
 51 53  1  0  0  0  0
 52 51  2  0  0  0  0
 53 54  1  0  0  0  0
 55 54  1  0  0  0  0
 56 59  1  0  0  0  0
 57 55  1  0  0  0  0
 58 59  2  0  0  0  0
 59 57  1  0  0  0  0
M  END
>  <MODEL>
1

>  <REMARK>
 VINA RESULT:      -7.4      0.000      0.000
  Name = 
  9 active torsions:
  status: ('A' for Active; 'I' for Inactive)
    1  A    between atoms: C_1  and  C_13
    2  A    between atoms: C_1  and  C_16
    3  A    between atoms: C_8  and  C_43
    4  A    between atoms: N_11  and  C_27
    5  A    between atoms: C_14  and  C_23
    6  A    between atoms: C_16  and  C_54
    7  A    between atoms: N_18  and  C_23
    8  A    between atoms: N_26  and  C_54
    9  A    between atoms: C_55  and  C_57
                            x       y       z     vdW  Elec       q    Type
                         _______ _______ _______ _____ _____    ______ ____

>  <TORSDO>
F 9

$$$$
=
 OpenBabel10232409103D

 59 65  0  0  1  0  0  0  0  0999 V2000
  189.8700  177.1430  140.2160 C   0  0  2  0  0  3  0  0  0  0  0  0
  181.0610  178.4310  141.6870 N   0  0  0  0  0  0  0  0  0  0  0  0
  188.9560  176.4560  144.9090 C   0  0  0  0  0  2  0  0  0  0  0  0
  184.4430  177.1720  137.7220 C   0  0  0  0  0  2  0  0  0  0  0  0
  188.7740  175.6860  138.4810 C   0  0  0  0  0  2  0  0  0  0  0  0
  187.7030  176.8320  144.1500 C   0  0  2  0  0  3  0  0  0  0  0  0
  187.0670  175.6320  136.0190 O   0  0  0  0  0  1  0  0  0  0  0  0
  184.6550  177.4730  139.1720 C   0  0  0  0  0  3  0  0  0  0  0  0
  190.1010  176.9500  144.4690 C   0  0  1  0  0  3  0  0  0  0  0  0
  181.8050  178.4740  140.3990 C   0  0  2  0  0  3  0  0  0  0  0  0
  189.6930  176.3640  141.4310 N   0  0  0  0  0  2  0  0  0  0  0  0
  186.7070  176.2540  137.2120 C   0  0  2  0  0  3  0  0  0  0  0  0
  190.4160  177.7850  143.3550 C   0  0  1  0  0  0  0  0  0  0  0  0
  190.1040  176.1930  139.0410 C   0  0  1  0  0  3  0  0  0  0  0  0
  184.5400  178.6930  139.7090 C   0  0  0  0  0  0  0  0  0  0  0  0
  184.0450  179.8370  138.9120 C   0  0  0  0  0  0  0  0  0  0  0  0
  179.9820  179.4050  141.7280 C   0  0  0  0  0  1  0  0  0  0  0  0
  191.3540  178.0660  140.7350 S   0  0  0  0  0  0  0  0  0  0  0  0
  184.7510  178.8850  141.1920 C   0  0  1  0  0  3  0  0  0  0  0  0
  190.8310  176.9790  142.0970 C   0  0  2  0  0  3  0  0  0  0  0  0
  182.3170  179.1860  141.5610 C   0  0  2  0  0  3  0  0  0  0  0  0
  184.8930  180.5820  138.3530 O   0  0  0  0  0  0  0  0  0  0  0  0
  189.2150  178.7330  143.1560 C   0  0  0  0  0  2  0  0  0  0  0  0
  191.5690  178.3760  143.9530 N   0  0  0  0  0  2  0  0  0  0  0  0
  185.7250  177.3710  136.9310 C   0  0  0  0  0  2  0  0  0  0  0  0
  191.4450  177.3460  144.9920 C   0  0  0  0  0  0  0  0  0  0  0  0
  187.1020  175.6850  143.6360 O   0  0  0  0  0  1  0  0  0  0  0  0
  183.5430  178.4100  142.0010 C   0  0  0  0  0  2  0  0  0  0  0  0
  187.9380  176.8140  137.8900 C   0  0  0  0  0  2  0  0  0  0  0  0
  182.6480  180.1660  138.7690 N   0  0  0  0  0  2  0  0  0  0  0  0
  192.1370  177.0060  145.9910 O   0  0  0  0  0  0  0  0  0  0  0  0
  187.9370  177.8680  143.0130 C   0  0  2  0  0  3  0  0  0  0  0  0
  185.9980  178.1950  141.6450 C   0  0  0  0  0  3  0  0  0  0  0  0
  181.4570  179.5400  139.3680 C   0  0  1  0  0  3  0  0  0  0  0  0
  186.7130  178.6400  142.6650 C   0  0  0  0  0  3  0  0  0  0  0  0
  190.8990  176.7920  137.9820 N   0  0  0  0  0  2  0  0  0  0  0  0
  192.1760  176.2690  137.6310 C   0  0  0  0  0  0  0  0  0  0  0  0
  192.7860  175.4870  138.4080 O   0  0  0  0  0  0  0  0  0  0  0  0
  192.7740  176.6040  136.3170 C   0  0  0  0  0  2  0  0  0  0  0  0
  194.1270  176.0800  136.2220 N   0  0  0  0  0  2  0  0  0  0  0  0
  193.4910  174.3400  134.7990 O   0  0  0  0  0  0  0  0  0  0  0  0
  194.4170  174.9280  135.4290 C   0  0  0  0  0  0  0  0  0  0  0  0
  198.4730  174.3630  137.1440 C   0  0  0  0  0  2  0  0  0  0  0  0
  198.2630  175.0120  135.7650 C   0  0  0  0  0  2  0  0  0  0  0  0
  196.8760  176.5170  134.3640 C   0  0  0  0  0  1  0  0  0  0  0  0
  195.8280  174.4370  135.2760 C   0  0  1  0  0  3  0  0  0  0  0  0
  197.2100  174.3190  138.0090 C   0  0  0  0  0  2  0  0  0  0  0  0
  196.8530  175.5520  135.5330 C   0  0  1  0  0  3  0  0  0  0  0  0
  196.2130  173.2590  137.5490 C   0  0  0  0  0  2  0  0  0  0  0  0
  196.0830  173.1210  136.0260 C   0  0  0  0  0  2  0  0  0  0  0  0
  180.8610  177.7440  137.7980 C   0  0  0  0  0  3  0  0  0  0  0  0
  180.5920  178.9410  138.3100 C   0  0  0  0  0  3  0  0  0  0  0  0
  180.0370  177.1630  136.6960 C   0  0  0  0  0  2  0  0  0  0  0  0
  180.1980  175.6550  136.6310 C   0  0  0  0  0  2  0  0  0  0  0  0
  181.2000  175.2220  137.6780 C   0  0  0  0  0  2  0  0  0  0  0  0
  182.8740  171.8290  136.8050 C   0  0  0  0  0  1  0  0  0  0  0  0
  181.5030  173.8090  137.5520 N   0  0  0  0  0  2  0  0  0  0  0  0
  183.4880  174.0720  136.3420 O   0  0  0  0  0  0  0  0  0  0  0  0
  182.6490  173.2990  136.8740 C   0  0  0  0  0  0  0  0  0  0  0  0
  1 18  1  1  0  0  0
  1 11  1  0  0  0  0
  2 17  1  0  0  0  0
  4  8  1  0  0  0  0
  5 14  1  0  0  0  0
  6 27  1  6  0  0  0
  6  3  1  0  0  0  0
  8 15  2  0  0  0  0
  9  3  1  1  0  0  0
  9 26  1  0  0  0  0
 10 21  1  0  0  0  0
 10  2  1  1  0  0  0
 11 20  1  0  0  0  0
 12  7  1  6  0  0  0
 12 29  1  0  0  0  0
 13 23  1  6  0  0  0
 13 24  1  0  0  0  0
 13  9  1  0  0  0  0
 14 36  1  6  0  0  0
 14  1  1  0  0  0  0
 15 19  1  0  0  0  0
 16 15  1  0  0  0  0
 19 33  1  1  0  0  0
 19 28  1  0  0  0  0
 20 18  1  6  0  0  0
 20 13  1  0  0  0  0
 21  2  1  0  0  0  0
 21 28  1  1  0  0  0
 22 16  2  0  0  0  0
 24 26  1  0  0  0  0
 25 12  1  0  0  0  0
 25  4  1  0  0  0  0
 26 31  2  0  0  0  0
 29  5  1  0  0  0  0
 30 16  1  0  0  0  0
 30 34  1  0  0  0  0
 32 35  1  1  0  0  0
 32 23  1  0  0  0  0
 32  6  1  0  0  0  0
 33 35  2  0  0  0  0
 34 52  1  6  0  0  0
 34 10  1  0  0  0  0
 37 36  1  0  0  0  0
 37 38  2  0  0  0  0
 39 37  1  0  0  0  0
 40 39  1  0  0  0  0
 41 42  2  0  0  0  0
 42 40  1  0  0  0  0
 43 47  1  0  0  0  0
 44 43  1  0  0  0  0
 46 42  1  1  0  0  0
 46 48  1  0  0  0  0
 46 50  1  0  0  0  0
 48 45  1  6  0  0  0
 48 44  1  0  0  0  0
 49 47  1  0  0  0  0
 50 49  1  0  0  0  0
 51 52  2  0  0  0  0
 53 51  1  0  0  0  0
 54 53  1  0  0  0  0
 54 55  1  0  0  0  0
 56 59  1  0  0  0  0
 57 55  1  0  0  0  0
 58 59  2  0  0  0  0
 59 57  1  0  0  0  0
M  END
>  <MODEL>
2

>  <REMARK>
 VINA RESULT:      -6.8      2.579      8.018
  Name = 
  9 active torsions:
  status: ('A' for Active; 'I' for Inactive)
    1  A    between atoms: C_1  and  C_13
    2  A    between atoms: C_1  and  C_16
    3  A    between atoms: C_8  and  C_43
    4  A    between atoms: N_11  and  C_27
    5  A    between atoms: C_14  and  C_23
    6  A    between atoms: C_16  and  C_54
    7  A    between atoms: N_18  and  C_23
    8  A    between atoms: N_26  and  C_54
    9  A    between atoms: C_55  and  C_57
                            x       y       z     vdW  Elec       q    Type
                         _______ _______ _______ _____ _____    ______ ____

>  <TORSDO>
F 9

$$$$
=
 OpenBabel10232409103D

 59 65  0  0  1  0  0  0  0  0999 V2000
  189.4760  176.6710  139.1670 C   0  0  2  0  0  3  0  0  0  0  0  0
  181.5250  178.3550  135.2490 N   0  0  0  0  0  0  0  0  0  0  0  0
  190.0460  176.5580  134.3720 C   0  0  0  0  0  2  0  0  0  0  0  0
  184.0980  179.1700  139.8800 C   0  0  0  0  0  2  0  0  0  0  0  0
  188.7040  178.7780  140.3060 C   0  0  0  0  0  2  0  0  0  0  0  0
  188.6100  176.8430  134.7530 C   0  0  2  0  0  3  0  0  0  0  0  0
  186.6470  180.0010  142.1100 O   0  0  0  0  0  1  0  0  0  0  0  0
  184.5000  178.4930  138.6080 C   0  0  0  0  0  3  0  0  0  0  0  0
  190.7500  175.7980  135.1930 C   0  0  1  0  0  3  0  0  0  0  0  0
  181.8630  178.3390  136.6980 C   0  0  2  0  0  3  0  0  0  0  0  0
  189.9230  177.1640  137.8740 N   0  0  0  0  0  2  0  0  0  0  0  0
  186.3520  179.2990  140.9440 C   0  0  2  0  0  3  0  0  0  0  0  0
  190.4260  175.1820  136.4380 C   0  0  1  0  0  0  0  0  0  0  0  0
  189.7990  177.7120  140.2390 C   0  0  1  0  0  3  0  0  0  0  0  0
  184.0230  177.3090  138.2060 C   0  0  0  0  0  0  0  0  0  0  0  0
  182.9320  176.6330  138.9420 C   0  0  0  0  0  0  0  0  0  0  0  0
  180.1830  177.8540  134.9950 C   0  0  0  0  0  1  0  0  0  0  0  0
  190.5270  175.1820  139.2340 S   0  0  0  0  0  0  0  0  0  0  0  0
  184.4760  176.7230  136.8900 C   0  0  1  0  0  3  0  0  0  0  0  0
  190.8300  176.0460  137.6610 C   0  0  2  0  0  3  0  0  0  0  0  0
  182.2930  177.2460  135.8360 C   0  0  2  0  0  3  0  0  0  0  0  0
  183.2430  175.7800  139.8140 O   0  0  0  0  0  0  0  0  0  0  0  0
  188.9310  174.8030  136.3720 C   0  0  0  0  0  2  0  0  0  0  0  0
  191.3390  174.0940  136.2920 N   0  0  0  0  0  2  0  0  0  0  0  0
  184.9630  178.7070  141.0410 C   0  0  0  0  0  2  0  0  0  0  0  0
  191.8940  174.8350  135.1520 C   0  0  0  0  0  0  0  0  0  0  0  0
  188.4310  178.2140  134.9230 O   0  0  0  0  0  1  0  0  0  0  0  0
  183.7940  177.4060  135.7030 C   0  0  0  0  0  2  0  0  0  0  0  0
  187.3670  178.1940  140.7420 C   0  0  0  0  0  2  0  0  0  0  0  0
  181.5310  176.8730  138.6910 N   0  0  0  0  0  2  0  0  0  0  0  0
  192.8770  174.6670  134.3780 O   0  0  0  0  0  0  0  0  0  0  0  0
  188.1270  176.0790  136.0190 C   0  0  2  0  0  3  0  0  0  0  0  0
  185.9640  176.7940  136.7610 C   0  0  0  0  0  3  0  0  0  0  0  0
  180.8780  177.7340  137.6900 C   0  0  1  0  0  3  0  0  0  0  0  0
  186.6490  175.9020  136.0650 C   0  0  0  0  0  3  0  0  0  0  0  0
  190.0070  177.1240  141.5520 N   0  0  0  0  0  2  0  0  0  0  0  0
  191.3040  177.0560  142.1340 C   0  0  0  0  0  0  0  0  0  0  0  0
  192.3360  177.2130  141.4270 O   0  0  0  0  0  0  0  0  0  0  0  0
  191.4470  176.8510  143.5950 C   0  0  0  0  0  2  0  0  0  0  0  0
  190.6210  177.7970  144.3280 N   0  0  0  0  0  2  0  0  0  0  0  0
  188.9900  176.1960  144.8110 O   0  0  0  0  0  0  0  0  0  0  0  0
  189.3860  177.3920  144.9220 C   0  0  0  0  0  0  0  0  0  0  0  0
  186.8180  178.1860  148.4540 C   0  0  0  0  0  2  0  0  0  0  0  0
  186.3970  178.6140  147.0370 C   0  0  0  0  0  2  0  0  0  0  0  0
  186.3570  178.0570  144.6210 C   0  0  0  0  0  1  0  0  0  0  0  0
  188.5760  178.3560  145.7390 C   0  0  1  0  0  3  0  0  0  0  0  0
  187.9380  177.1430  148.4810 C   0  0  0  0  0  2  0  0  0  0  0  0
  187.1260  177.8780  145.9150 C   0  0  1  0  0  3  0  0  0  0  0  0
  189.3050  177.7320  148.1430 C   0  0  0  0  0  2  0  0  0  0  0  0
  189.2900  178.7870  147.0290 C   0  0  0  0  0  2  0  0  0  0  0  0
  180.7390  179.7960  139.0220 C   0  0  0  0  0  3  0  0  0  0  0  0
  180.1140  178.8280  138.3590 C   0  0  0  0  0  3  0  0  0  0  0  0
  179.9820  180.8610  139.7460 C   0  0  0  0  0  2  0  0  0  0  0  0
  180.0180  182.1720  138.9820 C   0  0  0  0  0  2  0  0  0  0  0  0
  180.7230  181.9520  137.6620 C   0  0  0  0  0  2  0  0  0  0  0  0
  181.1070  185.4060  135.9290 C   0  0  0  0  0  1  0  0  0  0  0  0
  180.5590  183.1000  136.7900 N   0  0  0  0  0  2  0  0  0  0  0  0
  182.2660  184.3930  137.7330 O   0  0  0  0  0  0  0  0  0  0  0  0
  181.3500  184.2830  136.8770 C   0  0  0  0  0  0  0  0  0  0  0  0
  1 11  1  6  0  0  0
  1 18  1  0  0  0  0
  1 14  1  0  0  0  0
  2 21  1  0  0  0  0
  3  6  1  0  0  0  0
  4 25  1  0  0  0  0
  5 29  1  0  0  0  0
  6 27  1  1  0  0  0
  6 32  1  0  0  0  0
  8  4  1  0  0  0  0
  9  3  1  6  0  0  0
  9 13  1  0  0  0  0
 10  2  1  6  0  0  0
 10 34  1  0  0  0  0
 12 25  1  0  0  0  0
 12  7  1  1  0  0  0
 13 23  1  1  0  0  0
 13 20  1  0  0  0  0
 14  5  1  0  0  0  0
 14 36  1  1  0  0  0
 15  8  2  0  0  0  0
 15 16  1  0  0  0  0
 16 22  2  0  0  0  0
 17  2  1  0  0  0  0
 19 28  1  6  0  0  0
 19 15  1  0  0  0  0
 20 11  1  1  0  0  0
 20 18  1  0  0  0  0
 21 28  1  6  0  0  0
 21 10  1  0  0  0  0
 24 13  1  0  0  0  0
 26  9  1  0  0  0  0
 26 24  1  0  0  0  0
 29 12  1  0  0  0  0
 30 16  1  0  0  0  0
 31 26  2  0  0  0  0
 32 35  1  6  0  0  0
 32 23  1  0  0  0  0
 33 19  1  0  0  0  0
 34 52  1  1  0  0  0
 34 30  1  0  0  0  0
 35 33  2  0  0  0  0
 36 37  1  0  0  0  0
 37 39  1  0  0  0  0
 38 37  2  0  0  0  0
 39 40  1  0  0  0  0
 40 42  1  0  0  0  0
 41 42  2  0  0  0  0
 43 47  1  0  0  0  0
 44 43  1  0  0  0  0
 46 42  1  1  0  0  0
 46 48  1  0  0  0  0
 46 50  1  0  0  0  0
 48 45  1  6  0  0  0
 48 44  1  0  0  0  0
 49 47  1  0  0  0  0
 50 49  1  0  0  0  0
 51 53  1  0  0  0  0
 52 51  2  0  0  0  0
 54 53  1  0  0  0  0
 55 54  1  0  0  0  0
 56 59  1  0  0  0  0
 57 59  1  0  0  0  0
 57 55  1  0  0  0  0
 59 58  2  0  0  0  0
M  END
>  <MODEL>
3

>  <REMARK>
 VINA RESULT:      -5.9      2.521     10.084
  Name = 
  9 active torsions:
  status: ('A' for Active; 'I' for Inactive)
    1  A    between atoms: C_1  and  C_13
    2  A    between atoms: C_1  and  C_16
    3  A    between atoms: C_8  and  C_43
    4  A    between atoms: N_11  and  C_27
    5  A    between atoms: C_14  and  C_23
    6  A    between atoms: C_16  and  C_54
    7  A    between atoms: N_18  and  C_23
    8  A    between atoms: N_26  and  C_54
    9  A    between atoms: C_55  and  C_57
                            x       y       z     vdW  Elec       q    Type
                         _______ _______ _______ _____ _____    ______ ____

>  <TORSDO>
F 9

$$$$
=
 OpenBabel10232409103D

 59 65  0  0  1  0  0  0  0  0999 V2000
  190.0310  176.9830  137.8650 C   0  0  2  0  0  3  0  0  0  0  0  0
  185.4530  170.0490  134.3460 N   0  0  0  0  0  0  0  0  0  0  0  0
  193.1180  174.1120  135.5080 C   0  0  0  0  0  2  0  0  0  0  0  0
  184.6730  175.0740  136.0410 C   0  0  0  0  0  2  0  0  0  0  0  0
  188.1420  178.1010  136.6340 C   0  0  0  0  0  2  0  0  0  0  0  0
  191.7060  173.5750  135.4470 C   0  0  2  0  0  3  0  0  0  0  0  0
  185.1750  178.4960  136.4910 O   0  0  0  0  0  1  0  0  0  0  0  0
  185.8920  174.2100  135.9740 C   0  0  0  0  0  3  0  0  0  0  0  0
  193.4600  174.7940  136.5880 C   0  0  1  0  0  3  0  0  0  0  0  0
  184.9320  171.2180  135.1050 C   0  0  2  0  0  3  0  0  0  0  0  0
  190.9240  176.6040  136.7830 N   0  0  0  0  0  2  0  0  0  0  0  0
  185.8040  177.2530  136.4940 C   0  0  2  0  0  3  0  0  0  0  0  0
  192.7260  175.1700  137.7530 C   0  0  1  0  0  0  0  0  0  0  0  0
  189.3670  178.3170  137.5240 C   0  0  1  0  0  3  0  0  0  0  0  0
  186.1160  173.1670  136.7800 C   0  0  0  0  0  0  0  0  0  0  0  0
  185.0830  172.6950  137.7290 C   0  0  0  0  0  0  0  0  0  0  0  0
  184.7080  168.8340  134.6350 C   0  0  0  0  0  1  0  0  0  0  0  0
  191.2830  177.0900  139.1860 S   0  0  0  0  0  0  0  0  0  0  0  0
  187.3700  172.3420  136.6120 C   0  0  1  0  0  3  0  0  0  0  0  0
  192.1000  176.5840  137.6410 C   0  0  2  0  0  3  0  0  0  0  0  0
  186.0820  170.4770  135.6050 C   0  0  2  0  0  3  0  0  0  0  0  0
  185.1210  173.1280  138.9110 O   0  0  0  0  0  0  0  0  0  0  0  0
  191.7220  174.0320  138.0320 C   0  0  0  0  0  2  0  0  0  0  0  0
  193.8600  175.2100  138.6180 N   0  0  0  0  0  2  0  0  0  0  0  0
  184.8600  176.2040  137.0410 C   0  0  0  0  0  2  0  0  0  0  0  0
  194.6760  175.1010  137.4030 C   0  0  0  0  0  0  0  0  0  0  0  0
  191.0380  174.1280  134.3560 O   0  0  0  0  0  1  0  0  0  0  0  0
  187.2700  171.3990  135.4120 C   0  0  0  0  0  2  0  0  0  0  0  0
  187.0520  177.3130  137.3480 C   0  0  0  0  0  2  0  0  0  0  0  0
  184.0560  171.7430  137.3830 N   0  0  0  0  0  2  0  0  0  0  0  0
  195.9140  175.1390  137.1590 O   0  0  0  0  0  0  0  0  0  0  0  0
  190.8840  173.8040  136.7490 C   0  0  2  0  0  3  0  0  0  0  0  0
  188.5740  173.2220  136.4980 C   0  0  0  0  0  3  0  0  0  0  0  0
  183.8200  171.0130  136.1250 C   0  0  1  0  0  3  0  0  0  0  0  0
  189.7680  172.8320  136.9120 C   0  0  0  0  0  3  0  0  0  0  0  0
  189.0020  179.0840  138.7040 N   0  0  0  0  0  2  0  0  0  0  0  0
  188.5930  178.4410  139.9060 C   0  0  0  0  0  0  0  0  0  0  0  0
  188.2400  177.2310  139.9000 O   0  0  0  0  0  0  0  0  0  0  0  0
  188.6290  179.1840  141.1880 C   0  0  0  0  0  2  0  0  0  0  0  0
  188.1620  178.3430  142.2790 N   0  0  0  0  0  2  0  0  0  0  0  0
  190.2800  178.2100  143.2540 O   0  0  0  0  0  0  0  0  0  0  0  0
  189.0580  177.8880  143.2950 C   0  0  0  0  0  0  0  0  0  0  0  0
  186.7290  177.6710  147.0680 C   0  0  0  0  0  2  0  0  0  0  0  0
  188.1710  177.1410  146.9770 C   0  0  0  0  0  2  0  0  0  0  0  0
  190.4480  177.4580  146.0490 C   0  0  0  0  0  1  0  0  0  0  0  0
  188.5540  177.0830  144.4580 C   0  0  1  0  0  3  0  0  0  0  0  0
  186.3400  178.6110  145.9240 C   0  0  0  0  0  2  0  0  0  0  0  0
  188.9730  177.6980  145.8030 C   0  0  1  0  0  3  0  0  0  0  0  0
  186.0960  177.8770  144.6090 C   0  0  0  0  0  2  0  0  0  0  0  0
  187.0670  176.7230  144.3310 C   0  0  0  0  0  2  0  0  0  0  0  0
  181.4690  171.7150  136.2860 C   0  0  0  0  0  3  0  0  0  0  0  0
  182.5150  171.4170  135.5220 C   0  0  0  0  0  3  0  0  0  0  0  0
  180.1430  172.0610  135.6920 C   0  0  0  0  0  2  0  0  0  0  0  0
  180.2680  173.2080  134.7070 C   0  0  0  0  0  2  0  0  0  0  0  0
  180.1860  174.5150  135.4630 C   0  0  0  0  0  2  0  0  0  0  0  0
  181.9260  177.8410  134.4650 C   0  0  0  0  0  1  0  0  0  0  0  0
  180.8350  175.5820  134.7240 N   0  0  0  0  0  2  0  0  0  0  0  0
  181.1040  177.0340  136.5380 O   0  0  0  0  0  0  0  0  0  0  0  0
  181.2630  176.8090  135.3100 C   0  0  0  0  0  0  0  0  0  0  0  0
  1 11  1  6  0  0  0
  1 18  1  0  0  0  0
  2 17  1  0  0  0  0
  2 21  1  0  0  0  0
  4 25  1  0  0  0  0
  5 29  1  0  0  0  0
  5 14  1  0  0  0  0
  6 27  1  6  0  0  0
  6  3  1  0  0  0  0
  6 32  1  0  0  0  0
  8  4  1  0  0  0  0
  8 15  2  0  0  0  0
  9  3  1  1  0  0  0
  9 26  1  0  0  0  0
  9 13  1  0  0  0  0
 10  2  1  6  0  0  0
 10 21  1  0  0  0  0
 10 34  1  0  0  0  0
 12  7  1  1  0  0  0
 12 25  1  0  0  0  0
 12 29  1  0  0  0  0
 13 23  1  1  0  0  0
 13 24  1  0  0  0  0
 14  1  1  0  0  0  0
 14 36  1  1  0  0  0
 15 16  1  0  0  0  0
 16 22  2  0  0  0  0
 19 28  1  6  0  0  0
 19 15  1  0  0  0  0
 20 11  1  6  0  0  0
 20 13  1  0  0  0  0
 20 18  1  0  0  0  0
 21 28  1  6  0  0  0
 26 24  1  0  0  0  0
 30 16  1  0  0  0  0
 31 26  2  0  0  0  0
 32 35  1  1  0  0  0
 32 23  1  0  0  0  0
 33 19  1  0  0  0  0
 33 35  2  0  0  0  0
 34 52  1  6  0  0  0
 34 30  1  0  0  0  0
 36 37  1  0  0  0  0
 37 39  1  0  0  0  0
 38 37  2  0  0  0  0
 39 40  1  0  0  0  0
 40 42  1  0  0  0  0
 41 42  2  0  0  0  0
 44 43  1  0  0  0  0
 46 42  1  6  0  0  0
 46 48  1  0  0  0  0
 47 43  1  0  0  0  0
 48 45  1  1  0  0  0
 48 44  1  0  0  0  0
 49 47  1  0  0  0  0
 50 46  1  0  0  0  0
 50 49  1  0  0  0  0
 52 51  2  0  0  0  0
 53 51  1  0  0  0  0
 54 55  1  0  0  0  0
 54 53  1  0  0  0  0
 56 59  1  0  0  0  0
 57 59  1  0  0  0  0
 57 55  1  0  0  0  0
 59 58  2  0  0  0  0
M  END
>  <MODEL>
4

>  <REMARK>
 VINA RESULT:      -5.3      3.587     11.006
  Name = 
  9 active torsions:
  status: ('A' for Active; 'I' for Inactive)
    1  A    between atoms: C_1  and  C_13
    2  A    between atoms: C_1  and  C_16
    3  A    between atoms: C_8  and  C_43
    4  A    between atoms: N_11  and  C_27
    5  A    between atoms: C_14  and  C_23
    6  A    between atoms: C_16  and  C_54
    7  A    between atoms: N_18  and  C_23
    8  A    between atoms: N_26  and  C_54
    9  A    between atoms: C_55  and  C_57
                            x       y       z     vdW  Elec       q    Type
                         _______ _______ _______ _____ _____    ______ ____

>  <TORSDO>
F 9

$$$$
