=
 OpenBabel10232412183D

 56 65  0  0  1  0  0  0  0  0999 V2000
  189.9220  172.9590  136.5360 C   0  0  2  0  0  3  0  0  0  0  0  0
  193.0170  177.2250  137.5210 C   0  0  0  0  0  2  0  0  0  0  0  0
  188.5520  175.6230  137.2850 C   0  0  0  0  0  3  0  0  0  0  0  0
  188.5980  170.3130  135.3730 C   0  0  0  0  0  1  0  0  0  0  0  0
  190.8570  177.4280  141.8000 C   0  0  0  0  0  0  0  0  0  0  0  0
  189.4580  177.2780  139.8180 C   0  0  0  0  0  0  0  0  0  0  0  0
  187.4680  173.7300  136.0990 C   0  0  0  0  0  0  0  0  0  0  0  0
  192.5130  175.6530  135.6230 C   0  0  1  0  0  3  0  0  0  0  0  0
  191.0650  177.7950  143.2410 C   0  0  0  0  0  2  0  0  0  0  0  0
  188.2190  177.0400  137.6110 C   0  0  2  0  0  3  0  0  0  0  0  0
  190.8970  172.4730  135.4760 C   0  0  0  0  0  2  0  0  0  0  0  0
  192.9690  176.4540  138.8290 C   0  0  0  0  0  2  0  0  0  0  0  0
  188.3660  177.7040  142.0450 C   0  0  0  0  0  3  0  0  0  0  0  0
  188.1140  177.3010  139.1220 C   0  0  2  0  0  3  0  0  0  0  0  0
  187.4460  178.5930  139.3330 N   0  0  0  0  0  2  0  0  0  0  0  0
  186.4480  176.0240  136.4980 N   0  0  0  0  0  0  0  0  0  0  0  0
  186.8480  177.1190  137.0460 C   0  0  0  0  0  0  0  0  0  0  0  0
  188.5020  172.7930  136.0610 C   0  0  2  0  0  3  0  0  0  0  0  0
  189.1510  176.1670  143.8180 C   0  0  0  0  0  2  0  0  0  0  0  0
  186.6130  171.9290  135.2920 C   0  0  0  0  0  0  0  0  0  0  0  0
  188.1890  177.1860  143.2650 C   0  0  0  0  0  0  0  0  0  0  0  0
  191.8350  174.5400  136.4240 C   0  0  0  0  0  2  0  0  0  0  0  0
  190.5740  176.9750  139.0990 N   0  0  0  0  0  0  0  0  0  0  0  0
  185.9430  178.2490  137.3950 C   0  0  0  0  0  2  0  0  0  0  0  0
  190.5040  176.7610  144.2220 C   0  0  0  0  0  2  0  0  0  0  0  0
  186.0440  178.4820  138.9080 C   0  0  0  0  0  2  0  0  0  0  0  0
  187.9330  171.6340  135.5610 C   0  0  0  0  0  0  0  0  0  0  0  0
  186.3240  173.2030  135.6140 N   0  0  0  0  0  0  0  0  0  0  0  0
  193.6090  176.3520  136.4270 C   0  0  0  0  0  2  0  0  0  0  0  0
  191.8100  176.8910  139.6560 C   0  0  0  0  0  0  0  0  0  0  0  0
  189.5710  177.4670  141.2140 C   0  0  0  0  0  0  0  0  0  0  0  0
  190.6630  173.9540  135.6540 C   0  0  2  0  0  3  0  0  0  0  0  0
  187.5320  175.1100  136.6110 C   0  0  0  0  0  0  0  0  0  0  0  0
  191.9720  177.1260  141.0190 C   0  0  0  0  0  3  0  0  0  0  0  0
  185.7600  177.3270  143.5430 C   0  0  0  0  0  3  0  0  0  0  0  0
  186.9820  177.5620  144.0080 C   0  0  0  0  0  3  0  0  0  0  0  0
  184.8630  180.3490  143.2790 C   0  0  0  0  0  2  0  0  0  0  0  0
  182.1020  178.0600  143.9680 O   0  0  0  0  0  1  0  0  0  0  0  0
  185.8140  179.6270  145.4650 C   0  0  0  0  0  2  0  0  0  0  0  0
  184.8770  178.4350  145.6470 C   0  0  0  0  0  2  0  0  0  0  0  0
  184.5460  177.7140  144.3370 C   0  0  1  0  0  3  0  0  0  0  0  0
  183.5690  178.7740  142.1330 C   0  0  2  0  0  3  0  0  0  0  0  0
  183.3940  178.3780  143.5430 C   0  0  1  0  0  0  0  0  0  0  0  0
  185.1540  180.7680  144.7080 C   0  0  0  0  0  2  0  0  0  0  0  0
  183.5090  179.8160  143.1840 N   0  0  1  0  0  0  0  0  0  0  0  0
  182.3620  178.8110  138.7880 C   0  0  0  0  0  2  0  0  0  0  0  0
  181.7480  177.5060  139.2310 C   0  0  0  0  0  2  0  0  0  0  0  0
  181.0810  179.1030  142.0660 C   0  0  0  0  0  1  0  0  0  0  0  0
  182.1380  177.3600  140.6840 C   0  0  0  0  0  2  0  0  0  0  0  0
  182.3080  178.7650  141.2360 C   0  0  0  0  0  0  0  0  0  0  0  0
  182.3640  179.6930  140.0190 C   0  0  0  0  0  2  0  0  0  0  0  0
  184.1440  171.2830  135.8080 C   0  0  0  0  0  1  0  0  0  0  0  0
  185.4110  170.7950  134.6040 S   0  0  0  0  0  0  0  0  0  0  0  0
  193.0500  175.1510  134.3570 N   0  0  0  0  0  2  0  0  0  0  0  0
  194.3960  175.0200  134.4750 O   0  0  0  0  0  0  0  0  0  0  0  0
  194.6250  173.6490  134.3630 C   0  0  0  0  0  1  0  0  0  0  0  0
  1 11  1  6  0  0  0
  2 12  1  0  0  0  0
  4 27  1  0  0  0  0
  5  9  1  0  0  0  0
  6 31  2  0  0  0  0
  7 33  1  0  0  0  0
  8 54  1  6  0  0  0
  8 22  1  0  0  0  0
  8 29  1  0  0  0  0
  9 25  1  0  0  0  0
 10  3  1  1  0  0  0
 10 14  1  0  0  0  0
 12 30  1  0  0  0  0
 13 21  2  0  0  0  0
 14 15  1  6  0  0  0
 14  6  1  0  0  0  0
 16 33  1  0  0  0  0
 16 17  2  0  0  0  0
 17 24  1  0  0  0  0
 17 10  1  0  0  0  0
 18 27  1  1  0  0  0
 18  7  1  0  0  0  0
 18  1  1  0  0  0  0
 19 25  1  0  0  0  0
 20 27  2  0  0  0  0
 20 28  1  0  0  0  0
 21 19  1  0  0  0  0
 21 36  1  0  0  0  0
 23 30  2  0  0  0  0
 23  6  1  0  0  0  0
 24 26  1  0  0  0  0
 26 15  1  0  0  0  0
 28  7  2  0  0  0  0
 29  2  1  0  0  0  0
 30 34  1  0  0  0  0
 31  5  1  0  0  0  0
 31 13  1  0  0  0  0
 32 11  1  6  0  0  0
 32 22  1  0  0  0  0
 32  1  1  0  0  0  0
 33  3  2  0  0  0  0
 34  5  2  0  0  0  0
 35 36  2  0  0  0  0
 37 44  1  0  0  0  0
 39 40  1  0  0  0  0
 41 35  1  6  0  0  0
 41 40  1  0  0  0  0
 42 50  1  6  0  0  0
 42 45  1  0  0  0  0
 42 43  1  0  0  0  0
 43 38  1  1  0  0  0
 43 41  1  0  0  0  0
 44 39  1  0  0  0  0
 45 37  1  1  0  0  0
 45 43  1  0  0  0  0
 46 47  1  0  0  0  0
 46 51  1  0  0  0  0
 47 49  1  0  0  0  0
 49 50  1  0  0  0  0
 50 48  1  0  0  0  0
 51 50  1  0  0  0  0
 53 20  1  0  0  0  0
 53 52  1  0  0  0  0
 54 55  1  0  0  0  0
 56 55  1  0  0  0  0
M  END
>  <MODEL>
1

>  <REMARK>
 VINA RESULT:      -5.2      0.000      0.000
  Name = 
  6 active torsions:
  status: ('A' for Active; 'I' for Inactive)
    1  A    between atoms: C_9  and  C_29
    2  A    between atoms: N_13  and  C_14
    3  A    between atoms: N_13  and  O_22
    4  A    between atoms: C_23  and  C_36
    5  A    between atoms: C_34  and  S_40
    6  A    between atoms: C_37  and  C_39
                            x       y       z     vdW  Elec       q    Type
                         _______ _______ _______ _____ _____    ______ ____

>  <TORSDO>
F 6

$$$$
=
 OpenBabel10232412183D

 56 65  0  0  1  0  0  0  0  0999 V2000
  188.1970  176.4370  143.0230 C   0  0  2  0  0  3  0  0  0  0  0  0
  186.2590  178.3770  138.4160 C   0  0  0  0  0  2  0  0  0  0  0  0
  190.1790  177.0120  140.7260 C   0  0  0  0  0  3  0  0  0  0  0  0
  188.8350  175.7870  146.0690 C   0  0  0  0  0  1  0  0  0  0  0  0
  188.3020  174.5810  136.3080 C   0  0  0  0  0  0  0  0  0  0  0  0
  189.6630  175.9280  137.8040 C   0  0  0  0  0  0  0  0  0  0  0  0
  190.7760  176.8210  143.1280 C   0  0  0  0  0  0  0  0  0  0  0  0
  186.3940  179.0390  140.8380 C   0  0  1  0  0  3  0  0  0  0  0  0
  188.1610  173.6100  135.1720 C   0  0  0  0  0  2  0  0  0  0  0  0
  190.8510  177.4410  139.4660 C   0  0  2  0  0  3  0  0  0  0  0  0
  187.1560  177.2150  143.8100 C   0  0  0  0  0  2  0  0  0  0  0  0
  186.0810  176.8700  138.3230 C   0  0  0  0  0  2  0  0  0  0  0  0
  190.7760  174.1290  136.4430 C   0  0  0  0  0  3  0  0  0  0  0  0
  190.9850  176.3070  138.4380 C   0  0  2  0  0  3  0  0  0  0  0  0
  191.9520  176.7120  137.4090 N   0  0  0  0  0  2  0  0  0  0  0  0
  192.3330  177.5460  141.2550 N   0  0  0  0  0  0  0  0  0  0  0  0
  192.2110  177.7360  139.9870 C   0  0  0  0  0  0  0  0  0  0  0  0
  189.5400  176.5180  143.7020 C   0  0  0  0  0  0  0  0  0  0  0  0
  189.5870  171.9610  136.5470 C   0  0  0  0  0  2  0  0  0  0  0  0
  191.1660  176.3990  145.2010 C   0  0  0  0  0  0  0  0  0  0  0  0
  190.7880  172.8100  136.2200 C   0  0  0  0  0  0  0  0  0  0  0  0
  186.7500  177.6740  141.4280 C   0  0  0  0  0  2  0  0  0  0  0  0
  188.5230  176.5420  138.2270 N   0  0  0  0  0  0  0  0  0  0  0  0
  193.3640  177.9030  139.0590 C   0  0  0  0  0  2  0  0  0  0  0  0
  188.4190  172.1550  135.5750 C   0  0  0  0  0  2  0  0  0  0  0  0
  193.2900  176.7830  138.0120 C   0  0  0  0  0  2  0  0  0  0  0  0
  189.8090  176.2280  145.0290 C   0  0  0  0  0  0  0  0  0  0  0  0
  191.7600  176.7620  144.0500 N   0  0  0  0  0  2  0  0  0  0  0  0
  185.4920  178.9160  139.6100 C   0  0  0  0  0  2  0  0  0  0  0  0
  187.2940  176.2300  137.7410 C   0  0  0  0  0  0  0  0  0  0  0  0
  189.5690  174.8850  136.8560 C   0  0  0  0  0  0  0  0  0  0  0  0
  187.7530  177.8170  142.5610 C   0  0  2  0  0  3  0  0  0  0  0  0
  191.0510  177.1390  141.7160 C   0  0  0  0  0  0  0  0  0  0  0  0
  187.1650  175.2470  136.7640 C   0  0  0  0  0  3  0  0  0  0  0  0
  193.2290  172.6760  136.0730 C   0  0  0  0  0  3  0  0  0  0  0  0
  192.0330  172.2000  135.7430 C   0  0  0  0  0  3  0  0  0  0  0  0
  195.5770  172.4530  138.1800 C   0  0  0  0  0  2  0  0  0  0  0  0
  195.5930  169.7860  135.6860 O   0  0  0  0  0  1  0  0  0  0  0  0
  195.8940  174.0320  136.2790 C   0  0  0  0  0  2  0  0  0  0  0  0
  195.5810  173.0120  135.1860 C   0  0  0  0  0  2  0  0  0  0  0  0
  194.4830  172.0180  135.5770 C   0  0  1  0  0  3  0  0  0  0  0  0
  194.4030  170.4850  137.7170 C   0  0  2  0  0  3  0  0  0  0  0  0
  195.0040  170.8230  136.4120 C   0  0  1  0  0  0  0  0  0  0  0  0
  196.5510  173.3930  137.4930 C   0  0  0  0  0  2  0  0  0  0  0  0
  195.7510  171.0990  137.6680 N   0  0  1  0  0  0  0  0  0  0  0  0
  196.3870  167.9210  139.1780 C   0  0  0  0  0  2  0  0  0  0  0  0
  195.2530  167.9170  140.1730 C   0  0  0  0  0  2  0  0  0  0  0  0
  193.2900  168.2440  137.5140 C   0  0  0  0  0  1  0  0  0  0  0  0
  194.2730  168.9480  139.6590 C   0  0  0  0  0  2  0  0  0  0  0  0
  194.4450  169.0000  138.1500 C   0  0  0  0  0  0  0  0  0  0  0  0
  195.7540  168.2670  137.8470 C   0  0  0  0  0  2  0  0  0  0  0  0
  191.0530  177.4220  147.5940 C   0  0  0  0  0  1  0  0  0  0  0  0
  192.0580  176.1770  146.7370 S   0  0  0  0  0  0  0  0  0  0  0  0
  185.7760  179.9110  141.8390 N   0  0  0  0  0  2  0  0  0  0  0  0
  184.5560  179.4110  142.1610 O   0  0  0  0  0  0  0  0  0  0  0  0
  184.4440  179.6210  143.5360 C   0  0  0  0  0  1  0  0  0  0  0  0
  1 18  1  0  0  0  0
  1 11  1  1  0  0  0
  2 29  1  0  0  0  0
  3 33  2  0  0  0  0
  5 34  2  0  0  0  0
  5 31  1  0  0  0  0
  6 23  1  0  0  0  0
  6 14  1  0  0  0  0
  7 18  2  0  0  0  0
  7 28  1  0  0  0  0
  8 22  1  0  0  0  0
  8 54  1  1  0  0  0
  9 25  1  0  0  0  0
  9  5  1  0  0  0  0
 10 17  1  0  0  0  0
 10  3  1  1  0  0  0
 12  2  1  0  0  0  0
 13 31  1  0  0  0  0
 14 15  1  6  0  0  0
 14 10  1  0  0  0  0
 15 26  1  0  0  0  0
 16 33  1  0  0  0  0
 17 16  2  0  0  0  0
 18 27  1  0  0  0  0
 20 53  1  0  0  0  0
 21 13  2  0  0  0  0
 21 19  1  0  0  0  0
 24 17  1  0  0  0  0
 25 19  1  0  0  0  0
 26 24  1  0  0  0  0
 27 20  2  0  0  0  0
 27  4  1  0  0  0  0
 28 20  1  0  0  0  0
 29  8  1  0  0  0  0
 30 23  2  0  0  0  0
 30 12  1  0  0  0  0
 31  6  2  0  0  0  0
 32 22  1  6  0  0  0
 32  1  1  0  0  0  0
 32 11  1  0  0  0  0
 33  7  1  0  0  0  0
 34 30  1  0  0  0  0
 36 35  2  0  0  0  0
 36 21  1  0  0  0  0
 39 44  1  0  0  0  0
 40 41  1  0  0  0  0
 40 39  1  0  0  0  0
 41 35  1  1  0  0  0
 41 43  1  0  0  0  0
 42 50  1  6  0  0  0
 43 38  1  6  0  0  0
 43 45  1  0  0  0  0
 43 42  1  0  0  0  0
 44 37  1  0  0  0  0
 45 42  1  0  0  0  0
 45 37  1  1  0  0  0
 46 47  1  0  0  0  0
 48 50  1  0  0  0  0
 49 47  1  0  0  0  0
 50 49  1  0  0  0  0
 51 50  1  0  0  0  0
 51 46  1  0  0  0  0
 53 52  1  0  0  0  0
 54 55  1  0  0  0  0
 55 56  1  0  0  0  0
M  END
>  <MODEL>
2

>  <REMARK>
 VINA RESULT:      -3.4      3.654     11.257
  Name = 
  6 active torsions:
  status: ('A' for Active; 'I' for Inactive)
    1  A    between atoms: C_9  and  C_29
    2  A    between atoms: N_13  and  C_14
    3  A    between atoms: N_13  and  O_22
    4  A    between atoms: C_23  and  C_36
    5  A    between atoms: C_34  and  S_40
    6  A    between atoms: C_37  and  C_39
                            x       y       z     vdW  Elec       q    Type
                         _______ _______ _______ _____ _____    ______ ____

>  <TORSDO>
F 6

$$$$
