=
 OpenBabel10232411313D

 27 29  0  0  1  0  0  0  0  0999 V2000
  191.3330  178.0070  141.7520 C   0  0  0  0  0  3  0  0  0  0  0  0
  190.2380  176.7370  140.0180 C   0  0  0  0  0  0  0  0  0  0  0  0
  188.9820  177.4080  141.9980 C   0  0  0  0  0  0  0  0  0  0  0  0
  190.1470  178.0410  142.5060 C   0  0  0  0  0  0  0  0  0  0  0  0
  191.3780  177.3640  140.5160 C   0  0  0  0  0  3  0  0  0  0  0  0
  189.0510  176.7640  140.7520 C   0  0  0  0  0  3  0  0  0  0  0  0
  187.6780  177.3870  142.7140 C   0  0  0  0  0  0  0  0  0  0  0  0
  186.7270  178.4360  142.4720 N   0  0  0  0  0  2  0  0  0  0  0  0
  187.4090  176.4700  143.5350 O   0  0  0  0  0  0  0  0  0  0  0  0
  185.2430  178.8140  144.3620 C   0  0  0  0  0  3  0  0  0  0  0  0
  181.8390  179.0690  143.5120 O   0  0  0  0  0  0  0  0  0  0  0  0
  185.4290  178.5750  143.0680 C   0  0  0  0  0  0  0  0  0  0  0  0
  183.9560  178.4410  142.0650 S   0  0  0  0  0  0  0  0  0  0  0  0
  183.8260  178.9450  144.7940 C   0  0  0  0  0  2  0  0  0  0  0  0
  183.0390  178.8570  143.5380 C   0  0  0  0  0  0  0  0  0  0  0  0
  190.1660  178.7170  143.8520 C   0  0  2  0  0  3  0  0  0  0  0  0
  191.0200  179.9760  143.8620 C   0  0  0  0  0  1  0  0  0  0  0  0
  189.7600  177.7000  146.1340 C   0  0  0  0  0  3  0  0  0  0  0  0
  191.2730  176.0190  147.0250 C   0  0  0  0  0  0  0  0  0  0  0  0
  192.0360  176.1010  145.8560 C   0  0  0  0  0  3  0  0  0  0  0  0
  191.6650  176.9750  144.8290 C   0  0  0  0  0  3  0  0  0  0  0  0
  190.5260  177.7740  144.9610 C   0  0  0  0  0  0  0  0  0  0  0  0
  190.1310  176.8260  147.1600 C   0  0  0  0  0  3  0  0  0  0  0  0
  191.6700  175.1360  148.0310 O   0  0  0  0  0  0  0  0  0  0  0  0
  192.8610  175.3170  148.7860 C   0  0  0  0  0  1  0  0  0  0  0  0
  191.4640  175.3520  138.5550 O   0  0  0  0  0  1  0  0  0  0  0  0
  190.2750  176.0690  138.6880 C   0  0  0  0  0  2  0  0  0  0  0  0
  1  4  1  0  0  0  0
  2  5  1  0  0  0  0
  2  6  2  0  0  0  0
  3  4  2  0  0  0  0
  3  7  1  0  0  0  0
  4 16  1  0  0  0  0
  5  1  2  0  0  0  0
  6  3  1  0  0  0  0
  7  9  2  0  0  0  0
  8  7  1  0  0  0  0
  8 12  1  0  0  0  0
 10 14  1  0  0  0  0
 11 15  2  0  0  0  0
 12 10  2  0  0  0  0
 13 12  1  0  0  0  0
 13 15  1  0  0  0  0
 15 14  1  0  0  0  0
 16 17  1  6  0  0  0
 16 22  1  0  0  0  0
 18 23  1  0  0  0  0
 19 23  2  0  0  0  0
 19 24  1  0  0  0  0
 20 19  1  0  0  0  0
 21 22  1  0  0  0  0
 21 20  2  0  0  0  0
 22 18  2  0  0  0  0
 24 25  1  0  0  0  0
 26 27  1  0  0  0  0
 27  2  1  0  0  0  0
M  END
>  <MODEL>
1

>  <REMARK>
 VINA RESULT:      -8.8      0.000      0.000
  Name = 
  6 active torsions:
  status: ('A' for Active; 'I' for Inactive)
    1  A    between atoms: C_3  and  C_11
    2  A    between atoms: C_5  and  C_13
    3  A    between atoms: C_5  and  C_23
    4  A    between atoms: C_6  and  O_17
    5  A    between atoms: C_8  and  C_27
    6  A    between atoms: N_9  and  C_10
                            x       y       z     vdW  Elec       q    Type
                         _______ _______ _______ _____ _____    ______ ____

>  <TORSDO>
F 6

$$$$
=
 OpenBabel10232411313D

 27 29  0  0  1  0  0  0  0  0999 V2000
  187.0110  177.3060  144.7900 C   0  0  0  0  0  3  0  0  0  0  0  0
  185.0150  178.4340  144.0360 C   0  0  0  0  0  0  0  0  0  0  0  0
  186.9440  178.2700  142.5500 C   0  0  0  0  0  0  0  0  0  0  0  0
  187.6450  177.5630  143.5620 C   0  0  0  0  0  0  0  0  0  0  0  0
  185.7050  177.7340  145.0240 C   0  0  0  0  0  3  0  0  0  0  0  0
  185.6300  178.6930  142.8090 C   0  0  0  0  0  3  0  0  0  0  0  0
  187.5220  178.5920  141.2180 C   0  0  0  0  0  0  0  0  0  0  0  0
  187.1950  177.7620  140.0920 N   0  0  0  0  0  2  0  0  0  0  0  0
  188.3000  179.5720  141.0740 O   0  0  0  0  0  0  0  0  0  0  0  0
  188.9440  177.9570  138.4120 C   0  0  0  0  0  3  0  0  0  0  0  0
  187.7730  178.0340  135.0950 O   0  0  0  0  0  0  0  0  0  0  0  0
  187.6570  177.9220  138.7430 C   0  0  0  0  0  0  0  0  0  0  0  0
  186.4870  178.0750  137.4000 S   0  0  0  0  0  0  0  0  0  0  0  0
  189.2300  178.1110  136.9610 C   0  0  0  0  0  2  0  0  0  0  0  0
  187.8970  178.0750  136.3070 C   0  0  0  0  0  0  0  0  0  0  0  0
  189.0710  177.1110  143.3770 C   0  0  2  0  0  3  0  0  0  0  0  0
  189.1750  175.8230  142.5730 C   0  0  0  0  0  1  0  0  0  0  0  0
  189.2590  177.5120  145.8690 C   0  0  0  0  0  3  0  0  0  0  0  0
  191.2880  176.9160  147.0670 C   0  0  0  0  0  0  0  0  0  0  0  0
  191.8450  176.4510  145.8710 C   0  0  0  0  0  3  0  0  0  0  0  0
  191.1160  176.5120  144.6800 C   0  0  0  0  0  3  0  0  0  0  0  0
  189.8200  177.0380  144.6730 C   0  0  0  0  0  0  0  0  0  0  0  0
  189.9880  177.4500  147.0600 C   0  0  0  0  0  3  0  0  0  0  0  0
  192.0430  176.8400  148.2400 O   0  0  0  0  0  0  0  0  0  0  0  0
  192.9080  175.7490  148.5250 C   0  0  0  0  0  1  0  0  0  0  0  0
  183.4310  179.1540  145.6270 O   0  0  0  0  0  1  0  0  0  0  0  0
  183.6130  178.8710  144.2730 C   0  0  0  0  0  2  0  0  0  0  0  0
  1  5  1  0  0  0  0
  2 27  1  0  0  0  0
  2  5  2  0  0  0  0
  3  6  2  0  0  0  0
  3  4  1  0  0  0  0
  4  1  2  0  0  0  0
  6  2  1  0  0  0  0
  7  3  1  0  0  0  0
  8  7  1  0  0  0  0
  9  7  2  0  0  0  0
 10 12  2  0  0  0  0
 11 15  2  0  0  0  0
 12  8  1  0  0  0  0
 13 12  1  0  0  0  0
 14 10  1  0  0  0  0
 15 14  1  0  0  0  0
 15 13  1  0  0  0  0
 16 17  1  1  0  0  0
 16  4  1  0  0  0  0
 16 22  1  0  0  0  0
 18 23  1  0  0  0  0
 19 24  1  0  0  0  0
 20 19  1  0  0  0  0
 21 20  2  0  0  0  0
 22 21  1  0  0  0  0
 22 18  2  0  0  0  0
 23 19  2  0  0  0  0
 24 25  1  0  0  0  0
 27 26  1  0  0  0  0
M  END
>  <MODEL>
2

>  <REMARK>
 VINA RESULT:      -8.7      2.386      5.474
  Name = 
  6 active torsions:
  status: ('A' for Active; 'I' for Inactive)
    1  A    between atoms: C_3  and  C_11
    2  A    between atoms: C_5  and  C_13
    3  A    between atoms: C_5  and  C_23
    4  A    between atoms: C_6  and  O_17
    5  A    between atoms: C_8  and  C_27
    6  A    between atoms: N_9  and  C_10
                            x       y       z     vdW  Elec       q    Type
                         _______ _______ _______ _____ _____    ______ ____

>  <TORSDO>
F 6

$$$$
=
 OpenBabel10232411313D

 27 29  0  0  1  0  0  0  0  0999 V2000
  185.8010  178.9550  141.0750 C   0  0  0  0  0  3  0  0  0  0  0  0
  184.5380  178.7690  143.1220 C   0  0  0  0  0  0  0  0  0  0  0  0
  186.7830  177.8210  142.9980 C   0  0  0  0  0  0  0  0  0  0  0  0
  186.8810  178.2660  141.6530 C   0  0  0  0  0  0  0  0  0  0  0  0
  184.6410  179.2090  141.8040 C   0  0  0  0  0  3  0  0  0  0  0  0
  185.6030  178.0860  143.7120 C   0  0  0  0  0  3  0  0  0  0  0  0
  187.8660  177.0860  143.7030 C   0  0  0  0  0  0  0  0  0  0  0  0
  188.7310  177.8010  144.6000 N   0  0  0  0  0  2  0  0  0  0  0  0
  188.0380  175.8530  143.5120 O   0  0  0  0  0  0  0  0  0  0  0  0
  190.9130  176.7450  144.8060 C   0  0  0  0  0  3  0  0  0  0  0  0
  192.0870  176.4570  148.1100 O   0  0  0  0  0  0  0  0  0  0  0  0
  189.8190  177.2580  145.3610 C   0  0  0  0  0  0  0  0  0  0  0  0
  189.7610  177.2570  147.1480 S   0  0  0  0  0  0  0  0  0  0  0  0
  191.9430  176.2460  145.7550 C   0  0  0  0  0  2  0  0  0  0  0  0
  191.4190  176.5980  147.1000 C   0  0  0  0  0  0  0  0  0  0  0  0
  188.0960  177.9860  140.8070 C   0  0  2  0  0  3  0  0  0  0  0  0
  189.3120  178.7870  141.2480 C   0  0  0  0  0  1  0  0  0  0  0  0
  186.5950  177.7220  138.7860 C   0  0  0  0  0  3  0  0  0  0  0  0
  187.3660  178.3820  136.5790 C   0  0  0  0  0  0  0  0  0  0  0  0
  188.5860  178.7820  137.1350 C   0  0  0  0  0  3  0  0  0  0  0  0
  188.8110  178.6550  138.5090 C   0  0  0  0  0  3  0  0  0  0  0  0
  187.8170  178.1300  139.3410 C   0  0  0  0  0  0  0  0  0  0  0  0
  186.3700  177.8490  137.4130 C   0  0  0  0  0  3  0  0  0  0  0  0
  187.1730  178.5230  135.2020 O   0  0  0  0  0  0  0  0  0  0  0  0
  186.2460  177.7300  134.4730 C   0  0  0  0  0  1  0  0  0  0  0  0
  183.6400  179.2060  145.2580 O   0  0  0  0  0  1  0  0  0  0  0  0
  183.3100  179.0580  143.9110 C   0  0  0  0  0  2  0  0  0  0  0  0
  1  4  2  0  0  0  0
  1  5  1  0  0  0  0
  2  6  1  0  0  0  0
  2 27  1  0  0  0  0
  3  7  1  0  0  0  0
  3  6  2  0  0  0  0
  4  3  1  0  0  0  0
  5  2  2  0  0  0  0
  7  8  1  0  0  0  0
  8 12  1  0  0  0  0
  9  7  2  0  0  0  0
 10 12  2  0  0  0  0
 10 14  1  0  0  0  0
 12 13  1  0  0  0  0
 14 15  1  0  0  0  0
 15 13  1  0  0  0  0
 15 11  2  0  0  0  0
 16 17  1  1  0  0  0
 16  4  1  0  0  0  0
 18 22  1  0  0  0  0
 19 20  2  0  0  0  0
 19 23  1  0  0  0  0
 20 21  1  0  0  0  0
 21 22  2  0  0  0  0
 22 16  1  0  0  0  0
 23 18  2  0  0  0  0
 24 19  1  0  0  0  0
 25 24  1  0  0  0  0
 27 26  1  0  0  0  0
M  END
>  <MODEL>
3

>  <REMARK>
 VINA RESULT:      -8.5      3.044      8.095
  Name = 
  6 active torsions:
  status: ('A' for Active; 'I' for Inactive)
    1  A    between atoms: C_3  and  C_11
    2  A    between atoms: C_5  and  C_13
    3  A    between atoms: C_5  and  C_23
    4  A    between atoms: C_6  and  O_17
    5  A    between atoms: C_8  and  C_27
    6  A    between atoms: N_9  and  C_10
                            x       y       z     vdW  Elec       q    Type
                         _______ _______ _______ _____ _____    ______ ____

>  <TORSDO>
F 6

$$$$
=
 OpenBabel10232411313D

 27 29  0  0  1  0  0  0  0  0999 V2000
  189.1230  177.0920  142.2580 C   0  0  0  0  0  3  0  0  0  0  0  0
  188.8100  177.8970  140.0050 C   0  0  0  0  0  0  0  0  0  0  0  0
  187.0720  178.2770  141.6750 C   0  0  0  0  0  0  0  0  0  0  0  0
  187.8700  177.6030  142.6380 C   0  0  0  0  0  0  0  0  0  0  0  0
  189.5920  177.2410  140.9550 C   0  0  0  0  0  3  0  0  0  0  0  0
  187.5650  178.4130  140.3670 C   0  0  0  0  0  3  0  0  0  0  0  0
  185.7350  178.8540  141.9720 C   0  0  0  0  0  0  0  0  0  0  0  0
  184.5700  178.0200  141.8660 N   0  0  0  0  0  2  0  0  0  0  0  0
  185.6150  180.0640  142.3030 O   0  0  0  0  0  0  0  0  0  0  0  0
  182.2790  178.4480  141.1670 C   0  0  0  0  0  3  0  0  0  0  0  0
  180.0650  179.1780  143.8020 O   0  0  0  0  0  0  0  0  0  0  0  0
  183.2110  178.4060  142.1150 C   0  0  0  0  0  0  0  0  0  0  0  0
  182.6850  178.8480  143.7650 S   0  0  0  0  0  0  0  0  0  0  0  0
  180.9210  178.8540  141.6180 C   0  0  0  0  0  2  0  0  0  0  0  0
  181.0380  178.9910  143.0920 C   0  0  0  0  0  0  0  0  0  0  0  0
  187.3960  177.3800  144.0500 C   0  0  2  0  0  3  0  0  0  0  0  0
  186.3630  178.4090  144.4880 C   0  0  0  0  0  1  0  0  0  0  0  0
  189.8510  177.0770  144.5840 C   0  0  0  0  0  3  0  0  0  0  0  0
  190.6150  176.9960  146.8890 C   0  0  0  0  0  0  0  0  0  0  0  0
  189.2960  177.1710  147.3210 C   0  0  0  0  0  3  0  0  0  0  0  0
  188.2590  177.3020  146.3930 C   0  0  0  0  0  3  0  0  0  0  0  0
  188.5310  177.2600  145.0220 C   0  0  0  0  0  0  0  0  0  0  0  0
  190.8880  176.9480  145.5120 C   0  0  0  0  0  3  0  0  0  0  0  0
  191.6280  176.8700  147.8430 O   0  0  0  0  0  0  0  0  0  0  0  0
  192.5430  175.7830  147.8500 C   0  0  0  0  0  1  0  0  0  0  0  0
  188.6750  179.1610  138.0200 O   0  0  0  0  0  1  0  0  0  0  0  0
  189.3180  178.0780  138.6180 C   0  0  0  0  0  2  0  0  0  0  0  0
  1  4  1  0  0  0  0
  2  6  2  0  0  0  0
  2  5  1  0  0  0  0
  3  7  1  0  0  0  0
  3  4  2  0  0  0  0
  4 16  1  0  0  0  0
  5  1  2  0  0  0  0
  6  3  1  0  0  0  0
  7  9  2  0  0  0  0
  8  7  1  0  0  0  0
  8 12  1  0  0  0  0
 10 14  1  0  0  0  0
 10 12  2  0  0  0  0
 12 13  1  0  0  0  0
 14 15  1  0  0  0  0
 15 13  1  0  0  0  0
 15 11  2  0  0  0  0
 16 17  1  1  0  0  0
 16 22  1  0  0  0  0
 18 22  2  0  0  0  0
 18 23  1  0  0  0  0
 19 20  1  0  0  0  0
 19 24  1  0  0  0  0
 21 20  2  0  0  0  0
 22 21  1  0  0  0  0
 23 19  2  0  0  0  0
 24 25  1  0  0  0  0
 26 27  1  0  0  0  0
 27  2  1  0  0  0  0
M  END
>  <MODEL>
4

>  <REMARK>
 VINA RESULT:      -8.0      1.999      2.823
  Name = 
  6 active torsions:
  status: ('A' for Active; 'I' for Inactive)
    1  A    between atoms: C_3  and  C_11
    2  A    between atoms: C_5  and  C_13
    3  A    between atoms: C_5  and  C_23
    4  A    between atoms: C_6  and  O_17
    5  A    between atoms: C_8  and  C_27
    6  A    between atoms: N_9  and  C_10
                            x       y       z     vdW  Elec       q    Type
                         _______ _______ _______ _____ _____    ______ ____

>  <TORSDO>
F 6

$$$$
=
 OpenBabel10232411313D

 27 29  0  0  1  0  0  0  0  0999 V2000
  185.0580  177.8680  137.8420 C   0  0  0  0  0  3  0  0  0  0  0  0
  187.4490  178.0480  138.1100 C   0  0  0  0  0  0  0  0  0  0  0  0
  185.9870  178.4440  140.0220 C   0  0  0  0  0  0  0  0  0  0  0  0
  184.8600  178.1890  139.1960 C   0  0  0  0  0  0  0  0  0  0  0  0
  186.3410  177.7930  137.3040 C   0  0  0  0  0  3  0  0  0  0  0  0
  187.2700  178.3650  139.4580 C   0  0  0  0  0  3  0  0  0  0  0  0
  185.8880  178.7900  141.4650 C   0  0  0  0  0  0  0  0  0  0  0  0
  186.1800  177.7850  142.4500 N   0  0  0  0  0  2  0  0  0  0  0  0
  185.5420  179.9450  141.8280 O   0  0  0  0  0  0  0  0  0  0  0  0
  187.1130  177.5340  144.6830 C   0  0  0  0  0  3  0  0  0  0  0  0
  185.2320  179.0700  147.2290 O   0  0  0  0  0  0  0  0  0  0  0  0
  186.1380  177.9410  143.8760 C   0  0  0  0  0  0  0  0  0  0  0  0
  184.7350  178.7260  144.6580 S   0  0  0  0  0  0  0  0  0  0  0  0
  186.9010  177.7970  146.1310 C   0  0  0  0  0  2  0  0  0  0  0  0
  185.6320  178.5660  146.1930 C   0  0  0  0  0  0  0  0  0  0  0  0
  183.4500  178.2940  139.7160 C   0  0  2  0  0  3  0  0  0  0  0  0
  182.8190  176.9330  139.9690 C   0  0  0  0  0  1  0  0  0  0  0  0
  182.6470  180.5720  138.9600 C   0  0  0  0  0  3  0  0  0  0  0  0
  180.9190  180.7740  137.2640 C   0  0  0  0  0  0  0  0  0  0  0  0
  180.8600  179.3800  137.1730 C   0  0  0  0  0  3  0  0  0  0  0  0
  181.6900  178.5830  137.9680 C   0  0  0  0  0  3  0  0  0  0  0  0
  182.5890  179.1740  138.8610 C   0  0  0  0  0  0  0  0  0  0  0  0
  181.8190  181.3680  138.1650 C   0  0  0  0  0  3  0  0  0  0  0  0
  180.0780  181.5410  136.4550 O   0  0  0  0  0  0  0  0  0  0  0  0
  180.3740  182.8830  136.0940 C   0  0  0  0  0  1  0  0  0  0  0  0
  189.2250  179.1910  137.0620 O   0  0  0  0  0  1  0  0  0  0  0  0
  188.8210  177.9460  137.5440 C   0  0  0  0  0  2  0  0  0  0  0  0
  1  4  1  0  0  0  0
  2  6  2  0  0  0  0
  3  7  1  0  0  0  0
  4 16  1  0  0  0  0
  4  3  2  0  0  0  0
  5  1  2  0  0  0  0
  5  2  1  0  0  0  0
  6  3  1  0  0  0  0
  7  9  2  0  0  0  0
  7  8  1  0  0  0  0
  8 12  1  0  0  0  0
 10 14  1  0  0  0  0
 12 13  1  0  0  0  0
 12 10  2  0  0  0  0
 13 15  1  0  0  0  0
 14 15  1  0  0  0  0
 15 11  2  0  0  0  0
 16 17  1  6  0  0  0
 19 23  1  0  0  0  0
 20 19  2  0  0  0  0
 20 21  1  0  0  0  0
 21 22  2  0  0  0  0
 22 18  1  0  0  0  0
 22 16  1  0  0  0  0
 23 18  2  0  0  0  0
 24 19  1  0  0  0  0
 25 24  1  0  0  0  0
 26 27  1  0  0  0  0
 27  2  1  0  0  0  0
M  END
>  <MODEL>
5

>  <REMARK>
 VINA RESULT:      -8.0      4.580      8.800
  Name = 
  6 active torsions:
  status: ('A' for Active; 'I' for Inactive)
    1  A    between atoms: C_3  and  C_11
    2  A    between atoms: C_5  and  C_13
    3  A    between atoms: C_5  and  C_23
    4  A    between atoms: C_6  and  O_17
    5  A    between atoms: C_8  and  C_27
    6  A    between atoms: N_9  and  C_10
                            x       y       z     vdW  Elec       q    Type
                         _______ _______ _______ _____ _____    ______ ____

>  <TORSDO>
F 6

$$$$
=
 OpenBabel10232411313D

 27 29  0  0  1  0  0  0  0  0999 V2000
  188.4940  178.4040  140.1990 C   0  0  0  0  0  3  0  0  0  0  0  0
  189.8310  177.5020  141.9940 C   0  0  0  0  0  0  0  0  0  0  0  0
  190.3490  176.9060  139.6860 C   0  0  0  0  0  0  0  0  0  0  0  0
  189.2690  177.7170  139.2490 C   0  0  0  0  0  0  0  0  0  0  0  0
  188.7750  178.3020  141.5600 C   0  0  0  0  0  3  0  0  0  0  0  0
  190.6120  176.8160  141.0620 C   0  0  0  0  0  3  0  0  0  0  0  0
  191.2290  176.1400  138.7640 C   0  0  0  0  0  0  0  0  0  0  0  0
  192.5150  176.6760  138.4130 N   0  0  0  0  0  2  0  0  0  0  0  0
  190.8540  175.0380  138.2830 O   0  0  0  0  0  0  0  0  0  0  0  0
  193.7550  176.5340  136.3240 C   0  0  0  0  0  3  0  0  0  0  0  0
  196.2950  174.1000  136.3030 O   0  0  0  0  0  0  0  0  0  0  0  0
  193.4880  176.0780  137.5450 C   0  0  0  0  0  0  0  0  0  0  0  0
  194.4280  174.6570  138.0850 S   0  0  0  0  0  0  0  0  0  0  0  0
  194.8080  175.7960  135.5790 C   0  0  0  0  0  2  0  0  0  0  0  0
  195.3180  174.7880  136.5440 C   0  0  0  0  0  0  0  0  0  0  0  0
  188.8970  177.8330  137.7930 C   0  0  2  0  0  3  0  0  0  0  0  0
  188.9680  179.2660  137.2860 C   0  0  0  0  0  1  0  0  0  0  0  0
  186.3930  177.9240  137.4390 C   0  0  0  0  0  3  0  0  0  0  0  0
  185.1400  175.9010  136.9450 C   0  0  0  0  0  0  0  0  0  0  0  0
  186.3280  175.1650  136.9990 C   0  0  0  0  0  3  0  0  0  0  0  0
  187.5430  175.8010  137.2680 C   0  0  0  0  0  3  0  0  0  0  0  0
  187.5820  177.1820  137.4850 C   0  0  0  0  0  0  0  0  0  0  0  0
  185.1780  177.2880  137.1680 C   0  0  0  0  0  3  0  0  0  0  0  0
  183.9430  175.2350  136.6730 O   0  0  0  0  0  0  0  0  0  0  0  0
  183.1230  174.6830  137.6940 C   0  0  0  0  0  1  0  0  0  0  0  0
  191.5140  177.1860  143.6140 O   0  0  0  0  0  1  0  0  0  0  0  0
  190.1480  177.4080  143.4450 C   0  0  0  0  0  2  0  0  0  0  0  0
  1  5  1  0  0  0  0
  2 27  1  0  0  0  0
  3  6  2  0  0  0  0
  4  3  1  0  0  0  0
  4  1  2  0  0  0  0
  5  2  2  0  0  0  0
  6  2  1  0  0  0  0
  7  3  1  0  0  0  0
  8  7  1  0  0  0  0
  9  7  2  0  0  0  0
 10 12  2  0  0  0  0
 11 15  2  0  0  0  0
 12 13  1  0  0  0  0
 12  8  1  0  0  0  0
 14 10  1  0  0  0  0
 14 15  1  0  0  0  0
 15 13  1  0  0  0  0
 16 17  1  1  0  0  0
 16  4  1  0  0  0  0
 18 22  1  0  0  0  0
 19 20  2  0  0  0  0
 19 23  1  0  0  0  0
 20 21  1  0  0  0  0
 21 22  2  0  0  0  0
 22 16  1  0  0  0  0
 23 18  2  0  0  0  0
 24 19  1  0  0  0  0
 24 25  1  0  0  0  0
 27 26  1  0  0  0  0
M  END
>  <MODEL>
6

>  <REMARK>
 VINA RESULT:      -7.8      4.665      9.470
  Name = 
  6 active torsions:
  status: ('A' for Active; 'I' for Inactive)
    1  A    between atoms: C_3  and  C_11
    2  A    between atoms: C_5  and  C_13
    3  A    between atoms: C_5  and  C_23
    4  A    between atoms: C_6  and  O_17
    5  A    between atoms: C_8  and  C_27
    6  A    between atoms: N_9  and  C_10
                            x       y       z     vdW  Elec       q    Type
                         _______ _______ _______ _____ _____    ______ ____

>  <TORSDO>
F 6

$$$$
=
 OpenBabel10232411313D

 27 29  0  0  1  0  0  0  0  0999 V2000
  186.3860  178.7880  140.8450 C   0  0  0  0  0  3  0  0  0  0  0  0
  188.4020  178.1970  139.6590 C   0  0  0  0  0  0  0  0  0  0  0  0
  188.1960  177.6640  142.0300 C   0  0  0  0  0  0  0  0  0  0  0  0
  186.9000  178.2440  142.0340 C   0  0  0  0  0  0  0  0  0  0  0  0
  187.1270  178.7610  139.6650 C   0  0  0  0  0  3  0  0  0  0  0  0
  188.9260  177.6500  140.8310 C   0  0  0  0  0  3  0  0  0  0  0  0
  188.8320  177.0610  143.2320 C   0  0  0  0  0  0  0  0  0  0  0  0
  189.3320  177.9210  144.2680 N   0  0  0  0  0  2  0  0  0  0  0  0
  188.9450  175.8110  143.3420 O   0  0  0  0  0  0  0  0  0  0  0  0
  189.3960  177.6330  146.6830 C   0  0  0  0  0  3  0  0  0  0  0  0
  192.2380  175.9340  147.8720 O   0  0  0  0  0  0  0  0  0  0  0  0
  189.9680  177.5170  145.4890 C   0  0  0  0  0  0  0  0  0  0  0  0
  191.6070  176.8030  145.4600 S   0  0  0  0  0  0  0  0  0  0  0  0
  190.2020  177.1440  147.8330 C   0  0  0  0  0  2  0  0  0  0  0  0
  191.4200  176.5570  147.2180 C   0  0  0  0  0  0  0  0  0  0  0  0
  186.0700  178.3350  143.2890 C   0  0  2  0  0  3  0  0  0  0  0  0
  186.3440  177.1900  144.2530 C   0  0  0  0  0  1  0  0  0  0  0  0
  184.0810  178.2140  141.7290 C   0  0  0  0  0  3  0  0  0  0  0  0
  181.8690  178.8690  142.4930 C   0  0  0  0  0  0  0  0  0  0  0  0
  182.4020  179.1580  143.7540 C   0  0  0  0  0  3  0  0  0  0  0  0
  183.7650  178.9750  144.0050 C   0  0  0  0  0  3  0  0  0  0  0  0
  184.6090  178.4990  142.9970 C   0  0  0  0  0  0  0  0  0  0  0  0
  182.7180  178.3960  141.4790 C   0  0  0  0  0  3  0  0  0  0  0  0
  180.5030  179.0610  142.2760 O   0  0  0  0  0  0  0  0  0  0  0  0
  179.9980  179.8040  141.1740 C   0  0  0  0  0  1  0  0  0  0  0  0
  188.9830  179.3170  137.6670 O   0  0  0  0  0  1  0  0  0  0  0  0
  189.1880  178.1460  138.3970 C   0  0  0  0  0  2  0  0  0  0  0  0
  1  4  1  0  0  0  0
  2  5  1  0  0  0  0
  2  6  2  0  0  0  0
  3  4  2  0  0  0  0
  3  7  1  0  0  0  0
  4 16  1  0  0  0  0
  5  1  2  0  0  0  0
  6  3  1  0  0  0  0
  7  9  2  0  0  0  0
  7  8  1  0  0  0  0
  8 12  1  0  0  0  0
 10 14  1  0  0  0  0
 12 10  2  0  0  0  0
 13 12  1  0  0  0  0
 13 15  1  0  0  0  0
 15 14  1  0  0  0  0
 15 11  2  0  0  0  0
 16 17  1  6  0  0  0
 18 22  1  0  0  0  0
 19 20  2  0  0  0  0
 20 21  1  0  0  0  0
 22 16  1  0  0  0  0
 22 21  2  0  0  0  0
 23 18  2  0  0  0  0
 23 19  1  0  0  0  0
 24 19  1  0  0  0  0
 25 24  1  0  0  0  0
 26 27  1  0  0  0  0
 27  2  1  0  0  0  0
M  END
>  <MODEL>
7

>  <REMARK>
 VINA RESULT:      -7.7      2.556      7.320
  Name = 
  6 active torsions:
  status: ('A' for Active; 'I' for Inactive)
    1  A    between atoms: C_3  and  C_11
    2  A    between atoms: C_5  and  C_13
    3  A    between atoms: C_5  and  C_23
    4  A    between atoms: C_6  and  O_17
    5  A    between atoms: C_8  and  C_27
    6  A    between atoms: N_9  and  C_10
                            x       y       z     vdW  Elec       q    Type
                         _______ _______ _______ _____ _____    ______ ____

>  <TORSDO>
F 6

$$$$
=
 OpenBabel10232411313D

 27 29  0  0  1  0  0  0  0  0999 V2000
  191.8750  177.2460  140.0980 C   0  0  0  0  0  3  0  0  0  0  0  0
  192.5410  176.5980  137.8720 C   0  0  0  0  0  0  0  0  0  0  0  0
  190.1750  176.6230  138.4640 C   0  0  0  0  0  0  0  0  0  0  0  0
  190.5220  177.0520  139.7730 C   0  0  0  0  0  0  0  0  0  0  0  0
  192.8770  177.0250  139.1550 C   0  0  0  0  0  3  0  0  0  0  0  0
  191.2010  176.4040  137.5310 C   0  0  0  0  0  3  0  0  0  0  0  0
  188.7760  176.3900  138.0180 C   0  0  0  0  0  0  0  0  0  0  0  0
  187.9800  177.5070  137.5920 N   0  0  0  0  0  2  0  0  0  0  0  0
  188.2830  175.2310  138.0220 O   0  0  0  0  0  0  0  0  0  0  0  0
  186.2720  177.0350  135.9240 C   0  0  0  0  0  3  0  0  0  0  0  0
  182.9700  177.4730  137.0550 O   0  0  0  0  0  0  0  0  0  0  0  0
  186.6210  177.4700  137.1310 C   0  0  0  0  0  0  0  0  0  0  0  0
  185.2910  178.0090  138.1950 S   0  0  0  0  0  0  0  0  0  0  0  0
  184.8150  177.0520  135.6300 C   0  0  0  0  0  2  0  0  0  0  0  0
  184.1790  177.4860  136.9010 C   0  0  0  0  0  0  0  0  0  0  0  0
  189.4830  177.2690  140.8420 C   0  0  2  0  0  3  0  0  0  0  0  0
  188.6270  178.5000  140.5830 C   0  0  0  0  0  1  0  0  0  0  0  0
  190.0950  178.4210  143.0110 C   0  0  0  0  0  3  0  0  0  0  0  0
  191.2270  177.2020  144.7820 C   0  0  0  0  0  0  0  0  0  0  0  0
  191.2080  176.0500  143.9880 C   0  0  0  0  0  3  0  0  0  0  0  0
  190.6330  176.0800  142.7130 C   0  0  0  0  0  3  0  0  0  0  0  0
  190.0710  177.2610  142.2210 C   0  0  0  0  0  0  0  0  0  0  0  0
  190.6670  178.3910  144.2860 C   0  0  0  0  0  3  0  0  0  0  0  0
  191.8080  177.1380  146.0510 O   0  0  0  0  0  0  0  0  0  0  0  0
  191.9990  175.9130  146.7460 C   0  0  0  0  0  1  0  0  0  0  0  0
  194.6070  175.5690  137.3860 O   0  0  0  0  0  1  0  0  0  0  0  0
  193.6060  176.3840  136.8550 C   0  0  0  0  0  2  0  0  0  0  0  0
  2  5  1  0  0  0  0
  3  4  2  0  0  0  0
  4  1  1  0  0  0  0
  4 16  1  0  0  0  0
  5  1  2  0  0  0  0
  6  2  2  0  0  0  0
  6  3  1  0  0  0  0
  7  9  2  0  0  0  0
  7  3  1  0  0  0  0
  8  7  1  0  0  0  0
 10 12  2  0  0  0  0
 12  8  1  0  0  0  0
 12 13  1  0  0  0  0
 14 10  1  0  0  0  0
 14 15  1  0  0  0  0
 15 11  2  0  0  0  0
 15 13  1  0  0  0  0
 16 17  1  6  0  0  0
 16 22  1  0  0  0  0
 18 23  1  0  0  0  0
 19 24  1  0  0  0  0
 20 19  1  0  0  0  0
 21 20  2  0  0  0  0
 22 21  1  0  0  0  0
 22 18  2  0  0  0  0
 23 19  2  0  0  0  0
 24 25  1  0  0  0  0
 27 26  1  0  0  0  0
 27  2  1  0  0  0  0
M  END
>  <MODEL>
8

>  <REMARK>
 VINA RESULT:      -7.7      3.264      4.580
  Name = 
  6 active torsions:
  status: ('A' for Active; 'I' for Inactive)
    1  A    between atoms: C_3  and  C_11
    2  A    between atoms: C_5  and  C_13
    3  A    between atoms: C_5  and  C_23
    4  A    between atoms: C_6  and  O_17
    5  A    between atoms: C_8  and  C_27
    6  A    between atoms: N_9  and  C_10
                            x       y       z     vdW  Elec       q    Type
                         _______ _______ _______ _____ _____    ______ ____

>  <TORSDO>
F 6

$$$$
=
 OpenBabel10232411313D

 27 29  0  0  1  0  0  0  0  0999 V2000
  186.5410  178.2850  142.6340 C   0  0  0  0  0  3  0  0  0  0  0  0
  185.0790  178.8190  140.7900 C   0  0  0  0  0  0  0  0  0  0  0  0
  187.4250  178.3020  140.3610 C   0  0  0  0  0  0  0  0  0  0  0  0
  187.6240  178.1150  141.7550 C   0  0  0  0  0  0  0  0  0  0  0  0
  185.2780  178.6290  142.1570 C   0  0  0  0  0  3  0  0  0  0  0  0
  186.1440  178.6510  139.9030 C   0  0  0  0  0  3  0  0  0  0  0  0
  188.5010  178.1460  139.3470 C   0  0  0  0  0  0  0  0  0  0  0  0
  188.6050  176.9140  138.6160 N   0  0  0  0  0  2  0  0  0  0  0  0
  189.3250  179.0760  139.1350 O   0  0  0  0  0  0  0  0  0  0  0  0
  189.2970  176.5860  136.3070 C   0  0  0  0  0  3  0  0  0  0  0  0
  192.7350  175.9680  135.8910 O   0  0  0  0  0  0  0  0  0  0  0  0
  189.5730  176.5910  137.6070 C   0  0  0  0  0  0  0  0  0  0  0  0
  191.2510  176.1800  138.0650 S   0  0  0  0  0  0  0  0  0  0  0  0
  190.4320  176.2440  135.4100 C   0  0  0  0  0  2  0  0  0  0  0  0
  191.6010  176.1080  136.3160 C   0  0  0  0  0  0  0  0  0  0  0  0
  188.9760  177.7800  142.3290 C   0  0  2  0  0  3  0  0  0  0  0  0
  189.5850  176.5360  141.7000 C   0  0  0  0  0  1  0  0  0  0  0  0
  187.8100  177.3280  144.5290 C   0  0  0  0  0  3  0  0  0  0  0  0
  188.9760  177.6530  146.6360 C   0  0  0  0  0  0  0  0  0  0  0  0
  190.1190  178.0450  145.9310 C   0  0  0  0  0  3  0  0  0  0  0  0
  190.1120  178.0760  144.5340 C   0  0  0  0  0  3  0  0  0  0  0  0
  188.9610  177.7150  143.8270 C   0  0  0  0  0  0  0  0  0  0  0  0
  187.8170  177.2950  145.9260 C   0  0  0  0  0  3  0  0  0  0  0  0
  189.0160  177.6310  148.0320 O   0  0  0  0  0  0  0  0  0  0  0  0
  187.8590  177.8170  148.8360 C   0  0  0  0  0  1  0  0  0  0  0  0
  183.8420  180.0750  139.2240 O   0  0  0  0  0  1  0  0  0  0  0  0
  183.7270  179.1640  140.2740 C   0  0  0  0  0  2  0  0  0  0  0  0
  2  5  2  0  0  0  0
  3  4  1  0  0  0  0
  4 16  1  0  0  0  0
  4  1  2  0  0  0  0
  5  1  1  0  0  0  0
  6  3  2  0  0  0  0
  6  2  1  0  0  0  0
  7  3  1  0  0  0  0
  8  7  1  0  0  0  0
  9  7  2  0  0  0  0
 10 12  2  0  0  0  0
 11 15  2  0  0  0  0
 12 13  1  0  0  0  0
 12  8  1  0  0  0  0
 14 10  1  0  0  0  0
 14 15  1  0  0  0  0
 15 13  1  0  0  0  0
 16 17  1  6  0  0  0
 16 22  1  0  0  0  0
 18 23  1  0  0  0  0
 19 24  1  0  0  0  0
 20 19  1  0  0  0  0
 21 20  2  0  0  0  0
 22 18  2  0  0  0  0
 22 21  1  0  0  0  0
 23 19  2  0  0  0  0
 24 25  1  0  0  0  0
 26 27  1  0  0  0  0
 27  2  1  0  0  0  0
M  END
>  <MODEL>
9

>  <REMARK>
 VINA RESULT:      -7.6      3.084      6.370
  Name = 
  6 active torsions:
  status: ('A' for Active; 'I' for Inactive)
    1  A    between atoms: C_3  and  C_11
    2  A    between atoms: C_5  and  C_13
    3  A    between atoms: C_5  and  C_23
    4  A    between atoms: C_6  and  O_17
    5  A    between atoms: C_8  and  C_27
    6  A    between atoms: N_9  and  C_10
                            x       y       z     vdW  Elec       q    Type
                         _______ _______ _______ _____ _____    ______ ____

>  <TORSDO>
F 6

$$$$
