=
 OpenBabel10222422023D

 44 50  0  0  1  0  0  0  0  0999 V2000
  183.8380  175.9920  137.9570 C   0  0  0  0  0  0  0  0  0  0  0  0
  182.7600  179.0100  139.7830 S   0  0  0  0  0  0  0  0  0  0  0  0
  186.9320  177.2110  137.6150 C   0  0  2  0  0  3  0  0  0  0  0  0
  188.4330  177.4210  137.9630 C   0  0  2  0  0  0  0  0  0  0  0  0
  188.8390  177.8610  139.3670 C   0  0  1  0  0  3  0  0  0  0  0  0
  185.7510  174.6380  137.6970 F   0  0  0  0  0  0  0  0  0  0  0  0
  184.0040  174.2990  136.3380 F   0  0  0  0  0  0  0  0  0  0  0  0
  182.8620  177.4600  139.1730 C   0  0  0  0  0  0  0  0  0  0  0  0
  184.7370  175.2690  136.9980 C   0  0  0  0  0  0  0  0  0  0  0  0
  188.9310  178.8330  138.1940 C   0  0  0  0  0  2  0  0  0  0  0  0
  189.4580  176.4490  137.3830 C   0  0  0  0  0  2  0  0  0  0  0  0
  182.0230  176.4180  139.1300 N   0  0  0  0  0  0  0  0  0  0  0  0
  184.2860  179.4600  139.1420 C   0  0  0  0  0  3  0  0  0  0  0  0
  182.6370  175.5030  138.3810 N   0  0  0  0  0  0  0  0  0  0  0  0
  186.7150  176.7390  136.1650 C   0  0  2  0  0  3  0  0  0  0  0  0
  183.9840  177.2590  138.4870 C   0  0  2  0  0  3  0  0  0  0  0  0
  189.5330  177.3930  135.0710 C   0  0  0  0  0  1  0  0  0  0  0  0
  185.2780  176.2420  135.9410 C   0  0  0  0  0  2  0  0  0  0  0  0
  184.8330  178.3680  138.4500 C   0  0  0  0  0  0  0  0  0  0  0  0
  186.1370  178.4080  137.8680 N   0  0  0  0  0  2  0  0  0  0  0  0
  187.7500  175.6840  135.7260 C   0  0  2  0  0  3  0  0  0  0  0  0
  189.1970  176.1650  135.9110 C   0  0  2  0  0  3  0  0  0  0  0  0
  187.6760  178.2270  140.2770 C   0  0  0  0  0  2  0  0  0  0  0  0
  188.1470  178.4400  141.7090 C   0  0  0  0  0  2  0  0  0  0  0  0
  188.1760  177.1360  142.4970 C   0  0  0  0  0  2  0  0  0  0  0  0
  186.3960  177.9970  145.7310 C   0  0  0  0  0  0  0  0  0  0  0  0
  187.9160  177.3650  143.9500 C   0  0  0  0  0  0  0  0  0  0  0  0
  188.6670  177.3390  146.2540 C   0  0  0  0  0  3  0  0  0  0  0  0
  188.9220  177.1430  144.8950 C   0  0  0  0  0  3  0  0  0  0  0  0
  187.1760  177.9610  147.9990 F   0  0  0  0  0  0  0  0  0  0  0  0
  185.0430  178.4690  146.1580 C   0  0  0  0  0  1  0  0  0  0  0  0
  186.6520  177.7860  144.3710 C   0  0  0  0  0  3  0  0  0  0  0  0
  187.4040  177.7680  146.6760 C   0  0  0  0  0  0  0  0  0  0  0  0
  187.4900  175.0600  134.3460 C   0  0  0  0  0  2  0  0  0  0  0  0
  187.4180  173.5390  134.3700 C   0  0  0  0  0  2  0  0  0  0  0  0
  187.7400  173.0540  135.7010 N   0  0  0  0  0  2  0  0  0  0  0  0
  186.7330  172.0670  136.0460 C   0  0  0  0  0  2  0  0  0  0  0  0
  186.0480  171.5860  134.7760 C   0  0  0  0  0  2  0  0  0  0  0  0
  184.2050  171.1770  136.2570 O   0  0  0  0  0  0  0  0  0  0  0  0
  183.4460  171.2530  135.0750 C   0  0  1  0  0  3  0  0  0  0  0  0
  185.0440  169.3400  135.1610 O   0  0  0  0  0  1  0  0  0  0  0  0
  184.8370  170.7190  135.0880 C   0  0  1  0  0  0  0  0  0  0  0  0
  181.1040  170.6790  135.6430 C   0  0  0  0  0  1  0  0  0  0  0  0
  182.4020  170.1500  135.0750 C   0  0  0  0  0  2  0  0  0  0  0  0
  1 14  2  0  0  0  0
  3 20  1  6  0  0  0
  3  4  1  0  0  0  0
  4 11  1  6  0  0  0
  4 10  1  0  0  0  0
  4  5  1  0  0  0  0
  5 23  1  1  0  0  0
  7  9  1  0  0  0  0
  8  2  1  0  0  0  0
  9  6  1  0  0  0  0
  9  1  1  0  0  0  0
 10  5  1  0  0  0  0
 12  8  2  0  0  0  0
 13  2  1  0  0  0  0
 14 12  1  0  0  0  0
 15 18  1  1  0  0  0
 15  3  1  0  0  0  0
 16  1  1  6  0  0  0
 16  8  1  0  0  0  0
 18  9  1  0  0  0  0
 19 16  1  0  0  0  0
 19 13  2  0  0  0  0
 20 19  1  0  0  0  0
 21 34  1  6  0  0  0
 21 22  1  0  0  0  0
 21 15  1  0  0  0  0
 22 17  1  6  0  0  0
 22 11  1  0  0  0  0
 23 24  1  0  0  0  0
 24 25  1  0  0  0  0
 25 27  1  0  0  0  0
 26 31  1  0  0  0  0
 26 33  1  0  0  0  0
 27 32  1  0  0  0  0
 27 29  2  0  0  0  0
 28 33  2  0  0  0  0
 29 28  1  0  0  0  0
 32 26  2  0  0  0  0
 33 30  1  0  0  0  0
 34 35  1  0  0  0  0
 35 36  1  0  0  0  0
 36 37  1  0  0  0  0
 38 42  1  0  0  0  0
 38 37  1  0  0  0  0
 40 44  1  1  0  0  0
 40 42  1  0  0  0  0
 40 39  1  0  0  0  0
 42 41  1  6  0  0  0
 42 39  1  0  0  0  0
 44 43  1  0  0  0  0
M  END
>  <MODEL>
1

>  <REMARK>
 VINA RESULT:      -7.8      0.000      0.000
  Name = 
  11 active torsions:
  status: ('A' for Active; 'I' for Inactive)
    1  A    between atoms: C_3  and  C_39
    2  A    between atoms: C_6  and  C_38
    3  A    between atoms: C_7  and  C_12
    4  A    between atoms: C_7  and  C_13
    5  A    between atoms: C_8  and  C_36
    6  A    between atoms: C_8  and  C_40
    7  A    between atoms: C_13  and  C_39
    8  A    between atoms: C_25  and  C_41
    9  A    between atoms: C_31  and  N_37
   10  A    between atoms: C_31  and  C_41
   11  A    between atoms: C_36  and  N_37
                            x       y       z     vdW  Elec       q    Type
                         _______ _______ _______ _____ _____    ______ ____

>  <TORSDO>
F 11

$$$$
=
 OpenBabel10222422023D

 44 50  0  0  1  0  0  0  0  0999 V2000
  183.7560  176.1500  138.1240 C   0  0  0  0  0  0  0  0  0  0  0  0
  182.6200  179.0540  140.0960 S   0  0  0  0  0  0  0  0  0  0  0  0
  186.8590  177.3830  137.9560 C   0  0  2  0  0  3  0  0  0  0  0  0
  188.3480  177.5680  138.3630 C   0  0  2  0  0  0  0  0  0  0  0  0
  188.7090  177.9220  139.8040 C   0  0  1  0  0  3  0  0  0  0  0  0
  185.6770  174.8110  137.8430 F   0  0  0  0  0  0  0  0  0  0  0  0
  183.9740  174.5590  136.4110 F   0  0  0  0  0  0  0  0  0  0  0  0
  182.7410  177.5430  139.3960 C   0  0  0  0  0  0  0  0  0  0  0  0
  184.6860  175.4850  137.1530 C   0  0  0  0  0  0  0  0  0  0  0  0
  188.8380  178.9630  138.6960 C   0  0  0  0  0  2  0  0  0  0  0  0
  189.3920  176.6330  137.7580 C   0  0  0  0  0  2  0  0  0  0  0  0
  181.9050  176.5070  139.2630 N   0  0  0  0  0  0  0  0  0  0  0  0
  184.1650  179.5390  139.5330 C   0  0  0  0  0  3  0  0  0  0  0  0
  182.5430  175.6390  138.4800 N   0  0  0  0  0  0  0  0  0  0  0  0
  186.6880  177.0000  136.4730 C   0  0  2  0  0  3  0  0  0  0  0  0
  183.8850  177.3830  138.7350 C   0  0  2  0  0  3  0  0  0  0  0  0
  189.5400  177.7150  135.5120 C   0  0  0  0  0  1  0  0  0  0  0  0
  185.2600  176.5200  136.1740 C   0  0  0  0  0  2  0  0  0  0  0  0
  184.7340  178.4900  138.7930 C   0  0  0  0  0  0  0  0  0  0  0  0
  186.0560  178.5640  138.2570 N   0  0  0  0  0  2  0  0  0  0  0  0
  187.7370  175.9730  136.0050 C   0  0  2  0  0  3  0  0  0  0  0  0
  189.1770  176.4390  136.2640 C   0  0  2  0  0  3  0  0  0  0  0  0
  187.5170  178.2340  140.6970 C   0  0  0  0  0  2  0  0  0  0  0  0
  187.9220  178.2480  142.1650 C   0  0  0  0  0  2  0  0  0  0  0  0
  187.0420  177.3310  143.0060 C   0  0  0  0  0  2  0  0  0  0  0  0
  188.8430  177.3540  146.3400 C   0  0  0  0  0  0  0  0  0  0  0  0
  187.3120  177.4950  144.4650 C   0  0  0  0  0  0  0  0  0  0  0  0
  186.5760  178.1310  146.6850 C   0  0  0  0  0  3  0  0  0  0  0  0
  186.3110  177.9610  145.3240 C   0  0  0  0  0  3  0  0  0  0  0  0
  188.0780  177.9910  148.5230 F   0  0  0  0  0  0  0  0  0  0  0  0
  190.1990  177.0100  146.8680 C   0  0  0  0  0  1  0  0  0  0  0  0
  188.5780  177.1990  144.9750 C   0  0  0  0  0  3  0  0  0  0  0  0
  187.8410  177.8270  147.1980 C   0  0  0  0  0  0  0  0  0  0  0  0
  187.5210  175.4340  134.5820 C   0  0  0  0  0  2  0  0  0  0  0  0
  188.0920  174.0380  134.3660 C   0  0  0  0  0  2  0  0  0  0  0  0
  187.7340  173.1840  135.4850 N   0  0  0  0  0  2  0  0  0  0  0  0
  188.9400  172.4840  135.8850 C   0  0  0  0  0  2  0  0  0  0  0  0
  190.1380  173.1060  135.1820 C   0  0  0  0  0  2  0  0  0  0  0  0
  192.2200  172.3380  136.0940 O   0  0  0  0  0  0  0  0  0  0  0  0
  192.6780  173.6080  135.6970 C   0  0  1  0  0  3  0  0  0  0  0  0
  190.9320  173.6440  137.4790 O   0  0  0  0  0  1  0  0  0  0  0  0
  191.2770  173.3800  136.1510 C   0  0  1  0  0  0  0  0  0  0  0  0
  194.5370  173.1460  137.2670 C   0  0  0  0  0  1  0  0  0  0  0  0
  193.5540  174.1920  136.7920 C   0  0  0  0  0  2  0  0  0  0  0  0
  1 14  2  0  0  0  0
  3 20  1  6  0  0  0
  3  4  1  0  0  0  0
  4 11  1  6  0  0  0
  4 10  1  0  0  0  0
  4  5  1  0  0  0  0
  5 23  1  1  0  0  0
  7  9  1  0  0  0  0
  8  2  1  0  0  0  0
  9  6  1  0  0  0  0
  9  1  1  0  0  0  0
 10  5  1  0  0  0  0
 12  8  2  0  0  0  0
 13  2  1  0  0  0  0
 14 12  1  0  0  0  0
 15 18  1  1  0  0  0
 15  3  1  0  0  0  0
 16  1  1  6  0  0  0
 16 19  1  0  0  0  0
 16  8  1  0  0  0  0
 18  9  1  0  0  0  0
 19 13  2  0  0  0  0
 20 19  1  0  0  0  0
 21 34  1  6  0  0  0
 21 22  1  0  0  0  0
 21 15  1  0  0  0  0
 22 17  1  6  0  0  0
 22 11  1  0  0  0  0
 23 24  1  0  0  0  0
 24 25  1  0  0  0  0
 25 27  1  0  0  0  0
 26 31  1  0  0  0  0
 26 33  1  0  0  0  0
 27 32  1  0  0  0  0
 27 29  2  0  0  0  0
 28 33  2  0  0  0  0
 29 28  1  0  0  0  0
 32 26  2  0  0  0  0
 33 30  1  0  0  0  0
 35 34  1  0  0  0  0
 35 36  1  0  0  0  0
 36 37  1  0  0  0  0
 38 37  1  0  0  0  0
 38 42  1  0  0  0  0
 39 42  1  0  0  0  0
 40 39  1  0  0  0  0
 40 42  1  0  0  0  0
 40 44  1  1  0  0  0
 42 41  1  1  0  0  0
 44 43  1  0  0  0  0
M  END
>  <MODEL>
2

>  <REMARK>
 VINA RESULT:      -7.6      2.426      3.942
  Name = 
  11 active torsions:
  status: ('A' for Active; 'I' for Inactive)
    1  A    between atoms: C_3  and  C_39
    2  A    between atoms: C_6  and  C_38
    3  A    between atoms: C_7  and  C_12
    4  A    between atoms: C_7  and  C_13
    5  A    between atoms: C_8  and  C_36
    6  A    between atoms: C_8  and  C_40
    7  A    between atoms: C_13  and  C_39
    8  A    between atoms: C_25  and  C_41
    9  A    between atoms: C_31  and  N_37
   10  A    between atoms: C_31  and  C_41
   11  A    between atoms: C_36  and  N_37
                            x       y       z     vdW  Elec       q    Type
                         _______ _______ _______ _____ _____    ______ ____

>  <TORSDO>
F 11

$$$$
=
 OpenBabel10222422023D

 44 50  0  0  1  0  0  0  0  0999 V2000
  186.4330  178.4580  139.6370 C   0  0  0  0  0  0  0  0  0  0  0  0
  188.0070  177.7610  136.3740 S   0  0  0  0  0  0  0  0  0  0  0  0
  183.5590  177.0770  138.6290 C   0  0  2  0  0  3  0  0  0  0  0  0
  182.4920  175.9590  138.4600 C   0  0  2  0  0  0  0  0  0  0  0  0
  182.8890  174.6020  137.8810 C   0  0  1  0  0  3  0  0  0  0  0  0
  184.8580  177.5030  141.1100 F   0  0  0  0  0  0  0  0  0  0  0  0
  185.5800  179.5840  141.5120 F   0  0  0  0  0  0  0  0  0  0  0  0
  187.7530  178.1040  137.9880 C   0  0  0  0  0  0  0  0  0  0  0  0
  185.2370  178.6920  140.5120 C   0  0  0  0  0  0  0  0  0  0  0  0
  182.0570  175.5820  137.0580 C   0  0  0  0  0  2  0  0  0  0  0  0
  181.4300  175.7940  139.5440 C   0  0  0  0  0  2  0  0  0  0  0  0
  188.5340  178.5420  138.9830 N   0  0  0  0  0  0  0  0  0  0  0  0
  186.3450  177.4590  136.0820 C   0  0  0  0  0  3  0  0  0  0  0  0
  187.7110  178.7520  140.0090 N   0  0  0  0  0  2  0  0  0  0  0  0
  182.9840  178.3620  139.2550 C   0  0  2  0  0  3  0  0  0  0  0  0
  186.4680  178.0230  138.3260 C   0  0  0  0  0  0  0  0  0  0  0  0
  179.9820  177.7170  138.8800 C   0  0  0  0  0  1  0  0  0  0  0  0
  184.0980  179.3220  139.6980 C   0  0  0  0  0  2  0  0  0  0  0  0
  185.6280  177.6480  137.2750 C   0  0  0  0  0  0  0  0  0  0  0  0
  184.2250  177.3960  137.3700 N   0  0  0  0  0  2  0  0  0  0  0  0
  182.0010  178.0690  140.4060 C   0  0  2  0  0  3  0  0  0  0  0  0
  180.8590  177.1340  139.9830 C   0  0  2  0  0  3  0  0  0  0  0  0
  184.3140  174.5330  137.3520 C   0  0  0  0  0  2  0  0  0  0  0  0
  185.0000  173.2470  137.7920 C   0  0  0  0  0  2  0  0  0  0  0  0
  185.6150  172.4990  136.6150 C   0  0  0  0  0  2  0  0  0  0  0  0
  189.1440  173.8530  136.3480 C   0  0  0  0  0  0  0  0  0  0  0  0
  186.8230  173.2000  136.0880 C   0  0  0  0  0  0  0  0  0  0  0  0
  187.9300  174.4720  134.3470 C   0  0  0  0  0  3  0  0  0  0  0  0
  186.7890  173.8360  134.8430 C   0  0  0  0  0  3  0  0  0  0  0  0
  190.2050  175.1140  134.6040 F   0  0  0  0  0  0  0  0  0  0  0  0
  190.3900  173.8640  137.1740 C   0  0  0  0  0  1  0  0  0  0  0  0
  188.0040  173.2040  136.8350 C   0  0  0  0  0  3  0  0  0  0  0  0
  189.1100  174.4840  135.0970 C   0  0  0  0  0  0  0  0  0  0  0  0
  181.5170  179.3110  141.1710 C   0  0  0  0  0  2  0  0  0  0  0  0
  181.5030  179.1260  142.6830 C   0  0  0  0  0  2  0  0  0  0  0  0
  182.7840  178.6010  143.1250 N   0  0  0  0  0  2  0  0  0  0  0  0
  183.3130  179.5410  144.0950 C   0  0  0  0  0  2  0  0  0  0  0  0
  183.6300  178.8040  145.3870 C   0  0  0  0  0  2  0  0  0  0  0  0
  185.6470  179.7020  146.3250 O   0  0  0  0  0  0  0  0  0  0  0  0
  185.7460  178.4320  146.9210 C   0  0  1  0  0  3  0  0  0  0  0  0
  185.8970  178.4240  144.4310 O   0  0  0  0  0  1  0  0  0  0  0  0
  185.1280  178.6290  145.5790 C   0  0  1  0  0  0  0  0  0  0  0  0
  187.7580  177.8070  148.2240 C   0  0  0  0  0  1  0  0  0  0  0  0
  187.1810  177.9440  146.8320 C   0  0  0  0  0  2  0  0  0  0  0  0
  1 14  1  0  0  0  0
  1  9  1  0  0  0  0
  2  8  1  0  0  0  0
  3 20  1  6  0  0  0
  3 15  1  0  0  0  0
  4 10  1  6  0  0  0
  4  3  1  0  0  0  0
  4 11  1  0  0  0  0
  5 23  1  6  0  0  0
  5  4  1  0  0  0  0
  8 16  1  0  0  0  0
  8 12  2  0  0  0  0
  9  6  1  0  0  0  0
  9  7  1  0  0  0  0
 10  5  1  0  0  0  0
 11 22  1  0  0  0  0
 12 14  1  0  0  0  0
 13  2  1  0  0  0  0
 13 19  2  0  0  0  0
 15 18  1  1  0  0  0
 15 21  1  0  0  0  0
 16  1  2  0  0  0  0
 18  9  1  0  0  0  0
 19 20  1  0  0  0  0
 19 16  1  0  0  0  0
 21 34  1  6  0  0  0
 22 17  1  6  0  0  0
 22 21  1  0  0  0  0
 23 24  1  0  0  0  0
 25 24  1  0  0  0  0
 26 32  1  0  0  0  0
 26 31  1  0  0  0  0
 27 25  1  0  0  0  0
 27 32  2  0  0  0  0
 28 29  2  0  0  0  0
 28 33  1  0  0  0  0
 29 27  1  0  0  0  0
 30 33  1  0  0  0  0
 33 26  2  0  0  0  0
 34 35  1  0  0  0  0
 35 36  1  0  0  0  0
 36 37  1  0  0  0  0
 37 38  1  0  0  0  0
 38 42  1  0  0  0  0
 39 40  1  0  0  0  0
 40 44  1  6  0  0  0
 42 41  1  6  0  0  0
 42 39  1  0  0  0  0
 42 40  1  0  0  0  0
 44 43  1  0  0  0  0
M  END
>  <MODEL>
3

>  <REMARK>
 VINA RESULT:      -7.5      3.812      9.337
  Name = 
  11 active torsions:
  status: ('A' for Active; 'I' for Inactive)
    1  A    between atoms: C_3  and  C_39
    2  A    between atoms: C_6  and  C_38
    3  A    between atoms: C_7  and  C_12
    4  A    between atoms: C_7  and  C_13
    5  A    between atoms: C_8  and  C_36
    6  A    between atoms: C_8  and  C_40
    7  A    between atoms: C_13  and  C_39
    8  A    between atoms: C_25  and  C_41
    9  A    between atoms: C_31  and  N_37
   10  A    between atoms: C_31  and  C_41
   11  A    between atoms: C_36  and  N_37
                            x       y       z     vdW  Elec       q    Type
                         _______ _______ _______ _____ _____    ______ ____

>  <TORSDO>
F 11

$$$$
=
 OpenBabel10222422023D

 44 50  0  0  1  0  0  0  0  0999 V2000
  186.4440  174.4690  136.7290 C   0  0  0  0  0  0  0  0  0  0  0  0
  184.3540  177.4130  137.4860 S   0  0  0  0  0  0  0  0  0  0  0  0
  189.2040  176.0830  137.7080 C   0  0  2  0  0  3  0  0  0  0  0  0
  190.3370  176.5180  138.6800 C   0  0  2  0  0  0  0  0  0  0  0  0
  189.9900  177.0940  140.0510 C   0  0  1  0  0  3  0  0  0  0  0  0
  188.3720  173.3800  137.5390 F   0  0  0  0  0  0  0  0  0  0  0  0
  187.5130  172.7220  135.5790 F   0  0  0  0  0  0  0  0  0  0  0  0
  184.8770  175.8590  137.1780 C   0  0  0  0  0  0  0  0  0  0  0  0
  187.7530  173.8220  136.3840 C   0  0  0  0  0  0  0  0  0  0  0  0
  190.5310  177.9960  138.9460 C   0  0  0  0  0  2  0  0  0  0  0  0
  191.6010  175.6650  138.7550 C   0  0  0  0  0  2  0  0  0  0  0  0
  184.2600  174.7090  136.8760 N   0  0  0  0  0  0  0  0  0  0  0  0
  185.9520  178.0310  137.5710 C   0  0  0  0  0  3  0  0  0  0  0  0
  185.2370  173.8460  136.6080 N   0  0  0  0  0  0  0  0  0  0  0  0
  189.7410  175.4990  136.3870 C   0  0  2  0  0  3  0  0  0  0  0  0
  186.2040  175.7740  137.1140 C   0  0  2  0  0  3  0  0  0  0  0  0
  192.6660  176.4700  136.6450 C   0  0  0  0  0  1  0  0  0  0  0  0
  188.6340  174.7950  135.5880 C   0  0  0  0  0  2  0  0  0  0  0  0
  186.8600  176.9850  137.3420 C   0  0  0  0  0  0  0  0  0  0  0  0
  188.2740  177.1710  137.4250 N   0  0  0  0  0  2  0  0  0  0  0  0
  190.9550  174.5730  136.6010 C   0  0  2  0  0  3  0  0  0  0  0  0
  192.0920  175.2600  137.3730 C   0  0  2  0  0  3  0  0  0  0  0  0
  188.5070  177.3480  140.2740 C   0  0  0  0  0  2  0  0  0  0  0  0
  188.2600  177.9930  141.6310 C   0  0  0  0  0  2  0  0  0  0  0  0
  188.2390  176.9620  142.7530 C   0  0  0  0  0  2  0  0  0  0  0  0
  185.3030  178.3460  144.7100 C   0  0  0  0  0  0  0  0  0  0  0  0
  187.3850  177.4070  143.8940 C   0  0  0  0  0  0  0  0  0  0  0  0
  187.0280  177.6870  146.2750 C   0  0  0  0  0  3  0  0  0  0  0  0
  187.8410  177.2870  145.2110 C   0  0  0  0  0  3  0  0  0  0  0  0
  184.9870  178.6090  147.0730 F   0  0  0  0  0  0  0  0  0  0  0  0
  183.9540  178.9230  144.4220 C   0  0  0  0  0  1  0  0  0  0  0  0
  186.1130  177.9300  143.6470 C   0  0  0  0  0  3  0  0  0  0  0  0
  185.7590  178.2180  146.0290 C   0  0  0  0  0  0  0  0  0  0  0  0
  191.4360  173.8380  135.3410 C   0  0  0  0  0  2  0  0  0  0  0  0
  192.5700  172.8550  135.6050 C   0  0  0  0  0  2  0  0  0  0  0  0
  193.7830  173.3210  134.9560 N   0  0  0  0  0  2  0  0  0  0  0  0
  194.8970  172.8550  135.7610 C   0  0  0  0  0  2  0  0  0  0  0  0
  194.6430  173.2020  137.2200 C   0  0  0  0  0  2  0  0  0  0  0  0
  195.1620  174.8340  138.9000 O   0  0  0  0  0  0  0  0  0  0  0  0
  196.3250  174.0590  139.0650 C   0  0  1  0  0  3  0  0  0  0  0  0
  196.1240  175.1670  136.8390 O   0  0  0  0  0  1  0  0  0  0  0  0
  195.6570  174.2090  137.7410 C   0  0  1  0  0  0  0  0  0  0  0  0
  197.6970  175.3550  140.6690 C   0  0  0  0  0  1  0  0  0  0  0  0
  197.5250  174.9770  139.2140 C   0  0  0  0  0  2  0  0  0  0  0  0
  2 13  1  0  0  0  0
  3 20  1  6  0  0  0
  3  4  1  0  0  0  0
  4 11  1  6  0  0  0
  4 10  1  0  0  0  0
  4  5  1  0  0  0  0
  5 23  1  6  0  0  0
  7  9  1  0  0  0  0
  8  2  1  0  0  0  0
  9  1  1  0  0  0  0
  9  6  1  0  0  0  0
 10  5  1  0  0  0  0
 12  8  2  0  0  0  0
 14  1  2  0  0  0  0
 14 12  1  0  0  0  0
 15 18  1  1  0  0  0
 15 21  1  0  0  0  0
 15  3  1  0  0  0  0
 16  1  1  6  0  0  0
 16  8  1  0  0  0  0
 16 19  1  0  0  0  0
 18  9  1  0  0  0  0
 19 20  1  0  0  0  0
 19 13  2  0  0  0  0
 21 34  1  6  0  0  0
 21 22  1  0  0  0  0
 22 17  1  6  0  0  0
 22 11  1  0  0  0  0
 23 24  1  0  0  0  0
 24 25  1  0  0  0  0
 25 27  1  0  0  0  0
 26 33  1  0  0  0  0
 27 29  2  0  0  0  0
 29 28  1  0  0  0  0
 31 26  1  0  0  0  0
 32 27  1  0  0  0  0
 32 26  2  0  0  0  0
 33 28  2  0  0  0  0
 33 30  1  0  0  0  0
 34 35  1  0  0  0  0
 36 35  1  0  0  0  0
 36 37  1  0  0  0  0
 37 38  1  0  0  0  0
 38 42  1  0  0  0  0
 39 40  1  0  0  0  0
 40 44  1  6  0  0  0
 42 41  1  6  0  0  0
 42 39  1  0  0  0  0
 42 40  1  0  0  0  0
 44 43  1  0  0  0  0
M  END
>  <MODEL>
4

>  <REMARK>
 VINA RESULT:      -7.4      4.322      6.184
  Name = 
  11 active torsions:
  status: ('A' for Active; 'I' for Inactive)
    1  A    between atoms: C_3  and  C_39
    2  A    between atoms: C_6  and  C_38
    3  A    between atoms: C_7  and  C_12
    4  A    between atoms: C_7  and  C_13
    5  A    between atoms: C_8  and  C_36
    6  A    between atoms: C_8  and  C_40
    7  A    between atoms: C_13  and  C_39
    8  A    between atoms: C_25  and  C_41
    9  A    between atoms: C_31  and  N_37
   10  A    between atoms: C_31  and  C_41
   11  A    between atoms: C_36  and  N_37
                            x       y       z     vdW  Elec       q    Type
                         _______ _______ _______ _____ _____    ______ ____

>  <TORSDO>
F 11

$$$$
=
 OpenBabel10222422023D

 44 50  0  0  1  0  0  0  0  0999 V2000
  186.2000  178.5680  139.7270 C   0  0  0  0  0  0  0  0  0  0  0  0
  188.7930  177.4790  142.1130 S   0  0  0  0  0  0  0  0  0  0  0  0
  183.8710  178.5320  142.1250 C   0  0  2  0  0  3  0  0  0  0  0  0
  182.9560  179.1150  143.2390 C   0  0  2  0  0  0  0  0  0  0  0  0
  183.5650  179.9130  144.3900 C   0  0  1  0  0  3  0  0  0  0  0  0
  184.2540  179.8990  139.6740 F   0  0  0  0  0  0  0  0  0  0  0  0
  184.7360  178.6330  137.8910 F   0  0  0  0  0  0  0  0  0  0  0  0
  188.0060  178.1160  140.7870 C   0  0  0  0  0  0  0  0  0  0  0  0
  184.7740  178.6810  139.2730 C   0  0  0  0  0  0  0  0  0  0  0  0
  183.0250  178.5050  144.6240 C   0  0  0  0  0  2  0  0  0  0  0  0
  181.5990  179.6900  142.8410 C   0  0  0  0  0  2  0  0  0  0  0  0
  188.3960  178.5010  139.5660 N   0  0  0  0  0  0  0  0  0  0  0  0
  187.3340  177.2400  142.9810 C   0  0  0  0  0  3  0  0  0  0  0  0
  187.2720  178.7910  138.9130 N   0  0  0  0  0  0  0  0  0  0  0  0
  183.0810  177.7850  141.0330 C   0  0  2  0  0  3  0  0  0  0  0  0
  186.6840  178.1430  140.9490 C   0  0  2  0  0  3  0  0  0  0  0  0
  180.3970  177.5200  142.5480 C   0  0  0  0  0  1  0  0  0  0  0  0
  183.9540  177.4960  139.8020 C   0  0  0  0  0  2  0  0  0  0  0  0
  186.2550  177.6630  142.1880 C   0  0  0  0  0  0  0  0  0  0  0  0
  184.9090  177.6610  142.6670 N   0  0  0  0  0  2  0  0  0  0  0  0
  181.7800  178.5140  140.6430 C   0  0  2  0  0  3  0  0  0  0  0  0
  180.8730  178.7900  141.8510 C   0  0  2  0  0  3  0  0  0  0  0  0
  185.0860  179.9170  144.4230 C   0  0  0  0  0  2  0  0  0  0  0  0
  185.6040  179.7400  145.8430 C   0  0  0  0  0  2  0  0  0  0  0  0
  185.8320  178.2720  146.1860 C   0  0  0  0  0  2  0  0  0  0  0  0
  189.5220  177.4280  146.3660 C   0  0  0  0  0  0  0  0  0  0  0  0
  187.2040  178.0400  146.7280 C   0  0  0  0  0  0  0  0  0  0  0  0
  188.7630  178.0360  148.5830 C   0  0  0  0  0  3  0  0  0  0  0  0
  187.4730  178.2360  148.0860 C   0  0  0  0  0  3  0  0  0  0  0  0
  191.0360  177.4340  148.2280 F   0  0  0  0  0  0  0  0  0  0  0  0
  190.6020  176.9820  145.4340 C   0  0  0  0  0  1  0  0  0  0  0  0
  188.2320  177.6430  145.8690 C   0  0  0  0  0  3  0  0  0  0  0  0
  189.7910  177.6310  147.7260 C   0  0  0  0  0  0  0  0  0  0  0  0
  181.0310  177.9010  139.4500 C   0  0  0  0  0  2  0  0  0  0  0  0
  180.8020  178.8810  138.3060 C   0  0  0  0  0  2  0  0  0  0  0  0
  181.6330  178.5140  137.1720 N   0  0  0  0  0  2  0  0  0  0  0  0
  181.4980  177.0810  136.9970 C   0  0  0  0  0  2  0  0  0  0  0  0
  182.7540  176.5350  136.3340 C   0  0  0  0  0  2  0  0  0  0  0  0
  183.5100  174.3080  135.8630 O   0  0  0  0  0  0  0  0  0  0  0  0
  184.5240  174.6280  136.7840 C   0  0  1  0  0  3  0  0  0  0  0  0
  182.2260  174.5580  137.7520 O   0  0  0  0  0  1  0  0  0  0  0  0
  183.1440  175.1800  136.9040 C   0  0  1  0  0  0  0  0  0  0  0  0
  186.0960  172.8160  137.3990 C   0  0  0  0  0  1  0  0  0  0  0  0
  184.7560  173.4460  137.7090 C   0  0  0  0  0  2  0  0  0  0  0  0
  2 13  1  0  0  0  0
  3 20  1  1  0  0  0
  3  4  1  0  0  0  0
  4 11  1  6  0  0  0
  4  5  1  0  0  0  0
  4 10  1  0  0  0  0
  5 23  1  6  0  0  0
  5 10  1  0  0  0  0
  7  9  1  0  0  0  0
  8 16  1  0  0  0  0
  8  2  1  0  0  0  0
  9  6  1  0  0  0  0
  9  1  1  0  0  0  0
  9 18  1  0  0  0  0
 12  8  2  0  0  0  0
 14 12  1  0  0  0  0
 14  1  2  0  0  0  0
 15 18  1  6  0  0  0
 15  3  1  0  0  0  0
 16  1  1  6  0  0  0
 16 19  1  0  0  0  0
 19 20  1  0  0  0  0
 19 13  2  0  0  0  0
 21 34  1  6  0  0  0
 21 15  1  0  0  0  0
 21 22  1  0  0  0  0
 22 17  1  1  0  0  0
 22 11  1  0  0  0  0
 23 24  1  0  0  0  0
 24 25  1  0  0  0  0
 25 27  1  0  0  0  0
 26 33  1  0  0  0  0
 27 29  2  0  0  0  0
 29 28  1  0  0  0  0
 31 26  1  0  0  0  0
 32 26  2  0  0  0  0
 32 27  1  0  0  0  0
 33 30  1  0  0  0  0
 33 28  2  0  0  0  0
 35 34  1  0  0  0  0
 36 35  1  0  0  0  0
 37 36  1  0  0  0  0
 38 42  1  0  0  0  0
 38 37  1  0  0  0  0
 39 40  1  0  0  0  0
 39 42  1  0  0  0  0
 40 42  1  0  0  0  0
 40 44  1  1  0  0  0
 42 41  1  1  0  0  0
 43 44  1  0  0  0  0
M  END
>  <MODEL>
5

>  <REMARK>
 VINA RESULT:      -7.4      3.222      6.164
  Name = 
  11 active torsions:
  status: ('A' for Active; 'I' for Inactive)
    1  A    between atoms: C_3  and  C_39
    2  A    between atoms: C_6  and  C_38
    3  A    between atoms: C_7  and  C_12
    4  A    between atoms: C_7  and  C_13
    5  A    between atoms: C_8  and  C_36
    6  A    between atoms: C_8  and  C_40
    7  A    between atoms: C_13  and  C_39
    8  A    between atoms: C_25  and  C_41
    9  A    between atoms: C_31  and  N_37
   10  A    between atoms: C_31  and  C_41
   11  A    between atoms: C_36  and  N_37
                            x       y       z     vdW  Elec       q    Type
                         _______ _______ _______ _____ _____    ______ ____

>  <TORSDO>
F 11

$$$$
=
 OpenBabel10222422023D

 44 50  0  0  1  0  0  0  0  0999 V2000
  186.4870  178.4990  139.8170 C   0  0  0  0  0  0  0  0  0  0  0  0
  188.2320  177.7360  136.6580 S   0  0  0  0  0  0  0  0  0  0  0  0
  183.6830  177.0550  138.7040 C   0  0  2  0  0  3  0  0  0  0  0  0
  182.6390  175.9200  138.5120 C   0  0  2  0  0  0  0  0  0  0  0  0
  183.0800  174.5540  137.9920 C   0  0  1  0  0  3  0  0  0  0  0  0
  184.8500  177.5650  141.2350 F   0  0  0  0  0  0  0  0  0  0  0  0
  185.5270  179.6650  141.6160 F   0  0  0  0  0  0  0  0  0  0  0  0
  187.8930  178.1180  138.2470 C   0  0  0  0  0  0  0  0  0  0  0  0
  185.2460  178.7420  140.6240 C   0  0  0  0  0  0  0  0  0  0  0  0
  182.2800  175.5000  137.1020 C   0  0  0  0  0  2  0  0  0  0  0  0
  181.5250  175.7710  139.5460 C   0  0  0  0  0  2  0  0  0  0  0  0
  188.6170  178.5930  139.2670 N   0  0  0  0  0  0  0  0  0  0  0  0
  186.5900  177.4050  136.2910 C   0  0  0  0  0  3  0  0  0  0  0  0
  187.7410  178.8190  140.2450 N   0  0  0  0  0  2  0  0  0  0  0  0
  183.0630  178.3490  139.2650 C   0  0  2  0  0  3  0  0  0  0  0  0
  186.5940  178.0300  138.5220 C   0  0  0  0  0  0  0  0  0  0  0  0
  180.0910  177.6570  138.7570 C   0  0  0  0  0  1  0  0  0  0  0  0
  184.1420  179.3350  139.7370 C   0  0  0  0  0  2  0  0  0  0  0  0
  185.8120  177.6170  137.4410 C   0  0  0  0  0  0  0  0  0  0  0  0
  184.4090  177.3490  137.4720 N   0  0  0  0  0  2  0  0  0  0  0  0
  182.0270  178.0760  140.3720 C   0  0  2  0  0  3  0  0  0  0  0  0
  180.9180  177.1150  139.9190 C   0  0  2  0  0  3  0  0  0  0  0  0
  184.5310  174.4880  137.5370 C   0  0  0  0  0  2  0  0  0  0  0  0
  184.8850  173.0950  137.0350 C   0  0  0  0  0  2  0  0  0  0  0  0
  184.4600  172.8890  135.5860 C   0  0  0  0  0  2  0  0  0  0  0  0
  183.4130  169.2460  135.5580 C   0  0  0  0  0  0  0  0  0  0  0  0
  183.6300  171.6580  135.4250 C   0  0  0  0  0  0  0  0  0  0  0  0
  181.5170  170.5960  134.8910 C   0  0  0  0  0  3  0  0  0  0  0  0
  182.2940  171.7500  135.0200 C   0  0  0  0  0  3  0  0  0  0  0  0
  181.3070  168.2320  135.0200 F   0  0  0  0  0  0  0  0  0  0  0  0
  184.0330  167.9150  135.8360 C   0  0  0  0  0  1  0  0  0  0  0  0
  184.1840  170.4050  135.7000 C   0  0  0  0  0  3  0  0  0  0  0  0
  182.0730  169.3420  135.1580 C   0  0  0  0  0  0  0  0  0  0  0  0
  181.4900  179.3310  141.0780 C   0  0  0  0  0  2  0  0  0  0  0  0
  180.8860  179.0470  142.4480 C   0  0  0  0  0  2  0  0  0  0  0  0
  181.6560  179.7290  143.4740 N   0  0  0  0  0  2  0  0  0  0  0  0
  182.7100  178.8200  143.8840 C   0  0  0  0  0  2  0  0  0  0  0  0
  183.9490  179.6210  144.2520 C   0  0  0  0  0  2  0  0  0  0  0  0
  185.1330  177.5680  144.6220 O   0  0  0  0  0  0  0  0  0  0  0  0
  186.2440  178.4190  144.7620 C   0  0  1  0  0  3  0  0  0  0  0  0
  184.4850  178.7120  146.5070 O   0  0  0  0  0  1  0  0  0  0  0  0
  184.8720  178.8360  145.1710 C   0  0  1  0  0  0  0  0  0  0  0  0
  188.4880  177.6470  145.4710 C   0  0  0  0  0  1  0  0  0  0  0  0
  187.0840  177.9610  145.9400 C   0  0  0  0  0  2  0  0  0  0  0  0
  1 14  1  0  0  0  0
  1  9  1  0  0  0  0
  2  8  1  0  0  0  0
  3 20  1  6  0  0  0
  3 15  1  0  0  0  0
  4 10  1  6  0  0  0
  4  3  1  0  0  0  0
  4 11  1  0  0  0  0
  5 23  1  6  0  0  0
  5  4  1  0  0  0  0
  8 16  1  0  0  0  0
  8 12  2  0  0  0  0
  9  6  1  0  0  0  0
  9  7  1  0  0  0  0
 10  5  1  0  0  0  0
 11 22  1  0  0  0  0
 12 14  1  0  0  0  0
 13  2  1  0  0  0  0
 13 19  2  0  0  0  0
 15 18  1  1  0  0  0
 15 21  1  0  0  0  0
 16  1  2  0  0  0  0
 18  9  1  0  0  0  0
 19 20  1  0  0  0  0
 19 16  1  0  0  0  0
 21 34  1  6  0  0  0
 22 17  1  6  0  0  0
 22 21  1  0  0  0  0
 24 23  1  0  0  0  0
 25 24  1  0  0  0  0
 26 32  1  0  0  0  0
 26 31  1  0  0  0  0
 27 25  1  0  0  0  0
 27 32  2  0  0  0  0
 28 29  2  0  0  0  0
 28 33  1  0  0  0  0
 29 27  1  0  0  0  0
 30 33  1  0  0  0  0
 33 26  2  0  0  0  0
 34 35  1  0  0  0  0
 35 36  1  0  0  0  0
 36 37  1  0  0  0  0
 37 38  1  0  0  0  0
 38 42  1  0  0  0  0
 39 40  1  0  0  0  0
 39 42  1  0  0  0  0
 40 42  1  0  0  0  0
 40 44  1  1  0  0  0
 42 41  1  1  0  0  0
 43 44  1  0  0  0  0
M  END
>  <MODEL>
6

>  <REMARK>
 VINA RESULT:      -7.2      3.640      9.893
  Name = 
  11 active torsions:
  status: ('A' for Active; 'I' for Inactive)
    1  A    between atoms: C_3  and  C_39
    2  A    between atoms: C_6  and  C_38
    3  A    between atoms: C_7  and  C_12
    4  A    between atoms: C_7  and  C_13
    5  A    between atoms: C_8  and  C_36
    6  A    between atoms: C_8  and  C_40
    7  A    between atoms: C_13  and  C_39
    8  A    between atoms: C_25  and  C_41
    9  A    between atoms: C_31  and  N_37
   10  A    between atoms: C_31  and  C_41
   11  A    between atoms: C_36  and  N_37
                            x       y       z     vdW  Elec       q    Type
                         _______ _______ _______ _____ _____    ______ ____

>  <TORSDO>
F 11

$$$$
=
 OpenBabel10222422023D

 44 50  0  0  1  0  0  0  0  0999 V2000
  189.4160  176.7030  141.2250 C   0  0  0  0  0  0  0  0  0  0  0  0
  189.7050  177.9930  137.7810 S   0  0  0  0  0  0  0  0  0  0  0  0
  186.4720  178.2360  141.6320 C   0  0  2  0  0  3  0  0  0  0  0  0
  184.9240  178.3740  141.6560 C   0  0  2  0  0  0  0  0  0  0  0  0
  184.1010  177.9760  140.4340 C   0  0  1  0  0  3  0  0  0  0  0  0
  187.7600  175.9640  142.7320 F   0  0  0  0  0  0  0  0  0  0  0  0
  189.8430  176.2700  143.4930 F   0  0  0  0  0  0  0  0  0  0  0  0
  189.8940  177.0930  139.1730 C   0  0  0  0  0  0  0  0  0  0  0  0
  188.8840  176.7630  142.6260 C   0  0  0  0  0  0  0  0  0  0  0  0
  184.2820  179.4460  140.7990 C   0  0  0  0  0  2  0  0  0  0  0  0
  184.1810  178.0310  142.9450 C   0  0  0  0  0  2  0  0  0  0  0  0
  190.7810  176.1760  139.5780 N   0  0  0  0  0  0  0  0  0  0  0  0
  188.4000  178.8960  138.4320 C   0  0  0  0  0  3  0  0  0  0  0  0
  190.4750  175.9290  140.8510 N   0  0  0  0  0  2  0  0  0  0  0  0
  187.1310  178.6550  142.9600 C   0  0  2  0  0  3  0  0  0  0  0  0
  189.0330  177.4470  140.1250 C   0  0  0  0  0  0  0  0  0  0  0  0
  184.7070  180.1270  144.1960 C   0  0  0  0  0  1  0  0  0  0  0  0
  188.6020  178.2190  143.0250 C   0  0  0  0  0  2  0  0  0  0  0  0
  188.1550  178.4630  139.7460 C   0  0  0  0  0  0  0  0  0  0  0  0
  187.0740  178.9750  140.5270 N   0  0  0  0  0  2  0  0  0  0  0  0
  186.3430  178.1640  144.1910 C   0  0  2  0  0  3  0  0  0  0  0  0
  184.8740  178.6110  144.1690 C   0  0  2  0  0  3  0  0  0  0  0  0
  184.9240  177.6230  139.2030 C   0  0  0  0  0  2  0  0  0  0  0  0
  184.0560  177.5990  137.9530 C   0  0  0  0  0  2  0  0  0  0  0  0
  184.8540  177.2010  136.7160 C   0  0  0  0  0  2  0  0  0  0  0  0
  185.2160  173.4530  137.1420 C   0  0  0  0  0  0  0  0  0  0  0  0
  185.4690  175.8490  136.8680 C   0  0  0  0  0  0  0  0  0  0  0  0
  187.4270  174.4260  136.9780 C   0  0  0  0  0  3  0  0  0  0  0  0
  186.8590  175.6960  136.8550 C   0  0  0  0  0  3  0  0  0  0  0  0
  187.1780  172.0770  137.2480 F   0  0  0  0  0  0  0  0  0  0  0  0
  184.3220  172.2670  137.3090 C   0  0  0  0  0  1  0  0  0  0  0  0
  184.6500  174.7250  137.0050 C   0  0  0  0  0  3  0  0  0  0  0  0
  186.6090  173.3010  137.1220 C   0  0  0  0  0  0  0  0  0  0  0  0
  187.0330  178.4160  145.5410 C   0  0  0  0  0  2  0  0  0  0  0  0
  186.1120  178.2240  146.7400 C   0  0  0  0  0  2  0  0  0  0  0  0
  186.6360  178.9530  147.8820 N   0  0  0  0  0  2  0  0  0  0  0  0
  187.4690  178.0270  148.6270 C   0  0  0  0  0  2  0  0  0  0  0  0
  188.9330  178.3670  148.3910 C   0  0  0  0  0  2  0  0  0  0  0  0
  190.1630  177.7270  146.4330 O   0  0  0  0  0  0  0  0  0  0  0  0
  191.1170  177.2910  147.3710 C   0  0  1  0  0  3  0  0  0  0  0  0
  188.9480  176.0620  147.4500 O   0  0  0  0  0  1  0  0  0  0  0  0
  189.6550  177.2490  147.6550 C   0  0  1  0  0  0  0  0  0  0  0  0
  192.7330  175.4950  147.9170 C   0  0  0  0  0  1  0  0  0  0  0  0
  191.6640  175.9410  146.9440 C   0  0  0  0  0  2  0  0  0  0  0  0
  1  9  1  0  0  0  0
  2 13  1  0  0  0  0
  2  8  1  0  0  0  0
  3 20  1  6  0  0  0
  3  4  1  0  0  0  0
  3 15  1  0  0  0  0
  4 10  1  6  0  0  0
  4 11  1  0  0  0  0
  5 23  1  6  0  0  0
  5 10  1  0  0  0  0
  5  4  1  0  0  0  0
  8 12  2  0  0  0  0
  8 16  1  0  0  0  0
  9  6  1  0  0  0  0
  9 18  1  0  0  0  0
  9  7  1  0  0  0  0
 11 22  1  0  0  0  0
 12 14  1  0  0  0  0
 13 19  2  0  0  0  0
 14  1  1  0  0  0  0
 15 18  1  1  0  0  0
 15 21  1  0  0  0  0
 16  1  2  0  0  0  0
 19 16  1  0  0  0  0
 19 20  1  0  0  0  0
 21 34  1  1  0  0  0
 22 21  1  0  0  0  0
 22 17  1  6  0  0  0
 24 23  1  0  0  0  0
 25 27  1  0  0  0  0
 25 24  1  0  0  0  0
 26 31  1  0  0  0  0
 27 32  1  0  0  0  0
 28 33  2  0  0  0  0
 29 27  2  0  0  0  0
 29 28  1  0  0  0  0
 32 26  2  0  0  0  0
 33 26  1  0  0  0  0
 33 30  1  0  0  0  0
 34 35  1  0  0  0  0
 35 36  1  0  0  0  0
 36 37  1  0  0  0  0
 38 37  1  0  0  0  0
 39 40  1  0  0  0  0
 39 42  1  0  0  0  0
 40 44  1  6  0  0  0
 40 42  1  0  0  0  0
 42 41  1  6  0  0  0
 42 38  1  0  0  0  0
 44 43  1  0  0  0  0
M  END
>  <MODEL>
7

>  <REMARK>
 VINA RESULT:      -7.2      4.197      9.893
  Name = 
  11 active torsions:
  status: ('A' for Active; 'I' for Inactive)
    1  A    between atoms: C_3  and  C_39
    2  A    between atoms: C_6  and  C_38
    3  A    between atoms: C_7  and  C_12
    4  A    between atoms: C_7  and  C_13
    5  A    between atoms: C_8  and  C_36
    6  A    between atoms: C_8  and  C_40
    7  A    between atoms: C_13  and  C_39
    8  A    between atoms: C_25  and  C_41
    9  A    between atoms: C_31  and  N_37
   10  A    between atoms: C_31  and  C_41
   11  A    between atoms: C_36  and  N_37
                            x       y       z     vdW  Elec       q    Type
                         _______ _______ _______ _____ _____    ______ ____

>  <TORSDO>
F 11

$$$$
=
 OpenBabel10222422023D

 44 50  0  0  1  0  0  0  0  0999 V2000
  188.4040  177.9510  140.5250 C   0  0  0  0  0  0  0  0  0  0  0  0
  189.3680  178.4320  136.9970 S   0  0  0  0  0  0  0  0  0  0  0  0
  185.1580  178.0870  139.7360 C   0  0  2  0  0  3  0  0  0  0  0  0
  183.7500  177.5350  139.3750 C   0  0  2  0  0  0  0  0  0  0  0  0
  183.5860  176.5540  138.2170 C   0  0  1  0  0  3  0  0  0  0  0  0
  186.7090  176.9190  141.7990 F   0  0  0  0  0  0  0  0  0  0  0  0
  188.1610  178.2680  142.8400 F   0  0  0  0  0  0  0  0  0  0  0  0
  189.3780  178.0420  138.6200 C   0  0  0  0  0  0  0  0  0  0  0  0
  187.4440  178.0840  141.6710 C   0  0  0  0  0  0  0  0  0  0  0  0
  183.1030  177.9950  138.0850 C   0  0  0  0  0  2  0  0  0  0  0  0
  182.7860  177.1980  140.5100 C   0  0  0  0  0  2  0  0  0  0  0  0
  190.3380  177.7230  139.4960 N   0  0  0  0  0  0  0  0  0  0  0  0
  187.6910  178.7920  137.0010 C   0  0  0  0  0  3  0  0  0  0  0  0
  189.7270  177.6580  140.6780 N   0  0  0  0  0  2  0  0  0  0  0  0
  185.1350  179.0380  140.9480 C   0  0  2  0  0  3  0  0  0  0  0  0
  188.1810  178.1860  139.1820 C   0  0  0  0  0  0  0  0  0  0  0  0
  182.0840  179.5340  141.0480 C   0  0  0  0  0  1  0  0  0  0  0  0
  186.5510  179.3170  141.4750 C   0  0  0  0  0  2  0  0  0  0  0  0
  187.1840  178.6010  138.2960 C   0  0  0  0  0  0  0  0  0  0  0  0
  185.7970  178.7480  138.6020 N   0  0  0  0  0  2  0  0  0  0  0  0
  184.2040  178.5400  142.0710 C   0  0  2  0  0  3  0  0  0  0  0  0
  182.7720  178.2810  141.5790 C   0  0  2  0  0  3  0  0  0  0  0  0
  184.8450  176.3330  137.3910 C   0  0  0  0  0  2  0  0  0  0  0  0
  184.8370  174.9580  136.7390 C   0  0  0  0  0  2  0  0  0  0  0  0
  184.4190  173.8670  137.7180 C   0  0  0  0  0  2  0  0  0  0  0  0
  183.1520  170.6630  136.1390 C   0  0  0  0  0  0  0  0  0  0  0  0
  183.5100  172.8710  137.0770 C   0  0  0  0  0  0  0  0  0  0  0  0
  181.3200  172.2420  136.2510 C   0  0  0  0  0  3  0  0  0  0  0  0
  182.1700  173.1860  136.8330 C   0  0  0  0  0  3  0  0  0  0  0  0
  180.9710  170.0770  135.3300 F   0  0  0  0  0  0  0  0  0  0  0  0
  183.6990  169.3240  135.7620 C   0  0  0  0  0  1  0  0  0  0  0  0
  183.9970  171.6060  136.7350 C   0  0  0  0  0  3  0  0  0  0  0  0
  181.8080  170.9790  135.9020 C   0  0  0  0  0  0  0  0  0  0  0  0
  184.2600  179.3630  143.3670 C   0  0  0  0  0  2  0  0  0  0  0  0
  184.5130  178.5220  144.6120 C   0  0  0  0  0  2  0  0  0  0  0  0
  185.8010  178.8690  145.1860 N   0  0  0  0  0  2  0  0  0  0  0  0
  186.5080  177.6240  145.4220 C   0  0  0  0  0  2  0  0  0  0  0  0
  187.2840  177.7270  146.7260 C   0  0  0  0  0  2  0  0  0  0  0  0
  189.4740  177.9550  147.6790 O   0  0  0  0  0  0  0  0  0  0  0  0
  189.6520  176.6520  147.1800 C   0  0  1  0  0  3  0  0  0  0  0  0
  189.3020  178.3940  145.4290 O   0  0  0  0  0  1  0  0  0  0  0  0
  188.7850  177.6490  146.4920 C   0  0  1  0  0  0  0  0  0  0  0  0
  191.9530  175.7810  147.4640 C   0  0  0  0  0  1  0  0  0  0  0  0
  191.0260  176.5400  146.5420 C   0  0  0  0  0  2  0  0  0  0  0  0
  1 14  1  0  0  0  0
  1  9  1  0  0  0  0
  2 13  1  0  0  0  0
  2  8  1  0  0  0  0
  3 20  1  6  0  0  0
  3 15  1  0  0  0  0
  4 10  1  6  0  0  0
  4  3  1  0  0  0  0
  4 11  1  0  0  0  0
  5 23  1  6  0  0  0
  5  4  1  0  0  0  0
  8 16  1  0  0  0  0
  8 12  2  0  0  0  0
  9  6  1  0  0  0  0
  9  7  1  0  0  0  0
 10  5  1  0  0  0  0
 11 22  1  0  0  0  0
 12 14  1  0  0  0  0
 13 19  2  0  0  0  0
 15 18  1  1  0  0  0
 15 21  1  0  0  0  0
 16  1  2  0  0  0  0
 18  9  1  0  0  0  0
 19 20  1  0  0  0  0
 19 16  1  0  0  0  0
 21 34  1  1  0  0  0
 22 17  1  6  0  0  0
 22 21  1  0  0  0  0
 24 23  1  0  0  0  0
 24 25  1  0  0  0  0
 26 32  1  0  0  0  0
 27 25  1  0  0  0  0
 28 29  2  0  0  0  0
 29 27  1  0  0  0  0
 30 33  1  0  0  0  0
 31 26  1  0  0  0  0
 32 27  2  0  0  0  0
 33 26  2  0  0  0  0
 33 28  1  0  0  0  0
 34 35  1  0  0  0  0
 35 36  1  0  0  0  0
 36 37  1  0  0  0  0
 37 38  1  0  0  0  0
 40 44  1  6  0  0  0
 40 39  1  0  0  0  0
 42 41  1  6  0  0  0
 42 38  1  0  0  0  0
 42 40  1  0  0  0  0
 42 39  1  0  0  0  0
 44 43  1  0  0  0  0
M  END
>  <MODEL>
8

>  <REMARK>
 VINA RESULT:      -7.1      4.005      9.926
  Name = 
  11 active torsions:
  status: ('A' for Active; 'I' for Inactive)
    1  A    between atoms: C_3  and  C_39
    2  A    between atoms: C_6  and  C_38
    3  A    between atoms: C_7  and  C_12
    4  A    between atoms: C_7  and  C_13
    5  A    between atoms: C_8  and  C_36
    6  A    between atoms: C_8  and  C_40
    7  A    between atoms: C_13  and  C_39
    8  A    between atoms: C_25  and  C_41
    9  A    between atoms: C_31  and  N_37
   10  A    between atoms: C_31  and  C_41
   11  A    between atoms: C_36  and  N_37
                            x       y       z     vdW  Elec       q    Type
                         _______ _______ _______ _____ _____    ______ ____

>  <TORSDO>
F 11

$$$$
=
 OpenBabel10222422023D

 44 50  0  0  1  0  0  0  0  0999 V2000
  183.4870  176.7570  138.5800 C   0  0  0  0  0  0  0  0  0  0  0  0
  181.8210  178.4680  141.3930 S   0  0  0  0  0  0  0  0  0  0  0  0
  186.4430  178.0650  139.4370 C   0  0  2  0  0  3  0  0  0  0  0  0
  187.8420  178.1150  140.1120 C   0  0  2  0  0  0  0  0  0  0  0  0
  187.9840  177.8220  141.6040 C   0  0  1  0  0  3  0  0  0  0  0  0
  185.5560  175.7520  138.0630 F   0  0  0  0  0  0  0  0  0  0  0  0
  184.0790  176.0780  136.4120 F   0  0  0  0  0  0  0  0  0  0  0  0
  182.1840  177.4180  140.1470 C   0  0  0  0  0  0  0  0  0  0  0  0
  184.5940  176.6190  137.5770 C   0  0  0  0  0  0  0  0  0  0  0  0
  188.1400  179.2450  141.0760 C   0  0  0  0  0  2  0  0  0  0  0  0
  189.0440  177.5780  139.3380 C   0  0  0  0  0  2  0  0  0  0  0  0
  181.4820  176.5090  139.4590 N   0  0  0  0  0  0  0  0  0  0  0  0
  183.3650  179.2120  141.3370 C   0  0  0  0  0  3  0  0  0  0  0  0
  182.2990  176.0940  138.4920 N   0  0  0  0  0  0  0  0  0  0  0  0
  186.4970  178.3570  137.9260 C   0  0  2  0  0  3  0  0  0  0  0  0
  183.4110  177.6060  139.6680 C   0  0  2  0  0  3  0  0  0  0  0  0
  189.3550  179.5330  137.8160 C   0  0  0  0  0  1  0  0  0  0  0  0
  185.1740  177.9980  137.2320 C   0  0  0  0  0  2  0  0  0  0  0  0
  184.1270  178.6120  140.3220 C   0  0  0  0  0  0  0  0  0  0  0  0
  185.4900  178.9650  140.0800 N   0  0  0  0  0  2  0  0  0  0  0  0
  187.6960  177.6790  137.2360 C   0  0  2  0  0  3  0  0  0  0  0  0
  189.0370  178.0440  137.8900 C   0  0  2  0  0  3  0  0  0  0  0  0
  186.6650  177.6660  142.3470 C   0  0  0  0  0  2  0  0  0  0  0  0
  186.8470  176.8510  143.6200 C   0  0  0  0  0  2  0  0  0  0  0  0
  186.7200  177.7140  144.8690 C   0  0  0  0  0  2  0  0  0  0  0  0
  190.2820  177.1260  146.0220 C   0  0  0  0  0  0  0  0  0  0  0  0
  187.9150  177.5810  145.7540 C   0  0  0  0  0  0  0  0  0  0  0  0
  188.9350  177.6990  147.9500 C   0  0  0  0  0  3  0  0  0  0  0  0
  187.8080  177.8060  147.1300 C   0  0  0  0  0  3  0  0  0  0  0  0
  191.2550  177.2510  148.2120 F   0  0  0  0  0  0  0  0  0  0  0  0
  191.5940  176.7480  145.4140 C   0  0  0  0  0  1  0  0  0  0  0  0
  189.1550  177.2480  145.2020 C   0  0  0  0  0  3  0  0  0  0  0  0
  190.1740  177.3590  147.4000 C   0  0  0  0  0  0  0  0  0  0  0  0
  187.7150  177.8040  135.7040 C   0  0  0  0  0  2  0  0  0  0  0  0
  187.7020  176.4610  134.9840 C   0  0  0  0  0  2  0  0  0  0  0  0
  189.0090  176.2040  134.4030 N   0  0  0  0  0  2  0  0  0  0  0  0
  189.6950  175.2900  135.2970 C   0  0  0  0  0  2  0  0  0  0  0  0
  190.9730  175.9450  135.7990 C   0  0  0  0  0  2  0  0  0  0  0  0
  192.0750  173.8260  136.0240 O   0  0  0  0  0  0  0  0  0  0  0  0
  193.1680  174.6170  136.4240 C   0  0  1  0  0  3  0  0  0  0  0  0
  191.2000  174.7170  137.9530 O   0  0  0  0  0  1  0  0  0  0  0  0
  191.7600  175.0130  136.7080 C   0  0  1  0  0  0  0  0  0  0  0  0
  195.2370  174.5390  137.7820 C   0  0  0  0  0  1  0  0  0  0  0  0
  193.8430  173.9750  137.6230 C   0  0  0  0  0  2  0  0  0  0  0  0
  3 20  1  1  0  0  0
  3  4  1  0  0  0  0
  4 11  1  6  0  0  0
  4 10  1  0  0  0  0
  4  5  1  0  0  0  0
  5 23  1  1  0  0  0
  7  9  1  0  0  0  0
  8  2  1  0  0  0  0
  9  6  1  0  0  0  0
  9  1  1  0  0  0  0
 10  5  1  0  0  0  0
 12  8  2  0  0  0  0
 13  2  1  0  0  0  0
 14  1  2  0  0  0  0
 14 12  1  0  0  0  0
 15 18  1  6  0  0  0
 15  3  1  0  0  0  0
 16  1  1  6  0  0  0
 16  8  1  0  0  0  0
 16 19  1  0  0  0  0
 18  9  1  0  0  0  0
 19 13  2  0  0  0  0
 20 19  1  0  0  0  0
 21 34  1  6  0  0  0
 21 22  1  0  0  0  0
 21 15  1  0  0  0  0
 22 17  1  1  0  0  0
 22 11  1  0  0  0  0
 23 24  1  0  0  0  0
 24 25  1  0  0  0  0
 25 27  1  0  0  0  0
 26 33  1  0  0  0  0
 27 29  2  0  0  0  0
 29 28  1  0  0  0  0
 31 26  1  0  0  0  0
 32 27  1  0  0  0  0
 32 26  2  0  0  0  0
 33 28  2  0  0  0  0
 33 30  1  0  0  0  0
 35 34  1  0  0  0  0
 36 35  1  0  0  0  0
 36 37  1  0  0  0  0
 37 38  1  0  0  0  0
 38 42  1  0  0  0  0
 39 40  1  0  0  0  0
 39 42  1  0  0  0  0
 40 42  1  0  0  0  0
 40 44  1  1  0  0  0
 42 41  1  1  0  0  0
 44 43  1  0  0  0  0
M  END
>  <MODEL>
9

>  <REMARK>
 VINA RESULT:      -7.0      3.219      4.802
  Name = 
  11 active torsions:
  status: ('A' for Active; 'I' for Inactive)
    1  A    between atoms: C_3  and  C_39
    2  A    between atoms: C_6  and  C_38
    3  A    between atoms: C_7  and  C_12
    4  A    between atoms: C_7  and  C_13
    5  A    between atoms: C_8  and  C_36
    6  A    between atoms: C_8  and  C_40
    7  A    between atoms: C_13  and  C_39
    8  A    between atoms: C_25  and  C_41
    9  A    between atoms: C_31  and  N_37
   10  A    between atoms: C_31  and  C_41
   11  A    between atoms: C_36  and  N_37
                            x       y       z     vdW  Elec       q    Type
                         _______ _______ _______ _____ _____    ______ ____

>  <TORSDO>
F 11

$$$$
