=
 OpenBabel10232411063D

 39 42  0  0  1  0  0  0  0  0999 V2000
  191.7930  175.7780  137.3970 C   0  0  1  0  0  3  0  0  0  0  0  0
  189.5670  175.9430  138.0320 C   0  0  1  0  0  3  0  0  0  0  0  0
  191.0190  177.2740  139.3040 C   0  0  1  0  0  3  0  0  0  0  0  0
  188.8260  176.9530  138.4820 C   0  0  1  0  0  3  0  0  0  0  0  0
  189.4950  175.3510  136.6720 C   0  0  0  0  0  2  0  0  0  0  0  0
  190.9540  175.0420  136.3500 C   0  0  0  0  0  2  0  0  0  0  0  0
  190.9070  175.9170  138.6200 C   0  0  2  0  0  3  0  0  0  0  0  0
  189.5750  177.7450  139.4960 C   0  0  0  0  0  2  0  0  0  0  0  0
  185.3540  178.5920  138.4710 C   0  0  0  0  0  0  0  0  0  0  0  0
  187.5220  177.4250  137.9030 C   0  0  1  0  0  3  0  0  0  0  0  0
  186.6370  176.2590  137.4820 C   0  0  0  0  0  2  0  0  0  0  0  0
  186.7820  178.3390  138.8790 C   0  0  0  0  0  2  0  0  0  0  0  0
  184.7580  177.8560  137.5730 N   0  0  0  0  0  0  0  0  0  0  0  0
  184.6170  179.5810  139.1930 N   0  0  0  0  0  2  0  0  0  0  0  0
  185.4210  176.8290  136.7670 C   0  0  0  0  0  2  0  0  0  0  0  0
  183.2740  179.8750  138.9100 C   0  0  0  0  0  0  0  0  0  0  0  0
  182.1210  180.1270  138.6680 C   0  0  0  0  0  3  0  0  0  0  0  0
  193.0260  175.0610  137.7040 N   0  0  0  0  0  2  0  0  0  0  0  0
  194.4640  176.3510  136.3780 O   0  0  0  0  0  0  0  0  0  0  0  0
  194.3110  175.3670  137.1490 C   0  0  0  0  0  0  0  0  0  0  0  0
  195.4670  174.4790  137.4420 C   0  0  0  0  0  2  0  0  0  0  0  0
  196.7010  175.2220  137.2650 N   0  0  0  0  0  2  0  0  0  0  0  0
  197.6940  174.6440  138.1590 C   0  0  2  0  0  3  0  0  0  0  0  0
  197.7330  175.2370  140.2930 C   0  0  0  0  0  1  0  0  0  0  0  0
  198.1810  175.6250  139.0310 O   0  0  0  0  0  0  0  0  0  0  0  0
  198.8230  174.0660  137.3620 C   0  0  0  0  0  0  0  0  0  0  0  0
  199.7110  173.4520  137.9310 O   0  0  0  0  0  0  0  0  0  0  0  0
  199.9870  175.1350  135.5410 N   0  0  0  0  0  1  0  0  0  0  0  0
  198.8830  174.2570  135.8800 C   0  0  0  0  0  2  0  0  0  0  0  0
  191.7450  177.1750  140.6110 C   0  0  0  0  0  0  0  0  0  0  0  0
  191.0320  176.9730  141.7120 C   0  0  0  0  0  3  0  0  0  0  0  0
  191.6640  176.8500  142.9850 N   0  0  0  0  0  2  0  0  0  0  0  0
  191.6000  176.9900  145.2980 O   0  0  0  0  0  0  0  0  0  0  0  0
  191.0360  177.2530  144.2020 C   0  0  0  0  0  0  0  0  0  0  0  0
  188.5730  176.9460  144.4140 C   0  0  0  0  0  2  0  0  0  0  0  0
  189.7000  177.9400  144.1920 C   0  0  0  0  0  3  0  0  0  0  0  0
  189.0550  177.8050  145.5590 C   0  0  0  0  0  2  0  0  0  0  0  0
  193.8840  177.6190  139.6360 O   0  0  0  0  0  1  0  0  0  0  0  0
  193.1380  177.2900  140.6970 O   0  0  0  0  0  0  0  0  0  0  0  0
  1 18  1  1  0  0  0
  1  7  1  0  0  0  0
  2  5  1  6  0  0  0
  2  4  1  0  0  0  0
  2  7  1  0  0  0  0
  3  8  1  0  0  0  0
  3 30  1  1  0  0  0
  4  8  1  6  0  0  0
  6  5  1  0  0  0  0
  6  1  1  0  0  0  0
  7  3  1  0  0  0  0
  9 12  1  0  0  0  0
  9 14  1  0  0  0  0
 10  4  1  0  0  0  0
 10 12  1  0  0  0  0
 11 10  1  0  0  0  0
 13  9  2  0  0  0  0
 15 11  1  0  0  0  0
 15 13  1  0  0  0  0
 16 14  1  0  0  0  0
 17 16  3  0  0  0  0
 19 20  2  0  0  0  0
 20 21  1  0  0  0  0
 20 18  1  0  0  0  0
 22 21  1  0  0  0  0
 22 23  1  0  0  0  0
 23 25  1  0  0  0  0
 25 24  1  0  0  0  0
 26 27  2  0  0  0  0
 26 23  1  0  0  0  0
 28 29  1  0  0  0  0
 29 26  1  0  0  0  0
 30 39  1  0  0  0  0
 30 31  2  0  0  0  0
 31 32  1  0  0  0  0
 32 34  1  0  0  0  0
 34 33  2  0  0  0  0
 35 37  1  0  0  0  0
 36 34  1  0  0  0  0
 36 35  1  0  0  0  0
 36 37  1  0  0  0  0
 38 39  1  0  0  0  0
M  END
>  <MODEL>
1

>  <REMARK>
 VINA RESULT:      -7.3      0.000      0.000
  Name = 
  13 active torsions:
  status: ('A' for Active; 'I' for Inactive)
    1  A    between atoms: N_3  and  C_37
    2  A    between atoms: C_4  and  N_22
    3  A    between atoms: C_6  and  C_12
    4  A    between atoms: C_6  and  C_31
    5  A    between atoms: C_7  and  N_20
    6  A    between atoms: C_7  and  C_39
    7  A    between atoms: C_10  and  C_15
    8  A    between atoms: C_11  and  C_23
    9  A    between atoms: C_12  and  N_20
   10  A    between atoms: C_12  and  O_24
   11  A    between atoms: C_17  and  C_18
   12  A    between atoms: C_17  and  O_33
   13  A    between atoms: C_27  and  N_32
                            x       y       z     vdW  Elec       q    Type
                         _______ _______ _______ _____ _____    ______ ____

>  <TORSDO>
F 13

$$$$
=
 OpenBabel10232411063D

 39 42  0  0  1  0  0  0  0  0999 V2000
  185.6630  179.3620  141.3370 C   0  0  1  0  0  3  0  0  0  0  0  0
  186.8690  177.9220  142.7000 C   0  0  1  0  0  3  0  0  0  0  0  0
  188.0290  178.6120  140.7820 C   0  0  1  0  0  3  0  0  0  0  0  0
  188.1610  177.8410  143.0120 C   0  0  1  0  0  3  0  0  0  0  0  0
  185.7880  178.4150  143.5900 C   0  0  0  0  0  2  0  0  0  0  0  0
  184.8770  179.1830  142.6380 C   0  0  0  0  0  2  0  0  0  0  0  0
  186.6470  178.2100  141.2810 C   0  0  2  0  0  3  0  0  0  0  0  0
  189.0090  178.0280  141.8020 C   0  0  0  0  0  2  0  0  0  0  0  0
  190.5240  176.7630  145.8390 C   0  0  0  0  0  0  0  0  0  0  0  0
  188.7390  177.8230  144.3990 C   0  0  1  0  0  3  0  0  0  0  0  0
  187.7580  177.2450  145.4110 C   0  0  0  0  0  2  0  0  0  0  0  0
  190.0630  177.0610  144.4360 C   0  0  0  0  0  2  0  0  0  0  0  0
  189.7190  176.8670  146.8610 N   0  0  0  0  0  0  0  0  0  0  0  0
  191.8380  176.2270  146.0120 N   0  0  0  0  0  2  0  0  0  0  0  0
  188.3620  177.4150  146.7970 C   0  0  0  0  0  2  0  0  0  0  0  0
  192.3540  175.8910  147.2740 C   0  0  0  0  0  0  0  0  0  0  0  0
  192.7980  175.6010  148.3560 C   0  0  0  0  0  3  0  0  0  0  0  0
  184.7840  179.3780  140.1720 N   0  0  0  0  0  2  0  0  0  0  0  0
  183.4040  177.5960  140.8100 O   0  0  0  0  0  0  0  0  0  0  0  0
  183.7040  178.4640  139.9490 C   0  0  0  0  0  0  0  0  0  0  0  0
  182.9650  178.5040  138.6590 C   0  0  0  0  0  2  0  0  0  0  0  0
  181.5680  178.1880  138.8960 N   0  0  0  0  0  2  0  0  0  0  0  0
  180.7850  179.3590  138.5310 C   0  0  2  0  0  3  0  0  0  0  0  0
  180.7140  180.3200  136.5360 C   0  0  0  0  0  1  0  0  0  0  0  0
  181.5210  180.1750  137.6630 O   0  0  0  0  0  0  0  0  0  0  0  0
  180.4140  180.1290  139.7610 C   0  0  0  0  0  0  0  0  0  0  0  0
  180.4830  181.3470  139.7540 O   0  0  0  0  0  0  0  0  0  0  0  0
  180.7290  179.9180  142.1420 N   0  0  0  0  0  1  0  0  0  0  0  0
  179.9840  179.4160  141.0020 C   0  0  0  0  0  2  0  0  0  0  0  0
  188.2920  178.0860  139.4030 C   0  0  0  0  0  0  0  0  0  0  0  0
  188.8640  176.8940  139.2840 C   0  0  0  0  0  3  0  0  0  0  0  0
  189.1230  176.3280  138.0000 N   0  0  0  0  0  2  0  0  0  0  0  0
  190.6030  175.6210  136.3610 O   0  0  0  0  0  0  0  0  0  0  0  0
  190.4340  176.2550  137.4370 C   0  0  0  0  0  0  0  0  0  0  0  0
  192.5660  175.8190  138.6500 C   0  0  0  0  0  2  0  0  0  0  0  0
  191.6090  176.8800  138.1330 C   0  0  0  0  0  3  0  0  0  0  0  0
  192.8780  176.5540  137.3670 C   0  0  0  0  0  2  0  0  0  0  0  0
  188.8520  179.5620  137.6060 O   0  0  0  0  0  1  0  0  0  0  0  0
  187.9530  178.8110  138.2540 O   0  0  0  0  0  0  0  0  0  0  0  0
  1 18  1  6  0  0  0
  1  6  1  0  0  0  0
  2  4  1  0  0  0  0
  2  5  1  1  0  0  0
  3 30  1  6  0  0  0
  3  7  1  0  0  0  0
  3  8  1  0  0  0  0
  4  8  1  6  0  0  0
  4 10  1  0  0  0  0
  6  5  1  0  0  0  0
  7  1  1  0  0  0  0
  7  2  1  0  0  0  0
  9 14  1  0  0  0  0
  9 13  2  0  0  0  0
 10 12  1  0  0  0  0
 10 11  1  0  0  0  0
 11 15  1  0  0  0  0
 12  9  1  0  0  0  0
 14 16  1  0  0  0  0
 15 13  1  0  0  0  0
 16 17  3  0  0  0  0
 20 18  1  0  0  0  0
 20 19  2  0  0  0  0
 21 22  1  0  0  0  0
 21 20  1  0  0  0  0
 23 22  1  0  0  0  0
 23 26  1  0  0  0  0
 24 25  1  0  0  0  0
 25 23  1  0  0  0  0
 26 29  1  0  0  0  0
 27 26  2  0  0  0  0
 29 28  1  0  0  0  0
 31 30  2  0  0  0  0
 32 31  1  0  0  0  0
 33 34  2  0  0  0  0
 34 32  1  0  0  0  0
 34 36  1  0  0  0  0
 36 35  1  0  0  0  0
 37 36  1  0  0  0  0
 37 35  1  0  0  0  0
 38 39  1  0  0  0  0
 39 30  1  0  0  0  0
M  END
>  <MODEL>
2

>  <REMARK>
 VINA RESULT:      -7.3      4.337     11.448
  Name = 
  13 active torsions:
  status: ('A' for Active; 'I' for Inactive)
    1  A    between atoms: N_3  and  C_37
    2  A    between atoms: C_4  and  N_22
    3  A    between atoms: C_6  and  C_12
    4  A    between atoms: C_6  and  C_31
    5  A    between atoms: C_7  and  N_20
    6  A    between atoms: C_7  and  C_39
    7  A    between atoms: C_10  and  C_15
    8  A    between atoms: C_11  and  C_23
    9  A    between atoms: C_12  and  N_20
   10  A    between atoms: C_12  and  O_24
   11  A    between atoms: C_17  and  C_18
   12  A    between atoms: C_17  and  O_33
   13  A    between atoms: C_27  and  N_32
                            x       y       z     vdW  Elec       q    Type
                         _______ _______ _______ _____ _____    ______ ____

>  <TORSDO>
F 13

$$$$
=
 OpenBabel10232411063D

 39 42  0  0  1  0  0  0  0  0999 V2000
  185.4990  179.4260  141.4520 C   0  0  1  0  0  3  0  0  0  0  0  0
  186.7360  177.9630  142.7610 C   0  0  1  0  0  3  0  0  0  0  0  0
  187.8740  178.7340  140.8620 C   0  0  1  0  0  3  0  0  0  0  0  0
  188.0300  177.8930  143.0650 C   0  0  1  0  0  3  0  0  0  0  0  0
  185.6510  178.4080  143.6720 C   0  0  0  0  0  2  0  0  0  0  0  0
  184.7220  179.1910  142.7500 C   0  0  0  0  0  2  0  0  0  0  0  0
  186.5020  178.2930  141.3540 C   0  0  2  0  0  3  0  0  0  0  0  0
  188.8690  178.1340  141.8590 C   0  0  0  0  0  2  0  0  0  0  0  0
  190.4540  176.7980  145.8340 C   0  0  0  0  0  0  0  0  0  0  0  0
  188.6150  177.8400  144.4480 C   0  0  1  0  0  3  0  0  0  0  0  0
  187.6670  177.1740  145.4360 C   0  0  0  0  0  2  0  0  0  0  0  0
  189.9730  177.1380  144.4470 C   0  0  0  0  0  2  0  0  0  0  0  0
  189.6490  176.8200  146.8620 N   0  0  0  0  0  0  0  0  0  0  0  0
  191.7910  176.3150  145.9800 N   0  0  0  0  0  2  0  0  0  0  0  0
  188.2690  177.3090  146.8270 C   0  0  0  0  0  2  0  0  0  0  0  0
  192.3280  175.9470  147.2230 C   0  0  0  0  0  0  0  0  0  0  0  0
  192.7880  175.6310  148.2910 C   0  0  0  0  0  3  0  0  0  0  0  0
  184.6140  179.4650  140.2920 N   0  0  0  0  0  2  0  0  0  0  0  0
  183.5220  177.4280  140.6760 O   0  0  0  0  0  0  0  0  0  0  0  0
  183.6800  178.4370  139.9400 C   0  0  0  0  0  0  0  0  0  0  0  0
  182.9280  178.5370  138.6610 C   0  0  0  0  0  2  0  0  0  0  0  0
  182.2350  177.2860  138.4120 N   0  0  0  0  0  2  0  0  0  0  0  0
  182.7160  176.7630  137.1410 C   0  0  2  0  0  3  0  0  0  0  0  0
  181.9130  176.6960  135.0780 C   0  0  0  0  0  1  0  0  0  0  0  0
  181.6400  176.2870  136.3830 O   0  0  0  0  0  0  0  0  0  0  0  0
  183.6970  175.6570  137.3830 C   0  0  0  0  0  0  0  0  0  0  0  0
  183.3780  174.7120  138.0850 O   0  0  0  0  0  0  0  0  0  0  0  0
  185.8340  174.5540  137.2070 N   0  0  0  0  0  1  0  0  0  0  0  0
  185.0690  175.7160  136.7920 C   0  0  0  0  0  2  0  0  0  0  0  0
  188.1390  178.2580  139.4650 C   0  0  0  0  0  0  0  0  0  0  0  0
  189.3980  178.2020  139.0490 C   0  0  0  0  0  3  0  0  0  0  0  0
  189.7180  177.7390  137.7380 N   0  0  0  0  0  2  0  0  0  0  0  0
  190.9290  176.3650  136.3160 O   0  0  0  0  0  0  0  0  0  0  0  0
  190.7910  176.8330  137.4790 C   0  0  0  0  0  0  0  0  0  0  0  0
  192.4710  175.1380  138.1930 C   0  0  0  0  0  2  0  0  0  0  0  0
  191.7200  176.4010  138.5780 C   0  0  0  0  0  3  0  0  0  0  0  0
  193.1540  176.4810  138.0840 C   0  0  0  0  0  2  0  0  0  0  0  0
  186.5810  178.7300  137.7130 O   0  0  0  0  0  1  0  0  0  0  0  0
  187.1050  177.8770  138.6020 O   0  0  0  0  0  0  0  0  0  0  0  0
  1 18  1  6  0  0  0
  1  6  1  0  0  0  0
  2  4  1  0  0  0  0
  2  5  1  1  0  0  0
  3 30  1  6  0  0  0
  3  7  1  0  0  0  0
  3  8  1  0  0  0  0
  4  8  1  1  0  0  0
  4 10  1  0  0  0  0
  6  5  1  0  0  0  0
  7  1  1  0  0  0  0
  7  2  1  0  0  0  0
  9 14  1  0  0  0  0
  9 13  2  0  0  0  0
 10 11  1  0  0  0  0
 11 15  1  0  0  0  0
 12 10  1  0  0  0  0
 12  9  1  0  0  0  0
 14 16  1  0  0  0  0
 15 13  1  0  0  0  0
 16 17  3  0  0  0  0
 20 18  1  0  0  0  0
 20 19  2  0  0  0  0
 21 20  1  0  0  0  0
 22 21  1  0  0  0  0
 23 26  1  0  0  0  0
 23 22  1  0  0  0  0
 24 25  1  0  0  0  0
 25 23  1  0  0  0  0
 26 27  2  0  0  0  0
 29 28  1  0  0  0  0
 29 26  1  0  0  0  0
 31 30  2  0  0  0  0
 32 31  1  0  0  0  0
 33 34  2  0  0  0  0
 34 32  1  0  0  0  0
 34 36  1  0  0  0  0
 35 36  1  0  0  0  0
 37 35  1  0  0  0  0
 37 36  1  0  0  0  0
 38 39  1  0  0  0  0
 39 30  1  0  0  0  0
M  END
>  <MODEL>
3

>  <REMARK>
 VINA RESULT:      -7.1      4.180     10.385
  Name = 
  13 active torsions:
  status: ('A' for Active; 'I' for Inactive)
    1  A    between atoms: N_3  and  C_37
    2  A    between atoms: C_4  and  N_22
    3  A    between atoms: C_6  and  C_12
    4  A    between atoms: C_6  and  C_31
    5  A    between atoms: C_7  and  N_20
    6  A    between atoms: C_7  and  C_39
    7  A    between atoms: C_10  and  C_15
    8  A    between atoms: C_11  and  C_23
    9  A    between atoms: C_12  and  N_20
   10  A    between atoms: C_12  and  O_24
   11  A    between atoms: C_17  and  C_18
   12  A    between atoms: C_17  and  O_33
   13  A    between atoms: C_27  and  N_32
                            x       y       z     vdW  Elec       q    Type
                         _______ _______ _______ _____ _____    ______ ____

>  <TORSDO>
F 13

$$$$
=
 OpenBabel10232411063D

 39 42  0  0  1  0  0  0  0  0999 V2000
  189.7950  176.9790  140.7930 C   0  0  1  0  0  3  0  0  0  0  0  0
  189.1460  178.1360  138.8890 C   0  0  1  0  0  3  0  0  0  0  0  0
  190.7980  176.5180  138.5010 C   0  0  1  0  0  3  0  0  0  0  0  0
  189.0050  177.7770  137.6150 C   0  0  1  0  0  3  0  0  0  0  0  0
  188.0420  178.3990  139.8460 C   0  0  0  0  0  2  0  0  0  0  0  0
  188.5720  177.8260  141.1560 C   0  0  0  0  0  2  0  0  0  0  0  0
  190.3450  177.5680  139.5080 C   0  0  2  0  0  3  0  0  0  0  0  0
  190.1450  176.9240  137.1780 C   0  0  0  0  0  2  0  0  0  0  0  0
  185.5130  176.9600  136.2420 C   0  0  0  0  0  0  0  0  0  0  0  0
  187.7730  177.9580  136.7730 C   0  0  1  0  0  3  0  0  0  0  0  0
  188.0680  177.7570  135.2920 C   0  0  0  0  0  2  0  0  0  0  0  0
  186.6490  177.0290  137.2290 C   0  0  0  0  0  2  0  0  0  0  0  0
  185.6430  177.3930  135.0180 N   0  0  0  0  0  0  0  0  0  0  0  0
  184.3210  176.2780  136.6390 N   0  0  0  0  0  2  0  0  0  0  0  0
  186.8130  178.1160  134.5120 C   0  0  0  0  0  2  0  0  0  0  0  0
  183.2150  176.1360  135.7870 C   0  0  0  0  0  0  0  0  0  0  0  0
  182.2650  176.0130  135.0560 C   0  0  0  0  0  3  0  0  0  0  0  0
  190.7920  176.9850  141.8580 N   0  0  0  0  0  2  0  0  0  0  0  0
  190.0450  175.0700  142.9820 O   0  0  0  0  0  0  0  0  0  0  0  0
  190.8500  176.0360  142.9300 C   0  0  0  0  0  0  0  0  0  0  0  0
  191.8380  176.2280  144.0250 C   0  0  0  0  0  2  0  0  0  0  0  0
  191.5240  177.4470  144.7470 N   0  0  0  0  0  2  0  0  0  0  0  0
  191.2010  177.0750  146.1170 C   0  0  2  0  0  3  0  0  0  0  0  0
  192.3600  175.8590  147.5610 C   0  0  0  0  0  1  0  0  0  0  0  0
  191.6360  175.7690  146.3730 O   0  0  0  0  0  0  0  0  0  0  0  0
  189.7220  177.1710  146.3360 C   0  0  0  0  0  0  0  0  0  0  0  0
  189.2140  176.5930  147.2830 O   0  0  0  0  0  0  0  0  0  0  0  0
  187.8690  177.0720  144.7960 N   0  0  0  0  0  1  0  0  0  0  0  0
  188.8630  177.9470  145.3910 C   0  0  0  0  0  2  0  0  0  0  0  0
  192.2920  176.4730  138.3860 C   0  0  0  0  0  0  0  0  0  0  0  0
  192.8230  176.2220  137.1960 C   0  0  0  0  0  3  0  0  0  0  0  0
  194.2380  176.1840  137.0160 N   0  0  0  0  0  2  0  0  0  0  0  0
  196.2280  175.0050  136.8570 O   0  0  0  0  0  0  0  0  0  0  0  0
  195.0050  174.9890  137.1630 C   0  0  0  0  0  0  0  0  0  0  0  0
  193.8920  172.8750  136.4560 C   0  0  0  0  0  2  0  0  0  0  0  0
  194.3640  173.7130  137.6320 C   0  0  0  0  0  3  0  0  0  0  0  0
  195.1880  172.5320  137.1520 C   0  0  0  0  0  2  0  0  0  0  0  0
  193.7790  177.8420  139.6650 O   0  0  0  0  0  1  0  0  0  0  0  0
  193.1280  176.6850  139.4890 O   0  0  0  0  0  0  0  0  0  0  0  0
  1  6  1  0  0  0  0
  1 18  1  1  0  0  0
  2  7  1  0  0  0  0
  2  5  1  1  0  0  0
  3 30  1  6  0  0  0
  3  7  1  0  0  0  0
  4  8  1  1  0  0  0
  4  2  1  0  0  0  0
  5  6  1  0  0  0  0
  7  1  1  0  0  0  0
  8  3  1  0  0  0  0
  9 14  1  0  0  0  0
  9 12  1  0  0  0  0
 10 12  1  0  0  0  0
 10  4  1  0  0  0  0
 11 10  1  0  0  0  0
 13  9  2  0  0  0  0
 15 13  1  0  0  0  0
 15 11  1  0  0  0  0
 16 14  1  0  0  0  0
 17 16  3  0  0  0  0
 18 20  1  0  0  0  0
 20 19  2  0  0  0  0
 20 21  1  0  0  0  0
 21 22  1  0  0  0  0
 22 23  1  0  0  0  0
 23 26  1  0  0  0  0
 23 25  1  0  0  0  0
 25 24  1  0  0  0  0
 26 27  2  0  0  0  0
 28 29  1  0  0  0  0
 29 26  1  0  0  0  0
 30 39  1  0  0  0  0
 31 30  2  0  0  0  0
 32 34  1  0  0  0  0
 32 31  1  0  0  0  0
 33 34  2  0  0  0  0
 34 36  1  0  0  0  0
 35 37  1  0  0  0  0
 35 36  1  0  0  0  0
 37 36  1  0  0  0  0
 39 38  1  0  0  0  0
M  END
>  <MODEL>
4

>  <REMARK>
 VINA RESULT:      -7.1      2.512      7.455
  Name = 
  13 active torsions:
  status: ('A' for Active; 'I' for Inactive)
    1  A    between atoms: N_3  and  C_37
    2  A    between atoms: C_4  and  N_22
    3  A    between atoms: C_6  and  C_12
    4  A    between atoms: C_6  and  C_31
    5  A    between atoms: C_7  and  N_20
    6  A    between atoms: C_7  and  C_39
    7  A    between atoms: C_10  and  C_15
    8  A    between atoms: C_11  and  C_23
    9  A    between atoms: C_12  and  N_20
   10  A    between atoms: C_12  and  O_24
   11  A    between atoms: C_17  and  C_18
   12  A    between atoms: C_17  and  O_33
   13  A    between atoms: C_27  and  N_32
                            x       y       z     vdW  Elec       q    Type
                         _______ _______ _______ _____ _____    ______ ____

>  <TORSDO>
F 13

$$$$
=
 OpenBabel10232411063D

 39 42  0  0  1  0  0  0  0  0999 V2000
  185.8320  179.3140  141.3060 C   0  0  1  0  0  3  0  0  0  0  0  0
  187.0500  177.8810  142.6660 C   0  0  1  0  0  3  0  0  0  0  0  0
  188.2640  178.7250  140.8450 C   0  0  1  0  0  3  0  0  0  0  0  0
  188.3260  177.8580  143.0430 C   0  0  1  0  0  3  0  0  0  0  0  0
  185.8980  178.2710  143.5180 C   0  0  0  0  0  2  0  0  0  0  0  0
  184.9930  179.0300  142.5540 C   0  0  0  0  0  2  0  0  0  0  0  0
  186.8840  178.2230  141.2510 C   0  0  2  0  0  3  0  0  0  0  0  0
  189.2230  178.1490  141.8900 C   0  0  0  0  0  2  0  0  0  0  0  0
  190.6060  176.7870  145.9410 C   0  0  0  0  0  0  0  0  0  0  0  0
  188.8330  177.8070  144.4570 C   0  0  1  0  0  3  0  0  0  0  0  0
  187.8410  177.1230  145.3870 C   0  0  0  0  0  2  0  0  0  0  0  0
  190.1990  177.1250  144.5300 C   0  0  0  0  0  2  0  0  0  0  0  0
  189.7440  176.7920  146.9210 N   0  0  0  0  0  0  0  0  0  0  0  0
  191.9400  176.3230  146.1600 N   0  0  0  0  0  2  0  0  0  0  0  0
  188.3610  177.2600  146.8100 C   0  0  0  0  0  2  0  0  0  0  0  0
  192.4120  175.9570  147.4310 C   0  0  0  0  0  0  0  0  0  0  0  0
  192.8180  175.6440  148.5210 C   0  0  0  0  0  3  0  0  0  0  0  0
  185.0150  179.3360  140.0970 N   0  0  0  0  0  2  0  0  0  0  0  0
  183.3190  177.9070  140.8530 O   0  0  0  0  0  0  0  0  0  0  0  0
  183.8000  178.5980  139.9180 C   0  0  0  0  0  0  0  0  0  0  0  0
  183.1280  178.6040  138.5910 C   0  0  0  0  0  2  0  0  0  0  0  0
  181.7200  178.2970  138.7640 N   0  0  0  0  0  2  0  0  0  0  0  0
  180.9620  179.2560  137.9730 C   0  0  2  0  0  3  0  0  0  0  0  0
  180.6620  179.0770  135.7850 C   0  0  0  0  0  1  0  0  0  0  0  0
  181.5960  179.4690  136.7430 O   0  0  0  0  0  0  0  0  0  0  0  0
  180.8440  180.5510  138.7160 C   0  0  0  0  0  0  0  0  0  0  0  0
  180.4460  180.5500  139.8690 O   0  0  0  0  0  0  0  0  0  0  0  0
  180.0550  182.7500  138.1190 N   0  0  0  0  0  1  0  0  0  0  0  0
  181.1870  181.8440  138.0490 C   0  0  0  0  0  2  0  0  0  0  0  0
  188.6260  178.2800  139.4600 C   0  0  0  0  0  0  0  0  0  0  0  0
  188.4980  176.9940  139.1600 C   0  0  0  0  0  3  0  0  0  0  0  0
  188.8080  176.5090  137.8550 N   0  0  0  0  0  2  0  0  0  0  0  0
  188.1560  175.9010  135.7140 O   0  0  0  0  0  0  0  0  0  0  0  0
  187.8040  176.1940  136.8890 C   0  0  0  0  0  0  0  0  0  0  0  0
  185.6830  177.4730  136.6270 C   0  0  0  0  0  2  0  0  0  0  0  0
  186.3460  176.2530  137.2430 C   0  0  0  0  0  3  0  0  0  0  0  0
  185.5160  176.1190  135.9790 C   0  0  0  0  0  2  0  0  0  0  0  0
  188.3310  179.5420  137.4500 O   0  0  0  0  0  1  0  0  0  0  0  0
  189.0900  179.1760  138.4900 O   0  0  0  0  0  0  0  0  0  0  0  0
  1 18  1  6  0  0  0
  1  6  1  0  0  0  0
  2  4  1  0  0  0  0
  2  5  1  1  0  0  0
  3 30  1  6  0  0  0
  3  7  1  0  0  0  0
  3  8  1  0  0  0  0
  4  8  1  1  0  0  0
  4 10  1  0  0  0  0
  6  5  1  0  0  0  0
  7  1  1  0  0  0  0
  7  2  1  0  0  0  0
  9 14  1  0  0  0  0
  9 13  2  0  0  0  0
 10 12  1  0  0  0  0
 10 11  1  0  0  0  0
 11 15  1  0  0  0  0
 12  9  1  0  0  0  0
 14 16  1  0  0  0  0
 15 13  1  0  0  0  0
 16 17  3  0  0  0  0
 20 18  1  0  0  0  0
 20 19  2  0  0  0  0
 21 22  1  0  0  0  0
 21 20  1  0  0  0  0
 23 26  1  0  0  0  0
 23 22  1  0  0  0  0
 24 25  1  0  0  0  0
 25 23  1  0  0  0  0
 26 27  2  0  0  0  0
 29 28  1  0  0  0  0
 29 26  1  0  0  0  0
 31 30  2  0  0  0  0
 32 31  1  0  0  0  0
 33 34  2  0  0  0  0
 34 36  1  0  0  0  0
 34 32  1  0  0  0  0
 35 36  1  0  0  0  0
 37 35  1  0  0  0  0
 37 36  1  0  0  0  0
 38 39  1  0  0  0  0
 39 30  1  0  0  0  0
M  END
>  <MODEL>
5

>  <REMARK>
 VINA RESULT:      -7.0      5.593     11.499
  Name = 
  13 active torsions:
  status: ('A' for Active; 'I' for Inactive)
    1  A    between atoms: N_3  and  C_37
    2  A    between atoms: C_4  and  N_22
    3  A    between atoms: C_6  and  C_12
    4  A    between atoms: C_6  and  C_31
    5  A    between atoms: C_7  and  N_20
    6  A    between atoms: C_7  and  C_39
    7  A    between atoms: C_10  and  C_15
    8  A    between atoms: C_11  and  C_23
    9  A    between atoms: C_12  and  N_20
   10  A    between atoms: C_12  and  O_24
   11  A    between atoms: C_17  and  C_18
   12  A    between atoms: C_17  and  O_33
   13  A    between atoms: C_27  and  N_32
                            x       y       z     vdW  Elec       q    Type
                         _______ _______ _______ _____ _____    ______ ____

>  <TORSDO>
F 13

$$$$
=
 OpenBabel10232411063D

 39 42  0  0  1  0  0  0  0  0999 V2000
  190.5200  177.0200  140.3710 C   0  0  1  0  0  3  0  0  0  0  0  0
  190.2460  178.2110  142.3440 C   0  0  1  0  0  3  0  0  0  0  0  0
  188.2310  177.6500  141.2840 C   0  0  1  0  0  3  0  0  0  0  0  0
  189.3330  178.1620  143.3110 C   0  0  1  0  0  3  0  0  0  0  0  0
  191.6390  177.7050  142.4360 C   0  0  0  0  0  2  0  0  0  0  0  0
  191.8870  177.1140  141.0520 C   0  0  0  0  0  2  0  0  0  0  0  0
  189.6600  178.0960  141.0060 C   0  0  2  0  0  3  0  0  0  0  0  0
  187.9630  178.0450  142.7380 C   0  0  0  0  0  2  0  0  0  0  0  0
  191.0860  176.7910  146.4400 C   0  0  0  0  0  0  0  0  0  0  0  0
  189.6030  177.9860  144.7790 C   0  0  1  0  0  3  0  0  0  0  0  0
  188.4560  177.2740  145.4820 C   0  0  0  0  0  2  0  0  0  0  0  0
  190.9210  177.2490  145.0140 C   0  0  0  0  0  2  0  0  0  0  0  0
  190.0780  176.7560  147.2680 N   0  0  0  0  0  0  0  0  0  0  0  0
  192.3550  176.2610  146.8300 N   0  0  0  0  0  2  0  0  0  0  0  0
  188.7430  177.2840  146.9760 C   0  0  0  0  0  2  0  0  0  0  0  0
  192.6050  175.7830  148.1260 C   0  0  0  0  0  0  0  0  0  0  0  0
  192.8180  175.3730  149.2390 C   0  0  0  0  0  3  0  0  0  0  0  0
  190.6220  177.1960  138.9250 N   0  0  0  0  0  2  0  0  0  0  0  0
  190.8580  174.9350  138.3610 O   0  0  0  0  0  0  0  0  0  0  0  0
  190.8190  176.1350  137.9830 C   0  0  0  0  0  0  0  0  0  0  0  0
  191.0360  176.4600  136.5490 C   0  0  0  0  0  2  0  0  0  0  0  0
  191.7310  175.3590  135.9070 N   0  0  0  0  0  2  0  0  0  0  0  0
  193.1600  175.6170  136.0190 C   0  0  2  0  0  3  0  0  0  0  0  0
  194.7810  176.8900  135.2090 C   0  0  0  0  0  1  0  0  0  0  0  0
  193.6370  176.1870  134.8330 O   0  0  0  0  0  0  0  0  0  0  0  0
  193.8880  174.3370  136.2970 C   0  0  0  0  0  0  0  0  0  0  0  0
  194.1670  173.5900  135.3750 O   0  0  0  0  0  0  0  0  0  0  0  0
  194.7800  175.1150  138.3980 N   0  0  0  0  0  1  0  0  0  0  0  0
  194.2520  173.9600  137.6970 C   0  0  0  0  0  2  0  0  0  0  0  0
  187.2580  178.3010  140.3480 C   0  0  0  0  0  0  0  0  0  0  0  0
  186.1420  178.8100  140.8560 C   0  0  0  0  0  3  0  0  0  0  0  0
  185.1850  179.4610  140.0230 N   0  0  0  0  0  2  0  0  0  0  0  0
  182.9890  179.8780  139.4060 O   0  0  0  0  0  0  0  0  0  0  0  0
  183.7880  179.1680  140.0750 C   0  0  0  0  0  0  0  0  0  0  0  0
  182.8500  178.5940  142.3100 C   0  0  0  0  0  2  0  0  0  0  0  0
  183.2620  178.0640  140.9480 C   0  0  0  0  0  3  0  0  0  0  0  0
  181.8000  178.3240  141.2600 C   0  0  0  0  0  2  0  0  0  0  0  0
  187.3780  177.3180  138.1710 O   0  0  0  0  0  1  0  0  0  0  0  0
  187.4940  178.3850  138.9710 O   0  0  0  0  0  0  0  0  0  0  0  0
  1 18  1  6  0  0  0
  1  7  1  0  0  0  0
  1  6  1  0  0  0  0
  2  5  1  1  0  0  0
  2  4  1  0  0  0  0
  3 30  1  6  0  0  0
  3  8  1  0  0  0  0
  4  8  1  6  0  0  0
  4 10  1  0  0  0  0
  6  5  1  0  0  0  0
  7  3  1  0  0  0  0
  7  2  1  0  0  0  0
  9 14  1  0  0  0  0
  9 13  2  0  0  0  0
 10 12  1  0  0  0  0
 10 11  1  0  0  0  0
 11 15  1  0  0  0  0
 12  9  1  0  0  0  0
 14 16  1  0  0  0  0
 15 13  1  0  0  0  0
 16 17  3  0  0  0  0
 20 19  2  0  0  0  0
 20 18  1  0  0  0  0
 21 20  1  0  0  0  0
 22 23  1  0  0  0  0
 22 21  1  0  0  0  0
 23 26  1  0  0  0  0
 25 24  1  0  0  0  0
 25 23  1  0  0  0  0
 26 29  1  0  0  0  0
 27 26  2  0  0  0  0
 29 28  1  0  0  0  0
 30 31  2  0  0  0  0
 32 34  1  0  0  0  0
 32 31  1  0  0  0  0
 33 34  2  0  0  0  0
 34 36  1  0  0  0  0
 36 37  1  0  0  0  0
 36 35  1  0  0  0  0
 37 35  1  0  0  0  0
 38 39  1  0  0  0  0
 39 30  1  0  0  0  0
M  END
>  <MODEL>
6

>  <REMARK>
 VINA RESULT:      -7.0      3.233      7.359
  Name = 
  13 active torsions:
  status: ('A' for Active; 'I' for Inactive)
    1  A    between atoms: N_3  and  C_37
    2  A    between atoms: C_4  and  N_22
    3  A    between atoms: C_6  and  C_12
    4  A    between atoms: C_6  and  C_31
    5  A    between atoms: C_7  and  N_20
    6  A    between atoms: C_7  and  C_39
    7  A    between atoms: C_10  and  C_15
    8  A    between atoms: C_11  and  C_23
    9  A    between atoms: C_12  and  N_20
   10  A    between atoms: C_12  and  O_24
   11  A    between atoms: C_17  and  C_18
   12  A    between atoms: C_17  and  O_33
   13  A    between atoms: C_27  and  N_32
                            x       y       z     vdW  Elec       q    Type
                         _______ _______ _______ _____ _____    ______ ____

>  <TORSDO>
F 13

$$$$
=
 OpenBabel10232411063D

 39 42  0  0  1  0  0  0  0  0999 V2000
  187.8720  177.6390  142.1700 C   0  0  1  0  0  3  0  0  0  0  0  0
  186.4520  178.7360  140.6990 C   0  0  1  0  0  3  0  0  0  0  0  0
  188.1150  177.4630  139.6430 C   0  0  1  0  0  3  0  0  0  0  0  0
  185.9530  178.4100  139.5090 C   0  0  1  0  0  3  0  0  0  0  0  0
  185.7030  178.7550  141.9810 C   0  0  0  0  0  2  0  0  0  0  0  0
  186.7230  178.2330  142.9870 C   0  0  0  0  0  2  0  0  0  0  0  0
  187.8630  178.3700  140.8410 C   0  0  2  0  0  3  0  0  0  0  0  0
  187.0020  177.7980  138.6470 C   0  0  0  0  0  2  0  0  0  0  0  0
  182.9000  177.8840  137.2410 C   0  0  0  0  0  0  0  0  0  0  0  0
  184.4990  178.3990  139.1280 C   0  0  1  0  0  3  0  0  0  0  0  0
  183.9230  179.8070  139.0640 C   0  0  0  0  0  2  0  0  0  0  0  0
  184.2790  177.6650  137.8060 C   0  0  0  0  0  2  0  0  0  0  0  0
  182.1250  178.8400  137.6770 N   0  0  0  0  0  0  0  0  0  0  0  0
  182.5070  177.1010  136.1120 N   0  0  0  0  0  2  0  0  0  0  0  0
  182.4240  179.6890  138.8320 C   0  0  0  0  0  2  0  0  0  0  0  0
  181.2540  177.2450  135.4940 C   0  0  0  0  0  0  0  0  0  0  0  0
  180.1800  177.3670  134.9640 C   0  0  0  0  0  3  0  0  0  0  0  0
  189.1540  177.7820  142.8540 N   0  0  0  0  0  2  0  0  0  0  0  0
  189.7970  175.5310  142.7650 O   0  0  0  0  0  0  0  0  0  0  0  0
  190.0490  176.7030  143.1480 C   0  0  0  0  0  0  0  0  0  0  0  0
  191.2640  176.9620  143.9650 C   0  0  0  0  0  2  0  0  0  0  0  0
  191.1480  176.2640  145.2320 N   0  0  0  0  0  2  0  0  0  0  0  0
  191.0110  177.2690  146.2770 C   0  0  2  0  0  3  0  0  0  0  0  0
  192.1960  175.6400  147.1980 C   0  0  0  0  0  1  0  0  0  0  0  0
  191.9030  176.9980  147.3210 O   0  0  0  0  0  0  0  0  0  0  0  0
  189.6060  177.2760  146.7960 C   0  0  0  0  0  0  0  0  0  0  0  0
  188.6860  176.9800  146.0510 O   0  0  0  0  0  0  0  0  0  0  0  0
  187.9770  178.2050  148.3120 N   0  0  0  0  0  1  0  0  0  0  0  0
  189.3210  177.6660  148.2100 C   0  0  0  0  0  2  0  0  0  0  0  0
  189.4720  177.6950  139.0520 C   0  0  0  0  0  0  0  0  0  0  0  0
  190.5160  177.1110  139.6280 C   0  0  0  0  0  3  0  0  0  0  0  0
  191.8320  177.2760  139.1030 N   0  0  0  0  0  2  0  0  0  0  0  0
  193.5280  176.6390  137.6550 O   0  0  0  0  0  0  0  0  0  0  0  0
  192.4160  176.3570  138.1780 C   0  0  0  0  0  0  0  0  0  0  0  0
  190.9670  175.2620  136.4730 C   0  0  0  0  0  2  0  0  0  0  0  0
  191.7030  175.0920  137.7910 C   0  0  0  0  0  3  0  0  0  0  0  0
  192.3010  174.5530  136.5040 C   0  0  0  0  0  2  0  0  0  0  0  0
  189.0230  179.6670  137.7750 O   0  0  0  0  0  1  0  0  0  0  0  0
  189.6630  178.5000  137.9230 O   0  0  0  0  0  0  0  0  0  0  0  0
  1 18  1  1  0  0  0
  1  6  1  0  0  0  0
  2  7  1  0  0  0  0
  2  5  1  1  0  0  0
  3 30  1  6  0  0  0
  3  7  1  0  0  0  0
  4  8  1  1  0  0  0
  4  2  1  0  0  0  0
  5  6  1  0  0  0  0
  7  1  1  0  0  0  0
  8  3  1  0  0  0  0
  9 13  2  0  0  0  0
  9 12  1  0  0  0  0
 10  4  1  0  0  0  0
 11 10  1  0  0  0  0
 12 10  1  0  0  0  0
 13 15  1  0  0  0  0
 14  9  1  0  0  0  0
 15 11  1  0  0  0  0
 16 14  1  0  0  0  0
 17 16  3  0  0  0  0
 18 20  1  0  0  0  0
 19 20  2  0  0  0  0
 20 21  1  0  0  0  0
 21 22  1  0  0  0  0
 22 23  1  0  0  0  0
 23 26  1  0  0  0  0
 23 25  1  0  0  0  0
 24 25  1  0  0  0  0
 26 29  1  0  0  0  0
 27 26  2  0  0  0  0
 29 28  1  0  0  0  0
 30 31  2  0  0  0  0
 32 31  1  0  0  0  0
 33 34  2  0  0  0  0
 34 32  1  0  0  0  0
 35 37  1  0  0  0  0
 35 36  1  0  0  0  0
 36 34  1  0  0  0  0
 37 36  1  0  0  0  0
 38 39  1  0  0  0  0
 39 30  1  0  0  0  0
M  END
>  <MODEL>
7

>  <REMARK>
 VINA RESULT:      -7.0      3.375      7.826
  Name = 
  13 active torsions:
  status: ('A' for Active; 'I' for Inactive)
    1  A    between atoms: N_3  and  C_37
    2  A    between atoms: C_4  and  N_22
    3  A    between atoms: C_6  and  C_12
    4  A    between atoms: C_6  and  C_31
    5  A    between atoms: C_7  and  N_20
    6  A    between atoms: C_7  and  C_39
    7  A    between atoms: C_10  and  C_15
    8  A    between atoms: C_11  and  C_23
    9  A    between atoms: C_12  and  N_20
   10  A    between atoms: C_12  and  O_24
   11  A    between atoms: C_17  and  C_18
   12  A    between atoms: C_17  and  O_33
   13  A    between atoms: C_27  and  N_32
                            x       y       z     vdW  Elec       q    Type
                         _______ _______ _______ _____ _____    ______ ____

>  <TORSDO>
F 13

$$$$
=
 OpenBabel10232411063D

 39 42  0  0  1  0  0  0  0  0999 V2000
  185.6120  179.3920  141.4800 C   0  0  1  0  0  3  0  0  0  0  0  0
  186.8300  177.9510  142.8310 C   0  0  1  0  0  3  0  0  0  0  0  0
  188.0240  178.7550  140.9790 C   0  0  1  0  0  3  0  0  0  0  0  0
  188.1130  177.9090  143.1840 C   0  0  1  0  0  3  0  0  0  0  0  0
  185.7020  178.3690  143.7010 C   0  0  0  0  0  2  0  0  0  0  0  0
  184.7920  179.1350  142.7460 C   0  0  0  0  0  2  0  0  0  0  0  0
  186.6430  178.2820  141.4160 C   0  0  2  0  0  3  0  0  0  0  0  0
  188.9920  178.1730  142.0110 C   0  0  0  0  0  2  0  0  0  0  0  0
  190.4750  176.8860  146.0330 C   0  0  0  0  0  0  0  0  0  0  0  0
  188.6460  177.8630  144.5880 C   0  0  1  0  0  3  0  0  0  0  0  0
  187.6910  177.1420  145.5300 C   0  0  0  0  0  2  0  0  0  0  0  0
  190.0330  177.2230  144.6330 C   0  0  0  0  0  2  0  0  0  0  0  0
  189.6310  176.8580  147.0290 N   0  0  0  0  0  0  0  0  0  0  0  0
  191.8260  176.4620  146.2260 N   0  0  0  0  0  2  0  0  0  0  0  0
  188.2320  177.2840  146.9450 C   0  0  0  0  0  2  0  0  0  0  0  0
  192.3310  176.1020  147.4850 C   0  0  0  0  0  0  0  0  0  0  0  0
  192.7630  175.7910  148.5660 C   0  0  0  0  0  3  0  0  0  0  0  0
  184.7720  179.4160  140.2870 N   0  0  0  0  0  2  0  0  0  0  0  0
  183.4310  177.5720  140.8240 O   0  0  0  0  0  0  0  0  0  0  0  0
  183.7300  178.4750  140.0000 C   0  0  0  0  0  0  0  0  0  0  0  0
  183.0330  178.5310  138.6880 C   0  0  0  0  0  2  0  0  0  0  0  0
  181.8510  177.6900  138.7360 N   0  0  0  0  0  2  0  0  0  0  0  0
  181.8640  176.8480  137.5480 C   0  0  2  0  0  3  0  0  0  0  0  0
  181.1570  177.1050  135.4640 C   0  0  0  0  0  1  0  0  0  0  0  0
  180.7130  177.0810  136.7850 O   0  0  0  0  0  0  0  0  0  0  0  0
  181.9270  175.4050  137.9450 C   0  0  0  0  0  0  0  0  0  0  0  0
  183.0120  174.8590  138.0600 O   0  0  0  0  0  0  0  0  0  0  0  0
  180.1700  174.8890  139.5130 N   0  0  0  0  0  1  0  0  0  0  0  0
  180.6740  174.6250  138.1780 C   0  0  0  0  0  2  0  0  0  0  0  0
  188.3520  178.2900  139.5920 C   0  0  0  0  0  0  0  0  0  0  0  0
  188.9510  177.1140  139.4490 C   0  0  0  0  0  3  0  0  0  0  0  0
  189.2730  176.6060  138.1560 N   0  0  0  0  0  2  0  0  0  0  0  0
  188.6280  175.7550  136.0970 O   0  0  0  0  0  0  0  0  0  0  0  0
  188.2910  176.0600  137.2730 C   0  0  0  0  0  0  0  0  0  0  0  0
  185.9350  176.7800  136.9090 C   0  0  0  0  0  2  0  0  0  0  0  0
  186.8650  175.8900  137.7150 C   0  0  0  0  0  3  0  0  0  0  0  0
  186.0510  175.3120  136.5710 C   0  0  0  0  0  2  0  0  0  0  0  0
  188.9840  179.7520  137.8080 O   0  0  0  0  0  1  0  0  0  0  0  0
  188.0460  179.0550  138.4610 O   0  0  0  0  0  0  0  0  0  0  0  0
  1 18  1  6  0  0  0
  1  6  1  0  0  0  0
  2  4  1  0  0  0  0
  2  5  1  1  0  0  0
  3 30  1  6  0  0  0
  3  7  1  0  0  0  0
  3  8  1  0  0  0  0
  4  8  1  1  0  0  0
  4 10  1  0  0  0  0
  6  5  1  0  0  0  0
  7  1  1  0  0  0  0
  7  2  1  0  0  0  0
  9 14  1  0  0  0  0
  9 13  2  0  0  0  0
 10 12  1  0  0  0  0
 10 11  1  0  0  0  0
 11 15  1  0  0  0  0
 12  9  1  0  0  0  0
 14 16  1  0  0  0  0
 15 13  1  0  0  0  0
 16 17  3  0  0  0  0
 20 18  1  0  0  0  0
 20 19  2  0  0  0  0
 21 22  1  0  0  0  0
 21 20  1  0  0  0  0
 23 26  1  0  0  0  0
 23 22  1  0  0  0  0
 24 25  1  0  0  0  0
 25 23  1  0  0  0  0
 26 27  2  0  0  0  0
 26 29  1  0  0  0  0
 29 28  1  0  0  0  0
 31 30  2  0  0  0  0
 32 31  1  0  0  0  0
 33 34  2  0  0  0  0
 34 36  1  0  0  0  0
 34 32  1  0  0  0  0
 35 36  1  0  0  0  0
 37 35  1  0  0  0  0
 37 36  1  0  0  0  0
 38 39  1  0  0  0  0
 39 30  1  0  0  0  0
M  END
>  <MODEL>
8

>  <REMARK>
 VINA RESULT:      -6.9      5.479     11.051
  Name = 
  13 active torsions:
  status: ('A' for Active; 'I' for Inactive)
    1  A    between atoms: N_3  and  C_37
    2  A    between atoms: C_4  and  N_22
    3  A    between atoms: C_6  and  C_12
    4  A    between atoms: C_6  and  C_31
    5  A    between atoms: C_7  and  N_20
    6  A    between atoms: C_7  and  C_39
    7  A    between atoms: C_10  and  C_15
    8  A    between atoms: C_11  and  C_23
    9  A    between atoms: C_12  and  N_20
   10  A    between atoms: C_12  and  O_24
   11  A    between atoms: C_17  and  C_18
   12  A    between atoms: C_17  and  O_33
   13  A    between atoms: C_27  and  N_32
                            x       y       z     vdW  Elec       q    Type
                         _______ _______ _______ _____ _____    ______ ____

>  <TORSDO>
F 13

$$$$
=
 OpenBabel10232411063D

 39 42  0  0  1  0  0  0  0  0999 V2000
  187.0440  177.9060  137.9820 C   0  0  1  0  0  3  0  0  0  0  0  0
  189.3620  177.9730  137.8910 C   0  0  1  0  0  3  0  0  0  0  0  0
  188.5120  177.2300  139.9470 C   0  0  1  0  0  3  0  0  0  0  0  0
  190.3110  177.2000  138.4150 C   0  0  1  0  0  3  0  0  0  0  0  0
  188.9590  178.0090  136.4630 C   0  0  0  0  0  2  0  0  0  0  0  0
  187.4460  178.1860  136.5330 C   0  0  0  0  0  2  0  0  0  0  0  0
  188.2630  178.2290  138.8250 C   0  0  2  0  0  3  0  0  0  0  0  0
  189.9910  176.8530  139.8270 C   0  0  0  0  0  2  0  0  0  0  0  0
  192.2550  174.3000  136.8150 C   0  0  0  0  0  0  0  0  0  0  0  0
  191.4280  176.5330  137.6620 C   0  0  1  0  0  3  0  0  0  0  0  0
  192.7380  176.5820  138.4370 C   0  0  0  0  0  2  0  0  0  0  0  0
  191.0690  175.0930  137.3000 C   0  0  0  0  0  2  0  0  0  0  0  0
  193.4780  174.7180  136.9980 N   0  0  0  0  0  0  0  0  0  0  0  0
  192.0150  173.0030  136.2660 N   0  0  0  0  0  2  0  0  0  0  0  0
  193.8350  176.0330  137.5370 C   0  0  0  0  0  2  0  0  0  0  0  0
  193.0510  172.1740  135.8100 C   0  0  0  0  0  0  0  0  0  0  0  0
  193.9410  171.4620  135.4200 C   0  0  0  0  0  3  0  0  0  0  0  0
  185.8850  178.6960  138.3860 N   0  0  0  0  0  2  0  0  0  0  0  0
  184.2730  177.0140  138.1440 O   0  0  0  0  0  0  0  0  0  0  0  0
  184.5370  178.2140  138.4180 C   0  0  0  0  0  0  0  0  0  0  0  0
  183.4280  179.1570  138.7230 C   0  0  0  0  0  2  0  0  0  0  0  0
  183.1910  179.1720  140.1550 N   0  0  0  0  0  2  0  0  0  0  0  0
  181.9350  178.4770  140.3990 C   0  0  2  0  0  3  0  0  0  0  0  0
  180.5780  177.0850  139.3370 C   0  0  0  0  0  1  0  0  0  0  0  0
  181.2440  178.3020  139.1940 O   0  0  0  0  0  0  0  0  0  0  0  0
  181.0950  179.2640  141.3570 C   0  0  0  0  0  0  0  0  0  0  0  0
  180.5250  180.2720  140.9720 O   0  0  0  0  0  0  0  0  0  0  0  0
  182.2010  179.1290  143.4950 N   0  0  0  0  0  1  0  0  0  0  0  0
  180.9700  178.8390  142.7850 C   0  0  0  0  0  2  0  0  0  0  0  0
  188.2010  177.8190  141.2900 C   0  0  0  0  0  0  0  0  0  0  0  0
  188.5350  177.1270  142.3720 C   0  0  0  0  0  3  0  0  0  0  0  0
  188.2850  177.6410  143.6790 N   0  0  0  0  0  2  0  0  0  0  0  0
  188.9820  178.0980  145.8430 O   0  0  0  0  0  0  0  0  0  0  0  0
  189.2130  177.5020  144.7560 C   0  0  0  0  0  0  0  0  0  0  0  0
  191.6320  177.5830  144.1660 C   0  0  0  0  0  2  0  0  0  0  0  0
  190.4720  176.6990  144.5910 C   0  0  0  0  0  3  0  0  0  0  0  0
  191.4980  177.1610  145.6100 C   0  0  0  0  0  2  0  0  0  0  0  0
  186.2910  179.1680  141.7920 O   0  0  0  0  0  1  0  0  0  0  0  0
  187.5750  179.0630  141.4270 O   0  0  0  0  0  0  0  0  0  0  0  0
  1 18  1  1  0  0  0
  1  7  1  0  0  0  0
  2  5  1  6  0  0  0
  2  4  1  0  0  0  0
  2  7  1  0  0  0  0
  3 30  1  1  0  0  0
  4  8  1  6  0  0  0
  5  6  1  0  0  0  0
  6  1  1  0  0  0  0
  7  3  1  0  0  0  0
  8  3  1  0  0  0  0
  9 13  2  0  0  0  0
  9 12  1  0  0  0  0
 10  4  1  0  0  0  0
 10 11  1  0  0  0  0
 12 10  1  0  0  0  0
 13 15  1  0  0  0  0
 14  9  1  0  0  0  0
 15 11  1  0  0  0  0
 16 14  1  0  0  0  0
 17 16  3  0  0  0  0
 18 20  1  0  0  0  0
 19 20  2  0  0  0  0
 20 21  1  0  0  0  0
 21 22  1  0  0  0  0
 22 23  1  0  0  0  0
 23 26  1  0  0  0  0
 25 24  1  0  0  0  0
 25 23  1  0  0  0  0
 26 29  1  0  0  0  0
 27 26  2  0  0  0  0
 29 28  1  0  0  0  0
 30 39  1  0  0  0  0
 30 31  2  0  0  0  0
 31 32  1  0  0  0  0
 32 34  1  0  0  0  0
 34 33  2  0  0  0  0
 35 36  1  0  0  0  0
 35 37  1  0  0  0  0
 36 34  1  0  0  0  0
 36 37  1  0  0  0  0
 39 38  1  0  0  0  0
M  END
>  <MODEL>
9

>  <REMARK>
 VINA RESULT:      -6.8      4.262     10.296
  Name = 
  13 active torsions:
  status: ('A' for Active; 'I' for Inactive)
    1  A    between atoms: N_3  and  C_37
    2  A    between atoms: C_4  and  N_22
    3  A    between atoms: C_6  and  C_12
    4  A    between atoms: C_6  and  C_31
    5  A    between atoms: C_7  and  N_20
    6  A    between atoms: C_7  and  C_39
    7  A    between atoms: C_10  and  C_15
    8  A    between atoms: C_11  and  C_23
    9  A    between atoms: C_12  and  N_20
   10  A    between atoms: C_12  and  O_24
   11  A    between atoms: C_17  and  C_18
   12  A    between atoms: C_17  and  O_33
   13  A    between atoms: C_27  and  N_32
                            x       y       z     vdW  Elec       q    Type
                         _______ _______ _______ _____ _____    ______ ____

>  <TORSDO>
F 13

$$$$
