=
 OpenBabel10232409193D

 30 32  0  0  1  0  0  0  0  0999 V2000
  185.9840  178.7390  145.8370 C   0  0  0  0  0  0  0  0  0  0  0  0
  187.0550  177.7760  145.8070 N   0  0  0  0  0  0  0  0  0  0  0  0
  185.9030  179.5400  146.8070 O   0  0  0  0  0  0  0  0  0  0  0  0
  183.5940  178.8080  145.1160 C   0  0  0  0  0  3  0  0  0  0  0  0
  184.9540  178.7830  144.7760 C   0  0  0  0  0  0  0  0  0  0  0  0
  182.9790  178.8190  142.7700 C   0  0  0  0  0  0  0  0  0  0  0  0
  185.3180  178.7610  143.4210 C   0  0  0  0  0  3  0  0  0  0  0  0
  184.3380  178.7840  142.4250 C   0  0  0  0  0  3  0  0  0  0  0  0
  182.6140  178.8300  144.1210 C   0  0  0  0  0  3  0  0  0  0  0  0
  180.6890  179.3980  142.0380 C   0  0  0  0  0  1  0  0  0  0  0  0
  181.9740  178.8420  141.7990 O   0  0  0  0  0  0  0  0  0  0  0  0
  187.8340  177.5380  144.6160 C   0  0  0  0  0  0  0  0  0  0  0  0
  189.4040  178.3110  142.9280 C   0  0  0  0  0  3  0  0  0  0  0  0
  188.6420  178.5490  144.0750 C   0  0  0  0  0  3  0  0  0  0  0  0
  188.5790  176.0410  142.8490 C   0  0  0  0  0  3  0  0  0  0  0  0
  189.3760  177.0540  142.3070 C   0  0  0  0  0  0  0  0  0  0  0  0
  187.8150  176.2790  143.9950 C   0  0  0  0  0  3  0  0  0  0  0  0
  189.8680  177.2260  139.7960 C   0  0  0  0  0  0  0  0  0  0  0  0
  188.8850  177.9770  139.5530 O   0  0  0  0  0  0  0  0  0  0  0  0
  190.1420  176.7720  141.1290 N   0  0  0  0  0  2  0  0  0  0  0  0
  191.0260  175.4490  138.7440 O   0  0  0  0  0  0  0  0  0  0  0  0
  190.1090  175.8820  137.7720 C   0  0  0  0  0  2  0  0  0  0  0  0
  190.7820  176.8340  138.6830 C   0  0  1  0  0  3  0  0  0  0  0  0
  187.4230  177.1110  147.0560 C   0  0  0  0  0  2  0  0  0  0  0  0
  189.1560  178.6610  147.5410 O   0  0  0  0  0  0  0  0  0  0  0  0
  188.8250  177.4490  147.4340 C   0  0  0  0  0  0  0  0  0  0  0  0
  189.7710  176.3880  147.6390 N   0  0  0  0  0  0  0  0  0  0  0  0
  190.9030  176.2050  147.0210 C   0  0  0  0  0  3  0  0  0  0  0  0
  191.8110  177.7730  145.1570 N   0  0  0  0  0  0  0  0  0  0  0  0
  191.4060  177.0760  145.9870 C   0  0  0  0  0  0  0  0  0  0  0  0
  1  3  2  0  0  0  0
  2  1  1  0  0  0  0
  2 24  1  0  0  0  0
  5  4  1  0  0  0  0
  5  1  1  0  0  0  0
  6  9  1  0  0  0  0
  7  5  2  0  0  0  0
  8  6  2  0  0  0  0
  8  7  1  0  0  0  0
  9  4  2  0  0  0  0
 11 10  1  0  0  0  0
 11  6  1  0  0  0  0
 12  2  1  0  0  0  0
 13 14  2  0  0  0  0
 14 12  1  0  0  0  0
 15 17  1  0  0  0  0
 16 15  2  0  0  0  0
 16 13  1  0  0  0  0
 17 12  2  0  0  0  0
 18 20  1  0  0  0  0
 19 18  2  0  0  0  0
 20 16  1  0  0  0  0
 22 23  1  0  0  0  0
 22 21  1  0  0  0  0
 23 21  1  0  0  0  0
 23 18  1  1  0  0  0
 24 26  1  0  0  0  0
 26 25  2  0  0  0  0
 26 27  1  0  0  0  0
 28 27  2  0  0  0  0
 29 30  3  0  0  0  0
 30 28  1  0  0  0  0
M  END
>  <MODEL>
1

>  <REMARK>
 VINA RESULT:      -7.4      0.000      0.000
  Name = 
  9 active torsions:
  status: ('A' for Active; 'I' for Inactive)
    1  A    between atoms: C_2  and  C_29
    2  A    between atoms: C_3  and  C_16
    3  A    between atoms: N_7  and  C_30
    4  A    between atoms: C_8  and  N_17
    5  A    between atoms: C_10  and  O_27
    6  A    between atoms: C_11  and  C_24
    7  A    between atoms: N_17  and  C_22
    8  A    between atoms: N_19  and  C_23
    9  A    between atoms: C_22  and  C_30
                            x       y       z     vdW  Elec       q    Type
                         _______ _______ _______ _____ _____    ______ ____

>  <TORSDO>
F 9

$$$$
=
 OpenBabel10232409193D

 30 32  0  0  1  0  0  0  0  0999 V2000
  187.7060  178.0370  146.6190 C   0  0  0  0  0  0  0  0  0  0  0  0
  188.8050  177.1790  146.2570 N   0  0  0  0  0  0  0  0  0  0  0  0
  187.7300  178.6350  147.7290 O   0  0  0  0  0  0  0  0  0  0  0  0
  186.6360  177.9230  144.3660 C   0  0  0  0  0  3  0  0  0  0  0  0
  186.5310  178.2010  145.7360 C   0  0  0  0  0  0  0  0  0  0  0  0
  184.3180  178.5510  144.0320 C   0  0  0  0  0  0  0  0  0  0  0  0
  185.3110  178.6700  146.2450 C   0  0  0  0  0  3  0  0  0  0  0  0
  184.2100  178.8410  145.4000 C   0  0  0  0  0  3  0  0  0  0  0  0
  185.5370  178.0930  143.5210 C   0  0  0  0  0  3  0  0  0  0  0  0
  183.3600  178.5630  141.7520 C   0  0  0  0  0  1  0  0  0  0  0  0
  183.2370  178.7110  143.1600 O   0  0  0  0  0  0  0  0  0  0  0  0
  189.4120  177.2260  144.9490 C   0  0  0  0  0  0  0  0  0  0  0  0
  190.6440  178.4290  143.2330 C   0  0  0  0  0  3  0  0  0  0  0  0
  190.0480  178.3910  144.4960 C   0  0  0  0  0  3  0  0  0  0  0  0
  189.9920  176.1330  142.8550 C   0  0  0  0  0  3  0  0  0  0  0  0
  190.6190  177.2990  142.4030 C   0  0  0  0  0  0  0  0  0  0  0  0
  189.3950  176.0940  144.1170 C   0  0  0  0  0  3  0  0  0  0  0  0
  190.5400  177.1670  139.8430 C   0  0  0  0  0  0  0  0  0  0  0  0
  189.2850  177.0620  139.7880 O   0  0  0  0  0  0  0  0  0  0  0  0
  191.2170  177.2990  141.1010 N   0  0  0  0  0  2  0  0  0  0  0  0
  192.6220  176.6920  138.8210 O   0  0  0  0  0  0  0  0  0  0  0  0
  191.7220  175.8200  138.1860 C   0  0  0  0  0  2  0  0  0  0  0  0
  191.3290  177.1920  138.5770 C   0  0  1  0  0  3  0  0  0  0  0  0
  189.3840  176.3220  147.2920 C   0  0  0  0  0  2  0  0  0  0  0  0
  191.1290  177.8460  147.8120 O   0  0  0  0  0  0  0  0  0  0  0  0
  190.8190  176.6630  147.5090 C   0  0  0  0  0  0  0  0  0  0  0  0
  191.8150  175.6420  147.3400 N   0  0  0  0  0  0  0  0  0  0  0  0
  192.9380  175.5150  147.9890 C   0  0  0  0  0  3  0  0  0  0  0  0
  193.7270  177.1460  149.8520 N   0  0  0  0  0  0  0  0  0  0  0  0
  193.3770  176.4190  149.0230 C   0  0  0  0  0  0  0  0  0  0  0  0
  1  3  2  0  0  0  0
  2  1  1  0  0  0  0
  2 24  1  0  0  0  0
  4  5  1  0  0  0  0
  5  7  2  0  0  0  0
  5  1  1  0  0  0  0
  6  8  2  0  0  0  0
  8  7  1  0  0  0  0
  9  6  1  0  0  0  0
  9  4  2  0  0  0  0
 10 11  1  0  0  0  0
 11  6  1  0  0  0  0
 12  2  1  0  0  0  0
 13 14  2  0  0  0  0
 14 12  1  0  0  0  0
 15 17  1  0  0  0  0
 16 15  2  0  0  0  0
 16 13  1  0  0  0  0
 17 12  2  0  0  0  0
 18 20  1  0  0  0  0
 19 18  2  0  0  0  0
 20 16  1  0  0  0  0
 22 23  1  0  0  0  0
 22 21  1  0  0  0  0
 23 21  1  0  0  0  0
 23 18  1  1  0  0  0
 24 26  1  0  0  0  0
 26 25  2  0  0  0  0
 27 26  1  0  0  0  0
 27 28  2  0  0  0  0
 28 30  1  0  0  0  0
 30 29  3  0  0  0  0
M  END
>  <MODEL>
2

>  <REMARK>
 VINA RESULT:      -6.9      1.695      2.272
  Name = 
  9 active torsions:
  status: ('A' for Active; 'I' for Inactive)
    1  A    between atoms: C_2  and  C_29
    2  A    between atoms: C_3  and  C_16
    3  A    between atoms: N_7  and  C_30
    4  A    between atoms: C_8  and  N_17
    5  A    between atoms: C_10  and  O_27
    6  A    between atoms: C_11  and  C_24
    7  A    between atoms: N_17  and  C_22
    8  A    between atoms: N_19  and  C_23
    9  A    between atoms: C_22  and  C_30
                            x       y       z     vdW  Elec       q    Type
                         _______ _______ _______ _____ _____    ______ ____

>  <TORSDO>
F 9

$$$$
=
 OpenBabel10232409193D

 30 32  0  0  1  0  0  0  0  0999 V2000
  189.1190  177.4180  141.0950 C   0  0  0  0  0  0  0  0  0  0  0  0
  189.7510  177.7910  139.8560 N   0  0  0  0  0  0  0  0  0  0  0  0
  187.8700  177.2520  141.1240 O   0  0  0  0  0  0  0  0  0  0  0  0
  190.4430  176.0180  142.6840 C   0  0  0  0  0  3  0  0  0  0  0  0
  189.8970  177.2640  142.3440 C   0  0  0  0  0  0  0  0  0  0  0  0
  191.3410  176.9400  144.7380 C   0  0  0  0  0  0  0  0  0  0  0  0
  190.0680  178.3450  143.2200 C   0  0  0  0  0  3  0  0  0  0  0  0
  190.7880  178.1870  144.4080 C   0  0  0  0  0  3  0  0  0  0  0  0
  191.1630  175.8590  143.8700 C   0  0  0  0  0  3  0  0  0  0  0  0
  191.4410  176.5160  147.1720 C   0  0  0  0  0  1  0  0  0  0  0  0
  192.0670  176.7480  145.9180 O   0  0  0  0  0  0  0  0  0  0  0  0
  190.9540  177.1470  139.3870 C   0  0  0  0  0  0  0  0  0  0  0  0
  193.3770  176.9590  139.3600 C   0  0  0  0  0  3  0  0  0  0  0  0
  192.2160  177.5930  139.8080 C   0  0  0  0  0  3  0  0  0  0  0  0
  192.0400  175.4110  138.0750 C   0  0  0  0  0  3  0  0  0  0  0  0
  193.2970  175.8630  138.4890 C   0  0  0  0  0  0  0  0  0  0  0  0
  190.8780  176.0440  138.5210 C   0  0  0  0  0  3  0  0  0  0  0  0
  195.2340  175.5230  136.8430 C   0  0  0  0  0  0  0  0  0  0  0  0
  194.9320  176.5160  136.1280 O   0  0  0  0  0  0  0  0  0  0  0  0
  194.4660  175.1880  138.0080 N   0  0  0  0  0  2  0  0  0  0  0  0
  197.5770  175.5240  136.5020 O   0  0  0  0  0  0  0  0  0  0  0  0
  197.3930  174.6890  137.6170 C   0  0  0  0  0  2  0  0  0  0  0  0
  196.4310  174.7050  136.4920 C   0  0  1  0  0  3  0  0  0  0  0  0
  189.0810  178.7750  139.0060 C   0  0  0  0  0  2  0  0  0  0  0  0
  189.2520  178.6640  136.6400 O   0  0  0  0  0  0  0  0  0  0  0  0
  188.7410  178.1770  137.6830 C   0  0  0  0  0  0  0  0  0  0  0  0
  187.8170  177.0780  137.6280 N   0  0  0  0  0  0  0  0  0  0  0  0
  186.5400  177.1020  137.8830 C   0  0  0  0  0  3  0  0  0  0  0  0
  185.2460  179.2400  138.6000 N   0  0  0  0  0  0  0  0  0  0  0  0
  185.8210  178.2870  138.2800 C   0  0  0  0  0  0  0  0  0  0  0  0
  1  3  2  0  0  0  0
  1  5  1  0  0  0  0
  2  1  1  0  0  0  0
  4  9  1  0  0  0  0
  5  4  2  0  0  0  0
  5  7  1  0  0  0  0
  6 11  1  0  0  0  0
  7  8  2  0  0  0  0
  8  6  1  0  0  0  0
  9  6  2  0  0  0  0
 11 10  1  0  0  0  0
 12 14  1  0  0  0  0
 12  2  1  0  0  0  0
 13 14  2  0  0  0  0
 15 16  2  0  0  0  0
 15 17  1  0  0  0  0
 16 13  1  0  0  0  0
 17 12  2  0  0  0  0
 18 20  1  0  0  0  0
 19 18  2  0  0  0  0
 20 16  1  0  0  0  0
 21 22  1  0  0  0  0
 23 21  1  0  0  0  0
 23 18  1  1  0  0  0
 23 22  1  0  0  0  0
 24  2  1  0  0  0  0
 25 26  2  0  0  0  0
 26 24  1  0  0  0  0
 27 26  1  0  0  0  0
 27 28  2  0  0  0  0
 28 30  1  0  0  0  0
 30 29  3  0  0  0  0
M  END
>  <MODEL>
3

>  <REMARK>
 VINA RESULT:      -6.3      4.331      7.867
  Name = 
  9 active torsions:
  status: ('A' for Active; 'I' for Inactive)
    1  A    between atoms: C_2  and  C_29
    2  A    between atoms: C_3  and  C_16
    3  A    between atoms: N_7  and  C_30
    4  A    between atoms: C_8  and  N_17
    5  A    between atoms: C_10  and  O_27
    6  A    between atoms: C_11  and  C_24
    7  A    between atoms: N_17  and  C_22
    8  A    between atoms: N_19  and  C_23
    9  A    between atoms: C_22  and  C_30
                            x       y       z     vdW  Elec       q    Type
                         _______ _______ _______ _____ _____    ______ ____

>  <TORSDO>
F 9

$$$$
=
 OpenBabel10232409193D

 30 32  0  0  1  0  0  0  0  0999 V2000
  189.3940  177.1770  140.5980 C   0  0  0  0  0  0  0  0  0  0  0  0
  188.9170  177.8870  141.7570 N   0  0  0  0  0  0  0  0  0  0  0  0
  190.2670  176.2780  140.7410 O   0  0  0  0  0  0  0  0  0  0  0  0
  188.1060  176.5970  138.5380 C   0  0  0  0  0  3  0  0  0  0  0  0
  188.9120  177.5060  139.2390 C   0  0  0  0  0  0  0  0  0  0  0  0
  188.0250  178.0940  136.6320 C   0  0  0  0  0  0  0  0  0  0  0  0
  189.2830  178.7070  138.6170 C   0  0  0  0  0  3  0  0  0  0  0  0
  188.8400  179.0030  137.3250 C   0  0  0  0  0  3  0  0  0  0  0  0
  187.6630  176.8910  137.2470 C   0  0  0  0  0  3  0  0  0  0  0  0
  186.4850  177.6460  134.7500 C   0  0  0  0  0  1  0  0  0  0  0  0
  187.5650  178.3580  135.3390 O   0  0  0  0  0  0  0  0  0  0  0  0
  187.5120  178.1260  141.9820 C   0  0  0  0  0  0  0  0  0  0  0  0
  185.4120  179.1560  141.3200 C   0  0  0  0  0  3  0  0  0  0  0  0
  186.7740  178.9360  141.1050 C   0  0  0  0  0  3  0  0  0  0  0  0
  185.4920  177.7500  143.2830 C   0  0  0  0  0  3  0  0  0  0  0  0
  184.7610  178.5640  142.4120 C   0  0  0  0  0  0  0  0  0  0  0  0
  186.8550  177.5300  143.0700 C   0  0  0  0  0  3  0  0  0  0  0  0
  182.2810  178.5190  141.7600 C   0  0  0  0  0  0  0  0  0  0  0  0
  182.4890  178.0470  140.6110 O   0  0  0  0  0  0  0  0  0  0  0  0
  183.3650  178.7680  142.6660 N   0  0  0  0  0  2  0  0  0  0  0  0
  180.7950  180.0930  142.7190 O   0  0  0  0  0  0  0  0  0  0  0  0
  180.2990  179.9030  141.4190 C   0  0  0  0  0  2  0  0  0  0  0  0
  180.8810  178.7880  142.1990 C   0  0  1  0  0  3  0  0  0  0  0  0
  189.8880  178.2700  142.7810 C   0  0  0  0  0  2  0  0  0  0  0  0
  190.2730  176.1260  143.7300 O   0  0  0  0  0  0  0  0  0  0  0  0
  189.8590  177.3020  143.9160 C   0  0  0  0  0  0  0  0  0  0  0  0
  189.3350  177.7250  145.1850 N   0  0  0  0  0  0  0  0  0  0  0  0
  189.8640  177.5440  146.3610 C   0  0  0  0  0  3  0  0  0  0  0  0
  192.1180  176.3120  146.7650 N   0  0  0  0  0  0  0  0  0  0  0  0
  191.1140  176.8590  146.5850 C   0  0  0  0  0  0  0  0  0  0  0  0
  1  3  2  0  0  0  0
  1  2  1  0  0  0  0
  2 12  1  0  0  0  0
  2 24  1  0  0  0  0
  4  5  1  0  0  0  0
  5  1  1  0  0  0  0
  6  9  1  0  0  0  0
  6  8  2  0  0  0  0
  7  5  2  0  0  0  0
  8  7  1  0  0  0  0
  9  4  2  0  0  0  0
 10 11  1  0  0  0  0
 11  6  1  0  0  0  0
 12 17  1  0  0  0  0
 13 16  2  0  0  0  0
 14 13  1  0  0  0  0
 14 12  2  0  0  0  0
 16 20  1  0  0  0  0
 16 15  1  0  0  0  0
 17 15  2  0  0  0  0
 18 20  1  0  0  0  0
 19 18  2  0  0  0  0
 22 23  1  0  0  0  0
 22 21  1  0  0  0  0
 23 18  1  6  0  0  0
 23 21  1  0  0  0  0
 24 26  1  0  0  0  0
 25 26  2  0  0  0  0
 26 27  1  0  0  0  0
 27 28  2  0  0  0  0
 28 30  1  0  0  0  0
 30 29  3  0  0  0  0
M  END
>  <MODEL>
4

>  <REMARK>
 VINA RESULT:      -6.2      2.470      6.655
  Name = 
  9 active torsions:
  status: ('A' for Active; 'I' for Inactive)
    1  A    between atoms: C_2  and  C_29
    2  A    between atoms: C_3  and  C_16
    3  A    between atoms: N_7  and  C_30
    4  A    between atoms: C_8  and  N_17
    5  A    between atoms: C_10  and  O_27
    6  A    between atoms: C_11  and  C_24
    7  A    between atoms: N_17  and  C_22
    8  A    between atoms: N_19  and  C_23
    9  A    between atoms: C_22  and  C_30
                            x       y       z     vdW  Elec       q    Type
                         _______ _______ _______ _____ _____    ______ ____

>  <TORSDO>
F 9

$$$$
=
 OpenBabel10232409193D

 30 32  0  0  1  0  0  0  0  0999 V2000
  186.3650  177.9500  144.7210 C   0  0  0  0  0  0  0  0  0  0  0  0
  186.4510  178.5030  143.3940 N   0  0  0  0  0  0  0  0  0  0  0  0
  185.2330  177.6730  145.2020 O   0  0  0  0  0  0  0  0  0  0  0  0
  188.8460  177.9640  145.0070 C   0  0  0  0  0  3  0  0  0  0  0  0
  187.5720  177.7360  145.5480 C   0  0  0  0  0  0  0  0  0  0  0  0
  189.8830  177.2900  147.0930 C   0  0  0  0  0  0  0  0  0  0  0  0
  187.4660  177.2680  146.8660 C   0  0  0  0  0  3  0  0  0  0  0  0
  188.6120  177.0500  147.6350 C   0  0  0  0  0  3  0  0  0  0  0  0
  189.9920  177.7460  145.7750 C   0  0  0  0  0  3  0  0  0  0  0  0
  191.9970  176.0750  147.5060 C   0  0  0  0  0  1  0  0  0  0  0  0
  191.0500  177.0820  147.8340 O   0  0  0  0  0  0  0  0  0  0  0  0
  187.4020  178.0170  142.4240 C   0  0  0  0  0  0  0  0  0  0  0  0
  188.5770  178.2620  140.3100 C   0  0  0  0  0  3  0  0  0  0  0  0
  187.6470  178.7310  141.2410 C   0  0  0  0  0  3  0  0  0  0  0  0
  189.0470  176.3650  141.7300 C   0  0  0  0  0  3  0  0  0  0  0  0
  189.2830  177.0750  140.5480 C   0  0  0  0  0  0  0  0  0  0  0  0
  188.1170  176.8320  142.6620 C   0  0  0  0  0  3  0  0  0  0  0  0
  191.6350  176.9030  139.5400 C   0  0  0  0  0  0  0  0  0  0  0  0
  192.1530  177.7110  140.3570 O   0  0  0  0  0  0  0  0  0  0  0  0
  190.2440  176.5620  139.6160 N   0  0  0  0  0  2  0  0  0  0  0  0
  191.7720  175.2330  137.8670 O   0  0  0  0  0  0  0  0  0  0  0  0
  191.8940  176.4390  137.1570 C   0  0  0  0  0  2  0  0  0  0  0  0
  192.4930  176.2640  138.5000 C   0  0  1  0  0  3  0  0  0  0  0  0
  185.4640  179.5070  142.9970 C   0  0  0  0  0  2  0  0  0  0  0  0
  183.1260  179.2180  143.3020 O   0  0  0  0  0  0  0  0  0  0  0  0
  184.1600  178.8590  142.6770 C   0  0  0  0  0  0  0  0  0  0  0  0
  184.1180  177.8220  141.6840 N   0  0  0  0  0  0  0  0  0  0  0  0
  184.1230  177.9630  140.3890 C   0  0  0  0  0  3  0  0  0  0  0  0
  184.2120  180.2620  139.1780 N   0  0  0  0  0  0  0  0  0  0  0  0
  184.1720  179.2390  139.7190 C   0  0  0  0  0  0  0  0  0  0  0  0
  1  3  2  0  0  0  0
  1  5  1  0  0  0  0
  2  1  1  0  0  0  0
  4  5  2  0  0  0  0
  4  9  1  0  0  0  0
  5  7  1  0  0  0  0
  6  8  1  0  0  0  0
  6 11  1  0  0  0  0
  7  8  2  0  0  0  0
  9  6  2  0  0  0  0
 10 11  1  0  0  0  0
 12 17  1  0  0  0  0
 12  2  1  0  0  0  0
 13 16  2  0  0  0  0
 13 14  1  0  0  0  0
 14 12  2  0  0  0  0
 15 17  2  0  0  0  0
 16 15  1  0  0  0  0
 18 20  1  0  0  0  0
 18 19  2  0  0  0  0
 20 16  1  0  0  0  0
 21 23  1  0  0  0  0
 22 21  1  0  0  0  0
 22 23  1  0  0  0  0
 23 18  1  1  0  0  0
 24  2  1  0  0  0  0
 26 24  1  0  0  0  0
 26 25  2  0  0  0  0
 27 26  1  0  0  0  0
 28 27  2  0  0  0  0
 29 30  3  0  0  0  0
 30 28  1  0  0  0  0
M  END
>  <MODEL>
5

>  <REMARK>
 VINA RESULT:      -6.2      2.311      5.991
  Name = 
  9 active torsions:
  status: ('A' for Active; 'I' for Inactive)
    1  A    between atoms: C_2  and  C_29
    2  A    between atoms: C_3  and  C_16
    3  A    between atoms: N_7  and  C_30
    4  A    between atoms: C_8  and  N_17
    5  A    between atoms: C_10  and  O_27
    6  A    between atoms: C_11  and  C_24
    7  A    between atoms: N_17  and  C_22
    8  A    between atoms: N_19  and  C_23
    9  A    between atoms: C_22  and  C_30
                            x       y       z     vdW  Elec       q    Type
                         _______ _______ _______ _____ _____    ______ ____

>  <TORSDO>
F 9

$$$$
=
 OpenBabel10232409193D

 30 32  0  0  1  0  0  0  0  0999 V2000
  187.0280  177.8420  143.9410 C   0  0  0  0  0  0  0  0  0  0  0  0
  187.1100  178.4230  142.6260 N   0  0  0  0  0  0  0  0  0  0  0  0
  185.9000  177.5280  144.4080 O   0  0  0  0  0  0  0  0  0  0  0  0
  188.1200  177.0820  146.0550 C   0  0  0  0  0  3  0  0  0  0  0  0
  188.2340  177.6420  144.7740 C   0  0  0  0  0  0  0  0  0  0  0  0
  190.5120  177.2960  146.3910 C   0  0  0  0  0  0  0  0  0  0  0  0
  189.4980  178.0410  144.3150 C   0  0  0  0  0  3  0  0  0  0  0  0
  190.6300  177.8660  145.1150 C   0  0  0  0  0  3  0  0  0  0  0  0
  189.2510  176.9060  146.8550 C   0  0  0  0  0  3  0  0  0  0  0  0
  192.2350  175.8370  147.4010 C   0  0  0  0  0  1  0  0  0  0  0  0
  191.6240  177.1070  147.2170 O   0  0  0  0  0  0  0  0  0  0  0  0
  188.0800  177.9800  141.6540 C   0  0  0  0  0  0  0  0  0  0  0  0
  189.7360  176.3660  140.9070 C   0  0  0  0  0  3  0  0  0  0  0  0
  188.8060  176.7970  141.8550 C   0  0  0  0  0  3  0  0  0  0  0  0
  189.2240  178.2840  139.5300 C   0  0  0  0  0  3  0  0  0  0  0  0
  189.9520  177.1080  139.7370 C   0  0  0  0  0  0  0  0  0  0  0  0
  188.2940  178.7160  140.4780 C   0  0  0  0  0  3  0  0  0  0  0  0
  192.3280  176.8040  138.8190 C   0  0  0  0  0  0  0  0  0  0  0  0
  192.8910  177.2670  139.8470 O   0  0  0  0  0  0  0  0  0  0  0  0
  190.8990  176.6990  138.7410 N   0  0  0  0  0  2  0  0  0  0  0  0
  194.3120  175.6800  138.1820 O   0  0  0  0  0  0  0  0  0  0  0  0
  193.2820  174.8460  137.7170 C   0  0  0  0  0  2  0  0  0  0  0  0
  193.1630  176.3210  137.6810 C   0  0  1  0  0  3  0  0  0  0  0  0
  186.1010  179.4100  142.2420 C   0  0  0  0  0  2  0  0  0  0  0  0
  184.4240  177.8330  141.6590 O   0  0  0  0  0  0  0  0  0  0  0  0
  185.1240  178.8130  141.2880 C   0  0  0  0  0  0  0  0  0  0  0  0
  185.0230  179.3510  139.9600 N   0  0  0  0  0  0  0  0  0  0  0  0
  183.9370  179.5710  139.2740 C   0  0  0  0  0  3  0  0  0  0  0  0
  181.5400  179.0800  140.1510 N   0  0  0  0  0  0  0  0  0  0  0  0
  182.6080  179.2970  139.7610 C   0  0  0  0  0  0  0  0  0  0  0  0
  1  3  2  0  0  0  0
  1  5  1  0  0  0  0
  2  1  1  0  0  0  0
  4  9  1  0  0  0  0
  5  4  2  0  0  0  0
  6  9  2  0  0  0  0
  6 11  1  0  0  0  0
  7  5  1  0  0  0  0
  7  8  2  0  0  0  0
  8  6  1  0  0  0  0
 11 10  1  0  0  0  0
 12 14  1  0  0  0  0
 12  2  1  0  0  0  0
 13 14  2  0  0  0  0
 15 16  2  0  0  0  0
 15 17  1  0  0  0  0
 16 13  1  0  0  0  0
 17 12  2  0  0  0  0
 18 19  2  0  0  0  0
 20 18  1  0  0  0  0
 20 16  1  0  0  0  0
 22 21  1  0  0  0  0
 23 22  1  0  0  0  0
 23 21  1  0  0  0  0
 23 18  1  1  0  0  0
 24  2  1  0  0  0  0
 26 25  2  0  0  0  0
 26 24  1  0  0  0  0
 27 26  1  0  0  0  0
 28 30  1  0  0  0  0
 28 27  2  0  0  0  0
 30 29  3  0  0  0  0
M  END
>  <MODEL>
6

>  <REMARK>
 VINA RESULT:      -6.1      2.747      6.551
  Name = 
  9 active torsions:
  status: ('A' for Active; 'I' for Inactive)
    1  A    between atoms: C_2  and  C_29
    2  A    between atoms: C_3  and  C_16
    3  A    between atoms: N_7  and  C_30
    4  A    between atoms: C_8  and  N_17
    5  A    between atoms: C_10  and  O_27
    6  A    between atoms: C_11  and  C_24
    7  A    between atoms: N_17  and  C_22
    8  A    between atoms: N_19  and  C_23
    9  A    between atoms: C_22  and  C_30
                            x       y       z     vdW  Elec       q    Type
                         _______ _______ _______ _____ _____    ______ ____

>  <TORSDO>
F 9

$$$$
=
 OpenBabel10232409193D

 30 32  0  0  1  0  0  0  0  0999 V2000
  189.0470  177.4800  141.0850 C   0  0  0  0  0  0  0  0  0  0  0  0
  189.6830  177.8220  139.8380 N   0  0  0  0  0  0  0  0  0  0  0  0
  187.7970  177.3210  141.1170 O   0  0  0  0  0  0  0  0  0  0  0  0
  190.2880  176.0950  142.7520 C   0  0  0  0  0  3  0  0  0  0  0  0
  189.8240  177.3520  142.3380 C   0  0  0  0  0  0  0  0  0  0  0  0
  191.2620  177.0800  144.7420 C   0  0  0  0  0  0  0  0  0  0  0  0
  190.0730  178.4710  143.1460 C   0  0  0  0  0  3  0  0  0  0  0  0
  190.7900  178.3380  144.3380 C   0  0  0  0  0  3  0  0  0  0  0  0
  191.0050  175.9610  143.9430 C   0  0  0  0  0  3  0  0  0  0  0  0
  191.4370  176.2660  147.0710 C   0  0  0  0  0  1  0  0  0  0  0  0
  191.9820  176.9130  145.9280 O   0  0  0  0  0  0  0  0  0  0  0  0
  190.8830  177.1600  139.3860 C   0  0  0  0  0  0  0  0  0  0  0  0
  193.3040  176.9440  139.3870 C   0  0  0  0  0  3  0  0  0  0  0  0
  192.1460  177.5940  139.8180 C   0  0  0  0  0  3  0  0  0  0  0  0
  191.9630  175.4050  138.0940 C   0  0  0  0  0  3  0  0  0  0  0  0
  193.2200  175.8440  138.5210 C   0  0  0  0  0  0  0  0  0  0  0  0
  190.8030  176.0550  138.5240 C   0  0  0  0  0  3  0  0  0  0  0  0
  195.1930  175.4960  136.9200 C   0  0  0  0  0  0  0  0  0  0  0  0
  194.9350  176.5120  136.2200 O   0  0  0  0  0  0  0  0  0  0  0  0
  194.3860  175.1530  138.0550 N   0  0  0  0  0  2  0  0  0  0  0  0
  197.5330  175.4660  136.5630 O   0  0  0  0  0  0  0  0  0  0  0  0
  197.3510  174.6630  137.7010 C   0  0  0  0  0  2  0  0  0  0  0  0
  196.3810  174.6580  136.5830 C   0  0  1  0  0  3  0  0  0  0  0  0
  189.0180  178.7890  138.9650 C   0  0  0  0  0  2  0  0  0  0  0  0
  189.0840  178.3880  136.6250 O   0  0  0  0  0  0  0  0  0  0  0  0
  188.5290  178.1210  137.7250 C   0  0  0  0  0  0  0  0  0  0  0  0
  187.4190  177.2130  137.8080 N   0  0  0  0  0  0  0  0  0  0  0  0
  187.2570  176.0980  137.1550 C   0  0  0  0  0  3  0  0  0  0  0  0
  188.9680  175.1630  135.4360 N   0  0  0  0  0  0  0  0  0  0  0  0
  188.2060  175.5780  136.2010 C   0  0  0  0  0  0  0  0  0  0  0  0
  1  3  2  0  0  0  0
  1  5  1  0  0  0  0
  2  1  1  0  0  0  0
  4  9  1  0  0  0  0
  5  4  2  0  0  0  0
  5  7  1  0  0  0  0
  6 11  1  0  0  0  0
  7  8  2  0  0  0  0
  8  6  1  0  0  0  0
  9  6  2  0  0  0  0
 11 10  1  0  0  0  0
 12 14  1  0  0  0  0
 12  2  1  0  0  0  0
 13 14  2  0  0  0  0
 15 16  2  0  0  0  0
 15 17  1  0  0  0  0
 16 13  1  0  0  0  0
 17 12  2  0  0  0  0
 18 20  1  0  0  0  0
 19 18  2  0  0  0  0
 20 16  1  0  0  0  0
 21 23  1  0  0  0  0
 21 22  1  0  0  0  0
 23 18  1  1  0  0  0
 23 22  1  0  0  0  0
 24  2  1  0  0  0  0
 25 26  2  0  0  0  0
 26 27  1  0  0  0  0
 26 24  1  0  0  0  0
 28 27  2  0  0  0  0
 29 30  3  0  0  0  0
 30 28  1  0  0  0  0
M  END
>  <MODEL>
7

>  <REMARK>
 VINA RESULT:      -6.0      4.545      7.915
  Name = 
  9 active torsions:
  status: ('A' for Active; 'I' for Inactive)
    1  A    between atoms: C_2  and  C_29
    2  A    between atoms: C_3  and  C_16
    3  A    between atoms: N_7  and  C_30
    4  A    between atoms: C_8  and  N_17
    5  A    between atoms: C_10  and  O_27
    6  A    between atoms: C_11  and  C_24
    7  A    between atoms: N_17  and  C_22
    8  A    between atoms: N_19  and  C_23
    9  A    between atoms: C_22  and  C_30
                            x       y       z     vdW  Elec       q    Type
                         _______ _______ _______ _____ _____    ______ ____

>  <TORSDO>
F 9

$$$$
=
 OpenBabel10232409193D

 30 32  0  0  1  0  0  0  0  0999 V2000
  189.0410  177.7190  140.0780 C   0  0  0  0  0  0  0  0  0  0  0  0
  189.6360  177.7450  138.7660 N   0  0  0  0  0  0  0  0  0  0  0  0
  187.8500  178.1050  140.2220 O   0  0  0  0  0  0  0  0  0  0  0  0
  189.1890  176.5260  142.2670 C   0  0  0  0  0  3  0  0  0  0  0  0
  189.8090  177.2880  141.2660 C   0  0  0  0  0  0  0  0  0  0  0  0
  191.2420  176.4990  143.5580 C   0  0  0  0  0  0  0  0  0  0  0  0
  191.1500  177.6640  141.4290 C   0  0  0  0  0  3  0  0  0  0  0  0
  191.8640  177.2700  142.5640 C   0  0  0  0  0  3  0  0  0  0  0  0
  189.9010  176.1310  143.4020 C   0  0  0  0  0  3  0  0  0  0  0  0
  191.6050  176.5690  146.0020 C   0  0  0  0  0  1  0  0  0  0  0  0
  191.9260  176.0870  144.7050 O   0  0  0  0  0  0  0  0  0  0  0  0
  190.3960  176.6320  138.2500 C   0  0  0  0  0  0  0  0  0  0  0  0
  192.5280  175.6090  137.6870 C   0  0  0  0  0  3  0  0  0  0  0  0
  191.7950  176.6930  138.1770 C   0  0  0  0  0  3  0  0  0  0  0  0
  190.4790  174.3750  137.3480 C   0  0  0  0  0  3  0  0  0  0  0  0
  191.8730  174.4420  137.2680 C   0  0  0  0  0  0  0  0  0  0  0  0
  189.7450  175.4580  137.8370 C   0  0  0  0  0  3  0  0  0  0  0  0
  192.8370  172.9980  135.3800 C   0  0  0  0  0  0  0  0  0  0  0  0
  192.4390  173.7610  134.4590 O   0  0  0  0  0  0  0  0  0  0  0  0
  192.5900  173.3100  136.7590 N   0  0  0  0  0  2  0  0  0  0  0  0
  193.5030  170.8360  136.0790 O   0  0  0  0  0  0  0  0  0  0  0  0
  192.7080  170.6000  134.9450 C   0  0  0  0  0  2  0  0  0  0  0  0
  193.6100  171.7700  135.0320 C   0  0  1  0  0  3  0  0  0  0  0  0
  189.3580  178.8920  137.9030 C   0  0  0  0  0  2  0  0  0  0  0  0
  188.7160  178.0520  135.7760 O   0  0  0  0  0  0  0  0  0  0  0  0
  188.3370  178.5370  136.8760 C   0  0  0  0  0  0  0  0  0  0  0  0
  186.9490  178.7820  137.1530 N   0  0  0  0  0  0  0  0  0  0  0  0
  185.9940  177.9020  137.2580 C   0  0  0  0  0  3  0  0  0  0  0  0
  186.3460  175.3420  136.9760 N   0  0  0  0  0  0  0  0  0  0  0  0
  186.1880  176.4810  137.1030 C   0  0  0  0  0  0  0  0  0  0  0  0
  1  3  2  0  0  0  0
  1  5  1  0  0  0  0
  2  1  1  0  0  0  0
  4  9  1  0  0  0  0
  5  7  1  0  0  0  0
  5  4  2  0  0  0  0
  6 11  1  0  0  0  0
  7  8  2  0  0  0  0
  8  6  1  0  0  0  0
  9  6  2  0  0  0  0
 11 10  1  0  0  0  0
 12  2  1  0  0  0  0
 13 14  2  0  0  0  0
 14 12  1  0  0  0  0
 15 17  1  0  0  0  0
 16 15  2  0  0  0  0
 16 13  1  0  0  0  0
 17 12  2  0  0  0  0
 18 20  1  0  0  0  0
 19 18  2  0  0  0  0
 20 16  1  0  0  0  0
 22 23  1  0  0  0  0
 22 21  1  0  0  0  0
 23 18  1  1  0  0  0
 23 21  1  0  0  0  0
 24  2  1  0  0  0  0
 25 26  2  0  0  0  0
 26 27  1  0  0  0  0
 26 24  1  0  0  0  0
 27 28  2  0  0  0  0
 29 30  3  0  0  0  0
 30 28  1  0  0  0  0
M  END
>  <MODEL>
8

>  <REMARK>
 VINA RESULT:      -5.9      4.742      8.251
  Name = 
  9 active torsions:
  status: ('A' for Active; 'I' for Inactive)
    1  A    between atoms: C_2  and  C_29
    2  A    between atoms: C_3  and  C_16
    3  A    between atoms: N_7  and  C_30
    4  A    between atoms: C_8  and  N_17
    5  A    between atoms: C_10  and  O_27
    6  A    between atoms: C_11  and  C_24
    7  A    between atoms: N_17  and  C_22
    8  A    between atoms: N_19  and  C_23
    9  A    between atoms: C_22  and  C_30
                            x       y       z     vdW  Elec       q    Type
                         _______ _______ _______ _____ _____    ______ ____

>  <TORSDO>
F 9

$$$$
=
 OpenBabel10232409193D

 30 32  0  0  1  0  0  0  0  0999 V2000
  185.9190  178.5320  144.5850 C   0  0  0  0  0  0  0  0  0  0  0  0
  187.0840  177.7320  144.3060 N   0  0  0  0  0  0  0  0  0  0  0  0
  185.8830  179.2230  145.6390 O   0  0  0  0  0  0  0  0  0  0  0  0
  184.8840  178.1130  142.3510 C   0  0  0  0  0  3  0  0  0  0  0  0
  184.7470  178.5300  143.6830 C   0  0  0  0  0  0  0  0  0  0  0  0
  182.5370  178.5630  141.9390 C   0  0  0  0  0  0  0  0  0  0  0  0
  183.4950  178.9780  144.1310 C   0  0  0  0  0  3  0  0  0  0  0  0
  182.3970  178.9910  143.2670 C   0  0  0  0  0  3  0  0  0  0  0  0
  183.7870  178.1260  141.4870 C   0  0  0  0  0  3  0  0  0  0  0  0
  181.5810  178.9860  139.6980 C   0  0  0  0  0  1  0  0  0  0  0  0
  181.4590  178.5640  141.0490 O   0  0  0  0  0  0  0  0  0  0  0  0
  187.7030  177.7130  143.0030 C   0  0  0  0  0  0  0  0  0  0  0  0
  188.1710  178.7810  140.8700 C   0  0  0  0  0  3  0  0  0  0  0  0
  187.5610  178.8000  142.1260 C   0  0  0  0  0  3  0  0  0  0  0  0
  189.0900  176.5980  141.3450 C   0  0  0  0  0  3  0  0  0  0  0  0
  188.9390  177.6790  140.4700 C   0  0  0  0  0  0  0  0  0  0  0  0
  188.4790  176.6140  142.6010 C   0  0  0  0  0  3  0  0  0  0  0  0
  189.0080  177.1420  137.9630 C   0  0  0  0  0  0  0  0  0  0  0  0
  187.8170  176.7340  137.9160 O   0  0  0  0  0  0  0  0  0  0  0  0
  189.5790  177.6230  139.1880 N   0  0  0  0  0  2  0  0  0  0  0  0
  191.0870  176.5940  136.9730 O   0  0  0  0  0  0  0  0  0  0  0  0
  190.1620  175.7820  136.2960 C   0  0  0  0  0  2  0  0  0  0  0  0
  189.8260  177.1620  136.7150 C   0  0  1  0  0  3  0  0  0  0  0  0
  187.7110  177.0130  145.4140 C   0  0  0  0  0  2  0  0  0  0  0  0
  189.6000  178.4350  145.1810 O   0  0  0  0  0  0  0  0  0  0  0  0
  188.8490  177.8020  145.9700 C   0  0  0  0  0  0  0  0  0  0  0  0
  189.0770  177.7980  147.3880 N   0  0  0  0  0  0  0  0  0  0  0  0
  190.1170  177.3360  148.0220 C   0  0  0  0  0  3  0  0  0  0  0  0
  192.1610  176.2400  146.8480 N   0  0  0  0  0  0  0  0  0  0  0  0
  191.2520  176.7280  147.3720 C   0  0  0  0  0  0  0  0  0  0  0  0
  1  3  2  0  0  0  0
  2  1  1  0  0  0  0
  2 24  1  0  0  0  0
  4  5  1  0  0  0  0
  5  7  2  0  0  0  0
  5  1  1  0  0  0  0
  6  8  2  0  0  0  0
  8  7  1  0  0  0  0
  9  6  1  0  0  0  0
  9  4  2  0  0  0  0
 10 11  1  0  0  0  0
 11  6  1  0  0  0  0
 12  2  1  0  0  0  0
 13 14  1  0  0  0  0
 14 12  2  0  0  0  0
 15 17  2  0  0  0  0
 16 13  2  0  0  0  0
 16 15  1  0  0  0  0
 17 12  1  0  0  0  0
 18 20  1  0  0  0  0
 19 18  2  0  0  0  0
 20 16  1  0  0  0  0
 22 23  1  0  0  0  0
 22 21  1  0  0  0  0
 23 21  1  0  0  0  0
 23 18  1  1  0  0  0
 24 26  1  0  0  0  0
 25 26  2  0  0  0  0
 26 27  1  0  0  0  0
 27 28  2  0  0  0  0
 29 30  3  0  0  0  0
 30 28  1  0  0  0  0
M  END
>  <MODEL>
9

>  <REMARK>
 VINA RESULT:      -5.8      1.584      1.953
  Name = 
  9 active torsions:
  status: ('A' for Active; 'I' for Inactive)
    1  A    between atoms: C_2  and  C_29
    2  A    between atoms: C_3  and  C_16
    3  A    between atoms: N_7  and  C_30
    4  A    between atoms: C_8  and  N_17
    5  A    between atoms: C_10  and  O_27
    6  A    between atoms: C_11  and  C_24
    7  A    between atoms: N_17  and  C_22
    8  A    between atoms: N_19  and  C_23
    9  A    between atoms: C_22  and  C_30
                            x       y       z     vdW  Elec       q    Type
                         _______ _______ _______ _____ _____    ______ ____

>  <TORSDO>
F 9

$$$$
