=
 OpenBabel10222421453D

 31 35  0  0  1  0  0  0  0  0999 V2000
  191.4410  177.7260  140.8270 C   0  0  2  0  0  3  0  0  0  0  0  0
  189.7860  177.3210  140.1080 S   0  0  0  0  0  0  0  0  0  0  0  0
  192.4680  177.0850  140.0120 N   0  0  0  0  0  2  0  0  0  0  0  0
  191.9090  176.3070  138.9710 C   0  0  2  0  0  3  0  0  0  0  0  0
  192.5460  176.0040  137.6580 C   0  0  2  0  0  3  0  0  0  0  0  0
  190.6140  176.3440  138.8750 C   0  0  2  0  0  3  0  0  0  0  0  0
  191.3440  175.8180  136.8160 C   0  0  1  0  0  3  0  0  0  0  0  0
  192.8390  174.0810  136.3790 C   0  0  0  0  0  2  0  0  0  0  0  0
  191.5040  174.6610  135.9220 C   0  0  0  0  0  2  0  0  0  0  0  0
  190.2290  176.0850  137.5000 C   0  0  1  0  0  3  0  0  0  0  0  0
  193.2120  174.7060  137.6570 N   0  0  1  0  0  0  0  0  0  0  0  0
  195.3040  174.2640  138.7600 C   0  0  0  0  0  2  0  0  0  0  0  0
  195.3190  173.7200  137.4650 O   0  0  0  0  0  0  0  0  0  0  0  0
  194.6470  174.9470  137.6220 C   0  0  1  0  0  3  0  0  0  0  0  0
  188.9030  175.6960  137.1210 N   0  0  0  0  0  2  0  0  0  0  0  0
  188.0360  176.4400  136.2550 C   0  0  0  0  0  0  0  0  0  0  0  0
  186.9390  175.9300  135.9070 O   0  0  0  0  0  0  0  0  0  0  0  0
  188.3610  177.8510  135.8610 C   0  0  0  0  0  2  0  0  0  0  0  0
  188.9510  179.5940  137.3880 O   0  0  0  0  0  0  0  0  0  0  0  0
  186.7870  178.8470  137.5220 O   0  0  0  0  0  1  0  0  0  0  0  0
  188.0560  178.8200  136.9570 C   0  0  0  0  0  0  0  0  0  0  0  0
  191.5320  177.2200  142.2280 C   0  0  0  0  0  3  0  0  0  0  0  0
  190.6640  177.5740  143.1020 N   0  0  0  0  0  0  0  0  0  0  0  0
  190.7660  177.0840  144.4490 C   0  0  0  0  0  2  0  0  0  0  0  0
  187.0510  177.4620  145.0800 C   0  0  0  0  0  3  0  0  0  0  0  0
  188.2190  177.6290  147.1960 C   0  0  0  0  0  0  0  0  0  0  0  0
  188.2710  177.2740  144.4210 C   0  0  0  0  0  3  0  0  0  0  0  0
  188.1940  177.8090  148.6070 N   0  0  0  0  0  1  0  0  0  0  0  0
  189.4650  177.2640  145.1500 C   0  0  0  0  0  0  0  0  0  0  0  0
  187.0260  177.6400  146.4670 C   0  0  0  0  0  3  0  0  0  0  0  0
  189.4390  177.4450  146.5380 C   0  0  0  0  0  3  0  0  0  0  0  0
  1 22  1  1  0  0  0
  2  1  1  0  0  0  0
  3  1  1  0  0  0  0
  4  3  1  6  0  0  0
  5  4  1  0  0  0  0
  6  4  1  0  0  0  0
  6  2  1  0  0  0  0
  7 10  1  0  0  0  0
  7  5  1  0  0  0  0
  8 11  1  0  0  0  0
  9  8  1  0  0  0  0
  9  7  1  0  0  0  0
 10  6  1  0  0  0  0
 11  5  1  0  0  0  0
 13 14  1  0  0  0  0
 13 12  1  0  0  0  0
 14 11  1  0  0  0  0
 14 12  1  0  0  0  0
 15 10  1  0  0  0  0
 16 15  1  0  0  0  0
 17 16  2  0  0  0  0
 18 16  1  0  0  0  0
 18 21  1  0  0  0  0
 21 19  2  0  0  0  0
 21 20  1  0  0  0  0
 22 23  2  0  0  0  0
 23 24  1  0  0  0  0
 24 29  1  0  0  0  0
 25 30  1  0  0  0  0
 26 28  1  0  0  0  0
 27 25  2  0  0  0  0
 27 29  1  0  0  0  0
 29 31  2  0  0  0  0
 30 26  2  0  0  0  0
 31 26  1  0  0  0  0
M  END
>  <MODEL>
1

>  <REMARK>
 VINA RESULT:      -7.7      0.000      0.000
  Name = 
  7 active torsions:
  status: ('A' for Active; 'I' for Inactive)
    1  A    between atoms: C_1  and  C_15
    2  A    between atoms: C_6  and  C_16
    3  A    between atoms: C_6  and  N_21
    4  A    between atoms: N_13  and  C_27
    5  A    between atoms: C_14  and  C_28
    6  A    between atoms: C_24  and  N_31
    7  A    between atoms: C_28  and  C_29
                            x       y       z     vdW  Elec       q    Type
                         _______ _______ _______ _____ _____    ______ ____

>  <TORSDO>
F 7

$$$$
=
 OpenBabel10222421453D

 31 35  0  0  1  0  0  0  0  0999 V2000
  189.0180  178.4770  138.9550 C   0  0  2  0  0  3  0  0  0  0  0  0
  190.2380  177.2620  139.6290 S   0  0  0  0  0  0  0  0  0  0  0  0
  187.9980  178.7190  139.9700 N   0  0  0  0  0  2  0  0  0  0  0  0
  188.1990  177.9260  141.1230 C   0  0  2  0  0  3  0  0  0  0  0  0
  187.7840  178.2690  142.5130 C   0  0  2  0  0  3  0  0  0  0  0  0
  189.2650  177.1830  141.1160 C   0  0  2  0  0  3  0  0  0  0  0  0
  188.7960  177.5190  143.2870 C   0  0  1  0  0  3  0  0  0  0  0  0
  186.6970  177.1330  144.2310 C   0  0  0  0  0  2  0  0  0  0  0  0
  188.1810  176.8440  144.4400 C   0  0  0  0  0  2  0  0  0  0  0  0
  189.6950  176.9490  142.4810 C   0  0  1  0  0  3  0  0  0  0  0  0
  186.5070  177.6600  142.8710 N   0  0  1  0  0  0  0  0  0  0  0  0
  184.2950  178.3370  142.2070 C   0  0  0  0  0  2  0  0  0  0  0  0
  184.3700  178.2420  143.6060 O   0  0  0  0  0  0  0  0  0  0  0  0
  185.5170  178.7250  142.9500 C   0  0  1  0  0  3  0  0  0  0  0  0
  190.5970  175.8970  142.8470 N   0  0  0  0  0  2  0  0  0  0  0  0
  191.4490  175.8980  143.9990 C   0  0  0  0  0  0  0  0  0  0  0  0
  192.1080  174.8590  144.2700 O   0  0  0  0  0  0  0  0  0  0  0  0
  191.6570  177.1450  144.8070 C   0  0  0  0  0  2  0  0  0  0  0  0
  190.3350  177.2630  146.7950 O   0  0  0  0  0  0  0  0  0  0  0  0
  192.4150  176.3300  147.0400 O   0  0  0  0  0  1  0  0  0  0  0  0
  191.4210  176.9120  146.2640 C   0  0  0  0  0  0  0  0  0  0  0  0
  188.3740  177.9310  137.7250 C   0  0  0  0  0  3  0  0  0  0  0  0
  187.8900  176.7450  137.7190 N   0  0  0  0  0  0  0  0  0  0  0  0
  187.2760  176.2290  136.5260 C   0  0  0  0  0  2  0  0  0  0  0  0
  185.9460  172.7770  137.3370 C   0  0  0  0  0  3  0  0  0  0  0  0
  184.0980  174.3450  137.3520 C   0  0  0  0  0  0  0  0  0  0  0  0
  186.8270  173.8190  137.0260 C   0  0  0  0  0  3  0  0  0  0  0  0
  182.7110  174.6140  137.5170 N   0  0  0  0  0  1  0  0  0  0  0  0
  186.3440  175.1230  136.8770 C   0  0  0  0  0  0  0  0  0  0  0  0
  184.5820  173.0410  137.4990 C   0  0  0  0  0  3  0  0  0  0  0  0
  184.9780  175.3850  137.0360 C   0  0  0  0  0  3  0  0  0  0  0  0
  1 22  1  6  0  0  0
  1  2  1  0  0  0  0
  1  3  1  0  0  0  0
  2  6  1  0  0  0  0
  4  3  1  6  0  0  0
  4  5  1  0  0  0  0
  5 11  1  0  0  0  0
  5  7  1  0  0  0  0
  6  4  1  0  0  0  0
  6 10  1  0  0  0  0
  7  9  1  0  0  0  0
  8  9  1  0  0  0  0
 10 15  1  0  0  0  0
 10  7  1  0  0  0  0
 11 14  1  0  0  0  0
 11  8  1  0  0  0  0
 12 14  1  0  0  0  0
 12 13  1  0  0  0  0
 14 13  1  0  0  0  0
 15 16  1  0  0  0  0
 16 17  2  0  0  0  0
 16 18  1  0  0  0  0
 18 21  1  0  0  0  0
 21 19  2  0  0  0  0
 21 20  1  0  0  0  0
 23 22  2  0  0  0  0
 24 29  1  0  0  0  0
 24 23  1  0  0  0  0
 25 30  1  0  0  0  0
 26 30  2  0  0  0  0
 26 28  1  0  0  0  0
 27 25  2  0  0  0  0
 29 27  1  0  0  0  0
 29 31  2  0  0  0  0
 31 26  1  0  0  0  0
M  END
>  <MODEL>
2

>  <REMARK>
 VINA RESULT:      -7.7      4.270      8.859
  Name = 
  7 active torsions:
  status: ('A' for Active; 'I' for Inactive)
    1  A    between atoms: C_1  and  C_15
    2  A    between atoms: C_6  and  C_16
    3  A    between atoms: C_6  and  N_21
    4  A    between atoms: N_13  and  C_27
    5  A    between atoms: C_14  and  C_28
    6  A    between atoms: C_24  and  N_31
    7  A    between atoms: C_28  and  C_29
                            x       y       z     vdW  Elec       q    Type
                         _______ _______ _______ _____ _____    ______ ____

>  <TORSDO>
F 7

$$$$
=
 OpenBabel10222421453D

 31 35  0  0  1  0  0  0  0  0999 V2000
  189.0730  176.5360  142.3610 C   0  0  2  0  0  3  0  0  0  0  0  0
  187.6560  177.7210  142.4160 S   0  0  0  0  0  0  0  0  0  0  0  0
  189.5730  176.3480  143.7200 N   0  0  0  0  0  2  0  0  0  0  0  0
  188.8840  177.1580  144.6530 C   0  0  2  0  0  3  0  0  0  0  0  0
  188.6800  176.8570  146.0980 C   0  0  2  0  0  3  0  0  0  0  0  0
  187.9060  177.8630  144.1710 C   0  0  2  0  0  3  0  0  0  0  0  0
  187.4190  177.5880  146.3470 C   0  0  1  0  0  3  0  0  0  0  0  0
  188.9110  178.0640  148.0760 C   0  0  0  0  0  2  0  0  0  0  0  0
  187.4730  178.3060  147.6290 C   0  0  0  0  0  2  0  0  0  0  0  0
  186.9330  178.1100  145.2180 C   0  0  1  0  0  3  0  0  0  0  0  0
  189.6710  177.5160  146.9420 N   0  0  1  0  0  0  0  0  0  0  0  0
  191.7950  176.4230  146.6550 C   0  0  0  0  0  2  0  0  0  0  0  0
  191.7590  177.0860  147.8930 O   0  0  0  0  0  0  0  0  0  0  0  0
  190.5580  176.4880  147.4670 C   0  0  1  0  0  3  0  0  0  0  0  0
  185.9380  179.1370  145.1340 N   0  0  0  0  0  2  0  0  0  0  0  0
  184.7850  179.1090  144.2830 C   0  0  0  0  0  0  0  0  0  0  0  0
  183.9260  180.0230  144.3910 O   0  0  0  0  0  0  0  0  0  0  0  0
  184.6510  178.0840  143.1960 C   0  0  0  0  0  2  0  0  0  0  0  0
  182.8190  178.4550  141.7050 O   0  0  0  0  0  1  0  0  0  0  0  0
  184.8150  179.3940  141.0790 O   0  0  0  0  0  0  0  0  0  0  0  0
  184.0350  178.6580  141.9610 C   0  0  0  0  0  0  0  0  0  0  0  0
  190.1660  177.0780  141.5010 C   0  0  0  0  0  3  0  0  0  0  0  0
  190.0960  176.9780  140.2260 N   0  0  0  0  0  0  0  0  0  0  0  0
  191.1570  177.5000  139.4080 C   0  0  0  0  0  2  0  0  0  0  0  0
  191.4430  174.3870  137.2700 C   0  0  0  0  0  3  0  0  0  0  0  0
  193.6540  175.3320  137.5660 C   0  0  0  0  0  0  0  0  0  0  0  0
  190.8980  175.4210  138.0390 C   0  0  0  0  0  3  0  0  0  0  0  0
  195.0560  175.2880  137.3260 N   0  0  0  0  0  1  0  0  0  0  0  0
  191.7320  176.4100  138.5730 C   0  0  0  0  0  0  0  0  0  0  0  0
  192.8210  174.3430  137.0350 C   0  0  0  0  0  3  0  0  0  0  0  0
  193.1110  176.3630  138.3390 C   0  0  0  0  0  3  0  0  0  0  0  0
  1 22  1  6  0  0  0
  1  2  1  0  0  0  0
  1  3  1  0  0  0  0
  2  6  1  0  0  0  0
  4  3  1  6  0  0  0
  4  5  1  0  0  0  0
  5  7  1  0  0  0  0
  5 11  1  0  0  0  0
  6  4  1  0  0  0  0
  6 10  1  0  0  0  0
  7  9  1  0  0  0  0
  9  8  1  0  0  0  0
 10  7  1  0  0  0  0
 11 14  1  0  0  0  0
 11  8  1  0  0  0  0
 12 14  1  0  0  0  0
 12 13  1  0  0  0  0
 14 13  1  0  0  0  0
 15 10  1  0  0  0  0
 16 17  2  0  0  0  0
 16 15  1  0  0  0  0
 18 16  1  0  0  0  0
 19 21  1  0  0  0  0
 20 21  2  0  0  0  0
 21 18  1  0  0  0  0
 23 22  2  0  0  0  0
 24 23  1  0  0  0  0
 25 27  1  0  0  0  0
 26 31  2  0  0  0  0
 27 29  2  0  0  0  0
 28 26  1  0  0  0  0
 29 24  1  0  0  0  0
 30 25  2  0  0  0  0
 30 26  1  0  0  0  0
 31 29  1  0  0  0  0
M  END
>  <MODEL>
3

>  <REMARK>
 VINA RESULT:      -7.6      3.345      8.727
  Name = 
  7 active torsions:
  status: ('A' for Active; 'I' for Inactive)
    1  A    between atoms: C_1  and  C_15
    2  A    between atoms: C_6  and  C_16
    3  A    between atoms: C_6  and  N_21
    4  A    between atoms: N_13  and  C_27
    5  A    between atoms: C_14  and  C_28
    6  A    between atoms: C_24  and  N_31
    7  A    between atoms: C_28  and  C_29
                            x       y       z     vdW  Elec       q    Type
                         _______ _______ _______ _____ _____    ______ ____

>  <TORSDO>
F 7

$$$$
=
 OpenBabel10222421453D

 31 35  0  0  1  0  0  0  0  0999 V2000
  185.2080  179.1260  140.3070 C   0  0  2  0  0  3  0  0  0  0  0  0
  184.2850  178.4970  138.8350 S   0  0  0  0  0  0  0  0  0  0  0  0
  186.6190  178.7910  140.1460 N   0  0  0  0  0  2  0  0  0  0  0  0
  186.8550  178.0440  138.9680 C   0  0  2  0  0  3  0  0  0  0  0  0
  188.1180  178.0200  138.1770 C   0  0  2  0  0  3  0  0  0  0  0  0
  185.8170  177.8430  138.2130 C   0  0  2  0  0  3  0  0  0  0  0  0
  187.5850  177.7050  136.8340 C   0  0  1  0  0  3  0  0  0  0  0  0
  189.4390  176.3480  137.2400 C   0  0  0  0  0  2  0  0  0  0  0  0
  188.4290  176.7100  136.1550 C   0  0  0  0  0  2  0  0  0  0  0  0
  186.2510  177.6740  136.8390 C   0  0  1  0  0  3  0  0  0  0  0  0
  188.9630  176.8830  138.5250 N   0  0  1  0  0  0  0  0  0  0  0  0
  190.0850  176.9510  140.6520 C   0  0  0  0  0  2  0  0  0  0  0  0
  190.8980  176.3160  139.6990 O   0  0  0  0  0  0  0  0  0  0  0  0
  190.1220  177.3960  139.2400 C   0  0  1  0  0  3  0  0  0  0  0  0
  185.4260  177.0850  135.8260 N   0  0  0  0  0  2  0  0  0  0  0  0
  184.9670  175.7270  135.8150 C   0  0  0  0  0  0  0  0  0  0  0  0
  184.1500  175.3660  134.9270 O   0  0  0  0  0  0  0  0  0  0  0  0
  185.5350  174.7110  136.7630 C   0  0  0  0  0  2  0  0  0  0  0  0
  183.5570  174.6970  138.1060 O   0  0  0  0  0  1  0  0  0  0  0  0
  184.4940  172.6450  137.6960 O   0  0  0  0  0  0  0  0  0  0  0  0
  184.4670  174.0260  137.5510 C   0  0  0  0  0  0  0  0  0  0  0  0
  184.6870  178.4910  141.5530 C   0  0  0  0  0  3  0  0  0  0  0  0
  184.8860  179.0420  142.6930 N   0  0  0  0  0  0  0  0  0  0  0  0
  184.3830  178.4190  143.8860 C   0  0  0  0  0  2  0  0  0  0  0  0
  186.3940  178.4030  147.0950 C   0  0  0  0  0  3  0  0  0  0  0  0
  187.7580  177.4790  145.3180 C   0  0  0  0  0  0  0  0  0  0  0  0
  185.3400  178.5810  146.1920 C   0  0  0  0  0  3  0  0  0  0  0  0
  188.9870  176.9180  144.8730 N   0  0  0  0  0  1  0  0  0  0  0  0
  185.4950  178.2100  144.8530 C   0  0  0  0  0  0  0  0  0  0  0  0
  187.6020  177.8520  146.6570 C   0  0  0  0  0  3  0  0  0  0  0  0
  186.7070  177.6620  144.4150 C   0  0  0  0  0  3  0  0  0  0  0  0
  1 22  1  1  0  0  0
  2  1  1  0  0  0  0
  3  1  1  0  0  0  0
  4  3  1  6  0  0  0
  5 11  1  0  0  0  0
  5  4  1  0  0  0  0
  6  2  1  0  0  0  0
  6  4  1  0  0  0  0
  7 10  1  0  0  0  0
  7  5  1  0  0  0  0
  8 11  1  0  0  0  0
  9  7  1  0  0  0  0
  9  8  1  0  0  0  0
 10  6  1  0  0  0  0
 11 14  1  0  0  0  0
 13 12  1  0  0  0  0
 14 13  1  0  0  0  0
 14 12  1  0  0  0  0
 15 10  1  0  0  0  0
 16 15  1  0  0  0  0
 16 18  1  0  0  0  0
 17 16  2  0  0  0  0
 18 21  1  0  0  0  0
 21 20  2  0  0  0  0
 21 19  1  0  0  0  0
 22 23  2  0  0  0  0
 23 24  1  0  0  0  0
 24 29  1  0  0  0  0
 26 30  2  0  0  0  0
 27 25  2  0  0  0  0
 28 26  1  0  0  0  0
 29 27  1  0  0  0  0
 30 25  1  0  0  0  0
 31 29  2  0  0  0  0
 31 26  1  0  0  0  0
M  END
>  <MODEL>
4

>  <REMARK>
 VINA RESULT:      -7.5      3.238      4.955
  Name = 
  7 active torsions:
  status: ('A' for Active; 'I' for Inactive)
    1  A    between atoms: C_1  and  C_15
    2  A    between atoms: C_6  and  C_16
    3  A    between atoms: C_6  and  N_21
    4  A    between atoms: N_13  and  C_27
    5  A    between atoms: C_14  and  C_28
    6  A    between atoms: C_24  and  N_31
    7  A    between atoms: C_28  and  C_29
                            x       y       z     vdW  Elec       q    Type
                         _______ _______ _______ _____ _____    ______ ____

>  <TORSDO>
F 7

$$$$
=
 OpenBabel10222421453D

 31 35  0  0  1  0  0  0  0  0999 V2000
  189.1620  178.4780  138.7960 C   0  0  2  0  0  3  0  0  0  0  0  0
  190.3340  177.2460  139.5190 S   0  0  0  0  0  0  0  0  0  0  0  0
  188.1100  178.7440  139.7730 N   0  0  0  0  0  2  0  0  0  0  0  0
  188.2550  177.9520  140.9360 C   0  0  2  0  0  3  0  0  0  0  0  0
  187.7960  178.3100  142.3080 C   0  0  2  0  0  3  0  0  0  0  0  0
  189.3080  177.1910  140.9700 C   0  0  2  0  0  3  0  0  0  0  0  0
  188.7660  177.5460  143.1210 C   0  0  1  0  0  3  0  0  0  0  0  0
  186.6280  177.2020  143.9910 C   0  0  0  0  0  2  0  0  0  0  0  0
  188.0980  176.8870  144.2540 C   0  0  0  0  0  2  0  0  0  0  0  0
  189.6840  176.9570  142.3510 C   0  0  1  0  0  3  0  0  0  0  0  0
  186.4970  177.7250  142.6220 N   0  0  1  0  0  0  0  0  0  0  0  0
  184.4380  178.5480  141.6870 C   0  0  0  0  0  2  0  0  0  0  0  0
  184.2750  178.2920  143.0590 O   0  0  0  0  0  0  0  0  0  0  0  0
  185.5230  178.8070  142.6610 C   0  0  1  0  0  3  0  0  0  0  0  0
  190.5530  175.8910  142.7540 N   0  0  0  0  0  2  0  0  0  0  0  0
  191.4100  175.9080  143.9020 C   0  0  0  0  0  0  0  0  0  0  0  0
  192.0360  174.8600  144.2110 O   0  0  0  0  0  0  0  0  0  0  0  0
  191.6610  177.1770  144.6620 C   0  0  0  0  0  2  0  0  0  0  0  0
  190.2690  177.4400  146.5880 O   0  0  0  0  0  0  0  0  0  0  0  0
  192.3030  176.4490  146.9600 O   0  0  0  0  0  1  0  0  0  0  0  0
  191.3610  177.0250  146.1170 C   0  0  0  0  0  0  0  0  0  0  0  0
  188.5520  177.9380  137.5460 C   0  0  0  0  0  3  0  0  0  0  0  0
  187.2910  178.0400  137.3440 N   0  0  0  0  0  0  0  0  0  0  0  0
  186.7150  177.5120  136.1380 C   0  0  0  0  0  2  0  0  0  0  0  0
  183.2860  176.0030  136.6930 C   0  0  0  0  0  3  0  0  0  0  0  0
  184.9640  174.3530  137.2700 C   0  0  0  0  0  0  0  0  0  0  0  0
  184.2950  176.9110  136.3560 C   0  0  0  0  0  3  0  0  0  0  0  0
  185.3050  173.0520  137.7350 N   0  0  0  0  0  1  0  0  0  0  0  0
  185.6390  176.5400  136.4770 C   0  0  0  0  0  0  0  0  0  0  0  0
  183.6210  174.7250  137.1510 C   0  0  0  0  0  3  0  0  0  0  0  0
  185.9730  175.2610  136.9380 C   0  0  0  0  0  3  0  0  0  0  0  0
  1 22  1  6  0  0  0
  1  2  1  0  0  0  0
  1  3  1  0  0  0  0
  2  6  1  0  0  0  0
  4  3  1  6  0  0  0
  4  6  1  0  0  0  0
  4  5  1  0  0  0  0
  5 11  1  0  0  0  0
  5  7  1  0  0  0  0
  6 10  1  0  0  0  0
  7  9  1  0  0  0  0
  8  9  1  0  0  0  0
 10 15  1  0  0  0  0
 10  7  1  0  0  0  0
 11 14  1  0  0  0  0
 11  8  1  0  0  0  0
 12 14  1  0  0  0  0
 12 13  1  0  0  0  0
 14 13  1  0  0  0  0
 15 16  1  0  0  0  0
 16 17  2  0  0  0  0
 16 18  1  0  0  0  0
 18 21  1  0  0  0  0
 21 19  2  0  0  0  0
 21 20  1  0  0  0  0
 23 22  2  0  0  0  0
 24 29  1  0  0  0  0
 24 23  1  0  0  0  0
 25 30  1  0  0  0  0
 26 28  1  0  0  0  0
 27 29  1  0  0  0  0
 27 25  2  0  0  0  0
 29 31  2  0  0  0  0
 30 26  2  0  0  0  0
 31 26  1  0  0  0  0
M  END
>  <MODEL>
5

>  <REMARK>
 VINA RESULT:      -7.5      4.226      8.808
  Name = 
  7 active torsions:
  status: ('A' for Active; 'I' for Inactive)
    1  A    between atoms: C_1  and  C_15
    2  A    between atoms: C_6  and  C_16
    3  A    between atoms: C_6  and  N_21
    4  A    between atoms: N_13  and  C_27
    5  A    between atoms: C_14  and  C_28
    6  A    between atoms: C_24  and  N_31
    7  A    between atoms: C_28  and  C_29
                            x       y       z     vdW  Elec       q    Type
                         _______ _______ _______ _____ _____    ______ ____

>  <TORSDO>
F 7

$$$$
=
 OpenBabel10222421453D

 31 35  0  0  1  0  0  0  0  0999 V2000
  184.4110  179.1730  139.6440 C   0  0  2  0  0  3  0  0  0  0  0  0
  183.3360  178.1570  138.5360 S   0  0  0  0  0  0  0  0  0  0  0  0
  185.8040  178.8340  139.3740 N   0  0  0  0  0  2  0  0  0  0  0  0
  185.9220  177.8060  138.4110 C   0  0  2  0  0  3  0  0  0  0  0  0
  187.0670  177.5970  137.4800 C   0  0  2  0  0  3  0  0  0  0  0  0
  184.8060  177.3910  137.8920 C   0  0  2  0  0  3  0  0  0  0  0  0
  186.3790  176.9250  136.3570 C   0  0  1  0  0  3  0  0  0  0  0  0
  188.3440  175.7610  136.8320 C   0  0  0  0  0  2  0  0  0  0  0  0
  187.1790  175.8020  135.8470 C   0  0  0  0  0  2  0  0  0  0  0  0
  185.0610  176.8700  136.5620 C   0  0  1  0  0  3  0  0  0  0  0  0
  188.0140  176.6100  137.9870 N   0  0  1  0  0  0  0  0  0  0  0  0
  189.4000  177.2730  139.8390 C   0  0  0  0  0  2  0  0  0  0  0  0
  190.1150  176.4160  138.9860 O   0  0  0  0  0  0  0  0  0  0  0  0
  189.2280  177.3170  138.3690 C   0  0  1  0  0  3  0  0  0  0  0  0
  184.1420  176.0170  135.8690 N   0  0  0  0  0  2  0  0  0  0  0  0
  183.5320  174.8390  136.4110 C   0  0  0  0  0  0  0  0  0  0  0  0
  182.6520  174.2420  135.7360 O   0  0  0  0  0  0  0  0  0  0  0  0
  184.0100  174.2460  137.7040 C   0  0  0  0  0  2  0  0  0  0  0  0
  186.1200  173.1210  137.7280 O   0  0  0  0  0  1  0  0  0  0  0  0
  184.3430  171.8830  136.9740 O   0  0  0  0  0  0  0  0  0  0  0  0
  184.8870  173.0560  137.4820 C   0  0  0  0  0  0  0  0  0  0  0  0
  184.0980  178.8830  141.0740 C   0  0  0  0  0  3  0  0  0  0  0  0
  185.0360  178.5820  141.8940 N   0  0  0  0  0  0  0  0  0  0  0  0
  184.7210  178.3000  143.2680 C   0  0  0  0  0  2  0  0  0  0  0  0
  188.2940  177.3300  144.0660 C   0  0  0  0  0  3  0  0  0  0  0  0
  187.1620  177.8960  146.1320 C   0  0  0  0  0  0  0  0  0  0  0  0
  187.1240  177.6060  143.3500 C   0  0  0  0  0  3  0  0  0  0  0  0
  187.1810  178.0440  147.5470 N   0  0  0  0  0  1  0  0  0  0  0  0
  185.9730  178.0260  144.0250 C   0  0  0  0  0  0  0  0  0  0  0  0
  188.3120  177.4750  145.4570 C   0  0  0  0  0  3  0  0  0  0  0  0
  185.9920  178.1670  145.4180 C   0  0  0  0  0  3  0  0  0  0  0  0
  1 22  1  1  0  0  0
  2  1  1  0  0  0  0
  3  1  1  0  0  0  0
  4  3  1  6  0  0  0
  5 11  1  0  0  0  0
  5  4  1  0  0  0  0
  6  4  1  0  0  0  0
  6  2  1  0  0  0  0
  7 10  1  0  0  0  0
  7  5  1  0  0  0  0
  8 11  1  0  0  0  0
  9  7  1  0  0  0  0
  9  8  1  0  0  0  0
 10  6  1  0  0  0  0
 11 14  1  0  0  0  0
 13 12  1  0  0  0  0
 14 13  1  0  0  0  0
 14 12  1  0  0  0  0
 15 16  1  0  0  0  0
 15 10  1  0  0  0  0
 16 18  1  0  0  0  0
 17 16  2  0  0  0  0
 20 21  2  0  0  0  0
 21 18  1  0  0  0  0
 21 19  1  0  0  0  0
 22 23  2  0  0  0  0
 23 24  1  0  0  0  0
 24 29  1  0  0  0  0
 25 30  1  0  0  0  0
 26 28  1  0  0  0  0
 27 29  1  0  0  0  0
 27 25  2  0  0  0  0
 29 31  2  0  0  0  0
 30 26  2  0  0  0  0
 31 26  1  0  0  0  0
M  END
>  <MODEL>
6

>  <REMARK>
 VINA RESULT:      -7.2      3.629      5.457
  Name = 
  7 active torsions:
  status: ('A' for Active; 'I' for Inactive)
    1  A    between atoms: C_1  and  C_15
    2  A    between atoms: C_6  and  C_16
    3  A    between atoms: C_6  and  N_21
    4  A    between atoms: N_13  and  C_27
    5  A    between atoms: C_14  and  C_28
    6  A    between atoms: C_24  and  N_31
    7  A    between atoms: C_28  and  C_29
                            x       y       z     vdW  Elec       q    Type
                         _______ _______ _______ _____ _____    ______ ____

>  <TORSDO>
F 7

$$$$
=
 OpenBabel10222421453D

 31 35  0  0  1  0  0  0  0  0999 V2000
  190.5910  177.7510  141.0910 C   0  0  2  0  0  3  0  0  0  0  0  0
  188.9290  177.2050  140.4930 S   0  0  0  0  0  0  0  0  0  0  0  0
  191.5940  177.3270  140.1190 N   0  0  0  0  0  2  0  0  0  0  0  0
  191.0230  176.5840  139.0590 C   0  0  2  0  0  3  0  0  0  0  0  0
  191.5470  176.4910  137.6670 C   0  0  2  0  0  3  0  0  0  0  0  0
  189.7300  176.4630  139.0900 C   0  0  2  0  0  3  0  0  0  0  0  0
  190.2940  176.2320  136.9280 C   0  0  1  0  0  3  0  0  0  0  0  0
  191.9280  174.7510  136.1680 C   0  0  0  0  0  2  0  0  0  0  0  0
  190.4930  175.1950  135.9040 C   0  0  0  0  0  2  0  0  0  0  0  0
  189.2340  176.2870  137.7380 C   0  0  1  0  0  3  0  0  0  0  0  0
  192.3590  175.2960  137.4640 N   0  0  1  0  0  0  0  0  0  0  0  0
  194.6340  174.8270  138.0950 C   0  0  0  0  0  2  0  0  0  0  0  0
  194.4820  174.6950  136.7040 O   0  0  0  0  0  0  0  0  0  0  0  0
  193.7440  175.7220  137.3200 C   0  0  1  0  0  3  0  0  0  0  0  0
  187.9310  175.7680  137.4460 N   0  0  0  0  0  2  0  0  0  0  0  0
  186.7590  176.5570  137.2040 C   0  0  0  0  0  0  0  0  0  0  0  0
  185.7000  175.9790  136.8430 O   0  0  0  0  0  0  0  0  0  0  0  0
  186.7450  178.0300  137.4910 C   0  0  0  0  0  2  0  0  0  0  0  0
  184.4380  178.3250  138.0460 O   0  0  0  0  0  0  0  0  0  0  0  0
  185.9340  178.8740  139.6940 O   0  0  0  0  0  1  0  0  0  0  0  0
  185.6370  178.4060  138.4200 C   0  0  0  0  0  0  0  0  0  0  0  0
  190.8910  177.1320  142.4160 C   0  0  0  0  0  3  0  0  0  0  0  0
  190.2890  177.5380  143.4710 N   0  0  0  0  0  0  0  0  0  0  0  0
  190.5900  176.9370  144.7420 C   0  0  0  0  0  2  0  0  0  0  0  0
  188.7890  177.5530  148.0160 C   0  0  0  0  0  3  0  0  0  0  0  0
  187.2220  177.8730  146.1940 C   0  0  0  0  0  0  0  0  0  0  0  0
  189.7990  177.2590  147.0940 C   0  0  0  0  0  3  0  0  0  0  0  0
  185.9130  178.1860  145.7360 N   0  0  0  0  0  1  0  0  0  0  0  0
  189.5220  177.2700  145.7230 C   0  0  0  0  0  0  0  0  0  0  0  0
  187.5010  177.8600  147.5650 C   0  0  0  0  0  3  0  0  0  0  0  0
  188.2310  177.5740  145.2740 C   0  0  0  0  0  3  0  0  0  0  0  0
  1 22  1  1  0  0  0
  2  1  1  0  0  0  0
  3  1  1  0  0  0  0
  4  6  1  0  0  0  0
  4  3  1  6  0  0  0
  5  4  1  0  0  0  0
  6  2  1  0  0  0  0
  7  5  1  0  0  0  0
  7 10  1  0  0  0  0
  8 11  1  0  0  0  0
  9  8  1  0  0  0  0
  9  7  1  0  0  0  0
 10  6  1  0  0  0  0
 11  5  1  0  0  0  0
 13 14  1  0  0  0  0
 13 12  1  0  0  0  0
 14 11  1  0  0  0  0
 14 12  1  0  0  0  0
 15 10  1  0  0  0  0
 16 15  1  0  0  0  0
 16 18  1  0  0  0  0
 17 16  2  0  0  0  0
 18 21  1  0  0  0  0
 19 21  2  0  0  0  0
 21 20  1  0  0  0  0
 22 23  2  0  0  0  0
 23 24  1  0  0  0  0
 24 29  1  0  0  0  0
 26 30  2  0  0  0  0
 27 25  2  0  0  0  0
 28 26  1  0  0  0  0
 29 27  1  0  0  0  0
 30 25  1  0  0  0  0
 31 29  2  0  0  0  0
 31 26  1  0  0  0  0
M  END
>  <MODEL>
7

>  <REMARK>
 VINA RESULT:      -7.2      1.454      1.853
  Name = 
  7 active torsions:
  status: ('A' for Active; 'I' for Inactive)
    1  A    between atoms: C_1  and  C_15
    2  A    between atoms: C_6  and  C_16
    3  A    between atoms: C_6  and  N_21
    4  A    between atoms: N_13  and  C_27
    5  A    between atoms: C_14  and  C_28
    6  A    between atoms: C_24  and  N_31
    7  A    between atoms: C_28  and  C_29
                            x       y       z     vdW  Elec       q    Type
                         _______ _______ _______ _____ _____    ______ ____

>  <TORSDO>
F 7

$$$$
=
 OpenBabel10222421453D

 31 35  0  0  1  0  0  0  0  0999 V2000
  189.6300  177.9100  139.7420 C   0  0  2  0  0  3  0  0  0  0  0  0
  189.9520  177.0970  141.3710 S   0  0  0  0  0  0  0  0  0  0  0  0
  188.2510  178.3870  139.7290 N   0  0  0  0  0  2  0  0  0  0  0  0
  187.5590  178.0410  140.9130 C   0  0  2  0  0  3  0  0  0  0  0  0
  186.4220  178.7890  141.5190 C   0  0  2  0  0  3  0  0  0  0  0  0
  188.2640  177.4320  141.8180 C   0  0  2  0  0  3  0  0  0  0  0  0
  186.5930  178.4270  142.9430 C   0  0  1  0  0  3  0  0  0  0  0  0
  184.3400  178.1990  142.3810 C   0  0  0  0  0  2  0  0  0  0  0  0
  185.2970  178.1230  143.5670 C   0  0  0  0  0  2  0  0  0  0  0  0
  187.6990  177.7020  143.1270 C   0  0  1  0  0  3  0  0  0  0  0  0
  185.1300  178.2260  141.1400 N   0  0  1  0  0  0  0  0  0  0  0  0
  184.1330  178.4910  138.9660 C   0  0  0  0  0  2  0  0  0  0  0  0
  183.1760  178.7310  139.9670 O   0  0  0  0  0  0  0  0  0  0  0  0
  184.4870  179.1680  140.2350 C   0  0  1  0  0  3  0  0  0  0  0  0
  187.9960  176.9120  144.2840 N   0  0  0  0  0  2  0  0  0  0  0  0
  188.9260  177.2670  145.3150 C   0  0  0  0  0  0  0  0  0  0  0  0
  189.0090  176.5380  146.3390 O   0  0  0  0  0  0  0  0  0  0  0  0
  189.8780  178.4140  145.1370 C   0  0  0  0  0  2  0  0  0  0  0  0
  191.9810  178.8010  144.0690 O   0  0  0  0  0  0  0  0  0  0  0  0
  191.5340  176.6210  144.6200 O   0  0  0  0  0  1  0  0  0  0  0  0
  191.1930  177.9670  144.5860 C   0  0  0  0  0  0  0  0  0  0  0  0
  189.8280  176.9350  138.6300 C   0  0  0  0  0  3  0  0  0  0  0  0
  190.6130  175.9330  138.7800 N   0  0  0  0  0  0  0  0  0  0  0  0
  190.7990  175.0030  137.7000 C   0  0  0  0  0  2  0  0  0  0  0  0
  193.4340  175.9790  135.1610 C   0  0  0  0  0  3  0  0  0  0  0  0
  194.5390  175.0900  137.1260 C   0  0  0  0  0  0  0  0  0  0  0  0
  192.1910  175.7790  135.7710 C   0  0  0  0  0  3  0  0  0  0  0  0
  195.7330  174.7390  137.8160 N   0  0  0  0  0  1  0  0  0  0  0  0
  192.1220  175.2350  137.0580 C   0  0  0  0  0  0  0  0  0  0  0  0
  194.6070  175.6330  135.8390 C   0  0  0  0  0  3  0  0  0  0  0  0
  193.2970  174.8860  137.7340 C   0  0  0  0  0  3  0  0  0  0  0  0
  1 22  1  6  0  0  0
  1  2  1  0  0  0  0
  2  6  1  0  0  0  0
  3  1  1  0  0  0  0
  4  3  1  1  0  0  0
  4  5  1  0  0  0  0
  4  6  1  0  0  0  0
  5  7  1  0  0  0  0
  6 10  1  0  0  0  0
  7 10  1  0  0  0  0
  7  9  1  0  0  0  0
  8  9  1  0  0  0  0
 10 15  1  0  0  0  0
 11  5  1  0  0  0  0
 11  8  1  0  0  0  0
 12 13  1  0  0  0  0
 12 14  1  0  0  0  0
 13 14  1  0  0  0  0
 14 11  1  0  0  0  0
 15 16  1  0  0  0  0
 16 17  2  0  0  0  0
 18 16  1  0  0  0  0
 19 21  2  0  0  0  0
 21 20  1  0  0  0  0
 21 18  1  0  0  0  0
 22 23  2  0  0  0  0
 24 23  1  0  0  0  0
 25 27  2  0  0  0  0
 25 30  1  0  0  0  0
 26 31  1  0  0  0  0
 26 28  1  0  0  0  0
 27 29  1  0  0  0  0
 29 24  1  0  0  0  0
 29 31  2  0  0  0  0
 30 26  2  0  0  0  0
M  END
>  <MODEL>
8

>  <REMARK>
 VINA RESULT:      -7.1      3.730      9.069
  Name = 
  7 active torsions:
  status: ('A' for Active; 'I' for Inactive)
    1  A    between atoms: C_1  and  C_15
    2  A    between atoms: C_6  and  C_16
    3  A    between atoms: C_6  and  N_21
    4  A    between atoms: N_13  and  C_27
    5  A    between atoms: C_14  and  C_28
    6  A    between atoms: C_24  and  N_31
    7  A    between atoms: C_28  and  C_29
                            x       y       z     vdW  Elec       q    Type
                         _______ _______ _______ _____ _____    ______ ____

>  <TORSDO>
F 7

$$$$
=
 OpenBabel10222421453D

 31 35  0  0  1  0  0  0  0  0999 V2000
  187.6150  179.0190  141.1200 C   0  0  2  0  0  3  0  0  0  0  0  0
  185.7900  178.9690  141.4100 S   0  0  0  0  0  0  0  0  0  0  0  0
  187.8870  178.4740  139.7940 N   0  0  0  0  0  2  0  0  0  0  0  0
  186.7100  178.0170  139.1570 C   0  0  2  0  0  3  0  0  0  0  0  0
  186.4720  177.9540  137.6880 C   0  0  2  0  0  3  0  0  0  0  0  0
  185.6050  178.2150  139.8100 C   0  0  2  0  0  3  0  0  0  0  0  0
  185.0000  178.0960  137.6500 C   0  0  1  0  0  3  0  0  0  0  0  0
  185.6190  176.3530  136.2280 C   0  0  0  0  0  2  0  0  0  0  0  0
  184.4080  177.1620  136.6800 C   0  0  0  0  0  2  0  0  0  0  0  0
  184.5050  178.3180  138.8700 C   0  0  1  0  0  3  0  0  0  0  0  0
  186.7370  176.6270  137.1440 N   0  0  1  0  0  0  0  0  0  0  0  0
  188.9500  175.7360  136.8260 C   0  0  0  0  0  2  0  0  0  0  0  0
  188.1620  175.4830  135.6910 O   0  0  0  0  0  0  0  0  0  0  0  0
  187.9480  176.7130  136.3400 C   0  0  1  0  0  3  0  0  0  0  0  0
  183.1330  178.1720  139.2540 N   0  0  0  0  0  2  0  0  0  0  0  0
  182.1060  179.1510  139.0540 C   0  0  0  0  0  0  0  0  0  0  0  0
  180.9150  178.8510  139.3310 O   0  0  0  0  0  0  0  0  0  0  0  0
  182.4440  180.5530  138.6390 C   0  0  0  0  0  2  0  0  0  0  0  0
  180.5210  181.9680  138.7710 O   0  0  0  0  0  1  0  0  0  0  0  0
  180.9810  181.1080  136.6960 O   0  0  0  0  0  0  0  0  0  0  0  0
  181.2680  181.2580  138.0460 C   0  0  0  0  0  0  0  0  0  0  0  0
  188.3230  178.2020  142.1480 C   0  0  0  0  0  3  0  0  0  0  0  0
  187.6640  177.4130  142.9150 N   0  0  0  0  0  0  0  0  0  0  0  0
  188.3570  176.6340  143.9040 C   0  0  0  0  0  2  0  0  0  0  0  0
  188.7890  177.6140  147.5370 C   0  0  0  0  0  3  0  0  0  0  0  0
  186.5590  178.2380  146.8230 C   0  0  0  0  0  0  0  0  0  0  0  0
  189.0590  177.1170  146.2570 C   0  0  0  0  0  3  0  0  0  0  0  0
  185.2870  178.8080  147.1100 N   0  0  0  0  0  1  0  0  0  0  0  0
  188.0790  177.1810  145.2610 C   0  0  0  0  0  0  0  0  0  0  0  0
  187.5380  178.1730  147.8190 C   0  0  0  0  0  3  0  0  0  0  0  0
  186.8270  177.7380  145.5450 C   0  0  0  0  0  3  0  0  0  0  0  0
  1  2  1  0  0  0  0
  1 22  1  1  0  0  0
  3  1  1  0  0  0  0
  4  3  1  6  0  0  0
  4  6  1  0  0  0  0
  5  4  1  0  0  0  0
  6  2  1  0  0  0  0
  7  5  1  0  0  0  0
  7 10  1  0  0  0  0
  8  9  1  0  0  0  0
  8 11  1  0  0  0  0
  9  7  1  0  0  0  0
 10 15  1  0  0  0  0
 10  6  1  0  0  0  0
 11  5  1  0  0  0  0
 13 14  1  0  0  0  0
 13 12  1  0  0  0  0
 14 12  1  0  0  0  0
 14 11  1  0  0  0  0
 16 15  1  0  0  0  0
 16 17  2  0  0  0  0
 18 16  1  0  0  0  0
 20 21  2  0  0  0  0
 21 18  1  0  0  0  0
 21 19  1  0  0  0  0
 22 23  2  0  0  0  0
 23 24  1  0  0  0  0
 24 29  1  0  0  0  0
 25 30  1  0  0  0  0
 26 28  1  0  0  0  0
 26 30  2  0  0  0  0
 27 25  2  0  0  0  0
 29 31  2  0  0  0  0
 29 27  1  0  0  0  0
 31 26  1  0  0  0  0
M  END
>  <MODEL>
9

>  <REMARK>
 VINA RESULT:      -7.0      3.874      5.675
  Name = 
  7 active torsions:
  status: ('A' for Active; 'I' for Inactive)
    1  A    between atoms: C_1  and  C_15
    2  A    between atoms: C_6  and  C_16
    3  A    between atoms: C_6  and  N_21
    4  A    between atoms: N_13  and  C_27
    5  A    between atoms: C_14  and  C_28
    6  A    between atoms: C_24  and  N_31
    7  A    between atoms: C_28  and  C_29
                            x       y       z     vdW  Elec       q    Type
                         _______ _______ _______ _____ _____    ______ ____

>  <TORSDO>
F 7

$$$$
