=
 OpenBabel10232410593D

 42 48  0  0  1  0  0  0  0  0999 V2000
  187.3200  177.8080  143.4530 C   0  0  0  0  0  0  0  0  0  0  0  0
  186.5050  177.7800  144.5960 C   0  0  0  0  0  3  0  0  0  0  0  0
  188.7100  177.5680  143.5780 C   0  0  0  0  0  0  0  0  0  0  0  0
  187.0530  177.5410  145.8580 C   0  0  0  0  0  3  0  0  0  0  0  0
  189.2450  177.3420  144.8590 C   0  0  0  0  0  3  0  0  0  0  0  0
  188.4310  177.3370  145.9960 C   0  0  0  0  0  0  0  0  0  0  0  0
  189.9230  176.9160  138.9370 C   0  0  1  0  0  0  0  0  0  0  0  0
  190.0980  175.2300  137.2120 C   0  0  1  0  0  0  0  0  0  0  0  0
  189.6150  177.5160  142.3970 C   0  0  0  0  0  0  0  0  0  0  0  0
  192.0450  177.5550  140.2180 C   0  0  0  0  0  2  0  0  0  0  0  0
  191.3490  176.4940  139.3660 C   0  0  0  0  0  2  0  0  0  0  0  0
  188.8370  174.3010  137.1000 C   0  0  1  0  0  3  0  0  0  0  0  0
  188.9130  174.8040  135.1620 C   0  0  2  0  0  3  0  0  0  0  0  0
  188.8360  176.9500  139.9800 C   0  0  0  0  0  3  0  0  0  0  0  0
  189.9490  177.9810  137.9000 C   0  0  1  0  0  3  0  0  0  0  0  0
  189.4330  176.2190  135.0400 C   0  0  0  0  0  2  0  0  0  0  0  0
  187.9130  174.7840  136.1460 O   0  0  0  0  0  0  0  0  0  0  0  0
  192.0200  177.1810  141.6970 C   0  0  0  0  0  2  0  0  0  0  0  0
  190.2670  176.4300  136.3060 C   0  0  1  0  0  3  0  0  0  0  0  0
  189.1510  177.2320  141.2090 C   0  0  0  0  0  0  0  0  0  0  0  0
  191.0210  178.0450  142.4730 C   0  0  0  0  0  2  0  0  0  0  0  0
  189.3790  176.6030  137.5060 C   0  0  1  0  0  0  0  0  0  0  0  0
  189.8990  174.1990  136.0970 C   0  0  1  0  0  3  0  0  0  0  0  0
  187.7730  178.6930  136.9400 C   0  0  0  0  0  1  0  0  0  0  0  0
  188.8130  178.9920  138.0000 C   0  0  0  0  0  2  0  0  0  0  0  0
  189.0520  177.0620  147.3360 C   0  0  1  0  0  3  0  0  0  0  0  0
  190.5340  176.7150  147.2210 C   0  0  0  0  0  1  0  0  0  0  0  0
  188.0830  178.0710  149.1680 O   0  0  0  0  0  0  0  0  0  0  0  0
  188.8470  178.1620  148.2530 N   0  0  0  0  0  0  0  0  0  0  0  0
  186.7470  178.1190  142.1780 N   0  0  0  0  0  2  0  0  0  0  0  0
  185.8620  179.2510  141.9450 C   0  0  0  0  0  2  0  0  0  0  0  0
  184.6380  178.7950  141.1670 C   0  0  0  0  0  2  0  0  0  0  0  0
  184.9010  178.8060  139.6670 C   0  0  0  0  0  2  0  0  0  0  0  0
  183.7210  179.3890  138.9010 C   0  0  0  0  0  2  0  0  0  0  0  0
  182.8770  178.2890  138.2680 C   0  0  0  0  0  2  0  0  0  0  0  0
  183.7410  177.1070  137.8370 C   0  0  0  0  0  3  0  0  0  0  0  0
  183.2610  175.8290  138.4500 C   0  0  0  0  0  0  0  0  0  0  0  0
  182.4770  175.8660  139.4320 O   0  0  0  0  0  1  0  0  0  0  0  0
  183.6760  174.6020  137.9440 O   0  0  0  0  0  0  0  0  0  0  0  0
  184.8800  177.0760  135.7470 O   0  0  0  0  0  1  0  0  0  0  0  0
  182.6090  176.7950  135.6260 O   0  0  0  0  0  0  0  0  0  0  0  0
  183.7780  176.9990  136.3490 C   0  0  0  0  0  0  0  0  0  0  0  0
  1  3  2  0  0  0  0
  1  2  1  0  0  0  0
  2  4  2  0  0  0  0
  3  5  1  0  0  0  0
  4  6  1  0  0  0  0
  5  6  2  0  0  0  0
  6 26  1  0  0  0  0
  7 11  1  1  0  0  0
  7 14  1  0  0  0  0
  8 22  1  0  0  0  0
  9 21  1  0  0  0  0
  9  3  1  0  0  0  0
 10 18  1  0  0  0  0
 11 10  1  0  0  0  0
 12  8  1  0  0  0  0
 13 23  1  0  0  0  0
 13 17  1  0  0  0  0
 14 20  2  0  0  0  0
 15 25  1  0  0  0  0
 15  7  1  0  0  0  0
 16 13  1  0  0  0  0
 16 19  1  0  0  0  0
 17 12  1  0  0  0  0
 18 21  1  0  0  0  0
 19  8  1  0  0  0  0
 19 22  1  0  0  0  0
 20  9  2  0  0  0  0
 22 15  1  0  0  0  0
 22  7  1  0  0  0  0
 23 12  1  0  0  0  0
 23  8  1  0  0  0  0
 24 25  1  0  0  0  0
 26 29  1  0  0  0  0
 27 26  1  0  0  0  0
 29 28  2  0  0  0  0
 30  1  1  0  0  0  0
 31 30  1  0  0  0  0
 32 31  1  0  0  0  0
 33 32  1  0  0  0  0
 34 33  1  0  0  0  0
 35 34  1  0  0  0  0
 36 35  1  0  0  0  0
 36 37  1  0  0  0  0
 37 38  1  0  0  0  0
 39 37  2  0  0  0  0
 40 42  1  0  0  0  0
 41 42  2  0  0  0  0
 42 36  1  0  0  0  0
M  END
>  <MODEL>
1

>  <REMARK>
 VINA RESULT:      -7.7      0.000      0.000
  Name = 
  13 active torsions:
  status: ('A' for Active; 'I' for Inactive)
    1  A    between atoms: C_1  and  C_18
    2  A    between atoms: C_1  and  C_21
    3  A    between atoms: C_3  and  C_5
    4  A    between atoms: C_3  and  C_16
    5  A    between atoms: C_3  and  C_34
    6  A    between atoms: C_6  and  N_24
    7  A    between atoms: C_8  and  C_23
    8  A    between atoms: C_15  and  C_29
    9  A    between atoms: C_16  and  C_41
   10  A    between atoms: C_18  and  C_41
   11  A    between atoms: C_21  and  N_24
   12  A    between atoms: N_25  and  C_31
   13  A    between atoms: C_31  and  C_38
                            x       y       z     vdW  Elec       q    Type
                         _______ _______ _______ _____ _____    ______ ____

>  <TORSDO>
F 13

$$$$
=
 OpenBabel10232410593D

 42 48  0  0  1  0  0  0  0  0999 V2000
  183.2480  178.7230  141.9920 C   0  0  0  0  0  0  0  0  0  0  0  0
  181.8620  178.9080  142.1250 C   0  0  0  0  0  3  0  0  0  0  0  0
  183.8370  178.7430  140.7040 C   0  0  0  0  0  0  0  0  0  0  0  0
  181.0560  179.0890  140.9990 C   0  0  0  0  0  3  0  0  0  0  0  0
  183.0060  178.9130  139.5820 C   0  0  0  0  0  3  0  0  0  0  0  0
  181.6240  179.0750  139.7200 C   0  0  0  0  0  0  0  0  0  0  0  0
  187.9210  177.5690  138.3850 C   0  0  1  0  0  0  0  0  0  0  0  0
  189.2100  175.6810  137.5930 C   0  0  1  0  0  0  0  0  0  0  0  0
  185.3070  178.6210  140.5030 C   0  0  0  0  0  0  0  0  0  0  0  0
  188.5690  178.6120  140.6310 C   0  0  0  0  0  2  0  0  0  0  0  0
  188.6380  177.3710  139.7430 C   0  0  0  0  0  2  0  0  0  0  0  0
  188.3620  174.6140  136.8150 C   0  0  1  0  0  3  0  0  0  0  0  0
  189.7750  174.8390  135.4110 C   0  0  2  0  0  3  0  0  0  0  0  0
  186.4160  177.6320  138.3670 C   0  0  0  0  0  3  0  0  0  0  0  0
  188.6840  178.4700  137.4820 C   0  0  1  0  0  3  0  0  0  0  0  0
  190.2640  176.2700  135.4290 C   0  0  0  0  0  2  0  0  0  0  0  0
  188.3720  174.8510  135.4220 O   0  0  0  0  0  0  0  0  0  0  0  0
  187.5150  178.4540  141.7220 C   0  0  0  0  0  2  0  0  0  0  0  0
  189.9880  176.7510  136.8560 C   0  0  1  0  0  3  0  0  0  0  0  0
  185.7930  178.1210  139.3990 C   0  0  0  0  0  0  0  0  0  0  0  0
  186.2760  179.3060  141.4280 C   0  0  0  0  0  2  0  0  0  0  0  0
  188.5190  176.9950  137.0600 C   0  0  1  0  0  0  0  0  0  0  0  0
  189.8200  174.4860  136.8560 C   0  0  1  0  0  3  0  0  0  0  0  0
  187.3000  178.5430  135.4230 C   0  0  0  0  0  1  0  0  0  0  0  0
  187.8200  179.3540  136.5910 C   0  0  0  0  0  2  0  0  0  0  0  0
  180.7870  179.2820  138.4890 C   0  0  1  0  0  3  0  0  0  0  0  0
  181.0920  180.6130  137.8070 C   0  0  0  0  0  1  0  0  0  0  0  0
  181.4780  178.3220  136.5100 O   0  0  0  0  0  0  0  0  0  0  0  0
  180.9260  178.1800  137.5610 N   0  0  0  0  0  0  0  0  0  0  0  0
  184.0480  178.4750  143.1540 N   0  0  0  0  0  2  0  0  0  0  0  0
  183.6860  178.9190  144.4920 C   0  0  0  0  0  2  0  0  0  0  0  0
  184.9100  178.8860  145.3930 C   0  0  0  0  0  2  0  0  0  0  0  0
  185.9700  177.9370  144.8500 C   0  0  0  0  0  2  0  0  0  0  0  0
  187.2100  177.9250  145.7340 C   0  0  0  0  0  2  0  0  0  0  0  0
  188.3740  177.2280  145.0420 C   0  0  0  0  0  2  0  0  0  0  0  0
  189.6950  177.9360  145.3300 C   0  0  0  0  0  3  0  0  0  0  0  0
  190.5390  177.1480  146.2830 C   0  0  0  0  0  0  0  0  0  0  0  0
  191.7870  177.1160  146.1270 O   0  0  0  0  0  0  0  0  0  0  0  0
  189.9570  176.4510  147.3360 O   0  0  0  0  0  1  0  0  0  0  0  0
  190.9130  179.3460  143.8500 O   0  0  0  0  0  1  0  0  0  0  0  0
  190.6170  177.1920  143.1250 O   0  0  0  0  0  0  0  0  0  0  0  0
  190.4350  178.2020  144.0620 C   0  0  0  0  0  0  0  0  0  0  0  0
  1  2  1  0  0  0  0
  1 30  1  0  0  0  0
  3  1  2  0  0  0  0
  4  2  2  0  0  0  0
  5  6  2  0  0  0  0
  5  3  1  0  0  0  0
  6  4  1  0  0  0  0
  7 14  1  1  0  0  0
  7 11  1  0  0  0  0
  9  3  1  0  0  0  0
  9 21  1  0  0  0  0
 10 18  1  0  0  0  0
 11 10  1  0  0  0  0
 12 23  1  0  0  0  0
 12  8  1  0  0  0  0
 13 17  1  0  0  0  0
 13 16  1  0  0  0  0
 13 23  1  0  0  0  0
 14 20  2  0  0  0  0
 15  7  1  0  0  0  0
 16 19  1  0  0  0  0
 17 12  1  0  0  0  0
 19 22  1  0  0  0  0
 19  8  1  0  0  0  0
 20  9  2  0  0  0  0
 21 18  1  0  0  0  0
 22 15  1  0  0  0  0
 22  8  1  0  0  0  0
 22  7  1  0  0  0  0
 23  8  1  0  0  0  0
 24 25  1  0  0  0  0
 25 15  1  0  0  0  0
 26  6  1  0  0  0  0
 27 26  1  0  0  0  0
 28 29  2  0  0  0  0
 29 26  1  0  0  0  0
 30 31  1  0  0  0  0
 31 32  1  0  0  0  0
 33 32  1  0  0  0  0
 33 34  1  0  0  0  0
 35 36  1  0  0  0  0
 35 34  1  0  0  0  0
 36 37  1  0  0  0  0
 37 39  1  0  0  0  0
 38 37  2  0  0  0  0
 40 42  1  0  0  0  0
 41 42  2  0  0  0  0
 42 36  1  0  0  0  0
M  END
>  <MODEL>
2

>  <REMARK>
 VINA RESULT:      -7.6      2.546      7.192
  Name = 
  13 active torsions:
  status: ('A' for Active; 'I' for Inactive)
    1  A    between atoms: C_1  and  C_18
    2  A    between atoms: C_1  and  C_21
    3  A    between atoms: C_3  and  C_5
    4  A    between atoms: C_3  and  C_16
    5  A    between atoms: C_3  and  C_34
    6  A    between atoms: C_6  and  N_24
    7  A    between atoms: C_8  and  C_23
    8  A    between atoms: C_15  and  C_29
    9  A    between atoms: C_16  and  C_41
   10  A    between atoms: C_18  and  C_41
   11  A    between atoms: C_21  and  N_24
   12  A    between atoms: N_25  and  C_31
   13  A    between atoms: C_31  and  C_38
                            x       y       z     vdW  Elec       q    Type
                         _______ _______ _______ _____ _____    ______ ____

>  <TORSDO>
F 13

$$$$
=
 OpenBabel10232410593D

 42 48  0  0  1  0  0  0  0  0999 V2000
  185.8220  178.7580  142.0080 C   0  0  0  0  0  0  0  0  0  0  0  0
  184.6860  178.9220  142.8170 C   0  0  0  0  0  3  0  0  0  0  0  0
  187.0070  178.2180  142.5660 C   0  0  0  0  0  0  0  0  0  0  0  0
  184.7180  178.5810  144.1700 C   0  0  0  0  0  3  0  0  0  0  0  0
  187.0240  177.8940  143.9350 C   0  0  0  0  0  3  0  0  0  0  0  0
  185.8950  178.0800  144.7390 C   0  0  0  0  0  0  0  0  0  0  0  0
  189.5180  176.8850  138.6480 C   0  0  1  0  0  0  0  0  0  0  0  0
  190.0490  174.9770  137.2600 C   0  0  1  0  0  0  0  0  0  0  0  0
  188.2210  177.9560  141.7470 C   0  0  0  0  0  0  0  0  0  0  0  0
  191.1950  177.5600  140.4600 C   0  0  0  0  0  2  0  0  0  0  0  0
  190.6940  176.4390  139.5510 C   0  0  0  0  0  2  0  0  0  0  0  0
  188.7990  174.1180  136.8540 C   0  0  1  0  0  3  0  0  0  0  0  0
  189.5170  174.3550  134.9980 C   0  0  2  0  0  3  0  0  0  0  0  0
  188.1720  177.1220  139.2820 C   0  0  0  0  0  3  0  0  0  0  0  0
  189.9680  177.7990  137.5660 C   0  0  1  0  0  3  0  0  0  0  0  0
  190.1860  175.7070  134.8960 C   0  0  0  0  0  2  0  0  0  0  0  0
  188.2660  174.5250  135.6100 O   0  0  0  0  0  0  0  0  0  0  0  0
  190.6800  177.3880  141.8860 C   0  0  0  0  0  2  0  0  0  0  0  0
  190.6070  176.0340  136.3310 C   0  0  1  0  0  3  0  0  0  0  0  0
  188.1200  177.5450  140.5100 C   0  0  0  0  0  0  0  0  0  0  0  0
  189.5810  178.4060  142.2070 C   0  0  0  0  0  2  0  0  0  0  0  0
  189.4130  176.4170  137.1610 C   0  0  1  0  0  0  0  0  0  0  0  0
  190.1030  173.8210  136.2570 C   0  0  1  0  0  3  0  0  0  0  0  0
  187.9950  178.3380  136.1570 C   0  0  0  0  0  1  0  0  0  0  0  0
  188.9610  178.8800  137.1900 C   0  0  0  0  0  2  0  0  0  0  0  0
  185.9600  177.6890  146.1890 C   0  0  1  0  0  3  0  0  0  0  0  0
  187.3980  177.5670  146.6850 C   0  0  0  0  0  1  0  0  0  0  0  0
  185.6600  179.6430  147.3740 O   0  0  0  0  0  0  0  0  0  0  0  0
  185.2000  178.5980  147.0190 N   0  0  0  0  0  0  0  0  0  0  0  0
  185.7870  179.1740  140.6380 N   0  0  0  0  0  2  0  0  0  0  0  0
  184.6090  179.0600  139.7900 C   0  0  0  0  0  2  0  0  0  0  0  0
  185.0340  178.8380  138.3470 C   0  0  0  0  0  2  0  0  0  0  0  0
  184.8470  177.3840  137.9340 C   0  0  0  0  0  2  0  0  0  0  0  0
  183.7620  177.2450  136.8740 C   0  0  0  0  0  2  0  0  0  0  0  0
  183.9000  175.9310  136.1140 C   0  0  0  0  0  2  0  0  0  0  0  0
  183.5090  174.7420  136.9870 C   0  0  0  0  0  3  0  0  0  0  0  0
  182.1270  174.2650  136.6710 C   0  0  0  0  0  0  0  0  0  0  0  0
  181.6950  174.3450  135.4930 O   0  0  0  0  0  0  0  0  0  0  0  0
  181.3150  173.7350  137.6690 O   0  0  0  0  0  1  0  0  0  0  0  0
  185.1440  173.5170  135.7650 O   0  0  0  0  0  0  0  0  0  0  0  0
  184.7260  172.7460  137.8820 O   0  0  0  0  0  1  0  0  0  0  0  0
  184.4990  173.6340  136.8390 C   0  0  0  0  0  0  0  0  0  0  0  0
  1  3  2  0  0  0  0
  1  2  1  0  0  0  0
  2  4  2  0  0  0  0
  3  5  1  0  0  0  0
  4  6  1  0  0  0  0
  5  6  2  0  0  0  0
  6 26  1  0  0  0  0
  7 14  1  1  0  0  0
  7 11  1  0  0  0  0
  9 21  1  0  0  0  0
  9  3  1  0  0  0  0
 10 18  1  0  0  0  0
 11 10  1  0  0  0  0
 12  8  1  0  0  0  0
 13 17  1  0  0  0  0
 13 23  1  0  0  0  0
 14 20  2  0  0  0  0
 15  7  1  0  0  0  0
 16 13  1  0  0  0  0
 16 19  1  0  0  0  0
 17 12  1  0  0  0  0
 18 21  1  0  0  0  0
 19 22  1  0  0  0  0
 19  8  1  0  0  0  0
 20  9  2  0  0  0  0
 22  8  1  0  0  0  0
 22 15  1  0  0  0  0
 22  7  1  0  0  0  0
 23 12  1  0  0  0  0
 23  8  1  0  0  0  0
 24 25  1  0  0  0  0
 25 15  1  0  0  0  0
 26 27  1  0  0  0  0
 26 29  1  0  0  0  0
 29 28  2  0  0  0  0
 30  1  1  0  0  0  0
 31 30  1  0  0  0  0
 32 31  1  0  0  0  0
 33 32  1  0  0  0  0
 34 33  1  0  0  0  0
 35 34  1  0  0  0  0
 35 36  1  0  0  0  0
 37 36  1  0  0  0  0
 37 39  1  0  0  0  0
 38 37  2  0  0  0  0
 40 42  2  0  0  0  0
 42 36  1  0  0  0  0
 42 41  1  0  0  0  0
M  END
>  <MODEL>
3

>  <REMARK>
 VINA RESULT:      -7.5      1.657      2.380
  Name = 
  13 active torsions:
  status: ('A' for Active; 'I' for Inactive)
    1  A    between atoms: C_1  and  C_18
    2  A    between atoms: C_1  and  C_21
    3  A    between atoms: C_3  and  C_5
    4  A    between atoms: C_3  and  C_16
    5  A    between atoms: C_3  and  C_34
    6  A    between atoms: C_6  and  N_24
    7  A    between atoms: C_8  and  C_23
    8  A    between atoms: C_15  and  C_29
    9  A    between atoms: C_16  and  C_41
   10  A    between atoms: C_18  and  C_41
   11  A    between atoms: C_21  and  N_24
   12  A    between atoms: N_25  and  C_31
   13  A    between atoms: C_31  and  C_38
                            x       y       z     vdW  Elec       q    Type
                         _______ _______ _______ _____ _____    ______ ____

>  <TORSDO>
F 13

$$$$
=
 OpenBabel10232410593D

 42 48  0  0  1  0  0  0  0  0999 V2000
  185.6650  178.1940  143.2100 C   0  0  0  0  0  0  0  0  0  0  0  0
  184.3520  178.4650  143.6280 C   0  0  0  0  0  3  0  0  0  0  0  0
  185.9950  178.2850  141.8360 C   0  0  0  0  0  0  0  0  0  0  0  0
  183.3620  178.8000  142.7010 C   0  0  0  0  0  3  0  0  0  0  0  0
  184.9810  178.6100  140.9160 C   0  0  0  0  0  3  0  0  0  0  0  0
  183.6710  178.8580  141.3370 C   0  0  0  0  0  0  0  0  0  0  0  0
  189.4390  176.9570  138.7040 C   0  0  1  0  0  0  0  0  0  0  0  0
  190.4030  175.0300  137.6060 C   0  0  1  0  0  0  0  0  0  0  0  0
  187.3820  178.0780  141.3390 C   0  0  0  0  0  0  0  0  0  0  0  0
  190.5950  177.8510  140.8050 C   0  0  0  0  0  2  0  0  0  0  0  0
  190.3950  176.6500  139.8820 C   0  0  0  0  0  2  0  0  0  0  0  0
  189.3420  174.0560  136.9810 C   0  0  1  0  0  3  0  0  0  0  0  0
  190.4600  174.2550  135.3290 C   0  0  2  0  0  3  0  0  0  0  0  0
  187.9690  177.1200  138.9920 C   0  0  0  0  0  3  0  0  0  0  0  0
  190.0710  177.8490  137.6960 C   0  0  1  0  0  3  0  0  0  0  0  0
  191.0460  175.6490  135.2950 C   0  0  0  0  0  2  0  0  0  0  0  0
  189.0920  174.3580  135.6230 O   0  0  0  0  0  0  0  0  0  0  0  0
  189.7700  177.7110  142.0810 C   0  0  0  0  0  2  0  0  0  0  0  0
  191.0950  176.0790  136.7630 C   0  0  1  0  0  3  0  0  0  0  0  0
  187.6020  177.5990  140.1430 C   0  0  0  0  0  0  0  0  0  0  0  0
  188.5640  178.6540  142.0710 C   0  0  0  0  0  2  0  0  0  0  0  0
  189.7180  176.4090  137.2670 C   0  0  1  0  0  0  0  0  0  0  0  0
  190.7660  173.8320  136.7230 C   0  0  1  0  0  3  0  0  0  0  0  0
  188.4470  178.1570  135.8440 C   0  0  0  0  0  1  0  0  0  0  0  0
  189.1140  178.8280  137.0260 C   0  0  0  0  0  2  0  0  0  0  0  0
  182.6340  179.2290  140.3150 C   0  0  1  0  0  3  0  0  0  0  0  0
  183.2450  179.4440  138.9330 C   0  0  0  0  0  1  0  0  0  0  0  0
  181.7720  177.1260  139.9360 O   0  0  0  0  0  0  0  0  0  0  0  0
  181.5640  178.2560  140.2640 N   0  0  0  0  0  0  0  0  0  0  0  0
  186.6490  177.7900  144.1700 N   0  0  0  0  0  2  0  0  0  0  0  0
  186.3620  177.5860  145.5820 C   0  0  0  0  0  2  0  0  0  0  0  0
  187.3150  178.4170  146.4260 C   0  0  0  0  0  2  0  0  0  0  0  0
  187.6480  177.7160  147.7360 C   0  0  0  0  0  2  0  0  0  0  0  0
  188.8390  176.7810  147.5770 C   0  0  0  0  0  2  0  0  0  0  0  0
  189.8940  177.3830  146.6570 C   0  0  0  0  0  2  0  0  0  0  0  0
  190.9550  176.3530  146.2820 C   0  0  0  0  0  3  0  0  0  0  0  0
  191.5880  176.6780  144.9650 C   0  0  0  0  0  0  0  0  0  0  0  0
  191.8490  175.7510  144.1550 O   0  0  0  0  0  0  0  0  0  0  0  0
  191.8920  177.9930  144.6310 O   0  0  0  0  0  1  0  0  0  0  0  0
  192.7490  175.2480  147.3890 O   0  0  0  0  0  0  0  0  0  0  0  0
  192.1270  177.2560  148.3010 O   0  0  0  0  0  1  0  0  0  0  0  0
  191.9880  176.2490  147.3540 C   0  0  0  0  0  0  0  0  0  0  0  0
  1  2  1  0  0  0  0
  1 30  1  0  0  0  0
  3  1  2  0  0  0  0
  4  2  2  0  0  0  0
  5  6  2  0  0  0  0
  5  3  1  0  0  0  0
  6  4  1  0  0  0  0
  7 14  1  1  0  0  0
  7 11  1  0  0  0  0
  9  3  1  0  0  0  0
  9 21  1  0  0  0  0
 10 18  1  0  0  0  0
 11 10  1  0  0  0  0
 12  8  1  0  0  0  0
 13 17  1  0  0  0  0
 13 23  1  0  0  0  0
 14 20  2  0  0  0  0
 15  7  1  0  0  0  0
 16 13  1  0  0  0  0
 16 19  1  0  0  0  0
 17 12  1  0  0  0  0
 19 22  1  0  0  0  0
 19  8  1  0  0  0  0
 20  9  2  0  0  0  0
 21 18  1  0  0  0  0
 22  8  1  0  0  0  0
 22 15  1  0  0  0  0
 22  7  1  0  0  0  0
 23 12  1  0  0  0  0
 23  8  1  0  0  0  0
 24 25  1  0  0  0  0
 25 15  1  0  0  0  0
 26  6  1  0  0  0  0
 27 26  1  0  0  0  0
 28 29  2  0  0  0  0
 29 26  1  0  0  0  0
 30 31  1  0  0  0  0
 31 32  1  0  0  0  0
 32 33  1  0  0  0  0
 34 33  1  0  0  0  0
 35 34  1  0  0  0  0
 36 35  1  0  0  0  0
 36 42  1  0  0  0  0
 37 36  1  0  0  0  0
 38 37  2  0  0  0  0
 39 37  1  0  0  0  0
 42 40  2  0  0  0  0
 42 41  1  0  0  0  0
M  END
>  <MODEL>
4

>  <REMARK>
 VINA RESULT:      -7.4      2.320      7.080
  Name = 
  13 active torsions:
  status: ('A' for Active; 'I' for Inactive)
    1  A    between atoms: C_1  and  C_18
    2  A    between atoms: C_1  and  C_21
    3  A    between atoms: C_3  and  C_5
    4  A    between atoms: C_3  and  C_16
    5  A    between atoms: C_3  and  C_34
    6  A    between atoms: C_6  and  N_24
    7  A    between atoms: C_8  and  C_23
    8  A    between atoms: C_15  and  C_29
    9  A    between atoms: C_16  and  C_41
   10  A    between atoms: C_18  and  C_41
   11  A    between atoms: C_21  and  N_24
   12  A    between atoms: N_25  and  C_31
   13  A    between atoms: C_31  and  C_38
                            x       y       z     vdW  Elec       q    Type
                         _______ _______ _______ _____ _____    ______ ____

>  <TORSDO>
F 13

$$$$
=
 OpenBabel10232410593D

 42 48  0  0  1  0  0  0  0  0999 V2000
  187.0770  178.4720  140.3160 C   0  0  0  0  0  0  0  0  0  0  0  0
  186.2950  178.9330  141.3880 C   0  0  0  0  0  3  0  0  0  0  0  0
  186.4510  178.1170  139.0950 C   0  0  0  0  0  0  0  0  0  0  0  0
  184.9070  179.0250  141.2710 C   0  0  0  0  0  3  0  0  0  0  0  0
  185.0500  178.2030  139.0020 C   0  0  0  0  0  3  0  0  0  0  0  0
  184.2770  178.6430  140.0810 C   0  0  0  0  0  0  0  0  0  0  0  0
  190.0370  175.9400  136.6790 C   0  0  1  0  0  0  0  0  0  0  0  0
  192.4240  176.0170  136.2950 C   0  0  1  0  0  0  0  0  0  0  0  0
  187.2300  177.6880  137.9020 C   0  0  0  0  0  0  0  0  0  0  0  0
  188.5040  177.0600  134.9620 C   0  0  0  0  0  2  0  0  0  0  0  0
  189.9140  176.9890  135.5470 C   0  0  0  0  0  2  0  0  0  0  0  0
  193.2750  176.1490  137.6070 C   0  0  1  0  0  3  0  0  0  0  0  0
  194.2570  174.5680  136.8640 C   0  0  2  0  0  3  0  0  0  0  0  0
  189.3830  176.2310  138.0040 C   0  0  0  0  0  3  0  0  0  0  0  0
  189.9960  174.5500  136.1530 C   0  0  1  0  0  3  0  0  0  0  0  0
  193.2870  173.7040  136.0890 C   0  0  0  0  0  2  0  0  0  0  0  0
  193.6750  174.8860  138.1000 O   0  0  0  0  0  0  0  0  0  0  0  0
  187.7440  178.2710  135.4970 C   0  0  0  0  0  2  0  0  0  0  0  0
  192.1830  174.6690  135.6500 C   0  0  1  0  0  3  0  0  0  0  0  0
  188.2990  176.9480  138.0290 C   0  0  0  0  0  0  0  0  0  0  0  0
  186.6760  177.8530  136.5120 C   0  0  0  0  0  2  0  0  0  0  0  0
  191.3040  175.0350  136.8130 C   0  0  1  0  0  0  0  0  0  0  0  0
  193.9520  175.9220  136.3280 C   0  0  1  0  0  3  0  0  0  0  0  0
  187.9160  173.2520  136.5440 C   0  0  0  0  0  1  0  0  0  0  0  0
  189.3060  173.5460  137.0680 C   0  0  0  0  0  2  0  0  0  0  0  0
  182.7860  178.7430  139.9170 C   0  0  1  0  0  3  0  0  0  0  0  0
  182.0690  178.8560  141.2590 C   0  0  0  0  0  1  0  0  0  0  0  0
  183.1270  180.7880  138.9100 O   0  0  0  0  0  0  0  0  0  0  0  0
  182.4190  179.8330  139.0390 N   0  0  0  0  0  0  0  0  0  0  0  0
  188.4920  178.3250  140.4770 N   0  0  0  0  0  2  0  0  0  0  0  0
  189.1370  178.0870  141.7610 C   0  0  0  0  0  2  0  0  0  0  0  0
  189.0910  176.6040  142.0910 C   0  0  0  0  0  2  0  0  0  0  0  0
  188.1630  176.3280  143.2670 C   0  0  0  0  0  2  0  0  0  0  0  0
  188.1600  177.4870  144.2550 C   0  0  0  0  0  2  0  0  0  0  0  0
  187.0110  177.3630  145.2470 C   0  0  0  0  0  2  0  0  0  0  0  0
  187.2300  178.2560  146.4640 C   0  0  0  0  0  3  0  0  0  0  0  0
  185.9380  178.8150  146.9710 C   0  0  0  0  0  0  0  0  0  0  0  0
  185.9190  179.9550  147.5010 O   0  0  0  0  0  1  0  0  0  0  0  0
  184.7600  178.0850  146.8620 O   0  0  0  0  0  0  0  0  0  0  0  0
  187.6340  177.7080  148.7460 O   0  0  0  0  0  1  0  0  0  0  0  0
  188.9280  176.5820  147.2260 O   0  0  0  0  0  0  0  0  0  0  0  0
  187.9430  177.5090  147.5420 C   0  0  0  0  0  0  0  0  0  0  0  0
  1 30  1  0  0  0  0
  1  2  1  0  0  0  0
  3  1  2  0  0  0  0
  4  2  2  0  0  0  0
  5  3  1  0  0  0  0
  5  6  2  0  0  0  0
  6  4  1  0  0  0  0
  7 11  1  6  0  0  0
  7 22  1  0  0  0  0
  7 14  1  0  0  0  0
  8 23  1  0  0  0  0
  8 22  1  0  0  0  0
  8 12  1  0  0  0  0
  9 20  2  0  0  0  0
  9  3  1  0  0  0  0
 10 18  1  0  0  0  0
 10 11  1  0  0  0  0
 12 17  1  0  0  0  0
 13 17  1  0  0  0  0
 14 20  2  0  0  0  0
 15  7  1  0  0  0  0
 15 22  1  0  0  0  0
 15 25  1  0  0  0  0
 16 13  1  0  0  0  0
 18 21  1  0  0  0  0
 19 16  1  0  0  0  0
 19  8  1  0  0  0  0
 19 22  1  0  0  0  0
 21  9  1  0  0  0  0
 23 13  1  0  0  0  0
 23 12  1  0  0  0  0
 24 25  1  0  0  0  0
 26  6  1  0  0  0  0
 26 27  1  0  0  0  0
 28 29  2  0  0  0  0
 29 26  1  0  0  0  0
 30 31  1  0  0  0  0
 31 32  1  0  0  0  0
 32 33  1  0  0  0  0
 33 34  1  0  0  0  0
 34 35  1  0  0  0  0
 35 36  1  0  0  0  0
 36 37  1  0  0  0  0
 36 42  1  0  0  0  0
 37 38  1  0  0  0  0
 39 37  2  0  0  0  0
 41 42  2  0  0  0  0
 42 40  1  0  0  0  0
M  END
>  <MODEL>
5

>  <REMARK>
 VINA RESULT:      -7.3      2.762      7.161
  Name = 
  13 active torsions:
  status: ('A' for Active; 'I' for Inactive)
    1  A    between atoms: C_1  and  C_18
    2  A    between atoms: C_1  and  C_21
    3  A    between atoms: C_3  and  C_5
    4  A    between atoms: C_3  and  C_16
    5  A    between atoms: C_3  and  C_34
    6  A    between atoms: C_6  and  N_24
    7  A    between atoms: C_8  and  C_23
    8  A    between atoms: C_15  and  C_29
    9  A    between atoms: C_16  and  C_41
   10  A    between atoms: C_18  and  C_41
   11  A    between atoms: C_21  and  N_24
   12  A    between atoms: N_25  and  C_31
   13  A    between atoms: C_31  and  C_38
                            x       y       z     vdW  Elec       q    Type
                         _______ _______ _______ _____ _____    ______ ____

>  <TORSDO>
F 13

$$$$
=
 OpenBabel10232410593D

 42 48  0  0  1  0  0  0  0  0999 V2000
  184.5080  178.3970  141.9250 C   0  0  0  0  0  0  0  0  0  0  0  0
  184.1390  178.8690  143.1950 C   0  0  0  0  0  3  0  0  0  0  0  0
  183.5120  178.1770  140.9430 C   0  0  0  0  0  0  0  0  0  0  0  0
  182.7980  179.1000  143.5080 C   0  0  0  0  0  3  0  0  0  0  0  0
  182.1660  178.4030  141.2820 C   0  0  0  0  0  3  0  0  0  0  0  0
  181.8030  178.8520  142.5560 C   0  0  0  0  0  0  0  0  0  0  0  0
  183.4840  175.2760  137.0670 C   0  0  1  0  0  0  0  0  0  0  0  0
  184.2340  173.1180  136.2730 C   0  0  1  0  0  0  0  0  0  0  0  0
  183.8460  177.7440  139.5580 C   0  0  0  0  0  0  0  0  0  0  0  0
  184.9040  177.3280  136.4980 C   0  0  0  0  0  2  0  0  0  0  0  0
  184.8780  175.8090  136.6560 C   0  0  0  0  0  2  0  0  0  0  0  0
  183.9360  171.9370  137.2640 C   0  0  1  0  0  3  0  0  0  0  0  0
  183.1130  171.0830  135.6480 C   0  0  2  0  0  3  0  0  0  0  0  0
  182.9970  175.5390  138.4680 C   0  0  0  0  0  3  0  0  0  0  0  0
  182.5100  175.3510  135.9470 C   0  0  1  0  0  3  0  0  0  0  0  0
  182.5090  172.1610  134.7750 C   0  0  0  0  0  2  0  0  0  0  0  0
  182.7050  171.3070  136.9720 O   0  0  0  0  0  0  0  0  0  0  0  0
  185.5480  177.9990  137.7080 C   0  0  0  0  0  2  0  0  0  0  0  0
  183.3070  173.4210  135.1160 C   0  0  1  0  0  3  0  0  0  0  0  0
  183.3760  176.6260  139.0740 C   0  0  0  0  0  0  0  0  0  0  0  0
  184.4990  178.6890  138.5860 C   0  0  0  0  0  2  0  0  0  0  0  0
  182.9100  173.9530  136.4650 C   0  0  1  0  0  0  0  0  0  0  0  0
  184.4620  171.6430  135.9290 C   0  0  1  0  0  3  0  0  0  0  0  0
  180.1430  174.6180  135.7950 C   0  0  0  0  0  1  0  0  0  0  0  0
  181.0790  175.6600  136.3710 C   0  0  0  0  0  2  0  0  0  0  0  0
  180.3520  179.1050  142.8540 C   0  0  1  0  0  3  0  0  0  0  0  0
  179.9820  178.7000  144.2790 C   0  0  0  0  0  1  0  0  0  0  0  0
  180.2150  180.9920  141.5380 O   0  0  0  0  0  0  0  0  0  0  0  0
  179.9870  180.4810  142.5940 N   0  0  0  0  0  0  0  0  0  0  0  0
  185.8820  178.1050  141.6450 N   0  0  0  0  0  2  0  0  0  0  0  0
  186.9890  178.5670  142.4700 C   0  0  0  0  0  2  0  0  0  0  0  0
  188.0030  177.4470  142.6450 C   0  0  0  0  0  2  0  0  0  0  0  0
  189.3950  178.0000  142.9180 C   0  0  0  0  0  2  0  0  0  0  0  0
  189.7910  177.8090  144.3760 C   0  0  0  0  0  2  0  0  0  0  0  0
  188.6920  177.0980  145.1570 C   0  0  0  0  0  2  0  0  0  0  0  0
  188.1160  177.9980  146.2470 C   0  0  0  0  0  3  0  0  0  0  0  0
  186.6270  178.0990  146.1390 C   0  0  0  0  0  0  0  0  0  0  0  0
  185.9620  177.1040  145.7520 O   0  0  0  0  0  0  0  0  0  0  0  0
  185.9730  179.2830  146.4630 O   0  0  0  0  0  1  0  0  0  0  0  0
  189.5450  176.7920  147.7200 O   0  0  0  0  0  0  0  0  0  0  0  0
  187.7770  177.8500  148.7230 O   0  0  0  0  0  1  0  0  0  0  0  0
  188.5170  177.5070  147.5980 C   0  0  0  0  0  0  0  0  0  0  0  0
  1  2  1  0  0  0  0
  2  4  2  0  0  0  0
  3  5  1  0  0  0  0
  3  1  2  0  0  0  0
  5  6  2  0  0  0  0
  6 26  1  0  0  0  0
  6  4  1  0  0  0  0
  7 11  1  6  0  0  0
  7 14  1  0  0  0  0
  8 22  1  0  0  0  0
  8 12  1  0  0  0  0
  9  3  1  0  0  0  0
 10 11  1  0  0  0  0
 10 18  1  0  0  0  0
 13 23  1  0  0  0  0
 13 17  1  0  0  0  0
 14 20  2  0  0  0  0
 15 25  1  0  0  0  0
 15 22  1  0  0  0  0
 15  7  1  0  0  0  0
 16 19  1  0  0  0  0
 16 13  1  0  0  0  0
 17 12  1  0  0  0  0
 18 21  1  0  0  0  0
 19  8  1  0  0  0  0
 19 22  1  0  0  0  0
 20  9  2  0  0  0  0
 21  9  1  0  0  0  0
 22  7  1  0  0  0  0
 23  8  1  0  0  0  0
 23 12  1  0  0  0  0
 24 25  1  0  0  0  0
 26 27  1  0  0  0  0
 28 29  2  0  0  0  0
 29 26  1  0  0  0  0
 30  1  1  0  0  0  0
 30 31  1  0  0  0  0
 31 32  1  0  0  0  0
 32 33  1  0  0  0  0
 33 34  1  0  0  0  0
 34 35  1  0  0  0  0
 35 36  1  0  0  0  0
 36 42  1  0  0  0  0
 37 36  1  0  0  0  0
 37 39  1  0  0  0  0
 38 37  2  0  0  0  0
 42 40  2  0  0  0  0
 42 41  1  0  0  0  0
M  END
>  <MODEL>
6

>  <REMARK>
 VINA RESULT:      -7.2      3.452      7.995
  Name = 
  13 active torsions:
  status: ('A' for Active; 'I' for Inactive)
    1  A    between atoms: C_1  and  C_18
    2  A    between atoms: C_1  and  C_21
    3  A    between atoms: C_3  and  C_5
    4  A    between atoms: C_3  and  C_16
    5  A    between atoms: C_3  and  C_34
    6  A    between atoms: C_6  and  N_24
    7  A    between atoms: C_8  and  C_23
    8  A    between atoms: C_15  and  C_29
    9  A    between atoms: C_16  and  C_41
   10  A    between atoms: C_18  and  C_41
   11  A    between atoms: C_21  and  N_24
   12  A    between atoms: N_25  and  C_31
   13  A    between atoms: C_31  and  C_38
                            x       y       z     vdW  Elec       q    Type
                         _______ _______ _______ _____ _____    ______ ____

>  <TORSDO>
F 13

$$$$
=
 OpenBabel10232410593D

 42 48  0  0  1  0  0  0  0  0999 V2000
  186.7110  178.6920  140.6770 C   0  0  0  0  0  0  0  0  0  0  0  0
  185.9310  179.0490  141.7890 C   0  0  0  0  0  3  0  0  0  0  0  0
  186.0800  178.2230  139.4990 C   0  0  0  0  0  0  0  0  0  0  0  0
  184.5400  178.9250  141.7530 C   0  0  0  0  0  3  0  0  0  0  0  0
  184.6790  178.0920  139.4880 C   0  0  0  0  0  3  0  0  0  0  0  0
  183.9100  178.4290  140.6060 C   0  0  0  0  0  0  0  0  0  0  0  0
  189.6030  176.2020  136.8650 C   0  0  1  0  0  0  0  0  0  0  0  0
  191.9910  176.2510  136.4850 C   0  0  1  0  0  0  0  0  0  0  0  0
  186.8460  177.8950  138.2660 C   0  0  0  0  0  0  0  0  0  0  0  0
  188.1030  177.5330  135.2750 C   0  0  0  0  0  2  0  0  0  0  0  0
  189.5100  177.3630  135.8460 C   0  0  0  0  0  2  0  0  0  0  0  0
  192.8460  176.2250  137.8020 C   0  0  1  0  0  3  0  0  0  0  0  0
  193.7830  174.7000  136.9000 C   0  0  2  0  0  3  0  0  0  0  0  0
  188.9580  176.3750  138.2150 C   0  0  0  0  0  3  0  0  0  0  0  0
  189.5230  174.8750  136.2010 C   0  0  1  0  0  3  0  0  0  0  0  0
  192.7890  173.9480  136.0440 C   0  0  0  0  0  2  0  0  0  0  0  0
  193.2100  174.9080  138.1630 O   0  0  0  0  0  0  0  0  0  0  0  0
  187.3770  178.7040  135.9310 C   0  0  0  0  0  2  0  0  0  0  0  0
  191.7130  174.9830  135.7080 C   0  0  1  0  0  3  0  0  0  0  0  0
  187.8940  177.1170  138.3160 C   0  0  0  0  0  0  0  0  0  0  0  0
  186.2980  178.2160  136.9020 C   0  0  0  0  0  2  0  0  0  0  0  0
  190.8440  175.2530  136.9040 C   0  0  1  0  0  0  0  0  0  0  0  0
  193.5160  176.1100  136.5050 C   0  0  1  0  0  3  0  0  0  0  0  0
  187.4150  173.5880  136.4520 C   0  0  0  0  0  1  0  0  0  0  0  0
  188.8050  173.8020  137.0120 C   0  0  0  0  0  2  0  0  0  0  0  0
  182.4150  178.2970  140.5290 C   0  0  1  0  0  3  0  0  0  0  0  0
  181.7850  179.4010  139.6850 C   0  0  0  0  0  1  0  0  0  0  0  0
  181.5190  176.8500  138.9740 O   0  0  0  0  0  0  0  0  0  0  0  0
  182.0200  176.9890  140.0500 N   0  0  0  0  0  0  0  0  0  0  0  0
  188.1390  178.7660  140.7570 N   0  0  0  0  0  2  0  0  0  0  0  0
  188.9130  178.2550  141.8800 C   0  0  0  0  0  2  0  0  0  0  0  0
  188.4680  176.8380  142.2070 C   0  0  0  0  0  2  0  0  0  0  0  0
  188.2060  176.6720  143.6980 C   0  0  0  0  0  2  0  0  0  0  0  0
  188.7170  177.8710  144.4870 C   0  0  0  0  0  2  0  0  0  0  0  0
  189.5510  177.4280  145.6840 C   0  0  0  0  0  2  0  0  0  0  0  0
  190.8140  176.6970  145.2380 C   0  0  0  0  0  3  0  0  0  0  0  0
  191.5890  177.5030  144.2440 C   0  0  0  0  0  0  0  0  0  0  0  0
  191.9240  178.6820  144.5260 O   0  0  0  0  0  1  0  0  0  0  0  0
  191.9400  176.9610  143.0130 O   0  0  0  0  0  0  0  0  0  0  0  0
  192.3860  175.3210  146.3810 O   0  0  0  0  0  0  0  0  0  0  0  0
  191.6760  177.1660  147.5410 O   0  0  0  0  0  1  0  0  0  0  0  0
  191.6630  176.3510  146.4160 C   0  0  0  0  0  0  0  0  0  0  0  0
  1 30  1  0  0  0  0
  1  2  1  0  0  0  0
  3  1  2  0  0  0  0
  4  2  2  0  0  0  0
  5  3  1  0  0  0  0
  5  6  2  0  0  0  0
  6  4  1  0  0  0  0
  7 11  1  6  0  0  0
  7 22  1  0  0  0  0
  7 14  1  0  0  0  0
  8 23  1  0  0  0  0
  8 22  1  0  0  0  0
  8 12  1  0  0  0  0
  9 20  2  0  0  0  0
  9  3  1  0  0  0  0
 10 11  1  0  0  0  0
 10 18  1  0  0  0  0
 12 17  1  0  0  0  0
 13 17  1  0  0  0  0
 14 20  2  0  0  0  0
 15  7  1  0  0  0  0
 15 22  1  0  0  0  0
 15 25  1  0  0  0  0
 16 13  1  0  0  0  0
 18 21  1  0  0  0  0
 19 16  1  0  0  0  0
 19  8  1  0  0  0  0
 19 22  1  0  0  0  0
 21  9  1  0  0  0  0
 23 13  1  0  0  0  0
 23 12  1  0  0  0  0
 24 25  1  0  0  0  0
 26  6  1  0  0  0  0
 27 26  1  0  0  0  0
 28 29  2  0  0  0  0
 29 26  1  0  0  0  0
 30 31  1  0  0  0  0
 31 32  1  0  0  0  0
 32 33  1  0  0  0  0
 33 34  1  0  0  0  0
 34 35  1  0  0  0  0
 36 35  1  0  0  0  0
 36 42  1  0  0  0  0
 37 38  1  0  0  0  0
 37 36  1  0  0  0  0
 39 37  2  0  0  0  0
 40 42  2  0  0  0  0
 42 41  1  0  0  0  0
M  END
>  <MODEL>
7

>  <REMARK>
 VINA RESULT:      -7.1      2.690      7.382
  Name = 
  13 active torsions:
  status: ('A' for Active; 'I' for Inactive)
    1  A    between atoms: C_1  and  C_18
    2  A    between atoms: C_1  and  C_21
    3  A    between atoms: C_3  and  C_5
    4  A    between atoms: C_3  and  C_16
    5  A    between atoms: C_3  and  C_34
    6  A    between atoms: C_6  and  N_24
    7  A    between atoms: C_8  and  C_23
    8  A    between atoms: C_15  and  C_29
    9  A    between atoms: C_16  and  C_41
   10  A    between atoms: C_18  and  C_41
   11  A    between atoms: C_21  and  N_24
   12  A    between atoms: N_25  and  C_31
   13  A    between atoms: C_31  and  C_38
                            x       y       z     vdW  Elec       q    Type
                         _______ _______ _______ _____ _____    ______ ____

>  <TORSDO>
F 13

$$$$
=
 OpenBabel10232410593D

 42 48  0  0  1  0  0  0  0  0999 V2000
  188.8840  177.5610  139.2400 C   0  0  0  0  0  0  0  0  0  0  0  0
  190.0680  177.5490  139.9960 C   0  0  0  0  0  3  0  0  0  0  0  0
  188.8460  176.8990  137.9880 C   0  0  0  0  0  0  0  0  0  0  0  0
  191.2140  176.9120  139.5170 C   0  0  0  0  0  3  0  0  0  0  0  0
  190.0150  176.2750  137.5170 C   0  0  0  0  0  3  0  0  0  0  0  0
  191.1960  176.2850  138.2650 C   0  0  0  0  0  0  0  0  0  0  0  0
  184.6940  174.9840  136.3990 C   0  0  1  0  0  0  0  0  0  0  0  0
  183.7850  173.1070  135.1730 C   0  0  1  0  0  0  0  0  0  0  0  0
  187.6040  176.8170  137.1730 C   0  0  0  0  0  0  0  0  0  0  0  0
  185.0780  177.1760  135.1360 C   0  0  0  0  0  2  0  0  0  0  0  0
  184.9040  175.6620  135.0240 C   0  0  0  0  0  2  0  0  0  0  0  0
  184.3500  171.7150  135.6280 C   0  0  1  0  0  3  0  0  0  0  0  0
  182.4120  171.2240  135.7710 C   0  0  2  0  0  3  0  0  0  0  0  0
  185.8640  174.8900  137.3430 C   0  0  0  0  0  3  0  0  0  0  0  0
  183.3470  175.2720  136.9590 C   0  0  1  0  0  3  0  0  0  0  0  0
  181.6240  172.4460  136.1870 C   0  0  0  0  0  2  0  0  0  0  0  0
  183.5310  171.1140  136.6110 O   0  0  0  0  0  0  0  0  0  0  0  0
  186.5450  177.5760  135.0070 C   0  0  0  0  0  2  0  0  0  0  0  0
  182.4670  173.6280  135.7040 C   0  0  1  0  0  3  0  0  0  0  0  0
  186.7700  175.8220  137.3180 C   0  0  0  0  0  0  0  0  0  0  0  0
  187.1290  177.9920  136.3600 C   0  0  0  0  0  2  0  0  0  0  0  0
  183.6750  173.8120  136.5790 C   0  0  1  0  0  0  0  0  0  0  0  0
  183.2480  171.7660  134.6650 C   0  0  1  0  0  3  0  0  0  0  0  0
  183.2620  176.8710  138.8560 C   0  0  0  0  0  1  0  0  0  0  0  0
  183.3060  175.4060  138.4760 C   0  0  0  0  0  2  0  0  0  0  0  0
  192.4070  175.5770  137.7260 C   0  0  1  0  0  3  0  0  0  0  0  0
  192.2280  175.1660  136.2680 C   0  0  0  0  0  1  0  0  0  0  0  0
  194.1290  176.9090  136.9700 O   0  0  0  0  0  0  0  0  0  0  0  0
  193.6070  176.3680  137.8990 N   0  0  0  0  0  0  0  0  0  0  0  0
  187.7390  178.2750  139.7210 N   0  0  0  0  0  2  0  0  0  0  0  0
  187.5130  178.5860  141.1250 C   0  0  0  0  0  2  0  0  0  0  0  0
  186.0200  178.6750  141.3970 C   0  0  0  0  0  2  0  0  0  0  0  0
  185.7230  178.5810  142.8880 C   0  0  0  0  0  2  0  0  0  0  0  0
  186.6020  177.5370  143.5630 C   0  0  0  0  0  2  0  0  0  0  0  0
  187.3400  178.1270  144.7580 C   0  0  0  0  0  2  0  0  0  0  0  0
  186.7170  177.6700  146.0740 C   0  0  0  0  0  3  0  0  0  0  0  0
  187.7350  177.6210  147.1710 C   0  0  0  0  0  0  0  0  0  0  0  0
  188.6460  176.7550  147.1350 O   0  0  0  0  0  0  0  0  0  0  0  0
  187.6810  178.5230  148.2280 O   0  0  0  0  0  1  0  0  0  0  0  0
  184.5900  178.0740  147.0630 O   0  0  0  0  0  1  0  0  0  0  0  0
  185.6050  179.9120  146.1460 O   0  0  0  0  0  0  0  0  0  0  0  0
  185.5770  178.5570  146.4500 C   0  0  0  0  0  0  0  0  0  0  0  0
  1 30  1  0  0  0  0
  1  2  1  0  0  0  0
  3  1  2  0  0  0  0
  4  2  2  0  0  0  0
  5  3  1  0  0  0  0
  5  6  2  0  0  0  0
  6  4  1  0  0  0  0
  7 11  1  6  0  0  0
  7 22  1  0  0  0  0
  7 15  1  0  0  0  0
  7 14  1  0  0  0  0
  8 12  1  0  0  0  0
  8 19  1  0  0  0  0
  8 22  1  0  0  0  0
  9 20  2  0  0  0  0
  9  3  1  0  0  0  0
 11 10  1  0  0  0  0
 12 17  1  0  0  0  0
 13 16  1  0  0  0  0
 13 17  1  0  0  0  0
 15 25  1  0  0  0  0
 18 10  1  0  0  0  0
 18 21  1  0  0  0  0
 19 16  1  0  0  0  0
 19 22  1  0  0  0  0
 20 14  2  0  0  0  0
 21  9  1  0  0  0  0
 22 15  1  0  0  0  0
 23  8  1  0  0  0  0
 23 12  1  0  0  0  0
 23 13  1  0  0  0  0
 25 24  1  0  0  0  0
 26 29  1  0  0  0  0
 26  6  1  0  0  0  0
 27 26  1  0  0  0  0
 28 29  2  0  0  0  0
 30 31  1  0  0  0  0
 31 32  1  0  0  0  0
 32 33  1  0  0  0  0
 33 34  1  0  0  0  0
 34 35  1  0  0  0  0
 35 36  1  0  0  0  0
 36 42  1  0  0  0  0
 36 37  1  0  0  0  0
 37 39  1  0  0  0  0
 38 37  2  0  0  0  0
 41 42  2  0  0  0  0
 42 40  1  0  0  0  0
M  END
>  <MODEL>
8

>  <REMARK>
 VINA RESULT:      -7.1      3.046      7.896
  Name = 
  13 active torsions:
  status: ('A' for Active; 'I' for Inactive)
    1  A    between atoms: C_1  and  C_18
    2  A    between atoms: C_1  and  C_21
    3  A    between atoms: C_3  and  C_5
    4  A    between atoms: C_3  and  C_16
    5  A    between atoms: C_3  and  C_34
    6  A    between atoms: C_6  and  N_24
    7  A    between atoms: C_8  and  C_23
    8  A    between atoms: C_15  and  C_29
    9  A    between atoms: C_16  and  C_41
   10  A    between atoms: C_18  and  C_41
   11  A    between atoms: C_21  and  N_24
   12  A    between atoms: N_25  and  C_31
   13  A    between atoms: C_31  and  C_38
                            x       y       z     vdW  Elec       q    Type
                         _______ _______ _______ _____ _____    ______ ____

>  <TORSDO>
F 13

$$$$
=
 OpenBabel10232410593D

 42 48  0  0  1  0  0  0  0  0999 V2000
  188.9370  177.5380  139.2640 C   0  0  0  0  0  0  0  0  0  0  0  0
  190.1110  177.5390  140.0360 C   0  0  0  0  0  3  0  0  0  0  0  0
  188.9250  176.8820  138.0090 C   0  0  0  0  0  0  0  0  0  0  0  0
  191.2720  176.9200  139.5690 C   0  0  0  0  0  3  0  0  0  0  0  0
  190.1080  176.2760  137.5500 C   0  0  0  0  0  3  0  0  0  0  0  0
  191.2790  176.2990  138.3140 C   0  0  0  0  0  0  0  0  0  0  0  0
  184.8280  174.9100  136.3460 C   0  0  1  0  0  0  0  0  0  0  0  0
  183.9690  173.0310  135.0880 C   0  0  1  0  0  0  0  0  0  0  0  0
  187.6940  176.7870  137.1770 C   0  0  0  0  0  0  0  0  0  0  0  0
  185.1890  177.1230  135.1110 C   0  0  0  0  0  2  0  0  0  0  0  0
  185.0440  175.6070  134.9810 C   0  0  0  0  0  2  0  0  0  0  0  0
  184.5530  171.6450  135.5350 C   0  0  1  0  0  3  0  0  0  0  0  0
  182.6230  171.1180  135.6480 C   0  0  2  0  0  3  0  0  0  0  0  0
  185.9880  174.8270  137.3040 C   0  0  0  0  0  3  0  0  0  0  0  0
  183.4690  175.1680  136.8910 C   0  0  1  0  0  3  0  0  0  0  0  0
  181.8070  172.3200  136.0670 C   0  0  0  0  0  2  0  0  0  0  0  0
  183.7330  171.0180  136.5000 O   0  0  0  0  0  0  0  0  0  0  0  0
  186.6490  177.5500  135.0060 C   0  0  0  0  0  2  0  0  0  0  0  0
  182.6350  173.5230  135.6070 C   0  0  1  0  0  3  0  0  0  0  0  0
  186.8770  175.7750  137.3010 C   0  0  0  0  0  0  0  0  0  0  0  0
  187.2090  177.9620  136.3710 C   0  0  0  0  0  2  0  0  0  0  0  0
  183.8290  173.7190  136.5000 C   0  0  1  0  0  0  0  0  0  0  0  0
  183.4630  171.6860  134.5590 C   0  0  1  0  0  3  0  0  0  0  0  0
  181.9880  175.5940  138.8370 C   0  0  0  0  0  1  0  0  0  0  0  0
  183.4070  175.2840  138.4090 C   0  0  0  0  0  2  0  0  0  0  0  0
  192.5070  175.6100  137.7880 C   0  0  1  0  0  3  0  0  0  0  0  0
  192.4260  175.3670  136.2840 C   0  0  0  0  0  1  0  0  0  0  0  0
  194.6060  175.8020  138.7190 O   0  0  0  0  0  0  0  0  0  0  0  0
  193.7120  176.3340  138.1320 N   0  0  0  0  0  0  0  0  0  0  0  0
  187.7760  178.2340  139.7330 N   0  0  0  0  0  2  0  0  0  0  0  0
  187.6510  178.7810  141.0760 C   0  0  0  0  0  2  0  0  0  0  0  0
  187.9130  177.6900  142.1020 C   0  0  0  0  0  2  0  0  0  0  0  0
  186.8580  177.7010  143.2000 C   0  0  0  0  0  2  0  0  0  0  0  0
  187.4940  177.6080  144.5810 C   0  0  0  0  0  2  0  0  0  0  0  0
  188.8280  176.8730  144.5240 C   0  0  0  0  0  2  0  0  0  0  0  0
  189.9450  177.7040  145.1490 C   0  0  0  0  0  3  0  0  0  0  0  0
  190.4320  177.0920  146.4250 C   0  0  0  0  0  0  0  0  0  0  0  0
  191.6640  176.9050  146.5950 O   0  0  0  0  0  0  0  0  0  0  0  0
  189.5350  176.7270  147.4220 O   0  0  0  0  0  1  0  0  0  0  0  0
  191.3880  176.9320  143.4190 O   0  0  0  0  0  0  0  0  0  0  0  0
  191.7540  179.0870  144.1090 O   0  0  0  0  0  1  0  0  0  0  0  0
  191.0700  177.8800  144.1830 C   0  0  0  0  0  0  0  0  0  0  0  0
  1 30  1  0  0  0  0
  1  2  1  0  0  0  0
  3  1  2  0  0  0  0
  4  2  2  0  0  0  0
  5  3  1  0  0  0  0
  5  6  2  0  0  0  0
  6  4  1  0  0  0  0
  7 11  1  6  0  0  0
  7 22  1  0  0  0  0
  7 15  1  0  0  0  0
  7 14  1  0  0  0  0
  8 12  1  0  0  0  0
  8 19  1  0  0  0  0
  8 22  1  0  0  0  0
  9 20  2  0  0  0  0
  9  3  1  0  0  0  0
 11 10  1  0  0  0  0
 12 17  1  0  0  0  0
 13 16  1  0  0  0  0
 13 17  1  0  0  0  0
 15 25  1  0  0  0  0
 18 10  1  0  0  0  0
 18 21  1  0  0  0  0
 19 16  1  0  0  0  0
 19 22  1  0  0  0  0
 20 14  2  0  0  0  0
 21  9  1  0  0  0  0
 22 15  1  0  0  0  0
 23  8  1  0  0  0  0
 23 12  1  0  0  0  0
 23 13  1  0  0  0  0
 25 24  1  0  0  0  0
 26 29  1  0  0  0  0
 26  6  1  0  0  0  0
 27 26  1  0  0  0  0
 29 28  2  0  0  0  0
 30 31  1  0  0  0  0
 31 32  1  0  0  0  0
 32 33  1  0  0  0  0
 33 34  1  0  0  0  0
 35 34  1  0  0  0  0
 35 36  1  0  0  0  0
 36 37  1  0  0  0  0
 37 38  2  0  0  0  0
 37 39  1  0  0  0  0
 40 42  2  0  0  0  0
 41 42  1  0  0  0  0
 42 36  1  0  0  0  0
M  END
>  <MODEL>
9

>  <REMARK>
 VINA RESULT:      -7.1      3.372      8.025
  Name = 
  13 active torsions:
  status: ('A' for Active; 'I' for Inactive)
    1  A    between atoms: C_1  and  C_18
    2  A    between atoms: C_1  and  C_21
    3  A    between atoms: C_3  and  C_5
    4  A    between atoms: C_3  and  C_16
    5  A    between atoms: C_3  and  C_34
    6  A    between atoms: C_6  and  N_24
    7  A    between atoms: C_8  and  C_23
    8  A    between atoms: C_15  and  C_29
    9  A    between atoms: C_16  and  C_41
   10  A    between atoms: C_18  and  C_41
   11  A    between atoms: C_21  and  N_24
   12  A    between atoms: N_25  and  C_31
   13  A    between atoms: C_31  and  C_38
                            x       y       z     vdW  Elec       q    Type
                         _______ _______ _______ _____ _____    ______ ____

>  <TORSDO>
F 13

$$$$
