=
 OpenBabel10232410063D

 65 71  0  0  1  0  0  0  0  0999 V2000
  190.9830  176.0090  134.8150 S   0  0  0  0  0  0  0  0  0  0  0  0
  192.1180  177.6490  142.0130 N   0  0  0  0  0  0  0  0  0  0  0  0
  188.5680  176.9220  138.5610 O   0  0  0  0  0  0  0  0  0  0  0  0
  191.1770  177.2370  139.8250 C   0  0  0  0  0  0  0  0  0  0  0  0
  189.5850  176.3950  144.2020 C   0  0  0  0  0  0  0  0  0  0  0  0
  189.2480  176.6580  145.4700 N   0  0  0  0  0  0  0  0  0  0  0  0
  188.8990  176.0600  139.6120 C   0  0  0  0  0  2  0  0  0  0  0  0
  191.2980  177.5070  138.3530 C   0  0  0  0  0  2  0  0  0  0  0  0
  190.0340  176.6280  140.4130 C   0  0  0  0  0  0  0  0  0  0  0  0
  187.9400  176.1560  137.6310 N   0  0  2  0  0  0  0  0  0  0  0  0
  191.1880  176.2360  137.5310 C   0  0  2  0  0  3  0  0  0  0  0  0
  189.9970  176.5390  141.8070 C   0  0  0  0  0  0  0  0  0  0  0  0
  190.3090  177.3230  145.9380 N   0  0  0  0  0  0  0  0  0  0  0  0
  192.2620  175.0850  135.7000 C   0  0  2  0  0  3  0  0  0  0  0  0
  188.9310  175.5410  136.7070 C   0  0  2  0  0  3  0  0  0  0  0  0
  192.1960  177.7470  140.6550 C   0  0  0  0  0  3  0  0  0  0  0  0
  192.5390  175.8730  136.9490 C   0  0  0  0  0  2  0  0  0  0  0  0
  188.7090  176.0050  142.8150 S   0  0  0  0  0  0  0  0  0  0  0  0
  190.7700  176.9370  143.9250 C   0  0  0  0  0  0  0  0  0  0  0  0
  191.0490  177.0430  142.5760 C   0  0  0  0  0  0  0  0  0  0  0  0
  191.2500  177.5480  145.0140 N   0  0  0  0  0  0  0  0  0  0  0  0
  190.1670  176.4220  136.4060 C   0  0  2  0  0  3  0  0  0  0  0  0
  187.0360  177.0500  136.9090 C   0  0  2  0  0  3  0  0  0  0  0  0
  185.6330  176.7710  137.3010 C   0  0  2  0  0  3  0  0  0  0  0  0
  186.1770  176.2790  136.1020 O   0  0  0  0  0  0  0  0  0  0  0  0
  184.7310  177.9480  136.9810 C   0  0  2  0  0  3  0  0  0  0  0  0
  184.7750  178.9560  138.1120 C   0  0  0  0  0  1  0  0  0  0  0  0
  183.3030  177.4410  136.8130 C   0  0  0  0  0  2  0  0  0  0  0  0
  182.4730  177.5860  138.0880 C   0  0  1  0  0  3  0  0  0  0  0  0
  181.1510  177.9270  137.7800 O   0  0  0  0  0  0  0  0  0  0  0  0
  181.2450  179.1540  137.1090 C   0  0  0  0  0  1  0  0  0  0  0  0
  182.5150  176.3080  138.9140 C   0  0  0  0  0  2  0  0  0  0  0  0
  181.1170  175.7510  139.0740 C   0  0  0  0  0  2  0  0  0  0  0  0
  180.8630  174.7760  138.0270 N   0  0  0  0  0  1  0  0  0  0  0  0
  188.2550  174.9380  135.4700 C   0  0  0  0  0  2  0  0  0  0  0  0
  188.1290  173.5530  135.6040 O   0  0  0  0  0  0  0  0  0  0  0  0
  187.5580  171.0270  135.7720 O   0  0  0  0  0  1  0  0  0  0  0  0
  185.8570  172.7380  135.8830 C   0  0  1  0  0  0  0  0  0  0  0  0
  186.6070  171.7270  135.0220 C   0  0  1  0  0  3  0  0  0  0  0  0
  186.1600  172.7910  137.3800 C   0  0  0  0  0  1  0  0  0  0  0  0
  186.9410  173.2290  134.9290 C   0  0  2  0  0  3  0  0  0  0  0  0
  184.4460  173.0740  135.4180 C   0  0  0  0  0  2  0  0  0  0  0  0
  183.5550  171.8370  135.3550 C   0  0  0  0  0  2  0  0  0  0  0  0
  182.8490  171.0690  137.4980 F   0  0  0  0  0  0  0  0  0  0  0  0
  182.4780  171.8680  136.4300 C   0  0  0  0  0  2  0  0  0  0  0  0
  193.4200  174.9890  134.9260 O   0  0  0  0  0  0  0  0  0  0  0  0
  194.0030  176.2550  135.0110 C   0  0  0  0  0  2  0  0  0  0  0  0
  196.0110  177.4220  134.4680 O   0  0  0  0  0  1  0  0  0  0  0  0
  195.5120  176.1670  134.8090 C   0  0  1  0  0  3  0  0  0  0  0  0
  197.5810  176.1020  136.0500 O   0  0  0  0  0  1  0  0  0  0  0  0
  196.2690  175.6150  136.0210 C   0  0  2  0  0  3  0  0  0  0  0  0
  197.0610  173.5020  135.1540 O   0  0  0  0  0  1  0  0  0  0  0  0
  196.2360  174.0850  136.1240 C   0  0  1  0  0  3  0  0  0  0  0  0
  196.7830  173.5590  137.7760 P   0  0  0  0  0  0  0  0  0  0  0  0
  198.4220  173.1410  137.7320 O   0  0  0  0  0  0  0  0  0  0  0  0
  196.5520  174.8240  138.8760 O   0  0  0  0  0  1  0  0  0  0  0  0
  195.9760  172.3580  138.2150 O   0  0  0  0  0  1  0  0  0  0  0  0
  190.3690  177.8580  147.2920 C   0  0  2  0  0  3  0  0  0  0  0  0
  191.6520  177.5220  147.9000 N   0  0  0  0  0  2  0  0  0  0  0  0
  192.1330  176.1800  147.9870 C   0  0  0  0  0  0  0  0  0  0  0  0
  191.4930  175.2340  147.4550 O   0  0  0  0  0  0  0  0  0  0  0  0
  193.1260  175.3850  150.0910 C   0  0  0  0  0  1  0  0  0  0  0  0
  193.4110  175.9010  148.6960 C   0  0  0  0  0  2  0  0  0  0  0  0
  188.2050  178.3770  148.4140 C   0  0  0  0  0  1  0  0  0  0  0  0
  189.2270  177.2970  148.1220 C   0  0  0  0  0  2  0  0  0  0  0  0
  1 14  1  0  0  0  0
  2 20  1  0  0  0  0
  3  7  1  0  0  0  0
  4  9  2  0  0  0  0
  4 16  1  0  0  0  0
  5  6  2  0  0  0  0
  6 13  1  0  0  0  0
  7  9  1  0  0  0  0
  8  4  1  0  0  0  0
  9 12  1  0  0  0  0
 10  3  1  1  0  0  0
 11 17  1  6  0  0  0
 11  8  1  0  0  0  0
 12 20  2  0  0  0  0
 12 18  1  0  0  0  0
 13 58  1  0  0  0  0
 14 46  1  6  0  0  0
 14 17  1  0  0  0  0
 15 35  1  6  0  0  0
 15 10  1  0  0  0  0
 16  2  2  0  0  0  0
 18  5  1  0  0  0  0
 19  5  1  0  0  0  0
 19 21  2  0  0  0  0
 20 19  1  0  0  0  0
 21 13  1  0  0  0  0
 22  1  1  6  0  0  0
 22 15  1  0  0  0  0
 22 11  1  0  0  0  0
 23 25  1  6  0  0  0
 23 24  1  0  0  0  0
 23 10  1  0  0  0  0
 24 26  1  6  0  0  0
 25 24  1  0  0  0  0
 26 27  1  1  0  0  0
 28 26  1  0  0  0  0
 29 28  1  6  0  0  0
 29 32  1  0  0  0  0
 30 29  1  0  0  0  0
 31 30  1  0  0  0  0
 32 33  1  0  0  0  0
 34 33  1  0  0  0  0
 35 36  1  0  0  0  0
 38 40  1  1  0  0  0
 39 37  1  1  0  0  0
 39 38  1  0  0  0  0
 41 39  1  0  0  0  0
 41 36  1  1  0  0  0
 41 38  1  0  0  0  0
 42 38  1  0  0  0  0
 43 42  1  0  0  0  0
 43 45  1  0  0  0  0
 45 44  1  0  0  0  0
 46 47  1  0  0  0  0
 49 48  1  1  0  0  0
 49 47  1  0  0  0  0
 49 51  1  0  0  0  0
 51 50  1  6  0  0  0
 51 53  1  0  0  0  0
 53 52  1  6  0  0  0
 53 54  1  0  0  0  0
 54 57  1  0  0  0  0
 54 56  1  0  0  0  0
 55 54  2  0  0  0  0
 58 59  1  0  0  0  0
 58 65  1  1  0  0  0
 59 60  1  0  0  0  0
 60 63  1  0  0  0  0
 61 60  2  0  0  0  0
 63 62  1  0  0  0  0
 65 64  1  0  0  0  0
M  END
>  <MODEL>
1

>  <REMARK>
 VINA RESULT:      -4.7      0.000      0.000
  Name = 
  23 active torsions:
  status: ('A' for Active; 'I' for Inactive)
    1  A    between atoms: C_1  and  C_58
    2  A    between atoms: C_4  and  C_5
    3  A    between atoms: C_4  and  C_41
    4  A    between atoms: C_5  and  C_32
    5  A    between atoms: C_8  and  O_10
    6  A    between atoms: C_8  and  C_45
    7  A    between atoms: O_10  and  C_65
    8  A    between atoms: P_11  and  C_55
    9  A    between atoms: C_13  and  C_60
   10  A    between atoms: N_15  and  C_44
   11  A    between atoms: C_17  and  N_36
   12  A    between atoms: O_19  and  C_41
   13  A    between atoms: C_22  and  O_24
   14  A    between atoms: C_22  and  C_54
   15  A    between atoms: O_24  and  C_43
   16  A    between atoms: C_27  and  C_52
   17  A    between atoms: C_29  and  C_54
   18  A    between atoms: C_29  and  C_55
   19  A    between atoms: C_37  and  C_51
   20  A    between atoms: C_37  and  C_60
   21  A    between atoms: C_41  and  C_58
   22  A    between atoms: N_42  and  C_44
   23  A    between atoms: C_44  and  C_49
                            x       y       z     vdW  Elec       q    Type
                         _______ _______ _______ _____ _____    ______ ____

>  <TORSDO>
F 23

$$$$
=
 OpenBabel10232410063D

 65 71  0  0  1  0  0  0  0  0999 V2000
  193.3800  173.6280  136.9200 S   0  0  0  0  0  0  0  0  0  0  0  0
  185.9680  174.3060  136.3130 N   0  0  0  0  0  0  0  0  0  0  0  0
  189.9790  176.0260  138.7600 O   0  0  0  0  0  0  0  0  0  0  0  0
  188.2860  174.4590  136.9770 C   0  0  0  0  0  0  0  0  0  0  0  0
  184.7590  177.6150  136.9270 C   0  0  0  0  0  0  0  0  0  0  0  0
  183.5480  178.1230  137.1800 N   0  0  0  0  0  0  0  0  0  0  0  0
  189.2420  176.7070  137.7860 C   0  0  0  0  0  2  0  0  0  0  0  0
  189.5430  173.6930  137.2760 C   0  0  0  0  0  2  0  0  0  0  0  0
  188.1270  175.8400  137.2780 C   0  0  0  0  0  0  0  0  0  0  0  0
  191.2010  176.6220  138.7900 N   0  0  2  0  0  0  0  0  0  0  0  0
  190.7510  174.2860  136.5750 C   0  0  2  0  0  3  0  0  0  0  0  0
  186.8680  176.4060  137.0560 C   0  0  0  0  0  0  0  0  0  0  0  0
  182.7210  177.1300  136.8350 N   0  0  0  0  0  0  0  0  0  0  0  0
  192.6670  173.6330  135.2580 C   0  0  2  0  0  3  0  0  0  0  0  0
  192.1080  176.0030  137.7860 C   0  0  2  0  0  3  0  0  0  0  0  0
  187.1830  173.7180  136.5060 C   0  0  0  0  0  3  0  0  0  0  0  0
  191.1980  173.3770  135.4480 C   0  0  0  0  0  2  0  0  0  0  0  0
  186.3170  177.9860  137.4550 S   0  0  0  0  0  0  0  0  0  0  0  0
  184.6470  176.3550  136.5090 C   0  0  0  0  0  0  0  0  0  0  0  0
  185.8180  175.6260  136.5660 C   0  0  0  0  0  0  0  0  0  0  0  0
  183.3530  176.0140  136.4540 N   0  0  0  0  0  0  0  0  0  0  0  0
  191.8950  174.4850  137.5720 C   0  0  2  0  0  3  0  0  0  0  0  0
  191.7130  176.4330  140.1450 C   0  0  2  0  0  3  0  0  0  0  0  0
  190.9610  177.2920  141.0930 C   0  0  2  0  0  3  0  0  0  0  0  0
  192.2320  177.6560  140.6150 O   0  0  0  0  0  0  0  0  0  0  0  0
  191.1020  176.7890  142.5170 C   0  0  2  0  0  3  0  0  0  0  0  0
  190.3770  175.4670  142.6740 C   0  0  0  0  0  1  0  0  0  0  0  0
  190.4880  177.8150  143.4630 C   0  0  0  0  0  2  0  0  0  0  0  0
  190.4390  177.3260  144.9100 C   0  0  1  0  0  3  0  0  0  0  0  0
  191.7020  177.4190  145.5050 O   0  0  0  0  0  0  0  0  0  0  0  0
  191.8980  176.1780  146.1250 C   0  0  0  0  0  1  0  0  0  0  0  0
  189.4110  178.1090  145.7160 C   0  0  0  0  0  2  0  0  0  0  0  0
  188.0250  177.5560  145.4590 C   0  0  0  0  0  2  0  0  0  0  0  0
  187.0320  178.5280  145.8830 N   0  0  0  0  0  1  0  0  0  0  0  0
  193.5660  176.4220  138.0040 C   0  0  0  0  0  2  0  0  0  0  0  0
  194.3450  175.3230  138.3750 O   0  0  0  0  0  0  0  0  0  0  0  0
  196.1150  175.0710  140.2540 O   0  0  0  0  0  1  0  0  0  0  0  0
  196.5620  174.4130  137.9740 C   0  0  1  0  0  0  0  0  0  0  0  0
  196.6910  175.4870  139.0490 C   0  0  1  0  0  3  0  0  0  0  0  0
  195.9370  173.0710  138.3530 C   0  0  0  0  0  1  0  0  0  0  0  0
  195.6410  175.6280  137.9300 C   0  0  2  0  0  3  0  0  0  0  0  0
  197.6390  174.4320  136.8970 C   0  0  0  0  0  2  0  0  0  0  0  0
  197.1830  175.1780  135.6460 C   0  0  0  0  0  2  0  0  0  0  0  0
  199.3640  174.8150  134.7550 F   0  0  0  0  0  0  0  0  0  0  0  0
  198.0180  174.7970  134.4330 C   0  0  0  0  0  2  0  0  0  0  0  0
  193.2340  172.6220  134.4800 O   0  0  0  0  0  0  0  0  0  0  0  0
  192.7860  171.4370  135.0670 C   0  0  0  0  0  2  0  0  0  0  0  0
  195.0130  170.8620  134.4320 O   0  0  0  0  0  1  0  0  0  0  0  0
  193.8040  170.3190  134.8650 C   0  0  1  0  0  3  0  0  0  0  0  0
  194.2520  170.2590  137.2360 O   0  0  0  0  0  1  0  0  0  0  0  0
  194.0340  169.4570  136.1100 C   0  0  2  0  0  3  0  0  0  0  0  0
  195.5020  168.2790  134.5930 O   0  0  0  0  0  1  0  0  0  0  0  0
  195.1460  168.4140  135.9410 C   0  0  1  0  0  3  0  0  0  0  0  0
  196.6080  168.8980  136.9070 P   0  0  0  0  0  0  0  0  0  0  0  0
  197.1120  170.4470  136.4470 O   0  0  0  0  0  0  0  0  0  0  0  0
  196.2220  168.8950  138.5540 O   0  0  0  0  0  1  0  0  0  0  0  0
  197.7290  167.9160  136.6510 O   0  0  0  0  0  1  0  0  0  0  0  0
  181.2750  177.2210  136.9870 C   0  0  2  0  0  3  0  0  0  0  0  0
  180.9310  178.4150  137.7520 N   0  0  0  0  0  2  0  0  0  0  0  0
  180.6270  179.6640  137.1290 C   0  0  0  0  0  0  0  0  0  0  0  0
  180.5610  179.7560  135.8740 O   0  0  0  0  0  0  0  0  0  0  0  0
  180.8100  182.1130  137.2420 C   0  0  0  0  0  1  0  0  0  0  0  0
  180.3690  180.8630  137.9720 C   0  0  0  0  0  2  0  0  0  0  0  0
  179.9820  176.3550  138.9350 C   0  0  0  0  0  1  0  0  0  0  0  0
  180.7480  175.9770  137.6830 C   0  0  0  0  0  2  0  0  0  0  0  0
  2 16  2  0  0  0  0
  2 20  1  0  0  0  0
  4  8  1  0  0  0  0
  4  9  2  0  0  0  0
  5  6  2  0  0  0  0
  5 18  1  0  0  0  0
  7  3  1  0  0  0  0
  9  7  1  0  0  0  0
 10  3  1  1  0  0  0
 10 23  1  0  0  0  0
 11 17  1  6  0  0  0
 11  8  1  0  0  0  0
 11 22  1  0  0  0  0
 12  9  1  0  0  0  0
 12 18  1  0  0  0  0
 13 58  1  0  0  0  0
 13  6  1  0  0  0  0
 14 46  1  6  0  0  0
 14 17  1  0  0  0  0
 14  1  1  0  0  0  0
 15 35  1  1  0  0  0
 15 10  1  0  0  0  0
 16  4  1  0  0  0  0
 19 20  1  0  0  0  0
 19  5  1  0  0  0  0
 20 12  2  0  0  0  0
 21 19  2  0  0  0  0
 21 13  1  0  0  0  0
 22  1  1  6  0  0  0
 22 15  1  0  0  0  0
 23 25  1  6  0  0  0
 23 24  1  0  0  0  0
 24 26  1  1  0  0  0
 25 24  1  0  0  0  0
 26 27  1  6  0  0  0
 26 28  1  0  0  0  0
 29 28  1  6  0  0  0
 29 30  1  0  0  0  0
 29 32  1  0  0  0  0
 30 31  1  0  0  0  0
 33 32  1  0  0  0  0
 33 34  1  0  0  0  0
 35 36  1  0  0  0  0
 38 40  1  1  0  0  0
 38 39  1  0  0  0  0
 39 37  1  1  0  0  0
 41 38  1  0  0  0  0
 41 36  1  1  0  0  0
 41 39  1  0  0  0  0
 42 38  1  0  0  0  0
 43 42  1  0  0  0  0
 45 44  1  0  0  0  0
 45 43  1  0  0  0  0
 46 47  1  0  0  0  0
 49 48  1  1  0  0  0
 49 47  1  0  0  0  0
 49 51  1  0  0  0  0
 51 50  1  1  0  0  0
 53 52  1  6  0  0  0
 53 51  1  0  0  0  0
 53 54  1  0  0  0  0
 54 56  1  0  0  0  0
 55 54  2  0  0  0  0
 57 54  1  0  0  0  0
 58 65  1  1  0  0  0
 58 59  1  0  0  0  0
 60 59  1  0  0  0  0
 60 63  1  0  0  0  0
 61 60  2  0  0  0  0
 62 63  1  0  0  0  0
 65 64  1  0  0  0  0
M  END
>  <MODEL>
2

>  <REMARK>
 VINA RESULT:      -3.2      3.545      9.601
  Name = 
  23 active torsions:
  status: ('A' for Active; 'I' for Inactive)
    1  A    between atoms: C_1  and  C_58
    2  A    between atoms: C_4  and  C_5
    3  A    between atoms: C_4  and  C_41
    4  A    between atoms: C_5  and  C_32
    5  A    between atoms: C_8  and  O_10
    6  A    between atoms: C_8  and  C_45
    7  A    between atoms: O_10  and  C_65
    8  A    between atoms: P_11  and  C_55
    9  A    between atoms: C_13  and  C_60
   10  A    between atoms: N_15  and  C_44
   11  A    between atoms: C_17  and  N_36
   12  A    between atoms: O_19  and  C_41
   13  A    between atoms: C_22  and  O_24
   14  A    between atoms: C_22  and  C_54
   15  A    between atoms: O_24  and  C_43
   16  A    between atoms: C_27  and  C_52
   17  A    between atoms: C_29  and  C_54
   18  A    between atoms: C_29  and  C_55
   19  A    between atoms: C_37  and  C_51
   20  A    between atoms: C_37  and  C_60
   21  A    between atoms: C_41  and  C_58
   22  A    between atoms: N_42  and  C_44
   23  A    between atoms: C_44  and  C_49
                            x       y       z     vdW  Elec       q    Type
                         _______ _______ _______ _____ _____    ______ ____

>  <TORSDO>
F 23

$$$$
=
 OpenBabel10232410063D

 65 71  0  0  1  0  0  0  0  0999 V2000
  185.1180  178.3090  140.3590 S   0  0  0  0  0  0  0  0  0  0  0  0
  191.9400  175.8660  138.5530 N   0  0  0  0  0  0  0  0  0  0  0  0
  187.3220  176.5950  136.7670 O   0  0  0  0  0  0  0  0  0  0  0  0
  189.5950  176.4480  138.5880 C   0  0  0  0  0  0  0  0  0  0  0  0
  192.8450  176.4780  135.1480 C   0  0  0  0  0  0  0  0  0  0  0  0
  193.8080  176.0050  134.3500 N   0  0  0  0  0  0  0  0  0  0  0  0
  188.4640  177.3420  136.4570 C   0  0  0  0  0  2  0  0  0  0  0  0
  188.3170  176.3980  139.3760 C   0  0  0  0  0  2  0  0  0  0  0  0
  189.6490  176.8200  137.2160 C   0  0  0  0  0  0  0  0  0  0  0  0
  186.2620  177.3950  136.4780 N   0  0  2  0  0  0  0  0  0  0  0  0
  187.6170  177.7440  139.4110 C   0  0  2  0  0  3  0  0  0  0  0  0
  190.8820  176.7140  136.5690 C   0  0  0  0  0  0  0  0  0  0  0  0
  194.6570  175.4230  135.2040 N   0  0  0  0  0  0  0  0  0  0  0  0
  186.5380  179.2600  140.9500 C   0  0  2  0  0  3  0  0  0  0  0  0
  185.9200  178.2500  137.6450 C   0  0  2  0  0  3  0  0  0  0  0  0
  190.7570  175.9640  139.2230 C   0  0  0  0  0  3  0  0  0  0  0  0
  187.7260  178.3520  140.7950 C   0  0  0  0  0  2  0  0  0  0  0  0
  191.2410  176.9370  134.9010 S   0  0  0  0  0  0  0  0  0  0  0  0
  193.0910  176.1350  136.4120 C   0  0  0  0  0  0  0  0  0  0  0  0
  192.0050  176.2490  137.2570 C   0  0  0  0  0  0  0  0  0  0  0  0
  194.2380  175.4470  136.4750 N   0  0  0  0  0  0  0  0  0  0  0  0
  186.1450  177.5840  139.0230 C   0  0  2  0  0  3  0  0  0  0  0  0
  185.1560  176.4990  136.1440 C   0  0  2  0  0  3  0  0  0  0  0  0
  185.3880  175.8870  134.8120 C   0  0  2  0  0  3  0  0  0  0  0  0
  184.5140  176.9750  134.9830 O   0  0  0  0  0  0  0  0  0  0  0  0
  184.5660  174.6240  134.6400 C   0  0  2  0  0  3  0  0  0  0  0  0
  183.3570  174.6640  135.5540 C   0  0  0  0  0  1  0  0  0  0  0  0
  185.4310  173.4220  134.9990 C   0  0  0  0  0  2  0  0  0  0  0  0
  185.1320  172.8790  136.3960 C   0  0  1  0  0  3  0  0  0  0  0  0
  184.8930  171.5010  136.3490 O   0  0  0  0  0  0  0  0  0  0  0  0
  183.5950  171.3450  136.8540 C   0  0  0  0  0  1  0  0  0  0  0  0
  186.2710  173.1890  137.3570 C   0  0  0  0  0  2  0  0  0  0  0  0
  187.5700  173.3260  136.5920 C   0  0  0  0  0  2  0  0  0  0  0  0
  188.5780  172.4690  137.1930 N   0  0  0  0  0  1  0  0  0  0  0  0
  184.5540  178.9250  137.4740 C   0  0  0  0  0  2  0  0  0  0  0  0
  183.5230  177.9890  137.5980 O   0  0  0  0  0  0  0  0  0  0  0  0
  181.5260  177.8040  135.9530 O   0  0  0  0  0  1  0  0  0  0  0  0
  181.2180  177.8330  138.3470 C   0  0  1  0  0  0  0  0  0  0  0  0
  181.2260  178.6250  137.0450 C   0  0  1  0  0  3  0  0  0  0  0  0
  181.4370  176.3210  138.2860 C   0  0  0  0  0  1  0  0  0  0  0  0
  182.4100  178.7280  138.0270 C   0  0  2  0  0  3  0  0  0  0  0  0
  180.3220  178.3900  139.4470 C   0  0  0  0  0  2  0  0  0  0  0  0
  180.9600  179.5820  140.1540 C   0  0  0  0  0  2  0  0  0  0  0  0
  180.6750  178.4000  142.2050 F   0  0  0  0  0  0  0  0  0  0  0  0
  180.5510  179.6480  141.6180 C   0  0  0  0  0  2  0  0  0  0  0  0
  186.3700  179.6070  142.2910 O   0  0  0  0  0  0  0  0  0  0  0  0
  185.0890  179.1540  142.6120 C   0  0  0  0  0  2  0  0  0  0  0  0
  183.2580  180.1390  143.7810 O   0  0  0  0  0  1  0  0  0  0  0  0
  184.6020  179.7920  143.9080 C   0  0  1  0  0  3  0  0  0  0  0  0
  183.6370  178.8820  145.9250 O   0  0  0  0  0  1  0  0  0  0  0  0
  184.7990  178.9120  145.1460 C   0  0  2  0  0  3  0  0  0  0  0  0
  185.6640  179.5380  147.3150 O   0  0  0  0  0  1  0  0  0  0  0  0
  186.0260  179.2930  145.9840 C   0  0  1  0  0  3  0  0  0  0  0  0
  187.2580  177.9570  145.9300 P   0  0  0  0  0  0  0  0  0  0  0  0
  188.1130  177.9070  147.3890 O   0  0  0  0  0  1  0  0  0  0  0  0
  186.4760  176.4770  145.6830 O   0  0  0  0  0  1  0  0  0  0  0  0
  188.2260  178.2100  144.7960 O   0  0  0  0  0  0  0  0  0  0  0  0
  195.8570  174.7210  134.7680 C   0  0  2  0  0  3  0  0  0  0  0  0
  196.3490  173.8680  135.8440 N   0  0  0  0  0  2  0  0  0  0  0  0
  196.2670  172.4430  135.7940 C   0  0  0  0  0  0  0  0  0  0  0  0
  195.8340  171.8620  134.7620 O   0  0  0  0  0  0  0  0  0  0  0  0
  197.7910  170.6640  136.5420 C   0  0  0  0  0  1  0  0  0  0  0  0
  196.7110  171.6380  136.9640 C   0  0  0  0  0  2  0  0  0  0  0  0
  198.2720  175.3210  134.9160 C   0  0  0  0  0  1  0  0  0  0  0  0
  196.9220  175.7230  134.3570 C   0  0  0  0  0  2  0  0  0  0  0  0
  1 14  1  0  0  0  0
  2 16  1  0  0  0  0
  4 16  2  0  0  0  0
  4  8  1  0  0  0  0
  5 19  1  0  0  0  0
  6  5  2  0  0  0  0
  6 13  1  0  0  0  0
  7  3  1  0  0  0  0
  7  9  1  0  0  0  0
  9  4  1  0  0  0  0
 10  3  1  1  0  0  0
 10 15  1  0  0  0  0
 11  8  1  1  0  0  0
 11 17  1  0  0  0  0
 12  9  2  0  0  0  0
 12 20  1  0  0  0  0
 13 21  1  0  0  0  0
 14 46  1  1  0  0  0
 15 35  1  6  0  0  0
 15 22  1  0  0  0  0
 17 14  1  0  0  0  0
 18  5  1  0  0  0  0
 18 12  1  0  0  0  0
 19 21  2  0  0  0  0
 19 20  1  0  0  0  0
 20  2  2  0  0  0  0
 22 11  1  0  0  0  0
 22  1  1  1  0  0  0
 23 25  1  6  0  0  0
 23 10  1  0  0  0  0
 24 26  1  1  0  0  0
 24 25  1  0  0  0  0
 24 23  1  0  0  0  0
 26 28  1  0  0  0  0
 26 27  1  1  0  0  0
 29 28  1  6  0  0  0
 29 32  1  0  0  0  0
 30 29  1  0  0  0  0
 30 31  1  0  0  0  0
 33 34  1  0  0  0  0
 33 32  1  0  0  0  0
 35 36  1  0  0  0  0
 38 40  1  6  0  0  0
 38 42  1  0  0  0  0
 39 37  1  6  0  0  0
 39 41  1  0  0  0  0
 39 38  1  0  0  0  0
 41 36  1  6  0  0  0
 41 38  1  0  0  0  0
 42 43  1  0  0  0  0
 43 45  1  0  0  0  0
 45 44  1  0  0  0  0
 46 47  1  0  0  0  0
 47 49  1  0  0  0  0
 49 48  1  6  0  0  0
 49 51  1  0  0  0  0
 51 50  1  1  0  0  0
 51 53  1  0  0  0  0
 53 52  1  1  0  0  0
 54 53  1  0  0  0  0
 54 55  1  0  0  0  0
 56 54  1  0  0  0  0
 57 54  2  0  0  0  0
 58 65  1  1  0  0  0
 58 13  1  0  0  0  0
 58 59  1  0  0  0  0
 60 59  1  0  0  0  0
 60 63  1  0  0  0  0
 61 60  2  0  0  0  0
 62 63  1  0  0  0  0
 65 64  1  0  0  0  0
M  END
>  <MODEL>
3

>  <REMARK>
 VINA RESULT:      -3.1      4.208      9.813
  Name = 
  23 active torsions:
  status: ('A' for Active; 'I' for Inactive)
    1  A    between atoms: C_1  and  C_58
    2  A    between atoms: C_4  and  C_5
    3  A    between atoms: C_4  and  C_41
    4  A    between atoms: C_5  and  C_32
    5  A    between atoms: C_8  and  O_10
    6  A    between atoms: C_8  and  C_45
    7  A    between atoms: O_10  and  C_65
    8  A    between atoms: P_11  and  C_55
    9  A    between atoms: C_13  and  C_60
   10  A    between atoms: N_15  and  C_44
   11  A    between atoms: C_17  and  N_36
   12  A    between atoms: O_19  and  C_41
   13  A    between atoms: C_22  and  O_24
   14  A    between atoms: C_22  and  C_54
   15  A    between atoms: O_24  and  C_43
   16  A    between atoms: C_27  and  C_52
   17  A    between atoms: C_29  and  C_54
   18  A    between atoms: C_29  and  C_55
   19  A    between atoms: C_37  and  C_51
   20  A    between atoms: C_37  and  C_60
   21  A    between atoms: C_41  and  C_58
   22  A    between atoms: N_42  and  C_44
   23  A    between atoms: C_44  and  C_49
                            x       y       z     vdW  Elec       q    Type
                         _______ _______ _______ _____ _____    ______ ____

>  <TORSDO>
F 23

$$$$
=
 OpenBabel10232410063D

 65 71  0  0  1  0  0  0  0  0999 V2000
  184.5660  177.6310  138.1620 S   0  0  0  0  0  0  0  0  0  0  0  0
  191.8750  176.1280  138.4820 N   0  0  0  0  0  0  0  0  0  0  0  0
  187.7390  175.4350  135.7500 O   0  0  0  0  0  0  0  0  0  0  0  0
  189.5300  176.2380  137.9070 C   0  0  0  0  0  0  0  0  0  0  0  0
  193.4550  175.9270  135.2810 C   0  0  0  0  0  0  0  0  0  0  0  0
  194.6290  175.4420  134.8600 N   0  0  0  0  0  0  0  0  0  0  0  0
  188.8170  176.2700  135.4350 C   0  0  0  0  0  2  0  0  0  0  0  0
  188.1220  176.1680  138.4250 C   0  0  0  0  0  2  0  0  0  0  0  0
  189.8510  176.2160  136.5220 C   0  0  0  0  0  0  0  0  0  0  0  0
  186.6810  175.9050  135.0380 N   0  0  2  0  0  0  0  0  0  0  0  0
  187.2680  177.3100  137.9090 C   0  0  2  0  0  3  0  0  0  0  0  0
  191.2040  176.1710  136.1750 C   0  0  0  0  0  0  0  0  0  0  0  0
  195.3240  175.2960  135.9930 N   0  0  0  0  0  0  0  0  0  0  0  0
  185.6790  178.9610  138.6730 C   0  0  2  0  0  3  0  0  0  0  0  0
  185.9730  176.9710  135.7960 C   0  0  2  0  0  3  0  0  0  0  0  0
  190.5660  176.1820  138.8620 C   0  0  0  0  0  3  0  0  0  0  0  0
  186.9760  178.2900  139.0280 C   0  0  0  0  0  2  0  0  0  0  0  0
  191.9060  175.9840  134.6160 S   0  0  0  0  0  0  0  0  0  0  0  0
  193.4440  176.0030  136.6110 C   0  0  0  0  0  0  0  0  0  0  0  0
  192.1870  176.1400  137.1660 C   0  0  0  0  0  0  0  0  0  0  0  0
  194.6240  175.5930  137.0940 N   0  0  0  0  0  0  0  0  0  0  0  0
  185.9570  176.7710  137.3310 C   0  0  2  0  0  3  0  0  0  0  0  0
  185.8050  174.7580  134.8060 C   0  0  2  0  0  3  0  0  0  0  0  0
  186.1960  173.6370  135.6980 C   0  0  2  0  0  3  0  0  0  0  0  0
  186.5800  173.6740  134.3460 O   0  0  0  0  0  0  0  0  0  0  0  0
  185.0620  172.6430  135.8550 C   0  0  2  0  0  3  0  0  0  0  0  0
  185.0830  172.0490  137.2500 C   0  0  0  0  0  1  0  0  0  0  0  0
  185.2410  171.5290  134.8300 C   0  0  0  0  0  2  0  0  0  0  0  0
  183.9990  170.6480  134.6960 C   0  0  1  0  0  3  0  0  0  0  0  0
  184.2010  169.4110  135.3190 O   0  0  0  0  0  0  0  0  0  0  0  0
  184.8220  168.6160  134.3460 C   0  0  0  0  0  1  0  0  0  0  0  0
  182.7730  171.3410  135.2740 C   0  0  0  0  0  2  0  0  0  0  0  0
  181.5520  171.0070  134.4430 C   0  0  0  0  0  2  0  0  0  0  0  0
  180.5820  170.3090  135.2690 N   0  0  0  0  0  1  0  0  0  0  0  0
  184.6090  177.2970  135.1770 C   0  0  0  0  0  2  0  0  0  0  0  0
  183.6560  176.3470  135.5560 O   0  0  0  0  0  0  0  0  0  0  0  0
  182.1290  174.2700  135.2710 O   0  0  0  0  0  1  0  0  0  0  0  0
  181.2320  176.4960  135.5360 C   0  0  1  0  0  0  0  0  0  0  0  0
  181.6320  175.3790  134.5780 C   0  0  1  0  0  3  0  0  0  0  0  0
  181.3340  176.2420  137.0400 C   0  0  0  0  0  1  0  0  0  0  0  0
  182.5360  176.6160  134.7550 C   0  0  2  0  0  3  0  0  0  0  0  0
  180.1380  177.4290  135.0330 C   0  0  0  0  0  2  0  0  0  0  0  0
  180.0050  178.6760  135.9020 C   0  0  0  0  0  2  0  0  0  0  0  0
  181.1750  180.0100  137.4940 F   0  0  0  0  0  0  0  0  0  0  0  0
  181.3530  179.1260  136.4440 C   0  0  0  0  0  2  0  0  0  0  0  0
  185.1640  179.6300  139.7840 O   0  0  0  0  0  0  0  0  0  0  0  0
  183.8600  179.1450  139.9100 C   0  0  0  0  0  2  0  0  0  0  0  0
  182.5530  178.0320  141.5660 O   0  0  0  0  0  1  0  0  0  0  0  0
  183.4500  179.0810  141.3780 C   0  0  1  0  0  3  0  0  0  0  0  0
  184.9240  177.5930  142.5770 O   0  0  0  0  0  1  0  0  0  0  0  0
  184.6290  178.9410  142.3460 C   0  0  2  0  0  3  0  0  0  0  0  0
  183.0810  179.8440  143.9680 O   0  0  0  0  0  1  0  0  0  0  0  0
  184.4410  179.7070  143.6610 C   0  0  1  0  0  3  0  0  0  0  0  0
  185.2810  178.8350  145.0170 P   0  0  0  0  0  0  0  0  0  0  0  0
  184.2550  177.6530  145.6610 O   0  0  0  0  0  1  0  0  0  0  0  0
  186.6890  178.1010  144.4300 O   0  0  0  0  0  0  0  0  0  0  0  0
  185.6440  179.8220  146.1030 O   0  0  0  0  0  1  0  0  0  0  0  0
  196.6720  174.7420  136.0240 C   0  0  2  0  0  3  0  0  0  0  0  0
  196.6840  173.4340  135.3790 N   0  0  0  0  0  2  0  0  0  0  0  0
  197.8940  172.7340  135.0840 C   0  0  0  0  0  0  0  0  0  0  0  0
  199.0070  173.1940  135.4550 O   0  0  0  0  0  0  0  0  0  0  0  0
  198.0570  170.2910  135.3060 C   0  0  0  0  0  1  0  0  0  0  0  0
  197.8370  171.4430  134.3480 C   0  0  0  0  0  2  0  0  0  0  0  0
  196.3670  173.5620  138.1990 C   0  0  0  0  0  1  0  0  0  0  0  0
  197.1510  174.6280  137.4610 C   0  0  0  0  0  2  0  0  0  0  0  0
  1 14  1  0  0  0  0
  2 16  1  0  0  0  0
  4  8  1  0  0  0  0
  4 16  2  0  0  0  0
  5 19  1  0  0  0  0
  6  5  2  0  0  0  0
  6 13  1  0  0  0  0
  7  3  1  0  0  0  0
  7  9  1  0  0  0  0
  9  4  1  0  0  0  0
 10  3  1  1  0  0  0
 10 15  1  0  0  0  0
 11  8  1  1  0  0  0
 11 17  1  0  0  0  0
 12  9  2  0  0  0  0
 12 20  1  0  0  0  0
 13 58  1  0  0  0  0
 13 21  1  0  0  0  0
 14 17  1  0  0  0  0
 14 46  1  1  0  0  0
 15 35  1  6  0  0  0
 15 22  1  0  0  0  0
 18  5  1  0  0  0  0
 18 12  1  0  0  0  0
 19 21  2  0  0  0  0
 19 20  1  0  0  0  0
 20  2  2  0  0  0  0
 22 11  1  0  0  0  0
 22  1  1  1  0  0  0
 23 25  1  6  0  0  0
 23 10  1  0  0  0  0
 23 24  1  0  0  0  0
 24 26  1  6  0  0  0
 25 24  1  0  0  0  0
 26 27  1  1  0  0  0
 28 26  1  0  0  0  0
 29 28  1  1  0  0  0
 29 32  1  0  0  0  0
 29 30  1  0  0  0  0
 31 30  1  0  0  0  0
 33 34  1  0  0  0  0
 33 32  1  0  0  0  0
 35 36  1  0  0  0  0
 38 40  1  1  0  0  0
 39 41  1  0  0  0  0
 39 37  1  1  0  0  0
 39 38  1  0  0  0  0
 41 38  1  0  0  0  0
 41 36  1  1  0  0  0
 42 38  1  0  0  0  0
 42 43  1  0  0  0  0
 43 45  1  0  0  0  0
 45 44  1  0  0  0  0
 46 47  1  0  0  0  0
 47 49  1  0  0  0  0
 49 48  1  6  0  0  0
 49 51  1  0  0  0  0
 51 50  1  1  0  0  0
 51 53  1  0  0  0  0
 53 52  1  1  0  0  0
 53 54  1  0  0  0  0
 54 55  1  0  0  0  0
 54 57  1  0  0  0  0
 56 54  2  0  0  0  0
 58 65  1  1  0  0  0
 59 58  1  0  0  0  0
 60 59  1  0  0  0  0
 60 61  2  0  0  0  0
 63 60  1  0  0  0  0
 63 62  1  0  0  0  0
 65 64  1  0  0  0  0
M  END
>  <MODEL>
4

>  <REMARK>
 VINA RESULT:      -2.7      4.720      9.698
  Name = 
  23 active torsions:
  status: ('A' for Active; 'I' for Inactive)
    1  A    between atoms: C_1  and  C_58
    2  A    between atoms: C_4  and  C_5
    3  A    between atoms: C_4  and  C_41
    4  A    between atoms: C_5  and  C_32
    5  A    between atoms: C_8  and  O_10
    6  A    between atoms: C_8  and  C_45
    7  A    between atoms: O_10  and  C_65
    8  A    between atoms: P_11  and  C_55
    9  A    between atoms: C_13  and  C_60
   10  A    between atoms: N_15  and  C_44
   11  A    between atoms: C_17  and  N_36
   12  A    between atoms: O_19  and  C_41
   13  A    between atoms: C_22  and  O_24
   14  A    between atoms: C_22  and  C_54
   15  A    between atoms: O_24  and  C_43
   16  A    between atoms: C_27  and  C_52
   17  A    between atoms: C_29  and  C_54
   18  A    between atoms: C_29  and  C_55
   19  A    between atoms: C_37  and  C_51
   20  A    between atoms: C_37  and  C_60
   21  A    between atoms: C_41  and  C_58
   22  A    between atoms: N_42  and  C_44
   23  A    between atoms: C_44  and  C_49
                            x       y       z     vdW  Elec       q    Type
                         _______ _______ _______ _____ _____    ______ ____

>  <TORSDO>
F 23

$$$$
=
 OpenBabel10232410063D

 65 71  0  0  1  0  0  0  0  0999 V2000
  193.8450  175.9630  135.9280 S   0  0  0  0  0  0  0  0  0  0  0  0
  191.4990  177.6860  142.8060 N   0  0  0  0  0  0  0  0  0  0  0  0
  189.9660  176.9260  138.1030 O   0  0  0  0  0  0  0  0  0  0  0  0
  191.6850  177.2500  140.4360 C   0  0  0  0  0  0  0  0  0  0  0  0
  188.2270  176.4630  143.5700 C   0  0  0  0  0  0  0  0  0  0  0  0
  187.3390  176.7420  144.5310 N   0  0  0  0  0  0  0  0  0  0  0  0
  189.7620  176.0750  139.1950 C   0  0  0  0  0  2  0  0  0  0  0  0
  192.4820  177.5020  139.1880 C   0  0  0  0  0  2  0  0  0  0  0  0
  190.3950  176.6500  140.4280 C   0  0  0  0  0  0  0  0  0  0  0  0
  189.8400  176.1490  136.9940 N   0  0  2  0  0  0  0  0  0  0  0  0
  192.7590  176.2220  138.4220 C   0  0  2  0  0  3  0  0  0  0  0  0
  189.7110  176.5780  141.6440 C   0  0  0  0  0  0  0  0  0  0  0  0
  188.0640  177.4100  145.4350 N   0  0  0  0  0  0  0  0  0  0  0  0
  194.5560  175.0470  137.3160 C   0  0  2  0  0  3  0  0  0  0  0  0
  191.1430  175.5220  136.6460 C   0  0  2  0  0  3  0  0  0  0  0  0
  192.2030  177.7680  141.6410 C   0  0  0  0  0  3  0  0  0  0  0  0
  194.2230  175.8490  138.5430 C   0  0  0  0  0  2  0  0  0  0  0  0
  188.0980  176.0590  141.9390 S   0  0  0  0  0  0  0  0  0  0  0  0
  189.4090  176.9990  143.8730 C   0  0  0  0  0  0  0  0  0  0  0  0
  190.2860  177.0890  142.8100 C   0  0  0  0  0  0  0  0  0  0  0  0
  189.3290  177.6220  145.0550 N   0  0  0  0  0  0  0  0  0  0  0  0
  192.3840  176.3960  136.9490 C   0  0  2  0  0  3  0  0  0  0  0  0
  189.3850  177.0370  135.9260 C   0  0  2  0  0  3  0  0  0  0  0  0
  188.0150  176.6540  135.5030 C   0  0  2  0  0  3  0  0  0  0  0  0
  189.1500  176.2740  134.7650 O   0  0  0  0  0  0  0  0  0  0  0  0
  187.3260  177.7970  134.7820 C   0  0  2  0  0  3  0  0  0  0  0  0
  187.5250  179.0890  135.5500 C   0  0  0  0  0  1  0  0  0  0  0  0
  185.8350  177.4910  134.6880 C   0  0  0  0  0  2  0  0  0  0  0  0
  185.4010  176.3840  135.6490 C   0  0  1  0  0  3  0  0  0  0  0  0
  185.0880  176.9150  136.9050 O   0  0  0  0  0  0  0  0  0  0  0  0
  185.8820  176.1940  137.8070 C   0  0  0  0  0  1  0  0  0  0  0  0
  184.2160  175.6100  135.0880 C   0  0  0  0  0  2  0  0  0  0  0  0
  182.9260  176.3350  135.4100 C   0  0  0  0  0  2  0  0  0  0  0  0
  181.8840  175.8920  134.5000 N   0  0  0  0  0  1  0  0  0  0  0  0
  191.1190  174.9050  135.2430 C   0  0  0  0  0  2  0  0  0  0  0  0
  190.8530  173.5350  135.3110 O   0  0  0  0  0  0  0  0  0  0  0  0
  190.1540  171.0400  135.1770 O   0  0  0  0  0  1  0  0  0  0  0  0
  188.5320  172.8280  135.2020 C   0  0  1  0  0  0  0  0  0  0  0  0
  189.3510  171.8500  134.3670 C   0  0  1  0  0  3  0  0  0  0  0  0
  188.6210  172.7440  136.7250 C   0  0  0  0  0  1  0  0  0  0  0  0
  189.7610  173.3330  134.4530 C   0  0  2  0  0  3  0  0  0  0  0  0
  187.2170  173.2790  134.5780 C   0  0  0  0  0  2  0  0  0  0  0  0
  186.1730  172.1670  134.5790 C   0  0  0  0  0  2  0  0  0  0  0  0
  184.7960  171.1240  136.2230 F   0  0  0  0  0  0  0  0  0  0  0  0
  185.1580  172.3530  135.6980 C   0  0  0  0  0  2  0  0  0  0  0  0
  195.9400  174.9390  137.1730 O   0  0  0  0  0  0  0  0  0  0  0  0
  196.1620  175.0840  135.8020 C   0  0  0  0  0  2  0  0  0  0  0  0
  198.1950  174.3530  134.7910 O   0  0  0  0  0  1  0  0  0  0  0  0
  196.9620  173.9040  135.2590 C   0  0  1  0  0  3  0  0  0  0  0  0
  198.4980  172.7330  136.7070 O   0  0  0  0  0  1  0  0  0  0  0  0
  197.1680  172.7750  136.2740 C   0  0  2  0  0  3  0  0  0  0  0  0
  197.7420  170.4710  135.8200 O   0  0  0  0  0  1  0  0  0  0  0  0
  196.6970  171.4040  135.7750 C   0  0  1  0  0  3  0  0  0  0  0  0
  195.3130  170.8100  136.7930 P   0  0  0  0  0  0  0  0  0  0  0  0
  195.5860  171.2000  138.4160 O   0  0  0  0  0  1  0  0  0  0  0  0
  193.8770  171.5370  136.2710 O   0  0  0  0  0  0  0  0  0  0  0  0
  195.1950  169.3090  136.6560 O   0  0  0  0  0  1  0  0  0  0  0  0
  187.4890  177.9610  146.6550 C   0  0  2  0  0  3  0  0  0  0  0  0
  186.4340  178.9110  146.3190 N   0  0  0  0  0  2  0  0  0  0  0  0
  185.2130  178.5140  145.6930 C   0  0  0  0  0  0  0  0  0  0  0  0
  184.9660  177.2960  145.4840 O   0  0  0  0  0  0  0  0  0  0  0  0
  183.5530  179.1580  143.9970 C   0  0  0  0  0  1  0  0  0  0  0  0
  184.2160  179.5480  145.3020 C   0  0  0  0  0  2  0  0  0  0  0  0
  189.3550  177.6150  148.2710 C   0  0  0  0  0  1  0  0  0  0  0  0
  188.5710  178.6400  147.4770 C   0  0  0  0  0  2  0  0  0  0  0  0
  1 14  1  0  0  0  0
  2 20  1  0  0  0  0
  3  7  1  0  0  0  0
  4 16  1  0  0  0  0
  5 19  1  0  0  0  0
  5  6  2  0  0  0  0
  6 13  1  0  0  0  0
  7  9  1  0  0  0  0
  8  4  1  0  0  0  0
  9  4  2  0  0  0  0
  9 12  1  0  0  0  0
 10  3  1  1  0  0  0
 11 17  1  6  0  0  0
 11  8  1  0  0  0  0
 12 18  1  0  0  0  0
 12 20  2  0  0  0  0
 13 58  1  0  0  0  0
 14 46  1  6  0  0  0
 14 17  1  0  0  0  0
 15 35  1  6  0  0  0
 15 22  1  0  0  0  0
 15 10  1  0  0  0  0
 16  2  2  0  0  0  0
 18  5  1  0  0  0  0
 19 21  2  0  0  0  0
 20 19  1  0  0  0  0
 21 13  1  0  0  0  0
 22  1  1  6  0  0  0
 22 11  1  0  0  0  0
 23 25  1  6  0  0  0
 23 10  1  0  0  0  0
 24 26  1  6  0  0  0
 24 23  1  0  0  0  0
 25 24  1  0  0  0  0
 26 27  1  1  0  0  0
 28 26  1  0  0  0  0
 29 28  1  6  0  0  0
 29 30  1  0  0  0  0
 30 31  1  0  0  0  0
 32 33  1  0  0  0  0
 32 29  1  0  0  0  0
 34 33  1  0  0  0  0
 35 36  1  0  0  0  0
 38 40  1  1  0  0  0
 39 41  1  0  0  0  0
 39 37  1  1  0  0  0
 39 38  1  0  0  0  0
 41 38  1  0  0  0  0
 41 36  1  1  0  0  0
 42 43  1  0  0  0  0
 42 38  1  0  0  0  0
 43 45  1  0  0  0  0
 45 44  1  0  0  0  0
 47 46  1  0  0  0  0
 49 48  1  1  0  0  0
 49 47  1  0  0  0  0
 49 51  1  0  0  0  0
 51 50  1  6  0  0  0
 53 52  1  1  0  0  0
 53 51  1  0  0  0  0
 53 54  1  0  0  0  0
 54 55  1  0  0  0  0
 56 54  2  0  0  0  0
 57 54  1  0  0  0  0
 58 65  1  6  0  0  0
 59 58  1  0  0  0  0
 60 59  1  0  0  0  0
 61 60  2  0  0  0  0
 62 63  1  0  0  0  0
 63 60  1  0  0  0  0
 65 64  1  0  0  0  0
M  END
>  <MODEL>
5

>  <REMARK>
 VINA RESULT:      -2.6      2.371      3.663
  Name = 
  23 active torsions:
  status: ('A' for Active; 'I' for Inactive)
    1  A    between atoms: C_1  and  C_58
    2  A    between atoms: C_4  and  C_5
    3  A    between atoms: C_4  and  C_41
    4  A    between atoms: C_5  and  C_32
    5  A    between atoms: C_8  and  O_10
    6  A    between atoms: C_8  and  C_45
    7  A    between atoms: O_10  and  C_65
    8  A    between atoms: P_11  and  C_55
    9  A    between atoms: C_13  and  C_60
   10  A    between atoms: N_15  and  C_44
   11  A    between atoms: C_17  and  N_36
   12  A    between atoms: O_19  and  C_41
   13  A    between atoms: C_22  and  O_24
   14  A    between atoms: C_22  and  C_54
   15  A    between atoms: O_24  and  C_43
   16  A    between atoms: C_27  and  C_52
   17  A    between atoms: C_29  and  C_54
   18  A    between atoms: C_29  and  C_55
   19  A    between atoms: C_37  and  C_51
   20  A    between atoms: C_37  and  C_60
   21  A    between atoms: C_41  and  C_58
   22  A    between atoms: N_42  and  C_44
   23  A    between atoms: C_44  and  C_49
                            x       y       z     vdW  Elec       q    Type
                         _______ _______ _______ _____ _____    ______ ____

>  <TORSDO>
F 23

$$$$
=
 OpenBabel10232410063D

 65 71  0  0  1  0  0  0  0  0999 V2000
  193.6180  176.7000  139.1430 S   0  0  0  0  0  0  0  0  0  0  0  0
  186.3840  177.0610  137.3230 N   0  0  0  0  0  0  0  0  0  0  0  0
  190.7420  174.9320  136.0920 O   0  0  0  0  0  0  0  0  0  0  0  0
  188.7580  176.6170  137.4070 C   0  0  0  0  0  0  0  0  0  0  0  0
  185.0620  174.0040  136.0220 C   0  0  0  0  0  0  0  0  0  0  0  0
  183.9470  173.6930  135.3510 N   0  0  0  0  0  0  0  0  0  0  0  0
  189.6540  174.3070  136.7100 C   0  0  0  0  0  2  0  0  0  0  0  0
  190.1240  177.2100  137.5970 C   0  0  0  0  0  2  0  0  0  0  0  0
  188.5440  175.2930  136.9300 C   0  0  0  0  0  0  0  0  0  0  0  0
  191.8280  174.1690  136.3860 N   0  0  2  0  0  0  0  0  0  0  0  0
  190.9610  176.4080  138.5760 C   0  0  2  0  0  3  0  0  0  0  0  0
  187.2250  174.9030  136.6860 C   0  0  0  0  0  0  0  0  0  0  0  0
  183.1750  174.7720  135.5200 N   0  0  0  0  0  0  0  0  0  0  0  0
  192.4090  176.6980  140.4880 C   0  0  2  0  0  3  0  0  0  0  0  0
  192.4260  174.5890  137.6810 C   0  0  2  0  0  3  0  0  0  0  0  0
  187.6560  177.4790  137.5820 C   0  0  0  0  0  3  0  0  0  0  0  0
  191.1220  177.1730  139.8750 C   0  0  0  0  0  2  0  0  0  0  0  0
  186.6520  173.4450  135.9730 S   0  0  0  0  0  0  0  0  0  0  0  0
  184.9680  175.2400  136.5120 C   0  0  0  0  0  0  0  0  0  0  0  0
  186.1710  175.7940  136.9000 C   0  0  0  0  0  0  0  0  0  0  0  0
  183.7760  175.7590  136.1940 N   0  0  0  0  0  0  0  0  0  0  0  0
  192.3350  176.1060  137.9730 C   0  0  2  0  0  3  0  0  0  0  0  0
  192.7710  174.3640  135.2860 C   0  0  2  0  0  3  0  0  0  0  0  0
  193.6680  175.5070  135.5870 C   0  0  2  0  0  3  0  0  0  0  0  0
  192.5650  175.6400  134.7250 O   0  0  0  0  0  0  0  0  0  0  0  0
  194.9330  175.4450  134.7540 C   0  0  2  0  0  3  0  0  0  0  0  0
  195.2190  174.0110  134.3520 C   0  0  0  0  0  1  0  0  0  0  0  0
  196.0950  175.9760  135.5850 C   0  0  0  0  0  2  0  0  0  0  0  0
  197.2960  175.0300  135.5900 C   0  0  1  0  0  3  0  0  0  0  0  0
  198.0020  175.1200  134.3860 O   0  0  0  0  0  0  0  0  0  0  0  0
  199.3030  175.4830  134.7590 C   0  0  0  0  0  1  0  0  0  0  0  0
  198.2140  175.3210  136.7690 C   0  0  0  0  0  2  0  0  0  0  0  0
  197.9660  174.3190  137.8760 C   0  0  0  0  0  2  0  0  0  0  0  0
  197.9680  175.0040  139.1570 N   0  0  0  0  0  1  0  0  0  0  0  0
  193.8170  173.9780  137.8890 C   0  0  0  0  0  2  0  0  0  0  0  0
  193.8010  172.6100  137.6050 O   0  0  0  0  0  0  0  0  0  0  0  0
  194.6610  170.3620  138.5720 O   0  0  0  0  0  1  0  0  0  0  0  0
  195.1510  171.0580  136.3130 C   0  0  1  0  0  0  0  0  0  0  0  0
  195.6190  170.9790  137.7620 C   0  0  1  0  0  3  0  0  0  0  0  0
  193.8180  170.4120  135.9390 C   0  0  0  0  0  1  0  0  0  0  0  0
  195.1050  172.3120  137.1800 C   0  0  2  0  0  3  0  0  0  0  0  0
  196.2600  171.0870  135.2680 C   0  0  0  0  0  2  0  0  0  0  0  0
  197.4680  170.2580  135.6930 C   0  0  0  0  0  2  0  0  0  0  0  0
  196.9900  167.9250  135.5840 F   0  0  0  0  0  0  0  0  0  0  0  0
  197.5730  168.9700  134.8890 C   0  0  0  0  0  2  0  0  0  0  0  0
  192.8070  177.5670  141.5040 O   0  0  0  0  0  0  0  0  0  0  0  0
  191.6200  178.1570  141.9440 C   0  0  0  0  0  2  0  0  0  0  0  0
  191.3210  179.2240  144.0570 O   0  0  0  0  0  1  0  0  0  0  0  0
  191.4570  177.9770  143.4500 C   0  0  1  0  0  3  0  0  0  0  0  0
  190.4740  175.7750  143.3600 O   0  0  0  0  0  1  0  0  0  0  0  0
  190.2840  177.0740  143.8440 C   0  0  2  0  0  3  0  0  0  0  0  0
  188.3350  176.8430  142.4340 O   0  0  0  0  0  1  0  0  0  0  0  0
  188.9150  177.6300  143.4380 C   0  0  1  0  0  3  0  0  0  0  0  0
  187.8080  177.6800  144.8800 P   0  0  0  0  0  0  0  0  0  0  0  0
  186.9550  176.2230  144.9990 O   0  0  0  0  0  1  0  0  0  0  0  0
  188.7220  177.9140  146.2850 O   0  0  0  0  0  1  0  0  0  0  0  0
  186.8260  178.8190  144.7230 O   0  0  0  0  0  0  0  0  0  0  0  0
  181.8560  174.9000  134.9140 C   0  0  2  0  0  3  0  0  0  0  0  0
  181.0700  175.8870  135.6450 N   0  0  0  0  0  2  0  0  0  0  0  0
  181.1240  177.2830  135.3510 C   0  0  0  0  0  0  0  0  0  0  0  0
  181.8010  177.7070  134.3760 O   0  0  0  0  0  0  0  0  0  0  0  0
  180.6130  177.9610  137.6590 C   0  0  0  0  0  1  0  0  0  0  0  0
  180.3600  178.2430  136.1920 C   0  0  0  0  0  2  0  0  0  0  0  0
  180.9390  173.0700  136.3370 C   0  0  0  0  0  1  0  0  0  0  0  0
  181.1520  173.5540  134.9170 C   0  0  0  0  0  2  0  0  0  0  0  0
  1 14  1  0  0  0  0
  2 16  1  0  0  0  0
  3  7  1  0  0  0  0
  4 16  2  0  0  0  0
  4  8  1  0  0  0  0
  5 19  1  0  0  0  0
  6 13  1  0  0  0  0
  6  5  2  0  0  0  0
  7  9  1  0  0  0  0
  9  4  1  0  0  0  0
 10  3  1  6  0  0  0
 10 15  1  0  0  0  0
 11  8  1  6  0  0  0
 11 17  1  0  0  0  0
 12 20  1  0  0  0  0
 12  9  2  0  0  0  0
 13 21  1  0  0  0  0
 14 46  1  1  0  0  0
 15 35  1  6  0  0  0
 15 22  1  0  0  0  0
 17 14  1  0  0  0  0
 18  5  1  0  0  0  0
 18 12  1  0  0  0  0
 19 20  1  0  0  0  0
 20  2  2  0  0  0  0
 21 19  2  0  0  0  0
 22 11  1  0  0  0  0
 22  1  1  1  0  0  0
 23 25  1  6  0  0  0
 23 24  1  0  0  0  0
 23 10  1  0  0  0  0
 24 26  1  6  0  0  0
 25 24  1  0  0  0  0
 26 27  1  1  0  0  0
 26 28  1  0  0  0  0
 29 28  1  6  0  0  0
 29 32  1  0  0  0  0
 30 31  1  0  0  0  0
 30 29  1  0  0  0  0
 32 33  1  0  0  0  0
 33 34  1  0  0  0  0
 36 35  1  0  0  0  0
 38 40  1  6  0  0  0
 38 41  1  0  0  0  0
 38 39  1  0  0  0  0
 39 37  1  1  0  0  0
 41 36  1  1  0  0  0
 41 39  1  0  0  0  0
 42 43  1  0  0  0  0
 42 38  1  0  0  0  0
 45 44  1  0  0  0  0
 45 43  1  0  0  0  0
 46 47  1  0  0  0  0
 47 49  1  0  0  0  0
 49 51  1  0  0  0  0
 49 48  1  1  0  0  0
 51 50  1  6  0  0  0
 53 52  1  6  0  0  0
 53 51  1  0  0  0  0
 53 54  1  0  0  0  0
 54 55  1  0  0  0  0
 54 56  1  0  0  0  0
 57 54  2  0  0  0  0
 58 65  1  1  0  0  0
 58 13  1  0  0  0  0
 58 59  1  0  0  0  0
 60 59  1  0  0  0  0
 60 63  1  0  0  0  0
 61 60  2  0  0  0  0
 63 62  1  0  0  0  0
 65 64  1  0  0  0  0
M  END
>  <MODEL>
6

>  <REMARK>
 VINA RESULT:      -2.5      4.434     11.212
  Name = 
  23 active torsions:
  status: ('A' for Active; 'I' for Inactive)
    1  A    between atoms: C_1  and  C_58
    2  A    between atoms: C_4  and  C_5
    3  A    between atoms: C_4  and  C_41
    4  A    between atoms: C_5  and  C_32
    5  A    between atoms: C_8  and  O_10
    6  A    between atoms: C_8  and  C_45
    7  A    between atoms: O_10  and  C_65
    8  A    between atoms: P_11  and  C_55
    9  A    between atoms: C_13  and  C_60
   10  A    between atoms: N_15  and  C_44
   11  A    between atoms: C_17  and  N_36
   12  A    between atoms: O_19  and  C_41
   13  A    between atoms: C_22  and  O_24
   14  A    between atoms: C_22  and  C_54
   15  A    between atoms: O_24  and  C_43
   16  A    between atoms: C_27  and  C_52
   17  A    between atoms: C_29  and  C_54
   18  A    between atoms: C_29  and  C_55
   19  A    between atoms: C_37  and  C_51
   20  A    between atoms: C_37  and  C_60
   21  A    between atoms: C_41  and  C_58
   22  A    between atoms: N_42  and  C_44
   23  A    between atoms: C_44  and  C_49
                            x       y       z     vdW  Elec       q    Type
                         _______ _______ _______ _____ _____    ______ ____

>  <TORSDO>
F 23

$$$$
=
 OpenBabel10232410063D

 65 71  0  0  1  0  0  0  0  0999 V2000
  184.6210  177.7250  137.8190 S   0  0  0  0  0  0  0  0  0  0  0  0
  191.9330  176.2550  138.2110 N   0  0  0  0  0  0  0  0  0  0  0  0
  187.8230  175.5250  135.4500 O   0  0  0  0  0  0  0  0  0  0  0  0
  189.5920  176.3510  137.6160 C   0  0  0  0  0  0  0  0  0  0  0  0
  193.5400  176.0360  135.0240 C   0  0  0  0  0  0  0  0  0  0  0  0
  194.7190  175.5540  134.6170 N   0  0  0  0  0  0  0  0  0  0  0  0
  188.9000  176.3610  135.1380 C   0  0  0  0  0  2  0  0  0  0  0  0
  188.1810  176.2790  138.1220 C   0  0  0  0  0  2  0  0  0  0  0  0
  189.9250  176.3200  136.2330 C   0  0  0  0  0  0  0  0  0  0  0  0
  186.7690  175.9850  134.7260 N   0  0  2  0  0  0  0  0  0  0  0  0
  187.3260  177.4140  137.5910 C   0  0  2  0  0  3  0  0  0  0  0  0
  191.2810  176.2780  135.8980 C   0  0  0  0  0  0  0  0  0  0  0  0
  195.4060  175.4180  135.7560 N   0  0  0  0  0  0  0  0  0  0  0  0
  185.7240  179.0640  138.3290 C   0  0  2  0  0  3  0  0  0  0  0  0
  186.0500  177.0530  135.4700 C   0  0  2  0  0  3  0  0  0  0  0  0
  190.6210  176.3060  138.5790 C   0  0  0  0  0  3  0  0  0  0  0  0
  187.0210  178.4000  138.7000 C   0  0  0  0  0  2  0  0  0  0  0  0
  191.9970  176.0830  134.3460 S   0  0  0  0  0  0  0  0  0  0  0  0
  193.5180  176.1230  136.3540 C   0  0  0  0  0  0  0  0  0  0  0  0
  192.2560  176.2580  136.8980 C   0  0  0  0  0  0  0  0  0  0  0  0
  194.6950  175.7210  136.8490 N   0  0  0  0  0  0  0  0  0  0  0  0
  186.0220  176.8650  137.0060 C   0  0  2  0  0  3  0  0  0  0  0  0
  185.9000  174.8320  134.4960 C   0  0  2  0  0  3  0  0  0  0  0  0
  186.0590  173.8530  135.5990 C   0  0  2  0  0  3  0  0  0  0  0  0
  186.6950  173.6780  134.3570 O   0  0  0  0  0  0  0  0  0  0  0  0
  184.8700  172.9140  135.6730 C   0  0  2  0  0  3  0  0  0  0  0  0
  184.8620  172.1920  137.0060 C   0  0  0  0  0  1  0  0  0  0  0  0
  184.9800  171.8920  134.5470 C   0  0  0  0  0  2  0  0  0  0  0  0
  184.7520  170.4600  135.0280 C   0  0  1  0  0  3  0  0  0  0  0  0
  183.4270  170.0690  134.8060 O   0  0  0  0  0  0  0  0  0  0  0  0
  183.3450  168.7690  135.3240 C   0  0  0  0  0  1  0  0  0  0  0  0
  185.7130  169.4960  134.3460 C   0  0  0  0  0  2  0  0  0  0  0  0
  187.1180  170.0600  134.3760 C   0  0  0  0  0  2  0  0  0  0  0  0
  187.4550  170.4450  135.7360 N   0  0  0  0  0  1  0  0  0  0  0  0
  184.6900  177.3690  134.8380 C   0  0  0  0  0  2  0  0  0  0  0  0
  183.7440  176.4060  135.1980 O   0  0  0  0  0  0  0  0  0  0  0  0
  181.6510  174.8800  135.3460 O   0  0  0  0  0  1  0  0  0  0  0  0
  181.9780  176.7570  136.8290 C   0  0  1  0  0  0  0  0  0  0  0  0
  181.3290  176.2250  135.5560 C   0  0  1  0  0  3  0  0  0  0  0  0
  182.7730  175.7900  137.7050 C   0  0  0  0  0  1  0  0  0  0  0  0
  182.5740  177.1310  135.4760 C   0  0  2  0  0  3  0  0  0  0  0  0
  181.2440  177.9090  137.5040 C   0  0  0  0  0  2  0  0  0  0  0  0
  181.2810  179.1820  136.6640 C   0  0  0  0  0  2  0  0  0  0  0  0
  180.3820  181.0400  137.8550 F   0  0  0  0  0  0  0  0  0  0  0  0
  180.0690  180.0620  136.9270 C   0  0  0  0  0  2  0  0  0  0  0  0
  185.1970  179.7390  139.4310 O   0  0  0  0  0  0  0  0  0  0  0  0
  183.8380  179.4170  139.4200 C   0  0  0  0  0  2  0  0  0  0  0  0
  183.0180  177.7400  140.9060 O   0  0  0  0  0  1  0  0  0  0  0  0
  183.3510  179.0920  140.8280 C   0  0  1  0  0  3  0  0  0  0  0  0
  185.4690  180.1010  141.3930 O   0  0  0  0  0  1  0  0  0  0  0  0
  184.3550  179.4460  141.9300 C   0  0  2  0  0  3  0  0  0  0  0  0
  186.0940  177.8780  142.5280 O   0  0  0  0  0  1  0  0  0  0  0  0
  184.7700  178.2500  142.7940 C   0  0  1  0  0  3  0  0  0  0  0  0
  184.6030  178.6650  144.5560 P   0  0  0  0  0  0  0  0  0  0  0  0
  183.0120  178.3870  145.0620 O   0  0  0  0  0  1  0  0  0  0  0  0
  185.6590  177.7040  145.4640 O   0  0  0  0  0  1  0  0  0  0  0  0
  184.9430  180.1230  144.7660 O   0  0  0  0  0  0  0  0  0  0  0  0
  196.7550  174.8710  135.8030 C   0  0  2  0  0  3  0  0  0  0  0  0
  197.4000  175.2490  137.0560 N   0  0  0  0  0  2  0  0  0  0  0  0
  198.1230  174.3170  137.8600 C   0  0  0  0  0  0  0  0  0  0  0  0
  198.3030  173.1340  137.4650 O   0  0  0  0  0  0  0  0  0  0  0  0
  200.1250  174.3070  139.2870 C   0  0  0  0  0  1  0  0  0  0  0  0
  198.6830  174.7520  139.1680 C   0  0  0  0  0  2  0  0  0  0  0  0
  197.5280  176.8910  134.5640 C   0  0  0  0  0  1  0  0  0  0  0  0
  197.5610  175.3770  134.6190 C   0  0  0  0  0  2  0  0  0  0  0  0
  1 14  1  0  0  0  0
  2 16  1  0  0  0  0
  4  8  1  0  0  0  0
  4 16  2  0  0  0  0
  5 19  1  0  0  0  0
  6  5  2  0  0  0  0
  6 13  1  0  0  0  0
  7  3  1  0  0  0  0
  7  9  1  0  0  0  0
  9  4  1  0  0  0  0
 10  3  1  1  0  0  0
 10 15  1  0  0  0  0
 11  8  1  1  0  0  0
 11 17  1  0  0  0  0
 12  9  2  0  0  0  0
 12 20  1  0  0  0  0
 13 58  1  0  0  0  0
 13 21  1  0  0  0  0
 14 17  1  0  0  0  0
 14 46  1  1  0  0  0
 15 35  1  6  0  0  0
 15 22  1  0  0  0  0
 18  5  1  0  0  0  0
 18 12  1  0  0  0  0
 19 21  2  0  0  0  0
 19 20  1  0  0  0  0
 20  2  2  0  0  0  0
 22 11  1  0  0  0  0
 22  1  1  1  0  0  0
 23 25  1  6  0  0  0
 23 10  1  0  0  0  0
 23 24  1  0  0  0  0
 24 26  1  6  0  0  0
 25 24  1  0  0  0  0
 26 27  1  1  0  0  0
 28 29  1  0  0  0  0
 28 26  1  0  0  0  0
 29 32  1  6  0  0  0
 30 29  1  0  0  0  0
 30 31  1  0  0  0  0
 32 33  1  0  0  0  0
 33 34  1  0  0  0  0
 35 36  1  0  0  0  0
 38 42  1  0  0  0  0
 38 40  1  1  0  0  0
 39 37  1  1  0  0  0
 39 38  1  0  0  0  0
 41 36  1  1  0  0  0
 41 39  1  0  0  0  0
 41 38  1  0  0  0  0
 43 45  1  0  0  0  0
 43 42  1  0  0  0  0
 45 44  1  0  0  0  0
 47 46  1  0  0  0  0
 47 49  1  0  0  0  0
 49 48  1  6  0  0  0
 49 51  1  0  0  0  0
 51 50  1  6  0  0  0
 51 53  1  0  0  0  0
 53 52  1  1  0  0  0
 53 54  1  0  0  0  0
 54 57  2  0  0  0  0
 54 55  1  0  0  0  0
 54 56  1  0  0  0  0
 58 65  1  6  0  0  0
 58 59  1  0  0  0  0
 59 60  1  0  0  0  0
 60 63  1  0  0  0  0
 61 60  2  0  0  0  0
 63 62  1  0  0  0  0
 64 65  1  0  0  0  0
M  END
>  <MODEL>
7

>  <REMARK>
 VINA RESULT:      -2.2      4.837      9.562
  Name = 
  23 active torsions:
  status: ('A' for Active; 'I' for Inactive)
    1  A    between atoms: C_1  and  C_58
    2  A    between atoms: C_4  and  C_5
    3  A    between atoms: C_4  and  C_41
    4  A    between atoms: C_5  and  C_32
    5  A    between atoms: C_8  and  O_10
    6  A    between atoms: C_8  and  C_45
    7  A    between atoms: O_10  and  C_65
    8  A    between atoms: P_11  and  C_55
    9  A    between atoms: C_13  and  C_60
   10  A    between atoms: N_15  and  C_44
   11  A    between atoms: C_17  and  N_36
   12  A    between atoms: O_19  and  C_41
   13  A    between atoms: C_22  and  O_24
   14  A    between atoms: C_22  and  C_54
   15  A    between atoms: O_24  and  C_43
   16  A    between atoms: C_27  and  C_52
   17  A    between atoms: C_29  and  C_54
   18  A    between atoms: C_29  and  C_55
   19  A    between atoms: C_37  and  C_51
   20  A    between atoms: C_37  and  C_60
   21  A    between atoms: C_41  and  C_58
   22  A    between atoms: N_42  and  C_44
   23  A    between atoms: C_44  and  C_49
                            x       y       z     vdW  Elec       q    Type
                         _______ _______ _______ _____ _____    ______ ____

>  <TORSDO>
F 23

$$$$
=
 OpenBabel10232410063D

 65 71  0  0  1  0  0  0  0  0999 V2000
  184.1710  179.0770  141.7220 S   0  0  0  0  0  0  0  0  0  0  0  0
  190.9700  176.3940  140.1870 N   0  0  0  0  0  0  0  0  0  0  0  0
  186.4340  177.2190  138.2400 O   0  0  0  0  0  0  0  0  0  0  0  0
  188.6430  177.0450  140.1360 C   0  0  0  0  0  0  0  0  0  0  0  0
  191.9980  176.9030  136.8000 C   0  0  0  0  0  0  0  0  0  0  0  0
  192.9710  176.3830  136.0430 N   0  0  0  0  0  0  0  0  0  0  0  0
  187.6060  177.9240  137.9510 C   0  0  0  0  0  2  0  0  0  0  0  0
  187.3410  177.0510  140.8830 C   0  0  0  0  0  2  0  0  0  0  0  0
  188.7510  177.3850  138.7580 C   0  0  0  0  0  0  0  0  0  0  0  0
  185.4070  178.0420  137.9000 N   0  0  2  0  0  0  0  0  0  0  0  0
  186.6800  178.4170  140.8660 C   0  0  2  0  0  3  0  0  0  0  0  0
  190.0000  177.2280  138.1530 C   0  0  0  0  0  0  0  0  0  0  0  0
  193.7750  175.7970  136.9370 N   0  0  0  0  0  0  0  0  0  0  0  0
  185.6000  179.9990  142.3370 C   0  0  2  0  0  3  0  0  0  0  0  0
  185.0550  178.9340  139.0370 C   0  0  2  0  0  3  0  0  0  0  0  0
  189.7690  176.5430  140.8180 C   0  0  0  0  0  3  0  0  0  0  0  0
  186.7640  179.0530  142.2400 C   0  0  0  0  0  2  0  0  0  0  0  0
  190.4170  177.4030  136.4930 S   0  0  0  0  0  0  0  0  0  0  0  0
  192.1940  176.5810  138.0780 C   0  0  0  0  0  0  0  0  0  0  0  0
  191.0860  176.7460  138.8860 C   0  0  0  0  0  0  0  0  0  0  0  0
  193.3170  175.8620  138.1930 N   0  0  0  0  0  0  0  0  0  0  0  0
  185.2170  178.2920  140.4360 C   0  0  2  0  0  3  0  0  0  0  0  0
  184.2860  177.1720  137.5500 C   0  0  2  0  0  3  0  0  0  0  0  0
  184.5270  176.5470  136.2260 C   0  0  2  0  0  3  0  0  0  0  0  0
  183.6770  177.6570  136.3760 O   0  0  0  0  0  0  0  0  0  0  0  0
  183.6770  175.3040  136.0450 C   0  0  2  0  0  3  0  0  0  0  0  0
  182.3830  175.6590  135.3400 C   0  0  0  0  0  1  0  0  0  0  0  0
  183.3600  174.7220  137.4180 C   0  0  0  0  0  2  0  0  0  0  0  0
  182.9970  173.2390  137.3580 C   0  0  1  0  0  3  0  0  0  0  0  0
  181.6880  173.0320  137.8070 O   0  0  0  0  0  0  0  0  0  0  0  0
  180.9000  173.0870  136.6500 C   0  0  0  0  0  1  0  0  0  0  0  0
  183.1700  172.6910  135.9490 C   0  0  0  0  0  2  0  0  0  0  0  0
  183.0480  171.1820  135.9630 C   0  0  0  0  0  2  0  0  0  0  0  0
  184.3610  170.5930  136.1680 N   0  0  0  0  0  1  0  0  0  0  0  0
  183.7150  179.6440  138.8080 C   0  0  0  0  0  2  0  0  0  0  0  0
  182.6980  178.7140  138.5770 O   0  0  0  0  0  0  0  0  0  0  0  0
  180.5040  177.7950  137.5430 O   0  0  0  0  0  1  0  0  0  0  0  0
  180.7280  178.2220  139.9090 C   0  0  1  0  0  0  0  0  0  0  0  0
  180.2510  178.7290  138.5520 C   0  0  1  0  0  3  0  0  0  0  0  0
  181.3020  176.8080  140.0000 C   0  0  0  0  0  1  0  0  0  0  0  0
  181.5550  179.2700  139.1720 C   0  0  2  0  0  3  0  0  0  0  0  0
  179.9820  178.7790  141.1150 C   0  0  0  0  0  2  0  0  0  0  0  0
  180.6500  178.3890  142.4300 C   0  0  0  0  0  2  0  0  0  0  0  0
  179.9860  180.6280  142.9060 F   0  0  0  0  0  0  0  0  0  0  0  0
  180.4870  179.4740  143.4830 C   0  0  0  0  0  2  0  0  0  0  0  0
  185.4010  180.3810  143.6650 O   0  0  0  0  0  0  0  0  0  0  0  0
  184.8660  179.2460  144.2780 C   0  0  0  0  0  2  0  0  0  0  0  0
  184.7380  178.5470  146.5550 O   0  0  0  0  0  1  0  0  0  0  0  0
  185.6340  178.9120  145.5530 C   0  0  1  0  0  3  0  0  0  0  0  0
  186.1390  176.5520  145.6120 O   0  0  0  0  0  1  0  0  0  0  0  0
  186.6900  177.8160  145.3720 C   0  0  2  0  0  3  0  0  0  0  0  0
  187.8900  177.3530  147.4180 O   0  0  0  0  0  1  0  0  0  0  0  0
  187.9600  178.0410  146.2000 C   0  0  1  0  0  3  0  0  0  0  0  0
  189.4180  177.4790  145.2710 P   0  0  0  0  0  0  0  0  0  0  0  0
  188.9590  176.3170  144.1300 O   0  0  0  0  0  0  0  0  0  0  0  0
  190.1270  178.7970  144.4810 O   0  0  0  0  0  1  0  0  0  0  0  0
  190.4190  176.8680  146.2260 O   0  0  0  0  0  1  0  0  0  0  0  0
  194.9660  175.0500  136.5550 C   0  0  2  0  0  3  0  0  0  0  0  0
  195.9000  175.0020  137.6740 N   0  0  0  0  0  2  0  0  0  0  0  0
  197.0720  174.1860  137.6630 C   0  0  0  0  0  0  0  0  0  0  0  0
  197.3880  173.5320  136.6320 O   0  0  0  0  0  0  0  0  0  0  0  0
  199.2490  174.8260  138.6100 C   0  0  0  0  0  1  0  0  0  0  0  0
  197.9360  174.1200  138.8730 C   0  0  0  0  0  2  0  0  0  0  0  0
  195.5050  177.2090  135.4310 C   0  0  0  0  0  1  0  0  0  0  0  0
  195.6200  175.7010  135.3480 C   0  0  0  0  0  2  0  0  0  0  0  0
  1 14  1  0  0  0  0
  2 16  1  0  0  0  0
  4 16  2  0  0  0  0
  4  8  1  0  0  0  0
  5 19  1  0  0  0  0
  6  5  2  0  0  0  0
  6 13  1  0  0  0  0
  7  3  1  0  0  0  0
  7  9  1  0  0  0  0
  9  4  1  0  0  0  0
 10  3  1  1  0  0  0
 10 15  1  0  0  0  0
 11  8  1  1  0  0  0
 11 17  1  0  0  0  0
 12  9  2  0  0  0  0
 12 20  1  0  0  0  0
 13 21  1  0  0  0  0
 14 46  1  1  0  0  0
 15 35  1  6  0  0  0
 15 22  1  0  0  0  0
 17 14  1  0  0  0  0
 18  5  1  0  0  0  0
 18 12  1  0  0  0  0
 19 21  2  0  0  0  0
 19 20  1  0  0  0  0
 20  2  2  0  0  0  0
 22 11  1  0  0  0  0
 22  1  1  1  0  0  0
 23 25  1  6  0  0  0
 23 10  1  0  0  0  0
 24 26  1  1  0  0  0
 24 25  1  0  0  0  0
 24 23  1  0  0  0  0
 26 27  1  1  0  0  0
 26 28  1  0  0  0  0
 29 32  1  6  0  0  0
 29 28  1  0  0  0  0
 29 30  1  0  0  0  0
 31 30  1  0  0  0  0
 32 33  1  0  0  0  0
 33 34  1  0  0  0  0
 36 35  1  0  0  0  0
 38 40  1  1  0  0  0
 38 42  1  0  0  0  0
 39 37  1  6  0  0  0
 39 41  1  0  0  0  0
 39 38  1  0  0  0  0
 41 36  1  6  0  0  0
 41 38  1  0  0  0  0
 42 43  1  0  0  0  0
 43 45  1  0  0  0  0
 44 45  1  0  0  0  0
 46 47  1  0  0  0  0
 47 49  1  0  0  0  0
 49 48  1  1  0  0  0
 51 49  1  0  0  0  0
 51 50  1  1  0  0  0
 51 53  1  0  0  0  0
 53 52  1  1  0  0  0
 54 53  1  0  0  0  0
 54 57  1  0  0  0  0
 55 54  2  0  0  0  0
 56 54  1  0  0  0  0
 58 65  1  6  0  0  0
 58 13  1  0  0  0  0
 58 59  1  0  0  0  0
 60 59  1  0  0  0  0
 60 63  1  0  0  0  0
 61 60  2  0  0  0  0
 62 63  1  0  0  0  0
 65 64  1  0  0  0  0
M  END
>  <MODEL>
8

>  <REMARK>
 VINA RESULT:      -2.0      3.900      9.206
  Name = 
  23 active torsions:
  status: ('A' for Active; 'I' for Inactive)
    1  A    between atoms: C_1  and  C_58
    2  A    between atoms: C_4  and  C_5
    3  A    between atoms: C_4  and  C_41
    4  A    between atoms: C_5  and  C_32
    5  A    between atoms: C_8  and  O_10
    6  A    between atoms: C_8  and  C_45
    7  A    between atoms: O_10  and  C_65
    8  A    between atoms: P_11  and  C_55
    9  A    between atoms: C_13  and  C_60
   10  A    between atoms: N_15  and  C_44
   11  A    between atoms: C_17  and  N_36
   12  A    between atoms: O_19  and  C_41
   13  A    between atoms: C_22  and  O_24
   14  A    between atoms: C_22  and  C_54
   15  A    between atoms: O_24  and  C_43
   16  A    between atoms: C_27  and  C_52
   17  A    between atoms: C_29  and  C_54
   18  A    between atoms: C_29  and  C_55
   19  A    between atoms: C_37  and  C_51
   20  A    between atoms: C_37  and  C_60
   21  A    between atoms: C_41  and  C_58
   22  A    between atoms: N_42  and  C_44
   23  A    between atoms: C_44  and  C_49
                            x       y       z     vdW  Elec       q    Type
                         _______ _______ _______ _____ _____    ______ ____

>  <TORSDO>
F 23

$$$$
=
 OpenBabel10232410063D

 65 71  0  0  1  0  0  0  0  0999 V2000
  193.4620  173.8920  136.9240 S   0  0  0  0  0  0  0  0  0  0  0  0
  186.0500  174.5330  136.2720 N   0  0  0  0  0  0  0  0  0  0  0  0
  189.9970  176.0200  138.9660 O   0  0  0  0  0  0  0  0  0  0  0  0
  188.3550  174.6410  136.9890 C   0  0  0  0  0  0  0  0  0  0  0  0
  184.7820  177.7340  137.2370 C   0  0  0  0  0  0  0  0  0  0  0  0
  183.5590  178.1940  137.5250 N   0  0  0  0  0  0  0  0  0  0  0  0
  189.2640  176.7960  138.0620 C   0  0  0  0  0  2  0  0  0  0  0  0
  189.6190  173.8640  137.2200 C   0  0  0  0  0  2  0  0  0  0  0  0
  188.1700  175.9770  137.4410 C   0  0  0  0  0  0  0  0  0  0  0  0
  191.2090  176.6250  139.0830 N   0  0  2  0  0  0  0  0  0  0  0  0
  190.8290  174.5490  136.6110 C   0  0  2  0  0  3  0  0  0  0  0  0
  186.9070  176.5470  137.2640 C   0  0  0  0  0  0  0  0  0  0  0  0
  182.7530  177.2350  137.0560 N   0  0  0  0  0  0  0  0  0  0  0  0
  192.7740  174.0750  135.2610 C   0  0  2  0  0  3  0  0  0  0  0  0
  192.1400  176.1360  138.0310 C   0  0  2  0  0  3  0  0  0  0  0  0
  187.2710  173.9440  136.4180 C   0  0  0  0  0  3  0  0  0  0  0  0
  191.3070  173.7800  135.3960 C   0  0  0  0  0  2  0  0  0  0  0  0
  186.3250  178.0640  137.8290 S   0  0  0  0  0  0  0  0  0  0  0  0
  184.6950  176.5280  136.6770 C   0  0  0  0  0  0  0  0  0  0  0  0
  185.8760  175.8140  136.6710 C   0  0  0  0  0  0  0  0  0  0  0  0
  183.4080  176.1790  136.5620 N   0  0  0  0  0  0  0  0  0  0  0  0
  191.9540  174.6500  137.6430 C   0  0  2  0  0  3  0  0  0  0  0  0
  191.7030  176.2900  140.4170 C   0  0  2  0  0  3  0  0  0  0  0  0
  190.9560  177.0630  141.4400 C   0  0  2  0  0  3  0  0  0  0  0  0
  192.2380  177.4500  141.0120 O   0  0  0  0  0  0  0  0  0  0  0  0
  191.0730  176.4160  142.8070 C   0  0  2  0  0  3  0  0  0  0  0  0
  190.0020  175.3560  142.9720 C   0  0  0  0  0  1  0  0  0  0  0  0
  190.8880  177.4890  143.8750 C   0  0  0  0  0  2  0  0  0  0  0  0
  190.0140  177.0190  145.0360 C   0  0  1  0  0  3  0  0  0  0  0  0
  190.7840  176.8260  146.1880 O   0  0  0  0  0  0  0  0  0  0  0  0
  190.1510  177.5940  147.1750 C   0  0  0  0  0  1  0  0  0  0  0  0
  188.8890  178.0080  145.3070 C   0  0  0  0  0  2  0  0  0  0  0  0
  187.5510  177.3580  145.0250 C   0  0  0  0  0  2  0  0  0  0  0  0
  186.6430  177.6220  146.1280 N   0  0  0  0  0  1  0  0  0  0  0  0
  193.5890  176.5480  138.3200 C   0  0  0  0  0  2  0  0  0  0  0  0
  194.3880  175.4220  138.5300 O   0  0  0  0  0  0  0  0  0  0  0  0
  195.6910  175.0880  140.7490 O   0  0  0  0  0  1  0  0  0  0  0  0
  196.7260  174.7660  138.5920 C   0  0  1  0  0  0  0  0  0  0  0  0
  196.4800  175.7010  139.7700 C   0  0  1  0  0  3  0  0  0  0  0  0
  196.1890  173.3370  138.6670 C   0  0  0  0  0  1  0  0  0  0  0  0
  195.7080  175.8920  138.4490 C   0  0  2  0  0  3  0  0  0  0  0  0
  198.0150  175.0150  137.8170 C   0  0  0  0  0  2  0  0  0  0  0  0
  197.8900  174.6020  136.3540 C   0  0  0  0  0  2  0  0  0  0  0  0
  199.3770  174.5440  134.4910 F   0  0  0  0  0  0  0  0  0  0  0  0
  199.2180  174.1110  135.7960 C   0  0  0  0  0  2  0  0  0  0  0  0
  193.3690  173.1670  134.3840 O   0  0  0  0  0  0  0  0  0  0  0  0
  192.9490  171.9160  134.8390 C   0  0  0  0  0  2  0  0  0  0  0  0
  195.2530  171.5220  134.3610 O   0  0  0  0  0  1  0  0  0  0  0  0
  194.0510  170.8780  134.6500 C   0  0  1  0  0  3  0  0  0  0  0  0
  194.0760  170.6390  137.0510 O   0  0  0  0  0  1  0  0  0  0  0  0
  194.2350  169.9420  135.8480 C   0  0  2  0  0  3  0  0  0  0  0  0
  196.1710  169.2640  134.5710 O   0  0  0  0  0  1  0  0  0  0  0  0
  195.5530  169.1590  135.8230 C   0  0  1  0  0  3  0  0  0  0  0  0
  196.6770  169.7880  137.1060 P   0  0  0  0  0  0  0  0  0  0  0  0
  197.7660  168.5740  137.5600 O   0  0  0  0  0  1  0  0  0  0  0  0
  197.5330  171.1170  136.5030 O   0  0  0  0  0  0  0  0  0  0  0  0
  195.8750  170.2120  138.3160 O   0  0  0  0  0  1  0  0  0  0  0  0
  181.3030  177.2880  137.1930 C   0  0  2  0  0  3  0  0  0  0  0  0
  180.7490  175.9410  137.1140 N   0  0  0  0  0  2  0  0  0  0  0  0
  180.5910  175.1060  138.2610 C   0  0  0  0  0  0  0  0  0  0  0  0
  180.8510  175.5450  139.4140 O   0  0  0  0  0  0  0  0  0  0  0  0
  180.4500  173.2000  136.7140 C   0  0  0  0  0  1  0  0  0  0  0  0
  180.0990  173.7120  138.0960 C   0  0  0  0  0  2  0  0  0  0  0  0
  181.7690  179.0940  135.5400 C   0  0  0  0  0  1  0  0  0  0  0  0
  180.7120  178.1680  136.1050 C   0  0  0  0  0  2  0  0  0  0  0  0
  2 16  2  0  0  0  0
  2 20  1  0  0  0  0
  4  8  1  0  0  0  0
  4  9  2  0  0  0  0
  5  6  2  0  0  0  0
  5 18  1  0  0  0  0
  7  3  1  0  0  0  0
  9  7  1  0  0  0  0
 10  3  1  6  0  0  0
 10 23  1  0  0  0  0
 11 17  1  6  0  0  0
 11  8  1  0  0  0  0
 11 22  1  0  0  0  0
 12  9  1  0  0  0  0
 12 18  1  0  0  0  0
 13 58  1  0  0  0  0
 13  6  1  0  0  0  0
 14 46  1  6  0  0  0
 14 17  1  0  0  0  0
 14  1  1  0  0  0  0
 15 35  1  1  0  0  0
 15 10  1  0  0  0  0
 16  4  1  0  0  0  0
 19  5  1  0  0  0  0
 20 19  1  0  0  0  0
 20 12  2  0  0  0  0
 21 19  2  0  0  0  0
 21 13  1  0  0  0  0
 22  1  1  6  0  0  0
 22 15  1  0  0  0  0
 23 25  1  6  0  0  0
 23 24  1  0  0  0  0
 24 26  1  1  0  0  0
 25 24  1  0  0  0  0
 26 27  1  1  0  0  0
 26 28  1  0  0  0  0
 29 28  1  6  0  0  0
 29 32  1  0  0  0  0
 29 30  1  0  0  0  0
 30 31  1  0  0  0  0
 33 32  1  0  0  0  0
 33 34  1  0  0  0  0
 35 36  1  0  0  0  0
 38 40  1  1  0  0  0
 38 39  1  0  0  0  0
 39 37  1  1  0  0  0
 41 36  1  1  0  0  0
 41 38  1  0  0  0  0
 41 39  1  0  0  0  0
 42 38  1  0  0  0  0
 43 42  1  0  0  0  0
 44 45  1  0  0  0  0
 45 43  1  0  0  0  0
 46 47  1  0  0  0  0
 49 48  1  1  0  0  0
 49 47  1  0  0  0  0
 49 51  1  0  0  0  0
 51 50  1  1  0  0  0
 53 52  1  6  0  0  0
 53 51  1  0  0  0  0
 53 54  1  0  0  0  0
 54 55  1  0  0  0  0
 54 57  1  0  0  0  0
 56 54  2  0  0  0  0
 58 65  1  6  0  0  0
 59 58  1  0  0  0  0
 59 60  1  0  0  0  0
 60 61  2  0  0  0  0
 62 63  1  0  0  0  0
 63 60  1  0  0  0  0
 64 65  1  0  0  0  0
M  END
>  <MODEL>
9

>  <REMARK>
 VINA RESULT:      -1.7      3.477      9.485
  Name = 
  23 active torsions:
  status: ('A' for Active; 'I' for Inactive)
    1  A    between atoms: C_1  and  C_58
    2  A    between atoms: C_4  and  C_5
    3  A    between atoms: C_4  and  C_41
    4  A    between atoms: C_5  and  C_32
    5  A    between atoms: C_8  and  O_10
    6  A    between atoms: C_8  and  C_45
    7  A    between atoms: O_10  and  C_65
    8  A    between atoms: P_11  and  C_55
    9  A    between atoms: C_13  and  C_60
   10  A    between atoms: N_15  and  C_44
   11  A    between atoms: C_17  and  N_36
   12  A    between atoms: O_19  and  C_41
   13  A    between atoms: C_22  and  O_24
   14  A    between atoms: C_22  and  C_54
   15  A    between atoms: O_24  and  C_43
   16  A    between atoms: C_27  and  C_52
   17  A    between atoms: C_29  and  C_54
   18  A    between atoms: C_29  and  C_55
   19  A    between atoms: C_37  and  C_51
   20  A    between atoms: C_37  and  C_60
   21  A    between atoms: C_41  and  C_58
   22  A    between atoms: N_42  and  C_44
   23  A    between atoms: C_44  and  C_49
                            x       y       z     vdW  Elec       q    Type
                         _______ _______ _______ _____ _____    ______ ____

>  <TORSDO>
F 23

$$$$
