=
 OpenBabel10232408253D

 30 32  0  0  1  0  0  0  0  0999 V2000
  188.6600  177.8390  140.1220 C   0  0  0  0  0  0  0  0  0  0  0  0
  186.8560  177.7230  144.2940 C   0  0  0  0  0  0  0  0  0  0  0  0
  186.4530  177.4660  145.7150 C   0  0  2  0  0  3  0  0  0  0  0  0
  187.9900  177.1090  143.5560 C   0  0  0  0  0  3  0  0  0  0  0  0
  189.1510  177.0290  141.2870 C   0  0  0  0  0  2  0  0  0  0  0  0
  186.1600  178.9610  142.3510 O   0  0  0  0  0  0  0  0  0  0  0  0
  185.2240  178.3260  145.7800 C   0  0  0  0  0  0  0  0  0  0  0  0
  187.2260  178.3970  141.6410 C   0  0  0  0  0  0  0  0  0  0  0  0
  184.4570  178.4000  146.7770 O   0  0  0  0  0  0  0  0  0  0  0  0
  186.0190  178.5810  143.6980 C   0  0  0  0  0  0  0  0  0  0  0  0
  189.2000  177.7990  138.9500 N   0  0  0  0  0  2  0  0  0  0  0  0
  184.9930  179.0260  144.5630 N   0  0  0  0  0  0  0  0  0  0  0  0
  188.1370  177.4630  142.2760 C   0  0  0  0  0  0  0  0  0  0  0  0
  187.5030  178.6290  140.4050 N   0  0  0  0  0  0  0  0  0  0  0  0
  187.5240  177.9950  146.6570 C   0  0  0  0  0  2  0  0  0  0  0  0
  189.7830  178.2490  148.3450 O   0  0  0  0  0  0  0  0  0  0  0  0
  188.6880  177.1240  146.6230 N   0  0  0  0  0  2  0  0  0  0  0  0
  189.7840  177.2930  147.5220 C   0  0  0  0  0  0  0  0  0  0  0  0
  191.6210  176.1610  146.3430 C   0  0  0  0  0  3  0  0  0  0  0  0
  190.9160  176.4220  147.4080 N   0  0  0  0  0  0  0  0  0  0  0  0
  191.3520  176.1340  144.0020 O   0  0  0  0  0  0  0  0  0  0  0  0
  191.6220  178.2100  144.9160 O   0  0  0  0  0  1  0  0  0  0  0  0
  191.4930  176.8320  145.0390 C   0  0  0  0  0  0  0  0  0  0  0  0
  183.7650  179.7060  144.1730 C   0  0  0  0  0  2  0  0  0  0  0  0
  182.6540  178.7040  143.8800 C   0  0  0  0  0  2  0  0  0  0  0  0
  182.1570  178.8380  142.4760 C   0  0  0  0  0  0  0  0  0  0  0  0
  182.9250  178.5350  141.5250 O   0  0  0  0  0  0  0  0  0  0  0  0
  180.2370  180.3910  142.9120 N   0  0  0  0  0  1  0  0  0  0  0  0
  180.7860  179.2910  142.1930 C   0  0  0  0  0  0  0  0  0  0  0  0
  180.0700  178.6980  141.2950 N   0  0  0  0  0  2  0  0  0  0  0  0
  1 14  1  0  0  0  0
  1  5  1  0  0  0  0
  2  3  1  0  0  0  0
  3  7  1  0  0  0  0
  3 15  1  1  0  0  0
  4  2  1  0  0  0  0
  5 13  1  0  0  0  0
  6 10  1  0  0  0  0
  7  9  2  0  0  0  0
  8 13  1  0  0  0  0
  8  6  1  0  0  0  0
 10  2  2  0  0  0  0
 10 12  1  0  0  0  0
 11  1  2  0  0  0  0
 12  7  1  0  0  0  0
 13  4  2  0  0  0  0
 14  8  2  0  0  0  0
 17 15  1  0  0  0  0
 17 18  1  0  0  0  0
 18 16  2  0  0  0  0
 19 20  2  0  0  0  0
 20 18  1  0  0  0  0
 21 23  2  0  0  0  0
 22 23  1  0  0  0  0
 23 19  1  0  0  0  0
 24 12  1  0  0  0  0
 25 24  1  0  0  0  0
 26 25  1  0  0  0  0
 27 26  2  0  0  0  0
 29 26  1  0  0  0  0
 29 28  1  0  0  0  0
 30 29  2  0  0  0  0
M  END
>  <MODEL>
1

>  <REMARK>
 VINA RESULT:      -8.5      0.000      0.000
  Name = 
  8 active torsions:
  status: ('A' for Active; 'I' for Inactive)
    1  A    between atoms: C_3  and  C_11
    2  A    between atoms: C_8  and  C_17
    3  A    between atoms: C_9  and  C_24
    4  A    between atoms: C_10  and  C_17
    5  A    between atoms: C_10  and  C_21
    6  A    between atoms: C_11  and  N_16
    7  A    between atoms: N_14  and  C_25
    8  A    between atoms: C_21  and  N_28
                            x       y       z     vdW  Elec       q    Type
                         _______ _______ _______ _____ _____    ______ ____

>  <TORSDO>
F 8

$$$$
=
 OpenBabel10232408253D

 30 32  0  0  1  0  0  0  0  0999 V2000
  190.2640  177.1310  146.2320 C   0  0  0  0  0  0  0  0  0  0  0  0
  187.0840  177.9240  143.0810 C   0  0  0  0  0  0  0  0  0  0  0  0
  185.8500  178.0740  142.2420 C   0  0  2  0  0  3  0  0  0  0  0  0
  187.1580  177.5010  144.5030 C   0  0  0  0  0  3  0  0  0  0  0  0
  188.7790  177.0050  146.4080 C   0  0  0  0  0  2  0  0  0  0  0  0
  189.4800  178.0770  142.9210 O   0  0  0  0  0  0  0  0  0  0  0  0
  186.4870  178.4400  140.9330 C   0  0  0  0  0  0  0  0  0  0  0  0
  189.5700  177.6860  144.2610 C   0  0  0  0  0  0  0  0  0  0  0  0
  185.8580  178.6060  139.8550 O   0  0  0  0  0  0  0  0  0  0  0  0
  188.1900  178.1820  142.3710 C   0  0  0  0  0  0  0  0  0  0  0  0
  191.1170  176.8570  147.1610 N   0  0  0  0  0  2  0  0  0  0  0  0
  187.9030  178.5380  141.0330 N   0  0  0  0  0  0  0  0  0  0  0  0
  188.3790  177.4000  145.0380 C   0  0  0  0  0  0  0  0  0  0  0  0
  190.6650  177.5380  144.9210 N   0  0  0  0  0  0  0  0  0  0  0  0
  185.0100  179.2290  142.7660 C   0  0  0  0  0  2  0  0  0  0  0  0
  183.6940  179.2480  145.2730 O   0  0  0  0  0  0  0  0  0  0  0  0
  183.6430  178.7860  142.9900 N   0  0  0  0  0  2  0  0  0  0  0  0
  183.0310  178.8470  144.2780 C   0  0  0  0  0  0  0  0  0  0  0  0
  180.6220  178.7370  143.7950 C   0  0  0  0  0  3  0  0  0  0  0  0
  181.6920  178.3580  144.4340 N   0  0  0  0  0  0  0  0  0  0  0  0
  180.2210  180.8520  142.8360 O   0  0  0  0  0  1  0  0  0  0  0  0
  180.8480  179.2270  141.3570 O   0  0  0  0  0  0  0  0  0  0  0  0
  180.5850  179.6620  142.6500 C   0  0  0  0  0  0  0  0  0  0  0  0
  188.8510  178.5840  139.9270 C   0  0  0  0  0  2  0  0  0  0  0  0
  189.2480  177.1780  139.4890 C   0  0  0  0  0  2  0  0  0  0  0  0
  190.7340  177.0150  139.4700 C   0  0  0  0  0  0  0  0  0  0  0  0
  191.4230  177.5930  140.3520 O   0  0  0  0  0  0  0  0  0  0  0  0
  190.7630  174.9870  137.9960 N   0  0  0  0  0  1  0  0  0  0  0  0
  191.3960  176.1750  138.4600 C   0  0  0  0  0  0  0  0  0  0  0  0
  192.5520  176.5060  137.9850 N   0  0  0  0  0  2  0  0  0  0  0  0
  1  5  1  0  0  0  0
  1 11  2  0  0  0  0
  2  4  1  0  0  0  0
  3 15  1  1  0  0  0
  3  2  1  0  0  0  0
  4 13  2  0  0  0  0
  6  8  1  0  0  0  0
  7 12  1  0  0  0  0
  7  3  1  0  0  0  0
  8 14  2  0  0  0  0
  8 13  1  0  0  0  0
  9  7  2  0  0  0  0
 10  6  1  0  0  0  0
 10  2  2  0  0  0  0
 12 10  1  0  0  0  0
 13  5  1  0  0  0  0
 14  1  1  0  0  0  0
 15 17  1  0  0  0  0
 17 18  1  0  0  0  0
 18 20  1  0  0  0  0
 18 16  2  0  0  0  0
 19 20  2  0  0  0  0
 22 23  2  0  0  0  0
 23 21  1  0  0  0  0
 23 19  1  0  0  0  0
 24 12  1  0  0  0  0
 25 24  1  0  0  0  0
 26 25  1  0  0  0  0
 26 27  2  0  0  0  0
 28 29  1  0  0  0  0
 29 26  1  0  0  0  0
 30 29  2  0  0  0  0
M  END
>  <MODEL>
2

>  <REMARK>
 VINA RESULT:      -8.2      2.167      7.909
  Name = 
  8 active torsions:
  status: ('A' for Active; 'I' for Inactive)
    1  A    between atoms: C_3  and  C_11
    2  A    between atoms: C_8  and  C_17
    3  A    between atoms: C_9  and  C_24
    4  A    between atoms: C_10  and  C_17
    5  A    between atoms: C_10  and  C_21
    6  A    between atoms: C_11  and  N_16
    7  A    between atoms: N_14  and  C_25
    8  A    between atoms: C_21  and  N_28
                            x       y       z     vdW  Elec       q    Type
                         _______ _______ _______ _____ _____    ______ ____

>  <TORSDO>
F 8

$$$$
=
 OpenBabel10232408253D

 30 32  0  0  1  0  0  0  0  0999 V2000
  185.4150  178.3680  146.0620 C   0  0  0  0  0  0  0  0  0  0  0  0
  187.9290  177.5170  142.3700 C   0  0  0  0  0  0  0  0  0  0  0  0
  188.5050  177.2780  141.0060 C   0  0  2  0  0  3  0  0  0  0  0  0
  186.5550  177.9790  142.6970 C   0  0  0  0  0  3  0  0  0  0  0  0
  184.9810  178.5090  144.6320 C   0  0  0  0  0  2  0  0  0  0  0  0
  188.5000  177.3180  144.6990 O   0  0  0  0  0  0  0  0  0  0  0  0
  189.8590  176.7640  141.4000 C   0  0  0  0  0  0  0  0  0  0  0  0
  187.2130  177.7580  145.0260 C   0  0  0  0  0  0  0  0  0  0  0  0
  190.7260  176.3430  140.5890 O   0  0  0  0  0  0  0  0  0  0  0  0
  188.8100  177.2130  143.3310 C   0  0  0  0  0  0  0  0  0  0  0  0
  184.6380  178.5940  147.0670 N   0  0  0  0  0  2  0  0  0  0  0  0
  190.0450  176.7650  142.8110 N   0  0  0  0  0  0  0  0  0  0  0  0
  186.2490  178.0850  143.9930 C   0  0  0  0  0  0  0  0  0  0  0  0
  186.7600  177.9100  146.2220 N   0  0  0  0  0  0  0  0  0  0  0  0
  188.6320  178.5990  140.2640 C   0  0  0  0  0  2  0  0  0  0  0  0
  189.6970  178.0250  137.7040 O   0  0  0  0  0  0  0  0  0  0  0  0
  187.8580  178.5520  139.0330 N   0  0  0  0  0  2  0  0  0  0  0  0
  188.4550  178.2310  137.7770 C   0  0  0  0  0  0  0  0  0  0  0  0
  186.8820  177.2840  136.1410 C   0  0  0  0  0  3  0  0  0  0  0  0
  187.6400  178.2410  136.5980 N   0  0  0  0  0  0  0  0  0  0  0  0
  185.4070  175.8020  137.2250 O   0  0  0  0  0  1  0  0  0  0  0  0
  187.5820  175.1070  137.1450 O   0  0  0  0  0  0  0  0  0  0  0  0
  186.5820  176.0190  136.8320 C   0  0  0  0  0  0  0  0  0  0  0  0
  191.0980  176.0770  143.5490 C   0  0  0  0  0  2  0  0  0  0  0  0
  191.6020  176.9320  144.7070 C   0  0  0  0  0  2  0  0  0  0  0  0
  191.8320  176.1050  145.9310 C   0  0  0  0  0  0  0  0  0  0  0  0
  192.3510  174.9640  145.8080 O   0  0  0  0  0  0  0  0  0  0  0  0
  190.1740  177.0990  147.5290 N   0  0  0  0  0  2  0  0  0  0  0  0
  191.4870  176.6120  147.2690 C   0  0  0  0  0  0  0  0  0  0  0  0
  192.3670  176.6210  148.2150 N   0  0  0  0  0  1  0  0  0  0  0  0
  1 14  1  0  0  0  0
  1 11  2  0  0  0  0
  2  4  1  0  0  0  0
  2 10  2  0  0  0  0
  3 15  1  6  0  0  0
  3  7  1  0  0  0  0
  3  2  1  0  0  0  0
  4 13  2  0  0  0  0
  5  1  1  0  0  0  0
  6  8  1  0  0  0  0
  7 12  1  0  0  0  0
  8 14  2  0  0  0  0
  9  7  2  0  0  0  0
 10  6  1  0  0  0  0
 12 10  1  0  0  0  0
 12 24  1  0  0  0  0
 13  5  1  0  0  0  0
 13  8  1  0  0  0  0
 16 18  2  0  0  0  0
 17 15  1  0  0  0  0
 18 17  1  0  0  0  0
 19 20  2  0  0  0  0
 19 23  1  0  0  0  0
 20 18  1  0  0  0  0
 23 22  2  0  0  0  0
 23 21  1  0  0  0  0
 24 25  1  0  0  0  0
 25 26  1  0  0  0  0
 26 29  1  0  0  0  0
 27 26  2  0  0  0  0
 29 28  2  0  0  0  0
 29 30  1  0  0  0  0
M  END
>  <MODEL>
3

>  <REMARK>
 VINA RESULT:      -8.1      2.985      8.432
  Name = 
  8 active torsions:
  status: ('A' for Active; 'I' for Inactive)
    1  A    between atoms: C_3  and  C_11
    2  A    between atoms: C_8  and  C_17
    3  A    between atoms: C_9  and  C_24
    4  A    between atoms: C_10  and  C_17
    5  A    between atoms: C_10  and  C_21
    6  A    between atoms: C_11  and  N_16
    7  A    between atoms: N_14  and  C_25
    8  A    between atoms: C_21  and  N_28
                            x       y       z     vdW  Elec       q    Type
                         _______ _______ _______ _____ _____    ______ ____

>  <TORSDO>
F 8

$$$$
=
 OpenBabel10232408253D

 30 32  0  0  1  0  0  0  0  0999 V2000
  190.0710  177.2530  139.8660 C   0  0  0  0  0  0  0  0  0  0  0  0
  187.4280  177.4310  143.5620 C   0  0  0  0  0  0  0  0  0  0  0  0
  186.7420  177.2870  144.8870 C   0  0  2  0  0  3  0  0  0  0  0  0
  188.7140  176.8160  143.1430 C   0  0  0  0  0  3  0  0  0  0  0  0
  190.3320  176.5870  141.1850 C   0  0  0  0  0  2  0  0  0  0  0  0
  187.1170  178.4370  141.3980 O   0  0  0  0  0  0  0  0  0  0  0  0
  185.4980  178.0780  144.6050 C   0  0  0  0  0  0  0  0  0  0  0  0
  188.3280  177.8700  140.9880 C   0  0  0  0  0  0  0  0  0  0  0  0
  184.5350  178.2020  145.4070 O   0  0  0  0  0  0  0  0  0  0  0  0
  186.7070  178.1800  142.7180 C   0  0  0  0  0  0  0  0  0  0  0  0
  190.8480  177.1340  138.8430 N   0  0  0  0  0  2  0  0  0  0  0  0
  185.5050  178.6450  143.3000 N   0  0  0  0  0  0  0  0  0  0  0  0
  189.1170  177.0540  141.8910 C   0  0  0  0  0  0  0  0  0  0  0  0
  188.8520  178.0000  139.8180 N   0  0  0  0  0  0  0  0  0  0  0  0
  187.5690  177.9640  145.9690 C   0  0  0  0  0  2  0  0  0  0  0  0
  189.3180  178.4190  148.1490 O   0  0  0  0  0  0  0  0  0  0  0  0
  188.7360  177.1540  146.2810 N   0  0  0  0  0  2  0  0  0  0  0  0
  189.5630  177.4240  147.4130 C   0  0  0  0  0  0  0  0  0  0  0  0
  191.6310  176.2570  146.7770 C   0  0  0  0  0  3  0  0  0  0  0  0
  190.7190  176.6080  147.6390 N   0  0  0  0  0  0  0  0  0  0  0  0
  191.7780  177.9970  145.1950 O   0  0  0  0  0  1  0  0  0  0  0  0
  191.7320  175.8910  144.3080 O   0  0  0  0  0  0  0  0  0  0  0  0
  191.7500  176.7550  145.3960 C   0  0  0  0  0  0  0  0  0  0  0  0
  184.3640  179.2140  142.5940 C   0  0  0  0  0  2  0  0  0  0  0  0
  183.6980  178.1710  141.7020 C   0  0  0  0  0  2  0  0  0  0  0  0
  183.2310  178.7760  140.4160 C   0  0  0  0  0  0  0  0  0  0  0  0
  182.0010  178.9880  140.2530 O   0  0  0  0  0  0  0  0  0  0  0  0
  184.2580  180.4940  138.9060 N   0  0  0  0  0  1  0  0  0  0  0  0
  184.1850  179.1460  139.3590 C   0  0  0  0  0  0  0  0  0  0  0  0
  184.9610  178.2560  138.8320 N   0  0  0  0  0  2  0  0  0  0  0  0
  1  5  1  0  0  0  0
  2  3  1  0  0  0  0
  3 15  1  1  0  0  0
  4  2  1  0  0  0  0
  5 13  1  0  0  0  0
  6 10  1  0  0  0  0
  7  3  1  0  0  0  0
  7  9  2  0  0  0  0
  8  6  1  0  0  0  0
  8 13  1  0  0  0  0
 10 12  1  0  0  0  0
 10  2  2  0  0  0  0
 11  1  2  0  0  0  0
 12  7  1  0  0  0  0
 13  4  2  0  0  0  0
 14  1  1  0  0  0  0
 14  8  2  0  0  0  0
 15 17  1  0  0  0  0
 17 18  1  0  0  0  0
 18 20  1  0  0  0  0
 18 16  2  0  0  0  0
 19 20  2  0  0  0  0
 21 23  1  0  0  0  0
 22 23  2  0  0  0  0
 23 19  1  0  0  0  0
 24 12  1  0  0  0  0
 25 24  1  0  0  0  0
 26 25  1  0  0  0  0
 27 26  2  0  0  0  0
 28 29  1  0  0  0  0
 29 26  1  0  0  0  0
 30 29  2  0  0  0  0
M  END
>  <MODEL>
4

>  <REMARK>
 VINA RESULT:      -8.1      1.834      2.131
  Name = 
  8 active torsions:
  status: ('A' for Active; 'I' for Inactive)
    1  A    between atoms: C_3  and  C_11
    2  A    between atoms: C_8  and  C_17
    3  A    between atoms: C_9  and  C_24
    4  A    between atoms: C_10  and  C_17
    5  A    between atoms: C_10  and  C_21
    6  A    between atoms: C_11  and  N_16
    7  A    between atoms: N_14  and  C_25
    8  A    between atoms: C_21  and  N_28
                            x       y       z     vdW  Elec       q    Type
                         _______ _______ _______ _____ _____    ______ ____

>  <TORSDO>
F 8

$$$$
=
 OpenBabel10232408253D

 30 32  0  0  1  0  0  0  0  0999 V2000
  188.3770  177.3180  147.2150 C   0  0  0  0  0  0  0  0  0  0  0  0
  189.1450  177.9280  142.7740 C   0  0  0  0  0  0  0  0  0  0  0  0
  189.6820  178.1390  141.3900 C   0  0  2  0  0  3  0  0  0  0  0  0
  189.9270  177.6920  144.0150 C   0  0  0  0  0  3  0  0  0  0  0  0
  189.7130  177.3340  146.5320 C   0  0  0  0  0  2  0  0  0  0  0  0
  187.0660  177.8940  143.9860 O   0  0  0  0  0  0  0  0  0  0  0  0
  188.3920  178.3880  140.6640 C   0  0  0  0  0  0  0  0  0  0  0  0
  187.7840  177.6650  145.1640 C   0  0  0  0  0  0  0  0  0  0  0  0
  188.3080  178.6980  139.4460 O   0  0  0  0  0  0  0  0  0  0  0  0
  187.8100  178.0200  142.7990 C   0  0  0  0  0  0  0  0  0  0  0  0
  188.2300  177.1740  148.4880 N   0  0  0  0  0  2  0  0  0  0  0  0
  187.2620  178.2760  141.5210 N   0  0  0  0  0  0  0  0  0  0  0  0
  189.2320  177.5680  145.1500 C   0  0  0  0  0  0  0  0  0  0  0  0
  187.2680  177.5280  146.3360 N   0  0  0  0  0  0  0  0  0  0  0  0
  190.3350  176.8590  140.8920 C   0  0  0  0  0  2  0  0  0  0  0  0
  190.2030  175.4120  138.4620 O   0  0  0  0  0  0  0  0  0  0  0  0
  191.1400  177.1400  139.7130 N   0  0  0  0  0  2  0  0  0  0  0  0
  191.0050  176.3850  138.5100 C   0  0  0  0  0  0  0  0  0  0  0  0
  193.0620  176.2520  137.1700 C   0  0  0  0  0  3  0  0  0  0  0  0
  191.8570  176.6910  137.3990 N   0  0  0  0  0  0  0  0  0  0  0  0
  194.7250  175.5410  138.6810 O   0  0  0  0  0  1  0  0  0  0  0  0
  193.4440  173.8660  137.8010 O   0  0  0  0  0  0  0  0  0  0  0  0
  193.7600  175.2110  137.9430 C   0  0  0  0  0  0  0  0  0  0  0  0
  185.9060  178.7300  141.2340 C   0  0  0  0  0  2  0  0  0  0  0  0
  185.2370  179.2800  142.4890 C   0  0  0  0  0  2  0  0  0  0  0  0
  183.8480  178.7460  142.6420 C   0  0  0  0  0  0  0  0  0  0  0  0
  183.3200  178.1340  141.6760 O   0  0  0  0  0  0  0  0  0  0  0  0
  183.8110  179.1240  145.1200 N   0  0  0  0  0  1  0  0  0  0  0  0
  183.1070  178.9030  143.9030 C   0  0  0  0  0  0  0  0  0  0  0  0
  181.8160  178.8400  143.9170 N   0  0  0  0  0  2  0  0  0  0  0  0
  1 11  2  0  0  0  0
  2 10  2  0  0  0  0
  2  4  1  0  0  0  0
  3 15  1  6  0  0  0
  3  2  1  0  0  0  0
  4 13  2  0  0  0  0
  5  1  1  0  0  0  0
  6  8  1  0  0  0  0
  7  3  1  0  0  0  0
  7 12  1  0  0  0  0
  8 14  2  0  0  0  0
  9  7  2  0  0  0  0
 10  6  1  0  0  0  0
 12 10  1  0  0  0  0
 13  8  1  0  0  0  0
 13  5  1  0  0  0  0
 14  1  1  0  0  0  0
 16 18  2  0  0  0  0
 17 15  1  0  0  0  0
 18 17  1  0  0  0  0
 19 20  2  0  0  0  0
 19 23  1  0  0  0  0
 20 18  1  0  0  0  0
 22 23  2  0  0  0  0
 23 21  1  0  0  0  0
 24 12  1  0  0  0  0
 24 25  1  0  0  0  0
 25 26  1  0  0  0  0
 26 29  1  0  0  0  0
 27 26  2  0  0  0  0
 29 30  2  0  0  0  0
 29 28  1  0  0  0  0
M  END
>  <MODEL>
5

>  <REMARK>
 VINA RESULT:      -7.9      3.011      6.078
  Name = 
  8 active torsions:
  status: ('A' for Active; 'I' for Inactive)
    1  A    between atoms: C_3  and  C_11
    2  A    between atoms: C_8  and  C_17
    3  A    between atoms: C_9  and  C_24
    4  A    between atoms: C_10  and  C_17
    5  A    between atoms: C_10  and  C_21
    6  A    between atoms: C_11  and  N_16
    7  A    between atoms: N_14  and  C_25
    8  A    between atoms: C_21  and  N_28
                            x       y       z     vdW  Elec       q    Type
                         _______ _______ _______ _____ _____    ______ ____

>  <TORSDO>
F 8

$$$$
=
 OpenBabel10232408253D

 30 32  0  0  1  0  0  0  0  0999 V2000
  190.6650  176.8640  146.4090 C   0  0  0  0  0  0  0  0  0  0  0  0
  189.8050  177.6210  142.0080 C   0  0  0  0  0  0  0  0  0  0  0  0
  189.8140  177.8510  140.5270 C   0  0  2  0  0  3  0  0  0  0  0  0
  190.9590  177.2500  142.8670 C   0  0  0  0  0  3  0  0  0  0  0  0
  191.6500  176.7870  145.2780 C   0  0  0  0  0  2  0  0  0  0  0  0
  188.3270  177.7240  143.9050 O   0  0  0  0  0  0  0  0  0  0  0  0
  188.3820  178.2580  140.3340 C   0  0  0  0  0  0  0  0  0  0  0  0
  189.4000  177.3690  144.7290 C   0  0  0  0  0  0  0  0  0  0  0  0
  187.8890  178.6350  139.2380 O   0  0  0  0  0  0  0  0  0  0  0  0
  188.5910  177.8390  142.5280 C   0  0  0  0  0  0  0  0  0  0  0  0
  190.9840  176.6700  147.6440 N   0  0  0  0  0  2  0  0  0  0  0  0
  187.6420  178.2100  141.5480 N   0  0  0  0  0  0  0  0  0  0  0  0
  190.7220  177.1350  144.1770 C   0  0  0  0  0  0  0  0  0  0  0  0
  189.3400  177.2210  146.0070 N   0  0  0  0  0  0  0  0  0  0  0  0
  190.0980  176.5420  139.8060 C   0  0  0  0  0  2  0  0  0  0  0  0
  190.9310  174.5780  137.9450 O   0  0  0  0  0  0  0  0  0  0  0  0
  191.0830  176.7560  138.7580 N   0  0  0  0  0  2  0  0  0  0  0  0
  191.4400  175.7280  137.8350 C   0  0  0  0  0  0  0  0  0  0  0  0
  193.7120  175.6880  136.8970 C   0  0  0  0  0  3  0  0  0  0  0  0
  192.4470  175.9960  136.8510 N   0  0  0  0  0  0  0  0  0  0  0  0
  194.2670  173.6000  137.8370 O   0  0  0  0  0  0  0  0  0  0  0  0
  194.9820  175.4120  139.0300 O   0  0  0  0  0  1  0  0  0  0  0  0
  194.3590  174.8520  137.9220 C   0  0  0  0  0  0  0  0  0  0  0  0
  186.3330  178.8040  141.7910 C   0  0  0  0  0  2  0  0  0  0  0  0
  185.4790  177.9020  142.6770 C   0  0  0  0  0  2  0  0  0  0  0  0
  184.4450  178.6900  143.4160 C   0  0  0  0  0  0  0  0  0  0  0  0
  183.4710  179.1690  142.7760 O   0  0  0  0  0  0  0  0  0  0  0  0
  185.7920  178.7810  145.5280 N   0  0  0  0  0  2  0  0  0  0  0  0
  184.5340  178.8890  144.8710 C   0  0  0  0  0  0  0  0  0  0  0  0
  183.4770  179.1630  145.5630 N   0  0  0  0  0  1  0  0  0  0  0  0
  1 11  2  0  0  0  0
  2 10  2  0  0  0  0
  2  4  1  0  0  0  0
  3 15  1  6  0  0  0
  3  2  1  0  0  0  0
  4 13  2  0  0  0  0
  5  1  1  0  0  0  0
  6  8  1  0  0  0  0
  7  3  1  0  0  0  0
  7 12  1  0  0  0  0
  8 14  2  0  0  0  0
  9  7  2  0  0  0  0
 10  6  1  0  0  0  0
 12 24  1  0  0  0  0
 12 10  1  0  0  0  0
 13  8  1  0  0  0  0
 13  5  1  0  0  0  0
 14  1  1  0  0  0  0
 17 15  1  0  0  0  0
 18 16  2  0  0  0  0
 18 17  1  0  0  0  0
 19 23  1  0  0  0  0
 20 19  2  0  0  0  0
 20 18  1  0  0  0  0
 21 23  2  0  0  0  0
 23 22  1  0  0  0  0
 24 25  1  0  0  0  0
 25 26  1  0  0  0  0
 26 29  1  0  0  0  0
 27 26  2  0  0  0  0
 29 28  2  0  0  0  0
 29 30  1  0  0  0  0
M  END
>  <MODEL>
6

>  <REMARK>
 VINA RESULT:      -7.8      3.217      6.478
  Name = 
  8 active torsions:
  status: ('A' for Active; 'I' for Inactive)
    1  A    between atoms: C_3  and  C_11
    2  A    between atoms: C_8  and  C_17
    3  A    between atoms: C_9  and  C_24
    4  A    between atoms: C_10  and  C_17
    5  A    between atoms: C_10  and  C_21
    6  A    between atoms: C_11  and  N_16
    7  A    between atoms: N_14  and  C_25
    8  A    between atoms: C_21  and  N_28
                            x       y       z     vdW  Elec       q    Type
                         _______ _______ _______ _____ _____    ______ ____

>  <TORSDO>
F 8

$$$$
=
 OpenBabel10232408253D

 30 32  0  0  1  0  0  0  0  0999 V2000
  184.8690  178.6100  145.2890 C   0  0  0  0  0  0  0  0  0  0  0  0
  188.4820  177.5570  142.7370 C   0  0  0  0  0  0  0  0  0  0  0  0
  189.4720  177.1100  141.7040 C   0  0  2  0  0  3  0  0  0  0  0  0
  187.0020  177.5830  142.6110 C   0  0  0  0  0  3  0  0  0  0  0  0
  184.8500  178.1180  143.8710 C   0  0  0  0  0  2  0  0  0  0  0  0
  188.3790  178.3370  145.0110 O   0  0  0  0  0  0  0  0  0  0  0  0
  190.7380  177.2650  142.4960 C   0  0  0  0  0  0  0  0  0  0  0  0
  186.9840  178.3750  144.9090 C   0  0  0  0  0  0  0  0  0  0  0  0
  191.8820  176.9400  142.0830 O   0  0  0  0  0  0  0  0  0  0  0  0
  189.0910  177.9120  143.8750 C   0  0  0  0  0  0  0  0  0  0  0  0
  183.8010  178.8580  145.9700 N   0  0  0  0  0  2  0  0  0  0  0  0
  190.4970  177.7880  143.7970 N   0  0  0  0  0  0  0  0  0  0  0  0
  186.3130  177.9870  143.6830 C   0  0  0  0  0  0  0  0  0  0  0  0
  186.1790  178.7350  145.8480 N   0  0  0  0  0  0  0  0  0  0  0  0
  189.4580  178.0750  140.5280 C   0  0  0  0  0  2  0  0  0  0  0  0
  188.9480  179.3710  138.0640 O   0  0  0  0  0  0  0  0  0  0  0  0
  188.7660  177.4720  139.4000 N   0  0  0  0  0  2  0  0  0  0  0  0
  188.5640  178.1740  138.1750 C   0  0  0  0  0  0  0  0  0  0  0  0
  186.5530  177.3550  137.0220 C   0  0  0  0  0  3  0  0  0  0  0  0
  187.8400  177.5330  137.1170 N   0  0  0  0  0  0  0  0  0  0  0  0
  184.4620  177.2890  138.1080 O   0  0  0  0  0  0  0  0  0  0  0  0
  185.6940  179.1710  138.5060 O   0  0  0  0  0  1  0  0  0  0  0  0
  185.5360  177.9180  137.9270 C   0  0  0  0  0  0  0  0  0  0  0  0
  191.4300  177.7940  144.9170 C   0  0  0  0  0  2  0  0  0  0  0  0
  191.2760  176.5360  145.7650 C   0  0  0  0  0  2  0  0  0  0  0  0
  191.0110  176.8760  147.1970 C   0  0  0  0  0  0  0  0  0  0  0  0
  191.9780  176.9220  148.0020 O   0  0  0  0  0  0  0  0  0  0  0  0
  189.3860  178.4110  148.3330 N   0  0  0  0  0  1  0  0  0  0  0  0
  189.6510  177.1790  147.6690 C   0  0  0  0  0  0  0  0  0  0  0  0
  188.6890  176.3360  147.4870 N   0  0  0  0  0  2  0  0  0  0  0  0
  1 14  1  0  0  0  0
  1 11  2  0  0  0  0
  2 10  2  0  0  0  0
  3 15  1  6  0  0  0
  3  7  1  0  0  0  0
  3  2  1  0  0  0  0
  4  2  1  0  0  0  0
  4 13  2  0  0  0  0
  5  1  1  0  0  0  0
  7 12  1  0  0  0  0
  8  6  1  0  0  0  0
  8 14  2  0  0  0  0
  9  7  2  0  0  0  0
 10  6  1  0  0  0  0
 12 10  1  0  0  0  0
 12 24  1  0  0  0  0
 13  5  1  0  0  0  0
 13  8  1  0  0  0  0
 16 18  2  0  0  0  0
 17 15  1  0  0  0  0
 18 17  1  0  0  0  0
 19 20  2  0  0  0  0
 19 23  1  0  0  0  0
 20 18  1  0  0  0  0
 23 21  2  0  0  0  0
 23 22  1  0  0  0  0
 24 25  1  0  0  0  0
 25 26  1  0  0  0  0
 26 29  1  0  0  0  0
 26 27  2  0  0  0  0
 29 28  1  0  0  0  0
 30 29  2  0  0  0  0
M  END
>  <MODEL>
7

>  <REMARK>
 VINA RESULT:      -7.8      2.538      7.955
  Name = 
  8 active torsions:
  status: ('A' for Active; 'I' for Inactive)
    1  A    between atoms: C_3  and  C_11
    2  A    between atoms: C_8  and  C_17
    3  A    between atoms: C_9  and  C_24
    4  A    between atoms: C_10  and  C_17
    5  A    between atoms: C_10  and  C_21
    6  A    between atoms: C_11  and  N_16
    7  A    between atoms: N_14  and  C_25
    8  A    between atoms: C_21  and  N_28
                            x       y       z     vdW  Elec       q    Type
                         _______ _______ _______ _____ _____    ______ ____

>  <TORSDO>
F 8

$$$$
=
 OpenBabel10232408253D

 30 32  0  0  1  0  0  0  0  0999 V2000
  190.9960  176.9820  146.3220 C   0  0  0  0  0  0  0  0  0  0  0  0
  188.9330  178.0420  142.4110 C   0  0  0  0  0  0  0  0  0  0  0  0
  188.5230  178.4700  141.0340 C   0  0  2  0  0  3  0  0  0  0  0  0
  190.3150  177.9370  142.9450 C   0  0  0  0  0  3  0  0  0  0  0  0
  191.6630  177.3790  145.0370 C   0  0  0  0  0  2  0  0  0  0  0  0
  187.9830  177.4060  144.5290 O   0  0  0  0  0  0  0  0  0  0  0  0
  187.0320  178.4280  141.1990 C   0  0  0  0  0  0  0  0  0  0  0  0
  189.2770  177.2940  145.0480 C   0  0  0  0  0  0  0  0  0  0  0  0
  186.2060  178.7810  140.3150 O   0  0  0  0  0  0  0  0  0  0  0  0
  187.8670  177.7910  143.1810 C   0  0  0  0  0  0  0  0  0  0  0  0
  191.6420  176.7250  147.4090 N   0  0  0  0  0  2  0  0  0  0  0  0
  186.6460  177.9780  142.4920 N   0  0  0  0  0  0  0  0  0  0  0  0
  190.4400  177.5690  144.2240 C   0  0  0  0  0  0  0  0  0  0  0  0
  189.5680  176.9570  146.2560 N   0  0  0  0  0  0  0  0  0  0  0  0
  188.9760  177.4320  140.0180 C   0  0  0  0  0  2  0  0  0  0  0  0
  187.4500  176.6310  137.7720 O   0  0  0  0  0  0  0  0  0  0  0  0
  189.0620  178.0350  138.6970 N   0  0  0  0  0  2  0  0  0  0  0  0
  188.2440  177.5990  137.6130 C   0  0  0  0  0  0  0  0  0  0  0  0
  189.0990  177.7720  135.3140 C   0  0  0  0  0  3  0  0  0  0  0  0
  188.4090  178.2120  136.3280 N   0  0  0  0  0  0  0  0  0  0  0  0
  189.0810  175.4720  134.8040 O   0  0  0  0  0  0  0  0  0  0  0  0
  191.0460  176.2490  135.6740 O   0  0  0  0  0  1  0  0  0  0  0  0
  189.7480  176.4540  135.2210 C   0  0  0  0  0  0  0  0  0  0  0  0
  185.3220  178.0890  143.0920 C   0  0  0  0  0  2  0  0  0  0  0  0
  185.2000  179.3670  143.9150 C   0  0  0  0  0  2  0  0  0  0  0  0
  184.6110  179.0900  145.2620 C   0  0  0  0  0  0  0  0  0  0  0  0
  183.3590  179.1010  145.3940 O   0  0  0  0  0  0  0  0  0  0  0  0
  185.9480  177.4570  146.6160 N   0  0  0  0  0  2  0  0  0  0  0  0
  185.4670  178.7820  146.4190 C   0  0  0  0  0  0  0  0  0  0  0  0
  185.7870  179.7070  147.2630 N   0  0  0  0  0  1  0  0  0  0  0  0
  1 11  2  0  0  0  0
  2  4  1  0  0  0  0
  2 10  2  0  0  0  0
  3 15  1  6  0  0  0
  3  7  1  0  0  0  0
  3  2  1  0  0  0  0
  4 13  2  0  0  0  0
  5  1  1  0  0  0  0
  6  8  1  0  0  0  0
  7 12  1  0  0  0  0
  8 14  2  0  0  0  0
  9  7  2  0  0  0  0
 10  6  1  0  0  0  0
 12 24  1  0  0  0  0
 12 10  1  0  0  0  0
 13  5  1  0  0  0  0
 13  8  1  0  0  0  0
 14  1  1  0  0  0  0
 17 15  1  0  0  0  0
 18 16  2  0  0  0  0
 18 17  1  0  0  0  0
 19 20  2  0  0  0  0
 20 18  1  0  0  0  0
 21 23  2  0  0  0  0
 23 19  1  0  0  0  0
 23 22  1  0  0  0  0
 24 25  1  0  0  0  0
 25 26  1  0  0  0  0
 26 27  2  0  0  0  0
 26 29  1  0  0  0  0
 29 28  2  0  0  0  0
 29 30  1  0  0  0  0
M  END
>  <MODEL>
8

>  <REMARK>
 VINA RESULT:      -7.8      3.170      6.891
  Name = 
  8 active torsions:
  status: ('A' for Active; 'I' for Inactive)
    1  A    between atoms: C_3  and  C_11
    2  A    between atoms: C_8  and  C_17
    3  A    between atoms: C_9  and  C_24
    4  A    between atoms: C_10  and  C_17
    5  A    between atoms: C_10  and  C_21
    6  A    between atoms: C_11  and  N_16
    7  A    between atoms: N_14  and  C_25
    8  A    between atoms: C_21  and  N_28
                            x       y       z     vdW  Elec       q    Type
                         _______ _______ _______ _____ _____    ______ ____

>  <TORSDO>
F 8

$$$$
=
 OpenBabel10232408253D

 30 32  0  0  1  0  0  0  0  0999 V2000
  187.9870  177.5010  147.7130 C   0  0  0  0  0  0  0  0  0  0  0  0
  188.7110  177.9020  143.2420 C   0  0  0  0  0  0  0  0  0  0  0  0
  189.2340  178.0030  141.8400 C   0  0  2  0  0  3  0  0  0  0  0  0
  189.4840  177.5750  144.4680 C   0  0  0  0  0  3  0  0  0  0  0  0
  189.2900  177.3020  146.9960 C   0  0  0  0  0  2  0  0  0  0  0  0
  186.6860  178.2050  144.5050 O   0  0  0  0  0  0  0  0  0  0  0  0
  187.9770  178.4300  141.1410 C   0  0  0  0  0  0  0  0  0  0  0  0
  187.3950  177.8940  145.6700 C   0  0  0  0  0  0  0  0  0  0  0  0
  187.9050  178.7250  139.9180 O   0  0  0  0  0  0  0  0  0  0  0  0
  187.4060  178.1950  143.2980 C   0  0  0  0  0  0  0  0  0  0  0  0
  187.8560  177.4050  148.9930 N   0  0  0  0  0  2  0  0  0  0  0  0
  186.8670  178.5060  142.0280 N   0  0  0  0  0  0  0  0  0  0  0  0
  188.8100  177.5790  145.6230 C   0  0  0  0  0  0  0  0  0  0  0  0
  186.8980  177.8580  146.8570 N   0  0  0  0  0  0  0  0  0  0  0  0
  189.6740  176.6300  141.3560 C   0  0  0  0  0  2  0  0  0  0  0  0
  192.0940  177.3090  140.0540 O   0  0  0  0  0  0  0  0  0  0  0  0
  189.8640  176.6510  139.9140 N   0  0  0  0  0  2  0  0  0  0  0  0
  191.1210  176.9780  139.3220 C   0  0  0  0  0  0  0  0  0  0  0  0
  191.5600  176.0460  137.0900 C   0  0  0  0  0  3  0  0  0  0  0  0
  191.2270  177.0170  137.8930 N   0  0  0  0  0  0  0  0  0  0  0  0
  190.7490  173.9160  137.6860 O   0  0  0  0  0  0  0  0  0  0  0  0
  193.0250  174.1190  137.7030 O   0  0  0  0  0  1  0  0  0  0  0  0
  191.7570  174.6390  137.4740 C   0  0  0  0  0  0  0  0  0  0  0  0
  185.5870  179.1530  141.7650 C   0  0  0  0  0  2  0  0  0  0  0  0
  184.4910  178.1200  141.5310 C   0  0  0  0  0  2  0  0  0  0  0  0
  183.5870  178.5310  140.4120 C   0  0  0  0  0  0  0  0  0  0  0  0
  182.3410  178.4720  140.5810 O   0  0  0  0  0  0  0  0  0  0  0  0
  184.6960  178.1110  138.2030 N   0  0  0  0  0  2  0  0  0  0  0  0
  184.1300  179.0250  139.1370 C   0  0  0  0  0  0  0  0  0  0  0  0
  184.1010  180.2860  138.8540 N   0  0  0  0  0  1  0  0  0  0  0  0
  1 11  2  0  0  0  0
  2 10  2  0  0  0  0
  2  4  1  0  0  0  0
  3 15  1  6  0  0  0
  3  2  1  0  0  0  0
  4 13  2  0  0  0  0
  5  1  1  0  0  0  0
  6  8  1  0  0  0  0
  7  3  1  0  0  0  0
  7 12  1  0  0  0  0
  8 14  2  0  0  0  0
  9  7  2  0  0  0  0
 10  6  1  0  0  0  0
 12 10  1  0  0  0  0
 13  8  1  0  0  0  0
 13  5  1  0  0  0  0
 14  1  1  0  0  0  0
 17 15  1  0  0  0  0
 18 17  1  0  0  0  0
 18 16  2  0  0  0  0
 19 23  1  0  0  0  0
 19 20  2  0  0  0  0
 20 18  1  0  0  0  0
 23 21  2  0  0  0  0
 23 22  1  0  0  0  0
 24 12  1  0  0  0  0
 25 24  1  0  0  0  0
 26 27  2  0  0  0  0
 26 25  1  0  0  0  0
 28 29  2  0  0  0  0
 29 26  1  0  0  0  0
 30 29  1  0  0  0  0
M  END
>  <MODEL>
9

>  <REMARK>
 VINA RESULT:      -7.6      3.043      6.056
  Name = 
  8 active torsions:
  status: ('A' for Active; 'I' for Inactive)
    1  A    between atoms: C_3  and  C_11
    2  A    between atoms: C_8  and  C_17
    3  A    between atoms: C_9  and  C_24
    4  A    between atoms: C_10  and  C_17
    5  A    between atoms: C_10  and  C_21
    6  A    between atoms: C_11  and  N_16
    7  A    between atoms: N_14  and  C_25
    8  A    between atoms: C_21  and  N_28
                            x       y       z     vdW  Elec       q    Type
                         _______ _______ _______ _____ _____    ______ ____

>  <TORSDO>
F 8

$$$$
