=
 OpenBabel10232407543D

 26 27  0  0  1  0  0  0  0  0999 V2000
  189.1620  177.0590  144.0620 C   0  0  1  0  0  3  0  0  0  0  0  0
  189.0120  177.8500  139.8940 C   0  0  0  0  0  0  0  0  0  0  0  0
  190.1140  176.6850  141.7670 C   0  0  0  0  0  0  0  0  0  0  0  0
  188.6150  177.7780  138.6210 C   0  0  0  0  0  0  0  0  0  0  0  0
  190.6910  174.8250  137.3590 C   0  0  0  0  0  1  0  0  0  0  0  0
  190.2650  177.1290  140.3400 C   0  0  1  0  0  3  0  0  0  0  0  0
  188.7220  178.7180  142.1790 C   0  0  0  0  0  2  0  0  0  0  0  0
  187.4860  178.5210  138.1710 N   0  0  0  0  0  1  0  0  0  0  0  0
  189.2790  177.4480  142.6550 N   0  0  0  0  0  0  0  0  0  0  0  0
  190.6270  176.0120  139.4580 N   0  0  0  0  0  0  0  0  0  0  0  0
  190.7520  175.6830  142.1920 O   0  0  0  0  0  0  0  0  0  0  0  0
  190.2270  175.9400  138.2240 C   0  0  0  0  0  0  0  0  0  0  0  0
  188.2850  178.5960  140.8270 O   0  0  0  0  0  0  0  0  0  0  0  0
  189.2710  176.8780  137.7230 N   0  0  0  0  0  2  0  0  0  0  0  0
  190.1070  177.8670  144.9630 C   0  0  0  0  0  2  0  0  0  0  0  0
  191.1830  176.8560  146.8460 O   0  0  0  0  0  1  0  0  0  0  0  0
  191.3010  177.0690  145.4730 C   0  0  0  0  0  2  0  0  0  0  0  0
  187.7090  177.0570  144.5280 C   0  0  0  0  0  2  0  0  0  0  0  0
  187.5940  177.6810  145.9050 C   0  0  0  0  0  2  0  0  0  0  0  0
  186.1980  177.7230  146.3000 N   0  0  0  0  0  2  0  0  0  0  0  0
  185.6700  178.9980  145.8380 C   0  0  0  0  0  2  0  0  0  0  0  0
  183.3000  179.1880  145.5440 O   0  0  0  0  0  1  0  0  0  0  0  0
  184.4800  178.7910  144.9110 C   0  0  1  0  0  3  0  0  0  0  0  0
  184.6680  179.5600  143.6130 C   0  0  0  0  0  2  0  0  0  0  0  0
  184.9940  178.6090  142.4770 C   0  0  0  0  0  2  0  0  0  0  0  0
  185.0370  179.3460  141.2290 N   0  0  0  0  0  1  0  0  0  0  0  0
  1 18  1  1  0  0  0
  1 15  1  0  0  0  0
  2  6  1  0  0  0  0
  2 13  1  0  0  0  0
  3 11  2  0  0  0  0
  3  9  1  0  0  0  0
  4  2  2  0  0  0  0
  5 12  1  0  0  0  0
  6 10  1  6  0  0  0
  6  3  1  0  0  0  0
  7  9  1  0  0  0  0
  8  4  1  0  0  0  0
  9  1  1  0  0  0  0
 12 10  2  0  0  0  0
 13  7  1  0  0  0  0
 14 12  1  0  0  0  0
 14  4  1  0  0  0  0
 15 17  1  0  0  0  0
 17 16  1  0  0  0  0
 18 19  1  0  0  0  0
 19 20  1  0  0  0  0
 21 20  1  0  0  0  0
 23 22  1  1  0  0  0
 23 21  1  0  0  0  0
 24 23  1  0  0  0  0
 25 24  1  0  0  0  0
 26 25  1  0  0  0  0
M  END
>  <MODEL>
1

>  <REMARK>
 VINA RESULT:      -6.9      0.000      0.000
  Name = 
  10 active torsions:
  status: ('A' for Active; 'I' for Inactive)
    1  A    between atoms: C_3  and  C_23
    2  A    between atoms: C_5  and  C_12
    3  A    between atoms: C_5  and  N_15
    4  A    between atoms: C_5  and  C_26
    5  A    between atoms: C_8  and  C_23
    6  A    between atoms: C_8  and  C_24
    7  A    between atoms: C_12  and  C_19
    8  A    between atoms: C_21  and  N_22
    9  A    between atoms: C_21  and  C_26
   10  A    between atoms: N_22  and  C_24
                            x       y       z     vdW  Elec       q    Type
                         _______ _______ _______ _____ _____    ______ ____

>  <TORSDO>
F 10

$$$$
=
 OpenBabel10232407543D

 26 27  0  0  1  0  0  0  0  0999 V2000
  188.6770  176.9980  143.9470 C   0  0  1  0  0  3  0  0  0  0  0  0
  189.1020  177.9010  139.8220 C   0  0  0  0  0  0  0  0  0  0  0  0
  189.9300  176.6740  141.7930 C   0  0  0  0  0  0  0  0  0  0  0  0
  188.8810  177.8680  138.5050 C   0  0  0  0  0  0  0  0  0  0  0  0
  191.0860  174.9260  137.4540 C   0  0  0  0  0  1  0  0  0  0  0  0
  190.2770  177.1540  140.4130 C   0  0  1  0  0  3  0  0  0  0  0  0
  188.5100  178.7110  142.0690 C   0  0  0  0  0  2  0  0  0  0  0  0
  187.8290  178.6360  137.9270 N   0  0  0  0  0  1  0  0  0  0  0  0
  188.9880  177.4220  142.5800 N   0  0  0  0  0  0  0  0  0  0  0  0
  190.7470  176.0570  139.5570 N   0  0  0  0  0  0  0  0  0  0  0  0
  190.4960  175.6540  142.2720 O   0  0  0  0  0  0  0  0  0  0  0  0
  190.5180  176.0230  138.2780 C   0  0  0  0  0  0  0  0  0  0  0  0
  188.2600  178.6300  140.6670 O   0  0  0  0  0  0  0  0  0  0  0  0
  189.6460  176.9850  137.6790 N   0  0  0  0  0  2  0  0  0  0  0  0
  189.4310  177.8310  144.9940 C   0  0  0  0  0  2  0  0  0  0  0  0
  191.7710  178.1040  144.5700 O   0  0  0  0  0  1  0  0  0  0  0  0
  190.8440  177.3340  145.2730 C   0  0  0  0  0  2  0  0  0  0  0  0
  187.1730  176.9150  144.1840 C   0  0  0  0  0  2  0  0  0  0  0  0
  186.7880  177.6970  145.4250 C   0  0  0  0  0  2  0  0  0  0  0  0
  185.5110  178.3520  145.2050 N   0  0  0  0  0  2  0  0  0  0  0  0
  185.2220  178.2370  143.7840 C   0  0  0  0  0  2  0  0  0  0  0  0
  183.4450  179.8120  144.1060 O   0  0  0  0  0  1  0  0  0  0  0  0
  183.7720  178.6000  143.4920 C   0  0  1  0  0  3  0  0  0  0  0  0
  183.5280  178.6830  141.9940 C   0  0  0  0  0  2  0  0  0  0  0  0
  184.8410  178.6080  141.2390 C   0  0  0  0  0  2  0  0  0  0  0  0
  184.8300  179.5740  140.1570 N   0  0  0  0  0  1  0  0  0  0  0  0
  1 18  1  1  0  0  0
  1 15  1  0  0  0  0
  2  6  1  0  0  0  0
  2 13  1  0  0  0  0
  3 11  2  0  0  0  0
  3  9  1  0  0  0  0
  4  2  2  0  0  0  0
  5 12  1  0  0  0  0
  6 10  1  6  0  0  0
  6  3  1  0  0  0  0
  7  9  1  0  0  0  0
  8  4  1  0  0  0  0
  9  1  1  0  0  0  0
 12 10  2  0  0  0  0
 13  7  1  0  0  0  0
 14 12  1  0  0  0  0
 14  4  1  0  0  0  0
 15 17  1  0  0  0  0
 16 17  1  0  0  0  0
 18 19  1  0  0  0  0
 20 19  1  0  0  0  0
 21 20  1  0  0  0  0
 23 21  1  0  0  0  0
 23 22  1  1  0  0  0
 24 23  1  0  0  0  0
 25 24  1  0  0  0  0
 26 25  1  0  0  0  0
M  END
>  <MODEL>
2

>  <REMARK>
 VINA RESULT:      -6.8      0.976      1.075
  Name = 
  10 active torsions:
  status: ('A' for Active; 'I' for Inactive)
    1  A    between atoms: C_3  and  C_23
    2  A    between atoms: C_5  and  C_12
    3  A    between atoms: C_5  and  N_15
    4  A    between atoms: C_5  and  C_26
    5  A    between atoms: C_8  and  C_23
    6  A    between atoms: C_8  and  C_24
    7  A    between atoms: C_12  and  C_19
    8  A    between atoms: C_21  and  N_22
    9  A    between atoms: C_21  and  C_26
   10  A    between atoms: N_22  and  C_24
                            x       y       z     vdW  Elec       q    Type
                         _______ _______ _______ _____ _____    ______ ____

>  <TORSDO>
F 10

$$$$
=
 OpenBabel10232407543D

 26 27  0  0  1  0  0  0  0  0999 V2000
  189.3460  177.3630  143.1580 C   0  0  1  0  0  3  0  0  0  0  0  0
  187.8140  178.0560  139.2610 C   0  0  0  0  0  0  0  0  0  0  0  0
  189.6070  177.1230  140.6700 C   0  0  0  0  0  0  0  0  0  0  0  0
  187.0680  177.9000  138.1640 C   0  0  0  0  0  0  0  0  0  0  0  0
  189.1240  175.3240  136.2260 C   0  0  0  0  0  1  0  0  0  0  0  0
  189.2440  177.5650  139.2820 C   0  0  1  0  0  3  0  0  0  0  0  0
  188.0880  178.8960  141.5590 C   0  0  0  0  0  2  0  0  0  0  0  0
  185.7480  178.4340  138.1030 N   0  0  0  0  0  1  0  0  0  0  0  0
  188.9660  177.7460  141.7960 N   0  0  0  0  0  0  0  0  0  0  0  0
  189.5020  176.5130  138.2910 N   0  0  0  0  0  0  0  0  0  0  0  0
  190.5010  176.2500  140.8460 O   0  0  0  0  0  0  0  0  0  0  0  0
  188.7660  176.3570  137.2320 C   0  0  0  0  0  0  0  0  0  0  0  0
  187.2890  178.6820  140.3970 O   0  0  0  0  0  0  0  0  0  0  0  0
  187.5610  177.1110  137.0780 N   0  0  0  0  0  2  0  0  0  0  0  0
  190.3500  178.3490  143.7740 C   0  0  0  0  0  2  0  0  0  0  0  0
  191.7260  176.3960  143.9170 O   0  0  0  0  0  1  0  0  0  0  0  0
  191.7620  177.7900  143.8970 C   0  0  0  0  0  2  0  0  0  0  0  0
  188.1240  177.0940  144.0310 C   0  0  0  0  0  2  0  0  0  0  0  0
  188.4860  177.2110  145.4990 C   0  0  0  0  0  2  0  0  0  0  0  0
  187.4400  177.9380  146.1960 N   0  0  0  0  0  2  0  0  0  0  0  0
  186.2490  177.8560  145.3640 C   0  0  0  0  0  2  0  0  0  0  0  0
  185.4160  179.4800  146.9180 O   0  0  0  0  0  1  0  0  0  0  0  0
  185.0360  178.4180  146.0940 C   0  0  1  0  0  3  0  0  0  0  0  0
  183.9730  178.8700  145.1050 C   0  0  0  0  0  2  0  0  0  0  0  0
  184.6090  179.6240  143.9530 C   0  0  0  0  0  2  0  0  0  0  0  0
  184.2070  179.0170  142.6990 N   0  0  0  0  0  1  0  0  0  0  0  0
  1 15  1  1  0  0  0
  1 18  1  0  0  0  0
  2  6  1  0  0  0  0
  2 13  1  0  0  0  0
  3 11  2  0  0  0  0
  3  9  1  0  0  0  0
  4  2  2  0  0  0  0
  5 12  1  0  0  0  0
  6 10  1  6  0  0  0
  6  3  1  0  0  0  0
  7  9  1  0  0  0  0
  8  4  1  0  0  0  0
  9  1  1  0  0  0  0
 12 10  2  0  0  0  0
 13  7  1  0  0  0  0
 14 12  1  0  0  0  0
 14  4  1  0  0  0  0
 15 17  1  0  0  0  0
 17 16  1  0  0  0  0
 18 19  1  0  0  0  0
 19 20  1  0  0  0  0
 21 23  1  0  0  0  0
 21 20  1  0  0  0  0
 23 22  1  6  0  0  0
 24 23  1  0  0  0  0
 25 24  1  0  0  0  0
 26 25  1  0  0  0  0
M  END
>  <MODEL>
3

>  <REMARK>
 VINA RESULT:      -6.6      1.448      1.617
  Name = 
  10 active torsions:
  status: ('A' for Active; 'I' for Inactive)
    1  A    between atoms: C_3  and  C_23
    2  A    between atoms: C_5  and  C_12
    3  A    between atoms: C_5  and  N_15
    4  A    between atoms: C_5  and  C_26
    5  A    between atoms: C_8  and  C_23
    6  A    between atoms: C_8  and  C_24
    7  A    between atoms: C_12  and  C_19
    8  A    between atoms: C_21  and  N_22
    9  A    between atoms: C_21  and  C_26
   10  A    between atoms: N_22  and  C_24
                            x       y       z     vdW  Elec       q    Type
                         _______ _______ _______ _____ _____    ______ ____

>  <TORSDO>
F 10

$$$$
=
 OpenBabel10232407543D

 26 27  0  0  1  0  0  0  0  0999 V2000
  184.8990  179.2290  143.1450 C   0  0  1  0  0  3  0  0  0  0  0  0
  188.3660  177.7200  141.2170 C   0  0  0  0  0  0  0  0  0  0  0  0
  186.1140  178.6990  141.0100 C   0  0  0  0  0  0  0  0  0  0  0  0
  189.6090  177.6810  140.7290 C   0  0  0  0  0  0  0  0  0  0  0  0
  189.0980  179.2060  137.2600 C   0  0  0  0  0  1  0  0  0  0  0  0
  187.1950  177.9470  140.2880 C   0  0  1  0  0  3  0  0  0  0  0  0
  186.8060  177.5400  143.1120 C   0  0  0  0  0  2  0  0  0  0  0  0
  190.7120  177.3840  141.5810 N   0  0  0  0  0  1  0  0  0  0  0  0
  185.9800  178.5440  142.4320 N   0  0  0  0  0  0  0  0  0  0  0  0
  187.5770  178.6110  139.0350 N   0  0  0  0  0  0  0  0  0  0  0  0
  185.3040  179.4210  140.3670 O   0  0  0  0  0  0  0  0  0  0  0  0
  188.7910  178.5810  138.5720 C   0  0  0  0  0  0  0  0  0  0  0  0
  188.1310  177.5450  142.5840 O   0  0  0  0  0  0  0  0  0  0  0  0
  189.8470  178.0300  139.3630 N   0  0  0  0  0  2  0  0  0  0  0  0
  183.6250  178.3760  143.2170 C   0  0  0  0  0  2  0  0  0  0  0  0
  181.3400  179.0240  143.5130 O   0  0  0  0  0  1  0  0  0  0  0  0
  182.4010  179.0480  142.6070 C   0  0  0  0  0  2  0  0  0  0  0  0
  185.3650  179.7670  144.4940 C   0  0  0  0  0  2  0  0  0  0  0  0
  184.7190  178.9900  145.6260 C   0  0  0  0  0  2  0  0  0  0  0  0
  185.5990  178.9980  146.7800 N   0  0  0  0  0  2  0  0  0  0  0  0
  186.3750  177.7690  146.7220 C   0  0  0  0  0  2  0  0  0  0  0  0
  187.8910  177.5240  148.5620 O   0  0  0  0  0  1  0  0  0  0  0  0
  187.7870  177.9900  147.2480 C   0  0  1  0  0  3  0  0  0  0  0  0
  188.8080  177.2990  146.3590 C   0  0  0  0  0  2  0  0  0  0  0  0
  190.0480  176.9410  147.1560 C   0  0  0  0  0  2  0  0  0  0  0  0
  191.1960  176.9070  146.2710 N   0  0  0  0  0  1  0  0  0  0  0  0
  1 15  1  1  0  0  0
  1 18  1  0  0  0  0
  2 13  1  0  0  0  0
  3  9  1  0  0  0  0
  4  2  2  0  0  0  0
  4  8  1  0  0  0  0
  5 12  1  0  0  0  0
  6 10  1  6  0  0  0
  6  3  1  0  0  0  0
  6  2  1  0  0  0  0
  9  7  1  0  0  0  0
  9  1  1  0  0  0  0
 11  3  2  0  0  0  0
 12 10  2  0  0  0  0
 12 14  1  0  0  0  0
 13  7  1  0  0  0  0
 14  4  1  0  0  0  0
 17 15  1  0  0  0  0
 17 16  1  0  0  0  0
 18 19  1  0  0  0  0
 19 20  1  0  0  0  0
 21 20  1  0  0  0  0
 21 23  1  0  0  0  0
 23 22  1  1  0  0  0
 24 25  1  0  0  0  0
 24 23  1  0  0  0  0
 26 25  1  0  0  0  0
M  END
>  <MODEL>
4

>  <REMARK>
 VINA RESULT:      -6.3      2.075      5.124
  Name = 
  10 active torsions:
  status: ('A' for Active; 'I' for Inactive)
    1  A    between atoms: C_3  and  C_23
    2  A    between atoms: C_5  and  C_12
    3  A    between atoms: C_5  and  N_15
    4  A    between atoms: C_5  and  C_26
    5  A    between atoms: C_8  and  C_23
    6  A    between atoms: C_8  and  C_24
    7  A    between atoms: C_12  and  C_19
    8  A    between atoms: C_21  and  N_22
    9  A    between atoms: C_21  and  C_26
   10  A    between atoms: N_22  and  C_24
                            x       y       z     vdW  Elec       q    Type
                         _______ _______ _______ _____ _____    ______ ____

>  <TORSDO>
F 10

$$$$
=
 OpenBabel10232407543D

 26 27  0  0  1  0  0  0  0  0999 V2000
  185.9560  178.5870  144.0140 C   0  0  1  0  0  3  0  0  0  0  0  0
  183.8920  178.1270  140.3350 C   0  0  0  0  0  0  0  0  0  0  0  0
  185.9280  178.8560  141.5160 C   0  0  0  0  0  0  0  0  0  0  0  0
  183.3900  177.5360  139.2470 C   0  0  0  0  0  0  0  0  0  0  0  0
  186.3570  177.7540  136.8440 C   0  0  0  0  0  1  0  0  0  0  0  0
  185.1530  178.9550  140.2340 C   0  0  1  0  0  3  0  0  0  0  0  0
  183.7560  178.6620  142.7330 C   0  0  0  0  0  2  0  0  0  0  0  0
  182.1570  176.8250  139.3130 N   0  0  0  0  0  1  0  0  0  0  0  0
  185.2220  178.6340  142.7480 N   0  0  0  0  0  0  0  0  0  0  0  0
  185.9780  178.6020  139.0710 N   0  0  0  0  0  0  0  0  0  0  0  0
  187.1800  179.0150  141.5170 O   0  0  0  0  0  0  0  0  0  0  0  0
  185.4880  178.0150  138.0200 C   0  0  0  0  0  0  0  0  0  0  0  0
  183.2560  177.9990  141.5730 O   0  0  0  0  0  0  0  0  0  0  0  0
  184.1400  177.5360  138.0290 N   0  0  0  0  0  2  0  0  0  0  0  0
  185.1860  179.2710  145.1520 C   0  0  0  0  0  2  0  0  0  0  0  0
  185.7940  179.4310  147.4620 O   0  0  0  0  0  1  0  0  0  0  0  0
  185.3060  178.5550  146.4920 C   0  0  0  0  0  2  0  0  0  0  0  0
  186.4250  177.1730  144.3430 C   0  0  0  0  0  2  0  0  0  0  0  0
  187.9290  177.0630  144.1840 C   0  0  0  0  0  2  0  0  0  0  0  0
  188.5820  177.8460  145.2170 N   0  0  0  0  0  2  0  0  0  0  0  0
  189.4770  176.9430  145.9240 C   0  0  0  0  0  2  0  0  0  0  0  0
  191.7140  176.9590  146.7820 O   0  0  0  0  0  1  0  0  0  0  0  0
  190.9330  177.3180  145.6810 C   0  0  1  0  0  3  0  0  0  0  0  0
  191.4580  176.6510  144.4200 C   0  0  0  0  0  2  0  0  0  0  0  0
  191.6200  177.6710  143.3090 C   0  0  0  0  0  2  0  0  0  0  0  0
  191.6510  179.0040  143.8800 N   0  0  0  0  0  1  0  0  0  0  0  0
  1 18  1  1  0  0  0
  1 15  1  0  0  0  0
  2 13  1  0  0  0  0
  3 11  2  0  0  0  0
  3  9  1  0  0  0  0
  4  8  1  0  0  0  0
  4  2  2  0  0  0  0
  5 12  1  0  0  0  0
  6 10  1  6  0  0  0
  6  2  1  0  0  0  0
  6  3  1  0  0  0  0
  7  9  1  0  0  0  0
  9  1  1  0  0  0  0
 12 14  1  0  0  0  0
 12 10  2  0  0  0  0
 13  7  1  0  0  0  0
 14  4  1  0  0  0  0
 15 17  1  0  0  0  0
 17 16  1  0  0  0  0
 19 18  1  0  0  0  0
 19 20  1  0  0  0  0
 20 21  1  0  0  0  0
 23 21  1  0  0  0  0
 23 22  1  1  0  0  0
 24 23  1  0  0  0  0
 25 26  1  0  0  0  0
 25 24  1  0  0  0  0
M  END
>  <MODEL>
5

>  <REMARK>
 VINA RESULT:      -6.2      2.811      5.406
  Name = 
  10 active torsions:
  status: ('A' for Active; 'I' for Inactive)
    1  A    between atoms: C_3  and  C_23
    2  A    between atoms: C_5  and  C_12
    3  A    between atoms: C_5  and  N_15
    4  A    between atoms: C_5  and  C_26
    5  A    between atoms: C_8  and  C_23
    6  A    between atoms: C_8  and  C_24
    7  A    between atoms: C_12  and  C_19
    8  A    between atoms: C_21  and  N_22
    9  A    between atoms: C_21  and  C_26
   10  A    between atoms: N_22  and  C_24
                            x       y       z     vdW  Elec       q    Type
                         _______ _______ _______ _____ _____    ______ ____

>  <TORSDO>
F 10

$$$$
=
 OpenBabel10232407543D

 26 27  0  0  1  0  0  0  0  0999 V2000
  185.5960  178.5710  144.0130 C   0  0  1  0  0  3  0  0  0  0  0  0
  183.8460  178.1180  140.1730 C   0  0  0  0  0  0  0  0  0  0  0  0
  185.7540  178.8930  141.5260 C   0  0  0  0  0  0  0  0  0  0  0  0
  183.4530  177.5330  139.0380 C   0  0  0  0  0  0  0  0  0  0  0  0
  186.5890  177.9100  136.8820 C   0  0  0  0  0  1  0  0  0  0  0  0
  185.0790  178.9920  140.1880 C   0  0  1  0  0  3  0  0  0  0  0  0
  183.5020  178.5940  142.5630 C   0  0  0  0  0  2  0  0  0  0  0  0
  182.2460  176.7760  138.9930 N   0  0  0  0  0  1  0  0  0  0  0  0
  184.9620  178.6190  142.6930 N   0  0  0  0  0  0  0  0  0  0  0  0
  186.0050  178.6950  139.0880 N   0  0  0  0  0  0  0  0  0  0  0  0
  186.9950  179.0970  141.6280 O   0  0  0  0  0  0  0  0  0  0  0  0
  185.6210  178.1130  137.9910 C   0  0  0  0  0  0  0  0  0  0  0  0
  183.1200  177.9390  141.3550 O   0  0  0  0  0  0  0  0  0  0  0  0
  184.2960  177.5860  137.8840 N   0  0  0  0  0  2  0  0  0  0  0  0
  184.6150  178.9310  145.1370 C   0  0  0  0  0  2  0  0  0  0  0  0
  185.7070  179.4560  147.2010 O   0  0  0  0  0  1  0  0  0  0  0  0
  185.0490  178.4380  146.5120 C   0  0  0  0  0  2  0  0  0  0  0  0
  186.3400  177.2580  144.2340 C   0  0  0  0  0  2  0  0  0  0  0  0
  187.8260  177.5120  144.4030 C   0  0  0  0  0  2  0  0  0  0  0  0
  188.2240  177.1600  145.7540 N   0  0  0  0  0  2  0  0  0  0  0  0
  189.4760  177.8550  146.0150 C   0  0  0  0  0  2  0  0  0  0  0  0
  191.1140  178.6080  144.4360 O   0  0  0  0  0  1  0  0  0  0  0  0
  190.5380  177.4650  144.9950 C   0  0  1  0  0  3  0  0  0  0  0  0
  191.6070  176.5930  145.6350 C   0  0  0  0  0  2  0  0  0  0  0  0
  191.5150  176.6680  147.1480 C   0  0  0  0  0  2  0  0  0  0  0  0
  192.3540  175.6400  147.7320 N   0  0  0  0  0  1  0  0  0  0  0  0
  1 18  1  1  0  0  0
  1 15  1  0  0  0  0
  2  6  1  0  0  0  0
  2 13  1  0  0  0  0
  3 11  2  0  0  0  0
  3  9  1  0  0  0  0
  4  2  2  0  0  0  0
  5 12  1  0  0  0  0
  6 10  1  6  0  0  0
  6  3  1  0  0  0  0
  7  9  1  0  0  0  0
  8  4  1  0  0  0  0
  9  1  1  0  0  0  0
 12 10  2  0  0  0  0
 13  7  1  0  0  0  0
 14 12  1  0  0  0  0
 14  4  1  0  0  0  0
 15 17  1  0  0  0  0
 17 16  1  0  0  0  0
 18 19  1  0  0  0  0
 19 20  1  0  0  0  0
 20 21  1  0  0  0  0
 23 22  1  1  0  0  0
 23 24  1  0  0  0  0
 23 21  1  0  0  0  0
 24 25  1  0  0  0  0
 25 26  1  0  0  0  0
M  END
>  <MODEL>
6

>  <REMARK>
 VINA RESULT:      -6.2      2.889      5.672
  Name = 
  10 active torsions:
  status: ('A' for Active; 'I' for Inactive)
    1  A    between atoms: C_3  and  C_23
    2  A    between atoms: C_5  and  C_12
    3  A    between atoms: C_5  and  N_15
    4  A    between atoms: C_5  and  C_26
    5  A    between atoms: C_8  and  C_23
    6  A    between atoms: C_8  and  C_24
    7  A    between atoms: C_12  and  C_19
    8  A    between atoms: C_21  and  N_22
    9  A    between atoms: C_21  and  C_26
   10  A    between atoms: N_22  and  C_24
                            x       y       z     vdW  Elec       q    Type
                         _______ _______ _______ _____ _____    ______ ____

>  <TORSDO>
F 10

$$$$
=
 OpenBabel10232407543D

 26 27  0  0  1  0  0  0  0  0999 V2000
  189.7870  176.7680  141.8610 C   0  0  1  0  0  3  0  0  0  0  0  0
  186.0180  178.5610  142.6330 C   0  0  0  0  0  0  0  0  0  0  0  0
  187.8560  178.1520  141.0420 C   0  0  0  0  0  0  0  0  0  0  0  0
  184.6980  178.6750  142.7990 C   0  0  0  0  0  0  0  0  0  0  0  0
  183.5400  179.2500  139.2000 C   0  0  0  0  0  1  0  0  0  0  0  0
  186.6610  179.0110  141.3400 C   0  0  1  0  0  3  0  0  0  0  0  0
  188.2380  177.9500  143.5020 C   0  0  0  0  0  2  0  0  0  0  0  0
  184.0920  178.3340  144.0430 N   0  0  0  0  0  1  0  0  0  0  0  0
  188.5890  177.5660  142.1310 N   0  0  0  0  0  0  0  0  0  0  0  0
  185.7200  179.0450  140.2140 N   0  0  0  0  0  0  0  0  0  0  0  0
  188.2380  177.9860  139.8520 O   0  0  0  0  0  0  0  0  0  0  0  0
  184.4350  179.1430  140.3810 C   0  0  0  0  0  0  0  0  0  0  0  0
  186.8220  178.0350  143.6490 O   0  0  0  0  0  0  0  0  0  0  0  0
  183.8730  179.0540  141.6930 N   0  0  0  0  0  2  0  0  0  0  0  0
  190.9750  177.6390  141.4300 C   0  0  0  0  0  2  0  0  0  0  0  0
  190.8730  176.1630  139.5480 O   0  0  0  0  0  1  0  0  0  0  0  0
  191.5330  177.2810  140.0580 C   0  0  0  0  0  2  0  0  0  0  0  0
  190.1000  175.8130  143.0090 C   0  0  0  0  0  2  0  0  0  0  0  0
  191.5670  175.8990  143.3850 C   0  0  0  0  0  2  0  0  0  0  0  0
  191.6980  175.8550  144.8290 N   0  0  0  0  0  2  0  0  0  0  0  0
  191.0800  177.0680  145.3430 C   0  0  0  0  0  2  0  0  0  0  0  0
  191.6120  176.9140  147.6740 O   0  0  0  0  0  1  0  0  0  0  0  0
  190.5590  176.8570  146.7580 C   0  0  1  0  0  3  0  0  0  0  0  0
  189.5010  177.8930  147.1030 C   0  0  0  0  0  2  0  0  0  0  0  0
  188.2850  177.2250  147.7160 C   0  0  0  0  0  2  0  0  0  0  0  0
  187.9480  177.8870  148.9610 N   0  0  0  0  0  1  0  0  0  0  0  0
  1 15  1  1  0  0  0
  1  9  1  0  0  0  0
  1 18  1  0  0  0  0
  2  4  2  0  0  0  0
  2 13  1  0  0  0  0
  3  6  1  0  0  0  0
  3  9  1  0  0  0  0
  4  8  1  0  0  0  0
  5 12  1  0  0  0  0
  6 10  1  6  0  0  0
  6  2  1  0  0  0  0
  7 13  1  0  0  0  0
  9  7  1  0  0  0  0
 10 12  2  0  0  0  0
 11  3  2  0  0  0  0
 12 14  1  0  0  0  0
 14  4  1  0  0  0  0
 16 17  1  0  0  0  0
 17 15  1  0  0  0  0
 18 19  1  0  0  0  0
 19 20  1  0  0  0  0
 20 21  1  0  0  0  0
 21 23  1  0  0  0  0
 23 24  1  0  0  0  0
 23 22  1  1  0  0  0
 24 25  1  0  0  0  0
 25 26  1  0  0  0  0
M  END
>  <MODEL>
7

>  <REMARK>
 VINA RESULT:      -6.1      2.332      5.672
  Name = 
  10 active torsions:
  status: ('A' for Active; 'I' for Inactive)
    1  A    between atoms: C_3  and  C_23
    2  A    between atoms: C_5  and  C_12
    3  A    between atoms: C_5  and  N_15
    4  A    between atoms: C_5  and  C_26
    5  A    between atoms: C_8  and  C_23
    6  A    between atoms: C_8  and  C_24
    7  A    between atoms: C_12  and  C_19
    8  A    between atoms: C_21  and  N_22
    9  A    between atoms: C_21  and  C_26
   10  A    between atoms: N_22  and  C_24
                            x       y       z     vdW  Elec       q    Type
                         _______ _______ _______ _____ _____    ______ ____

>  <TORSDO>
F 10

$$$$
=
 OpenBabel10232407543D

 26 27  0  0  1  0  0  0  0  0999 V2000
  188.9550  178.1810  141.7570 C   0  0  1  0  0  3  0  0  0  0  0  0
  186.5850  177.9050  145.2660 C   0  0  0  0  0  0  0  0  0  0  0  0
  188.7900  177.6280  144.2020 C   0  0  0  0  0  0  0  0  0  0  0  0
  185.9190  178.2870  146.3590 C   0  0  0  0  0  0  0  0  0  0  0  0
  188.7020  178.2420  148.9810 C   0  0  0  0  0  1  0  0  0  0  0  0
  187.9510  177.2690  145.3940 C   0  0  1  0  0  3  0  0  0  0  0  0
  186.7070  177.6330  142.8230 C   0  0  0  0  0  2  0  0  0  0  0  0
  184.5970  178.8080  146.2570 N   0  0  0  0  0  1  0  0  0  0  0  0
  188.1480  177.8810  142.9410 N   0  0  0  0  0  0  0  0  0  0  0  0
  188.6240  177.6060  146.6550 N   0  0  0  0  0  0  0  0  0  0  0  0
  190.0480  177.6590  144.2970 O   0  0  0  0  0  0  0  0  0  0  0  0
  187.9720  177.9900  147.7120 C   0  0  0  0  0  0  0  0  0  0  0  0
  186.0280  178.0770  143.9960 O   0  0  0  0  0  0  0  0  0  0  0  0
  186.5700  178.2600  147.6330 N   0  0  0  0  0  2  0  0  0  0  0  0
  189.7340  176.9540  141.2640 C   0  0  0  0  0  2  0  0  0  0  0  0
  191.7360  177.4150  140.0350 O   0  0  0  0  0  1  0  0  0  0  0  0
  191.2480  177.1280  141.3100 C   0  0  0  0  0  2  0  0  0  0  0  0
  188.1320  178.8710  140.6730 C   0  0  0  0  0  2  0  0  0  0  0  0
  188.2400  178.1140  139.3630 C   0  0  0  0  0  2  0  0  0  0  0  0
  188.9840  178.9110  138.4050 N   0  0  0  0  0  2  0  0  0  0  0  0
  189.3980  178.0090  137.3420 C   0  0  0  0  0  2  0  0  0  0  0  0
  187.7340  177.0240  135.9260 O   0  0  0  0  0  1  0  0  0  0  0  0
  188.3860  176.8860  137.1550 C   0  0  1  0  0  3  0  0  0  0  0  0
  189.0630  175.5280  137.2460 C   0  0  0  0  0  2  0  0  0  0  0  0
  190.5710  175.6860  137.2140 C   0  0  0  0  0  2  0  0  0  0  0  0
  191.1820  174.6240  137.9910 N   0  0  0  0  0  1  0  0  0  0  0  0
  1 18  1  6  0  0  0
  1  9  1  0  0  0  0
  2  6  1  0  0  0  0
  2  4  2  0  0  0  0
  3 11  2  0  0  0  0
  4 14  1  0  0  0  0
  6  3  1  6  0  0  0
  6 10  1  0  0  0  0
  7  9  1  0  0  0  0
  7 13  1  0  0  0  0
  8  4  1  0  0  0  0
  9  3  1  0  0  0  0
 10 12  2  0  0  0  0
 12  5  1  0  0  0  0
 13  2  1  0  0  0  0
 14 12  1  0  0  0  0
 15 17  1  0  0  0  0
 15  1  1  0  0  0  0
 16 17  1  0  0  0  0
 19 18  1  0  0  0  0
 20 19  1  0  0  0  0
 21 20  1  0  0  0  0
 23 22  1  6  0  0  0
 23 24  1  0  0  0  0
 23 21  1  0  0  0  0
 25 24  1  0  0  0  0
 25 26  1  0  0  0  0
M  END
>  <MODEL>
8

>  <REMARK>
 VINA RESULT:      -6.0      2.072      7.281
  Name = 
  10 active torsions:
  status: ('A' for Active; 'I' for Inactive)
    1  A    between atoms: C_3  and  C_23
    2  A    between atoms: C_5  and  C_12
    3  A    between atoms: C_5  and  N_15
    4  A    between atoms: C_5  and  C_26
    5  A    between atoms: C_8  and  C_23
    6  A    between atoms: C_8  and  C_24
    7  A    between atoms: C_12  and  C_19
    8  A    between atoms: C_21  and  N_22
    9  A    between atoms: C_21  and  C_26
   10  A    between atoms: N_22  and  C_24
                            x       y       z     vdW  Elec       q    Type
                         _______ _______ _______ _____ _____    ______ ____

>  <TORSDO>
F 10

$$$$
=
 OpenBabel10232407543D

 26 27  0  0  1  0  0  0  0  0999 V2000
  189.5320  177.0950  142.2930 C   0  0  1  0  0  3  0  0  0  0  0  0
  187.8890  178.1500  138.5240 C   0  0  0  0  0  0  0  0  0  0  0  0
  189.8560  177.4300  139.8240 C   0  0  0  0  0  0  0  0  0  0  0  0
  187.2120  178.0350  137.3790 C   0  0  0  0  0  0  0  0  0  0  0  0
  189.8650  176.4930  135.0970 C   0  0  0  0  0  1  0  0  0  0  0  0
  189.3970  178.0360  138.5290 C   0  0  1  0  0  3  0  0  0  0  0  0
  187.9310  178.5540  140.9520 C   0  0  0  0  0  2  0  0  0  0  0  0
  185.8000  178.2250  137.3490 N   0  0  0  0  0  1  0  0  0  0  0  0
  189.0720  177.6350  141.0110 N   0  0  0  0  0  0  0  0  0  0  0  0
  189.9190  177.3020  137.3690 N   0  0  0  0  0  0  0  0  0  0  0  0
  190.9410  176.7900  139.8770 O   0  0  0  0  0  0  0  0  0  0  0  0
  189.2510  177.1810  136.2610 C   0  0  0  0  0  0  0  0  0  0  0  0
  187.2180  178.3850  139.7280 O   0  0  0  0  0  0  0  0  0  0  0  0
  187.8940  177.6270  136.1890 N   0  0  0  0  0  2  0  0  0  0  0  0
  190.1990  178.1690  143.1640 C   0  0  0  0  0  2  0  0  0  0  0  0
  191.9350  178.2380  144.8110 O   0  0  0  0  0  1  0  0  0  0  0  0
  191.6570  177.8730  143.4930 C   0  0  0  0  0  2  0  0  0  0  0  0
  188.4310  176.3140  143.0040 C   0  0  0  0  0  2  0  0  0  0  0  0
  188.1510  176.9160  144.3680 C   0  0  0  0  0  2  0  0  0  0  0  0
  186.9010  177.6520  144.3220 N   0  0  0  0  0  2  0  0  0  0  0  0
  186.2130  177.3850  145.5760 C   0  0  0  0  0  2  0  0  0  0  0  0
  184.4250  178.7910  146.3300 O   0  0  0  0  0  1  0  0  0  0  0  0
  185.8160  178.6830  146.2670 C   0  0  1  0  0  3  0  0  0  0  0  0
  186.4160  178.7550  147.6630 C   0  0  0  0  0  2  0  0  0  0  0  0
  187.8850  178.3800  147.6280 C   0  0  0  0  0  2  0  0  0  0  0  0
  188.1370  177.3300  148.5960 N   0  0  0  0  0  1  0  0  0  0  0  0
  1 18  1  1  0  0  0
  1 15  1  0  0  0  0
  2  6  1  0  0  0  0
  2 13  1  0  0  0  0
  3 11  2  0  0  0  0
  3  9  1  0  0  0  0
  4  2  2  0  0  0  0
  5 12  1  0  0  0  0
  6 10  1  6  0  0  0
  6  3  1  0  0  0  0
  7  9  1  0  0  0  0
  8  4  1  0  0  0  0
  9  1  1  0  0  0  0
 12 10  2  0  0  0  0
 13  7  1  0  0  0  0
 14 12  1  0  0  0  0
 14  4  1  0  0  0  0
 15 17  1  0  0  0  0
 17 16  1  0  0  0  0
 18 19  1  0  0  0  0
 20 19  1  0  0  0  0
 20 21  1  0  0  0  0
 21 23  1  0  0  0  0
 23 22  1  1  0  0  0
 23 24  1  0  0  0  0
 25 24  1  0  0  0  0
 25 26  1  0  0  0  0
M  END
>  <MODEL>
9

>  <REMARK>
 VINA RESULT:      -5.9      2.016      2.912
  Name = 
  10 active torsions:
  status: ('A' for Active; 'I' for Inactive)
    1  A    between atoms: C_3  and  C_23
    2  A    between atoms: C_5  and  C_12
    3  A    between atoms: C_5  and  N_15
    4  A    between atoms: C_5  and  C_26
    5  A    between atoms: C_8  and  C_23
    6  A    between atoms: C_8  and  C_24
    7  A    between atoms: C_12  and  C_19
    8  A    between atoms: C_21  and  N_22
    9  A    between atoms: C_21  and  C_26
   10  A    between atoms: N_22  and  C_24
                            x       y       z     vdW  Elec       q    Type
                         _______ _______ _______ _____ _____    ______ ____

>  <TORSDO>
F 10

$$$$
