=
 OpenBabel10232411333D

 27 31  0  0  1  0  0  0  0  0999 V2000
  184.8890  179.3810  143.2630 C   0  0  1  0  0  3  0  0  0  0  0  0
  188.8730  174.9790  142.9500 O   0  0  0  0  0  1  0  0  0  0  0  0
  187.9360  177.6650  143.8720 C   0  0  0  0  0  0  0  0  0  0  0  0
  187.1780  177.5820  146.5760 C   0  0  0  0  0  3  0  0  0  0  0  0
  186.2060  177.7250  145.5940 C   0  0  0  0  0  0  0  0  0  0  0  0
  183.5160  179.3280  143.0130 O   0  0  0  0  0  1  0  0  0  0  0  0
  189.9710  175.7930  142.6560 C   0  0  2  0  0  3  0  0  0  0  0  0
  191.3130  177.8240  145.7110 C   0  0  0  0  0  2  0  0  0  0  0  0
  189.5140  177.4750  147.3770 C   0  0  0  0  0  2  0  0  0  0  0  0
  190.8990  177.0270  146.9350 C   0  0  0  0  0  2  0  0  0  0  0  0
  190.3990  177.4820  144.5310 C   0  0  1  0  0  3  0  0  0  0  0  0
  192.1250  176.0790  143.6180 O   0  0  0  0  0  1  0  0  0  0  0  0
  184.9160  178.6990  140.9090 O   0  0  0  0  0  1  0  0  0  0  0  0
  188.1670  179.1500  141.9420 C   0  0  0  0  0  3  0  0  0  0  0  0
  190.7630  176.1170  143.9240 C   0  0  2  0  0  3  0  0  0  0  0  0
  188.2770  177.7310  142.3930 C   0  0  1  0  0  3  0  0  0  0  0  0
  184.5280  177.7800  146.1200 Cl  0  0  0  0  0  0  0  0  0  0  0  0
  189.5590  177.0510  141.8800 C   0  0  2  0  0  3  0  0  0  0  0  0
  185.4690  177.9620  143.1980 C   0  0  2  0  0  3  0  0  0  0  0  0
  188.9260  177.5680  144.8870 C   0  0  0  0  0  0  0  0  0  0  0  0
  186.9640  179.7200  141.8310 C   0  0  0  0  0  3  0  0  0  0  0  0
  188.5260  177.5040  146.2430 C   0  0  0  0  0  0  0  0  0  0  0  0
  186.5710  177.8150  144.2360 C   0  0  0  0  0  0  0  0  0  0  0  0
  185.6850  178.9550  142.0470 C   0  0  2  0  0  0  0  0  0  0  0  0
  188.3170  177.1290  139.7060 O   0  0  0  0  0  0  0  0  0  0  0  0
  189.4440  176.7410  140.4230 C   0  0  0  0  0  0  0  0  0  0  0  0
  190.3700  176.1170  139.8430 O   0  0  0  0  0  1  0  0  0  0  0  0
  1  6  1  6  0  0  0
  3 23  2  0  0  0  0
  3 20  1  0  0  0  0
  5 17  1  0  0  0  0
  5  4  2  0  0  0  0
  7  2  1  1  0  0  0
  7 15  1  0  0  0  0
  8 10  1  0  0  0  0
 10  9  1  0  0  0  0
 11 20  1  0  0  0  0
 11  8  1  1  0  0  0
 15 12  1  6  0  0  0
 15 11  1  0  0  0  0
 16 14  1  1  0  0  0
 16  3  1  0  0  0  0
 18 26  1  6  0  0  0
 18 16  1  0  0  0  0
 18  7  1  0  0  0  0
 19  1  1  0  0  0  0
 19 23  1  1  0  0  0
 20 22  2  0  0  0  0
 21 14  2  0  0  0  0
 21 24  1  0  0  0  0
 22  4  1  0  0  0  0
 22  9  1  0  0  0  0
 23  5  1  0  0  0  0
 24 13  1  6  0  0  0
 24 19  1  0  0  0  0
 24  1  1  0  0  0  0
 25 26  2  0  0  0  0
 27 26  1  0  0  0  0
M  END
>  <MODEL>
1

>  <REMARK>
 VINA RESULT:      -7.9      0.000      0.000
  Name = 
  1 active torsions:
  status: ('A' for Active; 'I' for Inactive)
    1  A    between atoms: C_18  and  C_23
                            x       y       z     vdW  Elec       q    Type
                         _______ _______ _______ _____ _____    ______ ____

>  <TORSDO>
F 1

$$$$
=
 OpenBabel10232411333D

 27 31  0  0  1  0  0  0  0  0999 V2000
  190.6200  176.0260  145.6960 C   0  0  1  0  0  3  0  0  0  0  0  0
  188.5040  180.0690  141.8850 O   0  0  0  0  0  1  0  0  0  0  0  0
  188.2210  177.6940  143.6810 C   0  0  0  0  0  0  0  0  0  0  0  0
  186.9210  178.3980  146.0680 C   0  0  0  0  0  3  0  0  0  0  0  0
  188.2750  178.0890  146.0890 C   0  0  0  0  0  0  0  0  0  0  0  0
  191.7830  176.0860  146.4670 O   0  0  0  0  0  1  0  0  0  0  0  0
  187.8190  179.1610  141.0710 C   0  0  2  0  0  3  0  0  0  0  0  0
  184.5170  177.7870  142.6410 C   0  0  0  0  0  2  0  0  0  0  0  0
  184.7080  178.5720  144.9820 C   0  0  0  0  0  2  0  0  0  0  0  0
  184.0700  178.8500  143.6290 C   0  0  0  0  0  2  0  0  0  0  0  0
  186.0230  177.9040  142.3920 C   0  0  1  0  0  3  0  0  0  0  0  0
  185.5780  178.9950  140.2960 O   0  0  0  0  0  1  0  0  0  0  0  0
  192.2960  176.1760  143.9150 O   0  0  0  0  0  1  0  0  0  0  0  0
  189.2000  175.8150  142.4580 C   0  0  0  0  0  3  0  0  0  0  0  0
  186.3420  179.0860  141.4620 C   0  0  2  0  0  3  0  0  0  0  0  0
  188.9820  177.2910  142.4290 C   0  0  1  0  0  3  0  0  0  0  0  0
  189.1130  178.2270  147.6300 Cl  0  0  0  0  0  0  0  0  0  0  0  0
  188.4960  177.7840  141.0540 C   0  0  2  0  0  3  0  0  0  0  0  0
  190.4180  177.3680  144.9820 C   0  0  2  0  0  3  0  0  0  0  0  0
  186.8260  177.9650  143.6790 C   0  0  0  0  0  0  0  0  0  0  0  0
  190.0710  175.2890  143.3240 C   0  0  0  0  0  3  0  0  0  0  0  0
  186.1910  178.3420  144.8860 C   0  0  0  0  0  0  0  0  0  0  0  0
  188.9330  177.6890  144.9100 C   0  0  0  0  0  0  0  0  0  0  0  0
  190.9340  176.1400  144.2190 C   0  0  2  0  0  0  0  0  0  0  0  0
  190.9320  177.6470  140.4900 O   0  0  0  0  0  1  0  0  0  0  0  0
  189.6140  177.7730  140.0650 C   0  0  0  0  0  0  0  0  0  0  0  0
  189.3630  177.8880  138.8370 O   0  0  0  0  0  0  0  0  0  0  0  0
  1  6  1  1  0  0  0
  3 23  1  0  0  0  0
  4  5  1  0  0  0  0
  5 17  1  0  0  0  0
  7 15  1  0  0  0  0
  7  2  1  1  0  0  0
  8 10  1  0  0  0  0
 10  9  1  0  0  0  0
 11  8  1  1  0  0  0
 11 20  1  0  0  0  0
 14 21  2  0  0  0  0
 15 12  1  6  0  0  0
 15 11  1  0  0  0  0
 16 14  1  6  0  0  0
 16  3  1  0  0  0  0
 18 26  1  6  0  0  0
 18  7  1  0  0  0  0
 18 16  1  0  0  0  0
 19 23  1  6  0  0  0
 19  1  1  0  0  0  0
 20  3  2  0  0  0  0
 20 22  1  0  0  0  0
 21 24  1  0  0  0  0
 22  9  1  0  0  0  0
 22  4  2  0  0  0  0
 23  5  2  0  0  0  0
 24 13  1  6  0  0  0
 24 19  1  0  0  0  0
 24  1  1  0  0  0  0
 26 25  1  0  0  0  0
 27 26  2  0  0  0  0
M  END
>  <MODEL>
2

>  <REMARK>
 VINA RESULT:      -7.0      1.663      5.100
  Name = 
  1 active torsions:
  status: ('A' for Active; 'I' for Inactive)
    1  A    between atoms: C_18  and  C_23
                            x       y       z     vdW  Elec       q    Type
                         _______ _______ _______ _____ _____    ______ ____

>  <TORSDO>
F 1

$$$$
=
 OpenBabel10232411333D

 27 31  0  0  1  0  0  0  0  0999 V2000
  188.4620  176.9750  146.3900 C   0  0  1  0  0  3  0  0  0  0  0  0
  186.8150  180.4470  141.8530 O   0  0  0  0  0  1  0  0  0  0  0  0
  186.4030  178.1830  143.7630 C   0  0  0  0  0  0  0  0  0  0  0  0
  184.5360  178.8770  145.7440 C   0  0  0  0  0  3  0  0  0  0  0  0
  185.8770  178.7450  146.0800 C   0  0  0  0  0  0  0  0  0  0  0  0
  189.4120  177.2350  147.3800 O   0  0  0  0  0  1  0  0  0  0  0  0
  186.4320  179.4060  141.0010 C   0  0  2  0  0  3  0  0  0  0  0  0
  183.0350  177.7320  141.9570 C   0  0  0  0  0  2  0  0  0  0  0  0
  182.6140  178.6930  144.2010 C   0  0  0  0  0  2  0  0  0  0  0  0
  182.2660  178.7950  142.7240 C   0  0  0  0  0  2  0  0  0  0  0  0
  184.5360  178.0240  142.0240 C   0  0  1  0  0  3  0  0  0  0  0  0
  184.4510  178.9040  139.7880 O   0  0  0  0  0  1  0  0  0  0  0  0
  190.4660  177.2170  144.9990 O   0  0  0  0  0  1  0  0  0  0  0  0
  187.8290  176.3650  142.9580 C   0  0  0  0  0  3  0  0  0  0  0  0
  184.9230  179.1710  141.0750 C   0  0  2  0  0  3  0  0  0  0  0  0
  187.4620  177.7960  142.7450 C   0  0  1  0  0  3  0  0  0  0  0  0
  186.3320  179.0920  147.7440 Cl  0  0  0  0  0  0  0  0  0  0  0  0
  187.2420  178.1290  141.2580 C   0  0  2  0  0  3  0  0  0  0  0  0
  188.2790  178.2290  145.5250 C   0  0  2  0  0  3  0  0  0  0  0  0
  185.0220  178.2730  143.4400 C   0  0  0  0  0  0  0  0  0  0  0  0
  188.5380  176.0140  144.0350 C   0  0  0  0  0  3  0  0  0  0  0  0
  184.0980  178.6470  144.4440 C   0  0  0  0  0  0  0  0  0  0  0  0
  186.8210  178.3520  145.1100 C   0  0  0  0  0  0  0  0  0  0  0  0
  189.0820  177.0270  145.0090 C   0  0  2  0  0  0  0  0  0  0  0  0
  189.7160  177.7550  141.1460 O   0  0  0  0  0  1  0  0  0  0  0  0
  188.5470  178.1930  140.5340 C   0  0  0  0  0  0  0  0  0  0  0  0
  188.5890  178.6560  139.3640 O   0  0  0  0  0  0  0  0  0  0  0  0
  1  6  1  1  0  0  0
  3 23  1  0  0  0  0
  4  5  1  0  0  0  0
  5 17  1  0  0  0  0
  7 15  1  0  0  0  0
  7 18  1  0  0  0  0
  7  2  1  1  0  0  0
  8 10  1  0  0  0  0
  9 22  1  0  0  0  0
 10  9  1  0  0  0  0
 11  8  1  1  0  0  0
 11 20  1  0  0  0  0
 14 21  2  0  0  0  0
 15 12  1  6  0  0  0
 15 11  1  0  0  0  0
 16 14  1  6  0  0  0
 16  3  1  0  0  0  0
 18 26  1  6  0  0  0
 18 16  1  0  0  0  0
 19 23  1  6  0  0  0
 19  1  1  0  0  0  0
 20  3  2  0  0  0  0
 20 22  1  0  0  0  0
 21 24  1  0  0  0  0
 22  4  2  0  0  0  0
 23  5  2  0  0  0  0
 24 13  1  6  0  0  0
 24 19  1  0  0  0  0
 24  1  1  0  0  0  0
 26 25  1  0  0  0  0
 27 26  2  0  0  0  0
M  END
>  <MODEL>
3

>  <REMARK>
 VINA RESULT:      -6.9      1.943      5.332
  Name = 
  1 active torsions:
  status: ('A' for Active; 'I' for Inactive)
    1  A    between atoms: C_18  and  C_23
                            x       y       z     vdW  Elec       q    Type
                         _______ _______ _______ _____ _____    ______ ____

>  <TORSDO>
F 1

$$$$
=
 OpenBabel10232411333D

 27 31  0  0  1  0  0  0  0  0999 V2000
  191.7190  174.4650  135.9950 C   0  0  1  0  0  3  0  0  0  0  0  0
  188.7070  179.1980  137.9630 O   0  0  0  0  0  1  0  0  0  0  0  0
  190.0810  176.5690  138.3380 C   0  0  0  0  0  0  0  0  0  0  0  0
  192.5890  176.9180  139.5550 C   0  0  0  0  0  3  0  0  0  0  0  0
  192.5200  176.5440  138.2190 C   0  0  0  0  0  0  0  0  0  0  0  0
  192.4560  174.3350  134.8150 O   0  0  0  0  0  1  0  0  0  0  0  0
  187.7700  178.4780  138.7100 C   0  0  2  0  0  3  0  0  0  0  0  0
  189.1740  177.0200  142.0510 C   0  0  0  0  0  2  0  0  0  0  0  0
  191.6080  177.3840  141.7750 C   0  0  0  0  0  2  0  0  0  0  0  0
  190.3400  177.9200  142.4220 C   0  0  0  0  0  2  0  0  0  0  0  0
  188.9080  177.1040  140.5460 C   0  0  1  0  0  3  0  0  0  0  0  0
  187.0400  178.5570  140.9710 O   0  0  0  0  0  1  0  0  0  0  0  0
  189.9430  174.8340  134.3460 O   0  0  0  0  0  1  0  0  0  0  0  0
  188.5310  174.8800  137.4840 C   0  0  0  0  0  3  0  0  0  0  0  0
  188.1830  178.4100  140.1810 C   0  0  2  0  0  3  0  0  0  0  0  0
  188.7590  176.3480  137.6230 C   0  0  1  0  0  3  0  0  0  0  0  0
  194.0380  176.3750  137.3460 Cl  0  0  0  0  0  0  0  0  0  0  0  0
  187.5020  177.0920  138.1080 C   0  0  2  0  0  3  0  0  0  0  0  0
  191.2470  175.9180  136.1380 C   0  0  2  0  0  3  0  0  0  0  0  0
  190.1640  176.9050  139.7170 C   0  0  0  0  0  0  0  0  0  0  0  0
  189.2710  174.1710  136.6260 C   0  0  0  0  0  3  0  0  0  0  0  0
  191.4350  177.1000  140.3080 C   0  0  0  0  0  0  0  0  0  0  0  0
  191.2720  176.3190  137.6050 C   0  0  0  0  0  0  0  0  0  0  0  0
  190.2740  174.8140  135.7030 C   0  0  2  0  0  0  0  0  0  0  0  0
  186.9010  177.3860  135.6950 O   0  0  0  0  0  0  0  0  0  0  0  0
  186.4940  177.1950  137.0110 C   0  0  0  0  0  0  0  0  0  0  0  0
  185.2670  177.1180  137.2800 O   0  0  0  0  0  1  0  0  0  0  0  0
  1  6  1  6  0  0  0
  1 19  1  0  0  0  0
  3 20  1  0  0  0  0
  4 22  1  0  0  0  0
  5  4  2  0  0  0  0
  7  2  1  6  0  0  0
  7 15  1  0  0  0  0
  8 10  1  0  0  0  0
  9 10  1  0  0  0  0
 11  8  1  1  0  0  0
 15 11  1  0  0  0  0
 15 12  1  1  0  0  0
 16 14  1  1  0  0  0
 16 18  1  0  0  0  0
 16  3  1  0  0  0  0
 17  5  1  0  0  0  0
 18 26  1  6  0  0  0
 18  7  1  0  0  0  0
 19 23  1  1  0  0  0
 20 22  2  0  0  0  0
 20 11  1  0  0  0  0
 21 14  2  0  0  0  0
 22  9  1  0  0  0  0
 23  5  1  0  0  0  0
 23  3  2  0  0  0  0
 24 13  1  6  0  0  0
 24  1  1  0  0  0  0
 24 19  1  0  0  0  0
 24 21  1  0  0  0  0
 25 26  2  0  0  0  0
 26 27  1  0  0  0  0
M  END
>  <MODEL>
4

>  <REMARK>
 VINA RESULT:      -6.4      4.287      7.485
  Name = 
  1 active torsions:
  status: ('A' for Active; 'I' for Inactive)
    1  A    between atoms: C_18  and  C_23
                            x       y       z     vdW  Elec       q    Type
                         _______ _______ _______ _____ _____    ______ ____

>  <TORSDO>
F 1

$$$$
=
 OpenBabel10232411333D

 27 31  0  0  1  0  0  0  0  0999 V2000
  184.2110  178.4030  144.0120 C   0  0  1  0  0  3  0  0  0  0  0  0
  189.9650  179.4780  145.0500 O   0  0  0  0  0  1  0  0  0  0  0  0
  187.7140  177.8380  143.9590 C   0  0  0  0  0  0  0  0  0  0  0  0
  187.5640  178.0850  141.1650 C   0  0  0  0  0  3  0  0  0  0  0  0
  186.5830  178.6650  141.9590 C   0  0  0  0  0  0  0  0  0  0  0  0
  183.1440  179.3060  144.0170 O   0  0  0  0  0  1  0  0  0  0  0  0
  190.2710  178.2000  145.5260 C   0  0  2  0  0  3  0  0  0  0  0  0
  190.4920  175.4690  142.7410 C   0  0  0  0  0  2  0  0  0  0  0  0
  189.5520  176.6660  140.7880 C   0  0  0  0  0  2  0  0  0  0  0  0
  190.8380  176.2230  141.4680 C   0  0  0  0  0  2  0  0  0  0  0  0
  189.8280  176.4160  143.7450 C   0  0  1  0  0  3  0  0  0  0  0  0
  191.9000  176.5660  144.9550 O   0  0  0  0  0  1  0  0  0  0  0  0
  184.3170  179.1670  146.3380 O   0  0  0  0  0  1  0  0  0  0  0  0
  186.7030  176.7280  145.8900 C   0  0  0  0  0  3  0  0  0  0  0  0
  190.8650  177.3330  144.4150 C   0  0  2  0  0  3  0  0  0  0  0  0
  187.7270  177.7310  145.4740 C   0  0  1  0  0  3  0  0  0  0  0  0
  185.3250  179.5890  141.1470 Cl  0  0  0  0  0  0  0  0  0  0  0  0
  189.0660  177.5400  146.2090 C   0  0  2  0  0  3  0  0  0  0  0  0
  185.5250  179.1730  144.1870 C   0  0  2  0  0  3  0  0  0  0  0  0
  188.6850  177.2080  143.1340 C   0  0  0  0  0  0  0  0  0  0  0  0
  185.4040  177.0220  145.7840 C   0  0  0  0  0  3  0  0  0  0  0  0
  188.6080  177.3620  141.7300 C   0  0  0  0  0  0  0  0  0  0  0  0
  186.6170  178.5130  143.3600 C   0  0  0  0  0  0  0  0  0  0  0  0
  184.9160  178.3800  145.3510 C   0  0  2  0  0  0  0  0  0  0  0  0
  187.7690  178.5350  148.1070 O   0  0  0  0  0  0  0  0  0  0  0  0
  188.9610  178.0040  147.6250 C   0  0  0  0  0  0  0  0  0  0  0  0
  189.9610  177.9210  148.3850 O   0  0  0  0  0  1  0  0  0  0  0  0
  1  6  1  1  0  0  0
  1 19  1  0  0  0  0
  1 24  1  0  0  0  0
  3 16  1  0  0  0  0
  4 22  2  0  0  0  0
  4  5  1  0  0  0  0
  5 23  2  0  0  0  0
  7  2  1  6  0  0  0
  7 18  1  0  0  0  0
  9 10  1  0  0  0  0
  9 22  1  0  0  0  0
 10  8  1  0  0  0  0
 11  8  1  6  0  0  0
 11 15  1  0  0  0  0
 15 12  1  1  0  0  0
 15  7  1  0  0  0  0
 16 14  1  6  0  0  0
 16 18  1  0  0  0  0
 17  5  1  0  0  0  0
 18 26  1  1  0  0  0
 19 23  1  6  0  0  0
 19 24  1  0  0  0  0
 20 11  1  0  0  0  0
 20  3  2  0  0  0  0
 21 14  2  0  0  0  0
 22 20  1  0  0  0  0
 23  3  1  0  0  0  0
 24 21  1  0  0  0  0
 24 13  1  1  0  0  0
 26 25  2  0  0  0  0
 26 27  1  0  0  0  0
M  END
>  <MODEL>
5

>  <REMARK>
 VINA RESULT:      -6.2      2.394      4.560
  Name = 
  1 active torsions:
  status: ('A' for Active; 'I' for Inactive)
    1  A    between atoms: C_18  and  C_23
                            x       y       z     vdW  Elec       q    Type
                         _______ _______ _______ _____ _____    ______ ____

>  <TORSDO>
F 1

$$$$
=
 OpenBabel10232411333D

 27 31  0  0  1  0  0  0  0  0999 V2000
  184.8870  177.8310  143.3080 C   0  0  1  0  0  3  0  0  0  0  0  0
  190.5320  179.6360  142.8410 O   0  0  0  0  0  1  0  0  0  0  0  0
  188.2450  177.8320  142.1610 C   0  0  0  0  0  0  0  0  0  0  0  0
  187.2210  178.4370  139.6160 C   0  0  0  0  0  3  0  0  0  0  0  0
  186.4740  178.7420  140.7470 C   0  0  0  0  0  0  0  0  0  0  0  0
  183.7830  178.5460  143.7780 O   0  0  0  0  0  1  0  0  0  0  0  0
  191.1050  178.3680  142.9740 C   0  0  2  0  0  3  0  0  0  0  0  0
  190.7550  176.1180  139.8000 C   0  0  0  0  0  2  0  0  0  0  0  0
  189.1390  177.4120  138.4410 C   0  0  0  0  0  2  0  0  0  0  0  0
  190.6110  177.0850  138.6370 C   0  0  0  0  0  2  0  0  0  0  0  0
  190.3320  176.8010  141.1030 C   0  0  1  0  0  3  0  0  0  0  0  0
  192.6460  177.1020  141.6810 O   0  0  0  0  0  1  0  0  0  0  0  0
  185.6180  178.2720  145.6050 O   0  0  0  0  0  1  0  0  0  0  0  0
  187.9990  176.3210  144.0680 C   0  0  0  0  0  3  0  0  0  0  0  0
  191.4200  177.7660  141.6030 C   0  0  2  0  0  3  0  0  0  0  0  0
  188.7330  177.5200  143.5650 C   0  0  1  0  0  3  0  0  0  0  0  0
  184.9370  179.5610  140.5050 Cl  0  0  0  0  0  0  0  0  0  0  0  0
  190.2450  177.4390  143.8420 C   0  0  2  0  0  3  0  0  0  0  0  0
  186.1010  178.7650  143.2370 C   0  0  2  0  0  3  0  0  0  0  0  0
  188.9790  177.4810  140.9950 C   0  0  0  0  0  0  0  0  0  0  0  0
  186.7070  176.4200  144.3910 C   0  0  0  0  0  3  0  0  0  0  0  0
  188.4600  177.8140  139.7220 C   0  0  0  0  0  0  0  0  0  0  0  0
  186.9510  178.4030  142.0290 C   0  0  0  0  0  0  0  0  0  0  0  0
  185.9670  177.7320  144.3650 C   0  0  2  0  0  0  0  0  0  0  0  0
  191.7020  177.2050  145.8660 O   0  0  0  0  0  0  0  0  0  0  0  0
  190.5290  177.6800  145.2880 C   0  0  0  0  0  0  0  0  0  0  0  0
  189.6970  178.3110  145.9920 O   0  0  0  0  0  1  0  0  0  0  0  0
  1  6  1  1  0  0  0
  1 24  1  0  0  0  0
  3 16  1  0  0  0  0
  4 22  2  0  0  0  0
  4  5  1  0  0  0  0
  5 23  2  0  0  0  0
  7  2  1  6  0  0  0
  7 18  1  0  0  0  0
  9 10  1  0  0  0  0
  9 22  1  0  0  0  0
 10  8  1  0  0  0  0
 11  8  1  6  0  0  0
 11 15  1  0  0  0  0
 14 21  2  0  0  0  0
 15 12  1  1  0  0  0
 15  7  1  0  0  0  0
 16 18  1  0  0  0  0
 16 14  1  6  0  0  0
 17  5  1  0  0  0  0
 18 26  1  1  0  0  0
 19 23  1  6  0  0  0
 19  1  1  0  0  0  0
 19 24  1  0  0  0  0
 20 11  1  0  0  0  0
 20  3  2  0  0  0  0
 22 20  1  0  0  0  0
 23  3  1  0  0  0  0
 24 21  1  0  0  0  0
 24 13  1  1  0  0  0
 26 25  2  0  0  0  0
 26 27  1  0  0  0  0
M  END
>  <MODEL>
6

>  <REMARK>
 VINA RESULT:      -6.2      2.300      4.749
  Name = 
  1 active torsions:
  status: ('A' for Active; 'I' for Inactive)
    1  A    between atoms: C_18  and  C_23
                            x       y       z     vdW  Elec       q    Type
                         _______ _______ _______ _____ _____    ______ ____

>  <TORSDO>
F 1

$$$$
=
 OpenBabel10232411333D

 27 31  0  0  1  0  0  0  0  0999 V2000
  185.3350  177.6970  138.5690 C   0  0  1  0  0  3  0  0  0  0  0  0
  184.6800  180.7430  143.6330 O   0  0  0  0  0  1  0  0  0  0  0  0
  185.4600  178.3210  142.0610 C   0  0  0  0  0  0  0  0  0  0  0  0
  188.2540  178.1300  141.8460 C   0  0  0  0  0  3  0  0  0  0  0  0
  187.5000  178.4530  140.7250 C   0  0  0  0  0  0  0  0  0  0  0  0
  185.4000  178.1880  137.2630 O   0  0  0  0  0  1  0  0  0  0  0  0
  184.0580  179.7140  144.3460 C   0  0  2  0  0  3  0  0  0  0  0  0
  186.4810  176.8650  145.4740 C   0  0  0  0  0  2  0  0  0  0  0  0
  188.5310  177.4120  144.1950 C   0  0  0  0  0  2  0  0  0  0  0  0
  187.8530  177.5130  145.5530 C   0  0  0  0  0  2  0  0  0  0  0  0
  185.5800  177.6630  144.5290 C   0  0  1  0  0  3  0  0  0  0  0  0
  184.4840  178.6500  146.4280 O   0  0  0  0  0  1  0  0  0  0  0  0
  183.1300  178.7550  138.4070 O   0  0  0  0  0  1  0  0  0  0  0  0
  183.3640  177.2070  141.4710 C   0  0  0  0  0  3  0  0  0  0  0  0
  185.0740  178.9520  145.1980 C   0  0  2  0  0  3  0  0  0  0  0  0
  183.9460  178.4270  142.1030 C   0  0  1  0  0  3  0  0  0  0  0  0
  188.3700  178.7920  139.2340 Cl  0  0  0  0  0  0  0  0  0  0  0  0
  183.2480  178.7890  143.4270 C   0  0  2  0  0  3  0  0  0  0  0  0
  185.3130  178.8750  139.5510 C   0  0  2  0  0  3  0  0  0  0  0  0
  186.2380  177.9430  143.1890 C   0  0  0  0  0  0  0  0  0  0  0  0
  183.4530  177.0370  140.1490 C   0  0  0  0  0  3  0  0  0  0  0  0
  187.6460  177.8750  143.0700 C   0  0  0  0  0  0  0  0  0  0  0  0
  186.0940  178.5080  140.8030 C   0  0  0  0  0  0  0  0  0  0  0  0
  184.0330  178.0870  139.2370 C   0  0  2  0  0  0  0  0  0  0  0  0
  181.5900  179.9130  141.9230 O   0  0  0  0  0  0  0  0  0  0  0  0
  181.8990  179.3760  143.1690 C   0  0  0  0  0  0  0  0  0  0  0  0
  181.0390  179.3940  144.0870 O   0  0  0  0  0  1  0  0  0  0  0  0
  1  6  1  6  0  0  0
  1 24  1  0  0  0  0
  1 19  1  0  0  0  0
  3 16  1  0  0  0  0
  3 20  1  0  0  0  0
  4 22  1  0  0  0  0
  5 23  1  0  0  0  0
  5  4  2  0  0  0  0
  7  2  1  6  0  0  0
  7 15  1  0  0  0  0
  8 10  1  0  0  0  0
  9 10  1  0  0  0  0
 11 15  1  0  0  0  0
 11  8  1  1  0  0  0
 15 12  1  1  0  0  0
 16 14  1  1  0  0  0
 16 18  1  0  0  0  0
 17  5  1  0  0  0  0
 18 26  1  6  0  0  0
 18  7  1  0  0  0  0
 19 23  1  1  0  0  0
 20 11  1  0  0  0  0
 21 14  2  0  0  0  0
 22 20  2  0  0  0  0
 22  9  1  0  0  0  0
 23  3  2  0  0  0  0
 24 13  1  6  0  0  0
 24 19  1  0  0  0  0
 24 21  1  0  0  0  0
 25 26  2  0  0  0  0
 26 27  1  0  0  0  0
M  END
>  <MODEL>
7

>  <REMARK>
 VINA RESULT:      -6.1      3.399      5.783
  Name = 
  1 active torsions:
  status: ('A' for Active; 'I' for Inactive)
    1  A    between atoms: C_18  and  C_23
                            x       y       z     vdW  Elec       q    Type
                         _______ _______ _______ _____ _____    ______ ____

>  <TORSDO>
F 1

$$$$
=
 OpenBabel10232411333D

 27 31  0  0  1  0  0  0  0  0999 V2000
  191.5710  177.8560  140.9130 C   0  0  1  0  0  3  0  0  0  0  0  0
  187.0320  175.7790  144.1420 O   0  0  0  0  0  1  0  0  0  0  0  0
  188.3880  177.8650  142.4820 C   0  0  0  0  0  0  0  0  0  0  0  0
  187.2790  177.9630  139.9030 C   0  0  0  0  0  3  0  0  0  0  0  0
  188.5610  177.4580  140.0810 C   0  0  0  0  0  0  0  0  0  0  0  0
  192.6010  177.1380  140.3000 O   0  0  0  0  0  1  0  0  0  0  0  0
  186.8610  176.9310  144.9160 C   0  0  2  0  0  3  0  0  0  0  0  0
  185.1580  179.8890  143.0160 C   0  0  0  0  0  2  0  0  0  0  0  0
  185.2170  179.0840  140.6750 C   0  0  0  0  0  2  0  0  0  0  0  0
  184.3440  179.2400  141.9110 C   0  0  0  0  0  2  0  0  0  0  0  0
  186.2870  178.9520  143.4530 C   0  0  1  0  0  3  0  0  0  0  0  0
  185.0100  178.3420  145.3970 O   0  0  0  0  0  1  0  0  0  0  0  0
  192.5980  176.8280  142.8860 O   0  0  0  0  0  1  0  0  0  0  0  0
  190.0580  178.8950  143.9420 C   0  0  0  0  0  3  0  0  0  0  0  0
  185.7530  177.8130  144.3390 C   0  0  2  0  0  3  0  0  0  0  0  0
  189.0520  177.7970  143.8460 C   0  0  1  0  0  3  0  0  0  0  0  0
  189.3930  176.8420  138.6590 Cl  0  0  0  0  0  0  0  0  0  0  0  0
  188.1800  177.6910  145.1100 C   0  0  2  0  0  3  0  0  0  0  0  0
  190.5530  176.8740  141.5060 C   0  0  2  0  0  3  0  0  0  0  0  0
  187.0960  178.4240  142.2820 C   0  0  0  0  0  0  0  0  0  0  0  0
  191.1890  178.8240  143.2350 C   0  0  0  0  0  3  0  0  0  0  0  0
  186.5430  178.4440  140.9800 C   0  0  0  0  0  0  0  0  0  0  0  0
  189.1510  177.4440  141.3610 C   0  0  0  0  0  0  0  0  0  0  0  0
  191.5490  177.6170  142.4080 C   0  0  2  0  0  0  0  0  0  0  0  0
  190.2520  176.6320  146.0360 O   0  0  0  0  0  0  0  0  0  0  0  0
  188.9550  177.0920  146.2380 C   0  0  0  0  0  0  0  0  0  0  0  0
  188.4280  176.9950  147.3760 O   0  0  0  0  0  1  0  0  0  0  0  0
  1  6  1  6  0  0  0
  1 19  1  0  0  0  0
  1 24  1  0  0  0  0
  3 16  1  0  0  0  0
  4  5  2  0  0  0  0
  4 22  1  0  0  0  0
  5 23  1  0  0  0  0
  7  2  1  6  0  0  0
  7 18  1  0  0  0  0
  9 22  1  0  0  0  0
  9 10  1  0  0  0  0
 10  8  1  0  0  0  0
 11  8  1  6  0  0  0
 11 15  1  0  0  0  0
 15  7  1  0  0  0  0
 15 12  1  1  0  0  0
 16 14  1  1  0  0  0
 16 18  1  0  0  0  0
 17  5  1  0  0  0  0
 18 26  1  1  0  0  0
 19 23  1  1  0  0  0
 19 24  1  0  0  0  0
 20  3  1  0  0  0  0
 20 11  1  0  0  0  0
 21 14  2  0  0  0  0
 22 20  2  0  0  0  0
 23  3  2  0  0  0  0
 24 13  1  1  0  0  0
 24 21  1  0  0  0  0
 25 26  2  0  0  0  0
 26 27  1  0  0  0  0
M  END
>  <MODEL>
8

>  <REMARK>
 VINA RESULT:      -6.0      2.585      6.092
  Name = 
  1 active torsions:
  status: ('A' for Active; 'I' for Inactive)
    1  A    between atoms: C_18  and  C_23
                            x       y       z     vdW  Elec       q    Type
                         _______ _______ _______ _____ _____    ______ ____

>  <TORSDO>
F 1

$$$$
=
 OpenBabel10232411333D

 27 31  0  0  1  0  0  0  0  0999 V2000
  186.8650  176.8800  137.8510 C   0  0  1  0  0  3  0  0  0  0  0  0
  182.7800  181.1010  138.7660 O   0  0  0  0  0  1  0  0  0  0  0  0
  184.1000  178.4910  139.3860 C   0  0  0  0  0  0  0  0  0  0  0  0
  185.6910  178.7010  141.6920 C   0  0  0  0  0  3  0  0  0  0  0  0
  186.2970  178.5630  140.4490 C   0  0  0  0  0  0  0  0  0  0  0  0
  188.0780  176.9810  137.1650 O   0  0  0  0  0  1  0  0  0  0  0  0
  181.6880  180.2330  138.8630 C   0  0  2  0  0  3  0  0  0  0  0  0
  181.5170  178.2590  142.2300 C   0  0  0  0  0  2  0  0  0  0  0  0
  183.7410  178.7410  143.2090 C   0  0  0  0  0  2  0  0  0  0  0  0
  182.2670  179.1160  143.2350 C   0  0  0  0  0  2  0  0  0  0  0  0
  181.9790  178.5960  140.8100 C   0  0  1  0  0  3  0  0  0  0  0  0
  179.9820  179.8940  140.4820 O   0  0  0  0  0  1  0  0  0  0  0  0
  186.0390  177.4760  135.6210 O   0  0  0  0  0  1  0  0  0  0  0  0
  183.3280  176.9290  137.6680 C   0  0  0  0  0  3  0  0  0  0  0  0
  181.3700  179.9230  140.3270 C   0  0  2  0  0  3  0  0  0  0  0  0
  183.3000  178.3580  138.1020 C   0  0  1  0  0  3  0  0  0  0  0  0
  188.0550  178.5970  140.3990 Cl  0  0  0  0  0  0  0  0  0  0  0  0
  181.8880  178.9650  138.0210 C   0  0  2  0  0  3  0  0  0  0  0  0
  186.2250  178.2700  137.9500 C   0  0  2  0  0  3  0  0  0  0  0  0
  183.4900  178.5830  140.6670 C   0  0  0  0  0  0  0  0  0  0  0  0
  184.4570  176.4050  137.1820 C   0  0  0  0  0  3  0  0  0  0  0  0
  184.3060  178.7130  141.8160 C   0  0  0  0  0  0  0  0  0  0  0  0
  185.5150  178.4100  139.2870 C   0  0  0  0  0  0  0  0  0  0  0  0
  185.6970  177.2290  136.9530 C   0  0  2  0  0  0  0  0  0  0  0  0
  181.8320  178.3140  135.6040 O   0  0  0  0  0  0  0  0  0  0  0  0
  181.5070  179.2270  136.6020 C   0  0  0  0  0  0  0  0  0  0  0  0
  180.8950  180.2860  136.3040 O   0  0  0  0  0  1  0  0  0  0  0  0
  1  6  1  6  0  0  0
  1 19  1  0  0  0  0
  3 20  1  0  0  0  0
  4 22  1  0  0  0  0
  5  4  2  0  0  0  0
  7  2  1  1  0  0  0
  7 15  1  0  0  0  0
  8 10  1  0  0  0  0
  9 10  1  0  0  0  0
 11  8  1  1  0  0  0
 15 12  1  6  0  0  0
 15 11  1  0  0  0  0
 16 14  1  1  0  0  0
 16  3  1  0  0  0  0
 17  5  1  0  0  0  0
 18 26  1  6  0  0  0
 18 16  1  0  0  0  0
 18  7  1  0  0  0  0
 19 23  1  1  0  0  0
 20 11  1  0  0  0  0
 20 22  2  0  0  0  0
 21 14  2  0  0  0  0
 22  9  1  0  0  0  0
 23  3  2  0  0  0  0
 23  5  1  0  0  0  0
 24 13  1  6  0  0  0
 24 21  1  0  0  0  0
 24  1  1  0  0  0  0
 24 19  1  0  0  0  0
 25 26  2  0  0  0  0
 27 26  1  0  0  0  0
M  END
>  <MODEL>
9

>  <REMARK>
 VINA RESULT:      -5.8      4.731      8.001
  Name = 
  1 active torsions:
  status: ('A' for Active; 'I' for Inactive)
    1  A    between atoms: C_18  and  C_23
                            x       y       z     vdW  Elec       q    Type
                         _______ _______ _______ _____ _____    ______ ____

>  <TORSDO>
F 1

$$$$
