=
 OpenBabel10232410003D

 26 29  0  0  1  0  0  0  0  0999 V2000
  189.9600  178.0440  143.7410 C   0  0  0  0  0  2  0  0  0  0  0  0
  188.9160  177.1790  143.0710 C   0  0  1  0  0  3  0  0  0  0  0  0
  187.5520  177.5110  143.6300 C   0  0  0  0  0  0  0  0  0  0  0  0
  188.1270  177.1390  146.0820 C   0  0  0  0  0  3  0  0  0  0  0  0
  191.7660  177.7770  145.2460 O   0  0  0  0  0  1  0  0  0  0  0  0
  189.6660  178.1160  138.9640 C   0  0  0  0  0  2  0  0  0  0  0  0
  186.9140  178.4450  141.4510 C   0  0  0  0  0  3  0  0  0  0  0  0
  188.0540  178.0850  140.8760 C   0  0  0  0  0  0  0  0  0  0  0  0
  189.0100  177.2950  141.6120 N   0  0  0  0  0  0  0  0  0  0  0  0
  186.6090  178.1040  142.8540 C   0  0  0  0  0  0  0  0  0  0  0  0
  190.1180  177.4290  147.2660 O   0  0  0  0  0  0  0  0  0  0  0  0
  189.5940  177.3240  146.1250 C   0  0  0  0  0  0  0  0  0  0  0  0
  187.2730  177.2230  145.0540 C   0  0  0  0  0  3  0  0  0  0  0  0
  188.2330  178.3640  139.4130 C   0  0  0  0  0  2  0  0  0  0  0  0
  190.2330  176.7910  140.9780 C   0  0  0  0  0  2  0  0  0  0  0  0
  190.1230  176.7550  139.4550 C   0  0  2  0  0  3  0  0  0  0  0  0
  190.5030  177.2780  144.9250 C   0  0  1  0  0  3  0  0  0  0  0  0
  185.2540  178.4610  143.3460 C   0  0  0  0  0  0  0  0  0  0  0  0
  181.7880  178.7850  142.0280 N   0  0  0  0  0  1  0  0  0  0  0  0
  183.7230  179.0240  145.1340 C   0  0  0  0  0  3  0  0  0  0  0  0
  184.1690  178.4680  142.4570 C   0  0  0  0  0  3  0  0  0  0  0  0
  182.6930  179.0380  144.2470 N   0  0  0  0  0  0  0  0  0  0  0  0
  182.8890  178.7670  142.9280 C   0  0  0  0  0  0  0  0  0  0  0  0
  185.0180  178.7290  144.7020 C   0  0  0  0  0  3  0  0  0  0  0  0
  191.4730  176.4250  138.8460 C   0  0  0  0  0  2  0  0  0  0  0  0
  191.4110  175.1460  138.1590 N   0  0  0  0  0  1  0  0  0  0  0  0
  1 17  1  0  0  0  0
  2  3  1  0  0  0  0
  2  1  1  1  0  0  0
  3 13  1  0  0  0  0
  4 12  1  0  0  0  0
  6 14  1  0  0  0  0
  6 16  1  0  0  0  0
  7 10  1  0  0  0  0
  8  7  2  0  0  0  0
  8  9  1  0  0  0  0
  9  2  1  0  0  0  0
 10 18  1  0  0  0  0
 10  3  2  0  0  0  0
 12 11  2  0  0  0  0
 13  4  2  0  0  0  0
 14  8  1  0  0  0  0
 15  9  1  0  0  0  0
 16 25  1  6  0  0  0
 16 15  1  0  0  0  0
 17  5  1  1  0  0  0
 17 12  1  0  0  0  0
 18 24  1  0  0  0  0
 19 23  1  0  0  0  0
 21 23  1  0  0  0  0
 21 18  2  0  0  0  0
 22 20  1  0  0  0  0
 23 22  2  0  0  0  0
 24 20  2  0  0  0  0
 26 25  1  0  0  0  0
M  END
>  <MODEL>
1

>  <REMARK>
 VINA RESULT:     -10.2      0.000      0.000
  Name = 
  2 active torsions:
  status: ('A' for Active; 'I' for Inactive)
    1  A    between atoms: C_1  and  C_18
    2  A    between atoms: C_16  and  C_25
                            x       y       z     vdW  Elec       q    Type
                         _______ _______ _______ _____ _____    ______ ____

>  <TORSDO>
F 2

$$$$
=
 OpenBabel10232410003D

 26 29  0  0  1  0  0  0  0  0999 V2000
  187.1010  178.7350  141.5090 C   0  0  0  0  0  2  0  0  0  0  0  0
  186.5540  177.7000  142.4660 C   0  0  1  0  0  3  0  0  0  0  0  0
  187.5510  177.4600  143.5740 C   0  0  0  0  0  0  0  0  0  0  0  0
  189.5340  176.8890  142.0820 C   0  0  0  0  0  3  0  0  0  0  0  0
  187.8860  178.8310  139.2780 O   0  0  0  0  0  1  0  0  0  0  0  0
  182.8220  179.5170  143.5060 C   0  0  0  0  0  2  0  0  0  0  0  0
  185.9920  178.4860  145.1680 C   0  0  0  0  0  3  0  0  0  0  0  0
  185.0350  178.6280  144.2590 C   0  0  0  0  0  0  0  0  0  0  0  0
  185.2190  178.0870  142.9350 N   0  0  0  0  0  0  0  0  0  0  0  0
  187.2740  177.8300  144.8510 C   0  0  0  0  0  0  0  0  0  0  0  0
  190.1220  177.6170  139.9440 O   0  0  0  0  0  0  0  0  0  0  0  0
  189.1990  177.5390  140.7970 C   0  0  0  0  0  0  0  0  0  0  0  0
  188.8610  176.8580  143.2390 C   0  0  0  0  0  3  0  0  0  0  0  0
  183.7170  179.1950  144.6950 C   0  0  0  0  0  2  0  0  0  0  0  0
  184.1450  178.1330  141.9360 C   0  0  0  0  0  2  0  0  0  0  0  0
  182.7700  178.3220  142.5720 C   0  0  2  0  0  3  0  0  0  0  0  0
  187.8210  178.0030  140.4010 C   0  0  1  0  0  3  0  0  0  0  0  0
  188.2150  177.6270  145.9820 C   0  0  0  0  0  0  0  0  0  0  0  0
  191.8020  176.8010  146.5310 N   0  0  0  0  0  1  0  0  0  0  0  0
  188.7330  177.6570  148.3460 C   0  0  0  0  0  3  0  0  0  0  0  0
  189.5540  177.2980  145.7250 C   0  0  0  0  0  3  0  0  0  0  0  0
  190.0210  177.3240  148.0670 N   0  0  0  0  0  0  0  0  0  0  0  0
  190.4460  177.1440  146.7870 C   0  0  0  0  0  0  0  0  0  0  0  0
  187.8110  177.8210  147.3100 C   0  0  0  0  0  3  0  0  0  0  0  0
  181.7300  178.5690  141.4950 C   0  0  0  0  0  2  0  0  0  0  0  0
  180.7520  179.5380  141.9590 N   0  0  0  0  0  1  0  0  0  0  0  0
  2  1  1  6  0  0  0
  2  9  1  0  0  0  0
  2  3  1  0  0  0  0
  3 10  2  0  0  0  0
  4 13  2  0  0  0  0
  6 14  1  0  0  0  0
  8 14  1  0  0  0  0
  8  7  2  0  0  0  0
  9  8  1  0  0  0  0
 10  7  1  0  0  0  0
 10 18  1  0  0  0  0
 11 12  2  0  0  0  0
 12  4  1  0  0  0  0
 13  3  1  0  0  0  0
 15 16  1  0  0  0  0
 15  9  1  0  0  0  0
 16 25  1  6  0  0  0
 16  6  1  0  0  0  0
 17  5  1  6  0  0  0
 17 12  1  0  0  0  0
 17  1  1  0  0  0  0
 18 24  1  0  0  0  0
 19 23  1  0  0  0  0
 21 18  2  0  0  0  0
 21 23  1  0  0  0  0
 22 20  1  0  0  0  0
 23 22  2  0  0  0  0
 24 20  2  0  0  0  0
 25 26  1  0  0  0  0
M  END
>  <MODEL>
2

>  <REMARK>
 VINA RESULT:      -9.9      2.843      6.568
  Name = 
  2 active torsions:
  status: ('A' for Active; 'I' for Inactive)
    1  A    between atoms: C_1  and  C_18
    2  A    between atoms: C_16  and  C_25
                            x       y       z     vdW  Elec       q    Type
                         _______ _______ _______ _____ _____    ______ ____

>  <TORSDO>
F 2

$$$$
=
 OpenBabel10232410003D

 26 29  0  0  1  0  0  0  0  0999 V2000
  188.9490  176.6650  142.6750 C   0  0  0  0  0  2  0  0  0  0  0  0
  188.4240  177.9010  143.3690 C   0  0  1  0  0  3  0  0  0  0  0  0
  187.0510  178.2350  142.8360 C   0  0  0  0  0  0  0  0  0  0  0  0
  187.6960  178.3370  140.3750 C   0  0  0  0  0  3  0  0  0  0  0  0
  190.6560  176.1000  141.1370 O   0  0  0  0  0  1  0  0  0  0  0  0
  188.7260  176.6700  147.4560 C   0  0  0  0  0  2  0  0  0  0  0  0
  186.0890  177.6650  145.0210 C   0  0  0  0  0  3  0  0  0  0  0  0
  187.2770  177.4580  145.5760 C   0  0  0  0  0  0  0  0  0  0  0  0
  188.4760  177.7350  144.8260 N   0  0  0  0  0  0  0  0  0  0  0  0
  185.9530  178.1260  143.6270 C   0  0  0  0  0  0  0  0  0  0  0  0
  189.3180  177.1880  139.1510 O   0  0  0  0  0  0  0  0  0  0  0  0
  188.9160  177.5050  140.3020 C   0  0  0  0  0  0  0  0  0  0  0  0
  186.9130  178.6380  141.4190 C   0  0  0  0  0  3  0  0  0  0  0  0
  187.3310  177.1080  147.0330 C   0  0  0  0  0  2  0  0  0  0  0  0
  189.8040  177.6180  145.4390 C   0  0  0  0  0  2  0  0  0  0  0  0
  189.7460  177.6800  146.9640 C   0  0  2  0  0  3  0  0  0  0  0  0
  189.7640  177.1160  141.4850 C   0  0  1  0  0  3  0  0  0  0  0  0
  184.5770  178.4330  143.1590 C   0  0  0  0  0  0  0  0  0  0  0  0
  182.5310  178.1190  140.0660 N   0  0  0  0  0  1  0  0  0  0  0  0
  182.3140  179.1900  143.5670 C   0  0  0  0  0  3  0  0  0  0  0  0
  184.2090  178.1460  141.8370 C   0  0  0  0  0  3  0  0  0  0  0  0
  181.9910  178.9150  142.2750 N   0  0  0  0  0  0  0  0  0  0  0  0
  182.9050  178.4010  141.4090 C   0  0  0  0  0  0  0  0  0  0  0  0
  183.6080  178.9490  144.0330 C   0  0  0  0  0  3  0  0  0  0  0  0
  191.1070  177.3490  147.5480 C   0  0  0  0  0  2  0  0  0  0  0  0
  191.8890  176.5870  146.5900 N   0  0  0  0  0  1  0  0  0  0  0  0
  2  1  1  6  0  0  0
  2  9  1  0  0  0  0
  3  2  1  0  0  0  0
  3 10  2  0  0  0  0
  4 13  2  0  0  0  0
  7  8  2  0  0  0  0
  8 14  1  0  0  0  0
  9 15  1  0  0  0  0
  9  8  1  0  0  0  0
 10  7  1  0  0  0  0
 11 12  2  0  0  0  0
 12  4  1  0  0  0  0
 12 17  1  0  0  0  0
 13  3  1  0  0  0  0
 14  6  1  0  0  0  0
 15 16  1  0  0  0  0
 16  6  1  0  0  0  0
 16 25  1  1  0  0  0
 17  5  1  6  0  0  0
 17  1  1  0  0  0  0
 18 10  1  0  0  0  0
 18 24  1  0  0  0  0
 19 23  1  0  0  0  0
 20 24  2  0  0  0  0
 21 18  2  0  0  0  0
 22 20  1  0  0  0  0
 23 21  1  0  0  0  0
 23 22  2  0  0  0  0
 26 25  1  0  0  0  0
M  END
>  <MODEL>
3

>  <REMARK>
 VINA RESULT:      -9.7      2.525      4.893
  Name = 
  2 active torsions:
  status: ('A' for Active; 'I' for Inactive)
    1  A    between atoms: C_1  and  C_18
    2  A    between atoms: C_16  and  C_25
                            x       y       z     vdW  Elec       q    Type
                         _______ _______ _______ _____ _____    ______ ____

>  <TORSDO>
F 2

$$$$
=
 OpenBabel10232410003D

 26 29  0  0  1  0  0  0  0  0999 V2000
  190.0820  178.0580  143.1170 C   0  0  0  0  0  2  0  0  0  0  0  0
  189.0690  177.1530  142.4540 C   0  0  1  0  0  3  0  0  0  0  0  0
  187.6930  177.4460  143.0060 C   0  0  0  0  0  0  0  0  0  0  0  0
  188.2740  177.1180  145.4630 C   0  0  0  0  0  3  0  0  0  0  0  0
  191.8920  177.8660  144.6290 O   0  0  0  0  0  1  0  0  0  0  0  0
  189.7990  178.0720  138.3390 C   0  0  0  0  0  2  0  0  0  0  0  0
  187.0300  178.3360  140.8170 C   0  0  0  0  0  3  0  0  0  0  0  0
  188.1830  178.0080  140.2480 C   0  0  0  0  0  0  0  0  0  0  0  0
  189.1620  177.2580  140.9930 N   0  0  0  0  0  0  0  0  0  0  0  0
  186.7340  178.0000  142.2210 C   0  0  0  0  0  0  0  0  0  0  0  0
  190.2510  177.4840  146.6490 O   0  0  0  0  0  0  0  0  0  0  0  0
  189.7330  177.3510  145.5070 C   0  0  0  0  0  0  0  0  0  0  0  0
  187.4200  177.1630  144.4320 C   0  0  0  0  0  3  0  0  0  0  0  0
  188.3570  178.2780  138.7830 C   0  0  0  0  0  2  0  0  0  0  0  0
  190.4030  176.7870  140.3670 C   0  0  0  0  0  2  0  0  0  0  0  0
  190.2990  176.7320  138.8450 C   0  0  2  0  0  3  0  0  0  0  0  0
  190.6470  177.3220  144.3100 C   0  0  1  0  0  3  0  0  0  0  0  0
  185.3660  178.3170  142.7070 C   0  0  0  0  0  0  0  0  0  0  0  0
  183.6250  179.0300  145.9180 N   0  0  0  0  0  1  0  0  0  0  0  0
  183.0340  178.8270  142.3050 C   0  0  0  0  0  3  0  0  0  0  0  0
  185.1390  178.5090  144.0770 C   0  0  0  0  0  3  0  0  0  0  0  0
  182.8420  178.9930  143.6400 N   0  0  0  0  0  0  0  0  0  0  0  0
  183.8610  178.8430  144.5280 C   0  0  0  0  0  0  0  0  0  0  0  0
  184.2980  178.4930  141.8150 C   0  0  0  0  0  3  0  0  0  0  0  0
  191.6600  176.4410  138.2420 C   0  0  0  0  0  2  0  0  0  0  0  0
  191.8270  175.0090  138.0580 N   0  0  0  0  0  1  0  0  0  0  0  0
  1 17  1  0  0  0  0
  2  3  1  0  0  0  0
  2  1  1  1  0  0  0
  3 13  1  0  0  0  0
  4 12  1  0  0  0  0
  6 14  1  0  0  0  0
  6 16  1  0  0  0  0
  7 10  1  0  0  0  0
  8  7  2  0  0  0  0
  8  9  1  0  0  0  0
  9  2  1  0  0  0  0
 10 18  1  0  0  0  0
 10  3  2  0  0  0  0
 12 11  2  0  0  0  0
 13  4  2  0  0  0  0
 14  8  1  0  0  0  0
 15  9  1  0  0  0  0
 16 25  1  6  0  0  0
 16 15  1  0  0  0  0
 17  5  1  1  0  0  0
 17 12  1  0  0  0  0
 18 21  1  0  0  0  0
 20 22  2  0  0  0  0
 21 23  2  0  0  0  0
 22 23  1  0  0  0  0
 23 19  1  0  0  0  0
 24 20  1  0  0  0  0
 24 18  2  0  0  0  0
 26 25  1  0  0  0  0
M  END
>  <MODEL>
4

>  <REMARK>
 VINA RESULT:      -9.6      0.730      1.407
  Name = 
  2 active torsions:
  status: ('A' for Active; 'I' for Inactive)
    1  A    between atoms: C_1  and  C_18
    2  A    between atoms: C_16  and  C_25
                            x       y       z     vdW  Elec       q    Type
                         _______ _______ _______ _____ _____    ______ ____

>  <TORSDO>
F 2

$$$$
=
 OpenBabel10232410003D

 26 29  0  0  1  0  0  0  0  0999 V2000
  186.9190  178.8370  145.5630 C   0  0  0  0  0  2  0  0  0  0  0  0
  187.3030  177.6440  144.7170 C   0  0  1  0  0  3  0  0  0  0  0  0
  186.7930  177.8390  143.3090 C   0  0  0  0  0  0  0  0  0  0  0  0
  184.3520  178.2320  143.9200 C   0  0  0  0  0  3  0  0  0  0  0  0
  185.4720  179.3220  147.3710 O   0  0  0  0  0  1  0  0  0  0  0  0
  191.5410  177.6140  145.3120 C   0  0  0  0  0  2  0  0  0  0  0  0
  189.1090  178.0370  142.5220 C   0  0  0  0  0  3  0  0  0  0  0  0
  189.6200  177.7680  143.7170 C   0  0  0  0  0  0  0  0  0  0  0  0
  188.7460  177.3950  144.8020 N   0  0  0  0  0  0  0  0  0  0  0  0
  187.6550  178.0180  142.2760 C   0  0  0  0  0  0  0  0  0  0  0  0
  183.3640  179.1960  145.8020 O   0  0  0  0  0  0  0  0  0  0  0  0
  184.4180  178.7000  145.3210 C   0  0  0  0  0  0  0  0  0  0  0  0
  185.3320  177.8800  143.0780 C   0  0  0  0  0  3  0  0  0  0  0  0
  191.1110  177.6880  143.8530 C   0  0  0  0  0  2  0  0  0  0  0  0
  189.2800  176.9890  146.1070 C   0  0  0  0  0  2  0  0  0  0  0  0
  190.7370  176.5400  146.0230 C   0  0  2  0  0  3  0  0  0  0  0  0
  185.6030  178.5220  146.2340 C   0  0  1  0  0  3  0  0  0  0  0  0
  187.2150  178.2210  140.8720 C   0  0  0  0  0  0  0  0  0  0  0  0
  184.3330  179.6730  139.0180 N   0  0  0  0  0  1  0  0  0  0  0  0
  187.6070  178.1080  138.4850 C   0  0  0  0  0  3  0  0  0  0  0  0
  185.9830  178.8350  140.6090 C   0  0  0  0  0  3  0  0  0  0  0  0
  186.4000  178.6920  138.2620 N   0  0  0  0  0  0  0  0  0  0  0  0
  185.5870  179.0580  139.2890 C   0  0  0  0  0  0  0  0  0  0  0  0
  188.0380  177.8680  139.7920 C   0  0  0  0  0  3  0  0  0  0  0  0
  191.2970  176.3320  147.4180 C   0  0  0  0  0  2  0  0  0  0  0  0
  192.5670  175.6300  147.3450 N   0  0  0  0  0  1  0  0  0  0  0  0
  1 17  1  0  0  0  0
  2  9  1  0  0  0  0
  2  1  1  1  0  0  0
  3  2  1  0  0  0  0
  4 12  1  0  0  0  0
  6 16  1  0  0  0  0
  7  8  2  0  0  0  0
  8 14  1  0  0  0  0
  8  9  1  0  0  0  0
  9 15  1  0  0  0  0
 10  7  1  0  0  0  0
 10  3  2  0  0  0  0
 12 11  2  0  0  0  0
 12 17  1  0  0  0  0
 13  3  1  0  0  0  0
 13  4  2  0  0  0  0
 14  6  1  0  0  0  0
 16 15  1  0  0  0  0
 16 25  1  1  0  0  0
 17  5  1  1  0  0  0
 18 10  1  0  0  0  0
 19 23  1  0  0  0  0
 20 24  1  0  0  0  0
 21 18  1  0  0  0  0
 22 20  2  0  0  0  0
 22 23  1  0  0  0  0
 23 21  2  0  0  0  0
 24 18  2  0  0  0  0
 26 25  1  0  0  0  0
M  END
>  <MODEL>
5

>  <REMARK>
 VINA RESULT:      -9.3      2.842      5.301
  Name = 
  2 active torsions:
  status: ('A' for Active; 'I' for Inactive)
    1  A    between atoms: C_1  and  C_18
    2  A    between atoms: C_16  and  C_25
                            x       y       z     vdW  Elec       q    Type
                         _______ _______ _______ _____ _____    ______ ____

>  <TORSDO>
F 2

$$$$
=
 OpenBabel10232410003D

 26 29  0  0  1  0  0  0  0  0999 V2000
  185.1260  177.7300  142.2170 C   0  0  0  0  0  2  0  0  0  0  0  0
  186.3630  178.5470  142.5190 C   0  0  1  0  0  3  0  0  0  0  0  0
  186.7230  178.3960  143.9780 C   0  0  0  0  0  0  0  0  0  0  0  0
  184.4690  179.1090  144.9230 C   0  0  0  0  0  3  0  0  0  0  0  0
  182.8630  178.1100  141.6410 O   0  0  0  0  0  1  0  0  0  0  0  0
  189.0700  176.9320  139.6250 C   0  0  0  0  0  2  0  0  0  0  0  0
  188.7520  177.1770  143.3280 C   0  0  0  0  0  3  0  0  0  0  0  0
  188.5430  177.3670  142.0310 C   0  0  0  0  0  0  0  0  0  0  0  0
  187.4490  178.1980  141.5950 N   0  0  0  0  0  0  0  0  0  0  0  0
  187.8580  177.7520  144.3500 C   0  0  0  0  0  0  0  0  0  0  0  0
  182.2990  178.8780  144.0930 O   0  0  0  0  0  0  0  0  0  0  0  0
  183.5280  178.8370  143.8160 C   0  0  0  0  0  0  0  0  0  0  0  0
  185.7920  178.9220  145.0010 C   0  0  0  0  0  3  0  0  0  0  0  0
  189.5660  176.8520  141.0620 C   0  0  0  0  0  2  0  0  0  0  0  0
  187.2480  178.5150  140.1770 C   0  0  0  0  0  2  0  0  0  0  0  0
  188.5200  178.3200  139.3550 C   0  0  2  0  0  3  0  0  0  0  0  0
  183.9270  178.6350  142.3770 C   0  0  1  0  0  3  0  0  0  0  0  0
  188.2640  177.5670  145.7680 C   0  0  0  0  0  0  0  0  0  0  0  0
  191.3650  176.9960  147.7450 N   0  0  0  0  0  1  0  0  0  0  0  0
  187.7560  177.5210  148.1340 C   0  0  0  0  0  3  0  0  0  0  0  0
  189.6130  177.3560  146.0850 C   0  0  0  0  0  3  0  0  0  0  0  0
  189.0690  177.3030  148.4100 N   0  0  0  0  0  0  0  0  0  0  0  0
  189.9980  177.2200  147.4200 C   0  0  0  0  0  0  0  0  0  0  0  0
  187.3320  177.6640  146.8110 C   0  0  0  0  0  3  0  0  0  0  0  0
  188.2080  178.4610  137.8760 C   0  0  0  0  0  2  0  0  0  0  0  0
  188.9300  179.5930  137.3210 N   0  0  0  0  0  1  0  0  0  0  0  0
  1 17  1  0  0  0  0
  2  1  1  6  0  0  0
  2  3  1  0  0  0  0
  3 10  2  0  0  0  0
  3 13  1  0  0  0  0
  4 13  2  0  0  0  0
  6 14  1  0  0  0  0
  7 10  1  0  0  0  0
  8  7  2  0  0  0  0
  9  8  1  0  0  0  0
  9  2  1  0  0  0  0
 10 18  1  0  0  0  0
 12 11  2  0  0  0  0
 12  4  1  0  0  0  0
 14  8  1  0  0  0  0
 15  9  1  0  0  0  0
 16 25  1  6  0  0  0
 16  6  1  0  0  0  0
 16 15  1  0  0  0  0
 17  5  1  6  0  0  0
 17 12  1  0  0  0  0
 18 21  2  0  0  0  0
 18 24  1  0  0  0  0
 20 22  1  0  0  0  0
 21 23  1  0  0  0  0
 23 19  1  0  0  0  0
 23 22  2  0  0  0  0
 24 20  2  0  0  0  0
 26 25  1  0  0  0  0
M  END
>  <MODEL>
6

>  <REMARK>
 VINA RESULT:      -9.1      3.373      5.435
  Name = 
  2 active torsions:
  status: ('A' for Active; 'I' for Inactive)
    1  A    between atoms: C_1  and  C_18
    2  A    between atoms: C_16  and  C_25
                            x       y       z     vdW  Elec       q    Type
                         _______ _______ _______ _____ _____    ______ ____

>  <TORSDO>
F 2

$$$$
=
 OpenBabel10232410003D

 26 29  0  0  1  0  0  0  0  0999 V2000
  188.7930  176.4720  143.2340 C   0  0  0  0  0  2  0  0  0  0  0  0
  188.2480  177.8680  143.4390 C   0  0  1  0  0  3  0  0  0  0  0  0
  187.2270  178.1730  142.3680 C   0  0  0  0  0  0  0  0  0  0  0  0
  188.7230  177.6730  140.3690 C   0  0  0  0  0  3  0  0  0  0  0  0
  190.8320  175.4530  142.5990 O   0  0  0  0  0  1  0  0  0  0  0  0
  186.8660  177.5650  147.4770 C   0  0  0  0  0  2  0  0  0  0  0  0
  185.4680  178.1790  144.0800 C   0  0  0  0  0  3  0  0  0  0  0  0
  186.3300  178.0150  145.0760 C   0  0  0  0  0  0  0  0  0  0  0  0
  187.7460  178.0290  144.8080 N   0  0  0  0  0  0  0  0  0  0  0  0
  185.9150  178.3250  142.6820 C   0  0  0  0  0  0  0  0  0  0  0  0
  190.4820  176.1630  140.0910 O   0  0  0  0  0  0  0  0  0  0  0  0
  189.7450  176.7590  140.9220 C   0  0  0  0  0  0  0  0  0  0  0  0
  187.6720  178.2570  140.9590 C   0  0  0  0  0  3  0  0  0  0  0  0
  185.8010  177.9990  146.4790 C   0  0  0  0  0  2  0  0  0  0  0  0
  188.7300  177.9550  145.8940 C   0  0  0  0  0  2  0  0  0  0  0  0
  188.1360  178.3610  147.2410 C   0  0  2  0  0  3  0  0  0  0  0  0
  190.0400  176.5840  142.3890 C   0  0  1  0  0  3  0  0  0  0  0  0
  184.8640  178.6190  141.6750 C   0  0  0  0  0  0  0  0  0  0  0  0
  181.1560  178.5110  141.3780 N   0  0  0  0  0  1  0  0  0  0  0  0
  184.1680  179.4630  139.5150 C   0  0  0  0  0  3  0  0  0  0  0  0
  183.5150  178.4150  141.9950 C   0  0  0  0  0  3  0  0  0  0  0  0
  182.8690  179.2390  139.8480 N   0  0  0  0  0  0  0  0  0  0  0  0
  182.5250  178.7270  141.0600 C   0  0  0  0  0  0  0  0  0  0  0  0
  185.1860  179.1630  140.4230 C   0  0  0  0  0  3  0  0  0  0  0  0
  189.1270  178.0720  148.3530 C   0  0  0  0  0  2  0  0  0  0  0  0
  190.2380  177.2890  147.8380 N   0  0  0  0  0  1  0  0  0  0  0  0
  2  1  1  1  0  0  0
  2  9  1  0  0  0  0
  3 10  2  0  0  0  0
  3  2  1  0  0  0  0
  4 12  1  0  0  0  0
  4 13  2  0  0  0  0
  7  8  2  0  0  0  0
  8 14  1  0  0  0  0
  9  8  1  0  0  0  0
  9 15  1  0  0  0  0
 10  7  1  0  0  0  0
 11 12  2  0  0  0  0
 12 17  1  0  0  0  0
 13  3  1  0  0  0  0
 14  6  1  0  0  0  0
 15 16  1  0  0  0  0
 16  6  1  0  0  0  0
 16 25  1  1  0  0  0
 17  5  1  6  0  0  0
 17  1  1  0  0  0  0
 18 21  1  0  0  0  0
 18 10  1  0  0  0  0
 20 22  2  0  0  0  0
 20 24  1  0  0  0  0
 22 23  1  0  0  0  0
 23 19  1  0  0  0  0
 23 21  2  0  0  0  0
 24 18  2  0  0  0  0
 26 25  1  0  0  0  0
M  END
>  <MODEL>
7

>  <REMARK>
 VINA RESULT:      -9.1      2.533      5.226
  Name = 
  2 active torsions:
  status: ('A' for Active; 'I' for Inactive)
    1  A    between atoms: C_1  and  C_18
    2  A    between atoms: C_16  and  C_25
                            x       y       z     vdW  Elec       q    Type
                         _______ _______ _______ _____ _____    ______ ____

>  <TORSDO>
F 2

$$$$
=
 OpenBabel10232410003D

 26 29  0  0  1  0  0  0  0  0999 V2000
  188.1680  178.6030  141.6690 C   0  0  0  0  0  2  0  0  0  0  0  0
  187.7860  177.4760  142.6030 C   0  0  1  0  0  3  0  0  0  0  0  0
  189.0090  177.0120  143.3590 C   0  0  0  0  0  0  0  0  0  0  0  0
  190.4650  176.5390  141.3250 C   0  0  0  0  0  3  0  0  0  0  0  0
  188.3490  178.9730  139.3390 O   0  0  0  0  0  1  0  0  0  0  0  0
  184.6600  179.3590  144.8370 C   0  0  0  0  0  2  0  0  0  0  0  0
  188.0310  177.8920  145.4320 C   0  0  0  0  0  3  0  0  0  0  0  0
  186.8910  178.2280  144.8430 C   0  0  0  0  0  0  0  0  0  0  0  0
  186.6670  177.8760  143.4630 N   0  0  0  0  0  0  0  0  0  0  0  0
  189.1130  177.2080  144.6990 C   0  0  0  0  0  0  0  0  0  0  0  0
  190.5460  177.5330  139.2140 O   0  0  0  0  0  0  0  0  0  0  0  0
  189.8740  177.3910  140.2710 C   0  0  0  0  0  0  0  0  0  0  0  0
  190.1170  176.3820  142.6090 C   0  0  0  0  0  3  0  0  0  0  0  0
  185.7970  178.8090  145.6880 C   0  0  0  0  0  2  0  0  0  0  0  0
  185.3800  178.1370  142.8080 C   0  0  0  0  0  2  0  0  0  0  0  0
  184.2450  178.3200  143.8120 C   0  0  2  0  0  3  0  0  0  0  0  0
  188.4950  177.9950  140.3250 C   0  0  1  0  0  3  0  0  0  0  0  0
  190.2910  176.7810  145.4960 C   0  0  0  0  0  0  0  0  0  0  0  0
  191.8330  177.4750  148.8120 N   0  0  0  0  0  1  0  0  0  0  0  0
  192.2350  175.3770  145.8310 C   0  0  0  0  0  3  0  0  0  0  0  0
  190.5130  177.3360  146.7650 C   0  0  0  0  0  3  0  0  0  0  0  0
  192.4330  175.9440  147.0500 N   0  0  0  0  0  0  0  0  0  0  0  0
  191.5990  176.9060  147.5290 C   0  0  0  0  0  0  0  0  0  0  0  0
  191.1590  175.7800  145.0370 C   0  0  0  0  0  3  0  0  0  0  0  0
  182.9910  178.7880  143.0980 C   0  0  0  0  0  2  0  0  0  0  0  0
  181.8660  178.7920  144.0180 N   0  0  0  0  0  1  0  0  0  0  0  0
  2  1  1  1  0  0  0
  2  3  1  0  0  0  0
  2  9  1  0  0  0  0
  3 10  2  0  0  0  0
  4 13  2  0  0  0  0
  6 14  1  0  0  0  0
  8  7  2  0  0  0  0
  8 14  1  0  0  0  0
  9  8  1  0  0  0  0
 10  7  1  0  0  0  0
 10 18  1  0  0  0  0
 11 12  2  0  0  0  0
 12 17  1  0  0  0  0
 12  4  1  0  0  0  0
 13  3  1  0  0  0  0
 15  9  1  0  0  0  0
 15 16  1  0  0  0  0
 16 25  1  6  0  0  0
 16  6  1  0  0  0  0
 17  5  1  6  0  0  0
 17  1  1  0  0  0  0
 18 21  1  0  0  0  0
 20 22  2  0  0  0  0
 21 23  2  0  0  0  0
 22 23  1  0  0  0  0
 23 19  1  0  0  0  0
 24 18  2  0  0  0  0
 24 20  1  0  0  0  0
 25 26  1  0  0  0  0
M  END
>  <MODEL>
8

>  <REMARK>
 VINA RESULT:      -8.9      2.983      7.058
  Name = 
  2 active torsions:
  status: ('A' for Active; 'I' for Inactive)
    1  A    between atoms: C_1  and  C_18
    2  A    between atoms: C_16  and  C_25
                            x       y       z     vdW  Elec       q    Type
                         _______ _______ _______ _____ _____    ______ ____

>  <TORSDO>
F 2

$$$$
=
 OpenBabel10232410003D

 26 29  0  0  1  0  0  0  0  0999 V2000
  188.3250  177.0430  141.0100 C   0  0  0  0  0  2  0  0  0  0  0  0
  187.9090  178.2400  141.8360 C   0  0  1  0  0  3  0  0  0  0  0  0
  186.4290  178.4830  141.6620 C   0  0  0  0  0  0  0  0  0  0  0  0
  186.4430  178.6370  139.1200 C   0  0  0  0  0  3  0  0  0  0  0  0
  189.6350  176.5990  139.0900 O   0  0  0  0  0  1  0  0  0  0  0  0
  189.2830  177.0160  145.7000 C   0  0  0  0  0  2  0  0  0  0  0  0
  186.0710  177.8430  144.0040 C   0  0  0  0  0  3  0  0  0  0  0  0
  187.3690  177.7130  144.2470 C   0  0  0  0  0  0  0  0  0  0  0  0
  188.3280  178.0720  143.2330 N   0  0  0  0  0  0  0  0  0  0  0  0
  185.5680  178.2990  142.6950 C   0  0  0  0  0  0  0  0  0  0  0  0
  187.7840  177.6030  137.5140 O   0  0  0  0  0  0  0  0  0  0  0  0
  187.6580  177.8890  138.7350 C   0  0  0  0  0  0  0  0  0  0  0  0
  185.9220  178.8810  140.3300 C   0  0  0  0  0  3  0  0  0  0  0  0
  187.8010  177.3620  145.6400 C   0  0  0  0  0  2  0  0  0  0  0  0
  189.7700  178.0410  143.4990 C   0  0  0  0  0  2  0  0  0  0  0  0
  190.0840  178.0930  144.9930 C   0  0  2  0  0  3  0  0  0  0  0  0
  188.7930  177.5520  139.6670 C   0  0  1  0  0  3  0  0  0  0  0  0
  184.1030  178.5160  142.5850 C   0  0  0  0  0  0  0  0  0  0  0  0
  181.3840  178.0770  140.0810 N   0  0  0  0  0  1  0  0  0  0  0  0
  181.9650  179.1190  143.5480 C   0  0  0  0  0  3  0  0  0  0  0  0
  183.4410  178.2090  141.3870 C   0  0  0  0  0  3  0  0  0  0  0  0
  181.3540  178.8270  142.3700 N   0  0  0  0  0  0  0  0  0  0  0  0
  182.0580  178.3780  141.2970 C   0  0  0  0  0  0  0  0  0  0  0  0
  183.3470  178.9630  143.6780 C   0  0  0  0  0  3  0  0  0  0  0  0
  191.5650  177.8520  145.2200 C   0  0  0  0  0  2  0  0  0  0  0  0
  191.7550  176.9400  146.3360 N   0  0  0  0  0  1  0  0  0  0  0  0
  2  1  1  6  0  0  0
  2  9  1  0  0  0  0
  3  2  1  0  0  0  0
  3 10  2  0  0  0  0
  4 13  2  0  0  0  0
  7  8  2  0  0  0  0
  8 14  1  0  0  0  0
  9 15  1  0  0  0  0
  9  8  1  0  0  0  0
 10  7  1  0  0  0  0
 11 12  2  0  0  0  0
 12  4  1  0  0  0  0
 12 17  1  0  0  0  0
 13  3  1  0  0  0  0
 14  6  1  0  0  0  0
 15 16  1  0  0  0  0
 16 25  1  6  0  0  0
 16  6  1  0  0  0  0
 17  5  1  6  0  0  0
 17  1  1  0  0  0  0
 18 10  1  0  0  0  0
 18 24  1  0  0  0  0
 19 23  1  0  0  0  0
 20 24  2  0  0  0  0
 21 18  2  0  0  0  0
 22 20  1  0  0  0  0
 23 21  1  0  0  0  0
 23 22  2  0  0  0  0
 25 26  1  0  0  0  0
M  END
>  <MODEL>
9

>  <REMARK>
 VINA RESULT:      -8.4      2.742      4.907
  Name = 
  2 active torsions:
  status: ('A' for Active; 'I' for Inactive)
    1  A    between atoms: C_1  and  C_18
    2  A    between atoms: C_16  and  C_25
                            x       y       z     vdW  Elec       q    Type
                         _______ _______ _______ _____ _____    ______ ____

>  <TORSDO>
F 2

$$$$
