=
 OpenBabel10232410303D

 43 46  0  0  1  0  0  0  0  0999 V2000
  187.2640  175.1000  135.7110 F   0  0  0  0  0  0  0  0  0  0  0  0
  186.4340  176.1500  136.0650 C   0  0  0  0  0  0  0  0  0  0  0  0
  183.7200  175.2830  137.6850 C   0  0  0  0  0  2  0  0  0  0  0  0
  185.7680  178.9750  142.2130 N   0  0  0  0  0  0  0  0  0  0  0  0
  187.7210  178.1550  138.1930 C   0  0  2  0  0  3  0  0  0  0  0  0
  187.1440  178.4520  139.4990 N   0  0  0  0  0  0  0  0  0  0  0  0
  184.1680  174.8450  136.2760 C   0  0  1  0  0  3  0  0  0  0  0  0
  185.8660  178.5060  139.7130 C   0  0  0  0  0  0  0  0  0  0  0  0
  186.3940  176.2910  137.4710 O   0  0  0  0  0  0  0  0  0  0  0  0
  184.9100  179.1040  143.2690 C   0  0  0  0  0  3  0  0  0  0  0  0
  182.3050  177.3890  137.4820 C   0  0  2  0  0  3  0  0  0  0  0  0
  185.0210  175.8810  135.5180 C   0  0  1  0  0  3  0  0  0  0  0  0
  183.5550  179.0060  143.0790 N   0  0  0  0  0  0  0  0  0  0  0  0
  184.3120  177.0730  135.3440 O   0  0  0  0  0  1  0  0  0  0  0  0
  182.3040  175.8670  137.7410 C   0  0  1  0  0  3  0  0  0  0  0  0
  183.0220  178.7830  141.8410 C   0  0  0  0  0  3  0  0  0  0  0  0
  183.8980  178.6890  140.7710 C   0  0  0  0  0  0  0  0  0  0  0  0
  187.6760  176.6530  137.9170 C   0  0  0  0  0  2  0  0  0  0  0  0
  184.8520  178.2370  138.7340 N   0  0  0  0  0  0  0  0  0  0  0  0
  183.7150  178.3410  139.3640 C   0  0  0  0  0  0  0  0  0  0  0  0
  182.4480  178.0780  138.7580 N   0  0  0  0  0  2  0  0  0  0  0  0
  186.9150  177.3090  135.4630 F   0  0  0  0  0  0  0  0  0  0  0  0
  185.2370  178.7960  140.9820 C   0  0  0  0  0  0  0  0  0  0  0  0
  184.8070  173.4810  136.2770 C   0  0  0  0  0  0  0  0  0  0  0  0
  185.1050  172.8040  137.5680 C   0  0  0  0  0  1  0  0  0  0  0  0
  185.0690  172.9080  135.2300 O   0  0  0  0  0  0  0  0  0  0  0  0
  181.0540  177.9040  136.7770 C   0  0  0  0  0  2  0  0  0  0  0  0
  180.9300  179.2800  136.9710 O   0  0  0  0  0  1  0  0  0  0  0  0
  180.9690  173.8110  137.4030 C   0  0  0  0  0  3  0  0  0  0  0  0
  181.3040  175.0300  136.9800 C   0  0  0  0  0  3  0  0  0  0  0  0
  179.9820  172.9900  136.6450 C   0  0  0  0  0  2  0  0  0  0  0  0
  180.3690  171.5280  136.7400 C   0  0  0  0  0  1  0  0  0  0  0  0
  189.1900  179.8160  137.3220 F   0  0  0  0  0  0  0  0  0  0  0  0
  189.1540  178.6780  138.1120 C   0  0  2  0  0  3  0  0  0  0  0  0
  190.0100  177.6640  137.5070 N   0  0  0  0  0  2  0  0  0  0  0  0
  190.9590  176.8990  138.2570 C   0  0  0  0  0  0  0  0  0  0  0  0
  191.2930  177.2650  139.4170 O   0  0  0  0  0  0  0  0  0  0  0  0
  190.6990  174.7110  137.0910 C   0  0  0  0  0  3  0  0  0  0  0  0
  192.9180  175.4380  137.7310 C   0  0  0  0  0  3  0  0  0  0  0  0
  192.6120  173.3080  136.6200 C   0  0  0  0  0  3  0  0  0  0  0  0
  191.2350  173.5350  136.5620 C   0  0  0  0  0  3  0  0  0  0  0  0
  193.4540  174.2580  137.2060 C   0  0  0  0  0  3  0  0  0  0  0  0
  191.5340  175.6740  137.6750 C   0  0  0  0  0  0  0  0  0  0  0  0
  1  2  1  0  0  0  0
  2  9  1  0  0  0  0
  3 15  1  0  0  0  0
  4 10  1  0  0  0  0
  5 34  1  1  0  0  0
  5  6  1  0  0  0  0
  6  8  2  0  0  0  0
  7 24  1  1  0  0  0
  7  3  1  0  0  0  0
  8 23  1  0  0  0  0
  9 18  1  0  0  0  0
 11 27  1  1  0  0  0
 11 15  1  0  0  0  0
 11 21  1  0  0  0  0
 12 14  1  1  0  0  0
 12  2  1  0  0  0  0
 12  7  1  0  0  0  0
 13 10  2  0  0  0  0
 15 30  1  6  0  0  0
 16 13  1  0  0  0  0
 17 23  1  0  0  0  0
 17 16  2  0  0  0  0
 18  5  1  0  0  0  0
 19 20  2  0  0  0  0
 19  8  1  0  0  0  0
 20 17  1  0  0  0  0
 21 20  1  0  0  0  0
 22  2  1  0  0  0  0
 23  4  2  0  0  0  0
 24 25  1  0  0  0  0
 26 24  2  0  0  0  0
 27 28  1  0  0  0  0
 30 29  2  0  0  0  0
 31 32  1  0  0  0  0
 31 29  1  0  0  0  0
 34 33  1  6  0  0  0
 35 34  1  0  0  0  0
 35 36  1  0  0  0  0
 36 37  2  0  0  0  0
 38 43  1  0  0  0  0
 40 42  2  0  0  0  0
 41 40  1  0  0  0  0
 41 38  2  0  0  0  0
 42 39  1  0  0  0  0
 43 39  2  0  0  0  0
 43 36  1  0  0  0  0
M  END
>  <MODEL>
1

>  <REMARK>
 VINA RESULT:      -7.0      0.000      0.000
  Name = 
  7 active torsions:
  status: ('A' for Active; 'I' for Inactive)
    1  A    between atoms: C_5  and  CA_17
    2  A    between atoms: C_6  and  C_37
    3  A    between atoms: C_8  and  C_13
    4  A    between atoms: C_10  and  C_30
    5  A    between atoms: N_16  and  C_37
    6  A    between atoms: C_21  and  C_25
    7  A    between atoms: C_34  and  C_42
                            x       y       z     vdW  Elec       q    Type
                         _______ _______ _______ _____ _____    ______ ____

>  <TORSDO>
F 7

$$$$
=
 OpenBabel10232410303D

 43 46  0  0  1  0  0  0  0  0999 V2000
  188.9570  179.0180  140.1070 F   0  0  0  0  0  0  0  0  0  0  0  0
  188.6020  178.5500  138.8530 C   0  0  0  0  0  0  0  0  0  0  0  0
  189.6290  175.5150  138.1660 C   0  0  0  0  0  2  0  0  0  0  0  0
  183.6460  174.1410  137.3600 N   0  0  0  0  0  0  0  0  0  0  0  0
  185.4560  178.1610  138.4620 C   0  0  2  0  0  3  0  0  0  0  0  0
  184.8190  176.8960  138.1150 N   0  0  0  0  0  0  0  0  0  0  0  0
  190.4810  176.7490  138.5260 C   0  0  1  0  0  3  0  0  0  0  0  0
  185.3680  176.0170  137.3350 C   0  0  0  0  0  0  0  0  0  0  0  0
  187.6960  177.4710  138.9710 O   0  0  0  0  0  0  0  0  0  0  0  0
  183.4120  172.8660  136.9290 C   0  0  0  0  0  3  0  0  0  0  0  0
  189.3280  175.4290  135.6410 C   0  0  2  0  0  3  0  0  0  0  0  0
  189.8700  178.1000  138.1060 C   0  0  1  0  0  3  0  0  0  0  0  0
  184.3350  172.2170  136.1470 N   0  0  0  0  0  0  0  0  0  0  0  0
  189.6830  178.1500  136.7210 O   0  0  0  0  0  1  0  0  0  0  0  0
  190.0460  174.8210  136.8640 C   0  0  1  0  0  3  0  0  0  0  0  0
  185.5050  172.8170  135.7750 C   0  0  0  0  0  3  0  0  0  0  0  0
  185.7170  174.1230  136.1890 C   0  0  0  0  0  0  0  0  0  0  0  0
  186.5090  177.9500  139.5490 C   0  0  0  0  0  2  0  0  0  0  0  0
  186.6750  176.1300  136.7540 N   0  0  0  0  0  0  0  0  0  0  0  0
  186.8650  175.0210  136.0960 C   0  0  0  0  0  0  0  0  0  0  0  0
  188.0850  174.7010  135.4210 N   0  0  0  0  0  2  0  0  0  0  0  0
  188.0330  179.6010  138.1400 F   0  0  0  0  0  0  0  0  0  0  0  0
  184.7860  174.7490  136.9560 C   0  0  0  0  0  0  0  0  0  0  0  0
  190.9090  176.7490  139.9700 C   0  0  0  0  0  0  0  0  0  0  0  0
  192.1430  177.4740  140.3760 C   0  0  0  0  0  1  0  0  0  0  0  0
  190.2470  176.1770  140.8230 O   0  0  0  0  0  0  0  0  0  0  0  0
  190.1520  175.4030  134.3570 C   0  0  0  0  0  2  0  0  0  0  0  0
  191.0510  176.4700  134.3460 O   0  0  0  0  0  1  0  0  0  0  0  0
  192.0600  173.4000  136.6380 C   0  0  0  0  0  3  0  0  0  0  0  0
  191.5390  174.6210  136.7700 C   0  0  0  0  0  3  0  0  0  0  0  0
  193.5360  173.2110  136.5460 C   0  0  0  0  0  2  0  0  0  0  0  0
  194.2170  174.0850  137.5800 C   0  0  0  0  0  1  0  0  0  0  0  0
  184.6350  180.3900  138.2780 F   0  0  0  0  0  0  0  0  0  0  0  0
  184.4090  179.1790  138.9120 C   0  0  2  0  0  3  0  0  0  0  0  0
  184.5140  179.3810  140.3530 N   0  0  0  0  0  2  0  0  0  0  0  0
  183.7590  178.6220  141.3020 C   0  0  0  0  0  0  0  0  0  0  0  0
  182.7660  177.9410  140.9240 O   0  0  0  0  0  0  0  0  0  0  0  0
  185.4330  178.1930  143.0980 C   0  0  0  0  0  3  0  0  0  0  0  0
  183.2430  179.0240  143.7150 C   0  0  0  0  0  3  0  0  0  0  0  0
  184.8940  178.5670  145.4270 C   0  0  0  0  0  3  0  0  0  0  0  0
  185.8040  178.1680  144.4450 C   0  0  0  0  0  3  0  0  0  0  0  0
  183.6130  178.9930  145.0630 C   0  0  0  0  0  3  0  0  0  0  0  0
  184.1530  178.6250  142.7210 C   0  0  0  0  0  0  0  0  0  0  0  0
  2  9  1  0  0  0  0
  2  1  1  0  0  0  0
  3  7  1  0  0  0  0
  5 34  1  1  0  0  0
  5 18  1  0  0  0  0
  6  5  1  0  0  0  0
  7 24  1  1  0  0  0
  8  6  2  0  0  0  0
  9 18  1  0  0  0  0
 10  4  2  0  0  0  0
 11 27  1  6  0  0  0
 11 15  1  0  0  0  0
 12 14  1  6  0  0  0
 12  7  1  0  0  0  0
 12  2  1  0  0  0  0
 13 10  1  0  0  0  0
 15 30  1  6  0  0  0
 15  3  1  0  0  0  0
 16 13  2  0  0  0  0
 16 17  1  0  0  0  0
 17 23  2  0  0  0  0
 19  8  1  0  0  0  0
 20 17  1  0  0  0  0
 20 19  2  0  0  0  0
 21 11  1  0  0  0  0
 21 20  1  0  0  0  0
 22  2  1  0  0  0  0
 23  8  1  0  0  0  0
 23  4  1  0  0  0  0
 24 25  1  0  0  0  0
 24 26  2  0  0  0  0
 28 27  1  0  0  0  0
 29 30  2  0  0  0  0
 31 29  1  0  0  0  0
 31 32  1  0  0  0  0
 34 33  1  6  0  0  0
 34 35  1  0  0  0  0
 35 36  1  0  0  0  0
 36 43  1  0  0  0  0
 37 36  2  0  0  0  0
 38 41  1  0  0  0  0
 39 42  2  0  0  0  0
 41 40  2  0  0  0  0
 42 40  1  0  0  0  0
 43 38  2  0  0  0  0
 43 39  1  0  0  0  0
M  END
>  <MODEL>
2

>  <REMARK>
 VINA RESULT:      -6.8      2.614      8.189
  Name = 
  7 active torsions:
  status: ('A' for Active; 'I' for Inactive)
    1  A    between atoms: C_5  and  CA_17
    2  A    between atoms: C_6  and  C_37
    3  A    between atoms: C_8  and  C_13
    4  A    between atoms: C_10  and  C_30
    5  A    between atoms: N_16  and  C_37
    6  A    between atoms: C_21  and  C_25
    7  A    between atoms: C_34  and  C_42
                            x       y       z     vdW  Elec       q    Type
                         _______ _______ _______ _____ _____    ______ ____

>  <TORSDO>
F 7

$$$$
=
 OpenBabel10232410303D

 43 46  0  0  1  0  0  0  0  0999 V2000
  183.9460  179.2880  138.5110 F   0  0  0  0  0  0  0  0  0  0  0  0
  184.4470  178.0060  138.6600 C   0  0  0  0  0  0  0  0  0  0  0  0
  183.8490  175.9870  136.1480 C   0  0  0  0  0  2  0  0  0  0  0  0
  189.9970  175.3970  135.7230 N   0  0  0  0  0  0  0  0  0  0  0  0
  187.6380  177.8650  138.7210 C   0  0  2  0  0  3  0  0  0  0  0  0
  188.4480  177.0960  137.7830 N   0  0  0  0  0  0  0  0  0  0  0  0
  182.8300  176.7290  137.0370 C   0  0  1  0  0  3  0  0  0  0  0  0
  188.0690  175.9600  137.2860 C   0  0  0  0  0  0  0  0  0  0  0  0
  185.4660  177.7660  137.7090 O   0  0  0  0  0  0  0  0  0  0  0  0
  190.4150  174.5000  134.7810 C   0  0  0  0  0  3  0  0  0  0  0  0
  184.3460  173.7160  137.1830 C   0  0  2  0  0  3  0  0  0  0  0  0
  183.3030  176.9930  138.4800 C   0  0  1  0  0  3  0  0  0  0  0  0
  189.6380  173.4140  134.4630 N   0  0  0  0  0  0  0  0  0  0  0  0
  183.5850  175.7920  139.1360 O   0  0  0  0  0  1  0  0  0  0  0  0
  183.6170  174.4750  136.0530 C   0  0  1  0  0  3  0  0  0  0  0  0
  188.4360  173.1930  135.0720 C   0  0  0  0  0  3  0  0  0  0  0  0
  188.0370  174.0900  136.0520 C   0  0  0  0  0  0  0  0  0  0  0  0
  186.5400  178.6280  137.9820 C   0  0  0  0  0  2  0  0  0  0  0  0
  186.8040  175.3290  137.5380 N   0  0  0  0  0  0  0  0  0  0  0  0
  186.7990  174.2470  136.8100 C   0  0  0  0  0  0  0  0  0  0  0  0
  185.6810  173.3610  136.7200 N   0  0  0  0  0  2  0  0  0  0  0  0
  184.9370  177.8750  139.9550 F   0  0  0  0  0  0  0  0  0  0  0  0
  188.8260  175.1540  136.3560 C   0  0  0  0  0  0  0  0  0  0  0  0
  182.2990  177.9760  136.3800 C   0  0  0  0  0  0  0  0  0  0  0  0
  182.6060  178.2480  134.9500 C   0  0  0  0  0  1  0  0  0  0  0  0
  181.5980  178.7640  136.9980 O   0  0  0  0  0  0  0  0  0  0  0  0
  183.6300  172.4530  137.6500 C   0  0  0  0  0  2  0  0  0  0  0  0
  183.8100  171.4300  136.7170 O   0  0  0  0  0  1  0  0  0  0  0  0
  181.6320  174.2780  134.5890 C   0  0  0  0  0  3  0  0  0  0  0  0
  182.1700  174.1270  135.7990 C   0  0  0  0  0  3  0  0  0  0  0  0
  180.2020  173.9340  134.3460 C   0  0  0  0  0  2  0  0  0  0  0  0
  179.9820  172.4660  134.6500 C   0  0  0  0  0  1  0  0  0  0  0  0
  189.8440  178.6500  139.1600 F   0  0  0  0  0  0  0  0  0  0  0  0
  188.5180  178.8230  139.5230 C   0  0  2  0  0  3  0  0  0  0  0  0
  188.3830  178.5340  140.9460 N   0  0  0  0  0  2  0  0  0  0  0  0
  189.0360  177.4310  141.5820 C   0  0  0  0  0  0  0  0  0  0  0  0
  189.5280  176.5000  140.8860 O   0  0  0  0  0  0  0  0  0  0  0  0
  188.0240  177.0800  143.8320 C   0  0  0  0  0  3  0  0  0  0  0  0
  190.3600  177.7000  143.6840 C   0  0  0  0  0  3  0  0  0  0  0  0
  189.3250  177.3750  145.8500 C   0  0  0  0  0  3  0  0  0  0  0  0
  188.1130  177.0670  145.2260 C   0  0  0  0  0  3  0  0  0  0  0  0
  190.4480  177.6930  145.0800 C   0  0  0  0  0  3  0  0  0  0  0  0
  189.1450  177.3910  143.0500 C   0  0  0  0  0  0  0  0  0  0  0  0
  1  2  1  0  0  0  0
  2 22  1  0  0  0  0
  3  7  1  0  0  0  0
  4 23  1  0  0  0  0
  5 34  1  6  0  0  0
  6  5  1  0  0  0  0
  7 24  1  6  0  0  0
  7 12  1  0  0  0  0
  8 19  1  0  0  0  0
  8  6  2  0  0  0  0
  9 18  1  0  0  0  0
  9  2  1  0  0  0  0
 10  4  2  0  0  0  0
 11 27  1  6  0  0  0
 12  2  1  0  0  0  0
 12 14  1  6  0  0  0
 13 10  1  0  0  0  0
 13 16  2  0  0  0  0
 15 30  1  1  0  0  0
 15  3  1  0  0  0  0
 15 11  1  0  0  0  0
 16 17  1  0  0  0  0
 17 23  2  0  0  0  0
 17 20  1  0  0  0  0
 18  5  1  0  0  0  0
 20 19  2  0  0  0  0
 21 20  1  0  0  0  0
 21 11  1  0  0  0  0
 23  8  1  0  0  0  0
 24 26  2  0  0  0  0
 25 24  1  0  0  0  0
 28 27  1  0  0  0  0
 29 30  2  0  0  0  0
 31 29  1  0  0  0  0
 31 32  1  0  0  0  0
 34 33  1  6  0  0  0
 34 35  1  0  0  0  0
 35 36  1  0  0  0  0
 36 43  1  0  0  0  0
 37 36  2  0  0  0  0
 38 41  1  0  0  0  0
 39 42  2  0  0  0  0
 41 40  2  0  0  0  0
 42 40  1  0  0  0  0
 43 39  1  0  0  0  0
 43 38  2  0  0  0  0
M  END
>  <MODEL>
3

>  <REMARK>
 VINA RESULT:      -5.5      3.041      5.974
  Name = 
  7 active torsions:
  status: ('A' for Active; 'I' for Inactive)
    1  A    between atoms: C_5  and  CA_17
    2  A    between atoms: C_6  and  C_37
    3  A    between atoms: C_8  and  C_13
    4  A    between atoms: C_10  and  C_30
    5  A    between atoms: N_16  and  C_37
    6  A    between atoms: C_21  and  C_25
    7  A    between atoms: C_34  and  C_42
                            x       y       z     vdW  Elec       q    Type
                         _______ _______ _______ _____ _____    ______ ____

>  <TORSDO>
F 7

$$$$
=
 OpenBabel10232410303D

 43 46  0  0  1  0  0  0  0  0999 V2000
  187.7440  178.3850  138.8780 F   0  0  0  0  0  0  0  0  0  0  0  0
  188.3020  177.1190  138.8170 C   0  0  0  0  0  0  0  0  0  0  0  0
  188.6340  175.8970  135.7950 C   0  0  0  0  0  2  0  0  0  0  0  0
  194.6770  175.5150  137.0820 N   0  0  0  0  0  0  0  0  0  0  0  0
  191.3430  176.9990  139.7890 C   0  0  2  0  0  3  0  0  0  0  0  0
  192.4540  176.5380  138.9640 N   0  0  0  0  0  0  0  0  0  0  0  0
  187.3390  176.3430  136.5040 C   0  0  1  0  0  3  0  0  0  0  0  0
  192.3400  175.5870  138.0900 C   0  0  0  0  0  0  0  0  0  0  0  0
  189.5660  177.1710  138.1860 O   0  0  0  0  0  0  0  0  0  0  0  0
  195.4280  174.9280  136.1030 C   0  0  0  0  0  3  0  0  0  0  0  0
  189.0290  173.4290  136.2780 C   0  0  2  0  0  3  0  0  0  0  0  0
  187.3560  176.1890  138.0370 C   0  0  1  0  0  3  0  0  0  0  0  0
  194.8790  173.9700  135.2860 N   0  0  0  0  0  0  0  0  0  0  0  0
  187.5530  174.8530  138.3980 O   0  0  0  0  0  1  0  0  0  0  0  0
  188.5820  174.4720  135.2310 C   0  0  1  0  0  3  0  0  0  0  0  0
  193.5800  173.5720  135.4260 C   0  0  0  0  0  3  0  0  0  0  0  0
  192.8370  174.1480  136.4450 C   0  0  0  0  0  0  0  0  0  0  0  0
  190.4320  177.9300  138.9890 C   0  0  0  0  0  2  0  0  0  0  0  0
  191.1220  174.8980  137.7720 N   0  0  0  0  0  0  0  0  0  0  0  0
  191.4250  174.0690  136.8120 C   0  0  0  0  0  0  0  0  0  0  0  0
  190.4680  173.2350  136.1570 N   0  0  0  0  0  2  0  0  0  0  0  0
  188.4140  176.6290  140.1140 F   0  0  0  0  0  0  0  0  0  0  0  0
  193.4030  175.0890  137.2460 C   0  0  0  0  0  0  0  0  0  0  0  0
  186.9000  177.7200  136.0810 C   0  0  0  0  0  0  0  0  0  0  0  0
  185.5720  178.2370  136.5080 C   0  0  0  0  0  1  0  0  0  0  0  0
  187.6270  178.4330  135.4060 O   0  0  0  0  0  0  0  0  0  0  0  0
  188.3330  172.0780  136.1500 C   0  0  0  0  0  2  0  0  0  0  0  0
  187.6820  171.7630  137.3450 O   0  0  0  0  0  1  0  0  0  0  0  0
  186.1330  174.1400  135.1030 C   0  0  0  0  0  3  0  0  0  0  0  0
  187.3060  174.1970  134.4720 C   0  0  0  0  0  3  0  0  0  0  0  0
  184.8780  173.8660  134.3460 C   0  0  0  0  0  2  0  0  0  0  0  0
  183.7900  174.8060  134.8260 C   0  0  0  0  0  1  0  0  0  0  0  0
  192.8590  176.9270  141.6250 F   0  0  0  0  0  0  0  0  0  0  0  0
  191.8640  177.6970  141.0440 C   0  0  2  0  0  3  0  0  0  0  0  0
  190.7770  177.8530  142.0030 N   0  0  0  0  0  2  0  0  0  0  0  0
  190.3190  176.7860  142.8410 C   0  0  0  0  0  0  0  0  0  0  0  0
  190.6470  175.5950  142.5860 O   0  0  0  0  0  0  0  0  0  0  0  0
  190.0300  177.0900  145.2970 C   0  0  0  0  0  3  0  0  0  0  0  0
  188.1010  177.3320  143.8550 C   0  0  0  0  0  3  0  0  0  0  0  0
  187.8640  177.5910  146.2510 C   0  0  0  0  0  3  0  0  0  0  0  0
  189.2300  177.3460  146.4130 C   0  0  0  0  0  3  0  0  0  0  0  0
  187.2980  177.5820  144.9730 C   0  0  0  0  0  3  0  0  0  0  0  0
  189.4750  177.0850  144.0100 C   0  0  0  0  0  0  0  0  0  0  0  0
  2  1  1  0  0  0  0
  2 22  1  0  0  0  0
  3  7  1  0  0  0  0
  4 23  1  0  0  0  0
  5 34  1  1  0  0  0
  6  5  1  0  0  0  0
  7 24  1  1  0  0  0
  7 12  1  0  0  0  0
  8  6  2  0  0  0  0
  9  2  1  0  0  0  0
  9 18  1  0  0  0  0
 10  4  2  0  0  0  0
 11 27  1  6  0  0  0
 12 14  1  6  0  0  0
 12  2  1  0  0  0  0
 13 16  2  0  0  0  0
 13 10  1  0  0  0  0
 15 30  1  1  0  0  0
 15  3  1  0  0  0  0
 15 11  1  0  0  0  0
 16 17  1  0  0  0  0
 17 20  1  0  0  0  0
 17 23  2  0  0  0  0
 18  5  1  0  0  0  0
 19  8  1  0  0  0  0
 20 19  2  0  0  0  0
 21 11  1  0  0  0  0
 21 20  1  0  0  0  0
 23  8  1  0  0  0  0
 24 25  1  0  0  0  0
 26 24  2  0  0  0  0
 27 28  1  0  0  0  0
 30 29  2  0  0  0  0
 31 32  1  0  0  0  0
 31 29  1  0  0  0  0
 34 33  1  1  0  0  0
 34 35  1  0  0  0  0
 35 36  1  0  0  0  0
 36 43  1  0  0  0  0
 37 36  2  0  0  0  0
 38 41  1  0  0  0  0
 39 43  1  0  0  0  0
 39 42  2  0  0  0  0
 40 41  2  0  0  0  0
 42 40  1  0  0  0  0
 43 38  2  0  0  0  0
M  END
>  <MODEL>
4

>  <REMARK>
 VINA RESULT:      -5.2      3.781      7.731
  Name = 
  7 active torsions:
  status: ('A' for Active; 'I' for Inactive)
    1  A    between atoms: C_5  and  CA_17
    2  A    between atoms: C_6  and  C_37
    3  A    between atoms: C_8  and  C_13
    4  A    between atoms: C_10  and  C_30
    5  A    between atoms: N_16  and  C_37
    6  A    between atoms: C_21  and  C_25
    7  A    between atoms: C_34  and  C_42
                            x       y       z     vdW  Elec       q    Type
                         _______ _______ _______ _____ _____    ______ ____

>  <TORSDO>
F 7

$$$$
=
 OpenBabel10232410303D

 43 46  0  0  1  0  0  0  0  0999 V2000
  184.5850  177.7760  136.8940 F   0  0  0  0  0  0  0  0  0  0  0  0
  185.1600  178.4300  137.9710 C   0  0  0  0  0  0  0  0  0  0  0  0
  184.2780  177.2880  140.9130 C   0  0  0  0  0  2  0  0  0  0  0  0
  190.3100  176.2440  141.8340 N   0  0  0  0  0  0  0  0  0  0  0  0
  188.3260  178.0550  138.1690 C   0  0  2  0  0  3  0  0  0  0  0  0
  189.0170  177.4760  139.3160 N   0  0  0  0  0  0  0  0  0  0  0  0
  183.3740  177.8690  139.8080 C   0  0  1  0  0  3  0  0  0  0  0  0
  188.6180  177.6370  140.5390 C   0  0  0  0  0  0  0  0  0  0  0  0
  186.0320  177.5580  138.6630 O   0  0  0  0  0  0  0  0  0  0  0  0
  190.6200  175.7820  143.0820 C   0  0  0  0  0  3  0  0  0  0  0  0
  185.0270  179.1780  142.4440 C   0  0  2  0  0  3  0  0  0  0  0  0
  184.0480  178.9260  138.9110 C   0  0  1  0  0  3  0  0  0  0  0  0
  189.8530  176.1360  144.1640 N   0  0  0  0  0  0  0  0  0  0  0  0
  184.4790  180.0170  139.6700 O   0  0  0  0  0  1  0  0  0  0  0  0
  184.1020  177.9520  142.2840 C   0  0  1  0  0  3  0  0  0  0  0  0
  188.7680  176.9560  144.0330 C   0  0  0  0  0  3  0  0  0  0  0  0
  188.4830  177.4470  142.7680 C   0  0  0  0  0  0  0  0  0  0  0  0
  187.0960  177.2240  137.8090 C   0  0  0  0  0  2  0  0  0  0  0  0
  187.4360  178.3480  140.9360 N   0  0  0  0  0  0  0  0  0  0  0  0
  187.3680  178.2250  142.2320 C   0  0  0  0  0  0  0  0  0  0  0  0
  186.2900  178.7350  143.0190 N   0  0  0  0  0  2  0  0  0  0  0  0
  185.8460  179.5410  137.4920 F   0  0  0  0  0  0  0  0  0  0  0  0
  189.2610  177.0890  141.7120 C   0  0  0  0  0  0  0  0  0  0  0  0
  182.6930  176.7950  139.0000 C   0  0  0  0  0  0  0  0  0  0  0  0
  181.3850  177.0760  138.3490 C   0  0  0  0  0  1  0  0  0  0  0  0
  183.2080  175.6980  138.8510 O   0  0  0  0  0  0  0  0  0  0  0  0
  184.4470  180.2880  143.3150 C   0  0  0  0  0  2  0  0  0  0  0  0
  184.6440  179.9880  144.6640 O   0  0  0  0  0  1  0  0  0  0  0  0
  181.8700  178.9880  142.0210 C   0  0  0  0  0  3  0  0  0  0  0  0
  182.6500  178.1180  142.6630 C   0  0  0  0  0  3  0  0  0  0  0  0
  180.4370  179.1470  142.4020 C   0  0  0  0  0  2  0  0  0  0  0  0
  180.1880  178.4350  143.7170 C   0  0  0  0  0  1  0  0  0  0  0  0
  188.6290  177.7320  135.8290 F   0  0  0  0  0  0  0  0  0  0  0  0
  189.2740  178.1650  136.9760 C   0  0  2  0  0  3  0  0  0  0  0  0
  190.4410  177.3200  137.2010 N   0  0  0  0  0  2  0  0  0  0  0  0
  190.6330  176.0660  136.5380 C   0  0  0  0  0  0  0  0  0  0  0  0
  189.6680  175.5080  135.9460 O   0  0  0  0  0  0  0  0  0  0  0  0
  192.1130  174.1040  136.9510 C   0  0  0  0  0  3  0  0  0  0  0  0
  193.1010  176.1670  136.1570 C   0  0  0  0  0  3  0  0  0  0  0  0
  194.5030  174.2420  136.5980 C   0  0  0  0  0  3  0  0  0  0  0  0
  193.3760  173.5080  136.9780 C   0  0  0  0  0  3  0  0  0  0  0  0
  194.3660  175.5720  136.1890 C   0  0  0  0  0  3  0  0  0  0  0  0
  191.9640  175.4350  136.5370 C   0  0  0  0  0  0  0  0  0  0  0  0
  1  2  1  0  0  0  0
  2  9  1  0  0  0  0
  2 12  1  0  0  0  0
  3 15  1  0  0  0  0
  4 10  1  0  0  0  0
  5 34  1  6  0  0  0
  5  6  1  0  0  0  0
  6  8  2  0  0  0  0
  7 24  1  6  0  0  0
  7  3  1  0  0  0  0
  8 19  1  0  0  0  0
  8 23  1  0  0  0  0
 10 13  2  0  0  0  0
 11 21  1  0  0  0  0
 11 27  1  1  0  0  0
 12 14  1  1  0  0  0
 12  7  1  0  0  0  0
 15 11  1  0  0  0  0
 15 30  1  6  0  0  0
 16 13  1  0  0  0  0
 17 16  2  0  0  0  0
 18  5  1  0  0  0  0
 18  9  1  0  0  0  0
 19 20  2  0  0  0  0
 20 17  1  0  0  0  0
 20 21  1  0  0  0  0
 22  2  1  0  0  0  0
 23  4  2  0  0  0  0
 23 17  1  0  0  0  0
 25 24  1  0  0  0  0
 26 24  2  0  0  0  0
 27 28  1  0  0  0  0
 29 31  1  0  0  0  0
 29 30  2  0  0  0  0
 31 32  1  0  0  0  0
 34 33  1  6  0  0  0
 34 35  1  0  0  0  0
 36 35  1  0  0  0  0
 37 36  2  0  0  0  0
 38 41  1  0  0  0  0
 39 42  2  0  0  0  0
 39 43  1  0  0  0  0
 40 41  2  0  0  0  0
 42 40  1  0  0  0  0
 43 36  1  0  0  0  0
 43 38  2  0  0  0  0
M  END
>  <MODEL>
5

>  <REMARK>
 VINA RESULT:      -5.0      2.800      4.828
  Name = 
  7 active torsions:
  status: ('A' for Active; 'I' for Inactive)
    1  A    between atoms: C_5  and  CA_17
    2  A    between atoms: C_6  and  C_37
    3  A    between atoms: C_8  and  C_13
    4  A    between atoms: C_10  and  C_30
    5  A    between atoms: N_16  and  C_37
    6  A    between atoms: C_21  and  C_25
    7  A    between atoms: C_34  and  C_42
                            x       y       z     vdW  Elec       q    Type
                         _______ _______ _______ _____ _____    ______ ____

>  <TORSDO>
F 7

$$$$
=
 OpenBabel10232410303D

 43 46  0  0  1  0  0  0  0  0999 V2000
  184.6290  177.7770  136.9210 F   0  0  0  0  0  0  0  0  0  0  0  0
  185.1880  178.4310  138.0060 C   0  0  0  0  0  0  0  0  0  0  0  0
  184.2680  177.2880  140.9360 C   0  0  0  0  0  2  0  0  0  0  0  0
  190.2890  176.2520  141.9380 N   0  0  0  0  0  0  0  0  0  0  0  0
  188.3520  178.0610  138.2470 C   0  0  2  0  0  3  0  0  0  0  0  0
  189.0280  177.4820  139.4020 N   0  0  0  0  0  0  0  0  0  0  0  0
  183.3780  177.8690  139.8190 C   0  0  1  0  0  3  0  0  0  0  0  0
  188.6130  177.6430  140.6200 C   0  0  0  0  0  0  0  0  0  0  0  0
  186.0520  177.5610  138.7100 O   0  0  0  0  0  0  0  0  0  0  0  0
  190.5820  175.7900  143.1900 C   0  0  0  0  0  3  0  0  0  0  0  0
  184.9940  179.1790  142.4780 C   0  0  2  0  0  3  0  0  0  0  0  0
  184.0630  178.9260  138.9310 C   0  0  1  0  0  3  0  0  0  0  0  0
  189.8010  176.1430  144.2620 N   0  0  0  0  0  0  0  0  0  0  0  0
  184.4820  180.0180  139.6970 O   0  0  0  0  0  1  0  0  0  0  0  0
  184.0730  177.9520  142.3040 C   0  0  1  0  0  3  0  0  0  0  0  0
  188.7170  176.9620  144.1160 C   0  0  0  0  0  3  0  0  0  0  0  0
  188.4480  177.4530  142.8470 C   0  0  0  0  0  0  0  0  0  0  0  0
  187.1270  177.2280  137.8710 C   0  0  0  0  0  2  0  0  0  0  0  0
  187.4250  178.3520  141.0010 N   0  0  0  0  0  0  0  0  0  0  0  0
  187.3400  178.2290  142.2960 C   0  0  0  0  0  0  0  0  0  0  0  0
  186.2500  178.7380  143.0690 N   0  0  0  0  0  2  0  0  0  0  0  0
  185.8790  179.5440  137.5370 F   0  0  0  0  0  0  0  0  0  0  0  0
  189.2400  177.0960  141.8020 C   0  0  0  0  0  0  0  0  0  0  0  0
  182.7100  176.7940  139.0020 C   0  0  0  0  0  0  0  0  0  0  0  0
  181.5420  177.1340  138.1460 C   0  0  0  0  0  1  0  0  0  0  0  0
  183.1250  175.6450  139.0130 O   0  0  0  0  0  0  0  0  0  0  0  0
  184.4010  180.2880  143.3410 C   0  0  0  0  0  2  0  0  0  0  0  0
  184.4680  179.9310  144.6880 O   0  0  0  0  0  1  0  0  0  0  0  0
  181.8060  178.8660  141.9160 C   0  0  0  0  0  3  0  0  0  0  0  0
  182.6160  178.1160  142.6640 C   0  0  0  0  0  3  0  0  0  0  0  0
  180.3680  179.0240  142.2780 C   0  0  0  0  0  2  0  0  0  0  0  0
  180.1770  178.6580  143.7360 C   0  0  0  0  0  1  0  0  0  0  0  0
  188.9140  179.2050  136.2350 F   0  0  0  0  0  0  0  0  0  0  0  0
  189.3150  178.1720  137.0670 C   0  0  2  0  0  3  0  0  0  0  0  0
  189.2990  176.9290  136.3050 N   0  0  0  0  0  2  0  0  0  0  0  0
  190.3370  175.9470  136.3950 C   0  0  0  0  0  0  0  0  0  0  0  0
  191.4450  176.2440  136.9210 O   0  0  0  0  0  0  0  0  0  0  0  0
  191.1870  173.7410  135.6070 C   0  0  0  0  0  3  0  0  0  0  0  0
  188.7980  174.1310  135.6340 C   0  0  0  0  0  3  0  0  0  0  0  0
  189.6730  172.0120  134.8520 C   0  0  0  0  0  3  0  0  0  0  0  0
  190.9740  172.4580  135.0970 C   0  0  0  0  0  3  0  0  0  0  0  0
  188.5850  172.8480  135.1190 C   0  0  0  0  0  3  0  0  0  0  0  0
  190.1030  174.5860  135.8840 C   0  0  0  0  0  0  0  0  0  0  0  0
  1  2  1  0  0  0  0
  2  9  1  0  0  0  0
  2 12  1  0  0  0  0
  3 15  1  0  0  0  0
  4 10  1  0  0  0  0
  5 34  1  6  0  0  0
  5  6  1  0  0  0  0
  6  8  2  0  0  0  0
  7 24  1  6  0  0  0
  7  3  1  0  0  0  0
  8 19  1  0  0  0  0
  8 23  1  0  0  0  0
 10 13  2  0  0  0  0
 11 21  1  0  0  0  0
 11 27  1  1  0  0  0
 12 14  1  1  0  0  0
 12  7  1  0  0  0  0
 15 11  1  0  0  0  0
 15 30  1  6  0  0  0
 16 13  1  0  0  0  0
 17 16  2  0  0  0  0
 18  5  1  0  0  0  0
 18  9  1  0  0  0  0
 19 20  2  0  0  0  0
 20 17  1  0  0  0  0
 20 21  1  0  0  0  0
 22  2  1  0  0  0  0
 23  4  2  0  0  0  0
 23 17  1  0  0  0  0
 24 26  2  0  0  0  0
 25 24  1  0  0  0  0
 27 28  1  0  0  0  0
 29 31  1  0  0  0  0
 29 30  2  0  0  0  0
 31 32  1  0  0  0  0
 34 33  1  6  0  0  0
 35 36  1  0  0  0  0
 35 34  1  0  0  0  0
 36 37  2  0  0  0  0
 38 43  1  0  0  0  0
 39 43  2  0  0  0  0
 40 41  1  0  0  0  0
 40 42  2  0  0  0  0
 41 38  2  0  0  0  0
 42 39  1  0  0  0  0
 43 36  1  0  0  0  0
M  END
>  <MODEL>
6

>  <REMARK>
 VINA RESULT:      -4.9      2.866      4.934
  Name = 
  7 active torsions:
  status: ('A' for Active; 'I' for Inactive)
    1  A    between atoms: C_5  and  CA_17
    2  A    between atoms: C_6  and  C_37
    3  A    between atoms: C_8  and  C_13
    4  A    between atoms: C_10  and  C_30
    5  A    between atoms: N_16  and  C_37
    6  A    between atoms: C_21  and  C_25
    7  A    between atoms: C_34  and  C_42
                            x       y       z     vdW  Elec       q    Type
                         _______ _______ _______ _____ _____    ______ ____

>  <TORSDO>
F 7

$$$$
=
 OpenBabel10232410303D

 43 46  0  0  1  0  0  0  0  0999 V2000
  185.4550  179.2320  140.1270 F   0  0  0  0  0  0  0  0  0  0  0  0
  185.4450  178.6700  138.8610 C   0  0  0  0  0  0  0  0  0  0  0  0
  187.7460  176.3960  138.3390 C   0  0  0  0  0  2  0  0  0  0  0  0
  183.0510  172.5550  137.1000 N   0  0  0  0  0  0  0  0  0  0  0  0
  182.8270  176.9490  138.2330 C   0  0  2  0  0  3  0  0  0  0  0  0
  182.8370  175.5360  137.8710 N   0  0  0  0  0  0  0  0  0  0  0  0
  187.9410  177.8740  138.7320 C   0  0  1  0  0  3  0  0  0  0  0  0
  183.7770  174.9940  137.1610 C   0  0  0  0  0  0  0  0  0  0  0  0
  185.0940  177.3020  138.9360 O   0  0  0  0  0  0  0  0  0  0  0  0
  183.4340  171.3100  136.6850 C   0  0  0  0  0  3  0  0  0  0  0  0
  187.7230  176.2130  135.8010 C   0  0  2  0  0  3  0  0  0  0  0  0
  186.8390  178.8270  138.2290 C   0  0  1  0  0  3  0  0  0  0  0  0
  184.6090  171.1370  135.9970 N   0  0  0  0  0  0  0  0  0  0  0  0
  186.7650  178.8050  136.8330 O   0  0  0  0  0  1  0  0  0  0  0  0
  188.5300  175.9670  137.0930 C   0  0  1  0  0  3  0  0  0  0  0  0
  185.4250  172.1920  135.7020 C   0  0  0  0  0  3  0  0  0  0  0  0
  185.0120  173.4550  136.0970 C   0  0  0  0  0  0  0  0  0  0  0  0
  183.7730  177.2080  139.4050 C   0  0  0  0  0  2  0  0  0  0  0  0
  184.9470  175.6730  136.6810 N   0  0  0  0  0  0  0  0  0  0  0  0
  185.6570  174.7660  136.0700 C   0  0  0  0  0  0  0  0  0  0  0  0
  186.9440  175.0180  135.5030 N   0  0  0  0  0  2  0  0  0  0  0  0
  184.5350  179.3730  138.0780 F   0  0  0  0  0  0  0  0  0  0  0  0
  183.8400  173.6040  136.7710 C   0  0  0  0  0  0  0  0  0  0  0  0
  188.2050  178.0450  140.2050 C   0  0  0  0  0  0  0  0  0  0  0  0
  189.0130  177.0320  140.9340 C   0  0  0  0  0  1  0  0  0  0  0  0
  187.7820  179.0180  140.8110 O   0  0  0  0  0  0  0  0  0  0  0  0
  188.5780  176.5630  134.5870 C   0  0  0  0  0  2  0  0  0  0  0  0
  188.5240  177.9370  134.3460 O   0  0  0  0  0  1  0  0  0  0  0  0
  190.9020  175.7450  137.7650 C   0  0  0  0  0  3  0  0  0  0  0  0
  189.9630  176.4410  137.1230 C   0  0  0  0  0  3  0  0  0  0  0  0
  192.3150  176.2200  137.7900 C   0  0  0  0  0  2  0  0  0  0  0  0
  192.5750  176.9440  139.0950 C   0  0  0  0  0  1  0  0  0  0  0  0
  180.5130  176.3870  138.2760 F   0  0  0  0  0  0  0  0  0  0  0  0
  181.4080  177.4020  138.5710 C   0  0  2  0  0  3  0  0  0  0  0  0
  181.0660  178.5720  137.7700 N   0  0  0  0  0  2  0  0  0  0  0  0
  180.9150  179.8810  138.3280 C   0  0  0  0  0  0  0  0  0  0  0  0
  180.7950  180.0280  139.5750 O   0  0  0  0  0  0  0  0  0  0  0  0
  181.1090  182.3400  137.9750 C   0  0  0  0  0  3  0  0  0  0  0  0
  180.6830  180.9160  136.0650 C   0  0  0  0  0  3  0  0  0  0  0  0
  180.8530  183.3140  135.7760 C   0  0  0  0  0  3  0  0  0  0  0  0
  181.0830  183.4640  137.1460 C   0  0  0  0  0  3  0  0  0  0  0  0
  180.6510  182.0410  135.2350 C   0  0  0  0  0  3  0  0  0  0  0  0
  180.9140  181.0580  137.4430 C   0  0  0  0  0  0  0  0  0  0  0  0
  2  9  1  0  0  0  0
  2  1  1  0  0  0  0
  3  7  1  0  0  0  0
  5 34  1  1  0  0  0
  5 18  1  0  0  0  0
  6  5  1  0  0  0  0
  7 24  1  1  0  0  0
  8  6  2  0  0  0  0
  9 18  1  0  0  0  0
 10  4  2  0  0  0  0
 11 27  1  6  0  0  0
 11 15  1  0  0  0  0
 12 14  1  6  0  0  0
 12  7  1  0  0  0  0
 12  2  1  0  0  0  0
 13 10  1  0  0  0  0
 15 30  1  6  0  0  0
 15  3  1  0  0  0  0
 16 13  2  0  0  0  0
 16 17  1  0  0  0  0
 17 23  2  0  0  0  0
 19  8  1  0  0  0  0
 20 17  1  0  0  0  0
 20 19  2  0  0  0  0
 21 11  1  0  0  0  0
 21 20  1  0  0  0  0
 22  2  1  0  0  0  0
 23  4  1  0  0  0  0
 23  8  1  0  0  0  0
 24 26  2  0  0  0  0
 24 25  1  0  0  0  0
 28 27  1  0  0  0  0
 29 31  1  0  0  0  0
 30 29  2  0  0  0  0
 31 32  1  0  0  0  0
 34 33  1  6  0  0  0
 35 36  1  0  0  0  0
 35 34  1  0  0  0  0
 36 37  2  0  0  0  0
 39 43  2  0  0  0  0
 40 41  1  0  0  0  0
 41 38  2  0  0  0  0
 42 40  2  0  0  0  0
 42 39  1  0  0  0  0
 43 38  1  0  0  0  0
 43 36  1  0  0  0  0
M  END
>  <MODEL>
7

>  <REMARK>
 VINA RESULT:      -4.8      3.254      8.771
  Name = 
  7 active torsions:
  status: ('A' for Active; 'I' for Inactive)
    1  A    between atoms: C_5  and  CA_17
    2  A    between atoms: C_6  and  C_37
    3  A    between atoms: C_8  and  C_13
    4  A    between atoms: C_10  and  C_30
    5  A    between atoms: N_16  and  C_37
    6  A    between atoms: C_21  and  C_25
    7  A    between atoms: C_34  and  C_42
                            x       y       z     vdW  Elec       q    Type
                         _______ _______ _______ _____ _____    ______ ____

>  <TORSDO>
F 7

$$$$
=
 OpenBabel10232410303D

 43 46  0  0  1  0  0  0  0  0999 V2000
  182.7920  179.0010  141.3590 F   0  0  0  0  0  0  0  0  0  0  0  0
  183.6180  178.8740  140.2550 C   0  0  0  0  0  0  0  0  0  0  0  0
  186.5120  177.4550  140.8450 C   0  0  0  0  0  2  0  0  0  0  0  0
  184.8110  173.2400  136.6410 N   0  0  0  0  0  0  0  0  0  0  0  0
  182.4870  176.8940  138.0180 C   0  0  2  0  0  3  0  0  0  0  0  0
  183.1840  175.7040  137.5410 N   0  0  0  0  0  0  0  0  0  0  0  0
  185.9370  178.7410  141.4720 C   0  0  1  0  0  3  0  0  0  0  0  0
  184.4750  175.6360  137.4330 C   0  0  0  0  0  0  0  0  0  0  0  0
  183.7960  177.5090  139.9310 O   0  0  0  0  0  0  0  0  0  0  0  0
  185.7680  172.3060  136.3580 C   0  0  0  0  0  3  0  0  0  0  0  0
  187.8250  178.0720  138.7550 C   0  0  2  0  0  3  0  0  0  0  0  0
  184.9750  179.5300  140.5620 C   0  0  1  0  0  3  0  0  0  0  0  0
  187.1000  172.6250  136.4510 N   0  0  0  0  0  0  0  0  0  0  0  0
  185.6210  179.9270  139.3880 O   0  0  0  0  0  1  0  0  0  0  0  0
  187.9050  177.6240  140.2290 C   0  0  1  0  0  3  0  0  0  0  0  0
  187.5110  173.8740  136.8220 C   0  0  0  0  0  3  0  0  0  0  0  0
  186.5330  174.8250  137.0730 C   0  0  0  0  0  0  0  0  0  0  0  0
  182.5550  176.9800  139.5420 C   0  0  0  0  0  2  0  0  0  0  0  0
  185.3920  176.6750  137.8060 N   0  0  0  0  0  0  0  0  0  0  0  0
  186.5820  176.1880  137.5960 C   0  0  0  0  0  0  0  0  0  0  0  0
  187.7890  176.8870  137.9080 N   0  0  0  0  0  2  0  0  0  0  0  0
  183.0380  179.5640  139.1940 F   0  0  0  0  0  0  0  0  0  0  0  0
  185.2200  174.4880  136.9670 C   0  0  0  0  0  0  0  0  0  0  0  0
  185.3490  178.4990  142.8380 C   0  0  0  0  0  0  0  0  0  0  0  0
  184.8560  179.6480  143.6450 C   0  0  0  0  0  1  0  0  0  0  0  0
  185.2510  177.3690  143.2910 O   0  0  0  0  0  0  0  0  0  0  0  0
  188.9780  178.9660  138.3090 C   0  0  0  0  0  2  0  0  0  0  0  0
  188.5350  179.8670  137.3390 O   0  0  0  0  0  1  0  0  0  0  0  0
  189.4150  177.7740  142.1850 C   0  0  0  0  0  3  0  0  0  0  0  0
  188.8500  178.3740  141.1370 C   0  0  0  0  0  3  0  0  0  0  0  0
  190.3460  178.5220  143.0770 C   0  0  0  0  0  2  0  0  0  0  0  0
  190.0360  178.1820  144.5210 C   0  0  0  0  0  1  0  0  0  0  0  0
  180.8200  175.7890  136.7230 F   0  0  0  0  0  0  0  0  0  0  0  0
  181.0360  176.8870  137.5400 C   0  0  2  0  0  3  0  0  0  0  0  0
  180.7710  178.0980  136.7710 N   0  0  0  0  0  2  0  0  0  0  0  0
  180.4030  179.3410  137.3780 C   0  0  0  0  0  0  0  0  0  0  0  0
  180.0200  179.3700  138.5800 O   0  0  0  0  0  0  0  0  0  0  0  0
  180.4430  180.5510  135.2000 C   0  0  0  0  0  3  0  0  0  0  0  0
  180.6520  181.8250  137.2490 C   0  0  0  0  0  3  0  0  0  0  0  0
  180.7120  182.9540  135.1080 C   0  0  0  0  0  3  0  0  0  0  0  0
  180.5500  181.7290  134.4550 C   0  0  0  0  0  3  0  0  0  0  0  0
  180.7650  183.0030  136.5030 C   0  0  0  0  0  3  0  0  0  0  0  0
  180.4880  180.5890  136.6010 C   0  0  0  0  0  0  0  0  0  0  0  0
  2 12  1  0  0  0  0
  2  1  1  0  0  0  0
  3  7  1  0  0  0  0
  4 23  1  0  0  0  0
  5 34  1  1  0  0  0
  5 18  1  0  0  0  0
  6  5  1  0  0  0  0
  7 24  1  1  0  0  0
  8  6  2  0  0  0  0
  8 19  1  0  0  0  0
  9  2  1  0  0  0  0
 10 13  1  0  0  0  0
 10  4  2  0  0  0  0
 11 27  1  6  0  0  0
 11 15  1  0  0  0  0
 12 14  1  6  0  0  0
 12  7  1  0  0  0  0
 13 16  2  0  0  0  0
 15  3  1  0  0  0  0
 15 30  1  1  0  0  0
 16 17  1  0  0  0  0
 17 20  1  0  0  0  0
 18  9  1  0  0  0  0
 20 19  2  0  0  0  0
 20 21  1  0  0  0  0
 21 11  1  0  0  0  0
 22  2  1  0  0  0  0
 23 17  2  0  0  0  0
 23  8  1  0  0  0  0
 24 26  2  0  0  0  0
 24 25  1  0  0  0  0
 28 27  1  0  0  0  0
 29 31  1  0  0  0  0
 30 29  2  0  0  0  0
 31 32  1  0  0  0  0
 34 33  1  6  0  0  0
 35 36  1  0  0  0  0
 35 34  1  0  0  0  0
 36 37  2  0  0  0  0
 38 43  1  0  0  0  0
 40 42  2  0  0  0  0
 41 40  1  0  0  0  0
 41 38  2  0  0  0  0
 42 39  1  0  0  0  0
 43 39  2  0  0  0  0
 43 36  1  0  0  0  0
M  END
>  <MODEL>
8

>  <REMARK>
 VINA RESULT:      -4.7      3.517      8.985
  Name = 
  7 active torsions:
  status: ('A' for Active; 'I' for Inactive)
    1  A    between atoms: C_5  and  CA_17
    2  A    between atoms: C_6  and  C_37
    3  A    between atoms: C_8  and  C_13
    4  A    between atoms: C_10  and  C_30
    5  A    between atoms: N_16  and  C_37
    6  A    between atoms: C_21  and  C_25
    7  A    between atoms: C_34  and  C_42
                            x       y       z     vdW  Elec       q    Type
                         _______ _______ _______ _____ _____    ______ ____

>  <TORSDO>
F 7

$$$$
=
 OpenBabel10232410303D

 43 46  0  0  1  0  0  0  0  0999 V2000
  186.0170  178.5100  138.9750 F   0  0  0  0  0  0  0  0  0  0  0  0
  186.4390  177.9990  137.7580 C   0  0  0  0  0  0  0  0  0  0  0  0
  189.0150  175.9800  137.9230 C   0  0  0  0  0  2  0  0  0  0  0  0
  185.3190  171.7570  135.3090 N   0  0  0  0  0  0  0  0  0  0  0  0
  184.3170  176.0610  136.3650 C   0  0  2  0  0  3  0  0  0  0  0  0
  184.5790  174.6710  136.0090 N   0  0  0  0  0  0  0  0  0  0  0  0
  188.9310  177.4530  138.3700 C   0  0  1  0  0  3  0  0  0  0  0  0
  185.7380  174.2500  135.6060 C   0  0  0  0  0  0  0  0  0  0  0  0
  186.2250  176.6020  137.7130 O   0  0  0  0  0  0  0  0  0  0  0  0
  185.9340  170.5720  135.0150 C   0  0  0  0  0  3  0  0  0  0  0  0
  189.7600  175.8970  135.4910 C   0  0  2  0  0  3  0  0  0  0  0  0
  187.9330  178.3150  137.5700 C   0  0  1  0  0  3  0  0  0  0  0  0
  187.2710  170.5410  134.7060 N   0  0  0  0  0  0  0  0  0  0  0  0
  188.2770  178.3410  136.2160 O   0  0  0  0  0  1  0  0  0  0  0  0
  190.1710  175.6790  136.9630 C   0  0  1  0  0  3  0  0  0  0  0  0
  188.0240  171.6800  134.6780 C   0  0  0  0  0  3  0  0  0  0  0  0
  187.3830  172.8810  134.9430 C   0  0  0  0  0  0  0  0  0  0  0  0
  184.8430  176.3630  137.7670 C   0  0  0  0  0  2  0  0  0  0  0  0
  186.9200  175.0570  135.5020 N   0  0  0  0  0  0  0  0  0  0  0  0
  187.8680  174.2470  135.1210 C   0  0  0  0  0  0  0  0  0  0  0  0
  189.2320  174.6450  134.9650 N   0  0  0  0  0  2  0  0  0  0  0  0
  185.7330  178.6420  136.7460 F   0  0  0  0  0  0  0  0  0  0  0  0
  186.0570  172.8890  135.2390 C   0  0  0  0  0  0  0  0  0  0  0  0
  188.7300  177.5910  139.8560 C   0  0  0  0  0  0  0  0  0  0  0  0
  189.5940  176.8250  140.7940 C   0  0  0  0  0  1  0  0  0  0  0  0
  187.8780  178.3400  140.3100 O   0  0  0  0  0  0  0  0  0  0  0  0
  190.8940  176.3750  134.5900 C   0  0  0  0  0  2  0  0  0  0  0  0
  191.7870  175.3290  134.3510 O   0  0  0  0  0  1  0  0  0  0  0  0
  192.3760  175.5580  138.0820 C   0  0  0  0  0  3  0  0  0  0  0  0
  191.4750  176.2860  137.4210 C   0  0  0  0  0  3  0  0  0  0  0  0
  193.6600  176.1660  138.5320 C   0  0  0  0  0  2  0  0  0  0  0  0
  193.3790  177.1750  139.6280 C   0  0  0  0  0  1  0  0  0  0  0  0
  182.5640  177.0800  135.1140 F   0  0  0  0  0  0  0  0  0  0  0  0
  182.8220  176.3610  136.2700 C   0  0  2  0  0  3  0  0  0  0  0  0
  182.4120  177.1630  137.4180 N   0  0  0  0  0  2  0  0  0  0  0  0
  181.7930  176.6020  138.5790 C   0  0  0  0  0  0  0  0  0  0  0  0
  181.3210  175.4320  138.5420 O   0  0  0  0  0  0  0  0  0  0  0  0
  182.8830  177.9550  140.3660 C   0  0  0  0  0  3  0  0  0  0  0  0
  180.5000  177.5460  140.4990 C   0  0  0  0  0  3  0  0  0  0  0  0
  181.6090  178.8330  142.2250 C   0  0  0  0  0  3  0  0  0  0  0  0
  182.8270  178.6780  141.5600 C   0  0  0  0  0  3  0  0  0  0  0  0
  180.4460  178.2660  141.6970 C   0  0  0  0  0  3  0  0  0  0  0  0
  181.7220  177.3870  139.8230 C   0  0  0  0  0  0  0  0  0  0  0  0
  2  1  1  0  0  0  0
  3  7  1  0  0  0  0
  5 34  1  1  0  0  0
  5 18  1  0  0  0  0
  6  5  1  0  0  0  0
  7 24  1  1  0  0  0
  8  6  2  0  0  0  0
  9  2  1  0  0  0  0
  9 18  1  0  0  0  0
 10  4  2  0  0  0  0
 11 27  1  6  0  0  0
 11 15  1  0  0  0  0
 12 14  1  6  0  0  0
 12  2  1  0  0  0  0
 12  7  1  0  0  0  0
 13 10  1  0  0  0  0
 15 30  1  1  0  0  0
 15  3  1  0  0  0  0
 16 13  2  0  0  0  0
 16 17  1  0  0  0  0
 17 20  1  0  0  0  0
 17 23  2  0  0  0  0
 19  8  1  0  0  0  0
 20 19  2  0  0  0  0
 21 20  1  0  0  0  0
 21 11  1  0  0  0  0
 22  2  1  0  0  0  0
 23  4  1  0  0  0  0
 23  8  1  0  0  0  0
 24 26  2  0  0  0  0
 24 25  1  0  0  0  0
 28 27  1  0  0  0  0
 29 31  1  0  0  0  0
 30 29  2  0  0  0  0
 31 32  1  0  0  0  0
 34 33  1  6  0  0  0
 34 35  1  0  0  0  0
 35 36  1  0  0  0  0
 36 43  1  0  0  0  0
 37 36  2  0  0  0  0
 38 41  1  0  0  0  0
 39 42  2  0  0  0  0
 41 40  2  0  0  0  0
 42 40  1  0  0  0  0
 43 38  2  0  0  0  0
 43 39  1  0  0  0  0
M  END
>  <MODEL>
9

>  <REMARK>
 VINA RESULT:      -4.6      3.097      8.942
  Name = 
  7 active torsions:
  status: ('A' for Active; 'I' for Inactive)
    1  A    between atoms: C_5  and  CA_17
    2  A    between atoms: C_6  and  C_37
    3  A    between atoms: C_8  and  C_13
    4  A    between atoms: C_10  and  C_30
    5  A    between atoms: N_16  and  C_37
    6  A    between atoms: C_21  and  C_25
    7  A    between atoms: C_34  and  C_42
                            x       y       z     vdW  Elec       q    Type
                         _______ _______ _______ _____ _____    ______ ____

>  <TORSDO>
F 7

$$$$
