=
 OpenBabel10232412363D

 37 41  0  0  1  0  0  0  0  0999 V2000
  187.5010  178.0290  147.0420 C   0  0  0  0  0  0  0  0  0  0  0  0
  188.5980  177.7910  148.0130 C   0  0  0  0  0  1  0  0  0  0  0  0
  185.2690  178.8370  146.5910 N   0  0  0  0  0  0  0  0  0  0  0  0
  186.5980  177.9160  144.8340 C   0  0  0  0  0  0  0  0  0  0  0  0
  184.5320  178.6150  144.3030 N   0  0  0  0  0  0  0  0  0  0  0  0
  187.6640  177.6710  145.6930 C   0  0  0  0  0  3  0  0  0  0  0  0
  186.2910  178.6180  147.4730 C   0  0  0  0  0  3  0  0  0  0  0  0
  185.4330  178.4760  145.2930 C   0  0  0  0  0  0  0  0  0  0  0  0
  186.4230  177.6960  143.4810 C   0  0  0  0  0  0  0  0  0  0  0  0
  183.2200  179.2370  144.4240 C   0  0  0  0  0  1  0  0  0  0  0  0
  185.1430  178.1380  143.1830 C   0  0  0  0  0  0  0  0  0  0  0  0
  184.5940  178.1040  141.8980 O   0  0  0  0  0  0  0  0  0  0  0  0
  184.7290  179.1680  140.9690 C   0  0  0  0  0  2  0  0  0  0  0  0
  183.8050  178.9230  139.7910 C   0  0  0  0  0  2  0  0  0  0  0  0
  184.5430  178.2540  138.6860 C   0  0  0  0  0  0  0  0  0  0  0  0
  186.1550  177.2660  137.1470 C   0  0  0  0  0  0  0  0  0  0  0  0
  183.9420  177.7650  137.5760 N   0  0  0  0  0  0  0  0  0  0  0  0
  186.2060  178.0020  138.6650 S   0  0  0  0  0  0  0  0  0  0  0  0
  184.8350  177.2110  136.7120 C   0  0  0  0  0  3  0  0  0  0  0  0
  189.1560  177.4080  134.6960 C   0  0  0  0  0  2  0  0  0  0  0  0
  187.3220  176.7010  136.3990 C   0  0  1  0  0  3  0  0  0  0  0  0
  189.1470  175.9010  134.4180 C   0  0  0  0  0  2  0  0  0  0  0  0
  186.8620  175.7910  135.2890 C   0  0  0  0  0  3  0  0  0  0  0  0
  187.7320  175.4050  134.3490 C   0  0  0  0  0  3  0  0  0  0  0  0
  188.2570  177.8170  135.8830 C   0  0  1  0  0  3  0  0  0  0  0  0
  189.0760  178.3990  136.9950 C   0  0  0  0  0  0  0  0  0  0  0  0
  189.9680  177.5150  137.7920 C   0  0  0  0  0  1  0  0  0  0  0  0
  189.0130  179.5900  137.2550 O   0  0  0  0  0  0  0  0  0  0  0  0
  187.3090  177.1200  142.5650 O   0  0  0  0  0  0  0  0  0  0  0  0
  188.1790  177.8860  141.7450 C   0  0  0  0  0  2  0  0  0  0  0  0
  189.5340  177.1970  141.6250 C   0  0  0  0  0  2  0  0  0  0  0  0
  190.2630  177.2440  142.8840 N   0  0  0  0  0  0  0  0  0  0  0  0
  190.9830  176.0430  143.3160 C   0  0  0  0  0  2  0  0  0  0  0  0
  191.5030  176.1700  144.7250 C   0  0  0  0  0  3  0  0  0  0  0  0
  191.6080  177.3550  145.3300 C   0  0  0  0  0  3  0  0  0  0  0  0
  191.1530  178.5840  144.6650 C   0  0  0  0  0  3  0  0  0  0  0  0
  190.5110  178.5160  143.5010 C   0  0  0  0  0  3  0  0  0  0  0  0
  1  7  1  0  0  0  0
  1  2  1  0  0  0  0
  3  7  2  0  0  0  0
  4  8  2  0  0  0  0
  4  6  1  0  0  0  0
  5 10  1  0  0  0  0
  5  8  1  0  0  0  0
  6  1  2  0  0  0  0
  8  3  1  0  0  0  0
  9  4  1  0  0  0  0
 11  9  2  0  0  0  0
 11  5  1  0  0  0  0
 12 11  1  0  0  0  0
 13 12  1  0  0  0  0
 14 13  1  0  0  0  0
 15 14  1  0  0  0  0
 16 18  1  0  0  0  0
 17 15  2  0  0  0  0
 18 15  1  0  0  0  0
 19 16  2  0  0  0  0
 19 17  1  0  0  0  0
 20 25  1  0  0  0  0
 21 16  1  6  0  0  0
 22 20  1  0  0  0  0
 23 21  1  0  0  0  0
 24 22  1  0  0  0  0
 24 23  2  0  0  0  0
 25 21  1  0  0  0  0
 25 26  1  1  0  0  0
 26 28  2  0  0  0  0
 26 27  1  0  0  0  0
 29  9  1  0  0  0  0
 30 29  1  0  0  0  0
 31 30  1  0  0  0  0
 31 32  1  0  0  0  0
 32 33  1  0  0  0  0
 32 37  1  0  0  0  0
 33 34  1  0  0  0  0
 34 35  2  0  0  0  0
 36 35  1  0  0  0  0
 37 36  2  0  0  0  0
M  END
>  <MODEL>
1

>  <REMARK>
 VINA RESULT:      -8.5      0.000      0.000
  Name = 
  10 active torsions:
  status: ('A' for Active; 'I' for Inactive)
    1  A    between atoms: C_3  and  C_26
    2  A    between atoms: O_4  and  C_18
    3  A    between atoms: O_4  and  C_37
    4  A    between atoms: C_5  and  C_13
    5  A    between atoms: N_8  and  C_23
    6  A    between atoms: C_9  and  C_34
    7  A    between atoms: C_18  and  C_26
    8  A    between atoms: C_19  and  C_23
    9  A    between atoms: C_19  and  O_36
   10  A    between atoms: C_32  and  O_36
                            x       y       z     vdW  Elec       q    Type
                         _______ _______ _______ _____ _____    ______ ____

>  <TORSDO>
F 10

$$$$
=
 OpenBabel10232412363D

 37 41  0  0  1  0  0  0  0  0999 V2000
  183.7620  175.7490  135.8580 C   0  0  0  0  0  0  0  0  0  0  0  0
  182.3380  175.4150  135.5980 C   0  0  0  0  0  1  0  0  0  0  0  0
  186.1030  175.2660  135.5070 N   0  0  0  0  0  0  0  0  0  0  0  0
  185.4400  177.0960  136.8910 C   0  0  0  0  0  0  0  0  0  0  0  0
  187.6420  176.7290  136.6550 N   0  0  0  0  0  0  0  0  0  0  0  0
  184.0900  176.8370  136.6840 C   0  0  0  0  0  3  0  0  0  0  0  0
  184.7870  174.9740  135.2710 C   0  0  0  0  0  3  0  0  0  0  0  0
  186.4080  176.3120  136.3160 C   0  0  0  0  0  0  0  0  0  0  0  0
  186.1010  178.0620  137.6260 C   0  0  0  0  0  0  0  0  0  0  0  0
  188.8970  176.1690  136.1670 C   0  0  0  0  0  1  0  0  0  0  0  0
  187.4550  177.8110  137.4590 C   0  0  0  0  0  0  0  0  0  0  0  0
  188.4610  178.5930  138.0350 O   0  0  0  0  0  0  0  0  0  0  0  0
  188.7490  178.5870  139.4250 C   0  0  0  0  0  2  0  0  0  0  0  0
  189.3090  177.2320  139.8120 C   0  0  0  0  0  2  0  0  0  0  0  0
  189.4040  177.1150  141.2930 C   0  0  0  0  0  0  0  0  0  0  0  0
  189.3150  177.3590  143.7160 C   0  0  0  0  0  0  0  0  0  0  0  0
  190.0430  176.1020  141.9220 N   0  0  0  0  0  0  0  0  0  0  0  0
  188.7310  178.2080  142.3800 S   0  0  0  0  0  0  0  0  0  0  0  0
  189.9970  176.2300  143.2760 C   0  0  0  0  0  3  0  0  0  0  0  0
  189.2040  176.6580  147.5280 C   0  0  0  0  0  2  0  0  0  0  0  0
  189.0960  177.7140  145.1540 C   0  0  1  0  0  3  0  0  0  0  0  0
  188.2350  177.8070  147.8270 C   0  0  0  0  0  2  0  0  0  0  0  0
  187.6280  177.8620  145.4560 C   0  0  0  0  0  3  0  0  0  0  0  0
  187.2180  177.9120  146.7290 C   0  0  0  0  0  3  0  0  0  0  0  0
  189.7830  176.7020  146.0970 C   0  0  1  0  0  3  0  0  0  0  0  0
  191.2670  176.9060  146.1290 C   0  0  0  0  0  0  0  0  0  0  0  0
  192.1380  175.8780  146.7630 C   0  0  0  0  0  1  0  0  0  0  0  0
  191.7680  177.9080  145.6460 O   0  0  0  0  0  0  0  0  0  0  0  0
  185.5640  179.0830  138.4170 O   0  0  0  0  0  0  0  0  0  0  0  0
  184.6700  178.8370  139.4920 C   0  0  0  0  0  2  0  0  0  0  0  0
  185.4200  178.8720  140.8200 C   0  0  0  0  0  2  0  0  0  0  0  0
  184.4990  178.8930  141.9450 N   0  0  0  0  0  0  0  0  0  0  0  0
  184.9880  179.3860  143.2360 C   0  0  0  0  0  2  0  0  0  0  0  0
  183.9980  179.1470  144.3460 C   0  0  0  0  0  3  0  0  0  0  0  0
  182.7160  178.8720  144.0970 C   0  0  0  0  0  3  0  0  0  0  0  0
  182.2320  178.7220  142.7170 C   0  0  0  0  0  3  0  0  0  0  0  0
  183.0940  178.7310  141.7020 C   0  0  0  0  0  3  0  0  0  0  0  0
  1  6  1  0  0  0  0
  2  1  1  0  0  0  0
  3  8  2  0  0  0  0
  4  9  1  0  0  0  0
  5 11  1  0  0  0  0
  6  4  2  0  0  0  0
  7  3  1  0  0  0  0
  7  1  2  0  0  0  0
  8  5  1  0  0  0  0
  8  4  1  0  0  0  0
  9 29  1  0  0  0  0
 10  5  1  0  0  0  0
 11  9  2  0  0  0  0
 11 12  1  0  0  0  0
 12 13  1  0  0  0  0
 13 14  1  0  0  0  0
 14 15  1  0  0  0  0
 15 17  2  0  0  0  0
 15 18  1  0  0  0  0
 17 19  1  0  0  0  0
 18 16  1  0  0  0  0
 19 16  2  0  0  0  0
 20 22  1  0  0  0  0
 21 16  1  6  0  0  0
 21 23  1  0  0  0  0
 21 25  1  0  0  0  0
 23 24  2  0  0  0  0
 24 22  1  0  0  0  0
 25 26  1  1  0  0  0
 25 20  1  0  0  0  0
 26 27  1  0  0  0  0
 28 26  2  0  0  0  0
 29 30  1  0  0  0  0
 30 31  1  0  0  0  0
 31 32  1  0  0  0  0
 32 33  1  0  0  0  0
 33 34  1  0  0  0  0
 35 34  2  0  0  0  0
 36 35  1  0  0  0  0
 37 32  1  0  0  0  0
 37 36  2  0  0  0  0
M  END
>  <MODEL>
2

>  <REMARK>
 VINA RESULT:      -8.4      2.148      8.949
  Name = 
  10 active torsions:
  status: ('A' for Active; 'I' for Inactive)
    1  A    between atoms: C_3  and  C_26
    2  A    between atoms: O_4  and  C_18
    3  A    between atoms: O_4  and  C_37
    4  A    between atoms: C_5  and  C_13
    5  A    between atoms: N_8  and  C_23
    6  A    between atoms: C_9  and  C_34
    7  A    between atoms: C_18  and  C_26
    8  A    between atoms: C_19  and  C_23
    9  A    between atoms: C_19  and  O_36
   10  A    between atoms: C_32  and  O_36
                            x       y       z     vdW  Elec       q    Type
                         _______ _______ _______ _____ _____    ______ ____

>  <TORSDO>
F 10

$$$$
=
 OpenBabel10232412363D

 37 41  0  0  1  0  0  0  0  0999 V2000
  187.3320  178.1040  146.9510 C   0  0  0  0  0  0  0  0  0  0  0  0
  188.4050  177.8930  147.9550 C   0  0  0  0  0  1  0  0  0  0  0  0
  185.0840  178.8240  146.4380 N   0  0  0  0  0  0  0  0  0  0  0  0
  186.5130  178.0000  144.7110 C   0  0  0  0  0  0  0  0  0  0  0  0
  184.4380  178.6210  144.1210 N   0  0  0  0  0  0  0  0  0  0  0  0
  187.5580  177.7830  145.6020 C   0  0  0  0  0  3  0  0  0  0  0  0
  186.0840  178.6300  147.3520 C   0  0  0  0  0  3  0  0  0  0  0  0
  185.3090  178.4990  145.1390 C   0  0  0  0  0  0  0  0  0  0  0  0
  186.3950  177.8030  143.3480 C   0  0  0  0  0  0  0  0  0  0  0  0
  183.0950  179.1820  144.2080 C   0  0  0  0  0  1  0  0  0  0  0  0
  185.1070  178.1960  143.0140 C   0  0  0  0  0  0  0  0  0  0  0  0
  184.6050  178.1660  141.7100 O   0  0  0  0  0  0  0  0  0  0  0  0
  184.8330  179.2020  140.7670 C   0  0  0  0  0  2  0  0  0  0  0  0
  183.8490  179.0620  139.6230 C   0  0  0  0  0  2  0  0  0  0  0  0
  184.4560  178.2850  138.5090 C   0  0  0  0  0  0  0  0  0  0  0  0
  185.8840  177.1430  136.8970 C   0  0  0  0  0  0  0  0  0  0  0  0
  183.7340  177.6990  137.5260 N   0  0  0  0  0  0  0  0  0  0  0  0
  186.1060  178.0200  138.3220 S   0  0  0  0  0  0  0  0  0  0  0  0
  184.5240  177.0580  136.6230 C   0  0  0  0  0  3  0  0  0  0  0  0
  188.9620  174.8590  136.3110 C   0  0  0  0  0  2  0  0  0  0  0  0
  186.9590  176.5010  136.0770 C   0  0  1  0  0  3  0  0  0  0  0  0
  189.4090  175.5930  135.0430 C   0  0  0  0  0  2  0  0  0  0  0  0
  188.0230  177.5000  135.7040 C   0  0  0  0  0  3  0  0  0  0  0  0
  189.1870  177.0680  135.2050 C   0  0  0  0  0  3  0  0  0  0  0  0
  187.5490  175.2640  136.7880 C   0  0  1  0  0  3  0  0  0  0  0  0
  186.6110  174.0970  136.7230 C   0  0  0  0  0  0  0  0  0  0  0  0
  186.0180  173.7020  135.4160 C   0  0  0  0  0  1  0  0  0  0  0  0
  186.3250  173.4720  137.7310 O   0  0  0  0  0  0  0  0  0  0  0  0
  187.3360  177.2870  142.4520 O   0  0  0  0  0  0  0  0  0  0  0  0
  188.1890  178.1080  141.6690 C   0  0  0  0  0  2  0  0  0  0  0  0
  189.5670  177.4670  141.5410 C   0  0  0  0  0  2  0  0  0  0  0  0
  190.2440  177.4100  142.8270 N   0  0  0  0  0  0  0  0  0  0  0  0
  190.9310  176.1700  143.1970 C   0  0  0  0  0  2  0  0  0  0  0  0
  191.3950  176.1850  144.6310 C   0  0  0  0  0  3  0  0  0  0  0  0
  191.4890  177.3200  145.3270 C   0  0  0  0  0  3  0  0  0  0  0  0
  191.0760  178.6020  144.7380 C   0  0  0  0  0  3  0  0  0  0  0  0
  190.4810  178.6300  143.5470 C   0  0  0  0  0  3  0  0  0  0  0  0
  1  7  1  0  0  0  0
  1  2  1  0  0  0  0
  3  7  2  0  0  0  0
  4  8  2  0  0  0  0
  4  6  1  0  0  0  0
  5 10  1  0  0  0  0
  5  8  1  0  0  0  0
  6  1  2  0  0  0  0
  8  3  1  0  0  0  0
  9  4  1  0  0  0  0
 11  9  2  0  0  0  0
 11  5  1  0  0  0  0
 12 11  1  0  0  0  0
 13 12  1  0  0  0  0
 14 13  1  0  0  0  0
 15 14  1  0  0  0  0
 16 18  1  0  0  0  0
 17 15  2  0  0  0  0
 18 15  1  0  0  0  0
 19 16  2  0  0  0  0
 19 17  1  0  0  0  0
 20 25  1  0  0  0  0
 21 25  1  0  0  0  0
 21 16  1  1  0  0  0
 22 24  1  0  0  0  0
 22 20  1  0  0  0  0
 23 21  1  0  0  0  0
 24 23  2  0  0  0  0
 25 26  1  6  0  0  0
 26 28  2  0  0  0  0
 27 26  1  0  0  0  0
 29  9  1  0  0  0  0
 30 29  1  0  0  0  0
 31 30  1  0  0  0  0
 31 32  1  0  0  0  0
 32 33  1  0  0  0  0
 32 37  1  0  0  0  0
 33 34  1  0  0  0  0
 34 35  2  0  0  0  0
 36 35  1  0  0  0  0
 37 36  2  0  0  0  0
M  END
>  <MODEL>
3

>  <REMARK>
 VINA RESULT:      -8.3      1.247      1.907
  Name = 
  10 active torsions:
  status: ('A' for Active; 'I' for Inactive)
    1  A    between atoms: C_3  and  C_26
    2  A    between atoms: O_4  and  C_18
    3  A    between atoms: O_4  and  C_37
    4  A    between atoms: C_5  and  C_13
    5  A    between atoms: N_8  and  C_23
    6  A    between atoms: C_9  and  C_34
    7  A    between atoms: C_18  and  C_26
    8  A    between atoms: C_19  and  C_23
    9  A    between atoms: C_19  and  O_36
   10  A    between atoms: C_32  and  O_36
                            x       y       z     vdW  Elec       q    Type
                         _______ _______ _______ _____ _____    ______ ____

>  <TORSDO>
F 10

$$$$
=
 OpenBabel10232412363D

 37 41  0  0  1  0  0  0  0  0999 V2000
  190.2500  176.9750  146.9860 C   0  0  0  0  0  0  0  0  0  0  0  0
  191.6270  176.5430  147.3370 C   0  0  0  0  0  1  0  0  0  0  0  0
  188.1550  177.9730  147.6590 N   0  0  0  0  0  0  0  0  0  0  0  0
  188.4660  177.2100  145.4180 C   0  0  0  0  0  0  0  0  0  0  0  0
  186.4720  178.1010  145.9330 N   0  0  0  0  0  0  0  0  0  0  0  0
  189.7650  176.7880  145.6810 C   0  0  0  0  0  3  0  0  0  0  0  0
  189.4280  177.5770  147.9660 C   0  0  0  0  0  3  0  0  0  0  0  0
  187.6930  177.7770  146.3980 C   0  0  0  0  0  0  0  0  0  0  0  0
  187.6930  177.1820  144.2720 C   0  0  0  0  0  0  0  0  0  0  0  0
  185.4250  178.7830  146.6850 C   0  0  0  0  0  1  0  0  0  0  0  0
  186.4710  177.7380  144.6210 C   0  0  0  0  0  0  0  0  0  0  0  0
  185.4150  177.9080  143.7210 O   0  0  0  0  0  0  0  0  0  0  0  0
  185.2520  179.0740  142.9280 C   0  0  0  0  0  2  0  0  0  0  0  0
  183.8700  179.0640  142.3050 C   0  0  0  0  0  2  0  0  0  0  0  0
  183.9570  178.7310  140.8570 C   0  0  0  0  0  0  0  0  0  0  0  0
  183.7230  177.8730  138.5870 C   0  0  0  0  0  0  0  0  0  0  0  0
  184.8820  179.2610  140.0230 N   0  0  0  0  0  0  0  0  0  0  0  0
  182.9250  177.6690  140.0600 S   0  0  0  0  0  0  0  0  0  0  0  0
  184.7570  178.7880  138.7540 C   0  0  0  0  0  3  0  0  0  0  0  0
  184.3410  176.7580  134.9250 C   0  0  0  0  0  2  0  0  0  0  0  0
  183.3570  177.2300  137.2860 C   0  0  1  0  0  3  0  0  0  0  0  0
  182.8510  176.6780  134.5780 C   0  0  0  0  0  2  0  0  0  0  0  0
  182.3590  178.0680  136.5310 C   0  0  0  0  0  3  0  0  0  0  0  0
  182.1130  177.8020  135.2440 C   0  0  0  0  0  3  0  0  0  0  0  0
  184.6100  176.9170  136.4380 C   0  0  1  0  0  3  0  0  0  0  0  0
  185.3500  175.7300  136.9750 C   0  0  0  0  0  0  0  0  0  0  0  0
  186.8360  175.7650  137.0580 C   0  0  0  0  0  1  0  0  0  0  0  0
  184.7470  174.7340  137.3390 O   0  0  0  0  0  0  0  0  0  0  0  0
  188.0150  176.6770  143.0090 O   0  0  0  0  0  0  0  0  0  0  0  0
  189.0390  177.2290  142.1950 C   0  0  0  0  0  2  0  0  0  0  0  0
  188.4310  178.0990  141.0990 C   0  0  0  0  0  2  0  0  0  0  0  0
  189.0590  177.8410  139.8120 N   0  0  0  0  0  0  0  0  0  0  0  0
  188.8260  178.7920  138.7220 C   0  0  0  0  0  2  0  0  0  0  0  0
  189.3550  178.2860  137.4050 C   0  0  0  0  0  3  0  0  0  0  0  0
  190.2380  177.2880  137.3410 C   0  0  0  0  0  3  0  0  0  0  0  0
  190.6800  176.5930  138.5580 C   0  0  0  0  0  3  0  0  0  0  0  0
  190.1070  176.8650  139.7290 C   0  0  0  0  0  3  0  0  0  0  0  0
  1  2  1  0  0  0  0
  1  7  1  0  0  0  0
  3  7  2  0  0  0  0
  4  6  1  0  0  0  0
  4  8  2  0  0  0  0
  5  8  1  0  0  0  0
  5 10  1  0  0  0  0
  6  1  2  0  0  0  0
  8  3  1  0  0  0  0
  9 11  2  0  0  0  0
  9  4  1  0  0  0  0
 11  5  1  0  0  0  0
 12 11  1  0  0  0  0
 13 12  1  0  0  0  0
 14 13  1  0  0  0  0
 15 14  1  0  0  0  0
 16 19  2  0  0  0  0
 16 18  1  0  0  0  0
 17 15  2  0  0  0  0
 18 15  1  0  0  0  0
 19 17  1  0  0  0  0
 20 25  1  0  0  0  0
 21 16  1  1  0  0  0
 22 20  1  0  0  0  0
 22 24  1  0  0  0  0
 23 21  1  0  0  0  0
 24 23  2  0  0  0  0
 25 26  1  1  0  0  0
 25 21  1  0  0  0  0
 26 27  1  0  0  0  0
 26 28  2  0  0  0  0
 29  9  1  0  0  0  0
 30 29  1  0  0  0  0
 31 30  1  0  0  0  0
 32 31  1  0  0  0  0
 33 32  1  0  0  0  0
 34 33  1  0  0  0  0
 35 34  2  0  0  0  0
 35 36  1  0  0  0  0
 36 37  2  0  0  0  0
 37 32  1  0  0  0  0
M  END
>  <MODEL>
4

>  <REMARK>
 VINA RESULT:      -8.1      2.151      4.061
  Name = 
  10 active torsions:
  status: ('A' for Active; 'I' for Inactive)
    1  A    between atoms: C_3  and  C_26
    2  A    between atoms: O_4  and  C_18
    3  A    between atoms: O_4  and  C_37
    4  A    between atoms: C_5  and  C_13
    5  A    between atoms: N_8  and  C_23
    6  A    between atoms: C_9  and  C_34
    7  A    between atoms: C_18  and  C_26
    8  A    between atoms: C_19  and  C_23
    9  A    between atoms: C_19  and  O_36
   10  A    between atoms: C_32  and  O_36
                            x       y       z     vdW  Elec       q    Type
                         _______ _______ _______ _____ _____    ______ ____

>  <TORSDO>
F 10

$$$$
=
 OpenBabel10232412363D

 37 41  0  0  1  0  0  0  0  0999 V2000
  188.2730  177.7010  146.7280 C   0  0  0  0  0  0  0  0  0  0  0  0
  187.3790  178.2140  147.7970 C   0  0  0  0  0  1  0  0  0  0  0  0
  190.4000  176.7590  146.0770 N   0  0  0  0  0  0  0  0  0  0  0  0
  188.7190  177.1950  144.4380 C   0  0  0  0  0  0  0  0  0  0  0  0
  190.6640  176.3390  143.7140 N   0  0  0  0  0  0  0  0  0  0  0  0
  187.8340  177.6830  145.3930 C   0  0  0  0  0  3  0  0  0  0  0  0
  189.5640  177.2280  147.0530 C   0  0  0  0  0  3  0  0  0  0  0  0
  189.9710  176.7580  144.7890 C   0  0  0  0  0  0  0  0  0  0  0  0
  188.6170  177.0370  143.0680 C   0  0  0  0  0  0  0  0  0  0  0  0
  191.9970  175.7490  143.7340 C   0  0  0  0  0  1  0  0  0  0  0  0
  189.8290  176.5070  142.6520 C   0  0  0  0  0  0  0  0  0  0  0  0
  190.1130  176.1820  141.3230 O   0  0  0  0  0  0  0  0  0  0  0  0
  190.7040  177.0940  140.4100 C   0  0  0  0  0  2  0  0  0  0  0  0
  190.1240  176.8660  139.0290 C   0  0  0  0  0  2  0  0  0  0  0  0
  191.1110  176.1680  138.1610 C   0  0  0  0  0  0  0  0  0  0  0  0
  193.0540  175.3470  136.9400 C   0  0  0  0  0  0  0  0  0  0  0  0
  190.7810  175.1740  137.3030 N   0  0  0  0  0  0  0  0  0  0  0  0
  192.7590  176.5040  138.1310 S   0  0  0  0  0  0  0  0  0  0  0  0
  191.8610  174.7100  136.6180 C   0  0  0  0  0  3  0  0  0  0  0  0
  196.8900  174.7860  137.0240 C   0  0  0  0  0  2  0  0  0  0  0  0
  194.3870  175.0030  136.3520 C   0  0  1  0  0  3  0  0  0  0  0  0
  197.0710  175.0090  135.5190 C   0  0  0  0  0  2  0  0  0  0  0  0
  194.8840  176.1080  135.4570 C   0  0  0  0  0  3  0  0  0  0  0  0
  196.1600  176.1080  135.0550 C   0  0  0  0  0  3  0  0  0  0  0  0
  195.4120  174.6400  137.4490 C   0  0  1  0  0  3  0  0  0  0  0  0
  195.1520  173.2750  138.0080 C   0  0  0  0  0  0  0  0  0  0  0  0
  194.9020  172.1360  137.0830 C   0  0  0  0  0  1  0  0  0  0  0  0
  195.1390  173.0890  139.2140 O   0  0  0  0  0  0  0  0  0  0  0  0
  187.5480  177.3600  142.2260 O   0  0  0  0  0  0  0  0  0  0  0  0
  187.1650  178.6970  141.9420 C   0  0  0  0  0  2  0  0  0  0  0  0
  185.7520  178.7290  141.3680 C   0  0  0  0  0  2  0  0  0  0  0  0
  184.7560  178.8370  142.4230 N   0  0  0  0  0  0  0  0  0  0  0  0
  185.1750  179.3650  143.7240 C   0  0  0  0  0  2  0  0  0  0  0  0
  184.1010  179.2150  144.7700 C   0  0  0  0  0  3  0  0  0  0  0  0
  182.8290  178.9810  144.4410 C   0  0  0  0  0  3  0  0  0  0  0  0
  182.4360  178.7900  143.0370 C   0  0  0  0  0  3  0  0  0  0  0  0
  183.3660  178.7210  142.0860 C   0  0  0  0  0  3  0  0  0  0  0  0
  1  7  1  0  0  0  0
  1  2  1  0  0  0  0
  3  7  2  0  0  0  0
  4  8  2  0  0  0  0
  4  6  1  0  0  0  0
  5 10  1  0  0  0  0
  5  8  1  0  0  0  0
  6  1  2  0  0  0  0
  8  3  1  0  0  0  0
  9  4  1  0  0  0  0
 11  9  2  0  0  0  0
 11  5  1  0  0  0  0
 12 11  1  0  0  0  0
 13 12  1  0  0  0  0
 14 13  1  0  0  0  0
 15 14  1  0  0  0  0
 16 18  1  0  0  0  0
 17 15  2  0  0  0  0
 18 15  1  0  0  0  0
 19 16  2  0  0  0  0
 19 17  1  0  0  0  0
 20 25  1  0  0  0  0
 21 16  1  1  0  0  0
 21 25  1  0  0  0  0
 22 20  1  0  0  0  0
 23 21  1  0  0  0  0
 24 23  2  0  0  0  0
 24 22  1  0  0  0  0
 25 26  1  6  0  0  0
 26 28  2  0  0  0  0
 27 26  1  0  0  0  0
 29  9  1  0  0  0  0
 30 29  1  0  0  0  0
 31 30  1  0  0  0  0
 31 32  1  0  0  0  0
 32 33  1  0  0  0  0
 33 34  1  0  0  0  0
 35 34  2  0  0  0  0
 36 35  1  0  0  0  0
 37 32  1  0  0  0  0
 37 36  2  0  0  0  0
M  END
>  <MODEL>
5

>  <REMARK>
 VINA RESULT:      -7.8      4.079      6.527
  Name = 
  10 active torsions:
  status: ('A' for Active; 'I' for Inactive)
    1  A    between atoms: C_3  and  C_26
    2  A    between atoms: O_4  and  C_18
    3  A    between atoms: O_4  and  C_37
    4  A    between atoms: C_5  and  C_13
    5  A    between atoms: N_8  and  C_23
    6  A    between atoms: C_9  and  C_34
    7  A    between atoms: C_18  and  C_26
    8  A    between atoms: C_19  and  C_23
    9  A    between atoms: C_19  and  O_36
   10  A    between atoms: C_32  and  O_36
                            x       y       z     vdW  Elec       q    Type
                         _______ _______ _______ _____ _____    ______ ____

>  <TORSDO>
F 10

$$$$
=
 OpenBabel10232412363D

 37 41  0  0  1  0  0  0  0  0999 V2000
  188.4630  177.5450  146.9620 C   0  0  0  0  0  0  0  0  0  0  0  0
  187.8800  177.6730  148.3220 C   0  0  0  0  0  1  0  0  0  0  0  0
  190.4070  177.2480  145.5580 N   0  0  0  0  0  0  0  0  0  0  0  0
  188.2390  177.4870  144.5860 C   0  0  0  0  0  0  0  0  0  0  0  0
  189.9730  177.2370  143.1830 N   0  0  0  0  0  0  0  0  0  0  0  0
  187.6310  177.6080  145.8310 C   0  0  0  0  0  3  0  0  0  0  0  0
  189.8550  177.3590  146.8050 C   0  0  0  0  0  3  0  0  0  0  0  0
  189.5950  177.3220  144.4720 C   0  0  0  0  0  0  0  0  0  0  0  0
  187.7340  177.5010  143.2990 C   0  0  0  0  0  0  0  0  0  0  0  0
  191.3280  176.9910  142.7050 C   0  0  0  0  0  1  0  0  0  0  0  0
  188.8260  177.3430  142.4580 C   0  0  0  0  0  0  0  0  0  0  0  0
  188.7240  177.2850  141.0650 O   0  0  0  0  0  0  0  0  0  0  0  0
  188.7690  178.4360  140.2350 C   0  0  0  0  0  2  0  0  0  0  0  0
  188.9910  178.0060  138.7980 C   0  0  0  0  0  2  0  0  0  0  0  0
  187.7030  177.5970  138.1750 C   0  0  0  0  0  0  0  0  0  0  0  0
  185.8400  176.5060  137.0430 C   0  0  0  0  0  0  0  0  0  0  0  0
  186.6110  178.3950  138.1230 N   0  0  0  0  0  0  0  0  0  0  0  0
  187.4220  176.0980  137.4670 S   0  0  0  0  0  0  0  0  0  0  0  0
  185.5670  177.7930  137.4930 C   0  0  0  0  0  3  0  0  0  0  0  0
  183.3890  173.5140  136.7740 C   0  0  0  0  0  2  0  0  0  0  0  0
  184.8530  175.6200  136.3480 C   0  0  1  0  0  3  0  0  0  0  0  0
  183.4710  173.4360  135.2460 C   0  0  0  0  0  2  0  0  0  0  0  0
  185.5370  174.7470  135.3280 C   0  0  0  0  0  3  0  0  0  0  0  0
  184.8760  173.7110  134.7980 C   0  0  0  0  0  3  0  0  0  0  0  0
  184.0270  174.7940  137.3580 C   0  0  1  0  0  3  0  0  0  0  0  0
  182.9960  175.6390  138.0410 C   0  0  0  0  0  0  0  0  0  0  0  0
  181.9720  176.3500  137.2280 C   0  0  0  0  0  1  0  0  0  0  0  0
  182.9910  175.7530  139.2560 O   0  0  0  0  0  0  0  0  0  0  0  0
  186.4110  177.6680  142.8780 O   0  0  0  0  0  0  0  0  0  0  0  0
  185.8600  178.9350  142.5500 C   0  0  0  0  0  2  0  0  0  0  0  0
  184.7670  178.7770  141.4970 C   0  0  0  0  0  2  0  0  0  0  0  0
  183.4440  178.7970  142.1030 N   0  0  0  0  0  0  0  0  0  0  0  0
  182.2830  178.5420  141.2460 C   0  0  0  0  0  2  0  0  0  0  0  0
  180.9830  178.8070  141.9600 C   0  0  0  0  0  3  0  0  0  0  0  0
  180.9170  178.8930  143.2900 C   0  0  0  0  0  3  0  0  0  0  0  0
  182.1320  178.8000  144.1130 C   0  0  0  0  0  3  0  0  0  0  0  0
  183.3300  178.7580  143.5330 C   0  0  0  0  0  3  0  0  0  0  0  0
  1  2  1  0  0  0  0
  3  7  2  0  0  0  0
  4  6  1  0  0  0  0
  5  8  1  0  0  0  0
  6  1  2  0  0  0  0
  7  1  1  0  0  0  0
  8  4  2  0  0  0  0
  8  3  1  0  0  0  0
  9  4  1  0  0  0  0
 10  5  1  0  0  0  0
 11  5  1  0  0  0  0
 11  9  2  0  0  0  0
 12 11  1  0  0  0  0
 13 12  1  0  0  0  0
 14 13  1  0  0  0  0
 15 14  1  0  0  0  0
 16 18  1  0  0  0  0
 16 19  2  0  0  0  0
 17 15  2  0  0  0  0
 18 15  1  0  0  0  0
 19 17  1  0  0  0  0
 20 25  1  0  0  0  0
 21 16  1  1  0  0  0
 21 25  1  0  0  0  0
 22 20  1  0  0  0  0
 23 21  1  0  0  0  0
 24 22  1  0  0  0  0
 24 23  2  0  0  0  0
 25 26  1  6  0  0  0
 26 28  2  0  0  0  0
 27 26  1  0  0  0  0
 29  9  1  0  0  0  0
 30 29  1  0  0  0  0
 31 32  1  0  0  0  0
 31 30  1  0  0  0  0
 32 37  1  0  0  0  0
 33 34  1  0  0  0  0
 33 32  1  0  0  0  0
 34 35  2  0  0  0  0
 35 36  1  0  0  0  0
 37 36  2  0  0  0  0
M  END
>  <MODEL>
6

>  <REMARK>
 VINA RESULT:      -7.7      2.145      5.553
  Name = 
  10 active torsions:
  status: ('A' for Active; 'I' for Inactive)
    1  A    between atoms: C_3  and  C_26
    2  A    between atoms: O_4  and  C_18
    3  A    between atoms: O_4  and  C_37
    4  A    between atoms: C_5  and  C_13
    5  A    between atoms: N_8  and  C_23
    6  A    between atoms: C_9  and  C_34
    7  A    between atoms: C_18  and  C_26
    8  A    between atoms: C_19  and  C_23
    9  A    between atoms: C_19  and  O_36
   10  A    between atoms: C_32  and  O_36
                            x       y       z     vdW  Elec       q    Type
                         _______ _______ _______ _____ _____    ______ ____

>  <TORSDO>
F 10

$$$$
=
 OpenBabel10232412363D

 37 41  0  0  1  0  0  0  0  0999 V2000
  187.1510  178.2280  147.7300 C   0  0  0  0  0  0  0  0  0  0  0  0
  187.7750  178.0090  149.0590 C   0  0  0  0  0  1  0  0  0  0  0  0
  185.4910  179.3450  146.3760 N   0  0  0  0  0  0  0  0  0  0  0  0
  186.9970  177.7760  145.3910 C   0  0  0  0  0  0  0  0  0  0  0  0
  185.4840  178.7370  144.0400 N   0  0  0  0  0  0  0  0  0  0  0  0
  187.6260  177.5310  146.6060 C   0  0  0  0  0  3  0  0  0  0  0  0
  186.0800  179.1390  147.5930 C   0  0  0  0  0  3  0  0  0  0  0  0
  185.9500  178.6570  145.2990 C   0  0  0  0  0  0  0  0  0  0  0  0
  187.2050  177.2780  144.1180 C   0  0  0  0  0  0  0  0  0  0  0  0
  184.4260  179.6250  143.5750 C   0  0  0  0  0  1  0  0  0  0  0  0
  186.2590  177.8890  143.3090 C   0  0  0  0  0  0  0  0  0  0  0  0
  186.1570  177.6610  141.9330 O   0  0  0  0  0  0  0  0  0  0  0  0
  186.5590  178.6110  140.9580 C   0  0  0  0  0  2  0  0  0  0  0  0
  188.0510  178.8520  141.0810 C   0  0  0  0  0  2  0  0  0  0  0  0
  188.7560  178.3720  139.8620 C   0  0  0  0  0  0  0  0  0  0  0  0
  190.1290  177.2640  138.1800 C   0  0  0  0  0  0  0  0  0  0  0  0
  188.5950  178.9270  138.6380 N   0  0  0  0  0  0  0  0  0  0  0  0
  189.8310  177.0790  139.8300 S   0  0  0  0  0  0  0  0  0  0  0  0
  189.3580  178.3140  137.6940 C   0  0  0  0  0  3  0  0  0  0  0  0
  191.6490  173.9140  136.9530 C   0  0  0  0  0  2  0  0  0  0  0  0
  191.0280  176.4100  137.3420 C   0  0  1  0  0  3  0  0  0  0  0  0
  192.9320  174.5600  136.4200 C   0  0  0  0  0  2  0  0  0  0  0  0
  192.4610  176.5350  137.7880 C   0  0  0  0  0  3  0  0  0  0  0  0
  193.3700  175.6580  137.3440 C   0  0  0  0  0  3  0  0  0  0  0  0
  190.5540  174.9400  137.3210 C   0  0  1  0  0  3  0  0  0  0  0  0
  189.3480  174.7680  136.4480 C   0  0  0  0  0  0  0  0  0  0  0  0
  189.5170  174.6640  134.9730 C   0  0  0  0  0  1  0  0  0  0  0  0
  188.2310  174.7170  136.9350 O   0  0  0  0  0  0  0  0  0  0  0  0
  188.1390  176.3300  143.6890 O   0  0  0  0  0  0  0  0  0  0  0  0
  189.4050  176.6810  143.1520 C   0  0  0  0  0  2  0  0  0  0  0  0
  190.1420  177.6150  144.1060 C   0  0  0  0  0  2  0  0  0  0  0  0
  190.8460  176.8680  145.1380 N   0  0  0  0  0  0  0  0  0  0  0  0
  191.8730  175.9090  144.7230 C   0  0  0  0  0  2  0  0  0  0  0  0
  192.3570  175.0630  145.8720 C   0  0  0  0  0  3  0  0  0  0  0  0
  192.1410  175.4150  147.1410 C   0  0  0  0  0  3  0  0  0  0  0  0
  191.3580  176.6150  147.4690 C   0  0  0  0  0  3  0  0  0  0  0  0
  190.7440  177.2960  146.5030 C   0  0  0  0  0  3  0  0  0  0  0  0
  1  2  1  0  0  0  0
  3  7  2  0  0  0  0
  4  6  1  0  0  0  0
  5  8  1  0  0  0  0
  6  1  2  0  0  0  0
  7  1  1  0  0  0  0
  8  4  2  0  0  0  0
  8  3  1  0  0  0  0
  9  4  1  0  0  0  0
 10  5  1  0  0  0  0
 11  5  1  0  0  0  0
 11  9  2  0  0  0  0
 12 11  1  0  0  0  0
 13 14  1  0  0  0  0
 13 12  1  0  0  0  0
 15 14  1  0  0  0  0
 16 18  1  0  0  0  0
 17 15  2  0  0  0  0
 18 15  1  0  0  0  0
 19 16  2  0  0  0  0
 19 17  1  0  0  0  0
 20 25  1  0  0  0  0
 21 23  1  0  0  0  0
 21 16  1  1  0  0  0
 22 20  1  0  0  0  0
 22 24  1  0  0  0  0
 24 23  2  0  0  0  0
 25 26  1  6  0  0  0
 25 21  1  0  0  0  0
 26 28  2  0  0  0  0
 27 26  1  0  0  0  0
 29  9  1  0  0  0  0
 30 29  1  0  0  0  0
 30 31  1  0  0  0  0
 31 32  1  0  0  0  0
 32 37  1  0  0  0  0
 33 32  1  0  0  0  0
 33 34  1  0  0  0  0
 34 35  2  0  0  0  0
 35 36  1  0  0  0  0
 37 36  2  0  0  0  0
M  END
>  <MODEL>
7

>  <REMARK>
 VINA RESULT:      -7.6      2.263      3.278
  Name = 
  10 active torsions:
  status: ('A' for Active; 'I' for Inactive)
    1  A    between atoms: C_3  and  C_26
    2  A    between atoms: O_4  and  C_18
    3  A    between atoms: O_4  and  C_37
    4  A    between atoms: C_5  and  C_13
    5  A    between atoms: N_8  and  C_23
    6  A    between atoms: C_9  and  C_34
    7  A    between atoms: C_18  and  C_26
    8  A    between atoms: C_19  and  C_23
    9  A    between atoms: C_19  and  O_36
   10  A    between atoms: C_32  and  O_36
                            x       y       z     vdW  Elec       q    Type
                         _______ _______ _______ _____ _____    ______ ____

>  <TORSDO>
F 10

$$$$
=
 OpenBabel10232412363D

 37 41  0  0  1  0  0  0  0  0999 V2000
  187.6540  177.9100  146.9140 C   0  0  0  0  0  0  0  0  0  0  0  0
  188.7550  177.6430  147.8740 C   0  0  0  0  0  1  0  0  0  0  0  0
  185.4010  178.6810  146.5040 N   0  0  0  0  0  0  0  0  0  0  0  0
  186.7620  177.9090  144.6990 C   0  0  0  0  0  0  0  0  0  0  0  0
  184.6780  178.5810  144.2020 N   0  0  0  0  0  0  0  0  0  0  0  0
  187.8320  177.6420  145.5460 C   0  0  0  0  0  3  0  0  0  0  0  0
  186.4260  178.4370  147.3760 C   0  0  0  0  0  3  0  0  0  0  0  0
  185.5800  178.4070  145.1860 C   0  0  0  0  0  0  0  0  0  0  0  0
  186.5970  177.7690  143.3340 C   0  0  0  0  0  0  0  0  0  0  0  0
  183.3480  179.1570  144.3550 C   0  0  0  0  0  1  0  0  0  0  0  0
  185.3060  178.1920  143.0580 C   0  0  0  0  0  0  0  0  0  0  0  0
  184.7620  178.2230  141.7710 O   0  0  0  0  0  0  0  0  0  0  0  0
  183.3790  178.4140  141.5170 C   0  0  0  0  0  2  0  0  0  0  0  0
  183.1900  178.8440  140.0760 C   0  0  0  0  0  2  0  0  0  0  0  0
  183.4030  177.6910  139.1590 C   0  0  0  0  0  0  0  0  0  0  0  0
  183.4320  175.5670  137.9630 C   0  0  0  0  0  0  0  0  0  0  0  0
  184.2560  177.7190  138.1090 N   0  0  0  0  0  0  0  0  0  0  0  0
  182.6160  176.2110  139.2920 S   0  0  0  0  0  0  0  0  0  0  0  0
  184.2770  176.5380  137.4350 C   0  0  0  0  0  3  0  0  0  0  0  0
  184.0830  172.7030  135.4310 C   0  0  0  0  0  2  0  0  0  0  0  0
  183.2490  174.1960  137.3900 C   0  0  1  0  0  3  0  0  0  0  0  0
  182.7510  172.0010  135.7100 C   0  0  0  0  0  2  0  0  0  0  0  0
  181.9100  174.0700  136.7100 C   0  0  0  0  0  3  0  0  0  0  0  0
  181.6700  173.0220  135.9150 C   0  0  0  0  0  3  0  0  0  0  0  0
  184.4140  173.8160  136.4510 C   0  0  1  0  0  3  0  0  0  0  0  0
  185.6510  173.4760  137.2250 C   0  0  0  0  0  0  0  0  0  0  0  0
  186.9720  173.9770  136.7580 C   0  0  0  0  0  1  0  0  0  0  0  0
  185.5860  172.7900  138.2320 O   0  0  0  0  0  0  0  0  0  0  0  0
  187.5020  177.2770  142.3880 O   0  0  0  0  0  0  0  0  0  0  0  0
  188.2070  178.1150  141.4840 C   0  0  0  0  0  2  0  0  0  0  0  0
  189.6410  177.6230  141.3190 C   0  0  0  0  0  2  0  0  0  0  0  0
  190.3080  177.5010  142.6060 N   0  0  0  0  0  0  0  0  0  0  0  0
  190.8090  176.1830  143.0070 C   0  0  0  0  0  2  0  0  0  0  0  0
  191.2760  176.1660  144.4390 C   0  0  0  0  0  3  0  0  0  0  0  0
  191.5390  177.2920  145.1050 C   0  0  0  0  0  3  0  0  0  0  0  0
  191.3140  178.6050  144.4840 C   0  0  0  0  0  3  0  0  0  0  0  0
  190.7240  178.6900  143.2930 C   0  0  0  0  0  3  0  0  0  0  0  0
  1  7  1  0  0  0  0
  1  2  1  0  0  0  0
  3  7  2  0  0  0  0
  4  8  2  0  0  0  0
  4  6  1  0  0  0  0
  5 10  1  0  0  0  0
  5  8  1  0  0  0  0
  6  1  2  0  0  0  0
  8  3  1  0  0  0  0
  9  4  1  0  0  0  0
 11  9  2  0  0  0  0
 11  5  1  0  0  0  0
 12 11  1  0  0  0  0
 13 12  1  0  0  0  0
 14 13  1  0  0  0  0
 15 18  1  0  0  0  0
 15 14  1  0  0  0  0
 16 18  1  0  0  0  0
 17 15  2  0  0  0  0
 19 16  2  0  0  0  0
 19 17  1  0  0  0  0
 20 22  1  0  0  0  0
 20 25  1  0  0  0  0
 21 16  1  6  0  0  0
 22 24  1  0  0  0  0
 23 21  1  0  0  0  0
 24 23  2  0  0  0  0
 25 26  1  1  0  0  0
 25 21  1  0  0  0  0
 26 28  2  0  0  0  0
 27 26  1  0  0  0  0
 29  9  1  0  0  0  0
 30 29  1  0  0  0  0
 31 30  1  0  0  0  0
 31 32  1  0  0  0  0
 32 33  1  0  0  0  0
 32 37  1  0  0  0  0
 33 34  1  0  0  0  0
 34 35  2  0  0  0  0
 36 35  1  0  0  0  0
 37 36  2  0  0  0  0
M  END
>  <MODEL>
8

>  <REMARK>
 VINA RESULT:      -7.6      2.362      3.242
  Name = 
  10 active torsions:
  status: ('A' for Active; 'I' for Inactive)
    1  A    between atoms: C_3  and  C_26
    2  A    between atoms: O_4  and  C_18
    3  A    between atoms: O_4  and  C_37
    4  A    between atoms: C_5  and  C_13
    5  A    between atoms: N_8  and  C_23
    6  A    between atoms: C_9  and  C_34
    7  A    between atoms: C_18  and  C_26
    8  A    between atoms: C_19  and  C_23
    9  A    between atoms: C_19  and  O_36
   10  A    between atoms: C_32  and  O_36
                            x       y       z     vdW  Elec       q    Type
                         _______ _______ _______ _____ _____    ______ ____

>  <TORSDO>
F 10

$$$$
=
 OpenBabel10232412363D

 37 41  0  0  1  0  0  0  0  0999 V2000
  190.2130  177.3140  144.9650 C   0  0  0  0  0  0  0  0  0  0  0  0
  189.7930  177.2880  146.3890 C   0  0  0  0  0  1  0  0  0  0  0  0
  191.9840  177.2360  143.3230 N   0  0  0  0  0  0  0  0  0  0  0  0
  189.7080  177.4660  142.6370 C   0  0  0  0  0  0  0  0  0  0  0  0
  191.2700  177.4260  141.0250 N   0  0  0  0  0  0  0  0  0  0  0  0
  189.2510  177.4440  143.9500 C   0  0  0  0  0  3  0  0  0  0  0  0
  191.5820  177.2060  144.6300 C   0  0  0  0  0  3  0  0  0  0  0  0
  191.0460  177.3730  142.3510 C   0  0  0  0  0  0  0  0  0  0  0  0
  189.0530  177.5770  141.4250 C   0  0  0  0  0  0  0  0  0  0  0  0
  192.5650  177.2860  140.3710 C   0  0  0  0  0  1  0  0  0  0  0  0
  190.0410  177.5480  140.4520 C   0  0  0  0  0  0  0  0  0  0  0  0
  189.7760  177.6140  139.0810 O   0  0  0  0  0  0  0  0  0  0  0  0
  189.0950  178.7020  138.4750 C   0  0  0  0  0  2  0  0  0  0  0  0
  188.7680  178.3480  137.0370 C   0  0  0  0  0  2  0  0  0  0  0  0
  187.3350  177.9660  136.9110 C   0  0  0  0  0  0  0  0  0  0  0  0
  184.9890  177.3750  137.2020 C   0  0  0  0  0  0  0  0  0  0  0  0
  186.7410  177.6770  135.7300 N   0  0  0  0  0  0  0  0  0  0  0  0
  186.2630  177.8500  138.2010 S   0  0  0  0  0  0  0  0  0  0  0  0
  185.4300  177.3470  135.8840 C   0  0  0  0  0  3  0  0  0  0  0  0
  182.0720  177.1660  139.7480 C   0  0  0  0  0  2  0  0  0  0  0  0
  183.5860  177.0830  137.6350 C   0  0  1  0  0  3  0  0  0  0  0  0
  181.2930  176.1210  138.9430 C   0  0  0  0  0  2  0  0  0  0  0  0
  183.3410  175.5980  137.7090 C   0  0  0  0  0  3  0  0  0  0  0  0
  182.2460  175.1400  138.3260 C   0  0  0  0  0  3  0  0  0  0  0  0
  183.2450  177.7930  138.9640 C   0  0  1  0  0  3  0  0  0  0  0  0
  183.0230  179.2610  138.7570 C   0  0  0  0  0  0  0  0  0  0  0  0
  181.8780  179.7210  137.9250 C   0  0  0  0  0  1  0  0  0  0  0  0
  183.7740  180.0800  139.2590 O   0  0  0  0  0  0  0  0  0  0  0  0
  187.6840  177.7240  141.1780 O   0  0  0  0  0  0  0  0  0  0  0  0
  186.9180  178.8030  141.6910 C   0  0  0  0  0  2  0  0  0  0  0  0
  185.5010  178.3380  142.0100 C   0  0  0  0  0  2  0  0  0  0  0  0
  185.2390  178.3850  143.4400 N   0  0  0  0  0  0  0  0  0  0  0  0
  186.3550  178.1430  144.3590 C   0  0  0  0  0  2  0  0  0  0  0  0
  185.8940  178.0090  145.7880 C   0  0  0  0  0  3  0  0  0  0  0  0
  184.6910  178.4320  146.1790 C   0  0  0  0  0  3  0  0  0  0  0  0
  183.7340  178.9860  145.2100 C   0  0  0  0  0  3  0  0  0  0  0  0
  184.0080  178.9550  143.9080 C   0  0  0  0  0  3  0  0  0  0  0  0
  1  2  1  0  0  0  0
  3  7  2  0  0  0  0
  4  6  1  0  0  0  0
  5  8  1  0  0  0  0
  6  1  2  0  0  0  0
  7  1  1  0  0  0  0
  8  4  2  0  0  0  0
  8  3  1  0  0  0  0
  9  4  1  0  0  0  0
 10  5  1  0  0  0  0
 11  5  1  0  0  0  0
 11  9  2  0  0  0  0
 12 11  1  0  0  0  0
 13 12  1  0  0  0  0
 14 13  1  0  0  0  0
 15 14  1  0  0  0  0
 15 18  1  0  0  0  0
 16 18  1  0  0  0  0
 17 19  1  0  0  0  0
 17 15  2  0  0  0  0
 19 16  2  0  0  0  0
 21 16  1  1  0  0  0
 21 23  1  0  0  0  0
 21 25  1  0  0  0  0
 22 20  1  0  0  0  0
 23 24  2  0  0  0  0
 24 22  1  0  0  0  0
 25 26  1  6  0  0  0
 25 20  1  0  0  0  0
 26 28  2  0  0  0  0
 27 26  1  0  0  0  0
 29  9  1  0  0  0  0
 29 30  1  0  0  0  0
 30 31  1  0  0  0  0
 31 32  1  0  0  0  0
 32 37  1  0  0  0  0
 32 33  1  0  0  0  0
 33 34  1  0  0  0  0
 34 35  2  0  0  0  0
 36 35  1  0  0  0  0
 37 36  2  0  0  0  0
M  END
>  <MODEL>
9

>  <REMARK>
 VINA RESULT:      -7.6      1.925      5.637
  Name = 
  10 active torsions:
  status: ('A' for Active; 'I' for Inactive)
    1  A    between atoms: C_3  and  C_26
    2  A    between atoms: O_4  and  C_18
    3  A    between atoms: O_4  and  C_37
    4  A    between atoms: C_5  and  C_13
    5  A    between atoms: N_8  and  C_23
    6  A    between atoms: C_9  and  C_34
    7  A    between atoms: C_18  and  C_26
    8  A    between atoms: C_19  and  C_23
    9  A    between atoms: C_19  and  O_36
   10  A    between atoms: C_32  and  O_36
                            x       y       z     vdW  Elec       q    Type
                         _______ _______ _______ _____ _____    ______ ____

>  <TORSDO>
F 10

$$$$
