=
 OpenBabel10232408513D

 25 29  0  0  1  0  0  0  0  0999 V2000
  187.6430  177.9750  146.0380 O   0  0  0  0  0  0  0  0  0  0  0  0
  191.3610  176.2060  143.2850 N   0  0  0  0  0  2  0  0  0  0  0  0
  189.3430  176.7100  144.1340 C   0  0  2  0  0  0  0  0  0  0  0  0
  189.6720  176.6790  146.9750 C   0  0  2  0  0  3  0  0  0  0  0  0
  189.0060  177.8690  146.2800 C   0  0  2  0  0  0  0  0  0  0  0  0
  189.0170  177.7020  147.8040 C   0  0  0  0  0  2  0  0  0  0  0  0
  189.1040  175.6620  143.1490 N   0  0  0  0  0  2  0  0  0  0  0  0
  191.6310  177.0450  145.4990 C   0  0  0  0  0  3  0  0  0  0  0  0
  188.4520  177.8740  143.9300 C   0  0  2  0  0  3  0  0  0  0  0  0
  190.8350  176.8630  144.2590 C   0  0  1  0  0  3  0  0  0  0  0  0
  190.3590  175.5880  142.5750 O   0  0  0  0  0  0  0  0  0  0  0  0
  191.1230  176.9530  146.7400 C   0  0  0  0  0  3  0  0  0  0  0  0
  188.2720  177.0320  145.2250 C   0  0  2  0  0  0  0  0  0  0  0  0
  187.2530  177.6470  143.0100 C   0  0  0  0  0  2  0  0  0  0  0  0
  188.3060  178.3450  140.9890 O   0  0  0  0  0  1  0  0  0  0  0  0
  187.2620  178.6490  141.8620 C   0  0  1  0  0  3  0  0  0  0  0  0
  185.9570  178.6430  141.1130 C   0  0  0  0  0  0  0  0  0  0  0  0
  185.9250  178.9810  139.9400 O   0  0  0  0  0  0  0  0  0  0  0  0
  183.5740  178.0560  140.7720 C   0  0  0  0  0  1  0  0  0  0  0  0
  184.6790  178.2450  141.7940 C   0  0  2  0  0  3  0  0  0  0  0  0
  184.2490  179.2690  142.8330 C   0  0  0  0  0  2  0  0  0  0  0  0
  182.9000  178.8970  143.4200 C   0  0  0  0  0  2  0  0  0  0  0  0
  182.9820  178.9340  144.9300 C   0  0  0  0  0  2  0  0  0  0  0  0
  184.4340  178.8920  145.3580 C   0  0  0  0  0  2  0  0  0  0  0  0
  184.5070  178.6210  146.7230 O   0  0  0  0  0  1  0  0  0  0  0  0
  1  5  1  0  0  0  0
  2 10  1  0  0  0  0
  3  7  1  6  0  0  0
  3 10  1  0  0  0  0
  3 13  1  0  0  0  0
  4 12  1  1  0  0  0
  4  6  1  0  0  0  0
  5  4  1  0  0  0  0
  5  6  1  6  0  0  0
  8 12  2  0  0  0  0
  9 14  1  6  0  0  0
  9  3  1  0  0  0  0
  9 13  1  0  0  0  0
 10  8  1  1  0  0  0
 11  7  1  0  0  0  0
 11  2  1  0  0  0  0
 13  1  1  1  0  0  0
 13  5  1  0  0  0  0
 16 15  1  6  0  0  0
 16 14  1  0  0  0  0
 17 20  1  0  0  0  0
 17 16  1  0  0  0  0
 18 17  2  0  0  0  0
 20 19  1  6  0  0  0
 20 21  1  0  0  0  0
 21 22  1  0  0  0  0
 22 23  1  0  0  0  0
 23 24  1  0  0  0  0
 24 25  1  0  0  0  0
M  END
>  <MODEL>
1

>  <REMARK>
 VINA RESULT:      -8.0      0.000      0.000
  Name = 
  8 active torsions:
  status: ('A' for Active; 'I' for Inactive)
    1  A    between atoms: C_1  and  C_9
    2  A    between atoms: C_1  and  C_12
    3  A    between atoms: C_4  and  C_12
    4  A    between atoms: C_7  and  C_11
    5  A    between atoms: C_7  and  C_20
    6  A    between atoms: C_9  and  C_20
    7  A    between atoms: C_11  and  C_15
    8  A    between atoms: C_15  and  C_19
                            x       y       z     vdW  Elec       q    Type
                         _______ _______ _______ _____ _____    ______ ____

>  <TORSDO>
F 8

$$$$
=
 OpenBabel10232408513D

 25 29  0  0  1  0  0  0  0  0999 V2000
  186.2500  178.1080  145.0210 O   0  0  0  0  0  0  0  0  0  0  0  0
  183.9800  178.9440  140.7000 N   0  0  0  0  0  2  0  0  0  0  0  0
  185.4820  178.7800  142.3620 C   0  0  2  0  0  0  0  0  0  0  0  0
  184.0650  179.4600  144.7510 C   0  0  2  0  0  3  0  0  0  0  0  0
  184.9060  178.1830  144.6800 C   0  0  2  0  0  0  0  0  0  0  0  0
  184.3040  178.7040  145.9900 C   0  0  0  0  0  2  0  0  0  0  0  0
  186.1280  179.5790  141.3270 N   0  0  0  0  0  2  0  0  0  0  0  0
  182.8320  178.6360  142.7640 C   0  0  0  0  0  3  0  0  0  0  0  0
  186.3390  177.6580  142.8080 C   0  0  2  0  0  3  0  0  0  0  0  0
  184.0570  178.5690  141.9280 C   0  0  1  0  0  3  0  0  0  0  0  0
  185.2030  179.4380  140.3100 O   0  0  0  0  0  0  0  0  0  0  0  0
  182.8140  179.0490  144.0430 C   0  0  0  0  0  3  0  0  0  0  0  0
  186.0260  178.7920  143.8270 C   0  0  2  0  0  0  0  0  0  0  0  0
  187.8100  177.7360  142.4030 C   0  0  0  0  0  2  0  0  0  0  0  0
  188.6380  175.5520  142.8770 O   0  0  0  0  0  1  0  0  0  0  0  0
  188.6650  176.8730  143.3230 C   0  0  1  0  0  3  0  0  0  0  0  0
  190.0870  177.3610  143.3740 C   0  0  0  0  0  0  0  0  0  0  0  0
  190.8440  177.1340  142.4440 O   0  0  0  0  0  0  0  0  0  0  0  0
  191.4710  179.2740  144.1290 C   0  0  0  0  0  1  0  0  0  0  0  0
  190.6020  178.1110  144.5700 C   0  0  2  0  0  3  0  0  0  0  0  0
  191.3890  177.2090  145.5080 C   0  0  0  0  0  2  0  0  0  0  0  0
  190.5260  176.7790  146.6800 C   0  0  0  0  0  2  0  0  0  0  0  0
  189.3900  177.7620  146.8540 C   0  0  0  0  0  2  0  0  0  0  0  0
  188.3590  177.1800  147.7970 C   0  0  0  0  0  2  0  0  0  0  0  0
  188.0550  178.1140  148.7860 O   0  0  0  0  0  1  0  0  0  0  0  0
  2 10  1  0  0  0  0
  3  7  1  6  0  0  0
  3  9  1  0  0  0  0
  3 13  1  0  0  0  0
  4 12  1  6  0  0  0
  4  6  1  0  0  0  0
  5  4  1  0  0  0  0
  5  1  1  0  0  0  0
  5  6  1  6  0  0  0
  8 12  2  0  0  0  0
  9 14  1  6  0  0  0
  9 13  1  0  0  0  0
 10  3  1  0  0  0  0
 10  8  1  1  0  0  0
 11  2  1  0  0  0  0
 11  7  1  0  0  0  0
 13  5  1  0  0  0  0
 13  1  1  1  0  0  0
 14 16  1  0  0  0  0
 16 15  1  6  0  0  0
 16 17  1  0  0  0  0
 17 20  1  0  0  0  0
 18 17  2  0  0  0  0
 20 19  1  6  0  0  0
 20 21  1  0  0  0  0
 21 22  1  0  0  0  0
 22 23  1  0  0  0  0
 23 24  1  0  0  0  0
 24 25  1  0  0  0  0
M  END
>  <MODEL>
2

>  <REMARK>
 VINA RESULT:      -7.6      2.122      6.049
  Name = 
  8 active torsions:
  status: ('A' for Active; 'I' for Inactive)
    1  A    between atoms: C_1  and  C_9
    2  A    between atoms: C_1  and  C_12
    3  A    between atoms: C_4  and  C_12
    4  A    between atoms: C_7  and  C_11
    5  A    between atoms: C_7  and  C_20
    6  A    between atoms: C_9  and  C_20
    7  A    between atoms: C_11  and  C_15
    8  A    between atoms: C_15  and  C_19
                            x       y       z     vdW  Elec       q    Type
                         _______ _______ _______ _____ _____    ______ ____

>  <TORSDO>
F 8

$$$$
=
 OpenBabel10232408513D

 25 29  0  0  1  0  0  0  0  0999 V2000
  186.4370  178.3190  144.8190 O   0  0  0  0  0  0  0  0  0  0  0  0
  183.7730  178.8850  140.6820 N   0  0  0  0  0  2  0  0  0  0  0  0
  185.3960  178.9140  142.2350 C   0  0  2  0  0  0  0  0  0  0  0  0
  184.0680  179.3470  144.7310 C   0  0  2  0  0  3  0  0  0  0  0  0
  185.0750  178.2050  144.5710 C   0  0  2  0  0  0  0  0  0  0  0  0
  184.4980  178.6140  145.9320 C   0  0  0  0  0  2  0  0  0  0  0  0
  185.8470  179.8140  141.1790 N   0  0  0  0  0  2  0  0  0  0  0  0
  182.8280  178.3840  142.8110 C   0  0  0  0  0  3  0  0  0  0  0  0
  186.4330  177.9210  142.5950 C   0  0  2  0  0  3  0  0  0  0  0  0
  183.9880  178.5070  141.8930 C   0  0  1  0  0  3  0  0  0  0  0  0
  184.8820  179.5560  140.2240 O   0  0  0  0  0  0  0  0  0  0  0  0
  182.8410  178.7710  144.0980 C   0  0  0  0  0  3  0  0  0  0  0  0
  186.0340  178.9820  143.6600 C   0  0  2  0  0  0  0  0  0  0  0  0
  187.8460  178.2160  142.0930 C   0  0  0  0  0  2  0  0  0  0  0  0
  189.2580  177.0110  140.5990 O   0  0  0  0  0  1  0  0  0  0  0  0
  188.6000  176.9190  141.8250 C   0  0  1  0  0  3  0  0  0  0  0  0
  189.5960  176.6250  142.9130 C   0  0  0  0  0  0  0  0  0  0  0  0
  190.0950  175.5130  143.0000 O   0  0  0  0  0  0  0  0  0  0  0  0
  191.3730  178.1960  143.6320 C   0  0  0  0  0  1  0  0  0  0  0  0
  189.9770  177.6760  143.9160 C   0  0  2  0  0  3  0  0  0  0  0  0
  189.9050  177.1500  145.3420 C   0  0  0  0  0  2  0  0  0  0  0  0
  191.2980  177.0020  145.9240 C   0  0  0  0  0  2  0  0  0  0  0  0
  191.2000  176.4360  147.3240 C   0  0  0  0  0  2  0  0  0  0  0  0
  192.4740  175.6880  147.6570 C   0  0  0  0  0  2  0  0  0  0  0  0
  193.1070  176.3050  148.7340 O   0  0  0  0  0  1  0  0  0  0  0  0
  2 10  1  0  0  0  0
  3  7  1  6  0  0  0
  3  9  1  0  0  0  0
  3 13  1  0  0  0  0
  4 12  1  6  0  0  0
  4  6  1  0  0  0  0
  5  4  1  0  0  0  0
  5  1  1  0  0  0  0
  5  6  1  6  0  0  0
  8 12  2  0  0  0  0
  9 14  1  6  0  0  0
  9 13  1  0  0  0  0
 10  3  1  0  0  0  0
 10  8  1  1  0  0  0
 11  2  1  0  0  0  0
 11  7  1  0  0  0  0
 13  5  1  0  0  0  0
 13  1  1  1  0  0  0
 16 15  1  6  0  0  0
 16 14  1  0  0  0  0
 16 17  1  0  0  0  0
 17 18  2  0  0  0  0
 17 20  1  0  0  0  0
 20 19  1  6  0  0  0
 20 21  1  0  0  0  0
 21 22  1  0  0  0  0
 22 23  1  0  0  0  0
 23 24  1  0  0  0  0
 24 25  1  0  0  0  0
M  END
>  <MODEL>
3

>  <REMARK>
 VINA RESULT:      -7.5      2.459      6.458
  Name = 
  8 active torsions:
  status: ('A' for Active; 'I' for Inactive)
    1  A    between atoms: C_1  and  C_9
    2  A    between atoms: C_1  and  C_12
    3  A    between atoms: C_4  and  C_12
    4  A    between atoms: C_7  and  C_11
    5  A    between atoms: C_7  and  C_20
    6  A    between atoms: C_9  and  C_20
    7  A    between atoms: C_11  and  C_15
    8  A    between atoms: C_15  and  C_19
                            x       y       z     vdW  Elec       q    Type
                         _______ _______ _______ _____ _____    ______ ____

>  <TORSDO>
F 8

$$$$
=
 OpenBabel10232408513D

 25 29  0  0  1  0  0  0  0  0999 V2000
  188.7390  177.9600  141.8620 O   0  0  0  0  0  0  0  0  0  0  0  0
  192.1320  176.3090  138.6530 N   0  0  0  0  0  2  0  0  0  0  0  0
  191.0780  177.2600  140.3940 C   0  0  2  0  0  0  0  0  0  0  0  0
  188.6910  178.4090  139.3180 C   0  0  2  0  0  3  0  0  0  0  0  0
  188.6340  177.5070  140.5530 C   0  0  2  0  0  0  0  0  0  0  0  0
  187.4270  178.3150  140.0630 C   0  0  0  0  0  2  0  0  0  0  0  0
  192.4590  177.7240  140.4700 N   0  0  0  0  0  2  0  0  0  0  0  0
  189.8180  176.5440  138.1340 C   0  0  0  0  0  3  0  0  0  0  0  0
  190.6110  176.7050  141.6840 C   0  0  2  0  0  3  0  0  0  0  0  0
  190.9420  176.4970  139.1030 C   0  0  1  0  0  3  0  0  0  0  0  0
  193.0270  176.9300  139.4910 O   0  0  0  0  0  0  0  0  0  0  0  0
  188.7950  177.4120  138.2080 C   0  0  0  0  0  3  0  0  0  0  0  0
  189.9460  178.0120  141.1650 C   0  0  2  0  0  0  0  0  0  0  0  0
  191.4730  177.0270  142.9040 C   0  0  0  0  0  2  0  0  0  0  0  0
  192.0890  175.1010  144.1650 O   0  0  0  0  0  1  0  0  0  0  0  0
  191.1250  176.1030  144.0650 C   0  0  1  0  0  3  0  0  0  0  0  0
  191.0400  176.8560  145.3640 C   0  0  0  0  0  0  0  0  0  0  0  0
  192.0100  176.9070  146.1040 O   0  0  0  0  0  0  0  0  0  0  0  0
  189.5630  177.4010  147.2780 C   0  0  0  0  0  1  0  0  0  0  0  0
  189.7660  177.5350  145.7810 C   0  0  2  0  0  3  0  0  0  0  0  0
  188.5580  176.9710  145.0470 C   0  0  0  0  0  2  0  0  0  0  0  0
  187.4230  177.9770  145.0400 C   0  0  0  0  0  2  0  0  0  0  0  0
  186.3090  177.4830  145.9370 C   0  0  0  0  0  2  0  0  0  0  0  0
  185.2570  178.5620  146.0760 C   0  0  0  0  0  2  0  0  0  0  0  0
  185.5920  179.4020  147.1370 O   0  0  0  0  0  1  0  0  0  0  0  0
  2 10  1  0  0  0  0
  2 11  1  0  0  0  0
  3  7  1  1  0  0  0
  3 13  1  0  0  0  0
  3  9  1  0  0  0  0
  4 12  1  6  0  0  0
  4  6  1  0  0  0  0
  4  5  1  0  0  0  0
  5  6  1  6  0  0  0
  5 13  1  0  0  0  0
  5  1  1  0  0  0  0
  8 12  2  0  0  0  0
  9 14  1  1  0  0  0
 10  8  1  6  0  0  0
 10  3  1  0  0  0  0
 11  7  1  0  0  0  0
 13  9  1  0  0  0  0
 13  1  1  1  0  0  0
 14 16  1  0  0  0  0
 16 15  1  1  0  0  0
 16 17  1  0  0  0  0
 17 20  1  0  0  0  0
 17 18  2  0  0  0  0
 20 19  1  1  0  0  0
 21 20  1  0  0  0  0
 22 21  1  0  0  0  0
 22 23  1  0  0  0  0
 23 24  1  0  0  0  0
 24 25  1  0  0  0  0
M  END
>  <MODEL>
4

>  <REMARK>
 VINA RESULT:      -7.3      2.863      5.826
  Name = 
  8 active torsions:
  status: ('A' for Active; 'I' for Inactive)
    1  A    between atoms: C_1  and  C_9
    2  A    between atoms: C_1  and  C_12
    3  A    between atoms: C_4  and  C_12
    4  A    between atoms: C_7  and  C_11
    5  A    between atoms: C_7  and  C_20
    6  A    between atoms: C_9  and  C_20
    7  A    between atoms: C_11  and  C_15
    8  A    between atoms: C_15  and  C_19
                            x       y       z     vdW  Elec       q    Type
                         _______ _______ _______ _____ _____    ______ ____

>  <TORSDO>
F 8

$$$$
=
 OpenBabel10232408513D

 25 29  0  0  1  0  0  0  0  0999 V2000
  186.6430  177.7100  142.8430 O   0  0  0  0  0  0  0  0  0  0  0  0
  191.2340  176.7890  144.4560 N   0  0  0  0  0  2  0  0  0  0  0  0
  189.3050  176.8070  143.3060 C   0  0  2  0  0  0  0  0  0  0  0  0
  187.2380  177.0470  145.2680 C   0  0  2  0  0  3  0  0  0  0  0  0
  187.2710  177.9770  144.0520 C   0  0  2  0  0  0  0  0  0  0  0  0
  186.0800  177.9170  145.0160 C   0  0  0  0  0  2  0  0  0  0  0  0
  190.0590  175.6710  142.7880 N   0  0  0  0  0  2  0  0  0  0  0  0
  189.5400  177.8100  145.7850 C   0  0  0  0  0  3  0  0  0  0  0  0
  188.8150  177.6860  142.2190 C   0  0  2  0  0  3  0  0  0  0  0  0
  190.0760  177.3490  144.4790 C   0  0  1  0  0  3  0  0  0  0  0  0
  191.2700  175.8870  143.4180 O   0  0  0  0  0  0  0  0  0  0  0  0
  188.2590  177.6710  146.1660 C   0  0  0  0  0  3  0  0  0  0  0  0
  187.7640  176.9120  143.0660 C   0  0  2  0  0  0  0  0  0  0  0  0
  188.8610  177.0970  140.8100 C   0  0  0  0  0  2  0  0  0  0  0  0
  190.8400  177.4080  139.5190 O   0  0  0  0  0  1  0  0  0  0  0  0
  189.6340  178.0150  139.8710 C   0  0  1  0  0  3  0  0  0  0  0  0
  188.8440  178.3290  138.6300 C   0  0  0  0  0  0  0  0  0  0  0  0
  189.0110  179.3920  138.0530 O   0  0  0  0  0  0  0  0  0  0  0  0
  188.4740  176.4240  137.0880 C   0  0  0  0  0  1  0  0  0  0  0  0
  187.8300  177.3580  138.0950 C   0  0  2  0  0  3  0  0  0  0  0  0
  186.6480  178.0700  137.4530 C   0  0  0  0  0  2  0  0  0  0  0  0
  185.3860  177.2410  137.5970 C   0  0  0  0  0  2  0  0  0  0  0  0
  184.2670  178.1160  138.1200 C   0  0  0  0  0  2  0  0  0  0  0  0
  184.7160  178.8020  139.3920 C   0  0  0  0  0  2  0  0  0  0  0  0
  184.4390  180.1650  139.3070 O   0  0  0  0  0  1  0  0  0  0  0  0
  1  5  1  0  0  0  0
  2 10  1  0  0  0  0
  3  7  1  6  0  0  0
  3 10  1  0  0  0  0
  4  6  1  1  0  0  0
  4 12  1  0  0  0  0
  5  6  1  1  0  0  0
  5  4  1  0  0  0  0
  7 11  1  0  0  0  0
  8 12  2  0  0  0  0
  9 14  1  6  0  0  0
  9 13  1  0  0  0  0
  9  3  1  0  0  0  0
 10  8  1  1  0  0  0
 11  2  1  0  0  0  0
 13  1  1  6  0  0  0
 13  3  1  0  0  0  0
 13  5  1  0  0  0  0
 16 15  1  6  0  0  0
 16 14  1  0  0  0  0
 17 16  1  0  0  0  0
 18 17  2  0  0  0  0
 20 19  1  6  0  0  0
 20 17  1  0  0  0  0
 21 22  1  0  0  0  0
 21 20  1  0  0  0  0
 22 23  1  0  0  0  0
 23 24  1  0  0  0  0
 25 24  1  0  0  0  0
M  END
>  <MODEL>
5

>  <REMARK>
 VINA RESULT:      -7.1      2.511      4.065
  Name = 
  8 active torsions:
  status: ('A' for Active; 'I' for Inactive)
    1  A    between atoms: C_1  and  C_9
    2  A    between atoms: C_1  and  C_12
    3  A    between atoms: C_4  and  C_12
    4  A    between atoms: C_7  and  C_11
    5  A    between atoms: C_7  and  C_20
    6  A    between atoms: C_9  and  C_20
    7  A    between atoms: C_11  and  C_15
    8  A    between atoms: C_15  and  C_19
                            x       y       z     vdW  Elec       q    Type
                         _______ _______ _______ _____ _____    ______ ____

>  <TORSDO>
F 8

$$$$
=
 OpenBabel10232408513D

 25 29  0  0  1  0  0  0  0  0999 V2000
  187.4970  178.5100  139.6110 O   0  0  0  0  0  0  0  0  0  0  0  0
  191.5460  175.9100  138.4370 N   0  0  0  0  0  2  0  0  0  0  0  0
  190.0710  177.3090  139.3930 C   0  0  2  0  0  0  0  0  0  0  0  0
  188.5230  178.3850  137.2430 C   0  0  2  0  0  3  0  0  0  0  0  0
  187.8380  177.7880  138.4740 C   0  0  2  0  0  0  0  0  0  0  0  0
  187.0710  178.5650  137.3970 C   0  0  0  0  0  2  0  0  0  0  0  0
  191.3690  177.6610  139.9580 N   0  0  0  0  0  2  0  0  0  0  0  0
  189.6940  176.2160  136.9700 C   0  0  0  0  0  3  0  0  0  0  0  0
  189.0510  177.0950  140.4440 C   0  0  2  0  0  3  0  0  0  0  0  0
  190.3250  176.2930  138.3120 C   0  0  1  0  0  3  0  0  0  0  0  0
  192.1330  176.6260  139.4540 O   0  0  0  0  0  0  0  0  0  0  0  0
  188.8840  177.1610  136.4620 C   0  0  0  0  0  3  0  0  0  0  0  0
  188.8710  178.3050  139.4820 C   0  0  2  0  0  0  0  0  0  0  0  0
  189.4080  177.6080  141.8380 C   0  0  0  0  0  2  0  0  0  0  0  0
  190.3720  175.5570  142.5750 O   0  0  0  0  0  1  0  0  0  0  0  0
  189.3590  176.4740  142.8540 C   0  0  1  0  0  3  0  0  0  0  0  0
  189.5130  176.9850  144.2610 C   0  0  0  0  0  0  0  0  0  0  0  0
  190.5460  176.7740  144.8770 O   0  0  0  0  0  0  0  0  0  0  0  0
  188.5260  177.6270  146.4420 C   0  0  0  0  0  1  0  0  0  0  0  0
  188.4010  177.7370  144.9340 C   0  0  2  0  0  3  0  0  0  0  0  0
  187.0320  177.2380  144.4940 C   0  0  0  0  0  2  0  0  0  0  0  0
  185.9360  178.1100  145.0770 C   0  0  0  0  0  2  0  0  0  0  0  0
  184.9850  178.5240  143.9760 C   0  0  0  0  0  2  0  0  0  0  0  0
  183.6870  179.0090  144.5860 C   0  0  0  0  0  2  0  0  0  0  0  0
  183.7460  178.8720  145.9720 O   0  0  0  0  0  1  0  0  0  0  0  0
  2 11  1  0  0  0  0
  3 13  1  0  0  0  0
  3  7  1  1  0  0  0
  3  9  1  0  0  0  0
  4 12  1  6  0  0  0
  4  6  1  0  0  0  0
  4  5  1  0  0  0  0
  5  6  1  6  0  0  0
  5 13  1  0  0  0  0
  5  1  1  0  0  0  0
  9 14  1  1  0  0  0
 10  8  1  6  0  0  0
 10  2  1  0  0  0  0
 10  3  1  0  0  0  0
 11  7  1  0  0  0  0
 12  8  2  0  0  0  0
 13  1  1  1  0  0  0
 13  9  1  0  0  0  0
 14 16  1  0  0  0  0
 16 15  1  6  0  0  0
 16 17  1  0  0  0  0
 17 18  2  0  0  0  0
 17 20  1  0  0  0  0
 20 19  1  1  0  0  0
 21 20  1  0  0  0  0
 21 22  1  0  0  0  0
 23 24  1  0  0  0  0
 23 22  1  0  0  0  0
 24 25  1  0  0  0  0
M  END
>  <MODEL>
6

>  <REMARK>
 VINA RESULT:      -7.1      3.180      5.967
  Name = 
  8 active torsions:
  status: ('A' for Active; 'I' for Inactive)
    1  A    between atoms: C_1  and  C_9
    2  A    between atoms: C_1  and  C_12
    3  A    between atoms: C_4  and  C_12
    4  A    between atoms: C_7  and  C_11
    5  A    between atoms: C_7  and  C_20
    6  A    between atoms: C_9  and  C_20
    7  A    between atoms: C_11  and  C_15
    8  A    between atoms: C_15  and  C_19
                            x       y       z     vdW  Elec       q    Type
                         _______ _______ _______ _____ _____    ______ ____

>  <TORSDO>
F 8

$$$$
=
 OpenBabel10232408513D

 25 29  0  0  1  0  0  0  0  0999 V2000
  187.6030  177.5560  141.9320 O   0  0  0  0  0  0  0  0  0  0  0  0
  191.4190  176.4720  144.8960 N   0  0  0  0  0  2  0  0  0  0  0  0
  189.9330  176.5340  143.2130 C   0  0  2  0  0  0  0  0  0  0  0  0
  187.3930  176.9920  144.4440 C   0  0  2  0  0  3  0  0  0  0  0  0
  187.8540  177.8520  143.2650 C   0  0  2  0  0  0  0  0  0  0  0  0
  186.4260  177.9100  143.8220 C   0  0  0  0  0  2  0  0  0  0  0  0
  190.7280  175.3320  142.9900 N   0  0  0  0  0  2  0  0  0  0  0  0
  189.4780  177.6550  145.6100 C   0  0  0  0  0  3  0  0  0  0  0  0
  189.8550  177.3790  142.0000 C   0  0  2  0  0  3  0  0  0  0  0  0
  190.3490  177.0950  144.5470 C   0  0  1  0  0  3  0  0  0  0  0  0
  191.7050  175.5150  143.9510 O   0  0  0  0  0  0  0  0  0  0  0  0
  188.1350  177.6070  145.5880 C   0  0  0  0  0  3  0  0  0  0  0  0
  188.5470  176.7100  142.5130 C   0  0  2  0  0  0  0  0  0  0  0  0
  190.2820  176.7130  140.6920 C   0  0  0  0  0  2  0  0  0  0  0  0
  192.4880  177.5230  141.0910 O   0  0  0  0  0  1  0  0  0  0  0  0
  191.5040  177.4130  140.1100 C   0  0  1  0  0  3  0  0  0  0  0  0
  192.0530  176.6700  138.9230 C   0  0  0  0  0  0  0  0  0  0  0  0
  193.2310  176.7880  138.6210 O   0  0  0  0  0  0  0  0  0  0  0  0
  191.9500  174.6150  137.5420 C   0  0  0  0  0  1  0  0  0  0  0  0
  191.1670  175.7960  138.0820 C   0  0  2  0  0  3  0  0  0  0  0  0
  190.5390  176.5670  136.9300 C   0  0  0  0  0  2  0  0  0  0  0  0
  189.0280  176.4500  136.9730 C   0  0  0  0  0  2  0  0  0  0  0  0
  188.4110  177.7920  136.6430 C   0  0  0  0  0  2  0  0  0  0  0  0
  189.1370  178.8820  137.4010 C   0  0  0  0  0  2  0  0  0  0  0  0
  188.6020  178.9890  138.6840 O   0  0  0  0  0  1  0  0  0  0  0  0
  1  5  1  0  0  0  0
  3  7  1  6  0  0  0
  3 10  1  0  0  0  0
  4  6  1  1  0  0  0
  4 12  1  0  0  0  0
  5  6  1  1  0  0  0
  5  4  1  0  0  0  0
  7 11  1  0  0  0  0
  9 14  1  6  0  0  0
  9 13  1  0  0  0  0
  9  3  1  0  0  0  0
 10  2  1  0  0  0  0
 10  8  1  1  0  0  0
 11  2  1  0  0  0  0
 12  8  2  0  0  0  0
 13  1  1  6  0  0  0
 13  3  1  0  0  0  0
 13  5  1  0  0  0  0
 16 14  1  0  0  0  0
 16 15  1  1  0  0  0
 17 16  1  0  0  0  0
 18 17  2  0  0  0  0
 20 19  1  6  0  0  0
 20 17  1  0  0  0  0
 21 22  1  0  0  0  0
 21 20  1  0  0  0  0
 23 22  1  0  0  0  0
 23 24  1  0  0  0  0
 24 25  1  0  0  0  0
M  END
>  <MODEL>
7

>  <REMARK>
 VINA RESULT:      -7.1      3.667      5.835
  Name = 
  8 active torsions:
  status: ('A' for Active; 'I' for Inactive)
    1  A    between atoms: C_1  and  C_9
    2  A    between atoms: C_1  and  C_12
    3  A    between atoms: C_4  and  C_12
    4  A    between atoms: C_7  and  C_11
    5  A    between atoms: C_7  and  C_20
    6  A    between atoms: C_9  and  C_20
    7  A    between atoms: C_11  and  C_15
    8  A    between atoms: C_15  and  C_19
                            x       y       z     vdW  Elec       q    Type
                         _______ _______ _______ _____ _____    ______ ____

>  <TORSDO>
F 8

$$$$
=
 OpenBabel10232408513D

 25 29  0  0  1  0  0  0  0  0999 V2000
  187.1620  178.3910  139.7970 O   0  0  0  0  0  0  0  0  0  0  0  0
  191.6110  176.8190  141.3010 N   0  0  0  0  0  2  0  0  0  0  0  0
  189.6060  177.8200  141.1430 C   0  0  2  0  0  0  0  0  0  0  0  0
  189.3250  178.5570  138.3950 C   0  0  2  0  0  3  0  0  0  0  0  0
  188.2120  177.7920  139.1140 C   0  0  2  0  0  0  0  0  0  0  0  0
  188.0310  178.3950  137.7160 C   0  0  0  0  0  2  0  0  0  0  0  0
  190.2710  178.4490  142.2790 N   0  0  0  0  0  2  0  0  0  0  0  0
  190.8630  176.7220  139.0400 C   0  0  0  0  0  3  0  0  0  0  0  0
  188.2440  177.3550  141.4890 C   0  0  2  0  0  3  0  0  0  0  0  0
  190.6150  176.9130  140.4920 C   0  0  1  0  0  3  0  0  0  0  0  0
  191.3770  177.6280  142.3880 O   0  0  0  0  0  0  0  0  0  0  0  0
  190.2980  177.4660  138.0750 C   0  0  0  0  0  3  0  0  0  0  0  0
  188.3840  178.5110  140.4570 C   0  0  2  0  0  0  0  0  0  0  0  0
  187.6570  177.9060  142.7880 C   0  0  0  0  0  2  0  0  0  0  0  0
  188.1540  175.6430  143.3460 O   0  0  0  0  0  1  0  0  0  0  0  0
  187.5990  176.8170  143.8520 C   0  0  1  0  0  3  0  0  0  0  0  0
  188.3310  177.2260  145.1010 C   0  0  0  0  0  0  0  0  0  0  0  0
  189.4960  176.8970  145.2620 O   0  0  0  0  0  0  0  0  0  0  0  0
  188.2120  177.6750  147.5360 C   0  0  0  0  0  1  0  0  0  0  0  0
  187.6420  178.0210  146.1740 C   0  0  2  0  0  3  0  0  0  0  0  0
  186.1380  177.7890  146.1730 C   0  0  0  0  0  2  0  0  0  0  0  0
  185.4000  179.0870  145.9070 C   0  0  0  0  0  2  0  0  0  0  0  0
  184.0750  178.7850  145.2420 C   0  0  0  0  0  2  0  0  0  0  0  0
  184.1880  179.0370  143.7540 C   0  0  0  0  0  2  0  0  0  0  0  0
  182.9370  178.8770  143.1600 O   0  0  0  0  0  1  0  0  0  0  0  0
  2 11  1  0  0  0  0
  3  9  1  0  0  0  0
  3  7  1  1  0  0  0
  4  6  1  6  0  0  0
  4  5  1  0  0  0  0
  5  6  1  6  0  0  0
  5  1  1  0  0  0  0
  5 13  1  0  0  0  0
  7 11  1  0  0  0  0
  9 14  1  1  0  0  0
 10  8  1  6  0  0  0
 10  3  1  0  0  0  0
 10  2  1  0  0  0  0
 12  4  1  0  0  0  0
 12  8  2  0  0  0  0
 13  1  1  1  0  0  0
 13  3  1  0  0  0  0
 13  9  1  0  0  0  0
 14 16  1  0  0  0  0
 16 15  1  6  0  0  0
 16 17  1  0  0  0  0
 17 18  2  0  0  0  0
 17 20  1  0  0  0  0
 20 19  1  1  0  0  0
 21 20  1  0  0  0  0
 22 21  1  0  0  0  0
 23 22  1  0  0  0  0
 24 23  1  0  0  0  0
 25 24  1  0  0  0  0
M  END
>  <MODEL>
8

>  <REMARK>
 VINA RESULT:      -7.1      2.639      5.288
  Name = 
  8 active torsions:
  status: ('A' for Active; 'I' for Inactive)
    1  A    between atoms: C_1  and  C_9
    2  A    between atoms: C_1  and  C_12
    3  A    between atoms: C_4  and  C_12
    4  A    between atoms: C_7  and  C_11
    5  A    between atoms: C_7  and  C_20
    6  A    between atoms: C_9  and  C_20
    7  A    between atoms: C_11  and  C_15
    8  A    between atoms: C_15  and  C_19
                            x       y       z     vdW  Elec       q    Type
                         _______ _______ _______ _____ _____    ______ ____

>  <TORSDO>
F 8

$$$$
=
 OpenBabel10232408513D

 25 29  0  0  1  0  0  0  0  0999 V2000
  191.4920  176.9090  140.8790 O   0  0  0  0  0  0  0  0  0  0  0  0
  186.8650  177.8810  142.3550 N   0  0  0  0  0  2  0  0  0  0  0  0
  188.9410  177.0490  142.1380 C   0  0  2  0  0  0  0  0  0  0  0  0
  189.4290  176.9180  139.3240 C   0  0  2  0  0  3  0  0  0  0  0  0
  190.4430  177.5780  140.2610 C   0  0  2  0  0  0  0  0  0  0  0  0
  190.7460  177.2900  138.7850 C   0  0  0  0  0  2  0  0  0  0  0  0
  188.2580  176.1610  143.0720 N   0  0  0  0  0  2  0  0  0  0  0  0
  187.7320  178.4880  140.2210 C   0  0  0  0  0  3  0  0  0  0  0  0
  190.2450  177.5080  142.6660 C   0  0  2  0  0  3  0  0  0  0  0  0
  187.9100  178.0140  141.6160 C   0  0  1  0  0  3  0  0  0  0  0  0
  187.0930  176.8780  143.2690 O   0  0  0  0  0  0  0  0  0  0  0  0
  188.4030  177.9950  139.1660 C   0  0  0  0  0  3  0  0  0  0  0  0
  190.2450  176.5860  141.4130 C   0  0  2  0  0  0  0  0  0  0  0  0
  190.7940  176.7330  143.8640 C   0  0  0  0  0  2  0  0  0  0  0  0
  190.7370  178.9770  144.6650 O   0  0  0  0  0  1  0  0  0  0  0  0
  191.1210  177.6810  145.0110 C   0  0  1  0  0  3  0  0  0  0  0  0
  190.4280  177.2700  146.2820 C   0  0  0  0  0  0  0  0  0  0  0  0
  190.8530  176.3270  146.9310 O   0  0  0  0  0  0  0  0  0  0  0  0
  189.1780  178.0480  148.2750 C   0  0  0  0  0  1  0  0  0  0  0  0
  189.2010  177.9920  146.7590 C   0  0  2  0  0  3  0  0  0  0  0  0
  187.9250  177.3380  146.2500 C   0  0  0  0  0  2  0  0  0  0  0  0
  186.7070  177.9910  146.8740 C   0  0  0  0  0  2  0  0  0  0  0  0
  186.0940  178.9590  145.8850 C   0  0  0  0  0  2  0  0  0  0  0  0
  184.7640  178.4180  145.4060 C   0  0  0  0  0  2  0  0  0  0  0  0
  183.7300  179.1630  145.9690 O   0  0  0  0  0  1  0  0  0  0  0  0
  2 11  1  0  0  0  0
  3  9  1  0  0  0  0
  3  7  1  1  0  0  0
  4  6  1  6  0  0  0
  4  5  1  0  0  0  0
  5  6  1  1  0  0  0
  5  1  1  0  0  0  0
  5 13  1  0  0  0  0
  7 11  1  0  0  0  0
  9 14  1  1  0  0  0
 10  8  1  6  0  0  0
 10  3  1  0  0  0  0
 10  2  1  0  0  0  0
 12  4  1  0  0  0  0
 12  8  2  0  0  0  0
 13  1  1  6  0  0  0
 13  3  1  0  0  0  0
 13  9  1  0  0  0  0
 14 16  1  0  0  0  0
 16 15  1  6  0  0  0
 16 17  1  0  0  0  0
 17 20  1  0  0  0  0
 17 18  2  0  0  0  0
 20 19  1  1  0  0  0
 21 20  1  0  0  0  0
 21 22  1  0  0  0  0
 23 22  1  0  0  0  0
 24 23  1  0  0  0  0
 24 25  1  0  0  0  0
M  END
>  <MODEL>
9

>  <REMARK>
 VINA RESULT:      -7.1      2.421      5.683
  Name = 
  8 active torsions:
  status: ('A' for Active; 'I' for Inactive)
    1  A    between atoms: C_1  and  C_9
    2  A    between atoms: C_1  and  C_12
    3  A    between atoms: C_4  and  C_12
    4  A    between atoms: C_7  and  C_11
    5  A    between atoms: C_7  and  C_20
    6  A    between atoms: C_9  and  C_20
    7  A    between atoms: C_11  and  C_15
    8  A    between atoms: C_15  and  C_19
                            x       y       z     vdW  Elec       q    Type
                         _______ _______ _______ _____ _____    ______ ____

>  <TORSDO>
F 8

$$$$
