=
 OpenBabel10232409013D

 46 50  0  0  1  0  0  0  0  0999 V2000
  189.3880  177.2110  135.8730 C   0  0  2  0  0  3  0  0  0  0  0  0
  191.3880  177.3090  138.9590 C   0  0  0  0  0  3  0  0  0  0  0  0
  189.6160  177.9630  134.5770 C   0  0  0  0  0  1  0  0  0  0  0  0
  188.5220  178.0400  136.8150 C   0  0  2  0  0  3  0  0  0  0  0  0
  190.7130  176.9890  136.5920 C   0  0  1  0  0  3  0  0  0  0  0  0
  189.0340  177.7910  138.2400 C   0  0  1  0  0  3  0  0  0  0  0  0
  188.2590  176.6980  138.9700 C   0  0  0  0  0  1  0  0  0  0  0  0
  190.4350  177.3300  138.0170 C   0  0  0  0  0  0  0  0  0  0  0  0
  192.9590  173.9580  135.9140 C   0  0  0  0  0  0  0  0  0  0  0  0
  192.5200  175.3060  136.0320 C   0  0  0  0  0  0  0  0  0  0  0  0
  195.7970  178.2570  135.0170 C   0  0  0  0  0  1  0  0  0  0  0  0
  192.4880  171.5880  136.0730 O   0  0  0  0  0  1  0  0  0  0  0  0
  192.0720  172.9090  136.1910 C   0  0  0  0  0  0  0  0  0  0  0  0
  190.3280  174.5010  136.7080 C   0  0  0  0  0  3  0  0  0  0  0  0
  190.7640  173.1830  136.5860 C   0  0  0  0  0  3  0  0  0  0  0  0
  191.1950  175.5700  136.4310 C   0  0  0  0  0  0  0  0  0  0  0  0
  195.1570  174.5930  135.2410 C   0  0  0  0  0  0  0  0  0  0  0  0
  194.3060  173.6550  135.5110 N   0  0  0  0  0  0  0  0  0  0  0  0
  194.8220  175.9930  135.3240 C   0  0  0  0  0  0  0  0  0  0  0  0
  196.4920  174.3390  134.8450 N   0  0  0  0  0  2  0  0  0  0  0  0
  197.3490  175.8660  134.5690 S   0  0  0  0  0  0  0  0  0  0  0  0
  195.8500  176.7670  135.0080 C   0  0  0  0  0  0  0  0  0  0  0  0
  193.4630  176.4590  135.7510 C   0  0  0  0  0  2  0  0  0  0  0  0
  191.1250  177.6930  140.3800 C   0  0  0  0  0  2  0  0  0  0  0  0
  190.8130  176.7840  142.6290 C   0  0  1  0  0  3  0  0  0  0  0  0
  191.3580  176.5010  141.2850 C   0  0  1  0  0  3  0  0  0  0  0  0
  190.1180  175.9830  141.7040 O   0  0  0  0  0  0  0  0  0  0  0  0
  191.4910  175.8940  143.6530 C   0  0  0  0  0  2  0  0  0  0  0  0
  191.5890  176.6070  144.9900 C   0  0  0  0  0  2  0  0  0  0  0  0
  190.3130  176.9190  145.4630 O   0  0  0  0  0  0  0  0  0  0  0  0
  190.4100  176.7810  146.8470 C   0  0  0  0  0  2  0  0  0  0  0  0
  191.8070  176.8090  147.2420 N   0  0  0  0  0  1  0  0  0  0  0  0
  187.1130  177.7130  136.6480 N   0  0  0  0  0  2  0  0  0  0  0  0
  184.4830  177.1720  137.4020 O   0  0  0  0  0  0  0  0  0  0  0  0
  186.4060  178.4790  137.5840 N   0  0  0  0  0  2  0  0  0  0  0  0
  185.0580  178.1620  137.9260 C   0  0  0  0  0  0  0  0  0  0  0  0
  184.3150  179.0330  138.8790 C   0  0  0  0  0  2  0  0  0  0  0  0
  184.3230  178.4290  140.2400 C   0  0  0  0  0  0  0  0  0  0  0  0
  183.4070  177.6320  140.5720 O   0  0  0  0  0  0  0  0  0  0  0  0
  185.3500  178.7870  141.1680 N   0  0  0  0  0  2  0  0  0  0  0  0
  185.3960  178.2640  142.5250 C   0  0  1  0  0  3  0  0  0  0  0  0
  186.9470  177.0780  144.2720 O   0  0  0  0  0  0  0  0  0  0  0  0
  187.0920  177.8130  142.9480 S   0  0  0  0  0  3  0  0  0  0  0  0
  184.8860  179.3250  143.4830 C   0  0  0  0  0  2  0  0  0  0  0  0
  183.9290  178.7790  144.3380 O   0  0  0  0  0  0  0  0  0  0  0  0
  182.7110  179.0660  143.7260 C   0  0  0  0  0  1  0  0  0  0  0  0
  1  3  1  6  0  0  0
  1  5  1  0  0  0  0
  1  4  1  0  0  0  0
  2 24  1  0  0  0  0
  4 33  1  1  0  0  0
  4  6  1  0  0  0  0
  5 16  1  1  0  0  0
  5  8  1  0  0  0  0
  6  7  1  6  0  0  0
  8  6  1  0  0  0  0
  8  2  2  0  0  0  0
  9 10  2  0  0  0  0
  9 13  1  0  0  0  0
 10 16  1  0  0  0  0
 12 13  1  0  0  0  0
 13 15  2  0  0  0  0
 15 14  1  0  0  0  0
 16 14  2  0  0  0  0
 17 19  1  0  0  0  0
 17 18  2  0  0  0  0
 18  9  1  0  0  0  0
 19 23  1  0  0  0  0
 20 17  1  0  0  0  0
 21 20  1  0  0  0  0
 21 22  1  0  0  0  0
 22 11  1  0  0  0  0
 22 19  2  0  0  0  0
 23 10  1  0  0  0  0
 25 28  1  1  0  0  0
 26 24  1  6  0  0  0
 26 27  1  0  0  0  0
 26 25  1  0  0  0  0
 27 25  1  0  0  0  0
 28 29  1  0  0  0  0
 29 30  1  0  0  0  0
 30 31  1  0  0  0  0
 31 32  1  0  0  0  0
 33 35  1  0  0  0  0
 34 36  2  0  0  0  0
 35 36  1  0  0  0  0
 36 37  1  0  0  0  0
 37 38  1  0  0  0  0
 38 39  2  0  0  0  0
 38 40  1  0  0  0  0
 40 41  1  0  0  0  0
 41 43  1  0  0  0  0
 41 44  1  1  0  0  0
 43 42  2  0  0  0  0
 44 45  1  0  0  0  0
 46 45  1  0  0  0  0
M  END
>  <MODEL>
1

>  <REMARK>
 VINA RESULT:      -5.8      0.000      0.000
  Name = 
  15 active torsions:
  status: ('A' for Active; 'I' for Inactive)
    1  A    between atoms: C_1  and  C_10
    2  A    between atoms: C_1  and  N_34
    3  A    between atoms: C_1  and  S_36
    4  A    between atoms: C_2  and  O_37
    5  A    between atoms: O_3  and  C_10
    6  A    between atoms: C_8  and  C_16
    7  A    between atoms: C_8  and  C_19
    8  A    between atoms: C_9  and  C_11
    9  A    between atoms: C_11  and  C_21
   10  A    between atoms: C_13  and  C_15
   11  A    between atoms: C_13  and  C_45
   12  A    between atoms: C_21  and  O_37
   13  A    between atoms: N_24  and  N_25
   14  A    between atoms: N_25  and  C_35
   15  A    between atoms: C_26  and  C_38
                            x       y       z     vdW  Elec       q    Type
                         _______ _______ _______ _____ _____    ______ ____

>  <TORSDO>
F 15

$$$$
=
 OpenBabel10232409013D

 46 50  0  0  1  0  0  0  0  0999 V2000
  183.3470  178.7360  142.7150 C   0  0  2  0  0  3  0  0  0  0  0  0
  185.9880  179.0400  140.1710 C   0  0  0  0  0  3  0  0  0  0  0  0
  182.3350  179.7760  143.1520 C   0  0  0  0  0  1  0  0  0  0  0  0
  184.6150  178.8530  143.5520 C   0  0  2  0  0  3  0  0  0  0  0  0
  183.7620  178.9830  141.2690 C   0  0  1  0  0  3  0  0  0  0  0  0
  185.8010  178.5540  142.6250 C   0  0  1  0  0  3  0  0  0  0  0  0
  186.2530  177.0970  142.6860 C   0  0  0  0  0  1  0  0  0  0  0  0
  185.2470  178.8360  141.2700 C   0  0  0  0  0  0  0  0  0  0  0  0
  181.7430  177.5340  138.3520 C   0  0  0  0  0  0  0  0  0  0  0  0
  182.3390  178.4730  139.2380 C   0  0  0  0  0  0  0  0  0  0  0  0
  181.4670  182.7460  138.0290 C   0  0  0  0  0  1  0  0  0  0  0  0
  181.3260  175.2340  137.7200 O   0  0  0  0  0  1  0  0  0  0  0  0
  181.9090  176.1610  138.5760 C   0  0  0  0  0  0  0  0  0  0  0  0
  183.2520  176.6270  140.5300 C   0  0  0  0  0  3  0  0  0  0  0  0
  182.6610  175.7130  139.6600 C   0  0  0  0  0  3  0  0  0  0  0  0
  183.0960  178.0080  140.3320 C   0  0  0  0  0  0  0  0  0  0  0  0
  180.7820  179.2350  136.9830 C   0  0  0  0  0  0  0  0  0  0  0  0
  180.9650  177.9760  137.2250 N   0  0  0  0  0  0  0  0  0  0  0  0
  181.3360  180.2740  137.8160 C   0  0  0  0  0  0  0  0  0  0  0  0
  180.0280  179.7120  135.8850 N   0  0  0  0  0  2  0  0  0  0  0  0
  180.0050  181.4850  135.8830 S   0  0  0  0  0  0  0  0  0  0  0  0
  181.0210  181.4830  137.3730 C   0  0  0  0  0  0  0  0  0  0  0  0
  182.1850  179.9630  139.0110 C   0  0  0  0  0  2  0  0  0  0  0  0
  187.4800  178.9380  140.1770 C   0  0  0  0  0  2  0  0  0  0  0  0
  189.3950  178.0100  138.9710 C   0  0  1  0  0  3  0  0  0  0  0  0
  187.9290  177.9280  139.1400 C   0  0  1  0  0  3  0  0  0  0  0  0
  188.7950  176.9960  139.7410 O   0  0  0  0  0  0  0  0  0  0  0  0
  189.7840  177.4470  137.6170 C   0  0  0  0  0  2  0  0  0  0  0  0
  191.0760  176.6570  137.7270 C   0  0  0  0  0  2  0  0  0  0  0  0
  191.7720  177.0320  138.8780 O   0  0  0  0  0  0  0  0  0  0  0  0
  193.0340  176.4560  138.7260 C   0  0  0  0  0  2  0  0  0  0  0  0
  193.5080  176.6750  137.3710 N   0  0  0  0  0  1  0  0  0  0  0  0
  184.5570  177.9720  144.7100 N   0  0  0  0  0  2  0  0  0  0  0  0
  184.8080  178.6060  147.4140 O   0  0  0  0  0  0  0  0  0  0  0  0
  185.7910  178.0820  145.3640 N   0  0  0  0  0  2  0  0  0  0  0  0
  185.8610  178.4180  146.7490 C   0  0  0  0  0  0  0  0  0  0  0  0
  187.1900  178.5860  147.4000 C   0  0  0  0  0  2  0  0  0  0  0  0
  188.1530  177.5810  146.8680 C   0  0  0  0  0  0  0  0  0  0  0  0
  188.2960  176.4810  147.4640 O   0  0  0  0  0  0  0  0  0  0  0  0
  188.9300  177.8890  145.7080 N   0  0  0  0  0  2  0  0  0  0  0  0
  189.9150  176.9700  145.1590 C   0  0  1  0  0  3  0  0  0  0  0  0
  190.0780  175.5630  142.9550 O   0  0  0  0  0  0  0  0  0  0  0  0
  189.8500  177.0130  143.3550 S   0  0  0  0  0  3  0  0  0  0  0  0
  191.2960  177.3780  145.6400 C   0  0  0  0  0  2  0  0  0  0  0  0
  192.0450  176.2460  145.9610 O   0  0  0  0  0  0  0  0  0  0  0  0
  191.7870  176.0310  147.3140 C   0  0  0  0  0  1  0  0  0  0  0  0
  1  3  1  1  0  0  0
  1  4  1  0  0  0  0
  2 24  1  0  0  0  0
  2  8  2  0  0  0  0
  4 33  1  1  0  0  0
  5 16  1  6  0  0  0
  5  8  1  0  0  0  0
  5  1  1  0  0  0  0
  6  7  1  6  0  0  0
  6  4  1  0  0  0  0
  8  6  1  0  0  0  0
  9 13  2  0  0  0  0
  9 10  1  0  0  0  0
 10 16  2  0  0  0  0
 12 13  1  0  0  0  0
 13 15  1  0  0  0  0
 15 14  2  0  0  0  0
 16 14  1  0  0  0  0
 17 18  2  0  0  0  0
 17 19  1  0  0  0  0
 18  9  1  0  0  0  0
 19 23  1  0  0  0  0
 20 17  1  0  0  0  0
 21 20  1  0  0  0  0
 21 22  1  0  0  0  0
 22 19  2  0  0  0  0
 22 11  1  0  0  0  0
 23 10  1  0  0  0  0
 25 28  1  6  0  0  0
 25 26  1  0  0  0  0
 25 27  1  0  0  0  0
 26 27  1  0  0  0  0
 26 24  1  1  0  0  0
 28 29  1  0  0  0  0
 29 30  1  0  0  0  0
 31 30  1  0  0  0  0
 32 31  1  0  0  0  0
 33 35  1  0  0  0  0
 35 36  1  0  0  0  0
 36 37  1  0  0  0  0
 36 34  2  0  0  0  0
 38 37  1  0  0  0  0
 38 39  2  0  0  0  0
 40 38  1  0  0  0  0
 41 44  1  6  0  0  0
 41 40  1  0  0  0  0
 42 43  2  0  0  0  0
 43 41  1  0  0  0  0
 44 45  1  0  0  0  0
 45 46  1  0  0  0  0
M  END
>  <MODEL>
2

>  <REMARK>
 VINA RESULT:      -5.3      3.575      9.730
  Name = 
  15 active torsions:
  status: ('A' for Active; 'I' for Inactive)
    1  A    between atoms: C_1  and  C_10
    2  A    between atoms: C_1  and  N_34
    3  A    between atoms: C_1  and  S_36
    4  A    between atoms: C_2  and  O_37
    5  A    between atoms: O_3  and  C_10
    6  A    between atoms: C_8  and  C_16
    7  A    between atoms: C_8  and  C_19
    8  A    between atoms: C_9  and  C_11
    9  A    between atoms: C_11  and  C_21
   10  A    between atoms: C_13  and  C_15
   11  A    between atoms: C_13  and  C_45
   12  A    between atoms: C_21  and  O_37
   13  A    between atoms: N_24  and  N_25
   14  A    between atoms: N_25  and  C_35
   15  A    between atoms: C_26  and  C_38
                            x       y       z     vdW  Elec       q    Type
                         _______ _______ _______ _____ _____    ______ ____

>  <TORSDO>
F 15

$$$$
=
 OpenBabel10232409013D

 46 50  0  0  1  0  0  0  0  0999 V2000
  186.9930  178.3100  141.0030 C   0  0  2  0  0  3  0  0  0  0  0  0
  188.8080  175.8590  143.0600 C   0  0  0  0  0  3  0  0  0  0  0  0
  185.8040  178.0800  140.0920 C   0  0  0  0  0  1  0  0  0  0  0  0
  188.2920  178.1120  140.2310 C   0  0  2  0  0  3  0  0  0  0  0  0
  187.0000  177.2810  142.1260 C   0  0  1  0  0  3  0  0  0  0  0  0
  189.2950  177.4590  141.1900 C   0  0  1  0  0  3  0  0  0  0  0  0
  190.2080  178.4700  141.8790 C   0  0  0  0  0  1  0  0  0  0  0  0
  188.4160  176.8200  142.2110 C   0  0  0  0  0  0  0  0  0  0  0  0
  184.7400  178.8170  144.8140 C   0  0  0  0  0  0  0  0  0  0  0  0
  185.1760  178.2800  143.5720 C   0  0  0  0  0  0  0  0  0  0  0  0
  181.8330  178.1000  140.5270 C   0  0  0  0  0  1  0  0  0  0  0  0
  185.2330  179.4760  147.0910 O   0  0  0  0  0  1  0  0  0  0  0  0
  185.6460  178.9470  145.8740 C   0  0  0  0  0  0  0  0  0  0  0  0
  187.4060  178.0150  144.5040 C   0  0  0  0  0  3  0  0  0  0  0  0
  186.9720  178.5460  145.7170 C   0  0  0  0  0  3  0  0  0  0  0  0
  186.5190  177.8810  143.4240 C   0  0  0  0  0  0  0  0  0  0  0  0
  182.5050  179.1350  144.0440 C   0  0  0  0  0  0  0  0  0  0  0  0
  183.3750  179.2330  144.9980 N   0  0  0  0  0  0  0  0  0  0  0  0
  182.8360  178.6090  142.7420 C   0  0  0  0  0  0  0  0  0  0  0  0
  181.1530  179.5290  144.1830 N   0  0  0  0  0  2  0  0  0  0  0  0
  180.2730  179.2410  142.6720 S   0  0  0  0  0  0  0  0  0  0  0  0
  181.7870  178.6010  141.9310 C   0  0  0  0  0  0  0  0  0  0  0  0
  184.2130  178.1170  142.4130 C   0  0  0  0  0  2  0  0  0  0  0  0
  190.2170  175.3620  143.1170 C   0  0  0  0  0  2  0  0  0  0  0  0
  191.1940  175.8200  145.3130 C   0  0  1  0  0  3  0  0  0  0  0  0
  191.0660  176.3210  143.9280 C   0  0  1  0  0  3  0  0  0  0  0  0
  192.2260  175.6560  144.3690 O   0  0  0  0  0  0  0  0  0  0  0  0
  191.5410  176.9690  146.2410 C   0  0  0  0  0  2  0  0  0  0  0  0
  190.6890  176.9090  147.4950 C   0  0  0  0  0  2  0  0  0  0  0  0
  189.3890  176.5130  147.1750 O   0  0  0  0  0  0  0  0  0  0  0  0
  188.5890  177.1240  148.1410 C   0  0  0  0  0  2  0  0  0  0  0  0
  189.2150  178.3580  148.5810 N   0  0  0  0  0  1  0  0  0  0  0  0
  188.7670  179.3740  139.6790 N   0  0  0  0  0  2  0  0  0  0  0  0
  187.3060  179.0240  137.3300 O   0  0  0  0  0  0  0  0  0  0  0  0
  189.3550  179.0790  138.4430 N   0  0  0  0  0  2  0  0  0  0  0  0
  188.5590  178.9020  137.2730 C   0  0  0  0  0  0  0  0  0  0  0  0
  189.2110  178.5300  135.9870 C   0  0  0  0  0  2  0  0  0  0  0  0
  188.7730  177.1710  135.5630 C   0  0  0  0  0  0  0  0  0  0  0  0
  188.2950  177.0030  134.4110 O   0  0  0  0  0  0  0  0  0  0  0  0
  188.8690  176.0780  136.4790 N   0  0  0  0  0  2  0  0  0  0  0  0
  188.4250  174.7340  136.1430 C   0  0  1  0  0  3  0  0  0  0  0  0
  190.4210  174.1120  137.7220 O   0  0  0  0  0  0  0  0  0  0  0  0
  189.7500  173.5530  136.4760 S   0  0  0  0  0  3  0  0  0  0  0  0
  187.2030  174.3920  136.9770 C   0  0  0  0  0  2  0  0  0  0  0  0
  186.5350  175.5590  137.3480 O   0  0  0  0  0  0  0  0  0  0  0  0
  185.4350  175.6160  136.4950 C   0  0  0  0  0  1  0  0  0  0  0  0
  1  3  1  6  0  0  0
  1  5  1  0  0  0  0
  2 24  1  0  0  0  0
  4 33  1  1  0  0  0
  4  1  1  0  0  0  0
  4  6  1  0  0  0  0
  5  8  1  0  0  0  0
  5 16  1  1  0  0  0
  6  7  1  1  0  0  0
  6  8  1  0  0  0  0
  8  2  2  0  0  0  0
  9 18  1  0  0  0  0
  9 13  1  0  0  0  0
 10  9  2  0  0  0  0
 11 22  1  0  0  0  0
 13 12  1  0  0  0  0
 14 15  1  0  0  0  0
 15 13  2  0  0  0  0
 16 10  1  0  0  0  0
 16 14  2  0  0  0  0
 17 20  1  0  0  0  0
 17 18  2  0  0  0  0
 19 17  1  0  0  0  0
 21 20  1  0  0  0  0
 22 21  1  0  0  0  0
 22 19  2  0  0  0  0
 23 19  1  0  0  0  0
 23 10  1  0  0  0  0
 25 28  1  1  0  0  0
 26 24  1  6  0  0  0
 26 27  1  0  0  0  0
 26 25  1  0  0  0  0
 27 25  1  0  0  0  0
 28 29  1  0  0  0  0
 30 29  1  0  0  0  0
 30 31  1  0  0  0  0
 31 32  1  0  0  0  0
 35 33  1  0  0  0  0
 36 34  2  0  0  0  0
 36 35  1  0  0  0  0
 37 36  1  0  0  0  0
 38 37  1  0  0  0  0
 38 40  1  0  0  0  0
 39 38  2  0  0  0  0
 41 43  1  0  0  0  0
 41 40  1  0  0  0  0
 41 44  1  1  0  0  0
 43 42  2  0  0  0  0
 44 45  1  0  0  0  0
 46 45  1  0  0  0  0
M  END
>  <MODEL>
3

>  <REMARK>
 VINA RESULT:      -5.3      3.826      9.238
  Name = 
  15 active torsions:
  status: ('A' for Active; 'I' for Inactive)
    1  A    between atoms: C_1  and  C_10
    2  A    between atoms: C_1  and  N_34
    3  A    between atoms: C_1  and  S_36
    4  A    between atoms: C_2  and  O_37
    5  A    between atoms: O_3  and  C_10
    6  A    between atoms: C_8  and  C_16
    7  A    between atoms: C_8  and  C_19
    8  A    between atoms: C_9  and  C_11
    9  A    between atoms: C_11  and  C_21
   10  A    between atoms: C_13  and  C_15
   11  A    between atoms: C_13  and  C_45
   12  A    between atoms: C_21  and  O_37
   13  A    between atoms: N_24  and  N_25
   14  A    between atoms: N_25  and  C_35
   15  A    between atoms: C_26  and  C_38
                            x       y       z     vdW  Elec       q    Type
                         _______ _______ _______ _____ _____    ______ ____

>  <TORSDO>
F 15

$$$$
=
 OpenBabel10232409013D

 46 50  0  0  1  0  0  0  0  0999 V2000
  192.0930  176.4700  138.1150 C   0  0  2  0  0  3  0  0  0  0  0  0
  191.5790  173.8160  135.6190 C   0  0  0  0  0  3  0  0  0  0  0  0
  192.4400  176.3290  139.5840 C   0  0  0  0  0  1  0  0  0  0  0  0
  190.5810  176.4650  137.9280 C   0  0  2  0  0  3  0  0  0  0  0  0
  192.6260  175.2750  137.3330 C   0  0  1  0  0  3  0  0  0  0  0  0
  190.2870  175.7180  136.6210 C   0  0  1  0  0  3  0  0  0  0  0  0
  190.1310  176.6500  135.4230 C   0  0  0  0  0  1  0  0  0  0  0  0
  191.5050  174.8790  136.4330 C   0  0  0  0  0  0  0  0  0  0  0  0
  196.0880  175.0610  135.7020 C   0  0  0  0  0  0  0  0  0  0  0  0
  194.9340  174.7120  136.4560 C   0  0  0  0  0  0  0  0  0  0  0  0
  195.2540  170.5610  138.2300 C   0  0  0  0  0  1  0  0  0  0  0  0
  197.2870  176.6700  134.3460 O   0  0  0  0  0  1  0  0  0  0  0  0
  196.1620  176.3140  135.0800 C   0  0  0  0  0  0  0  0  0  0  0  0
  193.9690  176.8790  135.9270 C   0  0  0  0  0  3  0  0  0  0  0  0
  195.1050  177.2170  135.1940 C   0  0  0  0  0  3  0  0  0  0  0  0
  193.8730  175.6330  136.5650 C   0  0  0  0  0  0  0  0  0  0  0  0
  197.1640  172.9770  136.1320 C   0  0  0  0  0  0  0  0  0  0  0  0
  197.1880  174.1430  135.5700 N   0  0  0  0  0  0  0  0  0  0  0  0
  196.0480  172.5180  136.9220 C   0  0  0  0  0  0  0  0  0  0  0  0
  198.2220  172.0420  136.0240 N   0  0  0  0  0  2  0  0  0  0  0  0
  197.8260  170.5650  136.9200 S   0  0  0  0  0  0  0  0  0  0  0  0
  196.2450  171.2930  137.3910 C   0  0  0  0  0  0  0  0  0  0  0  0
  194.8240  173.3570  137.1270 C   0  0  0  0  0  2  0  0  0  0  0  0
  190.4420  173.3890  134.7480 C   0  0  0  0  0  2  0  0  0  0  0  0
  188.1520  172.5710  135.0130 C   0  0  1  0  0  3  0  0  0  0  0  0
  189.5370  172.4430  135.5120 C   0  0  1  0  0  3  0  0  0  0  0  0
  188.9840  171.5050  134.6210 O   0  0  0  0  0  0  0  0  0  0  0  0
  187.1810  172.0850  136.0730 C   0  0  0  0  0  2  0  0  0  0  0  0
  186.3560  173.2440  136.6020 C   0  0  0  0  0  2  0  0  0  0  0  0
  185.6700  172.8580  137.7560 O   0  0  0  0  0  0  0  0  0  0  0  0
  184.4820  173.5880  137.7170 C   0  0  0  0  0  2  0  0  0  0  0  0
  183.9200  173.5320  136.3800 N   0  0  0  0  0  1  0  0  0  0  0  0
  190.0510  177.8210  137.9440 N   0  0  0  0  0  2  0  0  0  0  0  0
  187.4680  178.2340  138.9100 O   0  0  0  0  0  0  0  0  0  0  0  0
  189.7680  178.1300  139.2800 N   0  0  0  0  0  2  0  0  0  0  0  0
  188.4270  178.3400  139.7190 C   0  0  0  0  0  0  0  0  0  0  0  0
  188.1660  178.7260  141.1330 C   0  0  0  0  0  2  0  0  0  0  0  0
  188.7400  177.7090  142.0580 C   0  0  0  0  0  0  0  0  0  0  0  0
  188.9420  176.5370  141.6450 O   0  0  0  0  0  0  0  0  0  0  0  0
  189.0240  178.0640  143.4130 N   0  0  0  0  0  2  0  0  0  0  0  0
  189.5500  177.1110  144.3780 C   0  0  1  0  0  3  0  0  0  0  0  0
  191.8440  175.8880  144.0560 O   0  0  0  0  0  0  0  0  0  0  0  0
  191.3470  177.2650  144.4700 S   0  0  0  0  0  3  0  0  0  0  0  0
  188.9340  177.3910  145.7370 C   0  0  0  0  0  2  0  0  0  0  0  0
  187.5450  177.2910  145.6630 O   0  0  0  0  0  0  0  0  0  0  0  0
  187.0850  177.9900  146.7780 C   0  0  0  0  0  1  0  0  0  0  0  0
  1  3  1  1  0  0  0
  2  8  2  0  0  0  0
  4 33  1  6  0  0  0
  4  1  1  0  0  0  0
  5 16  1  6  0  0  0
  5  1  1  0  0  0  0
  6  7  1  6  0  0  0
  6  4  1  0  0  0  0
  8  6  1  0  0  0  0
  8  5  1  0  0  0  0
  9 10  1  0  0  0  0
 10 16  2  0  0  0  0
 10 23  1  0  0  0  0
 12 13  1  0  0  0  0
 13 15  1  0  0  0  0
 13  9  2  0  0  0  0
 14 16  1  0  0  0  0
 15 14  2  0  0  0  0
 17 19  1  0  0  0  0
 18  9  1  0  0  0  0
 18 17  2  0  0  0  0
 19 23  1  0  0  0  0
 19 22  2  0  0  0  0
 20 17  1  0  0  0  0
 20 21  1  0  0  0  0
 21 22  1  0  0  0  0
 22 11  1  0  0  0  0
 24  2  1  0  0  0  0
 25 26  1  0  0  0  0
 25 28  1  1  0  0  0
 26 24  1  6  0  0  0
 27 25  1  0  0  0  0
 27 26  1  0  0  0  0
 28 29  1  0  0  0  0
 29 30  1  0  0  0  0
 31 30  1  0  0  0  0
 32 31  1  0  0  0  0
 33 35  1  0  0  0  0
 34 36  2  0  0  0  0
 35 36  1  0  0  0  0
 36 37  1  0  0  0  0
 37 38  1  0  0  0  0
 38 40  1  0  0  0  0
 39 38  2  0  0  0  0
 40 41  1  0  0  0  0
 41 43  1  0  0  0  0
 41 44  1  1  0  0  0
 42 43  2  0  0  0  0
 45 44  1  0  0  0  0
 45 46  1  0  0  0  0
M  END
>  <MODEL>
4

>  <REMARK>
 VINA RESULT:      -5.2      3.043      5.972
  Name = 
  15 active torsions:
  status: ('A' for Active; 'I' for Inactive)
    1  A    between atoms: C_1  and  C_10
    2  A    between atoms: C_1  and  N_34
    3  A    between atoms: C_1  and  S_36
    4  A    between atoms: C_2  and  O_37
    5  A    between atoms: O_3  and  C_10
    6  A    between atoms: C_8  and  C_16
    7  A    between atoms: C_8  and  C_19
    8  A    between atoms: C_9  and  C_11
    9  A    between atoms: C_11  and  C_21
   10  A    between atoms: C_13  and  C_15
   11  A    between atoms: C_13  and  C_45
   12  A    between atoms: C_21  and  O_37
   13  A    between atoms: N_24  and  N_25
   14  A    between atoms: N_25  and  C_35
   15  A    between atoms: C_26  and  C_38
                            x       y       z     vdW  Elec       q    Type
                         _______ _______ _______ _____ _____    ______ ____

>  <TORSDO>
F 15

$$$$
=
 OpenBabel10232409013D

 46 50  0  0  1  0  0  0  0  0999 V2000
  188.5380  177.2220  139.4430 C   0  0  2  0  0  3  0  0  0  0  0  0
  189.9010  177.0570  136.0300 C   0  0  0  0  0  3  0  0  0  0  0  0
  187.7500  178.3430  140.0910 C   0  0  0  0  0  1  0  0  0  0  0  0
  190.0310  177.4350  139.6610 C   0  0  2  0  0  3  0  0  0  0  0  0
  188.3190  177.2300  137.9350 C   0  0  1  0  0  3  0  0  0  0  0  0
  190.7480  176.9640  138.3890 C   0  0  1  0  0  3  0  0  0  0  0  0
  191.2440  175.5230  138.4820 C   0  0  0  0  0  1  0  0  0  0  0  0
  189.6790  177.0460  137.3520 C   0  0  0  0  0  0  0  0  0  0  0  0
  185.1010  175.3220  137.1020 C   0  0  0  0  0  0  0  0  0  0  0  0
  185.9760  176.3570  137.5320 C   0  0  0  0  0  0  0  0  0  0  0  0
  183.7250  180.0660  138.8170 C   0  0  0  0  0  1  0  0  0  0  0  0
  184.7810  173.0770  136.2530 O   0  0  0  0  0  1  0  0  0  0  0  0
  185.6270  174.0980  136.6690 C   0  0  0  0  0  0  0  0  0  0  0  0
  187.8700  174.9060  137.0680 C   0  0  0  0  0  3  0  0  0  0  0  0
  187.0060  173.8940  136.6530 C   0  0  0  0  0  3  0  0  0  0  0  0
  187.3680  176.1380  137.5130 C   0  0  0  0  0  0  0  0  0  0  0  0
  183.1450  176.6260  137.5060 C   0  0  0  0  0  0  0  0  0  0  0  0
  183.6750  175.5130  137.1080 N   0  0  0  0  0  0  0  0  0  0  0  0
  183.9350  177.7420  137.9650 C   0  0  0  0  0  0  0  0  0  0  0  0
  181.7490  176.8580  137.5240 N   0  0  0  0  0  2  0  0  0  0  0  0
  181.4070  178.4910  138.1230 S   0  0  0  0  0  0  0  0  0  0  0  0
  183.1780  178.7730  138.3150 C   0  0  0  0  0  0  0  0  0  0  0  0
  185.4330  177.6940  137.9930 C   0  0  0  0  0  2  0  0  0  0  0  0
  191.2680  176.9180  135.4420 C   0  0  0  0  0  2  0  0  0  0  0  0
  192.1950  174.6570  135.3370 C   0  0  1  0  0  3  0  0  0  0  0  0
  191.3500  175.6420  134.6290 C   0  0  1  0  0  3  0  0  0  0  0  0
  190.7890  174.5820  135.3670 O   0  0  0  0  0  0  0  0  0  0  0  0
  192.7290  173.6390  134.3470 C   0  0  0  0  0  2  0  0  0  0  0  0
  193.9750  172.9710  134.8990 C   0  0  0  0  0  2  0  0  0  0  0  0
  193.7850  172.6320  136.2400 O   0  0  0  0  0  0  0  0  0  0  0  0
  193.4920  171.2680  136.2170 C   0  0  0  0  0  2  0  0  0  0  0  0
  194.5630  170.5300  136.8620 N   0  0  0  0  0  1  0  0  0  0  0  0
  190.4850  176.7470  140.8610 N   0  0  0  0  0  2  0  0  0  0  0  0
  191.0870  176.1030  143.5070 O   0  0  0  0  0  0  0  0  0  0  0  0
  190.2080  177.5930  141.9420 N   0  0  0  0  0  2  0  0  0  0  0  0
  190.5300  177.2100  143.2780 C   0  0  0  0  0  0  0  0  0  0  0  0
  190.1680  178.1070  144.4100 C   0  0  0  0  0  2  0  0  0  0  0  0
  188.8430  177.7200  144.9690 C   0  0  0  0  0  0  0  0  0  0  0  0
  188.7820  176.8630  145.8900 O   0  0  0  0  0  0  0  0  0  0  0  0
  187.6510  178.2980  144.4310 N   0  0  0  0  0  2  0  0  0  0  0  0
  186.3230  177.9370  144.9040 C   0  0  1  0  0  3  0  0  0  0  0  0
  184.5310  178.5730  146.7060 O   0  0  0  0  0  0  0  0  0  0  0  0
  186.0410  178.6570  146.5360 S   0  0  0  0  0  3  0  0  0  0  0  0
  185.2890  178.4560  143.9210 C   0  0  0  0  0  2  0  0  0  0  0  0
  185.4570  177.8400  142.6810 O   0  0  0  0  0  0  0  0  0  0  0  0
  184.3170  178.1930  141.9610 C   0  0  0  0  0  1  0  0  0  0  0  0
  1  4  1  0  0  0  0
  1  3  1  1  0  0  0
  2  8  2  0  0  0  0
  4 33  1  1  0  0  0
  5 16  1  1  0  0  0
  5  1  1  0  0  0  0
  6  7  1  1  0  0  0
  6  4  1  0  0  0  0
  8  5  1  0  0  0  0
  8  6  1  0  0  0  0
  9 18  1  0  0  0  0
  9 10  1  0  0  0  0
 10 23  1  0  0  0  0
 12 13  1  0  0  0  0
 13  9  2  0  0  0  0
 14 16  1  0  0  0  0
 15 13  1  0  0  0  0
 15 14  2  0  0  0  0
 16 10  2  0  0  0  0
 17 20  1  0  0  0  0
 17 19  1  0  0  0  0
 18 17  2  0  0  0  0
 19 23  1  0  0  0  0
 19 22  2  0  0  0  0
 20 21  1  0  0  0  0
 21 22  1  0  0  0  0
 22 11  1  0  0  0  0
 24  2  1  0  0  0  0
 25 28  1  6  0  0  0
 25 27  1  0  0  0  0
 26 25  1  0  0  0  0
 26 27  1  0  0  0  0
 26 24  1  1  0  0  0
 28 29  1  0  0  0  0
 29 30  1  0  0  0  0
 31 30  1  0  0  0  0
 31 32  1  0  0  0  0
 33 35  1  0  0  0  0
 35 36  1  0  0  0  0
 36 34  2  0  0  0  0
 36 37  1  0  0  0  0
 37 38  1  0  0  0  0
 38 39  2  0  0  0  0
 40 41  1  0  0  0  0
 40 38  1  0  0  0  0
 41 44  1  6  0  0  0
 41 43  1  0  0  0  0
 43 42  2  0  0  0  0
 45 44  1  0  0  0  0
 46 45  1  0  0  0  0
M  END
>  <MODEL>
5

>  <REMARK>
 VINA RESULT:      -5.2      3.519      7.951
  Name = 
  15 active torsions:
  status: ('A' for Active; 'I' for Inactive)
    1  A    between atoms: C_1  and  C_10
    2  A    between atoms: C_1  and  N_34
    3  A    between atoms: C_1  and  S_36
    4  A    between atoms: C_2  and  O_37
    5  A    between atoms: O_3  and  C_10
    6  A    between atoms: C_8  and  C_16
    7  A    between atoms: C_8  and  C_19
    8  A    between atoms: C_9  and  C_11
    9  A    between atoms: C_11  and  C_21
   10  A    between atoms: C_13  and  C_15
   11  A    between atoms: C_13  and  C_45
   12  A    between atoms: C_21  and  O_37
   13  A    between atoms: N_24  and  N_25
   14  A    between atoms: N_25  and  C_35
   15  A    between atoms: C_26  and  C_38
                            x       y       z     vdW  Elec       q    Type
                         _______ _______ _______ _____ _____    ______ ____

>  <TORSDO>
F 15

$$$$
=
 OpenBabel10232409013D

 46 50  0  0  1  0  0  0  0  0999 V2000
  186.7920  177.7530  138.1750 C   0  0  2  0  0  3  0  0  0  0  0  0
  188.5820  176.7250  135.1290 C   0  0  0  0  0  3  0  0  0  0  0  0
  185.6300  178.7160  138.3060 C   0  0  0  0  0  1  0  0  0  0  0  0
  188.1130  178.5040  138.2850 C   0  0  2  0  0  3  0  0  0  0  0  0
  186.7820  177.1020  136.7960 C   0  0  1  0  0  3  0  0  0  0  0  0
  189.0990  177.8360  137.3180 C   0  0  1  0  0  3  0  0  0  0  0  0
  189.9810  176.7900  137.9940 C   0  0  0  0  0  1  0  0  0  0  0  0
  188.2010  177.1580  136.3390 C   0  0  0  0  0  0  0  0  0  0  0  0
  184.4440  174.0700  136.6260 C   0  0  0  0  0  0  0  0  0  0  0  0
  184.9050  175.4150  136.5880 C   0  0  0  0  0  0  0  0  0  0  0  0
  181.5990  178.3210  135.5400 C   0  0  0  0  0  1  0  0  0  0  0  0
  184.8940  171.7180  136.9820 O   0  0  0  0  0  1  0  0  0  0  0  0
  185.3350  173.0350  136.9360 C   0  0  0  0  0  0  0  0  0  0  0  0
  187.1350  174.6330  137.1610 C   0  0  0  0  0  3  0  0  0  0  0  0
  186.6740  173.3190  137.2010 C   0  0  0  0  0  3  0  0  0  0  0  0
  186.2610  175.6890  136.8590 C   0  0  0  0  0  0  0  0  0  0  0  0
  182.2070  174.6820  136.0660 C   0  0  0  0  0  0  0  0  0  0  0  0
  183.0670  173.7560  136.3520 N   0  0  0  0  0  0  0  0  0  0  0  0
  182.5630  176.0780  136.0020 C   0  0  0  0  0  0  0  0  0  0  0  0
  180.8460  174.4170  135.7870 N   0  0  0  0  0  2  0  0  0  0  0  0
  179.9870  175.9280  135.4380 S   0  0  0  0  0  0  0  0  0  0  0  0
  181.5240  176.8390  135.6880 C   0  0  0  0  0  0  0  0  0  0  0  0
  183.9640  176.5510  136.2420 C   0  0  0  0  0  2  0  0  0  0  0  0
  189.9940  176.8210  134.6480 C   0  0  0  0  0  2  0  0  0  0  0  0
  191.5260  175.0540  135.3670 C   0  0  1  0  0  3  0  0  0  0  0  0
  190.5280  175.4340  134.3460 C   0  0  1  0  0  3  0  0  0  0  0  0
  190.2050  174.5690  135.4080 O   0  0  0  0  0  0  0  0  0  0  0  0
  192.4390  173.9770  134.8120 C   0  0  0  0  0  2  0  0  0  0  0  0
  193.8830  174.2700  135.1760 C   0  0  0  0  0  2  0  0  0  0  0  0
  194.2000  173.6770  136.4000 O   0  0  0  0  0  0  0  0  0  0  0  0
  195.0760  174.5760  137.0070 C   0  0  0  0  0  2  0  0  0  0  0  0
  195.0290  175.8480  136.3080 N   0  0  0  0  0  1  0  0  0  0  0  0
  188.5870  178.5230  139.6620 N   0  0  0  0  0  2  0  0  0  0  0  0
  188.6860  177.8440  142.3650 O   0  0  0  0  0  0  0  0  0  0  0  0
  187.4530  178.4550  140.4810 N   0  0  0  0  0  2  0  0  0  0  0  0
  187.5610  178.0930  141.8570 C   0  0  0  0  0  0  0  0  0  0  0  0
  186.3290  177.9710  142.6850 C   0  0  0  0  0  2  0  0  0  0  0  0
  185.1970  178.6870  142.0320 C   0  0  0  0  0  0  0  0  0  0  0  0
  185.2540  179.9360  141.8840 O   0  0  0  0  0  0  0  0  0  0  0  0
  184.0440  177.9540  141.6110 N   0  0  0  0  0  2  0  0  0  0  0  0
  182.8890  178.5950  141.0010 C   0  0  1  0  0  3  0  0  0  0  0  0
  183.0050  176.2730  139.7940 O   0  0  0  0  0  0  0  0  0  0  0  0
  182.3230  177.6180  139.5930 S   0  0  0  0  0  3  0  0  0  0  0  0
  181.7830  178.7080  142.0340 C   0  0  0  0  0  2  0  0  0  0  0  0
  180.5370  178.6880  141.4060 O   0  0  0  0  0  0  0  0  0  0  0  0
  180.2710  180.0250  141.1190 C   0  0  0  0  0  1  0  0  0  0  0  0
  1  4  1  0  0  0  0
  1  3  1  6  0  0  0
  2  8  2  0  0  0  0
  4 33  1  1  0  0  0
  5 16  1  1  0  0  0
  5  1  1  0  0  0  0
  6  7  1  1  0  0  0
  6  4  1  0  0  0  0
  8  5  1  0  0  0  0
  8  6  1  0  0  0  0
  9 13  1  0  0  0  0
 10  9  2  0  0  0  0
 10 16  1  0  0  0  0
 11 22  1  0  0  0  0
 13 12  1  0  0  0  0
 13 15  2  0  0  0  0
 14 15  1  0  0  0  0
 16 14  2  0  0  0  0
 17 18  2  0  0  0  0
 18  9  1  0  0  0  0
 19 17  1  0  0  0  0
 19 23  1  0  0  0  0
 20 17  1  0  0  0  0
 21 22  1  0  0  0  0
 21 20  1  0  0  0  0
 22 19  2  0  0  0  0
 23 10  1  0  0  0  0
 24  2  1  0  0  0  0
 25 28  1  6  0  0  0
 25 27  1  0  0  0  0
 26 24  1  1  0  0  0
 26 25  1  0  0  0  0
 26 27  1  0  0  0  0
 28 29  1  0  0  0  0
 29 30  1  0  0  0  0
 30 31  1  0  0  0  0
 32 31  1  0  0  0  0
 33 35  1  0  0  0  0
 35 36  1  0  0  0  0
 36 34  2  0  0  0  0
 36 37  1  0  0  0  0
 38 37  1  0  0  0  0
 39 38  2  0  0  0  0
 40 38  1  0  0  0  0
 41 40  1  0  0  0  0
 41 44  1  1  0  0  0
 43 42  2  0  0  0  0
 43 41  1  0  0  0  0
 45 44  1  0  0  0  0
 46 45  1  0  0  0  0
M  END
>  <MODEL>
6

>  <REMARK>
 VINA RESULT:      -5.0      3.753      7.883
  Name = 
  15 active torsions:
  status: ('A' for Active; 'I' for Inactive)
    1  A    between atoms: C_1  and  C_10
    2  A    between atoms: C_1  and  N_34
    3  A    between atoms: C_1  and  S_36
    4  A    between atoms: C_2  and  O_37
    5  A    between atoms: O_3  and  C_10
    6  A    between atoms: C_8  and  C_16
    7  A    between atoms: C_8  and  C_19
    8  A    between atoms: C_9  and  C_11
    9  A    between atoms: C_11  and  C_21
   10  A    between atoms: C_13  and  C_15
   11  A    between atoms: C_13  and  C_45
   12  A    between atoms: C_21  and  O_37
   13  A    between atoms: N_24  and  N_25
   14  A    between atoms: N_25  and  C_35
   15  A    between atoms: C_26  and  C_38
                            x       y       z     vdW  Elec       q    Type
                         _______ _______ _______ _____ _____    ______ ____

>  <TORSDO>
F 15

$$$$
=
 OpenBabel10232409013D

 46 50  0  0  1  0  0  0  0  0999 V2000
  184.5040  178.7780  142.9370 C   0  0  2  0  0  3  0  0  0  0  0  0
  187.4330  178.3350  140.7560 C   0  0  0  0  0  3  0  0  0  0  0  0
  183.7070  180.0400  143.2020 C   0  0  0  0  0  1  0  0  0  0  0  0
  185.6540  178.6640  143.9300 C   0  0  2  0  0  3  0  0  0  0  0  0
  185.1360  178.8380  141.5520 C   0  0  1  0  0  3  0  0  0  0  0  0
  186.8440  178.0540  143.1790 C   0  0  1  0  0  3  0  0  0  0  0  0
  186.9440  176.5400  143.3460 C   0  0  0  0  0  1  0  0  0  0  0  0
  186.5370  178.3680  141.7530 C   0  0  0  0  0  0  0  0  0  0  0  0
  184.1670  176.9530  138.3580 C   0  0  0  0  0  0  0  0  0  0  0  0
  184.8790  177.7910  139.2600 C   0  0  0  0  0  0  0  0  0  0  0  0
  188.6060  179.5380  137.3810 C   0  0  0  0  0  1  0  0  0  0  0  0
  182.2770  175.5110  137.8980 O   0  0  0  0  0  1  0  0  0  0  0  0
  182.9840  176.3270  138.7730 C   0  0  0  0  0  0  0  0  0  0  0  0
  183.2010  177.3350  140.9600 C   0  0  0  0  0  3  0  0  0  0  0  0
  182.5070  176.5190  140.0690 C   0  0  0  0  0  3  0  0  0  0  0  0
  184.3850  177.9780  140.5670 C   0  0  0  0  0  0  0  0  0  0  0  0
  185.7310  177.3020  136.5910 C   0  0  0  0  0  0  0  0  0  0  0  0
  184.6450  176.7400  137.0180 N   0  0  0  0  0  0  0  0  0  0  0  0
  186.5300  178.1730  137.4170 C   0  0  0  0  0  0  0  0  0  0  0  0
  186.2380  177.1170  135.2830 N   0  0  0  0  0  2  0  0  0  0  0  0
  187.7360  178.0400  135.0720 S   0  0  0  0  0  0  0  0  0  0  0  0
  187.5950  178.6270  136.7710 C   0  0  0  0  0  0  0  0  0  0  0  0
  186.1670  178.4690  138.8410 C   0  0  0  0  0  2  0  0  0  0  0  0
  188.8510  177.9080  140.9620 C   0  0  0  0  0  2  0  0  0  0  0  0
  190.6290  177.2130  139.4330 C   0  0  1  0  0  3  0  0  0  0  0  0
  189.2520  176.9230  139.8830 C   0  0  1  0  0  3  0  0  0  0  0  0
  190.3500  176.1630  140.3290 O   0  0  0  0  0  0  0  0  0  0  0  0
  190.8430  176.6420  138.0440 C   0  0  0  0  0  2  0  0  0  0  0  0
  192.2300  176.0350  137.9320 C   0  0  0  0  0  2  0  0  0  0  0  0
  192.6470  176.0330  136.5990 O   0  0  0  0  0  0  0  0  0  0  0  0
  194.0070  175.7260  136.6590 C   0  0  0  0  0  2  0  0  0  0  0  0
  194.3780  175.4300  138.0320 N   0  0  0  0  0  1  0  0  0  0  0  0
  185.2580  177.8900  145.0980 N   0  0  0  0  0  2  0  0  0  0  0  0
  185.6070  179.3820  147.4280 O   0  0  0  0  0  0  0  0  0  0  0  0
  186.3890  177.7860  145.9170 N   0  0  0  0  0  2  0  0  0  0  0  0
  186.5200  178.5800  147.0950 C   0  0  0  0  0  0  0  0  0  0  0  0
  187.7620  178.4890  147.9110 C   0  0  0  0  0  2  0  0  0  0  0  0
  188.7150  177.5270  147.2900 C   0  0  0  0  0  0  0  0  0  0  0  0
  188.9050  176.4050  147.8290 O   0  0  0  0  0  0  0  0  0  0  0  0
  189.4300  177.9000  146.1100 N   0  0  0  0  0  2  0  0  0  0  0  0
  190.4030  177.0250  145.4750 C   0  0  1  0  0  3  0  0  0  0  0  0
  190.4820  179.1670  143.9690 O   0  0  0  0  0  0  0  0  0  0  0  0
  190.8720  177.7000  143.8670 S   0  0  0  0  0  3  0  0  0  0  0  0
  191.6260  176.9120  146.3670 C   0  0  0  0  0  2  0  0  0  0  0  0
  191.9840  175.5730  146.5210 O   0  0  0  0  0  0  0  0  0  0  0  0
  192.4050  175.4750  147.8460 C   0  0  0  0  0  1  0  0  0  0  0  0
  1  3  1  1  0  0  0
  1  4  1  0  0  0  0
  2 24  1  0  0  0  0
  2  8  2  0  0  0  0
  4 33  1  1  0  0  0
  5 16  1  6  0  0  0
  5  8  1  0  0  0  0
  5  1  1  0  0  0  0
  6  7  1  6  0  0  0
  6  4  1  0  0  0  0
  8  6  1  0  0  0  0
  9 13  2  0  0  0  0
  9 10  1  0  0  0  0
 10 16  2  0  0  0  0
 12 13  1  0  0  0  0
 13 15  1  0  0  0  0
 15 14  2  0  0  0  0
 16 14  1  0  0  0  0
 17 18  2  0  0  0  0
 17 19  1  0  0  0  0
 18  9  1  0  0  0  0
 19 23  1  0  0  0  0
 20 17  1  0  0  0  0
 21 20  1  0  0  0  0
 21 22  1  0  0  0  0
 22 11  1  0  0  0  0
 22 19  2  0  0  0  0
 23 10  1  0  0  0  0
 25 28  1  6  0  0  0
 25 26  1  0  0  0  0
 25 27  1  0  0  0  0
 26 27  1  0  0  0  0
 26 24  1  1  0  0  0
 29 28  1  0  0  0  0
 30 31  1  0  0  0  0
 30 29  1  0  0  0  0
 31 32  1  0  0  0  0
 33 35  1  0  0  0  0
 35 36  1  0  0  0  0
 36 34  2  0  0  0  0
 36 37  1  0  0  0  0
 38 39  2  0  0  0  0
 38 37  1  0  0  0  0
 40 38  1  0  0  0  0
 41 40  1  0  0  0  0
 41 44  1  1  0  0  0
 43 42  2  0  0  0  0
 43 41  1  0  0  0  0
 44 45  1  0  0  0  0
 45 46  1  0  0  0  0
M  END
>  <MODEL>
7

>  <REMARK>
 VINA RESULT:      -4.9      2.863      8.198
  Name = 
  15 active torsions:
  status: ('A' for Active; 'I' for Inactive)
    1  A    between atoms: C_1  and  C_10
    2  A    between atoms: C_1  and  N_34
    3  A    between atoms: C_1  and  S_36
    4  A    between atoms: C_2  and  O_37
    5  A    between atoms: O_3  and  C_10
    6  A    between atoms: C_8  and  C_16
    7  A    between atoms: C_8  and  C_19
    8  A    between atoms: C_9  and  C_11
    9  A    between atoms: C_11  and  C_21
   10  A    between atoms: C_13  and  C_15
   11  A    between atoms: C_13  and  C_45
   12  A    between atoms: C_21  and  O_37
   13  A    between atoms: N_24  and  N_25
   14  A    between atoms: N_25  and  C_35
   15  A    between atoms: C_26  and  C_38
                            x       y       z     vdW  Elec       q    Type
                         _______ _______ _______ _____ _____    ______ ____

>  <TORSDO>
F 15

$$$$
=
 OpenBabel10232409013D

 46 50  0  0  1  0  0  0  0  0999 V2000
  188.2730  177.9850  137.4110 C   0  0  2  0  0  3  0  0  0  0  0  0
  184.9810  176.7470  136.3340 C   0  0  0  0  0  3  0  0  0  0  0  0
  188.9970  179.2430  136.9740 C   0  0  0  0  0  1  0  0  0  0  0  0
  188.6300  176.8260  136.4870 C   0  0  2  0  0  3  0  0  0  0  0  0
  186.7660  178.1790  137.2940 C   0  0  1  0  0  3  0  0  0  0  0  0
  187.3660  175.9720  136.3220 C   0  0  1  0  0  3  0  0  0  0  0  0
  187.3130  174.7920  137.2890 C   0  0  0  0  0  1  0  0  0  0  0  0
  186.2700  176.9260  136.6540 C   0  0  0  0  0  0  0  0  0  0  0  0
  186.2830  178.5040  141.0830 C   0  0  0  0  0  0  0  0  0  0  0  0
  186.8910  178.2490  139.8230 C   0  0  0  0  0  0  0  0  0  0  0  0
  191.2090  176.9630  140.2460 C   0  0  0  0  0  1  0  0  0  0  0  0
  184.3380  179.1590  142.3670 O   0  0  0  0  0  1  0  0  0  0  0  0
  184.9450  178.9130  141.1410 C   0  0  0  0  0  0  0  0  0  0  0  0
  184.7990  178.8310  138.7300 C   0  0  0  0  0  3  0  0  0  0  0  0
  184.2090  179.0750  139.9680 C   0  0  0  0  0  3  0  0  0  0  0  0
  186.1370  178.4150  138.6440 C   0  0  0  0  0  0  0  0  0  0  0  0
  188.2640  177.9660  142.2970 C   0  0  0  0  0  0  0  0  0  0  0  0
  187.0260  178.3470  142.3050 N   0  0  0  0  0  0  0  0  0  0  0  0
  188.9800  177.6760  141.0790 C   0  0  0  0  0  0  0  0  0  0  0  0
  189.0320  177.8020  143.4750 N   0  0  0  0  0  2  0  0  0  0  0  0
  190.6750  177.2770  143.0650 S   0  0  0  0  0  0  0  0  0  0  0  0
  190.2320  177.3110  141.3170 C   0  0  0  0  0  0  0  0  0  0  0  0
  188.3410  177.8190  139.7310 C   0  0  0  0  0  2  0  0  0  0  0  0
  184.4860  175.5120  135.6510 C   0  0  0  0  0  2  0  0  0  0  0  0
  183.6350  173.5140  136.7770 C   0  0  1  0  0  3  0  0  0  0  0  0
  183.3320  174.9200  136.4360 C   0  0  1  0  0  3  0  0  0  0  0  0
  183.7810  174.5510  137.7180 O   0  0  0  0  0  0  0  0  0  0  0  0
  182.3440  172.7660  137.0520 C   0  0  0  0  0  2  0  0  0  0  0  0
  182.5410  171.2770  136.8360 C   0  0  0  0  0  2  0  0  0  0  0  0
  183.7890  171.0360  136.2580 O   0  0  0  0  0  0  0  0  0  0  0  0
  183.7320  169.7040  135.8470 C   0  0  0  0  0  2  0  0  0  0  0  0
  182.4450  169.4410  135.2280 N   0  0  0  0  0  1  0  0  0  0  0  0
  189.7630  176.0760  137.0080 N   0  0  0  0  0  2  0  0  0  0  0  0
  192.4440  175.4590  137.4700 O   0  0  0  0  0  0  0  0  0  0  0  0
  190.7350  176.0570  135.9990 N   0  0  0  0  0  2  0  0  0  0  0  0
  192.0950  175.7420  136.2930 C   0  0  0  0  0  0  0  0  0  0  0  0
  193.1130  175.7900  135.2080 C   0  0  0  0  0  2  0  0  0  0  0  0
  194.4690  176.0130  135.7850 C   0  0  0  0  0  0  0  0  0  0  0  0
  194.8720  177.1880  135.9900 O   0  0  0  0  0  0  0  0  0  0  0  0
  195.3110  174.8930  136.0680 N   0  0  0  0  0  2  0  0  0  0  0  0
  196.6580  175.0410  136.5960 C   0  0  1  0  0  3  0  0  0  0  0  0
  195.7970  175.0310  139.0710 O   0  0  0  0  0  0  0  0  0  0  0  0
  196.7710  174.2400  138.2110 S   0  0  0  0  0  3  0  0  0  0  0  0
  197.6420  174.4040  135.6300 C   0  0  0  0  0  2  0  0  0  0  0  0
  198.2650  175.3880  134.8630 O   0  0  0  0  0  0  0  0  0  0  0  0
  199.6120  175.0330  134.8680 C   0  0  0  0  0  1  0  0  0  0  0  0
  1  3  1  6  0  0  0
  2  8  2  0  0  0  0
  4 33  1  1  0  0  0
  4  1  1  0  0  0  0
  5  1  1  0  0  0  0
  5 16  1  1  0  0  0
  6  4  1  0  0  0  0
  6  8  1  0  0  0  0
  6  7  1  1  0  0  0
  8  5  1  0  0  0  0
  9 13  1  0  0  0  0
  9 18  1  0  0  0  0
 10  9  2  0  0  0  0
 11 22  1  0  0  0  0
 13 12  1  0  0  0  0
 14 15  1  0  0  0  0
 15 13  2  0  0  0  0
 16 14  2  0  0  0  0
 16 10  1  0  0  0  0
 17 18  2  0  0  0  0
 17 20  1  0  0  0  0
 19 22  2  0  0  0  0
 19 17  1  0  0  0  0
 21 20  1  0  0  0  0
 22 21  1  0  0  0  0
 23 10  1  0  0  0  0
 23 19  1  0  0  0  0
 24  2  1  0  0  0  0
 25 28  1  1  0  0  0
 25 27  1  0  0  0  0
 26 24  1  6  0  0  0
 26 25  1  0  0  0  0
 26 27  1  0  0  0  0
 29 28  1  0  0  0  0
 30 29  1  0  0  0  0
 31 30  1  0  0  0  0
 32 31  1  0  0  0  0
 35 36  1  0  0  0  0
 35 33  1  0  0  0  0
 36 34  2  0  0  0  0
 37 38  1  0  0  0  0
 37 36  1  0  0  0  0
 38 39  2  0  0  0  0
 38 40  1  0  0  0  0
 40 41  1  0  0  0  0
 41 44  1  6  0  0  0
 41 43  1  0  0  0  0
 43 42  2  0  0  0  0
 45 46  1  0  0  0  0
 45 44  1  0  0  0  0
M  END
>  <MODEL>
8

>  <REMARK>
 VINA RESULT:      -4.9      3.776     10.182
  Name = 
  15 active torsions:
  status: ('A' for Active; 'I' for Inactive)
    1  A    between atoms: C_1  and  C_10
    2  A    between atoms: C_1  and  N_34
    3  A    between atoms: C_1  and  S_36
    4  A    between atoms: C_2  and  O_37
    5  A    between atoms: O_3  and  C_10
    6  A    between atoms: C_8  and  C_16
    7  A    between atoms: C_8  and  C_19
    8  A    between atoms: C_9  and  C_11
    9  A    between atoms: C_11  and  C_21
   10  A    between atoms: C_13  and  C_15
   11  A    between atoms: C_13  and  C_45
   12  A    between atoms: C_21  and  O_37
   13  A    between atoms: N_24  and  N_25
   14  A    between atoms: N_25  and  C_35
   15  A    between atoms: C_26  and  C_38
                            x       y       z     vdW  Elec       q    Type
                         _______ _______ _______ _____ _____    ______ ____

>  <TORSDO>
F 15

$$$$
=
 OpenBabel10232409013D

 46 50  0  0  1  0  0  0  0  0999 V2000
  187.5910  176.8730  137.7370 C   0  0  2  0  0  3  0  0  0  0  0  0
  190.3750  176.2240  135.4230 C   0  0  0  0  0  3  0  0  0  0  0  0
  186.3420  177.6990  137.5020 C   0  0  0  0  0  1  0  0  0  0  0  0
  188.7060  177.7520  138.2900 C   0  0  2  0  0  3  0  0  0  0  0  0
  188.1030  176.3090  136.4170 C   0  0  1  0  0  3  0  0  0  0  0  0
  190.0230  177.2500  137.6850 C   0  0  1  0  0  3  0  0  0  0  0  0
  190.7580  176.2640  138.5880 C   0  0  0  0  0  1  0  0  0  0  0  0
  189.5760  176.5410  136.4510 C   0  0  0  0  0  0  0  0  0  0  0  0
  186.1850  173.0680  135.7040 C   0  0  0  0  0  0  0  0  0  0  0  0
  186.4750  174.4510  135.8580 C   0  0  0  0  0  0  0  0  0  0  0  0
  182.9110  177.0570  134.8620 C   0  0  0  0  0  1  0  0  0  0  0  0
  186.9020  170.7580  135.8300 O   0  0  0  0  0  1  0  0  0  0  0  0
  187.1760  172.1140  135.9710 C   0  0  0  0  0  0  0  0  0  0  0  0
  188.7380  173.8720  136.5300 C   0  0  0  0  0  3  0  0  0  0  0  0
  188.4450  172.5170  136.3820 C   0  0  0  0  0  3  0  0  0  0  0  0
  187.7610  174.8470  136.2750 C   0  0  0  0  0  0  0  0  0  0  0  0
  183.9360  173.4780  135.0250 C   0  0  0  0  0  0  0  0  0  0  0  0
  184.8820  172.6310  135.2780 N   0  0  0  0  0  0  0  0  0  0  0  0
  184.1150  174.9030  135.1500 C   0  0  0  0  0  0  0  0  0  0  0  0
  182.6420  173.0910  134.6000 N   0  0  0  0  0  2  0  0  0  0  0  0
  181.6270  174.5230  134.3510 S   0  0  0  0  0  0  0  0  0  0  0  0
  183.0140  175.5700  134.8350 C   0  0  0  0  0  0  0  0  0  0  0  0
  185.4250  175.5040  135.5630 C   0  0  0  0  0  2  0  0  0  0  0  0
  191.8450  176.4950  135.4330 C   0  0  0  0  0  2  0  0  0  0  0  0
  193.8740  175.2510  135.9980 C   0  0  1  0  0  3  0  0  0  0  0  0
  192.6080  175.2000  135.2370 C   0  0  1  0  0  3  0  0  0  0  0  0
  192.7500  174.5510  136.4780 O   0  0  0  0  0  0  0  0  0  0  0  0
  194.8640  174.2640  135.4080 C   0  0  0  0  0  2  0  0  0  0  0  0
  195.8700  173.8330  136.4590 C   0  0  0  0  0  2  0  0  0  0  0  0
  196.0880  174.8700  137.3690 O   0  0  0  0  0  0  0  0  0  0  0  0
  196.4910  174.2280  138.5400 C   0  0  0  0  0  2  0  0  0  0  0  0
  195.5670  173.1500  138.8460 N   0  0  0  0  0  1  0  0  0  0  0  0
  188.7040  177.7380  139.7460 N   0  0  0  0  0  2  0  0  0  0  0  0
  187.4930  177.6220  142.2550 O   0  0  0  0  0  0  0  0  0  0  0  0
  187.7000  178.6230  140.1580 N   0  0  0  0  0  2  0  0  0  0  0  0
  187.1080  178.5120  141.4510 C   0  0  0  0  0  0  0  0  0  0  0  0
  186.0000  179.4300  141.8360 C   0  0  0  0  0  2  0  0  0  0  0  0
  184.6990  178.9030  141.3380 C   0  0  0  0  0  0  0  0  0  0  0  0
  184.1110  177.9930  141.9790 O   0  0  0  0  0  0  0  0  0  0  0  0
  184.1480  179.4100  140.1190 N   0  0  0  0  0  2  0  0  0  0  0  0
  182.9020  178.9130  139.5570 C   0  0  1  0  0  3  0  0  0  0  0  0
  181.6140  179.7810  137.4480 O   0  0  0  0  0  0  0  0  0  0  0  0
  181.9680  180.2810  138.8400 S   0  0  0  0  0  3  0  0  0  0  0  0
  183.2170  177.8820  138.4880 C   0  0  0  0  0  2  0  0  0  0  0  0
  183.2820  176.6090  139.0540 O   0  0  0  0  0  0  0  0  0  0  0  0
  182.1060  175.9840  138.6410 C   0  0  0  0  0  1  0  0  0  0  0  0
  1  3  1  6  0  0  0
  1  4  1  0  0  0  0
  2 24  1  0  0  0  0
  2  8  2  0  0  0  0
  4 33  1  1  0  0  0
  5 16  1  1  0  0  0
  5  8  1  0  0  0  0
  5  1  1  0  0  0  0
  6  4  1  0  0  0  0
  6  7  1  1  0  0  0
  8  6  1  0  0  0  0
  9 10  2  0  0  0  0
  9 13  1  0  0  0  0
 10 16  1  0  0  0  0
 12 13  1  0  0  0  0
 13 15  2  0  0  0  0
 15 14  1  0  0  0  0
 16 14  2  0  0  0  0
 17 19  1  0  0  0  0
 17 18  2  0  0  0  0
 18  9  1  0  0  0  0
 19 23  1  0  0  0  0
 20 17  1  0  0  0  0
 21 20  1  0  0  0  0
 21 22  1  0  0  0  0
 22 11  1  0  0  0  0
 22 19  2  0  0  0  0
 23 10  1  0  0  0  0
 25 28  1  6  0  0  0
 25 27  1  0  0  0  0
 26 24  1  1  0  0  0
 26 25  1  0  0  0  0
 26 27  1  0  0  0  0
 28 29  1  0  0  0  0
 29 30  1  0  0  0  0
 30 31  1  0  0  0  0
 31 32  1  0  0  0  0
 33 35  1  0  0  0  0
 35 36  1  0  0  0  0
 36 37  1  0  0  0  0
 36 34  2  0  0  0  0
 38 37  1  0  0  0  0
 38 39  2  0  0  0  0
 40 38  1  0  0  0  0
 41 44  1  6  0  0  0
 41 40  1  0  0  0  0
 42 43  2  0  0  0  0
 43 41  1  0  0  0  0
 44 45  1  0  0  0  0
 46 45  1  0  0  0  0
M  END
>  <MODEL>
9

>  <REMARK>
 VINA RESULT:      -4.8      3.869      7.202
  Name = 
  15 active torsions:
  status: ('A' for Active; 'I' for Inactive)
    1  A    between atoms: C_1  and  C_10
    2  A    between atoms: C_1  and  N_34
    3  A    between atoms: C_1  and  S_36
    4  A    between atoms: C_2  and  O_37
    5  A    between atoms: O_3  and  C_10
    6  A    between atoms: C_8  and  C_16
    7  A    between atoms: C_8  and  C_19
    8  A    between atoms: C_9  and  C_11
    9  A    between atoms: C_11  and  C_21
   10  A    between atoms: C_13  and  C_15
   11  A    between atoms: C_13  and  C_45
   12  A    between atoms: C_21  and  O_37
   13  A    between atoms: N_24  and  N_25
   14  A    between atoms: N_25  and  C_35
   15  A    between atoms: C_26  and  C_38
                            x       y       z     vdW  Elec       q    Type
                         _______ _______ _______ _____ _____    ______ ____

>  <TORSDO>
F 15

$$$$
