=
 OpenBabel10232410463D

 35 38  0  0  1  0  0  0  0  0999 V2000
  186.8510  178.6650  139.1490 N   0  0  0  0  0  0  0  0  0  0  0  0
  187.1200  178.3620  140.4820 N   0  0  0  0  0  0  0  0  0  0  0  0
  187.6810  178.1370  138.3180 C   0  0  0  0  0  0  0  0  0  0  0  0
  188.9830  177.1490  139.0550 S   0  0  0  0  0  0  0  0  0  0  0  0
  188.2720  177.5010  140.7070 C   0  0  1  0  0  3  0  0  0  0  0  0
  189.7110  177.4140  142.7610 C   0  0  2  0  0  0  0  0  0  0  0  0
  189.3040  178.2170  141.5760 C   0  0  1  0  0  3  0  0  0  0  0  0
  190.5050  177.4760  141.6050 O   0  0  0  0  0  0  0  0  0  0  0  0
  189.2750  175.9780  143.0120 C   0  0  0  0  0  2  0  0  0  0  0  0
  190.3450  175.1100  142.8210 O   0  0  0  0  0  1  0  0  0  0  0  0
  190.3620  178.1300  143.8510 N   0  0  0  0  0  2  0  0  0  0  0  0
  191.8050  176.3780  146.8080 C   0  0  0  0  0  3  0  0  0  0  0  0
  191.6510  176.8980  145.5180 C   0  0  0  0  0  3  0  0  0  0  0  0
  190.8070  176.5840  147.7680 C   0  0  0  0  0  3  0  0  0  0  0  0
  190.5010  177.6190  145.1790 C   0  0  0  0  0  0  0  0  0  0  0  0
  189.5110  177.8320  146.1480 C   0  0  0  0  0  3  0  0  0  0  0  0
  189.6640  177.3130  147.4370 C   0  0  0  0  0  3  0  0  0  0  0  0
  187.3030  179.4580  136.3940 O   0  0  0  0  0  0  0  0  0  0  0  0
  187.5330  178.3130  136.8660 C   0  0  0  0  0  0  0  0  0  0  0  0
  187.5830  177.1290  135.9550 C   0  0  0  0  0  2  0  0  0  0  0  0
  186.5390  176.1780  136.2960 N   0  0  0  0  0  2  0  0  0  0  0  0
  186.3070  173.9500  137.2190 C   0  0  0  0  0  1  0  0  0  0  0  0
  187.3270  174.3370  135.1080 O   0  0  0  0  0  1  0  0  0  0  0  0
  187.1740  174.8730  136.3870 C   0  0  1  0  0  3  0  0  0  0  0  0
  186.2300  178.7820  141.5520 C   0  0  0  0  0  2  0  0  0  0  0  0
  184.8300  178.9900  141.0010 C   0  0  0  0  0  2  0  0  0  0  0  0
  183.8090  178.4520  141.9820 C   0  0  0  0  0  2  0  0  0  0  0  0
  184.3960  178.3900  143.3830 C   0  0  0  0  0  2  0  0  0  0  0  0
  182.1920  178.4110  144.3410 F   0  0  0  0  0  0  0  0  0  0  0  0
  183.3140  180.3300  144.1420 F   0  0  0  0  0  0  0  0  0  0  0  0
  183.4550  178.9860  144.4340 C   0  0  0  0  0  0  0  0  0  0  0  0
  184.0120  178.8840  145.7290 O   0  0  0  0  0  0  0  0  0  0  0  0
  185.9890  179.1870  147.0230 C   0  0  0  0  0  2  0  0  0  0  0  0
  185.4150  178.8990  145.6530 C   0  0  0  0  0  3  0  0  0  0  0  0
  185.9630  177.7700  146.4980 C   0  0  0  0  0  2  0  0  0  0  0  0
  1  2  1  0  0  0  0
  2  5  1  0  0  0  0
  2 25  1  0  0  0  0
  3  4  1  0  0  0  0
  3  1  2  0  0  0  0
  5  4  1  6  0  0  0
  5  7  1  0  0  0  0
  6  9  1  1  0  0  0
  6 11  1  0  0  0  0
  7  8  1  6  0  0  0
  7  6  1  0  0  0  0
  8  6  1  0  0  0  0
 10  9  1  0  0  0  0
 11 15  1  0  0  0  0
 12 14  1  0  0  0  0
 13 12  2  0  0  0  0
 15 13  1  0  0  0  0
 15 16  2  0  0  0  0
 16 17  1  0  0  0  0
 17 14  2  0  0  0  0
 18 19  2  0  0  0  0
 19  3  1  0  0  0  0
 20 21  1  0  0  0  0
 20 19  1  0  0  0  0
 21 24  1  0  0  0  0
 23 24  1  0  0  0  0
 24 22  1  1  0  0  0
 26 25  1  0  0  0  0
 26 27  1  0  0  0  0
 27 28  1  0  0  0  0
 28 31  1  0  0  0  0
 29 31  1  0  0  0  0
 30 31  1  0  0  0  0
 31 32  1  0  0  0  0
 34 32  1  0  0  0  0
 34 35  1  0  0  0  0
 34 33  1  0  0  0  0
 35 33  1  0  0  0  0
M  END
>  <MODEL>
1

>  <REMARK>
 VINA RESULT:      -7.6      0.000      0.000
  Name = 
  15 active torsions:
  status: ('A' for Active; 'I' for Inactive)
    1  A    between atoms: C_4  and  C_22
    2  A    between atoms: C_4  and  N_28
    3  A    between atoms: C_5  and  C_11
    4  A    between atoms: C_5  and  C_23
    5  A    between atoms: N_9  and  C_23
    6  A    between atoms: C_10  and  C_14
    7  A    between atoms: C_10  and  N_20
    8  A    between atoms: C_11  and  C_19
    9  A    between atoms: C_13  and  C_19
   10  A    between atoms: C_13  and  O_29
   11  A    between atoms: C_14  and  C_25
   12  A    between atoms: C_15  and  O_29
   13  A    between atoms: C_17  and  C_35
   14  A    between atoms: N_20  and  C_31
   15  A    between atoms: C_24  and  N_28
                            x       y       z     vdW  Elec       q    Type
                         _______ _______ _______ _____ _____    ______ ____

>  <TORSDO>
F 15

$$$$
=
 OpenBabel10232410463D

 35 38  0  0  1  0  0  0  0  0999 V2000
  189.1520  177.3600  142.3100 N   0  0  0  0  0  0  0  0  0  0  0  0
  188.7790  177.7750  141.0330 N   0  0  0  0  0  0  0  0  0  0  0  0
  190.3890  177.0150  142.4040 C   0  0  0  0  0  0  0  0  0  0  0  0
  191.3380  177.1370  140.8880 S   0  0  0  0  0  0  0  0  0  0  0  0
  189.8400  177.7590  140.0360 C   0  0  1  0  0  3  0  0  0  0  0  0
  189.0710  177.5600  137.6560 C   0  0  2  0  0  0  0  0  0  0  0  0
  189.4680  176.8240  138.8870 C   0  0  1  0  0  3  0  0  0  0  0  0
  190.3560  177.0150  137.8060 O   0  0  0  0  0  0  0  0  0  0  0  0
  189.1670  179.0700  137.4930 C   0  0  0  0  0  2  0  0  0  0  0  0
  187.9520  179.5850  137.0530 O   0  0  0  0  0  1  0  0  0  0  0  0
  188.3280  176.8120  136.6500 N   0  0  0  0  0  2  0  0  0  0  0  0
  185.8170  174.1100  137.1860 C   0  0  0  0  0  3  0  0  0  0  0  0
  187.0310  174.7680  136.9650 C   0  0  0  0  0  3  0  0  0  0  0  0
  184.6390  174.8510  137.3410 C   0  0  0  0  0  3  0  0  0  0  0  0
  187.0770  176.1640  136.8900 C   0  0  0  0  0  0  0  0  0  0  0  0
  185.8960  176.9010  137.0570 C   0  0  0  0  0  3  0  0  0  0  0  0
  184.6820  176.2450  137.2800 C   0  0  0  0  0  3  0  0  0  0  0  0
  191.7770  175.6180  143.7130 O   0  0  0  0  0  0  0  0  0  0  0  0
  190.9730  176.5880  143.6830 C   0  0  0  0  0  0  0  0  0  0  0  0
  190.5650  177.2530  144.9580 C   0  0  0  0  0  2  0  0  0  0  0  0
  191.6900  177.3370  145.8730 N   0  0  0  0  0  2  0  0  0  0  0  0
  189.7170  176.7840  147.1650 C   0  0  0  0  0  1  0  0  0  0  0  0
  191.7250  175.5250  147.3330 O   0  0  0  0  0  1  0  0  0  0  0  0
  191.2310  176.8170  147.1510 C   0  0  1  0  0  3  0  0  0  0  0  0
  187.4520  178.3020  140.7620 C   0  0  0  0  0  2  0  0  0  0  0  0
  186.6690  178.4100  142.0600 C   0  0  0  0  0  2  0  0  0  0  0  0
  185.3380  179.0830  141.7990 C   0  0  0  0  0  2  0  0  0  0  0  0
  184.2430  178.4490  142.6410 C   0  0  0  0  0  2  0  0  0  0  0  0
  182.5990  179.6710  143.8980 F   0  0  0  0  0  0  0  0  0  0  0  0
  184.7050  180.4100  143.8460 F   0  0  0  0  0  0  0  0  0  0  0  0
  183.9300  179.2670  143.8980 C   0  0  0  0  0  0  0  0  0  0  0  0
  184.2880  178.5570  145.0660 O   0  0  0  0  0  0  0  0  0  0  0  0
  185.6760  178.5720  147.0030 C   0  0  0  0  0  2  0  0  0  0  0  0
  185.5000  179.0510  145.5790 C   0  0  0  0  0  3  0  0  0  0  0  0
  186.4160  177.8860  145.8790 C   0  0  0  0  0  2  0  0  0  0  0  0
  1  3  2  0  0  0  0
  2  1  1  0  0  0  0
  3 19  1  0  0  0  0
  4  3  1  0  0  0  0
  5  4  1  1  0  0  0
  5  2  1  0  0  0  0
  6  9  1  1  0  0  0
  6  8  1  0  0  0  0
  6  7  1  0  0  0  0
  7  8  1  6  0  0  0
  7  5  1  0  0  0  0
 10  9  1  0  0  0  0
 11 15  1  0  0  0  0
 11  6  1  0  0  0  0
 12 14  1  0  0  0  0
 13 12  2  0  0  0  0
 15 13  1  0  0  0  0
 15 16  2  0  0  0  0
 16 17  1  0  0  0  0
 17 14  2  0  0  0  0
 19 18  2  0  0  0  0
 19 20  1  0  0  0  0
 20 21  1  0  0  0  0
 21 24  1  0  0  0  0
 24 22  1  6  0  0  0
 24 23  1  0  0  0  0
 25  2  1  0  0  0  0
 25 26  1  0  0  0  0
 27 26  1  0  0  0  0
 27 28  1  0  0  0  0
 28 31  1  0  0  0  0
 29 31  1  0  0  0  0
 30 31  1  0  0  0  0
 31 32  1  0  0  0  0
 32 34  1  0  0  0  0
 34 35  1  0  0  0  0
 34 33  1  0  0  0  0
 35 33  1  0  0  0  0
M  END
>  <MODEL>
2

>  <REMARK>
 VINA RESULT:      -7.1      1.808      7.084
  Name = 
  15 active torsions:
  status: ('A' for Active; 'I' for Inactive)
    1  A    between atoms: C_4  and  C_22
    2  A    between atoms: C_4  and  N_28
    3  A    between atoms: C_5  and  C_11
    4  A    between atoms: C_5  and  C_23
    5  A    between atoms: N_9  and  C_23
    6  A    between atoms: C_10  and  C_14
    7  A    between atoms: C_10  and  N_20
    8  A    between atoms: C_11  and  C_19
    9  A    between atoms: C_13  and  C_19
   10  A    between atoms: C_13  and  O_29
   11  A    between atoms: C_14  and  C_25
   12  A    between atoms: C_15  and  O_29
   13  A    between atoms: C_17  and  C_35
   14  A    between atoms: N_20  and  C_31
   15  A    between atoms: C_24  and  N_28
                            x       y       z     vdW  Elec       q    Type
                         _______ _______ _______ _____ _____    ______ ____

>  <TORSDO>
F 15

$$$$
=
 OpenBabel10232410463D

 35 38  0  0  1  0  0  0  0  0999 V2000
  187.2250  178.6980  139.4650 N   0  0  0  0  0  0  0  0  0  0  0  0
  187.5500  178.3360  140.7710 N   0  0  0  0  0  0  0  0  0  0  0  0
  187.9680  178.1440  138.5710 C   0  0  0  0  0  0  0  0  0  0  0  0
  189.2420  177.0500  139.2010 S   0  0  0  0  0  0  0  0  0  0  0  0
  188.6520  177.3950  140.9020 C   0  0  1  0  0  3  0  0  0  0  0  0
  190.3350  177.0720  142.7360 C   0  0  2  0  0  0  0  0  0  0  0  0
  189.7780  178.0150  141.7270 C   0  0  1  0  0  3  0  0  0  0  0  0
  190.9800  177.3050  141.5110 O   0  0  0  0  0  0  0  0  0  0  0  0
  189.9450  175.6050  142.8430 C   0  0  0  0  0  2  0  0  0  0  0  0
  191.0370  174.8440  143.2460 O   0  0  0  0  0  1  0  0  0  0  0  0
  191.1100  177.6520  143.8250 N   0  0  0  0  0  2  0  0  0  0  0  0
  191.3700  176.6460  147.4040 C   0  0  0  0  0  3  0  0  0  0  0  0
  191.6690  176.8130  146.0480 C   0  0  0  0  0  3  0  0  0  0  0  0
  190.1870  177.1780  147.9300 C   0  0  0  0  0  3  0  0  0  0  0  0
  190.7880  177.5050  145.2100 C   0  0  0  0  0  0  0  0  0  0  0  0
  189.6100  178.0450  145.7440 C   0  0  0  0  0  3  0  0  0  0  0  0
  189.3110  177.8790  147.0990 C   0  0  0  0  0  3  0  0  0  0  0  0
  187.6550  179.5530  136.6990 O   0  0  0  0  0  0  0  0  0  0  0  0
  187.7480  178.3750  137.1370 C   0  0  0  0  0  0  0  0  0  0  0  0
  187.5650  177.2200  136.2070 C   0  0  0  0  0  2  0  0  0  0  0  0
  186.4590  176.3840  136.6430 N   0  0  0  0  0  2  0  0  0  0  0  0
  184.5680  176.2000  135.1400 C   0  0  0  0  0  1  0  0  0  0  0  0
  186.8060  175.9530  134.3820 O   0  0  0  0  0  1  0  0  0  0  0  0
  185.9610  175.6980  135.4620 C   0  0  1  0  0  3  0  0  0  0  0  0
  186.7530  178.7780  141.9030 C   0  0  0  0  0  2  0  0  0  0  0  0
  186.4550  177.5970  142.8120 C   0  0  0  0  0  2  0  0  0  0  0  0
  186.9580  177.8900  144.2100 C   0  0  0  0  0  2  0  0  0  0  0  0
  185.9300  177.4670  145.2470 C   0  0  0  0  0  2  0  0  0  0  0  0
  185.4950  179.8310  145.2450 F   0  0  0  0  0  0  0  0  0  0  0  0
  184.7950  178.5940  146.9650 F   0  0  0  0  0  0  0  0  0  0  0  0
  184.9550  178.5970  145.5930 C   0  0  0  0  0  0  0  0  0  0  0  0
  183.6880  178.3680  145.0120 O   0  0  0  0  0  0  0  0  0  0  0  0
  183.1740  178.8180  142.7300 C   0  0  0  0  0  2  0  0  0  0  0  0
  183.3760  179.4000  144.1110 C   0  0  0  0  0  3  0  0  0  0  0  0
  181.9780  179.1800  143.5790 C   0  0  0  0  0  2  0  0  0  0  0  0
  1  2  1  0  0  0  0
  2  5  1  0  0  0  0
  2 25  1  0  0  0  0
  3  4  1  0  0  0  0
  3  1  2  0  0  0  0
  5  4  1  6  0  0  0
  5  7  1  0  0  0  0
  6  9  1  1  0  0  0
  6 11  1  0  0  0  0
  7  8  1  6  0  0  0
  7  6  1  0  0  0  0
  8  6  1  0  0  0  0
  9 10  1  0  0  0  0
 11 15  1  0  0  0  0
 12 14  1  0  0  0  0
 13 12  2  0  0  0  0
 15 16  2  0  0  0  0
 15 13  1  0  0  0  0
 16 17  1  0  0  0  0
 17 14  2  0  0  0  0
 18 19  2  0  0  0  0
 19  3  1  0  0  0  0
 20 21  1  0  0  0  0
 20 19  1  0  0  0  0
 23 24  1  0  0  0  0
 24 22  1  6  0  0  0
 24 21  1  0  0  0  0
 25 26  1  0  0  0  0
 26 27  1  0  0  0  0
 27 28  1  0  0  0  0
 28 31  1  0  0  0  0
 29 31  1  0  0  0  0
 31 30  1  0  0  0  0
 32 31  1  0  0  0  0
 33 35  1  0  0  0  0
 33 34  1  0  0  0  0
 34 32  1  0  0  0  0
 35 34  1  0  0  0  0
M  END
>  <MODEL>
3

>  <REMARK>
 VINA RESULT:      -6.9      1.297      2.053
  Name = 
  15 active torsions:
  status: ('A' for Active; 'I' for Inactive)
    1  A    between atoms: C_4  and  C_22
    2  A    between atoms: C_4  and  N_28
    3  A    between atoms: C_5  and  C_11
    4  A    between atoms: C_5  and  C_23
    5  A    between atoms: N_9  and  C_23
    6  A    between atoms: C_10  and  C_14
    7  A    between atoms: C_10  and  N_20
    8  A    between atoms: C_11  and  C_19
    9  A    between atoms: C_13  and  C_19
   10  A    between atoms: C_13  and  O_29
   11  A    between atoms: C_14  and  C_25
   12  A    between atoms: C_15  and  O_29
   13  A    between atoms: C_17  and  C_35
   14  A    between atoms: N_20  and  C_31
   15  A    between atoms: C_24  and  N_28
                            x       y       z     vdW  Elec       q    Type
                         _______ _______ _______ _____ _____    ______ ____

>  <TORSDO>
F 15

$$$$
=
 OpenBabel10232410463D

 35 38  0  0  1  0  0  0  0  0999 V2000
  188.5910  177.8970  141.6300 N   0  0  0  0  0  0  0  0  0  0  0  0
  189.7280  177.1820  141.2570 N   0  0  0  0  0  0  0  0  0  0  0  0
  187.7430  178.0600  140.6750 C   0  0  0  0  0  0  0  0  0  0  0  0
  188.2120  177.3440  139.0990 S   0  0  0  0  0  0  0  0  0  0  0  0
  189.7580  176.7340  139.8720 C   0  0  1  0  0  3  0  0  0  0  0  0
  191.6100  176.3610  138.2210 C   0  0  2  0  0  0  0  0  0  0  0  0
  190.9680  177.3270  139.1540 C   0  0  1  0  0  3  0  0  0  0  0  0
  190.7340  177.3570  137.7620 O   0  0  0  0  0  0  0  0  0  0  0  0
  191.0470  174.9860  137.8920 C   0  0  0  0  0  2  0  0  0  0  0  0
  190.3540  175.0240  136.6870 O   0  0  0  0  0  1  0  0  0  0  0  0
  192.9710  176.6600  137.7940 N   0  0  0  0  0  2  0  0  0  0  0  0
  195.4030  173.9120  137.1420 C   0  0  0  0  0  3  0  0  0  0  0  0
  194.5630  174.8100  137.8090 C   0  0  0  0  0  3  0  0  0  0  0  0
  195.4910  173.9440  135.7450 C   0  0  0  0  0  3  0  0  0  0  0  0
  193.8120  175.7450  137.0880 C   0  0  0  0  0  0  0  0  0  0  0  0
  193.8970  175.7640  135.6890 C   0  0  0  0  0  3  0  0  0  0  0  0
  194.7360  174.8680  135.0210 C   0  0  0  0  0  3  0  0  0  0  0  0
  185.7950  179.1550  139.9020 O   0  0  0  0  0  0  0  0  0  0  0  0
  186.4660  178.7560  140.8910 C   0  0  0  0  0  0  0  0  0  0  0  0
  185.9950  179.0530  142.2780 C   0  0  0  0  0  2  0  0  0  0  0  0
  184.5480  178.9610  142.3560 N   0  0  0  0  0  2  0  0  0  0  0  0
  185.5080  178.3660  144.4990 C   0  0  0  0  0  1  0  0  0  0  0  0
  183.4190  179.4850  144.3230 O   0  0  0  0  0  1  0  0  0  0  0  0
  184.2270  178.5290  143.7070 C   0  0  1  0  0  3  0  0  0  0  0  0
  190.7440  176.8090  142.2270 C   0  0  0  0  0  2  0  0  0  0  0  0
  191.3940  178.0590  142.7940 C   0  0  0  0  0  2  0  0  0  0  0  0
  191.2180  178.0880  144.2990 C   0  0  0  0  0  2  0  0  0  0  0  0
  190.5230  176.8250  144.7810 C   0  0  0  0  0  2  0  0  0  0  0  0
  188.1980  176.3630  144.3940 F   0  0  0  0  0  0  0  0  0  0  0  0
  188.8170  178.4240  144.9830 F   0  0  0  0  0  0  0  0  0  0  0  0
  189.0730  177.0840  145.1990 C   0  0  0  0  0  0  0  0  0  0  0  0
  188.8900  176.8270  146.5760 O   0  0  0  0  0  0  0  0  0  0  0  0
  187.9240  177.6080  148.6090 C   0  0  0  0  0  2  0  0  0  0  0  0
  188.3940  177.9740  147.2190 C   0  0  0  0  0  3  0  0  0  0  0  0
  189.2640  178.2790  148.4190 C   0  0  0  0  0  2  0  0  0  0  0  0
  2  1  1  0  0  0  0
  2 25  1  0  0  0  0
  3 19  1  0  0  0  0
  3  1  2  0  0  0  0
  4  3  1  0  0  0  0
  5  4  1  6  0  0  0
  5  2  1  0  0  0  0
  6  9  1  1  0  0  0
  6  7  1  0  0  0  0
  7  8  1  6  0  0  0
  7  5  1  0  0  0  0
  8  6  1  0  0  0  0
 10  9  1  0  0  0  0
 11  6  1  0  0  0  0
 12 13  1  0  0  0  0
 14 12  2  0  0  0  0
 15 11  1  0  0  0  0
 15 13  2  0  0  0  0
 16 15  1  0  0  0  0
 17 16  2  0  0  0  0
 17 14  1  0  0  0  0
 18 19  2  0  0  0  0
 19 20  1  0  0  0  0
 20 21  1  0  0  0  0
 21 24  1  0  0  0  0
 24 23  1  0  0  0  0
 24 22  1  1  0  0  0
 25 26  1  0  0  0  0
 26 27  1  0  0  0  0
 27 28  1  0  0  0  0
 28 31  1  0  0  0  0
 29 31  1  0  0  0  0
 30 31  1  0  0  0  0
 31 32  1  0  0  0  0
 32 34  1  0  0  0  0
 34 35  1  0  0  0  0
 34 33  1  0  0  0  0
 35 33  1  0  0  0  0
M  END
>  <MODEL>
4

>  <REMARK>
 VINA RESULT:      -6.6      4.167      6.969
  Name = 
  15 active torsions:
  status: ('A' for Active; 'I' for Inactive)
    1  A    between atoms: C_4  and  C_22
    2  A    between atoms: C_4  and  N_28
    3  A    between atoms: C_5  and  C_11
    4  A    between atoms: C_5  and  C_23
    5  A    between atoms: N_9  and  C_23
    6  A    between atoms: C_10  and  C_14
    7  A    between atoms: C_10  and  N_20
    8  A    between atoms: C_11  and  C_19
    9  A    between atoms: C_13  and  C_19
   10  A    between atoms: C_13  and  O_29
   11  A    between atoms: C_14  and  C_25
   12  A    between atoms: C_15  and  O_29
   13  A    between atoms: C_17  and  C_35
   14  A    between atoms: N_20  and  C_31
   15  A    between atoms: C_24  and  N_28
                            x       y       z     vdW  Elec       q    Type
                         _______ _______ _______ _____ _____    ______ ____

>  <TORSDO>
F 15

$$$$
=
 OpenBabel10232410463D

 35 38  0  0  1  0  0  0  0  0999 V2000
  188.2590  177.2220  137.7680 N   0  0  0  0  0  0  0  0  0  0  0  0
  187.3040  177.9100  138.5140 N   0  0  0  0  0  0  0  0  0  0  0  0
  187.8630  176.8980  136.5870 C   0  0  0  0  0  0  0  0  0  0  0  0
  186.1890  177.3920  136.1760 S   0  0  0  0  0  0  0  0  0  0  0  0
  186.0390  178.1530  137.8360 C   0  0  1  0  0  3  0  0  0  0  0  0
  183.9720  178.4950  139.2180 C   0  0  2  0  0  0  0  0  0  0  0  0
  184.8940  177.4990  138.6080 C   0  0  1  0  0  3  0  0  0  0  0  0
  183.6590  177.8410  138.0160 O   0  0  0  0  0  0  0  0  0  0  0  0
  184.0560  179.9960  138.9820 C   0  0  0  0  0  2  0  0  0  0  0  0
  182.7970  180.5100  138.6920 O   0  0  0  0  0  1  0  0  0  0  0  0
  183.1000  178.0210  140.2850 N   0  0  0  0  0  2  0  0  0  0  0  0
  184.7480  178.4300  143.6030 C   0  0  0  0  0  3  0  0  0  0  0  0
  184.5460  178.1520  142.2470 C   0  0  0  0  0  3  0  0  0  0  0  0
  183.6840  178.8900  144.3880 C   0  0  0  0  0  3  0  0  0  0  0  0
  183.2830  178.3240  141.6700 C   0  0  0  0  0  0  0  0  0  0  0  0
  182.2240  178.7950  142.4590 C   0  0  0  0  0  3  0  0  0  0  0  0
  182.4250  179.0740  143.8130 C   0  0  0  0  0  3  0  0  0  0  0  0
  188.5520  176.3140  134.4020 O   0  0  0  0  0  0  0  0  0  0  0  0
  188.7480  176.2030  135.6420 C   0  0  0  0  0  0  0  0  0  0  0  0
  189.8350  175.3100  136.1450 C   0  0  0  0  0  2  0  0  0  0  0  0
  191.0870  176.0400  136.2500 N   0  0  0  0  0  2  0  0  0  0  0  0
  192.0500  176.5040  138.4250 C   0  0  0  0  0  1  0  0  0  0  0  0
  191.0910  174.3940  137.8970 O   0  0  0  0  0  1  0  0  0  0  0  0
  191.8240  175.4520  137.3570 C   0  0  1  0  0  3  0  0  0  0  0  0
  187.6090  178.4490  139.8290 C   0  0  0  0  0  2  0  0  0  0  0  0
  188.5930  177.5370  140.5410 C   0  0  0  0  0  2  0  0  0  0  0  0
  188.6860  177.9270  142.0020 C   0  0  0  0  0  2  0  0  0  0  0  0
  188.0950  176.8390  142.8840 C   0  0  0  0  0  2  0  0  0  0  0  0
  187.1160  176.8050  145.0780 F   0  0  0  0  0  0  0  0  0  0  0  0
  188.4340  178.5100  144.4980 F   0  0  0  0  0  0  0  0  0  0  0  0
  188.2680  177.1440  144.3750 C   0  0  0  0  0  0  0  0  0  0  0  0
  189.4280  176.5210  144.8880 O   0  0  0  0  0  0  0  0  0  0  0  0
  190.4220  176.8560  147.0270 C   0  0  0  0  0  2  0  0  0  0  0  0
  190.1690  177.4370  145.6530 C   0  0  0  0  0  3  0  0  0  0  0  0
  191.5130  176.8260  145.9820 C   0  0  0  0  0  2  0  0  0  0  0  0
  1  2  1  0  0  0  0
  2 25  1  0  0  0  0
  3  1  2  0  0  0  0
  4  3  1  0  0  0  0
  5  4  1  6  0  0  0
  5  2  1  0  0  0  0
  5  7  1  0  0  0  0
  6  9  1  6  0  0  0
  6 11  1  0  0  0  0
  7  8  1  6  0  0  0
  7  6  1  0  0  0  0
  8  6  1  0  0  0  0
 10  9  1  0  0  0  0
 11 15  1  0  0  0  0
 12 14  1  0  0  0  0
 13 12  2  0  0  0  0
 15 13  1  0  0  0  0
 15 16  2  0  0  0  0
 16 17  1  0  0  0  0
 17 14  2  0  0  0  0
 18 19  2  0  0  0  0
 19 20  1  0  0  0  0
 19  3  1  0  0  0  0
 20 21  1  0  0  0  0
 21 24  1  0  0  0  0
 24 23  1  0  0  0  0
 24 22  1  1  0  0  0
 25 26  1  0  0  0  0
 26 27  1  0  0  0  0
 27 28  1  0  0  0  0
 28 31  1  0  0  0  0
 31 30  1  0  0  0  0
 31 32  1  0  0  0  0
 31 29  1  0  0  0  0
 32 34  1  0  0  0  0
 34 35  1  0  0  0  0
 34 33  1  0  0  0  0
 35 33  1  0  0  0  0
M  END
>  <MODEL>
5

>  <REMARK>
 VINA RESULT:      -6.5      2.865      5.866
  Name = 
  15 active torsions:
  status: ('A' for Active; 'I' for Inactive)
    1  A    between atoms: C_4  and  C_22
    2  A    between atoms: C_4  and  N_28
    3  A    between atoms: C_5  and  C_11
    4  A    between atoms: C_5  and  C_23
    5  A    between atoms: N_9  and  C_23
    6  A    between atoms: C_10  and  C_14
    7  A    between atoms: C_10  and  N_20
    8  A    between atoms: C_11  and  C_19
    9  A    between atoms: C_13  and  C_19
   10  A    between atoms: C_13  and  O_29
   11  A    between atoms: C_14  and  C_25
   12  A    between atoms: C_15  and  O_29
   13  A    between atoms: C_17  and  C_35
   14  A    between atoms: N_20  and  C_31
   15  A    between atoms: C_24  and  N_28
                            x       y       z     vdW  Elec       q    Type
                         _______ _______ _______ _____ _____    ______ ____

>  <TORSDO>
F 15

$$$$
=
 OpenBabel10232410463D

 35 38  0  0  1  0  0  0  0  0999 V2000
  188.0390  177.1580  145.2620 N   0  0  0  0  0  0  0  0  0  0  0  0
  187.4900  177.0300  143.9870 N   0  0  0  0  0  0  0  0  0  0  0  0
  187.2970  177.8160  146.0830 C   0  0  0  0  0  0  0  0  0  0  0  0
  185.7480  178.4170  145.4080 S   0  0  0  0  0  0  0  0  0  0  0  0
  186.1820  177.6420  143.8050 C   0  0  1  0  0  3  0  0  0  0  0  0
  184.9960  178.7830  141.9110 C   0  0  2  0  0  0  0  0  0  0  0  0
  186.2480  178.7070  142.7130 C   0  0  1  0  0  3  0  0  0  0  0  0
  185.2650  179.6940  142.9440 O   0  0  0  0  0  0  0  0  0  0  0  0
  183.7280  178.0030  142.2280 C   0  0  0  0  0  2  0  0  0  0  0  0
  182.7250  178.8660  142.6560 O   0  0  0  0  0  1  0  0  0  0  0  0
  185.0770  179.4560  140.6210 N   0  0  0  0  0  2  0  0  0  0  0  0
  185.8620  177.6780  137.4400 C   0  0  0  0  0  3  0  0  0  0  0  0
  186.0120  178.3080  138.6800 C   0  0  0  0  0  3  0  0  0  0  0  0
  184.5870  177.5380  136.8780 C   0  0  0  0  0  3  0  0  0  0  0  0
  184.8960  178.8050  139.3610 C   0  0  0  0  0  0  0  0  0  0  0  0
  183.6210  178.6520  138.7980 C   0  0  0  0  0  3  0  0  0  0  0  0
  183.4690  178.0220  137.5590 C   0  0  0  0  0  3  0  0  0  0  0  0
  187.0750  178.8580  148.1940 O   0  0  0  0  0  0  0  0  0  0  0  0
  187.6920  178.0200  147.4840 C   0  0  0  0  0  0  0  0  0  0  0  0
  188.8670  177.2900  148.0480 C   0  0  0  0  0  2  0  0  0  0  0  0
  190.1080  177.8540  147.5460 N   0  0  0  0  0  2  0  0  0  0  0  0
  191.5390  176.7440  145.9370 C   0  0  0  0  0  1  0  0  0  0  0  0
  192.1070  176.8840  148.2400 O   0  0  0  0  0  1  0  0  0  0  0  0
  191.0300  176.7450  147.3640 C   0  0  1  0  0  3  0  0  0  0  0  0
  188.1350  176.2280  142.9600 C   0  0  0  0  0  2  0  0  0  0  0  0
  189.6140  176.5680  142.8990 C   0  0  0  0  0  2  0  0  0  0  0  0
  190.0880  176.5300  141.4610 C   0  0  0  0  0  2  0  0  0  0  0  0
  189.5010  177.6910  140.6740 C   0  0  0  0  0  2  0  0  0  0  0  0
  189.3210  178.6790  138.4910 F   0  0  0  0  0  0  0  0  0  0  0  0
  188.7740  176.5330  138.7660 F   0  0  0  0  0  0  0  0  0  0  0  0
  189.6660  177.5110  139.1620 C   0  0  0  0  0  0  0  0  0  0  0  0
  190.9670  177.0600  138.8450 O   0  0  0  0  0  0  0  0  0  0  0  0
  191.4500  176.1510  136.6970 C   0  0  0  0  0  2  0  0  0  0  0  0
  190.8980  175.8840  138.0790 C   0  0  0  0  0  3  0  0  0  0  0  0
  192.3010  175.4450  137.7260 C   0  0  0  0  0  2  0  0  0  0  0  0
  1  3  2  0  0  0  0
  2  1  1  0  0  0  0
  3 19  1  0  0  0  0
  4  3  1  0  0  0  0
  5  2  1  0  0  0  0
  5  4  1  1  0  0  0
  6  9  1  1  0  0  0
  6  7  1  0  0  0  0
  6  8  1  0  0  0  0
  7  8  1  1  0  0  0
  7  5  1  0  0  0  0
  9 10  1  0  0  0  0
 11  6  1  0  0  0  0
 12 13  1  0  0  0  0
 13 15  2  0  0  0  0
 14 12  2  0  0  0  0
 14 17  1  0  0  0  0
 15 11  1  0  0  0  0
 16 15  1  0  0  0  0
 17 16  2  0  0  0  0
 19 20  1  0  0  0  0
 19 18  2  0  0  0  0
 21 20  1  0  0  0  0
 24 22  1  6  0  0  0
 24 21  1  0  0  0  0
 24 23  1  0  0  0  0
 25  2  1  0  0  0  0
 26 25  1  0  0  0  0
 27 26  1  0  0  0  0
 28 27  1  0  0  0  0
 29 31  1  0  0  0  0
 30 31  1  0  0  0  0
 31 28  1  0  0  0  0
 32 31  1  0  0  0  0
 33 35  1  0  0  0  0
 33 34  1  0  0  0  0
 34 32  1  0  0  0  0
 35 34  1  0  0  0  0
M  END
>  <MODEL>
6

>  <REMARK>
 VINA RESULT:      -6.4      3.534      9.044
  Name = 
  15 active torsions:
  status: ('A' for Active; 'I' for Inactive)
    1  A    between atoms: C_4  and  C_22
    2  A    between atoms: C_4  and  N_28
    3  A    between atoms: C_5  and  C_11
    4  A    between atoms: C_5  and  C_23
    5  A    between atoms: N_9  and  C_23
    6  A    between atoms: C_10  and  C_14
    7  A    between atoms: C_10  and  N_20
    8  A    between atoms: C_11  and  C_19
    9  A    between atoms: C_13  and  C_19
   10  A    between atoms: C_13  and  O_29
   11  A    between atoms: C_14  and  C_25
   12  A    between atoms: C_15  and  O_29
   13  A    between atoms: C_17  and  C_35
   14  A    between atoms: N_20  and  C_31
   15  A    between atoms: C_24  and  N_28
                            x       y       z     vdW  Elec       q    Type
                         _______ _______ _______ _____ _____    ______ ____

>  <TORSDO>
F 15

$$$$
=
 OpenBabel10232410463D

 35 38  0  0  1  0  0  0  0  0999 V2000
  186.1920  178.7500  139.9860 N   0  0  0  0  0  0  0  0  0  0  0  0
  186.8290  178.7990  141.2240 N   0  0  0  0  0  0  0  0  0  0  0  0
  184.9080  178.8080  140.0590 C   0  0  0  0  0  0  0  0  0  0  0  0
  184.2370  178.9300  141.7180 S   0  0  0  0  0  0  0  0  0  0  0  0
  185.9480  178.9180  142.3760 C   0  0  1  0  0  3  0  0  0  0  0  0
  185.8310  178.0520  144.7280 C   0  0  2  0  0  0  0  0  0  0  0  0
  186.1380  177.7240  143.3090 C   0  0  1  0  0  3  0  0  0  0  0  0
  184.9070  177.3830  143.9110 O   0  0  0  0  0  0  0  0  0  0  0  0
  185.2460  179.3780  145.1930 C   0  0  0  0  0  2  0  0  0  0  0  0
  184.1230  179.1580  145.9830 O   0  0  0  0  0  1  0  0  0  0  0  0
  186.3480  177.1420  145.7430 N   0  0  0  0  0  2  0  0  0  0  0  0
  189.7840  177.3810  147.1670 C   0  0  0  0  0  3  0  0  0  0  0  0
  188.7240  177.0950  146.3010 C   0  0  0  0  0  3  0  0  0  0  0  0
  189.5390  178.0420  148.3770 C   0  0  0  0  0  3  0  0  0  0  0  0
  187.4160  177.4580  146.6390 C   0  0  0  0  0  0  0  0  0  0  0  0
  187.1790  178.1290  147.8470 C   0  0  0  0  0  3  0  0  0  0  0  0
  188.2370  178.4170  148.7130 C   0  0  0  0  0  3  0  0  0  0  0  0
  183.4390  179.8530  138.5290 O   0  0  0  0  0  0  0  0  0  0  0  0
  184.0670  178.8100  138.8530 C   0  0  0  0  0  0  0  0  0  0  0  0
  183.9000  177.5610  138.0500 C   0  0  0  0  0  2  0  0  0  0  0  0
  182.7600  177.6780  137.1570 N   0  0  0  0  0  2  0  0  0  0  0  0
  183.7730  177.2790  134.9920 C   0  0  0  0  0  1  0  0  0  0  0  0
  183.6020  175.5710  136.6350 O   0  0  0  0  0  1  0  0  0  0  0  0
  182.9430  176.6840  136.1110 C   0  0  1  0  0  3  0  0  0  0  0  0
  188.2780  178.8530  141.3320 C   0  0  0  0  0  2  0  0  0  0  0  0
  188.9060  178.0690  140.1920 C   0  0  0  0  0  2  0  0  0  0  0  0
  189.2490  176.6710  140.6630 C   0  0  0  0  0  2  0  0  0  0  0  0
  190.5010  176.6890  141.5250 C   0  0  0  0  0  2  0  0  0  0  0  0
  190.5890  174.7590  142.9540 F   0  0  0  0  0  0  0  0  0  0  0  0
  188.8970  176.1990  143.1680 F   0  0  0  0  0  0  0  0  0  0  0  0
  190.2540  176.1080  142.9210 C   0  0  0  0  0  0  0  0  0  0  0  0
  190.9220  176.8650  143.9090 O   0  0  0  0  0  0  0  0  0  0  0  0
  190.5720  179.2150  144.0800 C   0  0  0  0  0  2  0  0  0  0  0  0
  191.3230  178.1030  143.3810 C   0  0  0  0  0  3  0  0  0  0  0  0
  191.9980  178.9060  144.4710 C   0  0  0  0  0  2  0  0  0  0  0  0
  1  3  2  0  0  0  0
  1  2  1  0  0  0  0
  2 25  1  0  0  0  0
  2  5  1  0  0  0  0
  3  4  1  0  0  0  0
  5  4  1  6  0  0  0
  5  7  1  0  0  0  0
  6  9  1  1  0  0  0
  6 11  1  0  0  0  0
  7  8  1  6  0  0  0
  7  6  1  0  0  0  0
  8  6  1  0  0  0  0
  9 10  1  0  0  0  0
 11 15  1  0  0  0  0
 12 14  1  0  0  0  0
 13 15  1  0  0  0  0
 13 12  2  0  0  0  0
 14 17  2  0  0  0  0
 15 16  2  0  0  0  0
 16 17  1  0  0  0  0
 18 19  2  0  0  0  0
 19  3  1  0  0  0  0
 20 19  1  0  0  0  0
 21 20  1  0  0  0  0
 24 22  1  6  0  0  0
 24 23  1  0  0  0  0
 24 21  1  0  0  0  0
 26 27  1  0  0  0  0
 26 25  1  0  0  0  0
 27 28  1  0  0  0  0
 28 31  1  0  0  0  0
 31 29  1  0  0  0  0
 31 30  1  0  0  0  0
 31 32  1  0  0  0  0
 33 35  1  0  0  0  0
 34 32  1  0  0  0  0
 34 33  1  0  0  0  0
 34 35  1  0  0  0  0
M  END
>  <MODEL>
7

>  <REMARK>
 VINA RESULT:      -6.4      3.153      5.013
  Name = 
  15 active torsions:
  status: ('A' for Active; 'I' for Inactive)
    1  A    between atoms: C_4  and  C_22
    2  A    between atoms: C_4  and  N_28
    3  A    between atoms: C_5  and  C_11
    4  A    between atoms: C_5  and  C_23
    5  A    between atoms: N_9  and  C_23
    6  A    between atoms: C_10  and  C_14
    7  A    between atoms: C_10  and  N_20
    8  A    between atoms: C_11  and  C_19
    9  A    between atoms: C_13  and  C_19
   10  A    between atoms: C_13  and  O_29
   11  A    between atoms: C_14  and  C_25
   12  A    between atoms: C_15  and  O_29
   13  A    between atoms: C_17  and  C_35
   14  A    between atoms: N_20  and  C_31
   15  A    between atoms: C_24  and  N_28
                            x       y       z     vdW  Elec       q    Type
                         _______ _______ _______ _____ _____    ______ ____

>  <TORSDO>
F 15

$$$$
=
 OpenBabel10232410463D

 35 38  0  0  1  0  0  0  0  0999 V2000
  187.8520  178.5070  139.1160 N   0  0  0  0  0  0  0  0  0  0  0  0
  187.7420  178.2130  140.4740 N   0  0  0  0  0  0  0  0  0  0  0  0
  188.8670  177.9580  138.5450 C   0  0  0  0  0  0  0  0  0  0  0  0
  189.9020  176.9570  139.6140 S   0  0  0  0  0  0  0  0  0  0  0  0
  188.7740  177.3360  141.0080 C   0  0  1  0  0  3  0  0  0  0  0  0
  189.6870  177.2040  143.3410 C   0  0  2  0  0  0  0  0  0  0  0  0
  189.5420  178.0440  142.1210 C   0  0  1  0  0  3  0  0  0  0  0  0
  190.7300  177.3370  142.4110 O   0  0  0  0  0  0  0  0  0  0  0  0
  189.2590  175.7460  143.4330 C   0  0  0  0  0  2  0  0  0  0  0  0
  187.8750  175.6450  143.3510 O   0  0  0  0  0  1  0  0  0  0  0  0
  190.0340  177.8910  144.5790 N   0  0  0  0  0  2  0  0  0  0  0  0
  187.0590  178.0380  146.8200 C   0  0  0  0  0  3  0  0  0  0  0  0
  187.8560  178.0510  145.6710 C   0  0  0  0  0  3  0  0  0  0  0  0
  187.6440  177.8260  148.0740 C   0  0  0  0  0  3  0  0  0  0  0  0
  189.2390  177.8600  145.7670 C   0  0  0  0  0  0  0  0  0  0  0  0
  189.8170  177.6380  147.0240 C   0  0  0  0  0  3  0  0  0  0  0  0
  189.0220  177.6230  148.1730 C   0  0  0  0  0  3  0  0  0  0  0  0
  189.3280  179.2720  136.6340 O   0  0  0  0  0  0  0  0  0  0  0  0
  189.1230  178.1230  137.1070 C   0  0  0  0  0  0  0  0  0  0  0  0
  189.0720  176.9420  136.1930 C   0  0  0  0  0  2  0  0  0  0  0  0
  190.2490  176.9030  135.3430 N   0  0  0  0  0  2  0  0  0  0  0  0
  191.0710  174.8390  136.3100 C   0  0  0  0  0  1  0  0  0  0  0  0
  189.3370  174.8650  134.6860 O   0  0  0  0  0  1  0  0  0  0  0  0
  190.5190  175.5020  135.0640 C   0  0  1  0  0  3  0  0  0  0  0  0
  186.6020  178.6560  141.2580 C   0  0  0  0  0  2  0  0  0  0  0  0
  185.3930  178.8250  140.3540 C   0  0  0  0  0  2  0  0  0  0  0  0
  184.1740  179.1610  141.1880 C   0  0  0  0  0  2  0  0  0  0  0  0
  184.1590  178.3420  142.4680 C   0  0  0  0  0  2  0  0  0  0  0  0
  184.9010  180.2540  143.7200 F   0  0  0  0  0  0  0  0  0  0  0  0
  184.2520  178.4200  144.8120 F   0  0  0  0  0  0  0  0  0  0  0  0
  183.9790  179.2130  143.7150 C   0  0  0  0  0  0  0  0  0  0  0  0
  182.6440  179.6620  143.8300 O   0  0  0  0  0  0  0  0  0  0  0  0
  180.4970  178.6540  144.0510 C   0  0  0  0  0  2  0  0  0  0  0  0
  181.7700  178.7330  143.2390 C   0  0  0  0  0  3  0  0  0  0  0  0
  180.5270  179.4580  142.7730 C   0  0  0  0  0  2  0  0  0  0  0  0
  1  2  1  0  0  0  0
  2  5  1  0  0  0  0
  2 25  1  0  0  0  0
  3  1  2  0  0  0  0
  3  4  1  0  0  0  0
  5  4  1  6  0  0  0
  5  7  1  0  0  0  0
  6  9  1  1  0  0  0
  6 11  1  0  0  0  0
  7  8  1  6  0  0  0
  7  6  1  0  0  0  0
  8  6  1  0  0  0  0
 10  9  1  0  0  0  0
 11 15  1  0  0  0  0
 12 14  1  0  0  0  0
 13 15  1  0  0  0  0
 13 12  2  0  0  0  0
 14 17  2  0  0  0  0
 15 16  2  0  0  0  0
 16 17  1  0  0  0  0
 18 19  2  0  0  0  0
 19  3  1  0  0  0  0
 20 19  1  0  0  0  0
 21 20  1  0  0  0  0
 23 24  1  0  0  0  0
 24 21  1  0  0  0  0
 24 22  1  1  0  0  0
 26 27  1  0  0  0  0
 26 25  1  0  0  0  0
 27 28  1  0  0  0  0
 28 31  1  0  0  0  0
 31 29  1  0  0  0  0
 31 32  1  0  0  0  0
 31 30  1  0  0  0  0
 34 32  1  0  0  0  0
 34 33  1  0  0  0  0
 35 34  1  0  0  0  0
 35 33  1  0  0  0  0
M  END
>  <MODEL>
8

>  <REMARK>
 VINA RESULT:      -6.3      1.861      2.765
  Name = 
  15 active torsions:
  status: ('A' for Active; 'I' for Inactive)
    1  A    between atoms: C_4  and  C_22
    2  A    between atoms: C_4  and  N_28
    3  A    between atoms: C_5  and  C_11
    4  A    between atoms: C_5  and  C_23
    5  A    between atoms: N_9  and  C_23
    6  A    between atoms: C_10  and  C_14
    7  A    between atoms: C_10  and  N_20
    8  A    between atoms: C_11  and  C_19
    9  A    between atoms: C_13  and  C_19
   10  A    between atoms: C_13  and  O_29
   11  A    between atoms: C_14  and  C_25
   12  A    between atoms: C_15  and  O_29
   13  A    between atoms: C_17  and  C_35
   14  A    between atoms: N_20  and  C_31
   15  A    between atoms: C_24  and  N_28
                            x       y       z     vdW  Elec       q    Type
                         _______ _______ _______ _____ _____    ______ ____

>  <TORSDO>
F 15

$$$$
=
 OpenBabel10232410463D

 35 38  0  0  1  0  0  0  0  0999 V2000
  188.5800  177.9550  142.7270 N   0  0  0  0  0  0  0  0  0  0  0  0
  187.8850  178.3900  141.6000 N   0  0  0  0  0  0  0  0  0  0  0  0
  189.7410  177.4640  142.4650 C   0  0  0  0  0  0  0  0  0  0  0  0
  190.1930  177.4430  140.7290 S   0  0  0  0  0  0  0  0  0  0  0  0
  188.5840  178.2280  140.3340 C   0  0  1  0  0  3  0  0  0  0  0  0
  187.9460  177.6920  137.9670 C   0  0  2  0  0  0  0  0  0  0  0  0
  187.7800  177.3260  139.4000 C   0  0  1  0  0  3  0  0  0  0  0  0
  188.6530  176.6240  138.5400 O   0  0  0  0  0  0  0  0  0  0  0  0
  188.9210  178.7440  137.4590 C   0  0  0  0  0  2  0  0  0  0  0  0
  188.2290  179.8470  136.9710 O   0  0  0  0  0  1  0  0  0  0  0  0
  186.9460  177.1840  137.0360 N   0  0  0  0  0  2  0  0  0  0  0  0
  187.8760  174.4370  134.6950 C   0  0  0  0  0  3  0  0  0  0  0  0
  187.8200  175.6890  135.3150 C   0  0  0  0  0  3  0  0  0  0  0  0
  187.1090  173.3760  135.1920 C   0  0  0  0  0  3  0  0  0  0  0  0
  186.9960  175.8920  136.4270 C   0  0  0  0  0  0  0  0  0  0  0  0
  186.2390  174.8230  136.9270 C   0  0  0  0  0  3  0  0  0  0  0  0
  186.2940  173.5700  136.3080 C   0  0  0  0  0  3  0  0  0  0  0  0
  191.5890  176.2170  143.2510 O   0  0  0  0  0  0  0  0  0  0  0  0
  190.6350  176.9910  143.5300 C   0  0  0  0  0  0  0  0  0  0  0  0
  190.3760  177.3670  144.9530 C   0  0  0  0  0  2  0  0  0  0  0  0
  191.6140  177.3720  145.7130 N   0  0  0  0  0  2  0  0  0  0  0  0
  192.3470  175.3580  146.8440 C   0  0  0  0  0  1  0  0  0  0  0  0
  191.6190  177.2790  148.0390 O   0  0  0  0  0  1  0  0  0  0  0  0
  191.3930  176.5340  146.8810 C   0  0  1  0  0  3  0  0  0  0  0  0
  186.6050  179.0700  141.7120 C   0  0  0  0  0  2  0  0  0  0  0  0
  185.5100  178.0570  141.9950 C   0  0  0  0  0  2  0  0  0  0  0  0
  184.7030  178.4990  143.1980 C   0  0  0  0  0  2  0  0  0  0  0  0
  185.6060  179.1330  144.2440 C   0  0  0  0  0  2  0  0  0  0  0  0
  186.0430  176.9040  145.0270 F   0  0  0  0  0  0  0  0  0  0  0  0
  184.6770  178.2240  146.1980 F   0  0  0  0  0  0  0  0  0  0  0  0
  185.8370  178.2140  145.4470 C   0  0  0  0  0  0  0  0  0  0  0  0
  186.8820  178.7000  146.2630 O   0  0  0  0  0  0  0  0  0  0  0  0
  187.9660  177.0370  147.5800 C   0  0  0  0  0  2  0  0  0  0  0  0
  186.8550  178.0620  147.5140 C   0  0  0  0  0  3  0  0  0  0  0  0
  188.1370  178.3780  148.2530 C   0  0  0  0  0  2  0  0  0  0  0  0
  2 25  1  0  0  0  0
  2  1  1  0  0  0  0
  3  1  2  0  0  0  0
  3 19  1  0  0  0  0
  4  3  1  0  0  0  0
  5  4  1  1  0  0  0
  5  2  1  0  0  0  0
  6  9  1  6  0  0  0
  6  8  1  0  0  0  0
  6  7  1  0  0  0  0
  7  8  1  6  0  0  0
  7  5  1  0  0  0  0
 10  9  1  0  0  0  0
 11  6  1  0  0  0  0
 12 14  2  0  0  0  0
 12 13  1  0  0  0  0
 13 15  2  0  0  0  0
 14 17  1  0  0  0  0
 15 16  1  0  0  0  0
 15 11  1  0  0  0  0
 17 16  2  0  0  0  0
 18 19  2  0  0  0  0
 19 20  1  0  0  0  0
 20 21  1  0  0  0  0
 21 24  1  0  0  0  0
 24 22  1  6  0  0  0
 24 23  1  0  0  0  0
 25 26  1  0  0  0  0
 26 27  1  0  0  0  0
 27 28  1  0  0  0  0
 28 31  1  0  0  0  0
 29 31  1  0  0  0  0
 31 30  1  0  0  0  0
 31 32  1  0  0  0  0
 32 34  1  0  0  0  0
 33 35  1  0  0  0  0
 34 33  1  0  0  0  0
 34 35  1  0  0  0  0
M  END
>  <MODEL>
9

>  <REMARK>
 VINA RESULT:      -6.3      1.999      7.431
  Name = 
  15 active torsions:
  status: ('A' for Active; 'I' for Inactive)
    1  A    between atoms: C_4  and  C_22
    2  A    between atoms: C_4  and  N_28
    3  A    between atoms: C_5  and  C_11
    4  A    between atoms: C_5  and  C_23
    5  A    between atoms: N_9  and  C_23
    6  A    between atoms: C_10  and  C_14
    7  A    between atoms: C_10  and  N_20
    8  A    between atoms: C_11  and  C_19
    9  A    between atoms: C_13  and  C_19
   10  A    between atoms: C_13  and  O_29
   11  A    between atoms: C_14  and  C_25
   12  A    between atoms: C_15  and  O_29
   13  A    between atoms: C_17  and  C_35
   14  A    between atoms: N_20  and  C_31
   15  A    between atoms: C_24  and  N_28
                            x       y       z     vdW  Elec       q    Type
                         _______ _______ _______ _____ _____    ______ ____

>  <TORSDO>
F 15

$$$$
