=
 OpenBabel10232408143D

 32 37  0  0  1  0  0  0  0  0999 V2000
  188.4700  177.9340  140.5920 C   0  0  0  0  0  0  0  0  0  0  0  0
  189.6930  177.5770  140.8760 N   0  0  0  0  0  0  0  0  0  0  0  0
  183.3050  179.5770  144.2840 N   0  0  0  0  0  1  0  0  0  0  0  0
  186.6590  177.9620  143.9130 C   0  0  0  0  0  0  0  0  0  0  0  0
  186.8560  177.5180  145.2210 C   0  0  0  0  0  3  0  0  0  0  0  0
  185.8740  177.7660  146.1800 C   0  0  0  0  0  3  0  0  0  0  0  0
  186.2630  178.8570  141.2930 C   0  0  0  0  0  3  0  0  0  0  0  0
  187.6290  177.7220  142.9390 C   0  0  0  0  0  3  0  0  0  0  0  0
  187.4290  178.1510  141.6190 C   0  0  0  0  0  0  0  0  0  0  0  0
  185.2880  179.1030  142.2630 C   0  0  0  0  0  3  0  0  0  0  0  0
  184.5150  178.8820  144.5750 C   0  0  0  0  0  0  0  0  0  0  0  0
  185.4750  178.6550  143.5770 C   0  0  0  0  0  0  0  0  0  0  0  0
  184.7380  178.4340  145.8420 N   0  0  0  0  0  0  0  0  0  0  0  0
  189.0490  178.9300  136.9600 N   0  0  0  0  0  2  0  0  0  0  0  0
  188.6860  177.5910  136.5170 C   0  0  2  0  0  3  0  0  0  0  0  0
  189.3060  178.8300  138.4040 C   0  0  0  0  0  2  0  0  0  0  0  0
  187.0550  176.0820  136.2810 C   0  0  0  0  0  2  0  0  0  0  0  0
  188.1100  178.2080  139.1630 C   0  0  1  0  0  3  0  0  0  0  0  0
  188.5960  177.4710  135.0750 N   0  0  0  0  0  0  0  0  0  0  0  0
  187.6650  176.3560  134.9100 C   0  0  0  0  0  2  0  0  0  0  0  0
  189.8900  177.0110  134.6020 C   0  0  0  0  0  1  0  0  0  0  0  0
  187.6120  176.9340  138.4620 C   0  0  0  0  0  2  0  0  0  0  0  0
  187.3910  177.2500  137.0600 N   0  0  1  0  0  0  0  0  0  0  0  0
  190.2170  177.1690  142.1480 C   0  0  0  0  0  0  0  0  0  0  0  0
  191.6990  174.9190  144.4160 C   0  0  0  0  0  3  0  0  0  0  0  0
  192.1500  175.1790  145.7210 C   0  0  0  0  0  3  0  0  0  0  0  0
  190.4490  178.1500  143.2730 C   0  0  0  0  0  2  0  0  0  0  0  0
  190.6400  175.9600  142.3860 N   0  0  0  0  0  0  0  0  0  0  0  0
  192.0380  176.4810  146.2540 C   0  0  0  0  0  3  0  0  0  0  0  0
  191.4940  177.4900  145.5100 N   0  0  0  0  0  0  0  0  0  0  0  0
  191.1520  175.9800  143.7040 C   0  0  0  0  0  0  0  0  0  0  0  0
  191.0600  177.2250  144.2520 C   0  0  0  0  0  0  0  0  0  0  0  0
  1  2  2  0  0  0  0
  1  9  1  0  0  0  0
  2 24  1  0  0  0  0
  3 11  1  0  0  0  0
  4  5  2  0  0  0  0
  5  6  1  0  0  0  0
  7  9  1  0  0  0  0
  7 10  2  0  0  0  0
  8  4  1  0  0  0  0
  9  8  2  0  0  0  0
 10 12  1  0  0  0  0
 11 13  1  0  0  0  0
 12  4  1  0  0  0  0
 12 11  2  0  0  0  0
 13  6  2  0  0  0  0
 14 16  1  0  0  0  0
 15 14  1  6  0  0  0
 15 23  1  0  0  0  0
 16 18  1  0  0  0  0
 18  1  1  1  0  0  0
 19 15  1  0  0  0  0
 20 19  1  0  0  0  0
 20 17  1  0  0  0  0
 21 19  1  0  0  0  0
 22 18  1  0  0  0  0
 23 17  1  6  0  0  0
 23 22  1  0  0  0  0
 24 28  2  0  0  0  0
 24 27  1  0  0  0  0
 25 26  1  0  0  0  0
 26 29  2  0  0  0  0
 27 32  1  0  0  0  0
 28 31  1  0  0  0  0
 30 29  1  0  0  0  0
 31 32  1  0  0  0  0
 31 25  2  0  0  0  0
 32 30  2  0  0  0  0
M  END
>  <MODEL>
1

>  <REMARK>
 VINA RESULT:      -9.3      0.000      0.000
  Name = 
  3 active torsions:
  status: ('A' for Active; 'I' for Inactive)
    1  A    between atoms: C_5  and  N_32
    2  A    between atoms: C_12  and  C_16
    3  A    between atoms: C_16  and  C_17
                            x       y       z     vdW  Elec       q    Type
                         _______ _______ _______ _____ _____    ______ ____

>  <TORSDO>
F 3

$$$$
=
 OpenBabel10232408143D

 32 37  0  0  1  0  0  0  0  0999 V2000
  188.4250  178.0060  141.1900 C   0  0  0  0  0  0  0  0  0  0  0  0
  189.6600  177.6460  141.4170 N   0  0  0  0  0  0  0  0  0  0  0  0
  184.8230  178.2580  146.6640 N   0  0  0  0  0  1  0  0  0  0  0  0
  185.1430  178.6510  142.9580 C   0  0  0  0  0  0  0  0  0  0  0  0
  183.8380  179.0300  142.6450 C   0  0  0  0  0  3  0  0  0  0  0  0
  182.8960  179.1440  143.6680 C   0  0  0  0  0  3  0  0  0  0  0  0
  187.7600  177.8880  143.5890 C   0  0  0  0  0  3  0  0  0  0  0  0
  186.0990  178.5330  141.9480 C   0  0  0  0  0  3  0  0  0  0  0  0
  187.4180  178.1700  142.2600 C   0  0  0  0  0  0  0  0  0  0  0  0
  186.8070  178.0020  144.6060 C   0  0  0  0  0  3  0  0  0  0  0  0
  184.5150  178.5150  145.2970 C   0  0  0  0  0  0  0  0  0  0  0  0
  185.4960  178.3870  144.3000 C   0  0  0  0  0  0  0  0  0  0  0  0
  183.2500  178.8870  144.9570 N   0  0  0  0  0  0  0  0  0  0  0  0
  188.8910  179.0910  137.5680 N   0  0  0  0  0  2  0  0  0  0  0  0
  188.4450  177.7850  137.1010 C   0  0  2  0  0  3  0  0  0  0  0  0
  189.2070  178.9330  138.9950 C   0  0  0  0  0  2  0  0  0  0  0  0
  186.7350  176.3620  136.8950 C   0  0  0  0  0  2  0  0  0  0  0  0
  188.0170  178.3430  139.7890 C   0  0  1  0  0  3  0  0  0  0  0  0
  188.2860  177.7160  135.6620 N   0  0  0  0  0  0  0  0  0  0  0  0
  187.2960  176.6510  135.5070 C   0  0  0  0  0  2  0  0  0  0  0  0
  189.5340  177.2110  135.1170 C   0  0  0  0  0  1  0  0  0  0  0  0
  187.4270  177.1160  139.0730 C   0  0  0  0  0  2  0  0  0  0  0  0
  187.1610  177.4880  137.6930 N   0  0  1  0  0  0  0  0  0  0  0  0
  190.2280  177.1840  142.6520 C   0  0  0  0  0  0  0  0  0  0  0  0
  191.8180  174.8520  144.7580 C   0  0  0  0  0  3  0  0  0  0  0  0
  192.3010  175.0540  146.0610 C   0  0  0  0  0  3  0  0  0  0  0  0
  190.4720  178.1110  143.8190 C   0  0  0  0  0  2  0  0  0  0  0  0
  190.6810  175.9740  142.8150 N   0  0  0  0  0  0  0  0  0  0  0  0
  192.1790  176.3240  146.6640 C   0  0  0  0  0  3  0  0  0  0  0  0
  191.5940  177.3590  145.9890 N   0  0  0  0  0  0  0  0  0  0  0  0
  191.2310  175.9370  144.1170 C   0  0  0  0  0  0  0  0  0  0  0  0
  191.1300  177.1490  144.7310 C   0  0  0  0  0  0  0  0  0  0  0  0
  1  2  2  0  0  0  0
  1  9  1  0  0  0  0
  2 24  1  0  0  0  0
  4 12  1  0  0  0  0
  5  4  2  0  0  0  0
  5  6  1  0  0  0  0
  6 13  2  0  0  0  0
  7 10  2  0  0  0  0
  8  9  2  0  0  0  0
  8  4  1  0  0  0  0
  9  7  1  0  0  0  0
 11  3  1  0  0  0  0
 12 10  1  0  0  0  0
 12 11  2  0  0  0  0
 13 11  1  0  0  0  0
 14 16  1  0  0  0  0
 15 14  1  6  0  0  0
 15 23  1  0  0  0  0
 16 18  1  0  0  0  0
 18  1  1  1  0  0  0
 19 15  1  0  0  0  0
 20 19  1  0  0  0  0
 20 17  1  0  0  0  0
 21 19  1  0  0  0  0
 22 18  1  0  0  0  0
 23 17  1  6  0  0  0
 23 22  1  0  0  0  0
 24 28  2  0  0  0  0
 24 27  1  0  0  0  0
 25 26  1  0  0  0  0
 26 29  2  0  0  0  0
 27 32  1  0  0  0  0
 28 31  1  0  0  0  0
 30 29  1  0  0  0  0
 31 32  1  0  0  0  0
 31 25  2  0  0  0  0
 32 30  2  0  0  0  0
M  END
>  <MODEL>
2

>  <REMARK>
 VINA RESULT:      -8.7      0.757      1.601
  Name = 
  3 active torsions:
  status: ('A' for Active; 'I' for Inactive)
    1  A    between atoms: C_5  and  N_32
    2  A    between atoms: C_12  and  C_16
    3  A    between atoms: C_16  and  C_17
                            x       y       z     vdW  Elec       q    Type
                         _______ _______ _______ _____ _____    ______ ____

>  <TORSDO>
F 3

$$$$
=
 OpenBabel10232408143D

 32 37  0  0  1  0  0  0  0  0999 V2000
  189.2980  177.8010  141.1880 C   0  0  0  0  0  0  0  0  0  0  0  0
  188.0270  178.0380  141.0080 N   0  0  0  0  0  0  0  0  0  0  0  0
  191.6070  177.4430  147.3150 N   0  0  0  0  0  1  0  0  0  0  0  0
  191.1330  175.9390  143.9230 C   0  0  0  0  0  0  0  0  0  0  0  0
  191.7840  174.7200  144.1090 C   0  0  0  0  0  3  0  0  0  0  0  0
  192.3570  174.4350  145.3490 C   0  0  0  0  0  3  0  0  0  0  0  0
  189.8310  178.3870  143.5510 C   0  0  0  0  0  3  0  0  0  0  0  0
  190.5530  176.2420  142.6900 C   0  0  0  0  0  3  0  0  0  0  0  0
  189.8820  177.4600  142.5020 C   0  0  0  0  0  0  0  0  0  0  0  0
  190.4110  178.0930  144.7880 C   0  0  0  0  0  3  0  0  0  0  0  0
  191.6530  176.5380  146.2150 C   0  0  0  0  0  0  0  0  0  0  0  0
  191.0620  176.8680  144.9850 C   0  0  0  0  0  0  0  0  0  0  0  0
  192.2800  175.3380  146.3630 N   0  0  0  0  0  0  0  0  0  0  0  0
  192.4710  177.0960  139.2000 N   0  0  0  0  0  2  0  0  0  0  0  0
  191.7340  176.2180  138.3020 C   0  0  2  0  0  3  0  0  0  0  0  0
  191.6170  177.2890  140.3810 C   0  0  0  0  0  2  0  0  0  0  0  0
  190.1910  176.0650  136.6930 C   0  0  0  0  0  2  0  0  0  0  0  0
  190.2090  177.8030  139.9980 C   0  0  1  0  0  3  0  0  0  0  0  0
  192.5220  175.7620  137.1730 N   0  0  0  0  0  0  0  0  0  0  0  0
  191.4980  175.4820  136.1680 C   0  0  0  0  0  2  0  0  0  0  0  0
  193.1040  174.4850  137.5470 C   0  0  0  0  0  1  0  0  0  0  0  0
  189.6140  176.9800  138.8430 C   0  0  0  0  0  2  0  0  0  0  0  0
  190.5960  176.9340  137.7720 N   0  0  1  0  0  0  0  0  0  0  0  0
  187.0090  178.1860  142.0100 C   0  0  0  0  0  0  0  0  0  0  0  0
  185.6500  177.8910  145.2450 C   0  0  0  0  0  3  0  0  0  0  0  0
  184.4360  178.4130  145.7220 C   0  0  0  0  0  3  0  0  0  0  0  0
  185.7610  179.0010  141.7710 C   0  0  0  0  0  2  0  0  0  0  0  0
  187.1400  177.7350  143.2240 N   0  0  0  0  0  0  0  0  0  0  0  0
  183.6110  179.1670  144.8610 C   0  0  0  0  0  3  0  0  0  0  0  0
  183.9840  179.3940  143.5660 N   0  0  0  0  0  0  0  0  0  0  0  0
  185.9810  178.1500  143.9190 C   0  0  0  0  0  0  0  0  0  0  0  0
  185.1580  178.8820  143.1170 C   0  0  0  0  0  0  0  0  0  0  0  0
  1  9  1  0  0  0  0
  2  1  2  0  0  0  0
  2 24  1  0  0  0  0
  4  5  2  0  0  0  0
  4 12  1  0  0  0  0
  5  6  1  0  0  0  0
  6 13  2  0  0  0  0
  7 10  2  0  0  0  0
  8  4  1  0  0  0  0
  9  8  2  0  0  0  0
  9  7  1  0  0  0  0
 10 12  1  0  0  0  0
 11 13  1  0  0  0  0
 11  3  1  0  0  0  0
 12 11  2  0  0  0  0
 14 16  1  0  0  0  0
 15 14  1  1  0  0  0
 18 16  1  0  0  0  0
 18  1  1  1  0  0  0
 19 21  1  0  0  0  0
 19 15  1  0  0  0  0
 20 17  1  0  0  0  0
 20 19  1  0  0  0  0
 22 18  1  0  0  0  0
 23 17  1  6  0  0  0
 23 15  1  0  0  0  0
 23 22  1  0  0  0  0
 24 28  2  0  0  0  0
 25 26  1  0  0  0  0
 27 24  1  0  0  0  0
 27 32  1  0  0  0  0
 28 31  1  0  0  0  0
 29 26  2  0  0  0  0
 30 29  1  0  0  0  0
 31 25  2  0  0  0  0
 32 30  2  0  0  0  0
 32 31  1  0  0  0  0
M  END
>  <MODEL>
3

>  <REMARK>
 VINA RESULT:      -8.6      2.085      5.461
  Name = 
  3 active torsions:
  status: ('A' for Active; 'I' for Inactive)
    1  A    between atoms: C_5  and  N_32
    2  A    between atoms: C_12  and  C_16
    3  A    between atoms: C_16  and  C_17
                            x       y       z     vdW  Elec       q    Type
                         _______ _______ _______ _____ _____    ______ ____

>  <TORSDO>
F 3

$$$$
=
 OpenBabel10232408143D

 32 37  0  0  1  0  0  0  0  0999 V2000
  190.4490  176.7280  138.3040 C   0  0  0  0  0  0  0  0  0  0  0  0
  190.4680  177.1210  139.5490 N   0  0  0  0  0  0  0  0  0  0  0  0
  185.3050  177.6680  134.3460 N   0  0  0  0  0  1  0  0  0  0  0  0
  187.1360  175.5980  136.8680 C   0  0  0  0  0  0  0  0  0  0  0  0
  186.2500  174.5280  136.9870 C   0  0  0  0  0  3  0  0  0  0  0  0
  185.0780  174.5260  136.2300 C   0  0  0  0  0  3  0  0  0  0  0  0
  188.9110  177.7480  136.6280 C   0  0  0  0  0  3  0  0  0  0  0  0
  188.3140  175.6180  137.6160 C   0  0  0  0  0  3  0  0  0  0  0  0
  189.2180  176.6840  137.4860 C   0  0  0  0  0  0  0  0  0  0  0  0
  187.7320  177.7370  135.8780 C   0  0  0  0  0  3  0  0  0  0  0  0
  185.6480  176.6180  135.2460 C   0  0  0  0  0  0  0  0  0  0  0  0
  186.8390  176.6630  135.9880 C   0  0  0  0  0  0  0  0  0  0  0  0
  184.8050  175.5580  135.3860 N   0  0  0  0  0  0  0  0  0  0  0  0
  194.1830  176.0120  138.0550 N   0  0  0  0  0  2  0  0  0  0  0  0
  193.9110  174.6340  137.6720 C   0  0  2  0  0  3  0  0  0  0  0  0
  192.9300  176.5390  138.6160 C   0  0  0  0  0  2  0  0  0  0  0  0
  193.1160  173.2560  136.1020 C   0  0  0  0  0  2  0  0  0  0  0  0
  191.7430  176.3710  137.6390 C   0  0  1  0  0  3  0  0  0  0  0  0
  195.1010  173.9020  137.2850 N   0  0  0  0  0  0  0  0  0  0  0  0
  194.5630  172.8750  136.3950 C   0  0  0  0  0  2  0  0  0  0  0  0
  195.5860  173.2170  138.4710 C   0  0  0  0  0  1  0  0  0  0  0  0
  191.6960  174.9440  137.0650 C   0  0  0  0  0  2  0  0  0  0  0  0
  193.0140  174.6290  136.5380 N   0  0  1  0  0  0  0  0  0  0  0  0
  189.3470  177.4060  140.3990 C   0  0  0  0  0  0  0  0  0  0  0  0
  187.4890  177.2590  143.3860 C   0  0  0  0  0  3  0  0  0  0  0  0
  186.3120  177.9560  143.7060 C   0  0  0  0  0  3  0  0  0  0  0  0
  188.2890  178.4140  140.0190 C   0  0  0  0  0  2  0  0  0  0  0  0
  189.2230  176.9140  141.5980 N   0  0  0  0  0  0  0  0  0  0  0  0
  185.7510  178.8500  142.7700 C   0  0  0  0  0  3  0  0  0  0  0  0
  186.3440  179.0440  141.5540 N   0  0  0  0  0  0  0  0  0  0  0  0
  188.0510  177.4920  142.1350 C   0  0  0  0  0  0  0  0  0  0  0  0
  187.4800  178.3630  141.2570 C   0  0  0  0  0  0  0  0  0  0  0  0
  1  2  2  0  0  0  0
  2 24  1  0  0  0  0
  3 11  1  0  0  0  0
  4  5  1  0  0  0  0
  4  8  1  0  0  0  0
  6  5  2  0  0  0  0
  7  9  1  0  0  0  0
  9  8  2  0  0  0  0
  9  1  1  0  0  0  0
 10 12  1  0  0  0  0
 10  7  2  0  0  0  0
 11 13  2  0  0  0  0
 11 12  1  0  0  0  0
 12  4  2  0  0  0  0
 13  6  1  0  0  0  0
 14 16  1  0  0  0  0
 15 14  1  6  0  0  0
 17 20  1  0  0  0  0
 18  1  1  1  0  0  0
 18 16  1  0  0  0  0
 19 15  1  0  0  0  0
 19 21  1  0  0  0  0
 20 19  1  0  0  0  0
 22 18  1  0  0  0  0
 23 17  1  1  0  0  0
 23 22  1  0  0  0  0
 23 15  1  0  0  0  0
 24 28  2  0  0  0  0
 25 26  1  0  0  0  0
 27 24  1  0  0  0  0
 27 32  1  0  0  0  0
 28 31  1  0  0  0  0
 29 26  2  0  0  0  0
 30 29  1  0  0  0  0
 31 25  2  0  0  0  0
 32 30  2  0  0  0  0
 32 31  1  0  0  0  0
M  END
>  <MODEL>
4

>  <REMARK>
 VINA RESULT:      -8.4      3.445      6.623
  Name = 
  3 active torsions:
  status: ('A' for Active; 'I' for Inactive)
    1  A    between atoms: C_5  and  N_32
    2  A    between atoms: C_12  and  C_16
    3  A    between atoms: C_16  and  C_17
                            x       y       z     vdW  Elec       q    Type
                         _______ _______ _______ _____ _____    ______ ____

>  <TORSDO>
F 3

$$$$
=
 OpenBabel10232408143D

 32 37  0  0  1  0  0  0  0  0999 V2000
  186.8430  178.4690  140.1840 C   0  0  0  0  0  0  0  0  0  0  0  0
  185.9610  178.5900  139.2280 N   0  0  0  0  0  0  0  0  0  0  0  0
  184.3070  179.0150  146.2060 N   0  0  0  0  0  1  0  0  0  0  0  0
  187.0450  177.8930  143.9170 C   0  0  0  0  0  0  0  0  0  0  0  0
  187.9200  177.3330  144.8480 C   0  0  0  0  0  3  0  0  0  0  0  0
  187.5760  177.3450  146.2000 C   0  0  0  0  0  3  0  0  0  0  0  0
  185.2890  179.0190  142.0530 C   0  0  0  0  0  3  0  0  0  0  0  0
  187.3710  177.8900  142.5600 C   0  0  0  0  0  3  0  0  0  0  0  0
  186.4860  178.4360  141.6170 C   0  0  0  0  0  0  0  0  0  0  0  0
  184.9560  179.0280  143.4100 C   0  0  0  0  0  3  0  0  0  0  0  0
  185.5230  178.4510  145.7210 C   0  0  0  0  0  0  0  0  0  0  0  0
  185.8270  178.4630  144.3510 C   0  0  0  0  0  0  0  0  0  0  0  0
  186.3990  177.8960  146.6040 N   0  0  0  0  0  0  0  0  0  0  0  0
  190.2320  176.7330  140.0550 N   0  0  0  0  0  2  0  0  0  0  0  0
  190.1200  176.5830  138.6110 C   0  0  2  0  0  3  0  0  0  0  0  0
  188.8830  177.0540  140.5420 C   0  0  0  0  0  2  0  0  0  0  0  0
  190.1010  177.6080  136.6250 C   0  0  0  0  0  2  0  0  0  0  0  0
  188.2840  178.2830  139.8170 C   0  0  1  0  0  3  0  0  0  0  0  0
  191.3260  176.0640  137.9940 N   0  0  0  0  0  0  0  0  0  0  0  0
  191.2290  176.5820  136.6300 C   0  0  0  0  0  2  0  0  0  0  0  0
  191.1760  174.6220  137.9080 C   0  0  0  0  0  1  0  0  0  0  0  0
  188.4580  178.1670  138.2940 C   0  0  0  0  0  2  0  0  0  0  0  0
  189.8570  177.8770  138.0230 N   0  0  1  0  0  0  0  0  0  0  0  0
  184.5610  178.8780  139.3550 C   0  0  0  0  0  0  0  0  0  0  0  0
  181.6740  180.8740  139.0600 C   0  0  0  0  0  3  0  0  0  0  0  0
  180.3390  180.4990  139.2840 C   0  0  0  0  0  3  0  0  0  0  0  0
  183.5510  177.8120  139.7070 C   0  0  0  0  0  2  0  0  0  0  0  0
  184.0470  180.0390  139.0640 N   0  0  0  0  0  0  0  0  0  0  0  0
  180.0380  179.1750  139.6680 C   0  0  0  0  0  3  0  0  0  0  0  0
  181.0360  178.2540  139.8230 N   0  0  0  0  0  0  0  0  0  0  0  0
  182.6510  179.8980  139.2330 C   0  0  0  0  0  0  0  0  0  0  0  0
  182.3220  178.6290  139.6050 C   0  0  0  0  0  0  0  0  0  0  0  0
  1  9  1  0  0  0  0
  2 24  1  0  0  0  0
  2  1  2  0  0  0  0
  4 12  1  0  0  0  0
  4  5  2  0  0  0  0
  5  6  1  0  0  0  0
  6 13  2  0  0  0  0
  7 10  2  0  0  0  0
  8  4  1  0  0  0  0
  9  7  1  0  0  0  0
  9  8  2  0  0  0  0
 10 12  1  0  0  0  0
 11  3  1  0  0  0  0
 11 13  1  0  0  0  0
 12 11  2  0  0  0  0
 14 16  1  0  0  0  0
 15 14  1  1  0  0  0
 17 20  1  0  0  0  0
 18  1  1  6  0  0  0
 18 16  1  0  0  0  0
 19 15  1  0  0  0  0
 20 19  1  0  0  0  0
 21 19  1  0  0  0  0
 22 18  1  0  0  0  0
 23 17  1  6  0  0  0
 23 22  1  0  0  0  0
 23 15  1  0  0  0  0
 24 27  1  0  0  0  0
 25 31  2  0  0  0  0
 25 26  1  0  0  0  0
 26 29  2  0  0  0  0
 28 31  1  0  0  0  0
 28 24  2  0  0  0  0
 29 30  1  0  0  0  0
 31 32  1  0  0  0  0
 32 27  1  0  0  0  0
 32 30  2  0  0  0  0
M  END
>  <MODEL>
5

>  <REMARK>
 VINA RESULT:      -8.4      2.890      6.222
  Name = 
  3 active torsions:
  status: ('A' for Active; 'I' for Inactive)
    1  A    between atoms: C_5  and  N_32
    2  A    between atoms: C_12  and  C_16
    3  A    between atoms: C_16  and  C_17
                            x       y       z     vdW  Elec       q    Type
                         _______ _______ _______ _____ _____    ______ ____

>  <TORSDO>
F 3

$$$$
=
 OpenBabel10232408143D

 32 37  0  0  1  0  0  0  0  0999 V2000
  189.8540  177.6120  141.7470 C   0  0  0  0  0  0  0  0  0  0  0  0
  190.2140  177.3750  140.5140 N   0  0  0  0  0  0  0  0  0  0  0  0
  183.5160  179.1630  142.4040 N   0  0  0  0  0  1  0  0  0  0  0  0
  186.7330  177.9320  143.8620 C   0  0  0  0  0  0  0  0  0  0  0  0
  186.3320  177.7220  145.1810 C   0  0  0  0  0  3  0  0  0  0  0  0
  185.0130  177.9930  145.5450 C   0  0  0  0  0  3  0  0  0  0  0  0
  187.5350  178.3570  141.2160 C   0  0  0  0  0  3  0  0  0  0  0  0
  188.0490  177.6650  143.4790 C   0  0  0  0  0  3  0  0  0  0  0  0
  188.4530  177.8570  142.1490 C   0  0  0  0  0  0  0  0  0  0  0  0
  186.2170  178.6290  141.5920 C   0  0  0  0  0  3  0  0  0  0  0  0
  184.4880  178.6740  143.3250 C   0  0  0  0  0  0  0  0  0  0  0  0
  185.8050  178.4150  142.9140 C   0  0  0  0  0  0  0  0  0  0  0  0
  184.1290  178.4580  144.6210 N   0  0  0  0  0  0  0  0  0  0  0  0
  191.4990  178.4840  145.0710 N   0  0  0  0  0  2  0  0  0  0  0  0
  191.3430  177.1100  145.5280 C   0  0  2  0  0  3  0  0  0  0  0  0
  190.6120  178.6340  143.9080 C   0  0  0  0  0  2  0  0  0  0  0  0
  191.9820  174.9820  145.2910 C   0  0  0  0  0  2  0  0  0  0  0  0
  190.8930  177.5650  142.8250 C   0  0  1  0  0  3  0  0  0  0  0  0
  191.9980  176.8510  146.7960 N   0  0  0  0  0  0  0  0  0  0  0  0
  192.2570  175.4140  146.7270 C   0  0  0  0  0  2  0  0  0  0  0  0
  191.0060  177.0500  147.8380 C   0  0  0  0  0  1  0  0  0  0  0  0
  190.9860  176.1610  143.4440 C   0  0  0  0  0  2  0  0  0  0  0  0
  191.9280  176.2200  144.5510 N   0  0  1  0  0  0  0  0  0  0  0  0
  189.4100  177.4710  139.3290 C   0  0  0  0  0  0  0  0  0  0  0  0
  187.1800  176.2750  136.8800 C   0  0  0  0  0  3  0  0  0  0  0  0
  186.5580  177.0000  135.8500 C   0  0  0  0  0  3  0  0  0  0  0  0
  189.1580  178.7880  138.6350 C   0  0  0  0  0  2  0  0  0  0  0  0
  188.7470  176.4630  138.8390 N   0  0  0  0  0  0  0  0  0  0  0  0
  186.8000  178.3840  135.7240 C   0  0  0  0  0  3  0  0  0  0  0  0
  187.6350  179.0250  136.5960 N   0  0  0  0  0  0  0  0  0  0  0  0
  188.0210  176.9740  137.7390 C   0  0  0  0  0  0  0  0  0  0  0  0
  188.2310  178.3120  137.5850 C   0  0  0  0  0  0  0  0  0  0  0  0
  1  9  1  0  0  0  0
  2  1  2  0  0  0  0
  3 11  1  0  0  0  0
  4  5  2  0  0  0  0
  5  6  1  0  0  0  0
  7 10  2  0  0  0  0
  7  9  1  0  0  0  0
  8  4  1  0  0  0  0
  9  8  2  0  0  0  0
 10 12  1  0  0  0  0
 11 13  1  0  0  0  0
 12 11  2  0  0  0  0
 12  4  1  0  0  0  0
 13  6  2  0  0  0  0
 15 14  1  6  0  0  0
 15 19  1  0  0  0  0
 16 14  1  0  0  0  0
 17 20  1  0  0  0  0
 18  1  1  6  0  0  0
 18 22  1  0  0  0  0
 18 16  1  0  0  0  0
 19 21  1  0  0  0  0
 20 19  1  0  0  0  0
 23 22  1  6  0  0  0
 23 17  1  0  0  0  0
 23 15  1  0  0  0  0
 24  2  1  0  0  0  0
 25 31  1  0  0  0  0
 26 25  2  0  0  0  0
 27 24  1  0  0  0  0
 28 24  2  0  0  0  0
 29 26  1  0  0  0  0
 29 30  2  0  0  0  0
 30 32  1  0  0  0  0
 31 28  1  0  0  0  0
 32 31  2  0  0  0  0
 32 27  1  0  0  0  0
M  END
>  <MODEL>
6

>  <REMARK>
 VINA RESULT:      -8.3      1.312      6.936
  Name = 
  3 active torsions:
  status: ('A' for Active; 'I' for Inactive)
    1  A    between atoms: C_5  and  N_32
    2  A    between atoms: C_12  and  C_16
    3  A    between atoms: C_16  and  C_17
                            x       y       z     vdW  Elec       q    Type
                         _______ _______ _______ _____ _____    ______ ____

>  <TORSDO>
F 3

$$$$
=
 OpenBabel10232408143D

 32 37  0  0  1  0  0  0  0  0999 V2000
  187.0280  178.4130  140.8280 C   0  0  0  0  0  0  0  0  0  0  0  0
  187.4290  178.1920  139.6060 N   0  0  0  0  0  0  0  0  0  0  0  0
  189.5590  176.5380  146.5800 N   0  0  0  0  0  1  0  0  0  0  0  0
  189.9190  178.2270  143.2610 C   0  0  0  0  0  0  0  0  0  0  0  0
  191.2490  178.6390  143.3460 C   0  0  0  0  0  3  0  0  0  0  0  0
  191.9820  178.3450  144.4960 C   0  0  0  0  0  3  0  0  0  0  0  0
  187.2510  177.4010  143.0950 C   0  0  0  0  0  3  0  0  0  0  0  0
  189.1700  178.5110  142.1180 C   0  0  0  0  0  3  0  0  0  0  0  0
  187.8370  178.0830  142.0200 C   0  0  0  0  0  0  0  0  0  0  0  0
  187.9940  177.1150  144.2440 C   0  0  0  0  0  3  0  0  0  0  0  0
  190.1080  177.2470  145.4720 C   0  0  0  0  0  0  0  0  0  0  0  0
  189.3320  177.5210  144.3340 C   0  0  0  0  0  0  0  0  0  0  0  0
  191.4040  177.6630  145.5220 N   0  0  0  0  0  0  0  0  0  0  0  0
  183.4100  179.3680  140.1090 N   0  0  0  0  0  2  0  0  0  0  0  0
  182.9780  178.7290  141.3440 C   0  0  2  0  0  3  0  0  0  0  0  0
  184.7680  178.8710  139.8420 C   0  0  0  0  0  2  0  0  0  0  0  0
  182.9890  178.7880  143.5780 C   0  0  0  0  0  2  0  0  0  0  0  0
  185.7140  179.1010  141.0440 C   0  0  1  0  0  3  0  0  0  0  0  0
  181.5770  178.9540  141.6450 N   0  0  0  0  0  0  0  0  0  0  0  0
  181.5410  178.8110  143.0990 C   0  0  0  0  0  2  0  0  0  0  0  0
  180.8360  177.8320  141.0950 C   0  0  0  0  0  1  0  0  0  0  0  0
  185.0590  178.6450  142.3590 C   0  0  0  0  0  2  0  0  0  0  0  0
  183.7470  179.2640  142.4450 N   0  0  1  0  0  0  0  0  0  0  0  0
  188.5900  177.4640  139.1800 C   0  0  0  0  0  0  0  0  0  0  0  0
  190.3010  174.8950  137.4830 C   0  0  0  0  0  3  0  0  0  0  0  0
  191.6880  174.7470  137.3140 C   0  0  0  0  0  3  0  0  0  0  0  0
  189.9900  177.9900  139.3900 C   0  0  0  0  0  2  0  0  0  0  0  0
  188.5220  176.3660  138.4820 N   0  0  0  0  0  0  0  0  0  0  0  0
  192.5660  175.7100  137.8530 C   0  0  0  0  0  3  0  0  0  0  0  0
  192.0790  176.7870  138.5390 N   0  0  0  0  0  0  0  0  0  0  0  0
  189.8580  176.0080  138.1900 C   0  0  0  0  0  0  0  0  0  0  0  0
  190.7370  176.9180  138.6970 C   0  0  0  0  0  0  0  0  0  0  0  0
  1  9  1  0  0  0  0
  2  1  2  0  0  0  0
  4  5  2  0  0  0  0
  4 12  1  0  0  0  0
  5  6  1  0  0  0  0
  6 13  2  0  0  0  0
  7 10  2  0  0  0  0
  8  4  1  0  0  0  0
  9  8  2  0  0  0  0
  9  7  1  0  0  0  0
 10 12  1  0  0  0  0
 11 13  1  0  0  0  0
 11  3  1  0  0  0  0
 12 11  2  0  0  0  0
 15 14  1  6  0  0  0
 15 19  1  0  0  0  0
 15 23  1  0  0  0  0
 16 14  1  0  0  0  0
 16 18  1  0  0  0  0
 18  1  1  6  0  0  0
 18 22  1  0  0  0  0
 19 20  1  0  0  0  0
 20 17  1  0  0  0  0
 21 19  1  0  0  0  0
 23 22  1  1  0  0  0
 23 17  1  0  0  0  0
 24 27  1  0  0  0  0
 24  2  1  0  0  0  0
 25 31  1  0  0  0  0
 26 25  2  0  0  0  0
 26 29  1  0  0  0  0
 28 24  2  0  0  0  0
 29 30  2  0  0  0  0
 30 32  1  0  0  0  0
 31 28  1  0  0  0  0
 31 32  2  0  0  0  0
 32 27  1  0  0  0  0
M  END
>  <MODEL>
7

>  <REMARK>
 VINA RESULT:      -8.3      2.401      6.181
  Name = 
  3 active torsions:
  status: ('A' for Active; 'I' for Inactive)
    1  A    between atoms: C_5  and  N_32
    2  A    between atoms: C_12  and  C_16
    3  A    between atoms: C_16  and  C_17
                            x       y       z     vdW  Elec       q    Type
                         _______ _______ _______ _____ _____    ______ ____

>  <TORSDO>
F 3

$$$$
=
 OpenBabel10232408143D

 32 37  0  0  1  0  0  0  0  0999 V2000
  191.0650  176.5450  138.7930 C   0  0  0  0  0  0  0  0  0  0  0  0
  191.6140  176.6270  139.9750 N   0  0  0  0  0  0  0  0  0  0  0  0
  185.0710  179.1720  138.3700 N   0  0  0  0  0  1  0  0  0  0  0  0
  187.4900  176.4350  137.5600 C   0  0  0  0  0  0  0  0  0  0  0  0
  186.6620  175.5990  136.8100 C   0  0  0  0  0  3  0  0  0  0  0  0
  185.3340  175.9680  136.5970 C   0  0  0  0  0  3  0  0  0  0  0  0
  189.1460  178.1120  139.0660 C   0  0  0  0  0  3  0  0  0  0  0  0
  188.8220  176.0840  137.7830 C   0  0  0  0  0  3  0  0  0  0  0  0
  189.6640  176.9300  138.5220 C   0  0  0  0  0  0  0  0  0  0  0  0
  187.8130  178.4700  138.8490 C   0  0  0  0  0  3  0  0  0  0  0  0
  185.6330  177.9680  137.8520 C   0  0  0  0  0  0  0  0  0  0  0  0
  186.9770  177.6380  138.0930 C   0  0  0  0  0  0  0  0  0  0  0  0
  184.8530  177.1300  137.1160 N   0  0  0  0  0  0  0  0  0  0  0  0
  194.2340  176.1420  136.7170 N   0  0  0  0  0  2  0  0  0  0  0  0
  194.1760  174.6960  136.8770 C   0  0  2  0  0  3  0  0  0  0  0  0
  193.3310  176.7050  137.7310 C   0  0  0  0  0  2  0  0  0  0  0  0
  193.1000  172.8040  136.3700 C   0  0  0  0  0  2  0  0  0  0  0  0
  191.9070  176.1090  137.6330 C   0  0  1  0  0  3  0  0  0  0  0  0
  195.1660  173.9920  136.0850 N   0  0  0  0  0  0  0  0  0  0  0  0
  194.5460  172.6800  135.9020 C   0  0  0  0  0  2  0  0  0  0  0  0
  196.3280  173.7920  136.9330 C   0  0  0  0  0  1  0  0  0  0  0  0
  191.9550  174.5750  137.5290 C   0  0  0  0  0  2  0  0  0  0  0  0
  192.8750  174.2270  136.4580 N   0  0  1  0  0  0  0  0  0  0  0  0
  190.9720  176.9180  141.2250 C   0  0  0  0  0  0  0  0  0  0  0  0
  188.6250  176.4100  143.8010 C   0  0  0  0  0  3  0  0  0  0  0  0
  188.5490  177.0660  145.0410 C   0  0  0  0  0  3  0  0  0  0  0  0
  191.5370  177.9200  142.2030 C   0  0  0  0  0  2  0  0  0  0  0  0
  189.9340  176.2610  141.6580 N   0  0  0  0  0  0  0  0  0  0  0  0
  189.5000  178.0550  145.3700 C   0  0  0  0  0  3  0  0  0  0  0  0
  190.4950  178.3790  144.4920 N   0  0  0  0  0  0  0  0  0  0  0  0
  189.6570  176.7790  142.9440 C   0  0  0  0  0  0  0  0  0  0  0  0
  190.5570  177.7400  143.2970 C   0  0  0  0  0  0  0  0  0  0  0  0
  1  2  2  0  0  0  0
  2 24  1  0  0  0  0
  4  8  2  0  0  0  0
  4 12  1  0  0  0  0
  5  4  1  0  0  0  0
  6  5  2  0  0  0  0
  6 13  1  0  0  0  0
  8  9  1  0  0  0  0
  9  1  1  0  0  0  0
  9  7  2  0  0  0  0
 10  7  1  0  0  0  0
 11 12  1  0  0  0  0
 11  3  1  0  0  0  0
 12 10  2  0  0  0  0
 13 11  2  0  0  0  0
 14 16  1  0  0  0  0
 15 14  1  6  0  0  0
 18 16  1  0  0  0  0
 18  1  1  1  0  0  0
 19 15  1  0  0  0  0
 19 21  1  0  0  0  0
 20 19  1  0  0  0  0
 20 17  1  0  0  0  0
 22 18  1  0  0  0  0
 23 17  1  1  0  0  0
 23 15  1  0  0  0  0
 23 22  1  0  0  0  0
 24 28  2  0  0  0  0
 24 27  1  0  0  0  0
 25 26  1  0  0  0  0
 26 29  2  0  0  0  0
 27 32  1  0  0  0  0
 28 31  1  0  0  0  0
 30 29  1  0  0  0  0
 31 32  1  0  0  0  0
 31 25  2  0  0  0  0
 32 30  2  0  0  0  0
M  END
>  <MODEL>
8

>  <REMARK>
 VINA RESULT:      -8.2      3.557      5.480
  Name = 
  3 active torsions:
  status: ('A' for Active; 'I' for Inactive)
    1  A    between atoms: C_5  and  N_32
    2  A    between atoms: C_12  and  C_16
    3  A    between atoms: C_16  and  C_17
                            x       y       z     vdW  Elec       q    Type
                         _______ _______ _______ _____ _____    ______ ____

>  <TORSDO>
F 3

$$$$
=
 OpenBabel10232408143D

 32 37  0  0  1  0  0  0  0  0999 V2000
  185.7620  178.6380  140.5760 C   0  0  0  0  0  0  0  0  0  0  0  0
  186.4840  178.5050  139.4960 N   0  0  0  0  0  0  0  0  0  0  0  0
  188.9760  176.9140  146.0260 N   0  0  0  0  0  1  0  0  0  0  0  0
  185.9940  178.4240  144.3460 C   0  0  0  0  0  0  0  0  0  0  0  0
  185.2330  178.7590  145.4660 C   0  0  0  0  0  3  0  0  0  0  0  0
  185.7310  178.4760  146.7380 C   0  0  0  0  0  3  0  0  0  0  0  0
  187.5210  177.7480  142.1010 C   0  0  0  0  0  3  0  0  0  0  0  0
  185.5130  178.7000  143.0650 C   0  0  0  0  0  3  0  0  0  0  0  0
  186.2820  178.3820  141.9350 C   0  0  0  0  0  0  0  0  0  0  0  0
  188.0080  177.4660  143.3800 C   0  0  0  0  0  3  0  0  0  0  0  0
  187.7130  177.5390  145.8100 C   0  0  0  0  0  0  0  0  0  0  0  0
  187.2520  177.8040  144.5110 C   0  0  0  0  0  0  0  0  0  0  0  0
  186.9450  177.8790  146.8820 N   0  0  0  0  0  0  0  0  0  0  0  0
  182.7510  180.2350  138.8720 N   0  0  0  0  0  2  0  0  0  0  0  0
  182.0110  178.9850  138.9700 C   0  0  2  0  0  3  0  0  0  0  0  0
  184.1620  179.8980  139.1120 C   0  0  0  0  0  2  0  0  0  0  0  0
  180.9990  177.5160  140.3170 C   0  0  0  0  0  2  0  0  0  0  0  0
  184.3580  179.1430  140.4490 C   0  0  1  0  0  3  0  0  0  0  0  0
  180.6260  179.1060  138.5590 N   0  0  0  0  0  0  0  0  0  0  0  0
  179.9820  178.0230  139.3000 C   0  0  0  0  0  2  0  0  0  0  0  0
  180.5650  178.7470  137.1530 C   0  0  0  0  0  1  0  0  0  0  0  0
  183.3410  177.9980  140.5910 C   0  0  0  0  0  2  0  0  0  0  0  0
  182.0150  178.5420  140.3460 N   0  0  1  0  0  0  0  0  0  0  0  0
  187.8000  177.9440  139.3810 C   0  0  0  0  0  0  0  0  0  0  0  0
  190.2390  175.7670  138.0720 C   0  0  0  0  0  3  0  0  0  0  0  0
  191.6220  175.7710  138.3190 C   0  0  0  0  0  3  0  0  0  0  0  0
  189.0010  178.5720  140.0490 C   0  0  0  0  0  2  0  0  0  0  0  0
  188.0760  176.9350  138.6060 N   0  0  0  0  0  0  0  0  0  0  0  0
  192.1770  176.7430  139.1770 C   0  0  0  0  0  3  0  0  0  0  0  0
  191.3800  177.6810  139.7720 N   0  0  0  0  0  0  0  0  0  0  0  0
  189.4730  176.7420  138.7030 C   0  0  0  0  0  0  0  0  0  0  0  0
  190.0450  177.6640  139.5270 C   0  0  0  0  0  0  0  0  0  0  0  0
  1  9  1  0  0  0  0
  2  1  2  0  0  0  0
  4 12  1  0  0  0  0
  4  5  2  0  0  0  0
  5  6  1  0  0  0  0
  6 13  2  0  0  0  0
  7 10  2  0  0  0  0
  8  4  1  0  0  0  0
  9  7  1  0  0  0  0
  9  8  2  0  0  0  0
 10 12  1  0  0  0  0
 11  3  1  0  0  0  0
 11 13  1  0  0  0  0
 12 11  2  0  0  0  0
 14 16  1  0  0  0  0
 15 14  1  1  0  0  0
 15 23  1  0  0  0  0
 16 18  1  0  0  0  0
 18  1  1  6  0  0  0
 18 22  1  0  0  0  0
 19 15  1  0  0  0  0
 19 20  1  0  0  0  0
 20 17  1  0  0  0  0
 21 19  1  0  0  0  0
 23 17  1  6  0  0  0
 23 22  1  0  0  0  0
 24  2  1  0  0  0  0
 24 27  1  0  0  0  0
 25 26  2  0  0  0  0
 25 31  1  0  0  0  0
 26 29  1  0  0  0  0
 28 31  1  0  0  0  0
 28 24  2  0  0  0  0
 29 30  2  0  0  0  0
 31 32  2  0  0  0  0
 32 30  1  0  0  0  0
 32 27  1  0  0  0  0
M  END
>  <MODEL>
9

>  <REMARK>
 VINA RESULT:      -8.2      3.178      5.350
  Name = 
  3 active torsions:
  status: ('A' for Active; 'I' for Inactive)
    1  A    between atoms: C_5  and  N_32
    2  A    between atoms: C_12  and  C_16
    3  A    between atoms: C_16  and  C_17
                            x       y       z     vdW  Elec       q    Type
                         _______ _______ _______ _____ _____    ______ ____

>  <TORSDO>
F 3

$$$$
