=
 OpenBabel10232409463D

 25 29  0  0  1  0  0  0  0  0999 V2000
  189.0210  177.0400  141.3460 C   0  0  0  0  0  2  0  0  0  0  0  0
  188.3620  177.7160  142.4630 N   0  0  2  0  0  0  0  0  0  0  0  0
  188.5160  178.0360  140.3260 C   0  0  0  0  0  2  0  0  0  0  0  0
  187.8840  178.7220  141.5160 C   0  0  1  0  0  3  0  0  0  0  0  0
  190.8500  176.5500  147.4430 C   0  0  0  0  0  3  0  0  0  0  0  0
  188.7990  177.9420  147.8090 C   0  0  0  0  0  1  0  0  0  0  0  0
  190.8120  177.0770  144.7410 C   0  0  0  0  0  0  0  0  0  0  0  0
  191.8260  176.0130  146.5860 C   0  0  0  0  0  0  0  0  0  0  0  0
  190.6590  177.4470  143.3220 C   0  0  0  0  0  2  0  0  0  0  0  0
  191.7920  176.2850  145.2490 N   0  0  0  0  0  0  0  0  0  0  0  0
  192.8530  175.1830  147.1150 N   0  0  0  0  0  1  0  0  0  0  0  0
  189.3920  178.3280  143.3050 C   0  0  2  0  0  3  0  0  0  0  0  0
  189.8450  177.6200  145.5390 C   0  0  0  0  0  0  0  0  0  0  0  0
  188.8930  178.4420  144.7620 C   0  0  0  0  0  2  0  0  0  0  0  0
  189.8420  177.3670  146.9130 C   0  0  0  0  0  0  0  0  0  0  0  0
  184.1650  178.5900  140.1140 C   0  0  0  0  0  3  0  0  0  0  0  0
  183.5480  178.6800  141.2850 C   0  0  0  0  0  0  0  0  0  0  0  0
  185.6850  178.6010  140.0730 C   0  0  0  0  0  3  0  0  0  0  0  0
  182.1540  178.6870  141.5480 N   0  0  0  0  0  0  0  0  0  0  0  0
  186.3860  178.7140  141.4370 C   0  0  0  0  0  0  0  0  0  0  0  0
  184.2440  178.7840  142.5210 C   0  0  2  0  0  3  0  0  0  0  0  0
  182.0110  178.7850  142.8130 N   0  0  0  0  0  0  0  0  0  0  0  0
  185.7010  178.8000  142.5890 C   0  0  0  0  0  3  0  0  0  0  0  0
  183.5150  178.9620  144.9100 C   0  0  0  0  0  1  0  0  0  0  0  0
  183.3000  178.8480  143.4410 C   0  0  0  0  0  0  0  0  0  0  0  0
  2  1  1  6  0  0  0
  2 12  1  0  0  0  0
  3  1  1  0  0  0  0
  3  4  1  0  0  0  0
  4 20  1  6  0  0  0
  4  2  1  0  0  0  0
  7 10  2  0  0  0  0
  7 13  1  0  0  0  0
  8 11  1  0  0  0  0
  8  5  2  0  0  0  0
  9  7  1  0  0  0  0
 10  8  1  0  0  0  0
 12  9  1  1  0  0  0
 12 14  1  0  0  0  0
 13 15  2  0  0  0  0
 14 13  1  0  0  0  0
 15  5  1  0  0  0  0
 15  6  1  0  0  0  0
 16 17  1  0  0  0  0
 17 19  2  0  0  0  0
 17 21  1  0  0  0  0
 18 16  2  0  0  0  0
 18 20  1  0  0  0  0
 19 22  1  0  0  0  0
 20 23  2  0  0  0  0
 21 23  1  1  0  0  0
 21 25  1  0  0  0  0
 22 25  2  0  0  0  0
 25 24  1  0  0  0  0
M  END
>  <MODEL>
1

>  <REMARK>
 VINA RESULT:      -9.2      0.000      0.000
  Name = 
  2 active torsions:
  status: ('A' for Active; 'I' for Inactive)
    1  A    between atoms: N_11  and  C_17
    2  A    between atoms: C_14  and  C_24
                            x       y       z     vdW  Elec       q    Type
                         _______ _______ _______ _____ _____    ______ ____

>  <TORSDO>
F 2

$$$$
=
 OpenBabel10232409463D

 25 29  0  0  1  0  0  0  0  0999 V2000
  188.5060  178.7100  141.4190 C   0  0  0  0  0  2  0  0  0  0  0  0
  189.3030  177.5470  141.8110 N   0  0  2  0  0  0  0  0  0  0  0  0
  188.3360  178.2270  139.9960 C   0  0  0  0  0  2  0  0  0  0  0  0
  189.1300  177.0260  140.4570 C   0  0  1  0  0  3  0  0  0  0  0  0
  187.4030  177.9880  147.1540 C   0  0  0  0  0  3  0  0  0  0  0  0
  189.6690  176.9190  147.1300 C   0  0  0  0  0  1  0  0  0  0  0  0
  187.1340  177.6450  144.4360 C   0  0  0  0  0  0  0  0  0  0  0  0
  186.2460  178.4150  146.4800 C   0  0  0  0  0  0  0  0  0  0  0  0
  187.1380  177.3940  142.9830 C   0  0  0  0  0  2  0  0  0  0  0  0
  186.1290  178.2370  145.1320 N   0  0  0  0  0  0  0  0  0  0  0  0
  185.1920  179.0370  147.2070 N   0  0  0  0  0  1  0  0  0  0  0  0
  188.5060  176.7280  142.7260 C   0  0  2  0  0  3  0  0  0  0  0  0
  188.2750  177.2130  145.0520 C   0  0  0  0  0  0  0  0  0  0  0  0
  189.2190  176.6040  144.0910 C   0  0  0  0  0  2  0  0  0  0  0  0
  188.4360  177.3760  146.4300 C   0  0  0  0  0  0  0  0  0  0  0  0
  193.0200  177.2110  139.6490 C   0  0  0  0  0  3  0  0  0  0  0  0
  192.9530  176.7160  138.4190 C   0  0  0  0  0  0  0  0  0  0  0  0
  191.7410  177.3700  140.4550 C   0  0  0  0  0  2  0  0  0  0  0  0
  194.0120  176.4850  137.5040 N   0  0  0  0  0  0  0  0  0  0  0  0
  190.4500  176.9240  139.7500 C   0  0  0  0  0  0  0  0  0  0  0  0
  191.7310  176.3180  137.8100 C   0  0  0  0  0  0  0  0  0  0  0  0
  193.4910  175.9960  136.4450 N   0  0  0  0  0  0  0  0  0  0  0  0
  190.4510  176.4280  138.5010 C   0  0  0  0  0  3  0  0  0  0  0  0
  191.1420  175.3500  135.5770 C   0  0  0  0  0  1  0  0  0  0  0  0
  192.0710  175.8830  136.6120 C   0  0  0  0  0  0  0  0  0  0  0  0
  2  1  1  6  0  0  0
  2 12  1  0  0  0  0
  3  4  1  0  0  0  0
  3  1  1  0  0  0  0
  4 20  1  6  0  0  0
  4  2  1  0  0  0  0
  7 13  2  0  0  0  0
  7 10  1  0  0  0  0
  8  5  1  0  0  0  0
  8 11  1  0  0  0  0
  9  7  1  0  0  0  0
 10  8  2  0  0  0  0
 12  9  1  1  0  0  0
 12 14  1  0  0  0  0
 13 15  1  0  0  0  0
 14 13  1  0  0  0  0
 15  6  1  0  0  0  0
 15  5  2  0  0  0  0
 16 18  1  0  0  0  0
 17 16  2  0  0  0  0
 19 17  1  0  0  0  0
 20 18  1  0  0  0  0
 21 17  1  0  0  0  0
 21 23  1  0  0  0  0
 22 25  1  0  0  0  0
 22 19  2  0  0  0  0
 23 20  2  0  0  0  0
 24 25  1  0  0  0  0
 25 21  2  0  0  0  0
M  END
>  <MODEL>
2

>  <REMARK>
 VINA RESULT:      -9.1      3.741      6.974
  Name = 
  2 active torsions:
  status: ('A' for Active; 'I' for Inactive)
    1  A    between atoms: N_11  and  C_17
    2  A    between atoms: C_14  and  C_24
                            x       y       z     vdW  Elec       q    Type
                         _______ _______ _______ _____ _____    ______ ____

>  <TORSDO>
F 2

$$$$
=
 OpenBabel10232409463D

 25 29  0  0  1  0  0  0  0  0999 V2000
  190.4970  176.6570  142.6200 C   0  0  0  0  0  2  0  0  0  0  0  0
  189.7030  177.8720  142.4340 N   0  0  2  0  0  0  0  0  0  0  0  0
  189.2780  175.7720  142.7570 C   0  0  0  0  0  2  0  0  0  0  0  0
  188.5000  177.0470  142.5220 C   0  0  1  0  0  3  0  0  0  0  0  0
  189.4690  175.4720  137.2820 C   0  0  0  0  0  3  0  0  0  0  0  0
  191.8020  175.3470  138.1860 C   0  0  0  0  0  1  0  0  0  0  0  0
  188.7400  177.2880  139.2190 C   0  0  0  0  0  0  0  0  0  0  0  0
  188.1640  175.9900  137.3360 C   0  0  0  0  0  0  0  0  0  0  0  0
  188.5020  178.2470  140.3130 C   0  0  0  0  0  2  0  0  0  0  0  0
  187.8190  176.8890  138.3030 N   0  0  0  0  0  0  0  0  0  0  0  0
  187.1970  175.5750  136.3780 N   0  0  0  0  0  1  0  0  0  0  0  0
  189.8570  178.3160  141.0470 C   0  0  2  0  0  3  0  0  0  0  0  0
  190.0200  176.8100  139.2020 C   0  0  0  0  0  0  0  0  0  0  0  0
  190.8340  177.3870  140.2930 C   0  0  0  0  0  2  0  0  0  0  0  0
  190.4150  175.8880  138.2300 C   0  0  0  0  0  0  0  0  0  0  0  0
  187.3480  177.7290  146.2670 C   0  0  0  0  0  3  0  0  0  0  0  0
  186.1270  178.1640  145.9840 C   0  0  0  0  0  0  0  0  0  0  0  0
  188.2660  177.3040  145.1330 C   0  0  0  0  0  3  0  0  0  0  0  0
  185.1190  178.6060  146.8790 N   0  0  0  0  0  2  0  0  0  0  0  0
  187.6770  177.4280  143.7180 C   0  0  0  0  0  0  0  0  0  0  0  0
  185.6270  178.2580  144.6550 C   0  0  0  0  0  0  0  0  0  0  0  0
  184.1080  178.9360  146.1720 N   0  0  0  0  0  0  0  0  0  0  0  0
  186.4310  177.8780  143.4980 C   0  0  0  0  0  3  0  0  0  0  0  0
  183.4510  179.0110  143.6720 C   0  0  0  0  0  1  0  0  0  0  0  0
  184.4010  178.7280  144.7830 C   0  0  0  0  0  0  0  0  0  0  0  0
  1  3  1  0  0  0  0
  2  4  1  0  0  0  0
  2  1  1  6  0  0  0
  4  3  1  0  0  0  0
  4 20  1  1  0  0  0
  5  8  2  0  0  0  0
  5 15  1  0  0  0  0
  6 15  1  0  0  0  0
  7  9  1  0  0  0  0
  8 10  1  0  0  0  0
  9 12  1  0  0  0  0
 10  7  2  0  0  0  0
 11  8  1  0  0  0  0
 12 14  1  6  0  0  0
 12  2  1  0  0  0  0
 13  7  1  0  0  0  0
 13 14  1  0  0  0  0
 15 13  2  0  0  0  0
 17 16  1  0  0  0  0
 17 19  1  0  0  0  0
 18 16  2  0  0  0  0
 20 18  1  0  0  0  0
 21 25  1  0  0  0  0
 21 17  2  0  0  0  0
 22 19  1  0  0  0  0
 23 20  2  0  0  0  0
 23 21  1  0  0  0  0
 24 25  1  0  0  0  0
 25 22  2  0  0  0  0
M  END
>  <MODEL>
3

>  <REMARK>
 VINA RESULT:      -9.1      2.931      6.105
  Name = 
  2 active torsions:
  status: ('A' for Active; 'I' for Inactive)
    1  A    between atoms: N_11  and  C_17
    2  A    between atoms: C_14  and  C_24
                            x       y       z     vdW  Elec       q    Type
                         _______ _______ _______ _____ _____    ______ ____

>  <TORSDO>
F 2

$$$$
=
 OpenBabel10232409463D

 25 29  0  0  1  0  0  0  0  0999 V2000
  190.1060  178.2180  145.1740 C   0  0  0  0  0  2  0  0  0  0  0  0
  189.1790  177.6770  144.1800 N   0  0  2  0  0  0  0  0  0  0  0  0
  189.3290  177.6530  146.3410 C   0  0  0  0  0  2  0  0  0  0  0  0
  188.4190  177.0810  145.2770 C   0  0  1  0  0  3  0  0  0  0  0  0
  191.4840  177.0030  139.0240 C   0  0  0  0  0  3  0  0  0  0  0  0
  189.0540  176.3930  138.9690 C   0  0  0  0  0  1  0  0  0  0  0  0
  191.4960  176.9980  141.7770 C   0  0  0  0  0  0  0  0  0  0  0  0
  192.6550  177.2960  139.7440 C   0  0  0  0  0  0  0  0  0  0  0  0
  191.3450  176.9580  143.2430 C   0  0  0  0  0  2  0  0  0  0  0  0
  192.6430  177.2890  141.1090 N   0  0  0  0  0  0  0  0  0  0  0  0
  193.8570  177.6010  139.0480 N   0  0  0  0  0  1  0  0  0  0  0  0
  189.8580  176.6030  143.4520 C   0  0  2  0  0  3  0  0  0  0  0  0
  190.3360  176.7080  141.1160 C   0  0  0  0  0  0  0  0  0  0  0  0
  189.2280  176.4260  142.0530 C   0  0  0  0  0  2  0  0  0  0  0  0
  190.3040  176.7030  139.7190 C   0  0  0  0  0  0  0  0  0  0  0  0
  185.0460  178.6710  146.6590 C   0  0  0  0  0  3  0  0  0  0  0  0
  184.4290  178.7830  145.4900 C   0  0  0  0  0  0  0  0  0  0  0  0
  186.4470  178.0820  146.7060 C   0  0  0  0  0  2  0  0  0  0  0  0
  183.1360  179.2990  145.2210 N   0  0  0  0  0  0  0  0  0  0  0  0
  187.0380  177.6640  145.3500 C   0  0  0  0  0  0  0  0  0  0  0  0
  185.0210  178.3790  144.2610 C   0  0  0  0  0  0  0  0  0  0  0  0
  182.9540  179.2190  143.9600 N   0  0  0  0  0  0  0  0  0  0  0  0
  186.3610  177.8050  144.1990 C   0  0  0  0  0  3  0  0  0  0  0  0
  184.2550  178.4100  141.8760 C   0  0  0  0  0  1  0  0  0  0  0  0
  184.1150  178.6480  143.3390 C   0  0  0  0  0  0  0  0  0  0  0  0
  1  3  1  0  0  0  0
  2  1  1  1  0  0  0
  2  4  1  0  0  0  0
  4 20  1  1  0  0  0
  4  3  1  0  0  0  0
  5 15  2  0  0  0  0
  5  8  1  0  0  0  0
  6 15  1  0  0  0  0
  7  9  1  0  0  0  0
  8 10  2  0  0  0  0
  9 12  1  0  0  0  0
 10  7  1  0  0  0  0
 11  8  1  0  0  0  0
 12 14  1  6  0  0  0
 12  2  1  0  0  0  0
 13  7  2  0  0  0  0
 13 14  1  0  0  0  0
 15 13  1  0  0  0  0
 16 18  1  0  0  0  0
 17 16  2  0  0  0  0
 19 17  1  0  0  0  0
 20 18  1  0  0  0  0
 21 17  1  0  0  0  0
 22 19  2  0  0  0  0
 23 21  1  0  0  0  0
 23 20  2  0  0  0  0
 24 25  1  0  0  0  0
 25 22  1  0  0  0  0
 25 21  2  0  0  0  0
M  END
>  <MODEL>
4

>  <REMARK>
 VINA RESULT:      -8.9      2.437      4.997
  Name = 
  2 active torsions:
  status: ('A' for Active; 'I' for Inactive)
    1  A    between atoms: N_11  and  C_17
    2  A    between atoms: C_14  and  C_24
                            x       y       z     vdW  Elec       q    Type
                         _______ _______ _______ _____ _____    ______ ____

>  <TORSDO>
F 2

$$$$
=
 OpenBabel10232409463D

 25 29  0  0  1  0  0  0  0  0999 V2000
  184.9850  177.8780  146.5630 C   0  0  0  0  0  2  0  0  0  0  0  0
  185.7220  178.1900  145.3390 N   0  0  2  0  0  0  0  0  0  0  0  0
  186.0420  178.4790  147.4620 C   0  0  0  0  0  2  0  0  0  0  0  0
  186.7500  178.8160  146.1680 C   0  0  1  0  0  3  0  0  0  0  0  0
  182.3280  178.5090  140.7860 C   0  0  0  0  0  3  0  0  0  0  0  0
  184.7220  178.7720  140.0970 C   0  0  0  0  0  1  0  0  0  0  0  0
  182.9780  178.8660  143.4370 C   0  0  0  0  0  0  0  0  0  0  0  0
  181.3410  178.4720  141.7860 C   0  0  0  0  0  0  0  0  0  0  0  0
  183.4800  179.0710  144.8080 C   0  0  0  0  0  2  0  0  0  0  0  0
  181.6810  178.6510  143.0950 N   0  0  0  0  0  0  0  0  0  0  0  0
  179.9820  178.2470  141.4310 N   0  0  0  0  0  1  0  0  0  0  0  0
  185.0020  179.2440  144.6220 C   0  0  2  0  0  3  0  0  0  0  0  0
  183.9680  178.9100  142.4970 C   0  0  0  0  0  0  0  0  0  0  0  0
  185.2920  179.1550  143.1080 C   0  0  0  0  0  2  0  0  0  0  0  0
  183.6650  178.7320  141.1450 C   0  0  0  0  0  0  0  0  0  0  0  0
  190.1740  176.9950  147.0490 C   0  0  0  0  0  3  0  0  0  0  0  0
  190.5240  176.6980  145.8030 C   0  0  0  0  0  0  0  0  0  0  0  0
  188.8730  177.7420  147.2960 C   0  0  0  0  0  2  0  0  0  0  0  0
  191.6810  176.0130  145.3520 N   0  0  0  0  0  0  0  0  0  0  0  0
  188.0570  178.0890  146.0410 C   0  0  0  0  0  0  0  0  0  0  0  0
  189.7320  177.0440  144.6740 C   0  0  0  0  0  0  0  0  0  0  0  0
  191.6060  175.9470  144.0790 N   0  0  0  0  0  0  0  0  0  0  0  0
  188.4660  177.7580  144.8050 C   0  0  0  0  0  3  0  0  0  0  0  0
  189.9830  176.6900  142.2070 C   0  0  0  0  0  1  0  0  0  0  0  0
  190.3990  176.5830  143.6330 C   0  0  0  0  0  0  0  0  0  0  0  0
  1  3  1  0  0  0  0
  2  4  1  0  0  0  0
  2  1  1  1  0  0  0
  4 20  1  1  0  0  0
  4  3  1  0  0  0  0
  5 15  2  0  0  0  0
  5  8  1  0  0  0  0
  6 15  1  0  0  0  0
  7  9  1  0  0  0  0
  8 10  2  0  0  0  0
 10  7  1  0  0  0  0
 11  8  1  0  0  0  0
 12 14  1  6  0  0  0
 12  9  1  0  0  0  0
 12  2  1  0  0  0  0
 13 14  1  0  0  0  0
 13  7  2  0  0  0  0
 15 13  1  0  0  0  0
 16 18  1  0  0  0  0
 17 16  2  0  0  0  0
 19 17  1  0  0  0  0
 20 18  1  0  0  0  0
 21 23  1  0  0  0  0
 21 17  1  0  0  0  0
 22 19  2  0  0  0  0
 23 20  2  0  0  0  0
 24 25  1  0  0  0  0
 25 22  1  0  0  0  0
 25 21  2  0  0  0  0
M  END
>  <MODEL>
5

>  <REMARK>
 VINA RESULT:      -8.8      1.579      8.242
  Name = 
  2 active torsions:
  status: ('A' for Active; 'I' for Inactive)
    1  A    between atoms: N_11  and  C_17
    2  A    between atoms: C_14  and  C_24
                            x       y       z     vdW  Elec       q    Type
                         _______ _______ _______ _____ _____    ______ ____

>  <TORSDO>
F 2

$$$$
=
 OpenBabel10232409463D

 25 29  0  0  1  0  0  0  0  0999 V2000
  190.6020  178.2900  144.3390 C   0  0  0  0  0  2  0  0  0  0  0  0
  190.3120  176.9880  143.7370 N   0  0  2  0  0  0  0  0  0  0  0  0
  190.0440  179.0600  143.1630 C   0  0  0  0  0  2  0  0  0  0  0  0
  189.7280  177.6940  142.5980 C   0  0  1  0  0  3  0  0  0  0  0  0
  185.9870  178.7490  146.9840 C   0  0  0  0  0  3  0  0  0  0  0  0
  188.0380  178.4170  148.3850 C   0  0  0  0  0  1  0  0  0  0  0  0
  187.1270  177.4030  144.8700 C   0  0  0  0  0  0  0  0  0  0  0  0
  185.2890  178.5690  145.7780 C   0  0  0  0  0  0  0  0  0  0  0  0
  187.8690  176.6640  143.8320 C   0  0  0  0  0  2  0  0  0  0  0  0
  185.8690  177.8990  144.7400 N   0  0  0  0  0  0  0  0  0  0  0  0
  183.9720  179.0880  145.6380 N   0  0  0  0  0  1  0  0  0  0  0  0
  189.2290  176.3600  144.4950 C   0  0  2  0  0  3  0  0  0  0  0  0
  187.8400  177.5540  146.0260 C   0  0  0  0  0  0  0  0  0  0  0  0
  189.1780  176.9320  145.9290 C   0  0  0  0  0  2  0  0  0  0  0  0
  187.2840  178.2330  147.1130 C   0  0  0  0  0  0  0  0  0  0  0  0
  192.7120  177.2440  140.0070 C   0  0  0  0  0  3  0  0  0  0  0  0
  191.9720  176.8740  138.9700 C   0  0  0  0  0  0  0  0  0  0  0  0
  192.0320  177.5630  141.3290 C   0  0  0  0  0  2  0  0  0  0  0  0
  192.3960  176.5340  137.6600 N   0  0  0  0  0  0  0  0  0  0  0  0
  190.5020  177.4160  141.3420 C   0  0  0  0  0  0  0  0  0  0  0  0
  190.5560  176.7550  139.0340 C   0  0  0  0  0  0  0  0  0  0  0  0
  191.3490  176.2370  136.9910 N   0  0  0  0  0  0  0  0  0  0  0  0
  189.8090  177.0350  140.2560 C   0  0  0  0  0  3  0  0  0  0  0  0
  188.7960  176.0980  137.3770 C   0  0  0  0  0  1  0  0  0  0  0  0
  190.1900  176.3680  137.8260 C   0  0  0  0  0  0  0  0  0  0  0  0
  2  1  1  1  0  0  0
  2 12  1  0  0  0  0
  3  1  1  0  0  0  0
  4 20  1  6  0  0  0
  4  3  1  0  0  0  0
  4  2  1  0  0  0  0
  5 15  1  0  0  0  0
  7 13  1  0  0  0  0
  8  5  2  0  0  0  0
  9  7  1  0  0  0  0
 10  7  2  0  0  0  0
 10  8  1  0  0  0  0
 11  8  1  0  0  0  0
 12  9  1  6  0  0  0
 12 14  1  0  0  0  0
 13 15  2  0  0  0  0
 14 13  1  0  0  0  0
 15  6  1  0  0  0  0
 16 18  1  0  0  0  0
 17 21  1  0  0  0  0
 17 16  2  0  0  0  0
 18 20  1  0  0  0  0
 19 17  1  0  0  0  0
 21 23  1  0  0  0  0
 22 19  2  0  0  0  0
 22 25  1  0  0  0  0
 23 20  2  0  0  0  0
 24 25  1  0  0  0  0
 25 21  2  0  0  0  0
M  END
>  <MODEL>
6

>  <REMARK>
 VINA RESULT:      -8.6      2.963      6.390
  Name = 
  2 active torsions:
  status: ('A' for Active; 'I' for Inactive)
    1  A    between atoms: N_11  and  C_17
    2  A    between atoms: C_14  and  C_24
                            x       y       z     vdW  Elec       q    Type
                         _______ _______ _______ _____ _____    ______ ____

>  <TORSDO>
F 2

$$$$
=
 OpenBabel10232409463D

 25 29  0  0  1  0  0  0  0  0999 V2000
  190.5690  176.5390  141.2660 C   0  0  0  0  0  2  0  0  0  0  0  0
  189.3510  177.3160  141.4960 N   0  0  2  0  0  0  0  0  0  0  0  0
  190.8620  177.2170  139.9470 C   0  0  0  0  0  2  0  0  0  0  0  0
  189.6180  178.0240  140.2450 C   0  0  1  0  0  3  0  0  0  0  0  0
  189.7540  176.9380  147.1570 C   0  0  0  0  0  3  0  0  0  0  0  0
  187.3730  177.3400  146.4870 C   0  0  0  0  0  1  0  0  0  0  0  0
  190.6480  177.5840  144.6350 C   0  0  0  0  0  0  0  0  0  0  0  0
  191.1230  176.9070  146.8430 C   0  0  0  0  0  0  0  0  0  0  0  0
  190.9710  177.9540  143.2440 C   0  0  0  0  0  2  0  0  0  0  0  0
  191.5490  177.2300  145.5880 N   0  0  0  0  0  0  0  0  0  0  0  0
  192.0690  176.5360  147.8390 N   0  0  0  0  0  1  0  0  0  0  0  0
  189.5940  178.2380  142.6080 C   0  0  2  0  0  3  0  0  0  0  0  0
  189.3080  177.6280  144.8980 C   0  0  0  0  0  0  0  0  0  0  0  0
  188.5300  178.0380  143.7090 C   0  0  0  0  0  2  0  0  0  0  0  0
  188.8280  177.3040  146.1700 C   0  0  0  0  0  0  0  0  0  0  0  0
  187.6450  176.7210  137.0480 C   0  0  0  0  0  3  0  0  0  0  0  0
  186.4720  177.2640  137.3490 C   0  0  0  0  0  0  0  0  0  0  0  0
  188.8220  176.9270  137.9880 C   0  0  0  0  0  2  0  0  0  0  0  0
  185.2560  177.1970  136.6220 N   0  0  0  0  0  0  0  0  0  0  0  0
  188.5320  177.7670  139.2420 C   0  0  0  0  0  0  0  0  0  0  0  0
  186.2560  178.0360  138.5250 C   0  0  0  0  0  0  0  0  0  0  0  0
  184.3870  177.8590  137.2830 N   0  0  0  0  0  0  0  0  0  0  0  0
  187.3190  178.2880  139.4910 C   0  0  0  0  0  3  0  0  0  0  0  0
  184.2640  179.2140  139.4820 C   0  0  0  0  0  1  0  0  0  0  0  0
  184.9860  178.3910  138.4730 C   0  0  0  0  0  0  0  0  0  0  0  0
  2  1  1  1  0  0  0
  2 12  1  0  0  0  0
  3  4  1  0  0  0  0
  3  1  1  0  0  0  0
  4 20  1  6  0  0  0
  4  2  1  0  0  0  0
  7 13  2  0  0  0  0
  7 10  1  0  0  0  0
  8  5  1  0  0  0  0
  8 11  1  0  0  0  0
  9  7  1  0  0  0  0
 10  8  2  0  0  0  0
 12  9  1  1  0  0  0
 12 14  1  0  0  0  0
 13 15  1  0  0  0  0
 14 13  1  0  0  0  0
 15  6  1  0  0  0  0
 15  5  2  0  0  0  0
 16 17  2  0  0  0  0
 16 18  1  0  0  0  0
 17 21  1  0  0  0  0
 18 20  1  0  0  0  0
 19 22  2  0  0  0  0
 19 17  1  0  0  0  0
 20 23  2  0  0  0  0
 21 23  1  0  0  0  0
 22 25  1  0  0  0  0
 25 21  2  0  0  0  0
 25 24  1  0  0  0  0
M  END
>  <MODEL>
7

>  <REMARK>
 VINA RESULT:      -8.3      2.456      3.313
  Name = 
  2 active torsions:
  status: ('A' for Active; 'I' for Inactive)
    1  A    between atoms: N_11  and  C_17
    2  A    between atoms: C_14  and  C_24
                            x       y       z     vdW  Elec       q    Type
                         _______ _______ _______ _____ _____    ______ ____

>  <TORSDO>
F 2

$$$$
=
 OpenBabel10232409463D

 25 29  0  0  1  0  0  0  0  0999 V2000
  190.0420  177.5000  142.0950 C   0  0  0  0  0  2  0  0  0  0  0  0
  188.9910  178.3970  141.6120 N   0  0  2  0  0  0  0  0  0  0  0  0
  189.0720  176.3830  142.4080 C   0  0  0  0  0  2  0  0  0  0  0  0
  188.0250  177.3300  141.8650 C   0  0  1  0  0  3  0  0  0  0  0  0
  189.5790  174.9340  137.1380 C   0  0  0  0  0  3  0  0  0  0  0  0
  191.8260  175.5020  138.0900 C   0  0  0  0  0  1  0  0  0  0  0  0
  188.3760  176.9350  138.5980 C   0  0  0  0  0  0  0  0  0  0  0  0
  188.1950  175.1650  137.0490 C   0  0  0  0  0  0  0  0  0  0  0  0
  187.8790  178.0390  139.4400 C   0  0  0  0  0  2  0  0  0  0  0  0
  187.6160  176.1620  137.7800 N   0  0  0  0  0  0  0  0  0  0  0  0
  187.3960  174.3570  136.1940 N   0  0  0  0  0  1  0  0  0  0  0  0
  189.1430  178.5490  140.1640 C   0  0  2  0  0  3  0  0  0  0  0  0
  189.7240  176.7450  138.7140 C   0  0  0  0  0  0  0  0  0  0  0  0
  190.3330  177.7040  139.6600 C   0  0  0  0  0  2  0  0  0  0  0  0
  190.3590  175.7360  137.9840 C   0  0  0  0  0  0  0  0  0  0  0  0
  184.7200  178.6070  143.6720 C   0  0  0  0  0  3  0  0  0  0  0  0
  185.1640  178.4970  144.9180 C   0  0  0  0  0  0  0  0  0  0  0  0
  185.6390  178.2310  142.5200 C   0  0  0  0  0  3  0  0  0  0  0  0
  184.4810  178.7880  146.1260 N   0  0  0  0  0  2  0  0  0  0  0  0
  187.0390  177.7380  142.9200 C   0  0  0  0  0  0  0  0  0  0  0  0
  186.4720  178.0350  145.2350 C   0  0  0  0  0  0  0  0  0  0  0  0
  185.2870  178.5320  147.0830 N   0  0  0  0  0  0  0  0  0  0  0  0
  187.4280  177.6480  144.2030 C   0  0  0  0  0  3  0  0  0  0  0  0
  187.7050  177.6660  147.3830 C   0  0  0  0  0  1  0  0  0  0  0  0
  186.5340  178.0620  146.5530 C   0  0  0  0  0  0  0  0  0  0  0  0
  1  3  1  0  0  0  0
  2  4  1  0  0  0  0
  2  1  1  1  0  0  0
  4  3  1  0  0  0  0
  4 20  1  1  0  0  0
  5 15  1  0  0  0  0
  7 13  1  0  0  0  0
  7  9  1  0  0  0  0
  8  5  2  0  0  0  0
  8 10  1  0  0  0  0
 10  7  2  0  0  0  0
 11  8  1  0  0  0  0
 12  9  1  6  0  0  0
 12  2  1  0  0  0  0
 13 14  1  0  0  0  0
 14 12  1  0  0  0  0
 15  6  1  0  0  0  0
 15 13  2  0  0  0  0
 16 17  1  0  0  0  0
 17 21  2  0  0  0  0
 17 19  1  0  0  0  0
 18 20  1  0  0  0  0
 18 16  2  0  0  0  0
 19 22  1  0  0  0  0
 20 23  2  0  0  0  0
 21 25  1  0  0  0  0
 23 21  1  0  0  0  0
 25 22  2  0  0  0  0
 25 24  1  0  0  0  0
M  END
>  <MODEL>
8

>  <REMARK>
 VINA RESULT:      -8.2      3.130      6.184
  Name = 
  2 active torsions:
  status: ('A' for Active; 'I' for Inactive)
    1  A    between atoms: N_11  and  C_17
    2  A    between atoms: C_14  and  C_24
                            x       y       z     vdW  Elec       q    Type
                         _______ _______ _______ _____ _____    ______ ____

>  <TORSDO>
F 2

$$$$
=
 OpenBabel10232409463D

 25 29  0  0  1  0  0  0  0  0999 V2000
  183.9900  178.0390  142.5730 C   0  0  0  0  0  2  0  0  0  0  0  0
  185.4270  178.3120  142.5520 N   0  0  2  0  0  0  0  0  0  0  0  0
  183.7490  178.9160  143.7810 C   0  0  0  0  0  2  0  0  0  0  0  0
  185.2320  179.2000  143.6970 C   0  0  1  0  0  3  0  0  0  0  0  0
  187.3370  177.4220  137.2690 C   0  0  0  0  0  3  0  0  0  0  0  0
  189.2610  177.7990  138.8290 C   0  0  0  0  0  1  0  0  0  0  0  0
  185.5430  178.3320  139.1480 C   0  0  0  0  0  0  0  0  0  0  0  0
  185.9600  177.4690  136.9920 C   0  0  0  0  0  0  0  0  0  0  0  0
  184.7090  178.8410  140.2520 C   0  0  0  0  0  2  0  0  0  0  0  0
  185.0840  177.9230  137.9360 N   0  0  0  0  0  0  0  0  0  0  0  0
  185.4770  177.0420  135.7240 N   0  0  0  0  0  1  0  0  0  0  0  0
  185.7240  179.1340  141.3770 C   0  0  2  0  0  3  0  0  0  0  0  0
  186.8730  178.3030  139.4570 C   0  0  0  0  0  0  0  0  0  0  0  0
  187.1270  178.7950  140.8280 C   0  0  0  0  0  2  0  0  0  0  0  0
  187.8040  177.8460  138.5210 C   0  0  0  0  0  0  0  0  0  0  0  0
  186.1390  178.1820  147.4330 C   0  0  0  0  0  3  0  0  0  0  0  0
  187.3530  177.7090  147.1810 C   0  0  0  0  0  0  0  0  0  0  0  0
  185.3060  178.7350  146.2880 C   0  0  0  0  0  3  0  0  0  0  0  0
  188.2880  177.1510  148.0900 N   0  0  0  0  0  2  0  0  0  0  0  0
  185.9680  178.6900  144.9010 C   0  0  0  0  0  0  0  0  0  0  0  0
  187.9220  177.6900  145.8770 C   0  0  0  0  0  0  0  0  0  0  0  0
  189.3210  176.8250  147.4140 N   0  0  0  0  0  0  0  0  0  0  0  0
  187.2030  178.1960  144.7120 C   0  0  0  0  0  3  0  0  0  0  0  0
  190.1140  176.9070  144.9530 C   0  0  0  0  0  1  0  0  0  0  0  0
  189.1160  177.1520  146.0320 C   0  0  0  0  0  0  0  0  0  0  0  0
  1  3  1  0  0  0  0
  2  1  1  6  0  0  0
  2  4  1  0  0  0  0
  4  3  1  0  0  0  0
  4 20  1  1  0  0  0
  5 15  1  0  0  0  0
  7 13  1  0  0  0  0
  7  9  1  0  0  0  0
  8  5  2  0  0  0  0
  8 10  1  0  0  0  0
 10  7  2  0  0  0  0
 11  8  1  0  0  0  0
 12  9  1  6  0  0  0
 12  2  1  0  0  0  0
 13 14  1  0  0  0  0
 14 12  1  0  0  0  0
 15  6  1  0  0  0  0
 15 13  2  0  0  0  0
 17 16  1  0  0  0  0
 17 19  1  0  0  0  0
 18 16  2  0  0  0  0
 20 18  1  0  0  0  0
 21 25  1  0  0  0  0
 21 17  2  0  0  0  0
 22 19  1  0  0  0  0
 23 20  2  0  0  0  0
 23 21  1  0  0  0  0
 24 25  1  0  0  0  0
 25 22  2  0  0  0  0
M  END
>  <MODEL>
9

>  <REMARK>
 VINA RESULT:      -8.2      2.643      7.506
  Name = 
  2 active torsions:
  status: ('A' for Active; 'I' for Inactive)
    1  A    between atoms: N_11  and  C_17
    2  A    between atoms: C_14  and  C_24
                            x       y       z     vdW  Elec       q    Type
                         _______ _______ _______ _____ _____    ______ ____

>  <TORSDO>
F 2

$$$$
