=
 OpenBabel10232411003D

 42 47  0  0  1  0  0  0  0  0999 V2000
  188.7400  176.7540  138.0540 C   0  0  2  0  0  3  0  0  0  0  0  0
  187.6570  178.2490  139.8340 C   0  0  0  0  0  0  0  0  0  0  0  0
  186.7360  178.6220  139.0570 O   0  0  0  0  0  0  0  0  0  0  0  0
  186.3080  178.9940  141.8140 C   0  0  0  0  0  1  0  0  0  0  0  0
  189.5910  177.1750  141.6440 C   0  0  0  0  0  0  0  0  0  0  0  0
  188.6920  178.2930  142.1190 C   0  0  0  0  0  2  0  0  0  0  0  0
  187.5290  178.4440  141.2490 N   0  0  0  0  0  0  0  0  0  0  0  0
  189.6890  176.8960  140.3360 C   0  0  0  0  0  3  0  0  0  0  0  0
  188.9350  177.6600  139.2800 C   0  0  1  0  0  3  0  0  0  0  0  0
  190.4270  176.3650  142.5980 C   0  0  0  0  0  2  0  0  0  0  0  0
  191.6280  177.1150  143.1650 C   0  0  0  0  0  2  0  0  0  0  0  0
  191.7480  176.8700  144.5920 N   0  0  0  0  0  2  0  0  0  0  0  0
  190.6540  177.5730  145.2470 C   0  0  0  0  0  2  0  0  0  0  0  0
  190.1520  176.8010  146.4680 C   0  0  2  0  0  3  0  0  0  0  0  0
  187.7740  177.6490  146.5000 N   0  0  0  0  0  0  0  0  0  0  0  0
  186.3860  178.1110  146.4530 N   0  0  0  0  0  2  0  0  0  0  0  0
  186.8820  177.4920  145.3650 C   0  0  0  0  0  2  0  0  0  0  0  0
  189.0200  177.4880  147.1680 C   0  0  0  0  0  0  0  0  0  0  0  0
  189.1580  177.9240  148.3410 O   0  0  0  0  0  0  0  0  0  0  0  0
  191.2560  176.4250  147.4050 C   0  0  0  0  0  0  0  0  0  0  0  0
  191.9710  177.3250  147.9180 O   0  0  0  0  0  1  0  0  0  0  0  0
  191.5020  175.0930  147.7160 O   0  0  0  0  0  0  0  0  0  0  0  0
  189.9930  176.0160  137.6970 C   0  0  0  0  0  0  0  0  0  0  0  0
  191.1610  173.9770  137.0880 C   0  0  0  0  0  3  0  0  0  0  0  0
  192.3790  176.0630  137.2610 C   0  0  0  0  0  3  0  0  0  0  0  0
  193.5630  174.0160  136.6500 N   0  0  0  0  0  1  0  0  0  0  0  0
  189.9790  174.6390  137.4320 C   0  0  0  0  0  3  0  0  0  0  0  0
  192.3610  174.6880  137.0020 C   0  0  0  0  0  0  0  0  0  0  0  0
  191.1970  176.7250  137.6060 C   0  0  0  0  0  3  0  0  0  0  0  0
  188.2250  177.4530  136.9510 O   0  0  0  0  0  0  0  0  0  0  0  0
  187.1970  176.9480  134.8270 C   0  0  0  0  0  2  0  0  0  0  0  0
  187.4370  176.5290  136.2610 C   0  0  1  0  0  0  0  0  0  0  0  0
  186.1440  176.2310  136.9960 C   0  0  1  0  0  3  0  0  0  0  0  0
  186.1490  177.2490  135.8740 C   0  0  2  0  0  3  0  0  0  0  0  0
  186.2910  173.7810  137.1620 C   0  0  0  0  0  3  0  0  0  0  0  0
  184.1040  174.8530  136.8580 C   0  0  0  0  0  3  0  0  0  0  0  0
  185.1290  170.7300  135.3290 C   0  0  0  0  0  1  0  0  0  0  0  0
  183.3420  173.8530  136.5340 N   0  0  0  0  0  0  0  0  0  0  0  0
  186.0230  172.5050  136.8930 C   0  0  0  0  0  3  0  0  0  0  0  0
  183.7430  172.6310  135.8880 C   0  0  0  0  0  3  0  0  0  0  0  0
  185.5580  174.9100  136.5200 C   0  0  1  0  0  3  0  0  0  0  0  0
  184.9400  172.0370  136.0080 C   0  0  0  0  0  0  0  0  0  0  0  0
  1 30  1  6  0  0  0
  2  7  1  0  0  0  0
  3  2  2  0  0  0  0
  5  6  1  0  0  0  0
  5 10  1  0  0  0  0
  7  4  1  0  0  0  0
  7  6  1  0  0  0  0
  8  5  2  0  0  0  0
  9  1  1  6  0  0  0
  9  2  1  0  0  0  0
  9  8  1  0  0  0  0
 10 11  1  0  0  0  0
 11 12  1  0  0  0  0
 12 13  1  0  0  0  0
 14 13  1  6  0  0  0
 14 18  1  0  0  0  0
 14 20  1  0  0  0  0
 15 18  1  0  0  0  0
 16 15  1  0  0  0  0
 17 16  1  0  0  0  0
 17 15  1  0  0  0  0
 18 19  2  0  0  0  0
 20 22  2  0  0  0  0
 20 21  1  0  0  0  0
 23  1  1  0  0  0  0
 24 27  1  0  0  0  0
 25 29  2  0  0  0  0
 26 28  1  0  0  0  0
 27 23  2  0  0  0  0
 28 24  2  0  0  0  0
 28 25  1  0  0  0  0
 29 23  1  0  0  0  0
 31 32  1  0  0  0  0
 32 30  1  1  0  0  0
 32 33  1  0  0  0  0
 33 41  1  6  0  0  0
 34 31  1  6  0  0  0
 34 32  1  0  0  0  0
 34 33  1  0  0  0  0
 37 42  1  0  0  0  0
 38 36  2  0  0  0  0
 39 35  2  0  0  0  0
 40 42  2  0  0  0  0
 40 38  1  0  0  0  0
 41 36  1  1  0  0  0
 41 35  1  0  0  0  0
 42 39  1  0  0  0  0
M  END
>  <MODEL>
1

>  <REMARK>
 VINA RESULT:      -7.8      0.000      0.000
  Name = 
  12 active torsions:
  status: ('A' for Active; 'I' for Inactive)
    1  A    between atoms: C_3  and  C_8
    2  A    between atoms: C_6  and  C_32
    3  A    between atoms: C_8  and  O_11
    4  A    between atoms: C_8  and  C_39
    5  A    between atoms: O_11  and  C_12
    6  A    between atoms: N_19  and  C_27
    7  A    between atoms: N_19  and  C_29
    8  A    between atoms: C_20  and  C_41
    9  A    between atoms: C_24  and  C_38
   10  A    between atoms: C_27  and  C_32
   11  A    between atoms: C_29  and  C_38
   12  A    between atoms: C_32  and  C_35
                            x       y       z     vdW  Elec       q    Type
                         _______ _______ _______ _____ _____    ______ ____

>  <TORSDO>
F 12

$$$$
=
 OpenBabel10232411003D

 42 47  0  0  1  0  0  0  0  0999 V2000
  187.9070  176.8000  137.7910 C   0  0  2  0  0  3  0  0  0  0  0  0
  187.1000  178.3210  139.6900 C   0  0  0  0  0  0  0  0  0  0  0  0
  186.0470  178.6450  139.0740 O   0  0  0  0  0  0  0  0  0  0  0  0
  186.0880  179.0920  141.8530 C   0  0  0  0  0  1  0  0  0  0  0  0
  189.3490  177.3560  141.1670 C   0  0  0  0  0  0  0  0  0  0  0  0
  188.5100  178.4640  141.7610 C   0  0  0  0  0  2  0  0  0  0  0  0
  187.2100  178.5570  141.1010 N   0  0  0  0  0  0  0  0  0  0  0  0
  189.2290  177.0390  139.8700 C   0  0  0  0  0  3  0  0  0  0  0  0
  188.2810  177.7490  138.9400 C   0  0  1  0  0  3  0  0  0  0  0  0
  190.3620  176.5990  141.9830 C   0  0  0  0  0  2  0  0  0  0  0  0
  191.2400  177.4830  142.8620 C   0  0  0  0  0  2  0  0  0  0  0  0
  191.4220  176.8740  144.1690 N   0  0  0  0  0  2  0  0  0  0  0  0
  190.6500  177.6560  145.1240 C   0  0  0  0  0  2  0  0  0  0  0  0
  190.1740  176.7910  146.2910 C   0  0  2  0  0  3  0  0  0  0  0  0
  187.7610  177.5330  146.2520 N   0  0  0  0  0  0  0  0  0  0  0  0
  186.3580  177.9400  146.1590 N   0  0  0  0  0  2  0  0  0  0  0  0
  186.9500  177.4610  145.0490 C   0  0  0  0  0  2  0  0  0  0  0  0
  188.9690  177.3530  146.9810 C   0  0  0  0  0  0  0  0  0  0  0  0
  189.0130  177.6680  148.1990 O   0  0  0  0  0  0  0  0  0  0  0  0
  191.2750  176.4610  147.2500 C   0  0  0  0  0  0  0  0  0  0  0  0
  191.9370  177.3900  147.7810 O   0  0  0  0  0  1  0  0  0  0  0  0
  191.5760  175.1400  147.5590 O   0  0  0  0  0  0  0  0  0  0  0  0
  189.0990  176.0670  137.2570 C   0  0  0  0  0  0  0  0  0  0  0  0
  191.2630  176.0410  136.1580 C   0  0  0  0  0  3  0  0  0  0  0  0
  190.2730  173.9690  136.9290 C   0  0  0  0  0  3  0  0  0  0  0  0
  192.4490  173.9330  135.8210 N   0  0  0  0  0  1  0  0  0  0  0  0
  190.1560  176.7470  136.6350 C   0  0  0  0  0  3  0  0  0  0  0  0
  191.3220  174.6520  136.3050 C   0  0  0  0  0  0  0  0  0  0  0  0
  189.1640  174.6760  137.4050 C   0  0  0  0  0  3  0  0  0  0  0  0
  187.2070  177.4540  136.7650 O   0  0  0  0  0  0  0  0  0  0  0  0
  185.9150  176.8260  134.8260 C   0  0  0  0  0  2  0  0  0  0  0  0
  186.3330  176.4980  136.2430 C   0  0  1  0  0  0  0  0  0  0  0  0
  185.1420  176.2650  137.1540 C   0  0  1  0  0  3  0  0  0  0  0  0
  185.0090  177.2080  135.9750 C   0  0  2  0  0  3  0  0  0  0  0  0
  185.2680  173.8340  137.5040 C   0  0  0  0  0  3  0  0  0  0  0  0
  183.0780  174.9270  137.3190 C   0  0  0  0  0  3  0  0  0  0  0  0
  183.8920  170.6730  136.0440 C   0  0  0  0  0  1  0  0  0  0  0  0
  182.2740  173.9220  137.1510 N   0  0  0  0  0  0  0  0  0  0  0  0
  184.9570  172.5470  137.3670 C   0  0  0  0  0  3  0  0  0  0  0  0
  182.5940  172.6440  136.5730 C   0  0  0  0  0  3  0  0  0  0  0  0
  184.4940  174.9240  136.8440 C   0  0  1  0  0  3  0  0  0  0  0  0
  183.7880  172.0340  136.6290 C   0  0  0  0  0  0  0  0  0  0  0  0
  1 30  1  6  0  0  0
  2  7  1  0  0  0  0
  3  2  2  0  0  0  0
  5  6  1  0  0  0  0
  5 10  1  0  0  0  0
  7  6  1  0  0  0  0
  7  4  1  0  0  0  0
  8  5  2  0  0  0  0
  9  1  1  6  0  0  0
  9  2  1  0  0  0  0
  9  8  1  0  0  0  0
 10 11  1  0  0  0  0
 11 12  1  0  0  0  0
 12 13  1  0  0  0  0
 14 13  1  6  0  0  0
 14 18  1  0  0  0  0
 14 20  1  0  0  0  0
 15 18  1  0  0  0  0
 16 15  1  0  0  0  0
 17 16  1  0  0  0  0
 17 15  1  0  0  0  0
 18 19  2  0  0  0  0
 20 22  2  0  0  0  0
 20 21  1  0  0  0  0
 23 29  1  0  0  0  0
 23  1  1  0  0  0  0
 24 28  2  0  0  0  0
 24 27  1  0  0  0  0
 25 29  2  0  0  0  0
 26 28  1  0  0  0  0
 27 23  2  0  0  0  0
 28 25  1  0  0  0  0
 31 32  1  0  0  0  0
 32 30  1  1  0  0  0
 32 33  1  0  0  0  0
 33 41  1  6  0  0  0
 34 31  1  6  0  0  0
 34 32  1  0  0  0  0
 34 33  1  0  0  0  0
 37 42  1  0  0  0  0
 38 36  2  0  0  0  0
 39 35  2  0  0  0  0
 40 42  2  0  0  0  0
 40 38  1  0  0  0  0
 41 36  1  1  0  0  0
 41 35  1  0  0  0  0
 42 39  1  0  0  0  0
M  END
>  <MODEL>
2

>  <REMARK>
 VINA RESULT:      -7.7      0.858      1.149
  Name = 
  12 active torsions:
  status: ('A' for Active; 'I' for Inactive)
    1  A    between atoms: C_3  and  C_8
    2  A    between atoms: C_6  and  C_32
    3  A    between atoms: C_8  and  O_11
    4  A    between atoms: C_8  and  C_39
    5  A    between atoms: O_11  and  C_12
    6  A    between atoms: N_19  and  C_27
    7  A    between atoms: N_19  and  C_29
    8  A    between atoms: C_20  and  C_41
    9  A    between atoms: C_24  and  C_38
   10  A    between atoms: C_27  and  C_32
   11  A    between atoms: C_29  and  C_38
   12  A    between atoms: C_32  and  C_35
                            x       y       z     vdW  Elec       q    Type
                         _______ _______ _______ _____ _____    ______ ____

>  <TORSDO>
F 12

$$$$
=
 OpenBabel10232411003D

 42 47  0  0  1  0  0  0  0  0999 V2000
  187.4450  176.8160  137.5080 C   0  0  2  0  0  3  0  0  0  0  0  0
  186.7610  178.3790  139.4230 C   0  0  0  0  0  0  0  0  0  0  0  0
  185.6600  178.6710  138.8810 O   0  0  0  0  0  0  0  0  0  0  0  0
  185.9060  179.1960  141.6360 C   0  0  0  0  0  1  0  0  0  0  0  0
  189.1310  177.4850  140.7480 C   0  0  0  0  0  0  0  0  0  0  0  0
  188.3220  178.5970  141.3750 C   0  0  0  0  0  2  0  0  0  0  0  0
  186.9750  178.6540  140.8140 N   0  0  0  0  0  0  0  0  0  0  0  0
  188.9170  177.1300  139.4730 C   0  0  0  0  0  3  0  0  0  0  0  0
  187.8910  177.8010  138.6000 C   0  0  1  0  0  3  0  0  0  0  0  0
  190.2140  176.7640  141.5050 C   0  0  0  0  0  2  0  0  0  0  0  0
  191.3350  177.6700  142.0020 C   0  0  0  0  0  2  0  0  0  0  0  0
  191.0080  178.2030  143.3140 N   0  0  0  0  0  2  0  0  0  0  0  0
  190.4630  177.1090  144.1050 C   0  0  0  0  0  2  0  0  0  0  0  0
  189.3530  177.5980  145.0350 C   0  0  2  0  0  3  0  0  0  0  0  0
  188.6870  177.6810  147.4690 N   0  0  0  0  0  0  0  0  0  0  0  0
  188.2420  177.7690  148.8610 N   0  0  0  0  0  2  0  0  0  0  0  0
  187.5410  178.4450  147.9300 C   0  0  0  0  0  2  0  0  0  0  0  0
  189.5700  177.2000  146.4630 C   0  0  0  0  0  0  0  0  0  0  0  0
  190.5250  176.4450  146.7830 O   0  0  0  0  0  0  0  0  0  0  0  0
  187.9870  177.2300  144.5440 C   0  0  0  0  0  0  0  0  0  0  0  0
  187.8250  176.1610  143.9000 O   0  0  0  0  0  0  0  0  0  0  0  0
  186.8970  178.0550  144.7910 O   0  0  0  0  0  1  0  0  0  0  0  0
  188.6100  176.1850  136.8120 C   0  0  0  0  0  0  0  0  0  0  0  0
  190.5320  176.3170  135.3350 C   0  0  0  0  0  3  0  0  0  0  0  0
  189.9740  174.2190  136.4090 C   0  0  0  0  0  3  0  0  0  0  0  0
  191.9070  174.3420  134.9220 N   0  0  0  0  0  1  0  0  0  0  0  0
  189.4430  176.9270  135.9610 C   0  0  0  0  0  3  0  0  0  0  0  0
  190.7990  174.9630  135.5590 C   0  0  0  0  0  0  0  0  0  0  0  0
  188.8840  174.8300  137.0360 C   0  0  0  0  0  3  0  0  0  0  0  0
  186.5570  177.4020  136.5920 O   0  0  0  0  0  0  0  0  0  0  0  0
  185.4330  176.5040  134.6540 C   0  0  0  0  0  2  0  0  0  0  0  0
  185.7620  176.3530  136.1230 C   0  0  1  0  0  0  0  0  0  0  0  0
  184.5190  176.1630  136.9730 C   0  0  1  0  0  3  0  0  0  0  0  0
  184.4330  176.9650  135.6900 C   0  0  2  0  0  3  0  0  0  0  0  0
  184.8040  173.7750  137.4890 C   0  0  0  0  0  3  0  0  0  0  0  0
  182.5470  174.7170  137.2810 C   0  0  0  0  0  3  0  0  0  0  0  0
  183.6000  170.4400  136.2850 C   0  0  0  0  0  1  0  0  0  0  0  0
  181.8040  173.6550  137.2020 N   0  0  0  0  0  0  0  0  0  0  0  0
  184.5710  172.4650  137.4490 C   0  0  0  0  0  3  0  0  0  0  0  0
  182.1910  172.3610  136.7070 C   0  0  0  0  0  3  0  0  0  0  0  0
  183.9510  174.7670  136.7730 C   0  0  1  0  0  3  0  0  0  0  0  0
  183.4220  171.8310  136.7760 C   0  0  0  0  0  0  0  0  0  0  0  0
  1 30  1  6  0  0  0
  2  7  1  0  0  0  0
  3  2  2  0  0  0  0
  5  6  1  0  0  0  0
  5 10  1  0  0  0  0
  7  6  1  0  0  0  0
  7  4  1  0  0  0  0
  8  5  2  0  0  0  0
  9  1  1  6  0  0  0
  9  2  1  0  0  0  0
  9  8  1  0  0  0  0
 10 11  1  0  0  0  0
 11 12  1  0  0  0  0
 12 13  1  0  0  0  0
 14 13  1  6  0  0  0
 14 18  1  0  0  0  0
 15 17  1  0  0  0  0
 15 16  1  0  0  0  0
 17 16  1  0  0  0  0
 18 19  2  0  0  0  0
 18 15  1  0  0  0  0
 20 22  1  0  0  0  0
 20 14  1  0  0  0  0
 21 20  2  0  0  0  0
 23 29  1  0  0  0  0
 23  1  1  0  0  0  0
 24 28  2  0  0  0  0
 24 27  1  0  0  0  0
 25 29  2  0  0  0  0
 26 28  1  0  0  0  0
 27 23  2  0  0  0  0
 28 25  1  0  0  0  0
 31 32  1  0  0  0  0
 32 30  1  1  0  0  0
 32 33  1  0  0  0  0
 33 41  1  6  0  0  0
 34 31  1  6  0  0  0
 34 32  1  0  0  0  0
 34 33  1  0  0  0  0
 37 42  1  0  0  0  0
 38 36  2  0  0  0  0
 39 35  2  0  0  0  0
 40 42  2  0  0  0  0
 40 38  1  0  0  0  0
 41 36  1  1  0  0  0
 41 35  1  0  0  0  0
 42 39  1  0  0  0  0
M  END
>  <MODEL>
3

>  <REMARK>
 VINA RESULT:      -7.6      1.762      2.325
  Name = 
  12 active torsions:
  status: ('A' for Active; 'I' for Inactive)
    1  A    between atoms: C_3  and  C_8
    2  A    between atoms: C_6  and  C_32
    3  A    between atoms: C_8  and  O_11
    4  A    between atoms: C_8  and  C_39
    5  A    between atoms: O_11  and  C_12
    6  A    between atoms: N_19  and  C_27
    7  A    between atoms: N_19  and  C_29
    8  A    between atoms: C_20  and  C_41
    9  A    between atoms: C_24  and  C_38
   10  A    between atoms: C_27  and  C_32
   11  A    between atoms: C_29  and  C_38
   12  A    between atoms: C_32  and  C_35
                            x       y       z     vdW  Elec       q    Type
                         _______ _______ _______ _____ _____    ______ ____

>  <TORSDO>
F 12

$$$$
=
 OpenBabel10232411003D

 42 47  0  0  1  0  0  0  0  0999 V2000
  185.2640  177.5240  138.0270 C   0  0  2  0  0  3  0  0  0  0  0  0
  184.2870  178.4940  140.1900 C   0  0  0  0  0  0  0  0  0  0  0  0
  183.0970  178.2900  139.8240 O   0  0  0  0  0  0  0  0  0  0  0  0
  183.5330  178.7060  142.5740 C   0  0  0  0  0  1  0  0  0  0  0  0
  186.9900  178.6890  141.1010 C   0  0  0  0  0  0  0  0  0  0  0  0
  185.8900  179.2780  141.9540 C   0  0  0  0  0  2  0  0  0  0  0  0
  184.5830  178.7540  141.5690 N   0  0  0  0  0  0  0  0  0  0  0  0
  186.7490  178.3510  139.8260 C   0  0  0  0  0  3  0  0  0  0  0  0
  185.4050  178.5380  139.1720 C   0  0  1  0  0  3  0  0  0  0  0  0
  188.3860  178.4910  141.6260 C   0  0  0  0  0  2  0  0  0  0  0  0
  188.8910  177.0560  141.5290 C   0  0  0  0  0  2  0  0  0  0  0  0
  188.9880  176.4640  142.8520 N   0  0  0  0  0  2  0  0  0  0  0  0
  189.2810  177.5390  143.7890 C   0  0  0  0  0  2  0  0  0  0  0  0
  189.7390  176.9860  145.1390 C   0  0  2  0  0  3  0  0  0  0  0  0
  187.5660  177.7830  146.1490 N   0  0  0  0  0  0  0  0  0  0  0  0
  186.2740  178.2260  146.6720 N   0  0  0  0  0  2  0  0  0  0  0  0
  186.3220  177.7850  145.4010 C   0  0  0  0  0  2  0  0  0  0  0  0
  188.9610  177.5430  146.2920 C   0  0  0  0  0  0  0  0  0  0  0  0
  189.5280  177.8000  147.3870 O   0  0  0  0  0  0  0  0  0  0  0  0
  191.2180  177.1080  145.3390 C   0  0  0  0  0  0  0  0  0  0  0  0
  191.8480  176.1750  145.9000 O   0  0  0  0  0  1  0  0  0  0  0  0
  191.9020  178.2390  144.9120 O   0  0  0  0  0  0  0  0  0  0  0  0
  186.5700  177.2650  137.3420 C   0  0  0  0  0  0  0  0  0  0  0  0
  188.3880  175.7820  136.7190 C   0  0  0  0  0  3  0  0  0  0  0  0
  188.3980  178.0870  135.9750 C   0  0  0  0  0  3  0  0  0  0  0  0
  190.2330  176.6040  135.3460 N   0  0  0  0  0  1  0  0  0  0  0  0
  187.1760  176.0000  137.3780 C   0  0  0  0  0  3  0  0  0  0  0  0
  189.0000  176.8250  136.0170 C   0  0  0  0  0  0  0  0  0  0  0  0
  187.1850  178.3060  136.6350 C   0  0  0  0  0  3  0  0  0  0  0  0
  184.2680  177.8920  137.1080 O   0  0  0  0  0  0  0  0  0  0  0  0
  183.2400  176.9560  135.1360 C   0  0  0  0  0  2  0  0  0  0  0  0
  183.8830  176.7040  136.4820 C   0  0  1  0  0  0  0  0  0  0  0  0
  183.0120  175.8490  137.3830 C   0  0  1  0  0  3  0  0  0  0  0  0
  182.3630  176.7470  136.3500 C   0  0  2  0  0  3  0  0  0  0  0  0
  184.1850  173.6900  137.5070 C   0  0  0  0  0  3  0  0  0  0  0  0
  181.7400  173.7390  137.2960 C   0  0  0  0  0  3  0  0  0  0  0  0
  184.3500  170.4310  135.6720 C   0  0  0  0  0  1  0  0  0  0  0  0
  181.4590  172.5100  136.9840 N   0  0  0  0  0  0  0  0  0  0  0  0
  184.4700  172.4200  137.2290 C   0  0  0  0  0  3  0  0  0  0  0  0
  182.3130  171.5710  136.3070 C   0  0  0  0  0  3  0  0  0  0  0  0
  183.0210  174.4040  136.9090 C   0  0  1  0  0  3  0  0  0  0  0  0
  183.6530  171.5370  136.3760 C   0  0  0  0  0  0  0  0  0  0  0  0
  1 30  1  6  0  0  0
  2  7  1  0  0  0  0
  3  2  2  0  0  0  0
  5 10  1  0  0  0  0
  5  6  1  0  0  0  0
  7  6  1  0  0  0  0
  7  4  1  0  0  0  0
  8  5  2  0  0  0  0
  9  1  1  6  0  0  0
  9  8  1  0  0  0  0
  9  2  1  0  0  0  0
 11 10  1  0  0  0  0
 11 12  1  0  0  0  0
 12 13  1  0  0  0  0
 14 13  1  6  0  0  0
 14 20  1  0  0  0  0
 14 18  1  0  0  0  0
 15 18  1  0  0  0  0
 15 16  1  0  0  0  0
 17 15  1  0  0  0  0
 17 16  1  0  0  0  0
 18 19  2  0  0  0  0
 20 21  1  0  0  0  0
 22 20  2  0  0  0  0
 23 27  1  0  0  0  0
 23  1  1  0  0  0  0
 24 27  2  0  0  0  0
 25 28  2  0  0  0  0
 25 29  1  0  0  0  0
 26 28  1  0  0  0  0
 28 24  1  0  0  0  0
 29 23  2  0  0  0  0
 31 32  1  0  0  0  0
 32 30  1  1  0  0  0
 32 33  1  0  0  0  0
 33 41  1  6  0  0  0
 34 31  1  6  0  0  0
 34 32  1  0  0  0  0
 34 33  1  0  0  0  0
 37 42  1  0  0  0  0
 38 36  2  0  0  0  0
 39 35  2  0  0  0  0
 40 42  2  0  0  0  0
 40 38  1  0  0  0  0
 41 36  1  1  0  0  0
 41 35  1  0  0  0  0
 42 39  1  0  0  0  0
M  END
>  <MODEL>
4

>  <REMARK>
 VINA RESULT:      -7.3      2.153      3.003
  Name = 
  12 active torsions:
  status: ('A' for Active; 'I' for Inactive)
    1  A    between atoms: C_3  and  C_8
    2  A    between atoms: C_6  and  C_32
    3  A    between atoms: C_8  and  O_11
    4  A    between atoms: C_8  and  C_39
    5  A    between atoms: O_11  and  C_12
    6  A    between atoms: N_19  and  C_27
    7  A    between atoms: N_19  and  C_29
    8  A    between atoms: C_20  and  C_41
    9  A    between atoms: C_24  and  C_38
   10  A    between atoms: C_27  and  C_32
   11  A    between atoms: C_29  and  C_38
   12  A    between atoms: C_32  and  C_35
                            x       y       z     vdW  Elec       q    Type
                         _______ _______ _______ _____ _____    ______ ____

>  <TORSDO>
F 12

$$$$
=
 OpenBabel10232411003D

 42 47  0  0  1  0  0  0  0  0999 V2000
  190.8340  176.5620  138.9180 C   0  0  2  0  0  3  0  0  0  0  0  0
  191.4460  177.2610  141.3090 C   0  0  0  0  0  0  0  0  0  0  0  0
  192.6850  177.1780  141.0880 O   0  0  0  0  0  0  0  0  0  0  0  0
  191.8860  178.6750  143.3350 C   0  0  0  0  0  1  0  0  0  0  0  0
  188.6480  177.7030  141.6940 C   0  0  0  0  0  0  0  0  0  0  0  0
  189.5750  177.8260  142.8820 C   0  0  0  0  0  2  0  0  0  0  0  0
  190.9640  177.9720  142.4570 N   0  0  0  0  0  0  0  0  0  0  0  0
  189.0720  177.1190  140.5650 C   0  0  0  0  0  3  0  0  0  0  0  0
  190.4580  176.5530  140.4080 C   0  0  1  0  0  3  0  0  0  0  0  0
  187.2250  178.1930  141.7400 C   0  0  0  0  0  2  0  0  0  0  0  0
  186.3950  177.5890  142.8670 C   0  0  0  0  0  2  0  0  0  0  0  0
  186.4690  178.4270  144.0520 N   0  0  0  0  0  2  0  0  0  0  0  0
  186.7390  177.5540  145.1860 C   0  0  0  0  0  2  0  0  0  0  0  0
  187.0610  178.3620  146.4430 C   0  0  2  0  0  3  0  0  0  0  0  0
  189.2010  177.1730  147.0620 N   0  0  0  0  0  0  0  0  0  0  0  0
  190.4680  176.5040  147.3550 N   0  0  0  0  0  2  0  0  0  0  0  0
  190.3130  177.0530  146.1360 C   0  0  0  0  0  2  0  0  0  0  0  0
  187.8950  177.6020  147.4280 C   0  0  0  0  0  0  0  0  0  0  0  0
  187.4530  177.3390  148.5770 O   0  0  0  0  0  0  0  0  0  0  0  0
  185.8410  178.9590  147.0710 C   0  0  0  0  0  0  0  0  0  0  0  0
  184.7310  178.3780  146.9520 O   0  0  0  0  0  0  0  0  0  0  0  0
  185.9190  180.1500  147.7840 O   0  0  0  0  0  1  0  0  0  0  0  0
  189.7110  177.0540  138.0590 C   0  0  0  0  0  0  0  0  0  0  0  0
  188.4060  178.8580  137.0900 C   0  0  0  0  0  3  0  0  0  0  0  0
  187.8730  176.5560  136.5560 C   0  0  0  0  0  3  0  0  0  0  0  0
  186.5530  178.3640  135.5800 N   0  0  0  0  0  1  0  0  0  0  0  0
  189.4520  178.4250  137.9100 C   0  0  0  0  0  3  0  0  0  0  0  0
  187.6160  177.9240  136.4130 C   0  0  0  0  0  0  0  0  0  0  0  0
  188.9190  176.1230  137.3760 C   0  0  0  0  0  3  0  0  0  0  0  0
  191.3070  175.3150  138.4800 O   0  0  0  0  0  0  0  0  0  0  0  0
  192.6930  176.6760  137.0480 C   0  0  0  0  0  2  0  0  0  0  0  0
  192.6160  175.5440  138.0490 C   0  0  1  0  0  0  0  0  0  0  0  0
  193.2690  174.2760  137.5330 C   0  0  1  0  0  3  0  0  0  0  0  0
  192.6460  175.2480  136.5520 C   0  0  2  0  0  3  0  0  0  0  0  0
  195.3100  174.0340  138.8840 C   0  0  0  0  0  3  0  0  0  0  0  0
  195.3790  173.5610  136.4770 C   0  0  0  0  0  3  0  0  0  0  0  0
  198.8940  175.1170  138.8450 C   0  0  0  0  0  1  0  0  0  0  0  0
  196.6540  173.5170  136.2340 N   0  0  0  0  0  0  0  0  0  0  0  0
  196.6020  174.1080  139.1970 C   0  0  0  0  0  3  0  0  0  0  0  0
  197.6980  174.1930  136.9570 C   0  0  0  0  0  3  0  0  0  0  0  0
  194.7830  174.4200  137.5440 C   0  0  1  0  0  3  0  0  0  0  0  0
  197.6770  174.4940  138.2650 C   0  0  0  0  0  0  0  0  0  0  0  0
  1 30  1  6  0  0  0
  2  7  1  0  0  0  0
  3  2  2  0  0  0  0
  5 10  1  0  0  0  0
  5  6  1  0  0  0  0
  7  6  1  0  0  0  0
  7  4  1  0  0  0  0
  8  5  2  0  0  0  0
  9  1  1  6  0  0  0
  9  8  1  0  0  0  0
  9  2  1  0  0  0  0
 10 11  1  0  0  0  0
 11 12  1  0  0  0  0
 12 13  1  0  0  0  0
 14 13  1  6  0  0  0
 14 20  1  0  0  0  0
 14 18  1  0  0  0  0
 15 16  1  0  0  0  0
 15 18  1  0  0  0  0
 17 15  1  0  0  0  0
 17 16  1  0  0  0  0
 18 19  2  0  0  0  0
 20 22  1  0  0  0  0
 21 20  2  0  0  0  0
 23  1  1  0  0  0  0
 24 27  2  0  0  0  0
 25 29  1  0  0  0  0
 26 28  1  0  0  0  0
 27 23  1  0  0  0  0
 28 25  2  0  0  0  0
 28 24  1  0  0  0  0
 29 23  2  0  0  0  0
 31 32  1  0  0  0  0
 32 30  1  1  0  0  0
 33 41  1  6  0  0  0
 33 32  1  0  0  0  0
 34 31  1  6  0  0  0
 34 33  1  0  0  0  0
 34 32  1  0  0  0  0
 35 39  2  0  0  0  0
 38 36  2  0  0  0  0
 38 40  1  0  0  0  0
 40 42  2  0  0  0  0
 41 36  1  6  0  0  0
 41 35  1  0  0  0  0
 42 37  1  0  0  0  0
 42 39  1  0  0  0  0
M  END
>  <MODEL>
5

>  <REMARK>
 VINA RESULT:      -7.1      2.946      6.826
  Name = 
  12 active torsions:
  status: ('A' for Active; 'I' for Inactive)
    1  A    between atoms: C_3  and  C_8
    2  A    between atoms: C_6  and  C_32
    3  A    between atoms: C_8  and  O_11
    4  A    between atoms: C_8  and  C_39
    5  A    between atoms: O_11  and  C_12
    6  A    between atoms: N_19  and  C_27
    7  A    between atoms: N_19  and  C_29
    8  A    between atoms: C_20  and  C_41
    9  A    between atoms: C_24  and  C_38
   10  A    between atoms: C_27  and  C_32
   11  A    between atoms: C_29  and  C_38
   12  A    between atoms: C_32  and  C_35
                            x       y       z     vdW  Elec       q    Type
                         _______ _______ _______ _____ _____    ______ ____

>  <TORSDO>
F 12

$$$$
=
 OpenBabel10232411003D

 42 47  0  0  1  0  0  0  0  0999 V2000
  187.7920  175.4010  136.6050 C   0  0  2  0  0  3  0  0  0  0  0  0
  190.2300  175.1580  135.8460 C   0  0  0  0  0  0  0  0  0  0  0  0
  189.9020  174.8500  134.6670 O   0  0  0  0  0  0  0  0  0  0  0  0
  192.5470  175.7270  135.0690 C   0  0  0  0  0  1  0  0  0  0  0  0
  190.9380  176.1210  138.4420 C   0  0  0  0  0  0  0  0  0  0  0  0
  192.0350  175.6440  137.5190 C   0  0  0  0  0  2  0  0  0  0  0  0
  191.5710  175.5740  136.1360 N   0  0  0  0  0  0  0  0  0  0  0  0
  189.6570  175.8300  138.1760 C   0  0  0  0  0  3  0  0  0  0  0  0
  189.2350  175.0230  136.9770 C   0  0  1  0  0  3  0  0  0  0  0  0
  191.2350  176.9010  139.6950 C   0  0  0  0  0  2  0  0  0  0  0  0
  189.9950  177.4370  140.4030 C   0  0  0  0  0  2  0  0  0  0  0  0
  189.7920  176.7390  141.6610 N   0  0  0  0  0  2  0  0  0  0  0  0
  189.1370  177.6670  142.5720 C   0  0  0  0  0  2  0  0  0  0  0  0
  189.6270  177.4720  144.0070 C   0  0  2  0  0  3  0  0  0  0  0  0
  188.8010  177.3370  146.3890 N   0  0  0  0  0  0  0  0  0  0  0  0
  188.3900  177.2400  147.7900 N   0  0  0  0  0  2  0  0  0  0  0  0
  189.6570  176.9030  147.4800 C   0  0  0  0  0  2  0  0  0  0  0  0
  188.5390  177.6360  145.0230 C   0  0  0  0  0  0  0  0  0  0  0  0
  187.3950  178.0360  144.6820 O   0  0  0  0  0  0  0  0  0  0  0  0
  190.8300  178.3060  144.3220 C   0  0  0  0  0  0  0  0  0  0  0  0
  190.8560  179.5160  143.9770 O   0  0  0  0  0  0  0  0  0  0  0  0
  191.9180  177.7590  144.9910 O   0  0  0  0  0  1  0  0  0  0  0  0
  186.9360  174.1940  136.3800 C   0  0  0  0  0  0  0  0  0  0  0  0
  186.2820  172.2650  135.0580 C   0  0  0  0  0  3  0  0  0  0  0  0
  185.1810  172.7150  137.1670 C   0  0  0  0  0  3  0  0  0  0  0  0
  184.5140  170.7750  135.8420 N   0  0  0  0  0  1  0  0  0  0  0  0
  187.0850  173.3950  135.2360 C   0  0  0  0  0  3  0  0  0  0  0  0
  185.3300  171.9250  136.0230 C   0  0  0  0  0  0  0  0  0  0  0  0
  185.9830  173.8460  137.3460 C   0  0  0  0  0  3  0  0  0  0  0  0
  187.7360  176.2800  135.5120 O   0  0  0  0  0  0  0  0  0  0  0  0
  186.7440  178.3890  134.8840 C   0  0  0  0  0  2  0  0  0  0  0  0
  186.7450  177.2100  135.8330 C   0  0  1  0  0  0  0  0  0  0  0  0
  186.8280  177.6430  137.2860 C   0  0  1  0  0  3  0  0  0  0  0  0
  187.4610  178.5040  136.2110 C   0  0  2  0  0  3  0  0  0  0  0  0
  184.4480  177.1800  137.6980 C   0  0  0  0  0  3  0  0  0  0  0  0
  185.6410  178.7880  139.1170 C   0  0  0  0  0  3  0  0  0  0  0  0
  181.2300  179.0340  138.1800 C   0  0  0  0  0  1  0  0  0  0  0  0
  184.6730  179.3900  139.7390 N   0  0  0  0  0  0  0  0  0  0  0  0
  183.1740  177.4260  137.9970 C   0  0  0  0  0  3  0  0  0  0  0  0
  183.3210  179.5630  139.2760 C   0  0  0  0  0  3  0  0  0  0  0  0
  185.5020  178.2340  137.7370 C   0  0  1  0  0  3  0  0  0  0  0  0
  182.6520  178.7200  138.4740 C   0  0  0  0  0  0  0  0  0  0  0  0
  1 30  1  6  0  0  0
  2  7  1  0  0  0  0
  2  9  1  0  0  0  0
  3  2  2  0  0  0  0
  4  7  1  0  0  0  0
  5 10  1  0  0  0  0
  6  5  1  0  0  0  0
  7  6  1  0  0  0  0
  8  5  2  0  0  0  0
  9  1  1  6  0  0  0
  9  8  1  0  0  0  0
 10 11  1  0  0  0  0
 11 12  1  0  0  0  0
 12 13  1  0  0  0  0
 14 13  1  6  0  0  0
 14 20  1  0  0  0  0
 14 18  1  0  0  0  0
 15 17  1  0  0  0  0
 15 16  1  0  0  0  0
 17 16  1  0  0  0  0
 18 15  1  0  0  0  0
 19 18  2  0  0  0  0
 20 22  1  0  0  0  0
 21 20  2  0  0  0  0
 23  1  1  0  0  0  0
 23 29  1  0  0  0  0
 24 27  1  0  0  0  0
 24 28  2  0  0  0  0
 25 29  2  0  0  0  0
 26 28  1  0  0  0  0
 27 23  2  0  0  0  0
 28 25  1  0  0  0  0
 31 32  1  0  0  0  0
 32 30  1  6  0  0  0
 32 34  1  0  0  0  0
 32 33  1  0  0  0  0
 33 41  1  6  0  0  0
 34 31  1  6  0  0  0
 34 33  1  0  0  0  0
 35 39  2  0  0  0  0
 36 38  2  0  0  0  0
 37 42  1  0  0  0  0
 39 42  1  0  0  0  0
 40 38  1  0  0  0  0
 41 35  1  1  0  0  0
 41 36  1  0  0  0  0
 42 40  2  0  0  0  0
M  END
>  <MODEL>
6

>  <REMARK>
 VINA RESULT:      -6.9      2.359      5.104
  Name = 
  12 active torsions:
  status: ('A' for Active; 'I' for Inactive)
    1  A    between atoms: C_3  and  C_8
    2  A    between atoms: C_6  and  C_32
    3  A    between atoms: C_8  and  O_11
    4  A    between atoms: C_8  and  C_39
    5  A    between atoms: O_11  and  C_12
    6  A    between atoms: N_19  and  C_27
    7  A    between atoms: N_19  and  C_29
    8  A    between atoms: C_20  and  C_41
    9  A    between atoms: C_24  and  C_38
   10  A    between atoms: C_27  and  C_32
   11  A    between atoms: C_29  and  C_38
   12  A    between atoms: C_32  and  C_35
                            x       y       z     vdW  Elec       q    Type
                         _______ _______ _______ _____ _____    ______ ____

>  <TORSDO>
F 12

$$$$
=
 OpenBabel10232411003D

 42 47  0  0  1  0  0  0  0  0999 V2000
  189.4010  176.4750  137.7530 C   0  0  2  0  0  3  0  0  0  0  0  0
  187.9080  178.0400  139.1300 C   0  0  0  0  0  0  0  0  0  0  0  0
  187.1390  178.2740  138.1580 O   0  0  0  0  0  0  0  0  0  0  0  0
  186.1570  178.8590  140.7300 C   0  0  0  0  0  1  0  0  0  0  0  0
  189.5030  177.2780  141.3770 C   0  0  0  0  0  0  0  0  0  0  0  0
  188.4680  178.3640  141.5550 C   0  0  0  0  0  2  0  0  0  0  0  0
  187.4930  178.3510  140.4670 N   0  0  0  0  0  0  0  0  0  0  0  0
  189.8720  176.8910  140.1470 C   0  0  0  0  0  3  0  0  0  0  0  0
  189.3010  177.4990  138.8940 C   0  0  1  0  0  3  0  0  0  0  0  0
  190.1780  176.6210  142.5510 C   0  0  0  0  0  2  0  0  0  0  0  0
  190.8880  177.5930  143.4860 C   0  0  0  0  0  2  0  0  0  0  0  0
  189.9170  178.3410  144.2670 N   0  0  0  0  0  2  0  0  0  0  0  0
  188.9960  177.3780  144.8530 C   0  0  0  0  0  2  0  0  0  0  0  0
  188.5800  177.7960  146.2640 C   0  0  2  0  0  3  0  0  0  0  0  0
  190.5060  176.5300  147.2940 N   0  0  0  0  0  0  0  0  0  0  0  0
  191.6660  175.8250  147.8400 N   0  0  0  0  0  2  0  0  0  0  0  0
  191.8410  176.5540  146.7210 C   0  0  0  0  0  2  0  0  0  0  0  0
  189.1320  176.8960  147.3260 C   0  0  0  0  0  0  0  0  0  0  0  0
  188.3930  176.4590  148.2470 O   0  0  0  0  0  0  0  0  0  0  0  0
  187.1020  177.9910  146.3940 C   0  0  0  0  0  0  0  0  0  0  0  0
  186.3160  177.1990  145.8110 O   0  0  0  0  0  0  0  0  0  0  0  0
  186.5870  179.0360  147.1510 O   0  0  0  0  0  1  0  0  0  0  0  0
  190.7730  175.8850  137.6470 C   0  0  0  0  0  0  0  0  0  0  0  0
  193.1910  176.0980  137.7100 C   0  0  0  0  0  3  0  0  0  0  0  0
  192.1760  173.9320  137.3250 C   0  0  0  0  0  3  0  0  0  0  0  0
  194.6090  174.1370  137.3830 N   0  0  0  0  0  1  0  0  0  0  0  0
  191.9220  176.6760  137.7990 C   0  0  0  0  0  3  0  0  0  0  0  0
  193.3180  174.7260  137.4730 C   0  0  0  0  0  0  0  0  0  0  0  0
  190.9060  174.5110  137.4140 C   0  0  0  0  0  3  0  0  0  0  0  0
  188.9740  177.0030  136.5240 O   0  0  0  0  0  0  0  0  0  0  0  0
  188.2650  176.2380  134.3470 C   0  0  0  0  0  2  0  0  0  0  0  0
  188.4550  175.9180  135.8140 C   0  0  1  0  0  0  0  0  0  0  0  0
  187.1890  175.3800  136.4530 C   0  0  1  0  0  3  0  0  0  0  0  0
  187.0870  176.3460  135.2900 C   0  0  2  0  0  3  0  0  0  0  0  0
  187.7580  173.0110  136.7950 C   0  0  0  0  0  3  0  0  0  0  0  0
  185.4770  173.6340  136.1370 C   0  0  0  0  0  3  0  0  0  0  0  0
  187.4460  169.7250  135.0270 C   0  0  0  0  0  1  0  0  0  0  0  0
  184.9640  172.4960  135.7820 N   0  0  0  0  0  0  0  0  0  0  0  0
  187.7690  171.6980  136.5770 C   0  0  0  0  0  3  0  0  0  0  0  0
  185.6700  171.3480  135.2750 C   0  0  0  0  0  3  0  0  0  0  0  0
  186.9280  173.9540  135.9910 C   0  0  1  0  0  3  0  0  0  0  0  0
  186.9260  170.9980  135.5890 C   0  0  0  0  0  0  0  0  0  0  0  0
  1 30  1  6  0  0  0
  2  7  1  0  0  0  0
  3  2  2  0  0  0  0
  5  6  1  0  0  0  0
  5 10  1  0  0  0  0
  7  4  1  0  0  0  0
  7  6  1  0  0  0  0
  8  5  2  0  0  0  0
  9  1  1  6  0  0  0
  9  2  1  0  0  0  0
  9  8  1  0  0  0  0
 10 11  1  0  0  0  0
 11 12  1  0  0  0  0
 12 13  1  0  0  0  0
 14 13  1  6  0  0  0
 14 20  1  0  0  0  0
 14 18  1  0  0  0  0
 15 18  1  0  0  0  0
 15 16  1  0  0  0  0
 17 15  1  0  0  0  0
 17 16  1  0  0  0  0
 18 19  2  0  0  0  0
 20 22  1  0  0  0  0
 21 20  2  0  0  0  0
 23  1  1  0  0  0  0
 23 27  1  0  0  0  0
 24 27  2  0  0  0  0
 25 29  1  0  0  0  0
 25 28  2  0  0  0  0
 26 28  1  0  0  0  0
 28 24  1  0  0  0  0
 29 23  2  0  0  0  0
 31 32  1  0  0  0  0
 32 33  1  0  0  0  0
 32 30  1  1  0  0  0
 33 41  1  6  0  0  0
 34 31  1  6  0  0  0
 34 32  1  0  0  0  0
 34 33  1  0  0  0  0
 37 42  1  0  0  0  0
 38 36  2  0  0  0  0
 39 35  2  0  0  0  0
 40 42  2  0  0  0  0
 40 38  1  0  0  0  0
 41 36  1  1  0  0  0
 41 35  1  0  0  0  0
 42 39  1  0  0  0  0
M  END
>  <MODEL>
7

>  <REMARK>
 VINA RESULT:      -6.9      1.597      2.511
  Name = 
  12 active torsions:
  status: ('A' for Active; 'I' for Inactive)
    1  A    between atoms: C_3  and  C_8
    2  A    between atoms: C_6  and  C_32
    3  A    between atoms: C_8  and  O_11
    4  A    between atoms: C_8  and  C_39
    5  A    between atoms: O_11  and  C_12
    6  A    between atoms: N_19  and  C_27
    7  A    between atoms: N_19  and  C_29
    8  A    between atoms: C_20  and  C_41
    9  A    between atoms: C_24  and  C_38
   10  A    between atoms: C_27  and  C_32
   11  A    between atoms: C_29  and  C_38
   12  A    between atoms: C_32  and  C_35
                            x       y       z     vdW  Elec       q    Type
                         _______ _______ _______ _____ _____    ______ ____

>  <TORSDO>
F 12

$$$$
=
 OpenBabel10232411003D

 42 47  0  0  1  0  0  0  0  0999 V2000
  190.3930  176.3820  137.9310 C   0  0  2  0  0  3  0  0  0  0  0  0
  188.9980  174.3570  137.2040 C   0  0  0  0  0  0  0  0  0  0  0  0
  189.9630  173.5560  137.3440 O   0  0  0  0  0  0  0  0  0  0  0  0
  187.3810  172.4390  137.2600 C   0  0  0  0  0  1  0  0  0  0  0  0
  186.7680  176.1450  137.1630 C   0  0  0  0  0  0  0  0  0  0  0  0
  186.5780  174.7330  136.6590 C   0  0  0  0  0  2  0  0  0  0  0  0
  187.6560  173.8590  137.1120 N   0  0  0  0  0  0  0  0  0  0  0  0
  188.0020  176.6370  137.3450 C   0  0  0  0  0  3  0  0  0  0  0  0
  189.2480  175.8410  137.0600 C   0  0  1  0  0  3  0  0  0  0  0  0
  185.6020  177.0540  137.4440 C   0  0  0  0  0  2  0  0  0  0  0  0
  184.2590  176.3370  137.5300 C   0  0  0  0  0  2  0  0  0  0  0  0
  183.1700  177.2940  137.4360 N   0  0  0  0  0  2  0  0  0  0  0  0
  182.6240  177.4650  138.7750 C   0  0  0  0  0  2  0  0  0  0  0  0
  182.4590  178.9450  139.1200 C   0  0  2  0  0  3  0  0  0  0  0  0
  184.4370  179.1400  140.6780 N   0  0  0  0  0  0  0  0  0  0  0  0
  185.5570  179.1940  141.6170 N   0  0  0  0  0  2  0  0  0  0  0  0
  184.5990  178.2730  141.8320 C   0  0  0  0  0  2  0  0  0  0  0  0
  183.7460  179.5980  139.5220 C   0  0  0  0  0  0  0  0  0  0  0  0
  184.2240  180.5480  138.8470 O   0  0  0  0  0  0  0  0  0  0  0  0
  181.3650  179.1850  140.1140 C   0  0  0  0  0  0  0  0  0  0  0  0
  181.1570  178.3440  141.0260 O   0  0  0  0  0  1  0  0  0  0  0  0
  180.5760  180.3270  140.0400 O   0  0  0  0  0  0  0  0  0  0  0  0
  191.7030  176.3700  137.2060 C   0  0  0  0  0  0  0  0  0  0  0  0
  194.1270  176.5040  137.1900 C   0  0  0  0  0  3  0  0  0  0  0  0
  192.9220  176.1390  135.1210 C   0  0  0  0  0  3  0  0  0  0  0  0
  195.3600  176.2760  135.0950 N   0  0  0  0  0  1  0  0  0  0  0  0
  192.9180  176.5340  137.8890 C   0  0  0  0  0  3  0  0  0  0  0  0
  194.1300  176.3070  135.8060 C   0  0  0  0  0  0  0  0  0  0  0  0
  191.7120  176.1690  135.8200 C   0  0  0  0  0  3  0  0  0  0  0  0
  190.4840  175.7180  139.1650 O   0  0  0  0  0  0  0  0  0  0  0  0
  190.0900  178.0530  139.6280 C   0  0  0  0  0  2  0  0  0  0  0  0
  189.9960  176.6220  140.1110 C   0  0  1  0  0  0  0  0  0  0  0  0
  190.6510  176.4290  141.4660 C   0  0  1  0  0  3  0  0  0  0  0  0
  191.1720  177.5010  140.5300 C   0  0  2  0  0  3  0  0  0  0  0  0
  188.6210  176.1590  142.8290 C   0  0  0  0  0  3  0  0  0  0  0  0
  190.6070  177.2280  143.7980 C   0  0  0  0  0  3  0  0  0  0  0  0
  186.3690  178.2010  145.0150 C   0  0  0  0  0  1  0  0  0  0  0  0
  190.1370  177.7690  144.8800 N   0  0  0  0  0  0  0  0  0  0  0  0
  187.6710  176.4710  143.7090 C   0  0  0  0  0  3  0  0  0  0  0  0
  188.7860  178.2040  145.1150 C   0  0  0  0  0  3  0  0  0  0  0  0
  189.7910  177.0430  142.5600 C   0  0  1  0  0  3  0  0  0  0  0  0
  187.6820  177.6630  144.5770 C   0  0  0  0  0  0  0  0  0  0  0  0
  1 30  1  1  0  0  0
  2  3  2  0  0  0  0
  5  8  2  0  0  0  0
  5 10  1  0  0  0  0
  6  7  1  0  0  0  0
  6  5  1  0  0  0  0
  7  2  1  0  0  0  0
  7  4  1  0  0  0  0
  9  2  1  0  0  0  0
  9  8  1  0  0  0  0
  9  1  1  1  0  0  0
 10 11  1  0  0  0  0
 12 11  1  0  0  0  0
 12 13  1  0  0  0  0
 14 13  1  1  0  0  0
 14 18  1  0  0  0  0
 14 20  1  0  0  0  0
 15 16  1  0  0  0  0
 15 17  1  0  0  0  0
 16 17  1  0  0  0  0
 18 15  1  0  0  0  0
 19 18  2  0  0  0  0
 20 21  1  0  0  0  0
 22 20  2  0  0  0  0
 23 27  1  0  0  0  0
 23  1  1  0  0  0  0
 24 27  2  0  0  0  0
 25 28  2  0  0  0  0
 25 29  1  0  0  0  0
 26 28  1  0  0  0  0
 28 24  1  0  0  0  0
 29 23  2  0  0  0  0
 31 32  1  0  0  0  0
 32 30  1  6  0  0  0
 32 34  1  0  0  0  0
 32 33  1  0  0  0  0
 33 41  1  1  0  0  0
 34 31  1  1  0  0  0
 34 33  1  0  0  0  0
 35 39  2  0  0  0  0
 36 38  2  0  0  0  0
 38 40  1  0  0  0  0
 39 42  1  0  0  0  0
 41 35  1  1  0  0  0
 41 36  1  0  0  0  0
 42 37  1  0  0  0  0
 42 40  2  0  0  0  0
M  END
>  <MODEL>
8

>  <REMARK>
 VINA RESULT:      -6.8      3.213      7.861
  Name = 
  12 active torsions:
  status: ('A' for Active; 'I' for Inactive)
    1  A    between atoms: C_3  and  C_8
    2  A    between atoms: C_6  and  C_32
    3  A    between atoms: C_8  and  O_11
    4  A    between atoms: C_8  and  C_39
    5  A    between atoms: O_11  and  C_12
    6  A    between atoms: N_19  and  C_27
    7  A    between atoms: N_19  and  C_29
    8  A    between atoms: C_20  and  C_41
    9  A    between atoms: C_24  and  C_38
   10  A    between atoms: C_27  and  C_32
   11  A    between atoms: C_29  and  C_38
   12  A    between atoms: C_32  and  C_35
                            x       y       z     vdW  Elec       q    Type
                         _______ _______ _______ _____ _____    ______ ____

>  <TORSDO>
F 12

$$$$
=
 OpenBabel10232411003D

 42 47  0  0  1  0  0  0  0  0999 V2000
  185.0270  176.2020  137.3430 C   0  0  2  0  0  3  0  0  0  0  0  0
  186.8000  178.0390  137.1000 C   0  0  0  0  0  0  0  0  0  0  0  0
  186.2470  178.7800  137.9580 O   0  0  0  0  0  0  0  0  0  0  0  0
  188.9400  179.3270  137.3450 C   0  0  0  0  0  1  0  0  0  0  0  0
  188.1730  176.2240  135.3700 C   0  0  0  0  0  0  0  0  0  0  0  0
  188.7060  177.6300  135.5190 C   0  0  0  0  0  2  0  0  0  0  0  0
  188.1580  178.2810  136.7060 N   0  0  0  0  0  0  0  0  0  0  0  0
  186.9380  175.9200  135.7950 C   0  0  0  0  0  3  0  0  0  0  0  0
  186.0200  176.9330  136.4250 C   0  0  1  0  0  3  0  0  0  0  0  0
  188.9790  175.1320  134.7190 C   0  0  0  0  0  2  0  0  0  0  0  0
  190.4880  175.3270  134.8190 C   0  0  0  0  0  2  0  0  0  0  0  0
  190.9480  175.0190  136.1620 N   0  0  0  0  0  2  0  0  0  0  0  0
  192.1590  175.7940  136.3950 C   0  0  0  0  0  2  0  0  0  0  0  0
  192.7810  175.4540  137.7500 C   0  0  2  0  0  3  0  0  0  0  0  0
  191.2850  176.7890  139.2850 N   0  0  0  0  0  0  0  0  0  0  0  0
  190.3630  177.5200  140.1540 N   0  0  0  0  0  2  0  0  0  0  0  0
  189.8570  176.5440  139.3760 C   0  0  0  0  0  2  0  0  0  0  0  0
  192.5870  176.5350  138.7680 C   0  0  0  0  0  0  0  0  0  0  0  0
  193.5620  177.2200  139.1740 O   0  0  0  0  0  0  0  0  0  0  0  0
  194.2120  175.0310  137.6350 C   0  0  0  0  0  0  0  0  0  0  0  0
  194.9860  175.6550  136.8640 O   0  0  0  0  0  0  0  0  0  0  0  0
  194.6970  173.9570  138.3720 O   0  0  0  0  0  1  0  0  0  0  0  0
  184.7490  174.8090  136.8720 C   0  0  0  0  0  0  0  0  0  0  0  0
  183.5610  173.2420  135.4470 C   0  0  0  0  0  3  0  0  0  0  0  0
  185.2470  172.4370  136.9880 C   0  0  0  0  0  3  0  0  0  0  0  0
  184.0550  170.8540  135.5620 N   0  0  0  0  0  1  0  0  0  0  0  0
  183.7910  174.5510  135.8800 C   0  0  0  0  0  3  0  0  0  0  0  0
  184.2890  172.1850  136.0010 C   0  0  0  0  0  0  0  0  0  0  0  0
  185.4780  173.7460  137.4210 C   0  0  0  0  0  3  0  0  0  0  0  0
  183.8400  176.9270  137.5300 O   0  0  0  0  0  0  0  0  0  0  0  0
  182.6080  175.7890  139.2650 C   0  0  0  0  0  2  0  0  0  0  0  0
  183.5890  176.8820  138.9030 C   0  0  1  0  0  0  0  0  0  0  0  0
  183.1650  178.2360  139.4430 C   0  0  1  0  0  3  0  0  0  0  0  0
  182.1100  177.2060  139.0930 C   0  0  2  0  0  3  0  0  0  0  0  0
  184.6550  179.0080  141.2410 C   0  0  0  0  0  3  0  0  0  0  0  0
  182.2260  178.9900  141.5940 C   0  0  0  0  0  3  0  0  0  0  0  0
  185.2610  178.4130  144.8880 C   0  0  0  0  0  1  0  0  0  0  0  0
  182.1260  179.1490  142.8790 N   0  0  0  0  0  0  0  0  0  0  0  0
  185.1220  179.1670  142.4780 C   0  0  0  0  0  3  0  0  0  0  0  0
  183.0930  178.7740  143.8760 C   0  0  0  0  0  3  0  0  0  0  0  0
  183.3790  178.2940  140.9480 C   0  0  1  0  0  3  0  0  0  0  0  0
  184.4240  178.7430  143.7060 C   0  0  0  0  0  0  0  0  0  0  0  0
  1 30  1  6  0  0  0
  2  3  2  0  0  0  0
  5  6  1  0  0  0  0
  5  8  2  0  0  0  0
  6  7  1  0  0  0  0
  7  2  1  0  0  0  0
  7  4  1  0  0  0  0
  8  9  1  0  0  0  0
  9  2  1  0  0  0  0
  9  1  1  1  0  0  0
 10 11  1  0  0  0  0
 10  5  1  0  0  0  0
 11 12  1  0  0  0  0
 12 13  1  0  0  0  0
 14 13  1  6  0  0  0
 14 18  1  0  0  0  0
 15 17  1  0  0  0  0
 15 16  1  0  0  0  0
 17 16  1  0  0  0  0
 18 19  2  0  0  0  0
 18 15  1  0  0  0  0
 20 14  1  0  0  0  0
 20 22  1  0  0  0  0
 21 20  2  0  0  0  0
 23  1  1  0  0  0  0
 23 29  1  0  0  0  0
 24 27  1  0  0  0  0
 24 28  2  0  0  0  0
 25 29  2  0  0  0  0
 26 28  1  0  0  0  0
 27 23  2  0  0  0  0
 28 25  1  0  0  0  0
 32 30  1  6  0  0  0
 32 34  1  0  0  0  0
 32 31  1  0  0  0  0
 32 33  1  0  0  0  0
 33 41  1  1  0  0  0
 34 31  1  1  0  0  0
 34 33  1  0  0  0  0
 35 39  2  0  0  0  0
 36 38  2  0  0  0  0
 38 40  1  0  0  0  0
 39 42  1  0  0  0  0
 41 35  1  6  0  0  0
 41 36  1  0  0  0  0
 42 40  2  0  0  0  0
 42 37  1  0  0  0  0
M  END
>  <MODEL>
9

>  <REMARK>
 VINA RESULT:      -6.8      3.857      7.640
  Name = 
  12 active torsions:
  status: ('A' for Active; 'I' for Inactive)
    1  A    between atoms: C_3  and  C_8
    2  A    between atoms: C_6  and  C_32
    3  A    between atoms: C_8  and  O_11
    4  A    between atoms: C_8  and  C_39
    5  A    between atoms: O_11  and  C_12
    6  A    between atoms: N_19  and  C_27
    7  A    between atoms: N_19  and  C_29
    8  A    between atoms: C_20  and  C_41
    9  A    between atoms: C_24  and  C_38
   10  A    between atoms: C_27  and  C_32
   11  A    between atoms: C_29  and  C_38
   12  A    between atoms: C_32  and  C_35
                            x       y       z     vdW  Elec       q    Type
                         _______ _______ _______ _____ _____    ______ ____

>  <TORSDO>
F 12

$$$$
