=
 OpenBabel10232408043D

 46 51  0  0  1  0  0  0  0  0999 V2000
  184.5110  172.5530  136.9560 C   0  0  0  0  0  0  0  0  0  0  0  0
  186.6930  176.2050  137.0940 C   0  0  2  0  0  3  0  0  0  0  0  0
  184.5360  174.8830  137.6670 C   0  0  0  0  0  3  0  0  0  0  0  0
  189.4710  177.7720  136.6580 C   0  0  2  0  0  3  0  0  0  0  0  0
  185.2460  178.6880  139.5410 C   0  0  0  0  0  3  0  0  0  0  0  0
  188.8720  176.6200  135.8260 C   0  0  2  0  0  3  0  0  0  0  0  0
  186.3040  178.9650  140.3980 C   0  0  0  0  0  3  0  0  0  0  0  0
  187.7920  174.2660  136.0460 C   0  0  0  0  0  2  0  0  0  0  0  0
  185.8090  172.6860  136.4430 C   0  0  0  0  0  3  0  0  0  0  0  0
  188.0610  175.6360  136.6900 C   0  0  2  0  0  3  0  0  0  0  0  0
  187.7180  177.4030  139.1880 C   0  0  0  0  0  0  0  0  0  0  0  0
  185.4150  177.7740  138.5060 C   0  0  0  0  0  3  0  0  0  0  0  0
  187.5380  178.3280  140.2420 C   0  0  0  0  0  0  0  0  0  0  0  0
  186.4540  173.9170  136.5700 C   0  0  0  0  0  0  0  0  0  0  0  0
  183.8320  171.3080  136.8470 N   0  0  0  0  0  1  0  0  0  0  0  0
  189.0210  176.8240  139.0080 N   0  0  0  0  0  0  0  0  0  0  0  0
  183.8740  173.6490  137.5620 C   0  0  0  0  0  3  0  0  0  0  0  0
  191.1750  177.3560  138.2690 O   0  0  0  0  0  0  0  0  0  0  0  0
  186.6320  177.1090  138.3130 C   0  0  0  0  0  0  0  0  0  0  0  0
  189.9390  177.3380  138.0250 C   0  0  0  0  0  0  0  0  0  0  0  0
  185.8420  174.9860  137.1790 C   0  0  0  0  0  0  0  0  0  0  0  0
  187.9360  176.9750  143.2780 S   0  0  0  0  0  0  0  0  0  0  0  0
  191.6370  178.7730  144.9200 C   0  0  0  0  0  1  0  0  0  0  0  0
  188.6550  178.6480  141.0900 N   0  0  0  0  0  2  0  0  0  0  0  0
  189.3500  178.0970  145.2530 N   0  0  0  0  0  0  0  0  0  0  0  0
  187.9650  177.9040  144.8370 C   0  0  2  0  0  3  0  0  0  0  0  0
  190.2600  178.5160  144.4250 C   0  0  0  0  0  0  0  0  0  0  0  0
  189.9490  178.7600  143.0460 N   0  0  0  0  0  0  0  0  0  0  0  0
  188.9230  178.2410  142.4400 C   0  0  0  0  0  0  0  0  0  0  0  0
  187.2020  177.1430  145.9040 C   0  0  0  0  0  2  0  0  0  0  0  0
  186.8200  178.0760  147.0390 C   0  0  0  0  0  2  0  0  0  0  0  0
  185.8970  179.1580  146.5180 C   0  0  0  0  0  2  0  0  0  0  0  0
  184.6330  178.5250  145.9740 C   0  0  0  0  0  1  0  0  0  0  0  0
  188.6510  179.0390  136.6610 C   0  0  0  0  0  0  0  0  0  0  0  0
  188.8680  179.9220  137.4770 O   0  0  0  0  0  0  0  0  0  0  0  0
  187.5240  179.2040  135.6980 C   0  0  0  0  0  1  0  0  0  0  0  0
  190.7680  176.6400  134.3600 O   0  0  0  0  0  0  0  0  0  0  0  0
  190.0540  174.5290  135.0580 N   0  0  0  0  0  2  0  0  0  0  0  0
  189.9610  175.9540  135.0440 C   0  0  0  0  0  0  0  0  0  0  0  0
  191.0950  173.8050  134.3470 C   0  0  1  0  0  3  0  0  0  0  0  0
  191.8760  172.9710  135.3420 C   0  0  1  0  0  3  0  0  0  0  0  0
  190.8420  172.3170  134.4450 C   0  0  0  0  0  2  0  0  0  0  0  0
  193.9300  173.7850  135.3410 C   0  0  0  0  0  1  0  0  0  0  0  0
  193.1540  172.7380  134.8360 O   0  0  0  0  0  0  0  0  0  0  0  0
  190.7290  176.2600  140.4960 O   0  0  0  0  0  1  0  0  0  0  0  0
  189.4950  175.8520  139.9860 C   0  0  0  0  0  2  0  0  0  0  0  0
  1 17  1  0  0  0  0
  2 21  1  1  0  0  0
  2 19  1  0  0  0  0
  4 34  1  1  0  0  0
  4 20  1  0  0  0  0
  5  7  1  0  0  0  0
  6 39  1  1  0  0  0
  6  4  1  0  0  0  0
  6 10  1  0  0  0  0
  8 14  1  0  0  0  0
  9 14  1  0  0  0  0
  9  1  2  0  0  0  0
 10  8  1  6  0  0  0
 10  2  1  0  0  0  0
 11 13  1  0  0  0  0
 12  5  2  0  0  0  0
 13  7  2  0  0  0  0
 13 24  1  0  0  0  0
 14 21  2  0  0  0  0
 15  1  1  0  0  0  0
 16 11  1  0  0  0  0
 16 46  1  0  0  0  0
 17  3  2  0  0  0  0
 19 12  1  0  0  0  0
 19 11  2  0  0  0  0
 20 18  2  0  0  0  0
 20 16  1  0  0  0  0
 21  3  1  0  0  0  0
 22 26  1  0  0  0  0
 24 29  1  0  0  0  0
 26 25  1  0  0  0  0
 26 30  1  1  0  0  0
 27 23  1  0  0  0  0
 27 25  2  0  0  0  0
 28 27  1  0  0  0  0
 29 28  2  0  0  0  0
 29 22  1  0  0  0  0
 30 31  1  0  0  0  0
 32 31  1  0  0  0  0
 33 32  1  0  0  0  0
 34 35  2  0  0  0  0
 36 34  1  0  0  0  0
 37 39  2  0  0  0  0
 39 38  1  0  0  0  0
 40 42  1  0  0  0  0
 40 38  1  1  0  0  0
 40 41  1  0  0  0  0
 41 44  1  6  0  0  0
 42 41  1  0  0  0  0
 44 43  1  0  0  0  0
 46 45  1  0  0  0  0
M  END
>  <MODEL>
1

>  <REMARK>
 VINA RESULT:      -5.4      0.000      0.000
  Name = 
  9 active torsions:
  status: ('A' for Active; 'I' for Inactive)
    1  A    between atoms: N_6  and  C_30
    2  A    between atoms: C_8  and  C_10
    3  A    between atoms: C_12  and  C_37
    4  A    between atoms: C_16  and  N_23
    5  A    between atoms: C_18  and  O_44
    6  A    between atoms: C_19  and  N_36
    7  A    between atoms: C_20  and  C_27
    8  A    between atoms: C_27  and  C_42
    9  A    between atoms: C_34  and  C_42
                            x       y       z     vdW  Elec       q    Type
                         _______ _______ _______ _____ _____    ______ ____

>  <TORSDO>
F 9

$$$$
=
 OpenBabel10232408043D

 46 51  0  0  1  0  0  0  0  0999 V2000
  188.9290  177.8420  142.0020 C   0  0  0  0  0  0  0  0  0  0  0  0
  190.1070  176.9790  138.0040 C   0  0  2  0  0  3  0  0  0  0  0  0
  190.7720  177.3730  140.4800 C   0  0  0  0  0  3  0  0  0  0  0  0
  189.2740  176.1960  134.9950 C   0  0  2  0  0  3  0  0  0  0  0  0
  193.6380  175.6690  137.7640 C   0  0  0  0  0  3  0  0  0  0  0  0
  188.5440  177.1230  135.9880 C   0  0  2  0  0  3  0  0  0  0  0  0
  193.4950  174.4420  137.1270 C   0  0  0  0  0  3  0  0  0  0  0  0
  187.6990  177.2550  138.4420 C   0  0  0  0  0  2  0  0  0  0  0  0
  188.0130  177.7040  140.9490 C   0  0  0  0  0  3  0  0  0  0  0  0
  188.7110  176.6620  137.4480 C   0  0  2  0  0  3  0  0  0  0  0  0
  191.0860  174.7430  137.0480 C   0  0  0  0  0  0  0  0  0  0  0  0
  192.5150  176.4380  138.0460 C   0  0  0  0  0  3  0  0  0  0  0  0
  192.2320  173.9630  136.7710 C   0  0  0  0  0  0  0  0  0  0  0  0
  188.4970  177.3850  139.6810 C   0  0  0  0  0  0  0  0  0  0  0  0
  188.4630  178.1600  143.3070 N   0  0  0  0  0  1  0  0  0  0  0  0
  189.8090  174.2570  136.6010 N   0  0  0  0  0  0  0  0  0  0  0  0
  190.3050  177.6810  141.7680 C   0  0  0  0  0  3  0  0  0  0  0  0
  188.5440  173.9540  134.6580 O   0  0  0  0  0  0  0  0  0  0  0  0
  191.2280  175.9970  137.7110 C   0  0  0  0  0  0  0  0  0  0  0  0
  189.2100  174.7400  135.3840 C   0  0  0  0  0  0  0  0  0  0  0  0
  189.8410  177.2080  139.4510 C   0  0  0  0  0  0  0  0  0  0  0  0
  194.4320  171.4540  137.0380 S   0  0  0  0  0  0  0  0  0  0  0  0
  192.9380  168.2550  134.3620 C   0  0  0  0  0  1  0  0  0  0  0  0
  192.0770  172.7210  136.0630 N   0  0  0  0  0  2  0  0  0  0  0  0
  194.7880  169.5600  135.1820 N   0  0  0  0  0  0  0  0  0  0  0  0
  195.4180  170.7830  135.6690 C   0  0  2  0  0  3  0  0  0  0  0  0
  193.5140  169.5000  134.9340 C   0  0  0  0  0  0  0  0  0  0  0  0
  192.6590  170.6250  135.1780 N   0  0  0  0  0  0  0  0  0  0  0  0
  192.9650  171.5960  135.9860 C   0  0  0  0  0  0  0  0  0  0  0  0
  196.8280  170.4890  136.1460 C   0  0  0  0  0  2  0  0  0  0  0  0
  197.7830  171.5540  135.6380 C   0  0  0  0  0  2  0  0  0  0  0  0
  199.2010  171.0240  135.6780 C   0  0  0  0  0  2  0  0  0  0  0  0
  199.2530  169.7820  136.5430 C   0  0  0  0  0  1  0  0  0  0  0  0
  190.6490  176.6650  134.5890 C   0  0  0  0  0  0  0  0  0  0  0  0
  190.8790  177.8520  134.4110 O   0  0  0  0  0  0  0  0  0  0  0  0
  191.7370  175.6720  134.3460 C   0  0  0  0  0  1  0  0  0  0  0  0
  186.7400  178.2390  134.8730 O   0  0  0  0  0  0  0  0  0  0  0  0
  186.1650  176.2880  136.0190 N   0  0  0  0  0  2  0  0  0  0  0  0
  187.1110  177.2610  135.5770 C   0  0  0  0  0  0  0  0  0  0  0  0
  184.7610  176.3350  135.6450 C   0  0  1  0  0  3  0  0  0  0  0  0
  183.9420  175.6860  136.7420 C   0  0  1  0  0  3  0  0  0  0  0  0
  183.9980  177.1970  136.6270 C   0  0  0  0  0  2  0  0  0  0  0  0
  183.0350  173.9110  135.7880 C   0  0  0  0  0  1  0  0  0  0  0  0
  182.7470  175.2150  136.2000 O   0  0  0  0  0  0  0  0  0  0  0  0
  187.8530  173.2940  137.4340 O   0  0  0  0  0  1  0  0  0  0  0  0
  189.2270  173.1020  137.2740 C   0  0  0  0  0  2  0  0  0  0  0  0
  1 15  1  0  0  0  0
  2 19  1  1  0  0  0
  2 21  1  0  0  0  0
  3 17  2  0  0  0  0
  4 34  1  1  0  0  0
  4 20  1  0  0  0  0
  4  6  1  0  0  0  0
  5 12  1  0  0  0  0
  6 39  1  6  0  0  0
  6 10  1  0  0  0  0
  7  5  2  0  0  0  0
  8 14  1  0  0  0  0
  9  1  2  0  0  0  0
 10  2  1  0  0  0  0
 10  8  1  1  0  0  0
 11 19  1  0  0  0  0
 13 11  2  0  0  0  0
 13  7  1  0  0  0  0
 14  9  1  0  0  0  0
 16 11  1  0  0  0  0
 16 46  1  0  0  0  0
 17  1  1  0  0  0  0
 18 20  2  0  0  0  0
 19 12  2  0  0  0  0
 20 16  1  0  0  0  0
 21 14  2  0  0  0  0
 21  3  1  0  0  0  0
 23 27  1  0  0  0  0
 24 13  1  0  0  0  0
 25 26  1  0  0  0  0
 26 30  1  1  0  0  0
 26 22  1  0  0  0  0
 27 28  1  0  0  0  0
 27 25  2  0  0  0  0
 28 29  2  0  0  0  0
 29 24  1  0  0  0  0
 29 22  1  0  0  0  0
 31 32  1  0  0  0  0
 31 30  1  0  0  0  0
 32 33  1  0  0  0  0
 35 34  2  0  0  0  0
 36 34  1  0  0  0  0
 37 39  2  0  0  0  0
 39 38  1  0  0  0  0
 40 38  1  1  0  0  0
 40 42  1  0  0  0  0
 40 41  1  0  0  0  0
 41 44  1  6  0  0  0
 42 41  1  0  0  0  0
 43 44  1  0  0  0  0
 46 45  1  0  0  0  0
M  END
>  <MODEL>
2

>  <REMARK>
 VINA RESULT:      -4.1      3.553      9.202
  Name = 
  9 active torsions:
  status: ('A' for Active; 'I' for Inactive)
    1  A    between atoms: N_6  and  C_30
    2  A    between atoms: C_8  and  C_10
    3  A    between atoms: C_12  and  C_37
    4  A    between atoms: C_16  and  N_23
    5  A    between atoms: C_18  and  O_44
    6  A    between atoms: C_19  and  N_36
    7  A    between atoms: C_20  and  C_27
    8  A    between atoms: C_27  and  C_42
    9  A    between atoms: C_34  and  C_42
                            x       y       z     vdW  Elec       q    Type
                         _______ _______ _______ _____ _____    ______ ____

>  <TORSDO>
F 9

$$$$
=
 OpenBabel10232408043D

 46 51  0  0  1  0  0  0  0  0999 V2000
  191.3310  177.1660  141.1710 C   0  0  0  0  0  0  0  0  0  0  0  0
  188.8050  177.2260  137.7460 C   0  0  2  0  0  3  0  0  0  0  0  0
  191.1570  176.8280  138.7650 C   0  0  0  0  0  3  0  0  0  0  0  0
  185.8360  177.4240  136.5160 C   0  0  2  0  0  3  0  0  0  0  0  0
  190.3230  175.4690  134.7700 C   0  0  0  0  0  3  0  0  0  0  0  0
  186.4260  178.1570  137.7380 C   0  0  2  0  0  3  0  0  0  0  0  0
  189.3840  174.4980  134.4420 C   0  0  0  0  0  3  0  0  0  0  0  0
  187.7800  177.7630  139.9210 C   0  0  0  0  0  2  0  0  0  0  0  0
  189.9630  177.4670  141.2370 C   0  0  0  0  0  3  0  0  0  0  0  0
  187.4630  177.3020  138.4890 C   0  0  2  0  0  3  0  0  0  0  0  0
  187.9840  175.1980  136.3010 C   0  0  0  0  0  0  0  0  0  0  0  0
  190.1010  176.3080  135.8570 C   0  0  0  0  0  3  0  0  0  0  0  0
  188.2190  174.3450  135.1980 C   0  0  0  0  0  0  0  0  0  0  0  0
  189.2130  177.4240  140.0620 C   0  0  0  0  0  0  0  0  0  0  0  0
  192.1200  177.1940  142.3540 N   0  0  0  0  0  1  0  0  0  0  0  0
  186.7410  175.0660  137.0100 N   0  0  0  0  0  0  0  0  0  0  0  0
  191.9280  176.8510  139.9380 C   0  0  0  0  0  3  0  0  0  0  0  0
  184.4540  175.5040  136.7950 O   0  0  0  0  0  0  0  0  0  0  0  0
  188.9500  176.1880  136.6460 C   0  0  0  0  0  0  0  0  0  0  0  0
  185.6330  175.9470  136.7500 C   0  0  0  0  0  0  0  0  0  0  0  0
  189.7880  177.0980  138.8560 C   0  0  0  0  0  0  0  0  0  0  0  0
  188.3780  171.1390  136.1480 S   0  0  0  0  0  0  0  0  0  0  0  0
  184.8240  169.1800  134.3720 C   0  0  0  0  0  1  0  0  0  0  0  0
  187.2160  173.3810  134.8350 N   0  0  0  0  0  2  0  0  0  0  0  0
  187.1820  169.1240  134.8560 N   0  0  0  0  0  0  0  0  0  0  0  0
  188.5030  169.7230  135.0200 C   0  0  2  0  0  3  0  0  0  0  0  0
  186.1310  169.8470  134.6100 C   0  0  0  0  0  0  0  0  0  0  0  0
  186.2160  171.2770  134.5370 N   0  0  0  0  0  0  0  0  0  0  0  0
  187.1810  171.9650  135.0700 C   0  0  0  0  0  0  0  0  0  0  0  0
  189.4730  168.7000  135.5810 C   0  0  0  0  0  2  0  0  0  0  0  0
  190.7430  168.6740  134.7510 C   0  0  0  0  0  2  0  0  0  0  0  0
  191.1140  170.0860  134.3460 C   0  0  0  0  0  2  0  0  0  0  0  0
  192.4710  170.4360  134.9200 C   0  0  0  0  0  1  0  0  0  0  0  0
  186.5010  177.7530  135.2020 C   0  0  0  0  0  0  0  0  0  0  0  0
  186.6590  176.8940  134.3480 O   0  0  0  0  0  0  0  0  0  0  0  0
  187.0270  179.1280  134.9530 C   0  0  0  0  0  1  0  0  0  0  0  0
  185.1710  179.8610  138.8630 O   0  0  0  0  0  0  0  0  0  0  0  0
  184.4270  177.6730  139.1970 N   0  0  0  0  0  2  0  0  0  0  0  0
  185.3110  178.6330  138.6170 C   0  0  0  0  0  0  0  0  0  0  0  0
  183.3050  178.0520  140.0420 C   0  0  1  0  0  3  0  0  0  0  0  0
  182.1010  178.3180  139.1620 C   0  0  1  0  0  3  0  0  0  0  0  0
  182.2100  177.0150  139.9310 C   0  0  0  0  0  2  0  0  0  0  0  0
  180.7760  180.0550  138.8310 C   0  0  0  0  0  1  0  0  0  0  0  0
  181.2360  179.1870  139.8250 O   0  0  0  0  0  0  0  0  0  0  0  0
  185.1680  173.5980  137.9170 O   0  0  0  0  0  1  0  0  0  0  0  0
  186.5320  173.8840  137.8380 C   0  0  0  0  0  2  0  0  0  0  0  0
  1  9  1  0  0  0  0
  1 15  1  0  0  0  0
  2 19  1  6  0  0  0
  2 10  1  0  0  0  0
  2 21  1  0  0  0  0
  3 21  2  0  0  0  0
  3 17  1  0  0  0  0
  4 34  1  6  0  0  0
  4 20  1  0  0  0  0
  4  6  1  0  0  0  0
  5 12  1  0  0  0  0
  6 10  1  0  0  0  0
  6 39  1  1  0  0  0
  7  5  2  0  0  0  0
  7 13  1  0  0  0  0
  8 14  1  0  0  0  0
 10  8  1  1  0  0  0
 11 19  1  0  0  0  0
 11 16  1  0  0  0  0
 12 19  2  0  0  0  0
 13 11  2  0  0  0  0
 14  9  2  0  0  0  0
 16 46  1  0  0  0  0
 17  1  2  0  0  0  0
 20 18  2  0  0  0  0
 20 16  1  0  0  0  0
 21 14  1  0  0  0  0
 23 27  1  0  0  0  0
 24 29  1  0  0  0  0
 24 13  1  0  0  0  0
 25 26  1  0  0  0  0
 26 30  1  1  0  0  0
 26 22  1  0  0  0  0
 27 25  2  0  0  0  0
 28 27  1  0  0  0  0
 28 29  2  0  0  0  0
 29 22  1  0  0  0  0
 31 30  1  0  0  0  0
 32 31  1  0  0  0  0
 32 33  1  0  0  0  0
 35 34  2  0  0  0  0
 36 34  1  0  0  0  0
 39 37  2  0  0  0  0
 39 38  1  0  0  0  0
 40 38  1  6  0  0  0
 41 44  1  1  0  0  0
 41 42  1  0  0  0  0
 41 40  1  0  0  0  0
 42 40  1  0  0  0  0
 43 44  1  0  0  0  0
 46 45  1  0  0  0  0
M  END
>  <MODEL>
3

>  <REMARK>
 VINA RESULT:      -3.8      3.646      9.366
  Name = 
  9 active torsions:
  status: ('A' for Active; 'I' for Inactive)
    1  A    between atoms: N_6  and  C_30
    2  A    between atoms: C_8  and  C_10
    3  A    between atoms: C_12  and  C_37
    4  A    between atoms: C_16  and  N_23
    5  A    between atoms: C_18  and  O_44
    6  A    between atoms: C_19  and  N_36
    7  A    between atoms: C_20  and  C_27
    8  A    between atoms: C_27  and  C_42
    9  A    between atoms: C_34  and  C_42
                            x       y       z     vdW  Elec       q    Type
                         _______ _______ _______ _____ _____    ______ ____

>  <TORSDO>
F 9

$$$$
=
 OpenBabel10232408043D

 46 51  0  0  1  0  0  0  0  0999 V2000
  187.5320  171.4880  135.9410 C   0  0  0  0  0  0  0  0  0  0  0  0
  188.1420  175.6560  136.5500 C   0  0  2  0  0  3  0  0  0  0  0  0
  186.5500  173.7170  135.8930 C   0  0  0  0  0  3  0  0  0  0  0  0
  190.0140  178.0340  137.6480 C   0  0  2  0  0  3  0  0  0  0  0  0
  184.9130  177.5980  136.7620 C   0  0  0  0  0  3  0  0  0  0  0  0
  190.4280  176.7250  136.9450 C   0  0  2  0  0  3  0  0  0  0  0  0
  184.9860  178.2320  137.9970 C   0  0  0  0  0  3  0  0  0  0  0  0
  190.0460  174.1550  136.9870 C   0  0  0  0  0  2  0  0  0  0  0  0
  188.7510  172.0250  136.3800 C   0  0  0  0  0  3  0  0  0  0  0  0
  189.4870  175.5550  137.2860 C   0  0  2  0  0  3  0  0  0  0  0  0
  187.1360  177.1850  138.4270 C   0  0  0  0  0  0  0  0  0  0  0  0
  185.9440  176.7600  136.3510 C   0  0  0  0  0  3  0  0  0  0  0  0
  186.0810  178.0310  138.8400 C   0  0  0  0  0  0  0  0  0  0  0  0
  188.8390  173.4020  136.5840 C   0  0  0  0  0  0  0  0  0  0  0  0
  187.4100  170.0870  135.7310 N   0  0  0  0  0  1  0  0  0  0  0  0
  188.2830  177.0610  139.2840 N   0  0  0  0  0  0  0  0  0  0  0  0
  186.4350  172.3310  135.6940 C   0  0  0  0  0  3  0  0  0  0  0  0
  190.1600  178.2480  140.0150 O   0  0  0  0  0  0  0  0  0  0  0  0
  187.0600  176.5260  137.1650 C   0  0  0  0  0  0  0  0  0  0  0  0
  189.4830  177.8180  139.0430 C   0  0  0  0  0  0  0  0  0  0  0  0
  187.7630  174.2290  136.3620 C   0  0  0  0  0  0  0  0  0  0  0  0
  183.8240  177.6910  141.2890 S   0  0  0  0  0  0  0  0  0  0  0  0
  185.1900  180.3450  144.5620 C   0  0  0  0  0  1  0  0  0  0  0  0
  186.1920  178.7230  140.0960 N   0  0  0  0  0  2  0  0  0  0  0  0
  183.3880  179.5130  143.1990 N   0  0  0  0  0  0  0  0  0  0  0  0
  182.7980  179.0330  141.9540 C   0  0  2  0  0  3  0  0  0  0  0  0
  184.6560  179.7820  143.2950 C   0  0  0  0  0  0  0  0  0  0  0  0
  185.5430  179.5680  142.1880 N   0  0  0  0  0  0  0  0  0  0  0  0
  185.2750  178.7690  141.2000 C   0  0  0  0  0  0  0  0  0  0  0  0
  181.3890  178.5290  142.2060 C   0  0  0  0  0  2  0  0  0  0  0  0
  180.4200  179.1820  141.2360 C   0  0  0  0  0  2  0  0  0  0  0  0
  180.1650  178.2510  140.0700 C   0  0  0  0  0  2  0  0  0  0  0  0
  179.9830  176.8370  140.5820 C   0  0  0  0  0  1  0  0  0  0  0  0
  189.1730  178.9620  136.8060 C   0  0  0  0  0  0  0  0  0  0  0  0
  188.6670  179.9630  137.2920 O   0  0  0  0  0  0  0  0  0  0  0  0
  188.9010  178.6350  135.3750 C   0  0  0  0  0  1  0  0  0  0  0  0
  192.2790  176.4430  138.4430 O   0  0  0  0  0  0  0  0  0  0  0  0
  192.7640  176.1680  136.1750 N   0  0  0  0  0  2  0  0  0  0  0  0
  191.8640  176.4310  137.2520 C   0  0  0  0  0  0  0  0  0  0  0  0
  194.1670  175.8490  136.3870 C   0  0  1  0  0  3  0  0  0  0  0  0
  194.3290  174.3430  136.3940 C   0  0  1  0  0  3  0  0  0  0  0  0
  194.7210  175.1460  135.1680 C   0  0  0  0  0  2  0  0  0  0  0  0
  195.1660  174.3810  138.4390 C   0  0  0  0  0  1  0  0  0  0  0  0
  195.4690  174.0120  137.1250 O   0  0  0  0  0  0  0  0  0  0  0  0
  188.4300  177.1700  141.6110 O   0  0  0  0  0  1  0  0  0  0  0  0
  188.1420  176.3270  140.5370 C   0  0  0  0  0  2  0  0  0  0  0  0
  1  9  1  0  0  0  0
  2 21  1  1  0  0  0
  2 19  1  0  0  0  0
  2 10  1  0  0  0  0
  3 21  2  0  0  0  0
  4 34  1  6  0  0  0
  4 20  1  0  0  0  0
  5  7  1  0  0  0  0
  6 39  1  1  0  0  0
  6 10  1  0  0  0  0
  6  4  1  0  0  0  0
  7 13  2  0  0  0  0
  9 14  2  0  0  0  0
 10  8  1  6  0  0  0
 11 13  1  0  0  0  0
 11 16  1  0  0  0  0
 12  5  2  0  0  0  0
 12 19  1  0  0  0  0
 13 24  1  0  0  0  0
 14  8  1  0  0  0  0
 15  1  1  0  0  0  0
 16 46  1  0  0  0  0
 17  3  1  0  0  0  0
 17  1  2  0  0  0  0
 19 11  2  0  0  0  0
 20 16  1  0  0  0  0
 20 18  2  0  0  0  0
 21 14  1  0  0  0  0
 22 26  1  0  0  0  0
 24 29  1  0  0  0  0
 25 27  2  0  0  0  0
 26 30  1  1  0  0  0
 26 25  1  0  0  0  0
 27 23  1  0  0  0  0
 28 27  1  0  0  0  0
 29 22  1  0  0  0  0
 29 28  2  0  0  0  0
 31 30  1  0  0  0  0
 32 33  1  0  0  0  0
 32 31  1  0  0  0  0
 34 35  2  0  0  0  0
 36 34  1  0  0  0  0
 38 39  1  0  0  0  0
 39 37  2  0  0  0  0
 40 38  1  6  0  0  0
 40 41  1  0  0  0  0
 41 44  1  1  0  0  0
 42 40  1  0  0  0  0
 42 41  1  0  0  0  0
 44 43  1  0  0  0  0
 46 45  1  0  0  0  0
M  END
>  <MODEL>
4

>  <REMARK>
 VINA RESULT:      -3.3      2.718      3.958
  Name = 
  9 active torsions:
  status: ('A' for Active; 'I' for Inactive)
    1  A    between atoms: N_6  and  C_30
    2  A    between atoms: C_8  and  C_10
    3  A    between atoms: C_12  and  C_37
    4  A    between atoms: C_16  and  N_23
    5  A    between atoms: C_18  and  O_44
    6  A    between atoms: C_19  and  N_36
    7  A    between atoms: C_20  and  C_27
    8  A    between atoms: C_27  and  C_42
    9  A    between atoms: C_34  and  C_42
                            x       y       z     vdW  Elec       q    Type
                         _______ _______ _______ _____ _____    ______ ____

>  <TORSDO>
F 9

$$$$
=
 OpenBabel10232408043D

 46 51  0  0  1  0  0  0  0  0999 V2000
  188.7900  177.8380  143.3610 C   0  0  0  0  0  0  0  0  0  0  0  0
  189.4030  177.5800  139.1570 C   0  0  2  0  0  3  0  0  0  0  0  0
  190.4060  177.8090  141.5380 C   0  0  0  0  0  3  0  0  0  0  0  0
  188.2000  176.9980  136.2280 C   0  0  2  0  0  3  0  0  0  0  0  0
  192.9890  176.8400  138.2390 C   0  0  0  0  0  3  0  0  0  0  0  0
  187.5280  177.6980  137.4270 C   0  0  2  0  0  3  0  0  0  0  0  0
  192.9050  175.6780  137.4800 C   0  0  0  0  0  3  0  0  0  0  0  0
  187.0840  177.4480  139.9750 C   0  0  0  0  0  2  0  0  0  0  0  0
  187.7410  177.6770  142.4450 C   0  0  0  0  0  3  0  0  0  0  0  0
  187.9880  177.1190  138.7770 C   0  0  2  0  0  3  0  0  0  0  0  0
  190.4960  175.6250  137.7950 C   0  0  0  0  0  0  0  0  0  0  0  0
  191.8350  177.4000  138.7760 C   0  0  0  0  0  3  0  0  0  0  0  0
  191.6740  175.0570  137.2560 C   0  0  0  0  0  0  0  0  0  0  0  0
  188.0490  177.5660  141.0890 C   0  0  0  0  0  0  0  0  0  0  0  0
  188.5060  177.9470  144.7500 N   0  0  0  0  0  1  0  0  0  0  0  0
  189.2380  175.0040  137.4820 N   0  0  0  0  0  0  0  0  0  0  0  0
  190.1190  177.9090  142.9090 C   0  0  0  0  0  3  0  0  0  0  0  0
  187.7240  174.7190  135.7230 O   0  0  0  0  0  0  0  0  0  0  0  0
  190.5800  176.8110  138.5820 C   0  0  0  0  0  0  0  0  0  0  0  0
  188.3910  175.5160  136.4360 C   0  0  0  0  0  0  0  0  0  0  0  0
  189.3490  177.6150  140.6440 C   0  0  0  0  0  0  0  0  0  0  0  0
  193.8520  172.5210  137.4420 S   0  0  0  0  0  0  0  0  0  0  0  0
  192.5480  169.5890  134.3870 C   0  0  0  0  0  1  0  0  0  0  0  0
  191.5690  173.8860  136.4280 N   0  0  0  0  0  2  0  0  0  0  0  0
  194.3360  170.8030  135.4480 N   0  0  0  0  0  0  0  0  0  0  0  0
  194.9290  171.9730  136.0880 C   0  0  2  0  0  3  0  0  0  0  0  0
  193.0820  170.7730  135.1090 C   0  0  0  0  0  0  0  0  0  0  0  0
  192.2110  171.8770  135.3960 N   0  0  0  0  0  0  0  0  0  0  0  0
  192.4610  172.7670  136.3100 C   0  0  0  0  0  0  0  0  0  0  0  0
  196.3040  171.6280  136.6310 C   0  0  0  0  0  2  0  0  0  0  0  0
  196.1890  170.5630  137.7070 C   0  0  0  0  0  2  0  0  0  0  0  0
  196.3580  169.1930  137.0840 C   0  0  0  0  0  2  0  0  0  0  0  0
  197.8240  168.8130  137.0910 C   0  0  0  0  0  1  0  0  0  0  0  0
  189.4180  177.7050  135.6870 C   0  0  0  0  0  0  0  0  0  0  0  0
  189.7630  178.7890  136.1350 O   0  0  0  0  0  0  0  0  0  0  0  0
  190.1880  177.1110  134.5550 C   0  0  0  0  0  1  0  0  0  0  0  0
  185.5290  177.0960  136.2480 O   0  0  0  0  0  0  0  0  0  0  0  0
  185.2130  178.3130  138.2160 N   0  0  0  0  0  2  0  0  0  0  0  0
  186.0410  177.6650  137.2510 C   0  0  0  0  0  0  0  0  0  0  0  0
  183.7610  178.3070  138.1340 C   0  0  1  0  0  3  0  0  0  0  0  0
  183.2040  177.6810  139.3960 C   0  0  1  0  0  3  0  0  0  0  0  0
  183.1840  179.1880  139.2190 C   0  0  0  0  0  2  0  0  0  0  0  0
  182.1870  175.8600  138.6660 C   0  0  0  0  0  1  0  0  0  0  0  0
  181.9410  177.1570  139.1240 O   0  0  0  0  0  0  0  0  0  0  0  0
  188.4720  172.8330  137.0990 O   0  0  0  0  0  1  0  0  0  0  0  0
  188.9290  173.7120  138.0820 C   0  0  0  0  0  2  0  0  0  0  0  0
  1 15  1  0  0  0  0
  2 19  1  1  0  0  0
  2 21  1  0  0  0  0
  3 17  2  0  0  0  0
  4 34  1  1  0  0  0
  4 20  1  0  0  0  0
  4  6  1  0  0  0  0
  5 12  1  0  0  0  0
  6 39  1  6  0  0  0
  6 10  1  0  0  0  0
  7  5  2  0  0  0  0
  8 14  1  0  0  0  0
  9  1  2  0  0  0  0
 10  2  1  0  0  0  0
 10  8  1  1  0  0  0
 11 19  1  0  0  0  0
 13  7  1  0  0  0  0
 13 11  2  0  0  0  0
 14  9  1  0  0  0  0
 16 11  1  0  0  0  0
 16 46  1  0  0  0  0
 17  1  1  0  0  0  0
 18 20  2  0  0  0  0
 19 12  2  0  0  0  0
 20 16  1  0  0  0  0
 21 14  2  0  0  0  0
 21  3  1  0  0  0  0
 23 27  1  0  0  0  0
 24 13  1  0  0  0  0
 25 26  1  0  0  0  0
 26 30  1  1  0  0  0
 26 22  1  0  0  0  0
 27 28  1  0  0  0  0
 27 25  2  0  0  0  0
 28 29  2  0  0  0  0
 29 24  1  0  0  0  0
 29 22  1  0  0  0  0
 30 31  1  0  0  0  0
 32 33  1  0  0  0  0
 32 31  1  0  0  0  0
 34 35  2  0  0  0  0
 36 34  1  0  0  0  0
 37 39  2  0  0  0  0
 39 38  1  0  0  0  0
 40 38  1  1  0  0  0
 40 42  1  0  0  0  0
 40 41  1  0  0  0  0
 41 44  1  6  0  0  0
 42 41  1  0  0  0  0
 43 44  1  0  0  0  0
 45 46  1  0  0  0  0
M  END
>  <MODEL>
5

>  <REMARK>
 VINA RESULT:      -2.4      3.296      8.993
  Name = 
  9 active torsions:
  status: ('A' for Active; 'I' for Inactive)
    1  A    between atoms: N_6  and  C_30
    2  A    between atoms: C_8  and  C_10
    3  A    between atoms: C_12  and  C_37
    4  A    between atoms: C_16  and  N_23
    5  A    between atoms: C_18  and  O_44
    6  A    between atoms: C_19  and  N_36
    7  A    between atoms: C_20  and  C_27
    8  A    between atoms: C_27  and  C_42
    9  A    between atoms: C_34  and  C_42
                            x       y       z     vdW  Elec       q    Type
                         _______ _______ _______ _____ _____    ______ ____

>  <TORSDO>
F 9

$$$$
