=
 OpenBabel10232408223D

 30 35  0  0  1  0  0  0  0  0999 V2000
  184.9500  178.4120  142.0870 C   0  0  0  0  0  0  0  0  0  0  0  0
  180.9620  179.4310  137.9030 C   0  0  1  0  0  3  0  0  0  0  0  0
  182.2240  179.0710  138.7200 C   0  0  2  0  0  3  0  0  0  0  0  0
  180.6200  176.9060  137.4760 C   0  0  0  0  0  2  0  0  0  0  0  0
  186.5000  179.1670  140.4650 C   0  0  0  0  0  2  0  0  0  0  0  0
  181.2950  179.9040  136.4910 C   0  0  0  0  0  1  0  0  0  0  0  0
  183.2210  180.2020  138.8530 C   0  0  0  0  0  0  0  0  0  0  0  0
  179.9820  178.2550  137.8510 C   0  0  0  0  0  2  0  0  0  0  0  0
  182.1330  176.9890  137.2470 C   0  0  0  0  0  2  0  0  0  0  0  0
  182.8420  177.6940  138.4070 C   0  0  2  0  0  3  0  0  0  0  0  0
  182.8630  181.3740  138.5570 O   0  0  0  0  0  0  0  0  0  0  0  0
  185.1890  178.7860  139.7930 C   0  0  1  0  0  3  0  0  0  0  0  0
  184.4530  178.1020  140.8940 C   0  0  0  0  0  0  0  0  0  0  0  0
  183.4380  177.0420  140.6960 C   0  0  0  0  0  3  0  0  0  0  0  0
  182.7630  176.8570  139.6000 N   0  0  0  0  0  0  0  0  0  0  0  0
  184.5230  180.0300  139.4220 N   0  0  0  0  0  2  0  0  0  0  0  0
  186.1820  179.2420  141.9550 C   0  0  0  0  0  2  0  0  0  0  0  0
  188.4560  176.9460  146.0630 N   0  0  0  0  0  0  0  0  0  0  0  0
  189.1920  177.1650  147.1880 C   0  0  0  0  0  3  0  0  0  0  0  0
  188.7300  178.0450  148.1740 C   0  0  0  0  0  3  0  0  0  0  0  0
  185.5990  179.1450  146.6250 N   0  0  0  0  0  0  0  0  0  0  0  0
  184.8910  178.9190  145.4890 C   0  0  0  0  0  0  0  0  0  0  0  0
  185.3170  178.0320  144.5350 C   0  0  0  0  0  0  0  0  0  0  0  0
  186.5130  177.3280  144.7050 C   0  0  0  0  0  3  0  0  0  0  0  0
  186.7820  178.4950  146.8270 C   0  0  0  0  0  0  0  0  0  0  0  0
  187.5190  178.7120  147.9890 C   0  0  0  0  0  3  0  0  0  0  0  0
  183.2120  178.8770  143.8250 C   0  0  0  0  0  3  0  0  0  0  0  0
  184.3600  177.9370  143.3990 C   0  0  1  0  0  3  0  0  0  0  0  0
  187.2650  177.5750  145.8620 C   0  0  0  0  0  0  0  0  0  0  0  0
  183.5860  179.5240  145.1660 C   0  0  0  0  0  3  0  0  0  0  0  0
  2  6  1  6  0  0  0
  2  3  1  0  0  0  0
  3  7  1  6  0  0  0
  4  8  1  0  0  0  0
  5 17  1  0  0  0  0
  7 16  1  0  0  0  0
  8  2  1  0  0  0  0
  9  4  1  0  0  0  0
 10  9  1  6  0  0  0
 10  3  1  0  0  0  0
 10 15  1  0  0  0  0
 11  7  2  0  0  0  0
 12  5  1  1  0  0  0
 12 13  1  0  0  0  0
 13  1  2  0  0  0  0
 14 13  1  0  0  0  0
 15 14  2  0  0  0  0
 16 12  1  0  0  0  0
 17  1  1  0  0  0  0
 18 19  1  0  0  0  0
 19 20  2  0  0  0  0
 21 25  1  0  0  0  0
 22 21  2  0  0  0  0
 23 24  2  0  0  0  0
 23 22  1  0  0  0  0
 24 29  1  0  0  0  0
 25 26  2  0  0  0  0
 26 20  1  0  0  0  0
 27 30  2  0  0  0  0
 28  1  1  6  0  0  0
 28 27  1  0  0  0  0
 28 23  1  0  0  0  0
 29 18  2  0  0  0  0
 29 25  1  0  0  0  0
 30 22  1  0  0  0  0
M  END
>  <MODEL>
1

>  <REMARK>
 VINA RESULT:      -8.1      0.000      0.000
  Name = 
  1 active torsions:
  status: ('A' for Active; 'I' for Inactive)
    1  A    between atoms: C_1  and  C_19
                            x       y       z     vdW  Elec       q    Type
                         _______ _______ _______ _____ _____    ______ ____

>  <TORSDO>
F 1

$$$$
=
 OpenBabel10232408223D

 30 35  0  0  1  0  0  0  0  0999 V2000
  185.8540  178.2700  144.5360 C   0  0  0  0  0  0  0  0  0  0  0  0
  181.7570  177.7280  140.3680 C   0  0  1  0  0  3  0  0  0  0  0  0
  182.8250  178.2240  141.3690 C   0  0  2  0  0  3  0  0  0  0  0  0
  183.4910  178.0640  138.4820 C   0  0  0  0  0  2  0  0  0  0  0  0
  184.8520  180.3810  144.9160 C   0  0  0  0  0  2  0  0  0  0  0  0
  180.7470  178.8130  140.0050 C   0  0  0  0  0  1  0  0  0  0  0  0
  182.2580  178.7570  142.6680 C   0  0  0  0  0  0  0  0  0  0  0  0
  182.4070  177.1640  139.1000 C   0  0  0  0  0  2  0  0  0  0  0  0
  183.7370  179.3540  139.2700 C   0  0  0  0  0  2  0  0  0  0  0  0
  183.9580  179.0730  140.7600 C   0  0  2  0  0  3  0  0  0  0  0  0
  181.0540  178.5170  142.9560 O   0  0  0  0  0  0  0  0  0  0  0  0
  184.4470  179.8520  143.5480 C   0  0  1  0  0  3  0  0  0  0  0  0
  185.3550  178.6830  143.3760 C   0  0  0  0  0  0  0  0  0  0  0  0
  185.8260  178.1700  142.0690 C   0  0  0  0  0  3  0  0  0  0  0  0
  185.2250  178.3680  140.9340 N   0  0  0  0  0  0  0  0  0  0  0  0
  183.0580  179.4150  143.6560 N   0  0  0  0  0  2  0  0  0  0  0  0
  185.4620  179.1870  145.6450 C   0  0  0  0  0  2  0  0  0  0  0  0
  189.6560  177.3910  140.6610 N   0  0  0  0  0  0  0  0  0  0  0  0
  190.9110  177.4690  140.1380 C   0  0  0  0  0  3  0  0  0  0  0  0
  192.0300  177.4490  140.9800 C   0  0  0  0  0  3  0  0  0  0  0  0
  190.3690  177.2340  144.2360 N   0  0  0  0  0  0  0  0  0  0  0  0
  189.1070  177.1710  144.7340 C   0  0  0  0  0  0  0  0  0  0  0  0
  188.0080  177.1540  143.9160 C   0  0  0  0  0  0  0  0  0  0  0  0
  188.1560  177.2060  142.5270 C   0  0  0  0  0  3  0  0  0  0  0  0
  190.5630  177.3060  142.8870 C   0  0  0  0  0  0  0  0  0  0  0  0
  191.8510  177.3680  142.3600 C   0  0  0  0  0  3  0  0  0  0  0  0
  187.2300  176.9460  146.1520 C   0  0  0  0  0  3  0  0  0  0  0  0
  186.7420  177.0520  144.6910 C   0  0  1  0  0  3  0  0  0  0  0  0
  189.4530  177.3000  142.0040 C   0  0  0  0  0  0  0  0  0  0  0  0
  188.7620  177.0520  146.1610 C   0  0  0  0  0  3  0  0  0  0  0  0
  1 17  1  0  0  0  0
  2  6  1  6  0  0  0
  2  3  1  0  0  0  0
  3  7  1  1  0  0  0
  4  8  1  0  0  0  0
  4  9  1  0  0  0  0
  5 17  1  0  0  0  0
  7 11  2  0  0  0  0
  7 16  1  0  0  0  0
  8  2  1  0  0  0  0
 10  9  1  6  0  0  0
 10 15  1  0  0  0  0
 10  3  1  0  0  0  0
 12 16  1  0  0  0  0
 12  5  1  1  0  0  0
 13 12  1  0  0  0  0
 13  1  2  0  0  0  0
 14 13  1  0  0  0  0
 15 14  2  0  0  0  0
 18 29  1  0  0  0  0
 19 18  2  0  0  0  0
 19 20  1  0  0  0  0
 20 26  2  0  0  0  0
 21 22  1  0  0  0  0
 22 30  1  0  0  0  0
 23 28  1  0  0  0  0
 23 22  2  0  0  0  0
 24 23  1  0  0  0  0
 25 21  2  0  0  0  0
 26 25  1  0  0  0  0
 27 30  2  0  0  0  0
 28  1  1  1  0  0  0
 28 27  1  0  0  0  0
 29 24  2  0  0  0  0
 29 25  1  0  0  0  0
M  END
>  <MODEL>
2

>  <REMARK>
 VINA RESULT:      -7.6      2.894      4.524
  Name = 
  1 active torsions:
  status: ('A' for Active; 'I' for Inactive)
    1  A    between atoms: C_1  and  C_19
                            x       y       z     vdW  Elec       q    Type
                         _______ _______ _______ _____ _____    ______ ____

>  <TORSDO>
F 1

$$$$
=
 OpenBabel10232408223D

 30 35  0  0  1  0  0  0  0  0999 V2000
  187.6180  177.9980  139.0870 C   0  0  0  0  0  0  0  0  0  0  0  0
  190.2480  173.4160  136.5290 C   0  0  1  0  0  3  0  0  0  0  0  0
  189.4690  174.7100  136.8570 C   0  0  2  0  0  3  0  0  0  0  0  0
  192.1570  174.8970  135.6140 C   0  0  0  0  0  2  0  0  0  0  0  0
  186.0410  177.7700  137.3360 C   0  0  0  0  0  2  0  0  0  0  0  0
  189.7710  172.7590  135.2380 C   0  0  0  0  0  1  0  0  0  0  0  0
  187.9720  174.5200  136.9810 C   0  0  0  0  0  0  0  0  0  0  0  0
  191.7560  173.6790  136.4640 C   0  0  0  0  0  2  0  0  0  0  0  0
  190.9620  175.6390  135.0080 C   0  0  0  0  0  2  0  0  0  0  0  0
  189.9010  175.9600  136.0640 C   0  0  2  0  0  3  0  0  0  0  0  0
  187.5090  173.3520  137.0870 O   0  0  0  0  0  0  0  0  0  0  0  0
  187.3270  177.0390  136.9770 C   0  0  1  0  0  3  0  0  0  0  0  0
  188.2650  177.5020  138.0380 C   0  0  0  0  0  0  0  0  0  0  0  0
  189.7330  177.6080  137.8740 C   0  0  0  0  0  3  0  0  0  0  0  0
  190.4310  176.9520  136.9940 N   0  0  0  0  0  0  0  0  0  0  0  0
  187.0560  175.6110  137.1140 N   0  0  0  0  0  2  0  0  0  0  0  0
  186.1510  178.0670  138.8280 C   0  0  0  0  0  2  0  0  0  0  0  0
  184.4000  179.6770  143.2190 N   0  0  0  0  0  0  0  0  0  0  0  0
  183.7190  179.5090  144.3870 C   0  0  0  0  0  3  0  0  0  0  0  0
  184.2000  178.6270  145.3640 C   0  0  0  0  0  3  0  0  0  0  0  0
  187.1930  177.3730  143.6670 N   0  0  0  0  0  0  0  0  0  0  0  0
  187.8460  177.5490  142.4900 C   0  0  0  0  0  0  0  0  0  0  0  0
  187.4030  178.4350  141.5430 C   0  0  0  0  0  0  0  0  0  0  0  0
  186.2480  179.1910  141.7640 C   0  0  0  0  0  3  0  0  0  0  0  0
  186.0500  178.0750  143.9210 C   0  0  0  0  0  0  0  0  0  0  0  0
  185.3710  177.9080  145.1250 C   0  0  0  0  0  3  0  0  0  0  0  0
  189.4300  177.4920  140.7370 C   0  0  0  0  0  3  0  0  0  0  0  0
  188.2980  178.4710  140.3550 C   0  0  1  0  0  3  0  0  0  0  0  0
  185.5510  178.9960  142.9660 C   0  0  0  0  0  0  0  0  0  0  0  0
  189.1050  176.8850  142.1090 C   0  0  0  0  0  3  0  0  0  0  0  0
  2  6  1  6  0  0  0
  2  3  1  0  0  0  0
  3  7  1  6  0  0  0
  4  8  1  0  0  0  0
  5 17  1  0  0  0  0
  7 11  2  0  0  0  0
  7 16  1  0  0  0  0
  8  2  1  0  0  0  0
  9  4  1  0  0  0  0
 10  9  1  6  0  0  0
 10  3  1  0  0  0  0
 10 15  1  0  0  0  0
 12 16  1  0  0  0  0
 12  5  1  1  0  0  0
 12 13  1  0  0  0  0
 13  1  2  0  0  0  0
 14 13  1  0  0  0  0
 15 14  2  0  0  0  0
 17  1  1  0  0  0  0
 18 19  1  0  0  0  0
 19 20  2  0  0  0  0
 21 25  1  0  0  0  0
 22 21  2  0  0  0  0
 23 24  2  0  0  0  0
 23 22  1  0  0  0  0
 24 29  1  0  0  0  0
 25 26  2  0  0  0  0
 26 20  1  0  0  0  0
 27 30  2  0  0  0  0
 28  1  1  6  0  0  0
 28 27  1  0  0  0  0
 28 23  1  0  0  0  0
 29 18  2  0  0  0  0
 29 25  1  0  0  0  0
 30 22  1  0  0  0  0
M  END
>  <MODEL>
3

>  <REMARK>
 VINA RESULT:      -7.4      5.017      6.976
  Name = 
  1 active torsions:
  status: ('A' for Active; 'I' for Inactive)
    1  A    between atoms: C_1  and  C_19
                            x       y       z     vdW  Elec       q    Type
                         _______ _______ _______ _____ _____    ______ ____

>  <TORSDO>
F 1

$$$$
=
 OpenBabel10232408223D

 30 35  0  0  1  0  0  0  0  0999 V2000
  189.7250  177.3880  139.3370 C   0  0  0  0  0  0  0  0  0  0  0  0
  193.3420  173.3480  137.0920 C   0  0  1  0  0  3  0  0  0  0  0  0
  192.3920  174.5410  137.3400 C   0  0  2  0  0  3  0  0  0  0  0  0
  195.2880  175.0390  136.9270 C   0  0  0  0  0  2  0  0  0  0  0  0
  188.7050  177.3210  137.2020 C   0  0  0  0  0  2  0  0  0  0  0  0
  193.2910  172.8500  135.6500 C   0  0  0  0  0  1  0  0  0  0  0  0
  190.9400  174.2570  137.0190 C   0  0  0  0  0  0  0  0  0  0  0  0
  194.7820  173.6960  137.4810 C   0  0  0  0  0  2  0  0  0  0  0  0
  194.2400  175.7940  136.1030 C   0  0  0  0  0  2  0  0  0  0  0  0
  192.9090  175.9090  136.8520 C   0  0  2  0  0  3  0  0  0  0  0  0
  190.5710  173.0630  136.8530 O   0  0  0  0  0  0  0  0  0  0  0  0
  190.0990  176.7150  137.1320 C   0  0  1  0  0  3  0  0  0  0  0  0
  190.6720  177.0770  138.4590 C   0  0  0  0  0  0  0  0  0  0  0  0
  192.1150  177.2810  138.7250 C   0  0  0  0  0  3  0  0  0  0  0  0
  193.0790  176.7910  138.0030 N   0  0  0  0  0  0  0  0  0  0  0  0
  189.9290  175.2700  137.0190 N   0  0  0  0  0  2  0  0  0  0  0  0
  188.3810  177.4150  138.6900 C   0  0  0  0  0  2  0  0  0  0  0  0
  185.6070  179.5900  142.2440 N   0  0  0  0  0  0  0  0  0  0  0  0
  184.5470  179.5380  143.0970 C   0  0  0  0  0  3  0  0  0  0  0  0
  184.5040  178.5750  144.1130 C   0  0  0  0  0  3  0  0  0  0  0  0
  187.6410  176.8090  143.4450 N   0  0  0  0  0  0  0  0  0  0  0  0
  188.6810  176.8730  142.5740 C   0  0  0  0  0  0  0  0  0  0  0  0
  188.7500  177.8350  141.6000 C   0  0  0  0  0  0  0  0  0  0  0  0
  187.7350  178.7870  141.4710 C   0  0  0  0  0  3  0  0  0  0  0  0
  186.6180  177.7060  143.3470 C   0  0  0  0  0  0  0  0  0  0  0  0
  185.5460  177.6560  144.2340 C   0  0  0  0  0  3  0  0  0  0  0  0
  190.7410  176.5440  141.4620 C   0  0  0  0  0  3  0  0  0  0  0  0
  189.9930  177.7170  140.7910 C   0  0  1  0  0  3  0  0  0  0  0  0
  186.6430  178.7120  142.3480 C   0  0  0  0  0  0  0  0  0  0  0  0
  189.8640  175.9940  142.5960 C   0  0  0  0  0  3  0  0  0  0  0  0
  2  6  1  6  0  0  0
  2  3  1  0  0  0  0
  2  8  1  0  0  0  0
  3  7  1  6  0  0  0
  4  8  1  0  0  0  0
  5 17  1  0  0  0  0
  9  4  1  0  0  0  0
 10  9  1  1  0  0  0
 10  3  1  0  0  0  0
 10 15  1  0  0  0  0
 11  7  2  0  0  0  0
 12  5  1  1  0  0  0
 12 13  1  0  0  0  0
 13 14  1  0  0  0  0
 13  1  2  0  0  0  0
 15 14  2  0  0  0  0
 16  7  1  0  0  0  0
 16 12  1  0  0  0  0
 17  1  1  0  0  0  0
 18 29  2  0  0  0  0
 18 19  1  0  0  0  0
 19 20  2  0  0  0  0
 20 26  1  0  0  0  0
 22 30  1  0  0  0  0
 22 21  2  0  0  0  0
 23 22  1  0  0  0  0
 24 23  2  0  0  0  0
 24 29  1  0  0  0  0
 25 21  1  0  0  0  0
 25 26  2  0  0  0  0
 27 30  2  0  0  0  0
 28  1  1  6  0  0  0
 28 27  1  0  0  0  0
 28 23  1  0  0  0  0
 29 25  1  0  0  0  0
M  END
>  <MODEL>
4

>  <REMARK>
 VINA RESULT:      -7.3      6.339      8.665
  Name = 
  1 active torsions:
  status: ('A' for Active; 'I' for Inactive)
    1  A    between atoms: C_1  and  C_19
                            x       y       z     vdW  Elec       q    Type
                         _______ _______ _______ _____ _____    ______ ____

>  <TORSDO>
F 1

$$$$
=
 OpenBabel10232408223D

 30 35  0  0  1  0  0  0  0  0999 V2000
  191.7770  176.0060  138.1080 C   0  0  0  0  0  0  0  0  0  0  0  0
  197.0950  173.6410  137.3490 C   0  0  1  0  0  3  0  0  0  0  0  0
  195.6310  174.1170  137.2200 C   0  0  2  0  0  3  0  0  0  0  0  0
  197.7390  175.4120  135.5820 C   0  0  0  0  0  2  0  0  0  0  0  0
  191.0210  174.1060  136.9160 C   0  0  0  0  0  2  0  0  0  0  0  0
  197.3660  172.3610  136.5640 C   0  0  0  0  0  1  0  0  0  0  0  0
  194.6040  173.0970  137.6640 C   0  0  0  0  0  0  0  0  0  0  0  0
  198.0740  174.7410  136.9250 C   0  0  0  0  0  2  0  0  0  0  0  0
  196.4650  174.8670  134.9270 C   0  0  0  0  0  2  0  0  0  0  0  0
  195.2890  174.8520  135.9080 C   0  0  2  0  0  3  0  0  0  0  0  0
  194.9820  172.0990  138.3350 O   0  0  0  0  0  0  0  0  0  0  0  0
  192.5140  174.3000  136.6920 C   0  0  1  0  0  3  0  0  0  0  0  0
  192.7520  175.6490  137.2780 C   0  0  0  0  0  0  0  0  0  0  0  0
  193.8170  176.5800  136.8390 C   0  0  0  0  0  3  0  0  0  0  0  0
  194.9040  176.2250  136.2200 N   0  0  0  0  0  0  0  0  0  0  0  0
  193.1970  173.2710  137.4700 N   0  0  0  0  0  2  0  0  0  0  0  0
  190.6700  175.0070  138.0960 C   0  0  0  0  0  2  0  0  0  0  0  0
  186.9270  178.4140  139.0730 N   0  0  0  0  0  0  0  0  0  0  0  0
  185.8190  178.6780  139.8190 C   0  0  0  0  0  3  0  0  0  0  0  0
  185.8950  178.6910  141.2170 C   0  0  0  0  0  3  0  0  0  0  0  0
  189.4290  177.8430  141.6660 N   0  0  0  0  0  0  0  0  0  0  0  0
  190.5170  177.5700  140.9000 C   0  0  0  0  0  0  0  0  0  0  0  0
  190.4600  177.5900  139.5310 C   0  0  0  0  0  0  0  0  0  0  0  0
  189.2630  177.8930  138.8750 C   0  0  0  0  0  3  0  0  0  0  0  0
  188.2350  178.1270  141.0710 C   0  0  0  0  0  0  0  0  0  0  0  0
  187.1100  178.4130  141.8430 C   0  0  0  0  0  3  0  0  0  0  0  0
  192.7110  177.1280  140.1400 C   0  0  0  0  0  3  0  0  0  0  0  0
  191.7810  177.2870  138.9170 C   0  0  1  0  0  3  0  0  0  0  0  0
  188.1280  178.1500  139.6570 C   0  0  0  0  0  0  0  0  0  0  0  0
  191.8690  177.2880  141.4140 C   0  0  0  0  0  3  0  0  0  0  0  0
  2  6  1  6  0  0  0
  3  2  1  0  0  0  0
  3  7  1  6  0  0  0
  4  8  1  0  0  0  0
  5 17  1  0  0  0  0
  7 11  2  0  0  0  0
  8  2  1  0  0  0  0
  9  4  1  0  0  0  0
 10  9  1  6  0  0  0
 10 15  1  0  0  0  0
 10  3  1  0  0  0  0
 12  5  1  1  0  0  0
 12 13  1  0  0  0  0
 12 16  1  0  0  0  0
 13  1  2  0  0  0  0
 14 13  1  0  0  0  0
 15 14  2  0  0  0  0
 16  7  1  0  0  0  0
 17  1  1  0  0  0  0
 18 29  2  0  0  0  0
 18 19  1  0  0  0  0
 19 20  2  0  0  0  0
 20 26  1  0  0  0  0
 22 30  1  0  0  0  0
 22 21  2  0  0  0  0
 23 22  1  0  0  0  0
 24 23  2  0  0  0  0
 24 29  1  0  0  0  0
 25 21  1  0  0  0  0
 25 26  2  0  0  0  0
 27 30  2  0  0  0  0
 28  1  1  1  0  0  0
 28 23  1  0  0  0  0
 28 27  1  0  0  0  0
 29 25  1  0  0  0  0
M  END
>  <MODEL>
5

>  <REMARK>
 VINA RESULT:      -7.0      8.534     11.199
  Name = 
  1 active torsions:
  status: ('A' for Active; 'I' for Inactive)
    1  A    between atoms: C_1  and  C_19
                            x       y       z     vdW  Elec       q    Type
                         _______ _______ _______ _____ _____    ______ ____

>  <TORSDO>
F 1

$$$$
=
 OpenBabel10232408223D

 30 35  0  0  1  0  0  0  0  0999 V2000
  186.5160  177.0220  137.3460 C   0  0  0  0  0  0  0  0  0  0  0  0
  181.2500  179.2440  136.0100 C   0  0  1  0  0  3  0  0  0  0  0  0
  182.4370  178.4080  136.5400 C   0  0  2  0  0  3  0  0  0  0  0  0
  180.9010  180.1210  138.4140 C   0  0  0  0  0  2  0  0  0  0  0  0
  185.4060  174.9350  137.2210 C   0  0  0  0  0  2  0  0  0  0  0  0
  179.9820  178.4130  135.8360 C   0  0  0  0  0  1  0  0  0  0  0  0
  182.7990  177.2210  135.6740 C   0  0  0  0  0  0  0  0  0  0  0  0
  180.9740  180.4500  136.9130 C   0  0  0  0  0  2  0  0  0  0  0  0
  181.1440  178.6420  138.7290 C   0  0  0  0  0  2  0  0  0  0  0  0
  182.4190  178.1240  138.0560 C   0  0  2  0  0  3  0  0  0  0  0  0
  182.3320  177.1510  134.5040 O   0  0  0  0  0  0  0  0  0  0  0  0
  184.3880  176.0570  137.3700 C   0  0  1  0  0  3  0  0  0  0  0  0
  185.2500  177.2290  137.6950 C   0  0  0  0  0  0  0  0  0  0  0  0
  184.8170  178.3940  138.4990 C   0  0  0  0  0  3  0  0  0  0  0  0
  183.5810  178.7580  138.6710 N   0  0  0  0  0  0  0  0  0  0  0  0
  183.7510  176.2280  136.0680 N   0  0  0  0  0  2  0  0  0  0  0  0
  186.7170  175.6260  136.8620 C   0  0  0  0  0  2  0  0  0  0  0  0
  188.6160  177.8940  142.3540 N   0  0  0  0  0  0  0  0  0  0  0  0
  189.5310  177.7110  143.3470 C   0  0  0  0  0  3  0  0  0  0  0  0
  190.8700  177.4450  143.0330 C   0  0  0  0  0  3  0  0  0  0  0  0
  190.6710  177.4230  139.3770 N   0  0  0  0  0  0  0  0  0  0  0  0
  189.7380  177.5960  138.4060 C   0  0  0  0  0  0  0  0  0  0  0  0
  188.4330  177.8920  138.7020 C   0  0  0  0  0  0  0  0  0  0  0  0
  188.0190  178.0210  140.0320 C   0  0  0  0  0  3  0  0  0  0  0  0
  190.3110  177.5210  140.6890 C   0  0  0  0  0  0  0  0  0  0  0  0
  191.2580  177.3500  141.6970 C   0  0  0  0  0  3  0  0  0  0  0  0
  188.6360  177.8820  136.3340 C   0  0  0  0  0  3  0  0  0  0  0  0
  187.6100  178.0620  137.4740 C   0  0  1  0  0  3  0  0  0  0  0  0
  188.9700  177.8170  141.0420 C   0  0  0  0  0  0  0  0  0  0  0  0
  190.0010  177.5540  136.9560 C   0  0  0  0  0  3  0  0  0  0  0  0
  1 13  2  0  0  0  0
  2  6  1  1  0  0  0
  2  3  1  0  0  0  0
  2  8  1  0  0  0  0
  3  7  1  6  0  0  0
  3 10  1  0  0  0  0
  4  9  1  0  0  0  0
  7 16  1  0  0  0  0
  8  4  1  0  0  0  0
 10 15  1  0  0  0  0
 10  9  1  1  0  0  0
 11  7  2  0  0  0  0
 12  5  1  6  0  0  0
 12 13  1  0  0  0  0
 13 14  1  0  0  0  0
 14 15  2  0  0  0  0
 16 12  1  0  0  0  0
 17  5  1  0  0  0  0
 17  1  1  0  0  0  0
 18 19  1  0  0  0  0
 20 19  2  0  0  0  0
 21 25  1  0  0  0  0
 22 23  1  0  0  0  0
 22 21  2  0  0  0  0
 23 24  2  0  0  0  0
 24 29  1  0  0  0  0
 25 29  1  0  0  0  0
 25 26  2  0  0  0  0
 26 20  1  0  0  0  0
 27 30  2  0  0  0  0
 27 28  1  0  0  0  0
 28  1  1  6  0  0  0
 28 23  1  0  0  0  0
 29 18  2  0  0  0  0
 30 22  1  0  0  0  0
M  END
>  <MODEL>
6

>  <REMARK>
 VINA RESULT:      -6.8      3.643      5.527
  Name = 
  1 active torsions:
  status: ('A' for Active; 'I' for Inactive)
    1  A    between atoms: C_1  and  C_19
                            x       y       z     vdW  Elec       q    Type
                         _______ _______ _______ _____ _____    ______ ____

>  <TORSDO>
F 1

$$$$
=
 OpenBabel10232408223D

 30 35  0  0  1  0  0  0  0  0999 V2000
  186.6060  178.0040  138.7170 C   0  0  0  0  0  0  0  0  0  0  0  0
  188.7890  173.0480  136.4540 C   0  0  1  0  0  3  0  0  0  0  0  0
  188.0700  174.3910  136.7150 C   0  0  2  0  0  3  0  0  0  0  0  0
  190.5080  174.3420  135.0240 C   0  0  0  0  0  2  0  0  0  0  0  0
  184.7570  177.5560  137.3080 C   0  0  0  0  0  2  0  0  0  0  0  0
  188.1030  172.2190  135.3720 C   0  0  0  0  0  1  0  0  0  0  0  0
  186.6160  174.2510  137.1160 C   0  0  0  0  0  0  0  0  0  0  0  0
  190.2620  173.2690  136.0990 C   0  0  0  0  0  2  0  0  0  0  0  0
  189.2240  175.0110  134.5250 C   0  0  0  0  0  2  0  0  0  0  0  0
  188.3540  175.5030  135.6860 C   0  0  2  0  0  3  0  0  0  0  0  0
  186.1840  173.1200  137.4680 O   0  0  0  0  0  0  0  0  0  0  0  0
  185.9670  176.7540  136.8490 C   0  0  1  0  0  3  0  0  0  0  0  0
  187.0690  177.3490  137.6580 C   0  0  0  0  0  0  0  0  0  0  0  0
  188.4870  177.4000  137.2360 C   0  0  0  0  0  3  0  0  0  0  0  0
  189.0290  176.6100  136.3580 N   0  0  0  0  0  0  0  0  0  0  0  0
  185.7300  175.3680  137.2390 N   0  0  0  0  0  2  0  0  0  0  0  0
  185.1160  178.0650  138.7010 C   0  0  0  0  0  2  0  0  0  0  0  0
  184.2540  179.4240  143.4820 N   0  0  0  0  0  0  0  0  0  0  0  0
  183.9090  179.2240  144.7840 C   0  0  0  0  0  3  0  0  0  0  0  0
  184.7420  178.4800  145.6290 C   0  0  0  0  0  3  0  0  0  0  0  0
  187.3970  177.5840  143.2720 N   0  0  0  0  0  0  0  0  0  0  0  0
  187.7120  177.7870  141.9670 C   0  0  0  0  0  0  0  0  0  0  0  0
  186.9220  178.5440  141.1420 C   0  0  0  0  0  0  0  0  0  0  0  0
  185.7500  179.1330  141.6260 C   0  0  0  0  0  3  0  0  0  0  0  0
  186.2540  178.1240  143.7850 C   0  0  0  0  0  0  0  0  0  0  0  0
  185.9190  177.9280  145.1230 C   0  0  0  0  0  3  0  0  0  0  0  0
  188.8170  177.8650  139.8790 C   0  0  0  0  0  3  0  0  0  0  0  0
  187.4880  178.6440  139.7690 C   0  0  1  0  0  3  0  0  0  0  0  0
  185.4020  178.9060  142.9650 C   0  0  0  0  0  0  0  0  0  0  0  0
  188.9310  177.2950  141.3000 C   0  0  0  0  0  3  0  0  0  0  0  0
  2  6  1  6  0  0  0
  2  3  1  0  0  0  0
  3  7  1  6  0  0  0
  4  8  1  0  0  0  0
  5 17  1  0  0  0  0
  7 16  1  0  0  0  0
  7 11  2  0  0  0  0
  8  2  1  0  0  0  0
  9  4  1  0  0  0  0
 10  9  1  6  0  0  0
 10 15  1  0  0  0  0
 10  3  1  0  0  0  0
 12 16  1  0  0  0  0
 12  5  1  1  0  0  0
 12 13  1  0  0  0  0
 13  1  2  0  0  0  0
 14 13  1  0  0  0  0
 15 14  2  0  0  0  0
 17  1  1  0  0  0  0
 18 19  1  0  0  0  0
 19 20  2  0  0  0  0
 21 25  1  0  0  0  0
 22 21  2  0  0  0  0
 23 24  2  0  0  0  0
 23 22  1  0  0  0  0
 24 29  1  0  0  0  0
 25 26  2  0  0  0  0
 26 20  1  0  0  0  0
 27 30  2  0  0  0  0
 28  1  1  6  0  0  0
 28 27  1  0  0  0  0
 28 23  1  0  0  0  0
 29 18  2  0  0  0  0
 29 25  1  0  0  0  0
 30 22  1  0  0  0  0
M  END
>  <MODEL>
7

>  <REMARK>
 VINA RESULT:      -6.7      4.677      6.457
  Name = 
  1 active torsions:
  status: ('A' for Active; 'I' for Inactive)
    1  A    between atoms: C_1  and  C_19
                            x       y       z     vdW  Elec       q    Type
                         _______ _______ _______ _____ _____    ______ ____

>  <TORSDO>
F 1

$$$$
=
 OpenBabel10232408223D

 30 35  0  0  1  0  0  0  0  0999 V2000
  186.2560  177.7440  138.0000 C   0  0  0  0  0  0  0  0  0  0  0  0
  190.1440  176.3150  142.1600 C   0  0  1  0  0  3  0  0  0  0  0  0
  189.3030  177.0090  141.0630 C   0  0  2  0  0  3  0  0  0  0  0  0
  189.0070  177.8600  143.8910 C   0  0  0  0  0  2  0  0  0  0  0  0
  188.0540  178.9750  137.0740 C   0  0  0  0  0  2  0  0  0  0  0  0
  191.5740  176.8430  142.2210 C   0  0  0  0  0  1  0  0  0  0  0  0
  189.8810  176.8910  139.6690 C   0  0  0  0  0  0  0  0  0  0  0  0
  189.4730  176.4390  143.5320 C   0  0  0  0  0  2  0  0  0  0  0  0
  189.2800  178.8890  142.7890 C   0  0  0  0  0  2  0  0  0  0  0  0
  188.7680  178.4090  141.4280 C   0  0  2  0  0  3  0  0  0  0  0  0
  190.7960  176.0510  139.4540 O   0  0  0  0  0  0  0  0  0  0  0  0
  188.3420  178.6520  138.5330 C   0  0  1  0  0  3  0  0  0  0  0  0
  187.0300  178.1290  139.0090 C   0  0  0  0  0  0  0  0  0  0  0  0
  186.5460  178.2200  140.4060 C   0  0  0  0  0  3  0  0  0  0  0  0
  187.3090  178.3680  141.4480 N   0  0  0  0  0  0  0  0  0  0  0  0
  189.3530  177.5990  138.5430 N   0  0  0  0  0  2  0  0  0  0  0  0
  186.8800  178.0800  136.6880 C   0  0  0  0  0  2  0  0  0  0  0  0
  181.9510  181.0500  138.8880 N   0  0  0  0  0  0  0  0  0  0  0  0
  180.8640  181.7740  138.5030 C   0  0  0  0  0  3  0  0  0  0  0  0
  180.0820  181.3510  137.4200 C   0  0  0  0  0  3  0  0  0  0  0  0
  181.9230  178.3400  136.4460 N   0  0  0  0  0  0  0  0  0  0  0  0
  183.0190  177.6430  136.8420 C   0  0  0  0  0  0  0  0  0  0  0  0
  183.7700  178.0290  137.9210 C   0  0  0  0  0  0  0  0  0  0  0  0
  183.4260  179.1690  138.6540 C   0  0  0  0  0  3  0  0  0  0  0  0
  181.5580  179.4690  137.1180 C   0  0  0  0  0  0  0  0  0  0  0  0
  180.4340  180.1940  136.7270 C   0  0  0  0  0  3  0  0  0  0  0  0
  184.7020  176.0030  137.0980 C   0  0  0  0  0  3  0  0  0  0  0  0
  184.8990  177.0940  138.1740 C   0  0  1  0  0  3  0  0  0  0  0  0
  182.3110  179.9110  138.2360 C   0  0  0  0  0  0  0  0  0  0  0  0
  183.4970  176.3900  136.2290 C   0  0  0  0  0  3  0  0  0  0  0  0
  1 13  2  0  0  0  0
  2  6  1  1  0  0  0
  2  8  1  0  0  0  0
  3  7  1  6  0  0  0
  3 10  1  0  0  0  0
  3  2  1  0  0  0  0
  8  4  1  0  0  0  0
  9  4  1  0  0  0  0
 10 15  1  0  0  0  0
 10  9  1  1  0  0  0
 11  7  2  0  0  0  0
 12  5  1  6  0  0  0
 12 16  1  0  0  0  0
 12 13  1  0  0  0  0
 13 14  1  0  0  0  0
 14 15  2  0  0  0  0
 16  7  1  0  0  0  0
 17  5  1  0  0  0  0
 17  1  1  0  0  0  0
 19 18  1  0  0  0  0
 20 19  2  0  0  0  0
 21 22  2  0  0  0  0
 21 25  1  0  0  0  0
 22 23  1  0  0  0  0
 23 28  1  0  0  0  0
 23 24  2  0  0  0  0
 25 29  1  0  0  0  0
 26 25  2  0  0  0  0
 26 20  1  0  0  0  0
 27 28  1  0  0  0  0
 28  1  1  6  0  0  0
 29 24  1  0  0  0  0
 29 18  2  0  0  0  0
 30 22  1  0  0  0  0
 30 27  2  0  0  0  0
M  END
>  <MODEL>
8

>  <REMARK>
 VINA RESULT:      -6.6      3.622      8.799
  Name = 
  1 active torsions:
  status: ('A' for Active; 'I' for Inactive)
    1  A    between atoms: C_1  and  C_19
                            x       y       z     vdW  Elec       q    Type
                         _______ _______ _______ _____ _____    ______ ____

>  <TORSDO>
F 1

$$$$
=
 OpenBabel10232408223D

 30 35  0  0  1  0  0  0  0  0999 V2000
  187.1790  177.9050  138.4940 C   0  0  0  0  0  0  0  0  0  0  0  0
  188.2280  172.4940  136.4770 C   0  0  1  0  0  3  0  0  0  0  0  0
  187.7790  173.9580  136.6870 C   0  0  2  0  0  3  0  0  0  0  0  0
  189.9670  173.3600  134.7740 C   0  0  0  0  0  2  0  0  0  0  0  0
  185.1330  177.6920  137.3210 C   0  0  0  0  0  2  0  0  0  0  0  0
  187.2950  171.7250  135.5460 C   0  0  0  0  0  1  0  0  0  0  0  0
  186.3770  174.1050  137.2410 C   0  0  0  0  0  0  0  0  0  0  0  0
  189.6680  172.4260  135.9590 C   0  0  0  0  0  2  0  0  0  0  0  0
  188.7650  174.2080  134.3460 C   0  0  0  0  0  2  0  0  0  0  0  0
  188.1280  174.9270  135.5390 C   0  0  2  0  0  3  0  0  0  0  0  0
  185.8040  173.0960  137.7340 O   0  0  0  0  0  0  0  0  0  0  0  0
  186.1310  176.6590  136.8180 C   0  0  1  0  0  3  0  0  0  0  0  0
  187.4020  177.1050  137.4570 C   0  0  0  0  0  0  0  0  0  0  0  0
  188.7520  176.8750  136.8940 C   0  0  0  0  0  3  0  0  0  0  0  0
  189.0510  175.9420  136.0400 N   0  0  0  0  0  0  0  0  0  0  0  0
  185.7110  175.3670  137.3510 N   0  0  0  0  0  2  0  0  0  0  0  0
  185.7280  178.2260  138.6210 C   0  0  0  0  0  2  0  0  0  0  0  0
  186.0140  178.4810  143.8390 N   0  0  0  0  0  0  0  0  0  0  0  0
  186.0050  178.0780  145.1390 C   0  0  0  0  0  3  0  0  0  0  0  0
  187.0430  177.2830  145.6400 C   0  0  0  0  0  3  0  0  0  0  0  0
  189.0720  176.9110  142.6140 N   0  0  0  0  0  0  0  0  0  0  0  0
  189.0510  177.3150  141.3180 C   0  0  0  0  0  0  0  0  0  0  0  0
  188.0580  178.1230  140.8280 C   0  0  0  0  0  0  0  0  0  0  0  0
  187.0210  178.5560  141.6600 C   0  0  0  0  0  3  0  0  0  0  0  0
  188.0710  177.2930  143.4590 C   0  0  0  0  0  0  0  0  0  0  0  0
  188.0790  176.8900  144.7930 C   0  0  0  0  0  3  0  0  0  0  0  0
  189.6100  177.7590  139.0650 C   0  0  0  0  0  3  0  0  0  0  0  0
  188.2690  178.4510  139.3920 C   0  0  1  0  0  3  0  0  0  0  0  0
  187.0190  178.1210  142.9930 C   0  0  0  0  0  0  0  0  0  0  0  0
  190.0870  177.0070  140.3150 C   0  0  0  0  0  3  0  0  0  0  0  0
  1 17  1  0  0  0  0
  2  6  1  6  0  0  0
  2  3  1  0  0  0  0
  3  7  1  6  0  0  0
  4  8  1  0  0  0  0
  5 17  1  0  0  0  0
  7 16  1  0  0  0  0
  7 11  2  0  0  0  0
  8  2  1  0  0  0  0
  9  4  1  0  0  0  0
 10  9  1  6  0  0  0
 10 15  1  0  0  0  0
 10  3  1  0  0  0  0
 12  5  1  1  0  0  0
 12 16  1  0  0  0  0
 12 13  1  0  0  0  0
 13  1  2  0  0  0  0
 14 13  1  0  0  0  0
 15 14  2  0  0  0  0
 18 19  1  0  0  0  0
 19 20  2  0  0  0  0
 21 25  1  0  0  0  0
 22 21  2  0  0  0  0
 23 22  1  0  0  0  0
 23 24  2  0  0  0  0
 24 29  1  0  0  0  0
 25 26  2  0  0  0  0
 26 20  1  0  0  0  0
 27 28  1  0  0  0  0
 27 30  2  0  0  0  0
 28  1  1  6  0  0  0
 28 23  1  0  0  0  0
 29 25  1  0  0  0  0
 29 18  2  0  0  0  0
 30 22  1  0  0  0  0
M  END
>  <MODEL>
9

>  <REMARK>
 VINA RESULT:      -6.5      4.918      6.552
  Name = 
  1 active torsions:
  status: ('A' for Active; 'I' for Inactive)
    1  A    between atoms: C_1  and  C_19
                            x       y       z     vdW  Elec       q    Type
                         _______ _______ _______ _____ _____    ______ ____

>  <TORSDO>
F 1

$$$$
