=
 OpenBabel10232408423D

 30 34  0  0  1  0  0  0  0  0999 V2000
  186.7390  178.8420  147.3020 C   0  0  0  0  0  1  0  0  0  0  0  0
  188.6210  177.6930  146.1010 C   0  0  0  0  0  0  0  0  0  0  0  0
  189.6570  176.2710  138.5650 C   0  0  0  0  0  2  0  0  0  0  0  0
  190.3680  176.4920  147.2360 N   0  0  0  0  0  0  0  0  0  0  0  0
  186.7180  178.7220  141.3810 N   0  0  0  0  0  2  0  0  0  0  0  0
  190.4560  175.7750  140.8570 O   0  0  0  0  0  0  0  0  0  0  0  0
  186.1560  177.0510  144.0570 C   0  0  0  0  0  2  0  0  0  0  0  0
  187.9430  178.8680  139.3610 C   0  0  0  0  0  0  0  0  0  0  0  0
  186.2370  177.1040  145.5730 C   0  0  0  0  0  2  0  0  0  0  0  0
  186.8310  178.6270  139.9870 N   0  0  0  0  0  0  0  0  0  0  0  0
  188.1930  176.4430  148.1120 F   0  0  0  0  0  0  0  0  0  0  0  0
  191.9580  178.2970  143.9810 S   0  0  0  0  0  0  0  0  0  0  0  0
  187.2040  178.1940  146.0100 C   0  0  1  0  0  3  0  0  0  0  0  0
  185.4640  178.2980  143.5250 C   0  0  0  0  0  2  0  0  0  0  0  0
  189.5560  178.0480  145.1190 C   0  0  0  0  0  0  0  0  0  0  0  0
  188.1600  176.1080  138.3260 C   0  0  0  0  0  2  0  0  0  0  0  0
  189.0590  176.8690  147.1590 C   0  0  0  0  0  0  0  0  0  0  0  0
  185.5210  178.3110  142.0400 C   0  0  0  0  0  0  0  0  0  0  0  0
  189.7820  177.8460  140.6320 C   0  0  0  0  0  0  0  0  0  0  0  0
  190.2880  177.6320  141.8960 C   0  0  0  0  0  0  0  0  0  0  0  0
  190.8780  177.6920  145.2510 C   0  0  0  0  0  0  0  0  0  0  0  0
  189.2420  178.7850  143.8650 C   0  0  0  0  0  2  0  0  0  0  0  0
  187.5980  177.2520  137.4760 C   0  0  0  0  0  2  0  0  0  0  0  0
  191.2860  176.8900  146.3130 C   0  0  0  0  0  3  0  0  0  0  0  0
  189.9470  176.6230  139.9940 C   0  0  0  0  0  0  0  0  0  0  0  0
  188.0500  178.5440  137.9780 N   0  0  0  0  0  2  0  0  0  0  0  0
  189.2150  179.1320  140.1010 C   0  0  0  0  0  2  0  0  0  0  0  0
  190.4760  178.6730  142.9620 C   0  0  1  0  0  3  0  0  0  0  0  0
  190.6740  176.3430  142.0090 N   0  0  0  0  0  0  0  0  0  0  0  0
  184.5280  177.9190  141.3740 O   0  0  0  0  0  0  0  0  0  0  0  0
  2 17  1  0  0  0  0
  3 25  1  0  0  0  0
  5 18  1  0  0  0  0
  6 29  1  0  0  0  0
  7  9  1  0  0  0  0
  8 10  2  0  0  0  0
  8 27  1  0  0  0  0
  9 13  1  0  0  0  0
 10  5  1  0  0  0  0
 12 21  1  0  0  0  0
 13  2  1  0  0  0  0
 13  1  1  1  0  0  0
 14  7  1  0  0  0  0
 15 21  1  0  0  0  0
 15  2  2  0  0  0  0
 16  3  1  0  0  0  0
 17  4  2  0  0  0  0
 17 11  1  0  0  0  0
 18 14  1  0  0  0  0
 19 20  1  0  0  0  0
 20 29  2  0  0  0  0
 20 28  1  0  0  0  0
 21 24  2  0  0  0  0
 22 15  1  0  0  0  0
 23 26  1  0  0  0  0
 23 16  1  0  0  0  0
 24  4  1  0  0  0  0
 25 19  2  0  0  0  0
 25  6  1  0  0  0  0
 26  8  1  0  0  0  0
 27 19  1  0  0  0  0
 28 22  1  1  0  0  0
 28 12  1  0  0  0  0
 30 18  2  0  0  0  0
M  END
>  <MODEL>
1

>  <REMARK>
 VINA RESULT:      -7.7      0.000      0.000
  Name = 
  0 active torsions:
  status: ('A' for Active; 'I' for Inactive)
                            x       y       z     vdW  Elec       q    Type
                         _______ _______ _______ _____ _____    ______ ____

>  <TORSDO>
F 0

$$$$
=
 OpenBabel10232408423D

 30 34  0  0  1  0  0  0  0  0999 V2000
  192.3780  177.7920  139.9710 C   0  0  0  0  0  1  0  0  0  0  0  0
  190.7290  176.8120  138.3500 C   0  0  0  0  0  0  0  0  0  0  0  0
  182.9920  176.7900  138.4350 C   0  0  0  0  0  2  0  0  0  0  0  0
  191.3640  175.3470  136.5520 N   0  0  0  0  0  0  0  0  0  0  0  0
  186.5980  178.7880  140.7960 N   0  0  0  0  0  2  0  0  0  0  0  0
  185.0170  175.8390  137.3710 O   0  0  0  0  0  0  0  0  0  0  0  0
  188.9820  176.6700  141.1050 C   0  0  0  0  0  2  0  0  0  0  0  0
  184.4820  179.2610  139.8460 C   0  0  0  0  0  0  0  0  0  0  0  0
  190.4550  176.4330  140.8170 C   0  0  0  0  0  2  0  0  0  0  0  0
  185.2080  178.9520  140.8780 N   0  0  0  0  0  0  0  0  0  0  0  0
  192.5230  175.2250  138.5870 F   0  0  0  0  0  0  0  0  0  0  0  0
  188.2930  177.6630  135.2950 S   0  0  0  0  0  0  0  0  0  0  0  0
  190.9370  177.3800  139.7290 C   0  0  1  0  0  3  0  0  0  0  0  0
  188.7890  178.0220  141.7750 C   0  0  0  0  0  2  0  0  0  0  0  0
  189.7030  177.3060  137.5330 C   0  0  0  0  0  0  0  0  0  0  0  0
  182.9460  176.7370  139.9580 C   0  0  0  0  0  2  0  0  0  0  0  0
  191.5470  175.7860  137.8300 C   0  0  0  0  0  0  0  0  0  0  0  0
  187.3380  178.3120  141.9180 C   0  0  0  0  0  0  0  0  0  0  0  0
  185.2680  177.9420  137.9270 C   0  0  0  0  0  0  0  0  0  0  0  0
  186.3870  177.4730  137.2710 C   0  0  0  0  0  0  0  0  0  0  0  0
  189.5760  176.8770  136.2320 C   0  0  0  0  0  0  0  0  0  0  0  0
  188.6610  178.2780  137.9620 C   0  0  0  0  0  2  0  0  0  0  0  0
  182.4060  178.0430  140.5510 C   0  0  0  0  0  2  0  0  0  0  0  0
  190.4060  175.8730  135.7400 C   0  0  0  0  0  3  0  0  0  0  0  0
  184.4030  176.8550  137.9320 C   0  0  0  0  0  0  0  0  0  0  0  0
  183.0620  179.1980  139.9490 N   0  0  0  0  0  2  0  0  0  0  0  0
  185.0650  179.3270  138.4710 C   0  0  0  0  0  2  0  0  0  0  0  0
  187.5840  178.2860  136.8710 C   0  0  1  0  0  3  0  0  0  0  0  0
  186.2090  176.1710  136.9620 N   0  0  0  0  0  0  0  0  0  0  0  0
  186.7630  178.0940  143.0160 O   0  0  0  0  0  0  0  0  0  0  0  0
  2 13  1  0  0  0  0
  3 16  1  0  0  0  0
  4 17  2  0  0  0  0
  5 10  1  0  0  0  0
  5 18  1  0  0  0  0
  6 25  1  0  0  0  0
  7 14  1  0  0  0  0
  8 26  1  0  0  0  0
  8 10  2  0  0  0  0
  9  7  1  0  0  0  0
 12 21  1  0  0  0  0
 12 28  1  0  0  0  0
 13  1  1  1  0  0  0
 13  9  1  0  0  0  0
 14 18  1  0  0  0  0
 15 22  1  0  0  0  0
 15  2  2  0  0  0  0
 16 23  1  0  0  0  0
 17  2  1  0  0  0  0
 17 11  1  0  0  0  0
 18 30  2  0  0  0  0
 19 25  2  0  0  0  0
 19 27  1  0  0  0  0
 20 19  1  0  0  0  0
 21 15  1  0  0  0  0
 24 21  2  0  0  0  0
 24  4  1  0  0  0  0
 25  3  1  0  0  0  0
 26 23  1  0  0  0  0
 27  8  1  0  0  0  0
 28 20  1  0  0  0  0
 28 22  1  1  0  0  0
 29 20  2  0  0  0  0
 29  6  1  0  0  0  0
M  END
>  <MODEL>
2

>  <REMARK>
 VINA RESULT:      -6.8      4.253      6.832
  Name = 
  0 active torsions:
  status: ('A' for Active; 'I' for Inactive)
                            x       y       z     vdW  Elec       q    Type
                         _______ _______ _______ _____ _____    ______ ____

>  <TORSDO>
F 0

$$$$
=
 OpenBabel10232408423D

 30 34  0  0  1  0  0  0  0  0999 V2000
  190.1310  178.6240  143.5110 C   0  0  0  0  0  1  0  0  0  0  0  0
  189.6420  177.5030  141.3180 C   0  0  0  0  0  0  0  0  0  0  0  0
  182.9760  176.6350  137.4840 C   0  0  0  0  0  2  0  0  0  0  0  0
  191.2480  176.1510  140.1440 N   0  0  0  0  0  0  0  0  0  0  0  0
  184.6610  178.9670  141.2650 N   0  0  0  0  0  2  0  0  0  0  0  0
  185.3480  175.9310  137.6260 O   0  0  0  0  0  0  0  0  0  0  0  0
  186.7660  177.1150  142.8160 C   0  0  0  0  0  2  0  0  0  0  0  0
  183.2810  179.2250  139.3590 C   0  0  0  0  0  0  0  0  0  0  0  0
  188.1980  177.0460  143.3220 C   0  0  0  0  0  2  0  0  0  0  0  0
  183.4130  178.9770  140.6270 N   0  0  0  0  0  0  0  0  0  0  0  0
  191.2230  176.1160  142.4890 F   0  0  0  0  0  0  0  0  0  0  0  0
  189.0130  178.1430  137.4200 S   0  0  0  0  0  0  0  0  0  0  0  0
  189.0620  178.0620  142.5900 C   0  0  1  0  0  3  0  0  0  0  0  0
  186.1210  178.4250  143.2450 C   0  0  0  0  0  2  0  0  0  0  0  0
  189.1250  177.8970  140.0760 C   0  0  0  0  0  0  0  0  0  0  0  0
  182.1720  176.5470  138.7760 C   0  0  0  0  0  2  0  0  0  0  0  0
  190.7120  176.5820  141.3220 C   0  0  0  0  0  0  0  0  0  0  0  0
  184.7770  178.5520  142.6240 C   0  0  0  0  0  0  0  0  0  0  0  0
  185.0630  178.0380  138.1520 C   0  0  0  0  0  0  0  0  0  0  0  0
  186.4010  177.7060  138.1690 C   0  0  0  0  0  0  0  0  0  0  0  0
  189.7200  177.4830  138.9070 C   0  0  0  0  0  0  0  0  0  0  0  0
  187.9150  178.7410  139.8830 C   0  0  0  0  0  2  0  0  0  0  0  0
  181.2740  177.7740  138.9650 C   0  0  0  0  0  2  0  0  0  0  0  0
  190.7840  176.5850  138.9410 C   0  0  0  0  0  3  0  0  0  0  0  0
  184.4330  176.8620  137.7610 C   0  0  0  0  0  0  0  0  0  0  0  0
  182.0200  179.0050  138.7330 N   0  0  0  0  0  2  0  0  0  0  0  0
  184.4700  179.3810  138.4660 C   0  0  0  0  0  2  0  0  0  0  0  0
  187.5440  178.6530  138.3980 C   0  0  1  0  0  3  0  0  0  0  0  0
  186.5410  176.3990  137.8630 N   0  0  0  0  0  0  0  0  0  0  0  0
  183.7510  178.2510  143.2890 O   0  0  0  0  0  0  0  0  0  0  0  0
  2 17  1  0  0  0  0
  2 13  1  0  0  0  0
  3 25  1  0  0  0  0
  3 16  1  0  0  0  0
  4 17  2  0  0  0  0
  5 18  1  0  0  0  0
  6 25  1  0  0  0  0
  6 29  1  0  0  0  0
  7 14  1  0  0  0  0
  7  9  1  0  0  0  0
  8 10  2  0  0  0  0
 10  5  1  0  0  0  0
 12 28  1  0  0  0  0
 12 21  1  0  0  0  0
 13  9  1  0  0  0  0
 13  1  1  1  0  0  0
 15  2  2  0  0  0  0
 16 23  1  0  0  0  0
 17 11  1  0  0  0  0
 18 14  1  0  0  0  0
 18 30  2  0  0  0  0
 19 20  1  0  0  0  0
 19 27  1  0  0  0  0
 20 28  1  0  0  0  0
 21 24  2  0  0  0  0
 21 15  1  0  0  0  0
 22 15  1  0  0  0  0
 24  4  1  0  0  0  0
 25 19  2  0  0  0  0
 26 23  1  0  0  0  0
 26  8  1  0  0  0  0
 27  8  1  0  0  0  0
 28 22  1  1  0  0  0
 29 20  2  0  0  0  0
M  END
>  <MODEL>
3

>  <REMARK>
 VINA RESULT:      -6.4      3.191      5.230
  Name = 
  0 active torsions:
  status: ('A' for Active; 'I' for Inactive)
                            x       y       z     vdW  Elec       q    Type
                         _______ _______ _______ _____ _____    ______ ____

>  <TORSDO>
F 0

$$$$
=
 OpenBabel10232408423D

 30 34  0  0  1  0  0  0  0  0999 V2000
  184.9910  179.6790  144.0700 C   0  0  0  0  0  1  0  0  0  0  0  0
  186.7980  178.1180  143.2950 C   0  0  0  0  0  0  0  0  0  0  0  0
  188.7260  175.7890  136.1720 C   0  0  0  0  0  2  0  0  0  0  0  0
  188.1000  176.7630  144.7970 N   0  0  0  0  0  0  0  0  0  0  0  0
  185.8750  178.9660  138.2570 N   0  0  0  0  0  2  0  0  0  0  0  0
  189.0530  175.4010  138.5970 O   0  0  0  0  0  0  0  0  0  0  0  0
  184.6080  177.6920  140.9100 C   0  0  0  0  0  2  0  0  0  0  0  0
  187.4070  178.7020  136.4720 C   0  0  0  0  0  0  0  0  0  0  0  0
  184.4590  177.8830  142.4100 C   0  0  0  0  0  2  0  0  0  0  0  0
  186.1850  178.7130  136.9140 N   0  0  0  0  0  0  0  0  0  0  0  0
  185.8420  177.1660  145.2880 F   0  0  0  0  0  0  0  0  0  0  0  0
  190.4800  177.9400  141.7420 S   0  0  0  0  0  0  0  0  0  0  0  0
  185.5270  178.8360  142.9270 C   0  0  1  0  0  3  0  0  0  0  0  0
  184.2460  178.9760  140.1790 C   0  0  0  0  0  2  0  0  0  0  0  0
  187.9240  178.2110  142.4650 C   0  0  0  0  0  0  0  0  0  0  0  0
  187.2800  175.8530  135.6920 C   0  0  0  0  0  2  0  0  0  0  0  0
  186.9090  177.3430  144.4700 C   0  0  0  0  0  0  0  0  0  0  0  0
  184.5350  178.8290  138.7290 C   0  0  0  0  0  0  0  0  0  0  0  0
  188.8090  177.5220  138.1100 C   0  0  0  0  0  0  0  0  0  0  0  0
  189.0640  177.3550  139.4550 C   0  0  0  0  0  0  0  0  0  0  0  0
  189.1230  177.6550  142.8480 C   0  0  0  0  0  0  0  0  0  0  0  0
  187.9490  178.8590  141.1270 C   0  0  0  0  0  2  0  0  0  0  0  0
  187.0740  176.9830  134.6770 C   0  0  0  0  0  2  0  0  0  0  0  0
  189.2080  176.9070  144.0200 C   0  0  0  0  0  3  0  0  0  0  0  0
  188.8480  176.2300  137.6000 C   0  0  0  0  0  0  0  0  0  0  0  0
  187.6680  178.2260  135.1550 N   0  0  0  0  0  2  0  0  0  0  0  0
  188.5740  178.8230  137.3990 C   0  0  0  0  0  2  0  0  0  0  0  0
  189.2670  178.4530  140.4590 C   0  0  1  0  0  3  0  0  0  0  0  0
  189.1870  176.0380  139.7250 N   0  0  0  0  0  0  0  0  0  0  0  0
  183.6040  178.5430  137.9320 O   0  0  0  0  0  0  0  0  0  0  0  0
  2 17  1  0  0  0  0
  3 25  1  0  0  0  0
  5 18  1  0  0  0  0
  6 29  1  0  0  0  0
  7  9  1  0  0  0  0
  8 10  2  0  0  0  0
  8 27  1  0  0  0  0
  9 13  1  0  0  0  0
 10  5  1  0  0  0  0
 12 21  1  0  0  0  0
 13  2  1  0  0  0  0
 13  1  1  1  0  0  0
 14  7  1  0  0  0  0
 15 21  1  0  0  0  0
 15  2  2  0  0  0  0
 16  3  1  0  0  0  0
 17  4  2  0  0  0  0
 17 11  1  0  0  0  0
 18 14  1  0  0  0  0
 19 20  1  0  0  0  0
 20 29  2  0  0  0  0
 20 28  1  0  0  0  0
 21 24  2  0  0  0  0
 22 15  1  0  0  0  0
 23 26  1  0  0  0  0
 23 16  1  0  0  0  0
 24  4  1  0  0  0  0
 25 19  2  0  0  0  0
 25  6  1  0  0  0  0
 26  8  1  0  0  0  0
 27 19  1  0  0  0  0
 28 22  1  1  0  0  0
 28 12  1  0  0  0  0
 30 18  2  0  0  0  0
M  END
>  <MODEL>
4

>  <REMARK>
 VINA RESULT:      -6.2      2.218      3.149
  Name = 
  0 active torsions:
  status: ('A' for Active; 'I' for Inactive)
                            x       y       z     vdW  Elec       q    Type
                         _______ _______ _______ _____ _____    ______ ____

>  <TORSDO>
F 0

$$$$
=
 OpenBabel10232408423D

 30 34  0  0  1  0  0  0  0  0999 V2000
  182.0400  171.5010  135.5310 C   0  0  0  0  0  1  0  0  0  0  0  0
  182.1100  173.7820  136.5790 C   0  0  0  0  0  0  0  0  0  0  0  0
  188.1010  178.4270  138.1310 C   0  0  0  0  0  2  0  0  0  0  0  0
  180.2030  174.8080  137.6260 N   0  0  0  0  0  0  0  0  0  0  0  0
  187.2100  174.3760  135.8140 N   0  0  0  0  0  2  0  0  0  0  0  0
  185.6850  178.0290  138.5080 O   0  0  0  0  0  0  0  0  0  0  0  0
  185.0520  172.6600  137.4450 C   0  0  0  0  0  2  0  0  0  0  0  0
  188.3870  176.4220  135.6380 C   0  0  0  0  0  0  0  0  0  0  0  0
  183.6920  171.9890  137.3460 C   0  0  0  0  0  2  0  0  0  0  0  0
  188.3660  175.1590  135.9390 N   0  0  0  0  0  0  0  0  0  0  0  0
  180.4900  172.4870  137.8010 F   0  0  0  0  0  0  0  0  0  0  0  0
  182.3760  177.6970  135.8040 S   0  0  0  0  0  0  0  0  0  0  0  0
  182.9050  172.5670  136.1800 C   0  0  1  0  0  3  0  0  0  0  0  0
  185.9230  172.2580  136.2640 C   0  0  0  0  0  2  0  0  0  0  0  0
  182.5330  175.0590  136.1870 C   0  0  0  0  0  0  0  0  0  0  0  0
  189.0260  177.2460  138.4040 C   0  0  0  0  0  2  0  0  0  0  0  0
  180.9250  173.6870  137.3420 C   0  0  0  0  0  0  0  0  0  0  0  0
  187.1920  173.0310  136.2880 C   0  0  0  0  0  0  0  0  0  0  0  0
  186.3280  177.4530  136.4950 C   0  0  0  0  0  0  0  0  0  0  0  0
  184.9660  177.2880  136.6390 C   0  0  0  0  0  0  0  0  0  0  0  0
  181.7560  176.1640  136.4470 C   0  0  0  0  0  0  0  0  0  0  0  0
  183.8220  175.3620  135.5080 C   0  0  0  0  0  2  0  0  0  0  0  0
  190.1070  177.1160  137.3250 C   0  0  0  0  0  2  0  0  0  0  0  0
  180.5850  176.0400  137.1900 C   0  0  0  0  0  3  0  0  0  0  0  0
  186.7340  177.9670  137.7210 C   0  0  0  0  0  0  0  0  0  0  0  0
  189.5240  177.2040  135.9920 N   0  0  0  0  0  2  0  0  0  0  0  0
  187.1390  177.1580  135.2670 C   0  0  0  0  0  2  0  0  0  0  0  0
  184.0050  176.8830  135.5590 C   0  0  1  0  0  3  0  0  0  0  0  0
  184.6070  177.6300  137.8950 N   0  0  0  0  0  0  0  0  0  0  0  0
  188.2320  172.5080  136.7660 O   0  0  0  0  0  0  0  0  0  0  0  0
  2 17  1  0  0  0  0
  3 16  1  0  0  0  0
  5 10  1  0  0  0  0
  5 18  1  0  0  0  0
  8 10  2  0  0  0  0
  8 26  1  0  0  0  0
  9  7  1  0  0  0  0
 12 21  1  0  0  0  0
 13  1  1  1  0  0  0
 13  2  1  0  0  0  0
 13  9  1  0  0  0  0
 14 18  1  0  0  0  0
 14  7  1  0  0  0  0
 15 21  1  0  0  0  0
 15  2  2  0  0  0  0
 17  4  2  0  0  0  0
 17 11  1  0  0  0  0
 18 30  2  0  0  0  0
 19 20  1  0  0  0  0
 19 25  2  0  0  0  0
 20 29  2  0  0  0  0
 21 24  2  0  0  0  0
 22 15  1  0  0  0  0
 23 16  1  0  0  0  0
 24  4  1  0  0  0  0
 25  3  1  0  0  0  0
 25  6  1  0  0  0  0
 26 23  1  0  0  0  0
 27  8  1  0  0  0  0
 27 19  1  0  0  0  0
 28 22  1  1  0  0  0
 28 12  1  0  0  0  0
 28 20  1  0  0  0  0
 29  6  1  0  0  0  0
M  END
>  <MODEL>
5

>  <REMARK>
 VINA RESULT:      -5.7      6.520      9.418
  Name = 
  0 active torsions:
  status: ('A' for Active; 'I' for Inactive)
                            x       y       z     vdW  Elec       q    Type
                         _______ _______ _______ _____ _____    ______ ____

>  <TORSDO>
F 0

$$$$
=
 OpenBabel10232408423D

 30 34  0  0  1  0  0  0  0  0999 V2000
  188.0060  178.6690  146.3830 C   0  0  0  0  0  1  0  0  0  0  0  0
  189.4530  177.3530  144.8080 C   0  0  0  0  0  0  0  0  0  0  0  0
  188.7590  176.0820  137.2060 C   0  0  0  0  0  2  0  0  0  0  0  0
  191.2380  175.9200  145.5470 N   0  0  0  0  0  0  0  0  0  0  0  0
  186.7680  178.7560  140.5920 N   0  0  0  0  0  2  0  0  0  0  0  0
  189.9420  175.4190  139.2800 O   0  0  0  0  0  0  0  0  0  0  0  0
  186.5660  177.0700  143.3090 C   0  0  0  0  0  2  0  0  0  0  0  0
  187.5660  178.8300  138.3650 C   0  0  0  0  0  0  0  0  0  0  0  0
  186.9590  177.0600  144.7770 C   0  0  0  0  0  2  0  0  0  0  0  0
  186.5830  178.6960  139.2040 N   0  0  0  0  0  0  0  0  0  0  0  0
  189.2970  176.0920  146.8510 F   0  0  0  0  0  0  0  0  0  0  0  0
  192.3380  177.6420  142.0530 S   0  0  0  0  0  0  0  0  0  0  0  0
  188.1180  178.0170  145.0160 C   0  0  1  0  0  3  0  0  0  0  0  0
  185.9350  178.4050  142.9430 C   0  0  0  0  0  2  0  0  0  0  0  0
  190.2050  177.6320  143.6580 C   0  0  0  0  0  0  0  0  0  0  0  0
  187.2370  176.1000  137.2790 C   0  0  0  0  0  2  0  0  0  0  0  0
  189.9960  176.4480  145.7450 C   0  0  0  0  0  0  0  0  0  0  0  0
  185.6900  178.4630  141.4790 C   0  0  0  0  0  0  0  0  0  0  0  0
  189.4890  177.5610  139.2190 C   0  0  0  0  0  0  0  0  0  0  0  0
  190.2120  177.2460  140.3500 C   0  0  0  0  0  0  0  0  0  0  0  0
  191.4750  177.1220  143.5120 C   0  0  0  0  0  0  0  0  0  0  0  0
  189.7340  178.4430  142.5040 C   0  0  0  0  0  2  0  0  0  0  0  0
  186.6540  177.3300  136.5750 C   0  0  0  0  0  2  0  0  0  0  0  0
  191.9910  176.2420  144.4590 C   0  0  0  0  0  3  0  0  0  0  0  0
  189.3740  176.3490  138.5480 C   0  0  0  0  0  0  0  0  0  0  0  0
  187.3490  178.5430  136.9860 N   0  0  0  0  0  2  0  0  0  0  0  0
  188.9840  178.9200  138.8300 C   0  0  0  0  0  2  0  0  0  0  0  0
  190.7350  178.2210  141.3650 C   0  0  1  0  0  3  0  0  0  0  0  0
  190.4560  175.9180  140.3680 N   0  0  0  0  0  0  0  0  0  0  0  0
  184.5420  178.2110  141.0280 O   0  0  0  0  0  0  0  0  0  0  0  0
  2 13  1  0  0  0  0
  2 17  1  0  0  0  0
  3 16  1  0  0  0  0
  3 25  1  0  0  0  0
  4 17  2  0  0  0  0
  5 18  1  0  0  0  0
  6 29  1  0  0  0  0
  7  9  1  0  0  0  0
  8 27  1  0  0  0  0
  8 10  2  0  0  0  0
  9 13  1  0  0  0  0
 10  5  1  0  0  0  0
 12 21  1  0  0  0  0
 13  1  1  1  0  0  0
 14  7  1  0  0  0  0
 15  2  2  0  0  0  0
 17 11  1  0  0  0  0
 18 14  1  0  0  0  0
 19 20  1  0  0  0  0
 20 29  2  0  0  0  0
 20 28  1  0  0  0  0
 21 15  1  0  0  0  0
 21 24  2  0  0  0  0
 22 15  1  0  0  0  0
 23 26  1  0  0  0  0
 23 16  1  0  0  0  0
 24  4  1  0  0  0  0
 25 19  2  0  0  0  0
 25  6  1  0  0  0  0
 26  8  1  0  0  0  0
 27 19  1  0  0  0  0
 28 12  1  0  0  0  0
 28 22  1  1  0  0  0
 30 18  2  0  0  0  0
M  END
>  <MODEL>
6

>  <REMARK>
 VINA RESULT:      -5.4      1.271      1.470
  Name = 
  0 active torsions:
  status: ('A' for Active; 'I' for Inactive)
                            x       y       z     vdW  Elec       q    Type
                         _______ _______ _______ _____ _____    ______ ____

>  <TORSDO>
F 0

$$$$
=
 OpenBabel10232408423D

 30 34  0  0  1  0  0  0  0  0999 V2000
  182.8540  174.3770  136.2880 C   0  0  0  0  0  1  0  0  0  0  0  0
  184.5810  175.8620  137.3450 C   0  0  0  0  0  0  0  0  0  0  0  0
  192.3050  175.3860  137.3500 C   0  0  0  0  0  2  0  0  0  0  0  0
  184.0370  177.6140  138.8990 N   0  0  0  0  0  0  0  0  0  0  0  0
  188.5860  173.3120  135.2430 N   0  0  0  0  0  2  0  0  0  0  0  0
  190.3350  176.5020  138.3570 O   0  0  0  0  0  0  0  0  0  0  0  0
  186.1880  173.0180  137.3470 C   0  0  0  0  0  2  0  0  0  0  0  0
  190.7480  174.1770  134.8150 C   0  0  0  0  0  0  0  0  0  0  0  0
  184.7310  173.3680  137.6000 C   0  0  0  0  0  2  0  0  0  0  0  0
  189.9700  173.1690  135.0730 N   0  0  0  0  0  0  0  0  0  0  0  0
  182.7770  175.6360  138.9210 F   0  0  0  0  0  0  0  0  0  0  0  0
  187.1700  178.8290  136.6430 S   0  0  0  0  0  0  0  0  0  0  0  0
  184.3060  174.5250  136.7090 C   0  0  1  0  0  3  0  0  0  0  0  0
  186.3480  172.4070  135.9630 C   0  0  0  0  0  2  0  0  0  0  0  0
  185.6490  176.6490  136.8910 C   0  0  0  0  0  0  0  0  0  0  0  0
  192.2740  173.8620  137.3270 C   0  0  0  0  0  2  0  0  0  0  0  0
  183.7900  176.3700  138.3980 C   0  0  0  0  0  0  0  0  0  0  0  0
  187.7900  172.2070  135.6640 C   0  0  0  0  0  0  0  0  0  0  0  0
  190.0580  176.0650  136.2290 C   0  0  0  0  0  0  0  0  0  0  0  0
  188.9740  176.7520  136.7320 C   0  0  0  0  0  0  0  0  0  0  0  0
  185.8400  177.9190  137.3840 C   0  0  0  0  0  0  0  0  0  0  0  0
  186.6680  176.2180  135.8970 C   0  0  0  0  0  2  0  0  0  0  0  0
  192.7840  173.3090  135.9920 C   0  0  0  0  0  2  0  0  0  0  0  0
  185.0350  178.4010  138.4130 C   0  0  0  0  0  3  0  0  0  0  0  0
  190.9210  175.9620  137.3130 C   0  0  0  0  0  0  0  0  0  0  0  0
  192.1610  173.9990  134.8700 N   0  0  0  0  0  2  0  0  0  0  0  0
  190.2340  175.5810  134.8180 C   0  0  0  0  0  2  0  0  0  0  0  0
  187.7980  177.2510  135.9420 C   0  0  1  0  0  3  0  0  0  0  0  0
  189.1660  176.9860  138.0470 N   0  0  0  0  0  0  0  0  0  0  0  0
  188.3080  171.0710  135.8260 O   0  0  0  0  0  0  0  0  0  0  0  0
  2 17  1  0  0  0  0
  5 18  1  0  0  0  0
  7  9  1  0  0  0  0
  8 27  1  0  0  0  0
  8 26  1  0  0  0  0
  8 10  2  0  0  0  0
 10  5  1  0  0  0  0
 12 21  1  0  0  0  0
 13  1  1  1  0  0  0
 13  2  1  0  0  0  0
 13  9  1  0  0  0  0
 14  7  1  0  0  0  0
 15  2  2  0  0  0  0
 15 21  1  0  0  0  0
 16  3  1  0  0  0  0
 17  4  2  0  0  0  0
 17 11  1  0  0  0  0
 18 30  2  0  0  0  0
 18 14  1  0  0  0  0
 19 20  1  0  0  0  0
 19 25  2  0  0  0  0
 20 29  2  0  0  0  0
 21 24  2  0  0  0  0
 22 15  1  0  0  0  0
 23 16  1  0  0  0  0
 24  4  1  0  0  0  0
 25  3  1  0  0  0  0
 25  6  1  0  0  0  0
 26 23  1  0  0  0  0
 27 19  1  0  0  0  0
 28 22  1  1  0  0  0
 28 12  1  0  0  0  0
 28 20  1  0  0  0  0
 29  6  1  0  0  0  0
M  END
>  <MODEL>
7

>  <REMARK>
 VINA RESULT:      -5.4      6.329      8.214
  Name = 
  0 active torsions:
  status: ('A' for Active; 'I' for Inactive)
                            x       y       z     vdW  Elec       q    Type
                         _______ _______ _______ _____ _____    ______ ____

>  <TORSDO>
F 0

$$$$
=
 OpenBabel10232408423D

 30 34  0  0  1  0  0  0  0  0999 V2000
  181.7350  174.4230  136.3710 C   0  0  0  0  0  1  0  0  0  0  0  0
  182.7260  175.9040  138.1410 C   0  0  0  0  0  0  0  0  0  0  0  0
  190.1000  177.6910  139.6590 C   0  0  0  0  0  2  0  0  0  0  0  0
  181.4480  176.8070  139.9680 N   0  0  0  0  0  0  0  0  0  0  0  0
  187.5660  175.4580  136.3170 N   0  0  0  0  0  2  0  0  0  0  0  0
  187.7690  177.7960  140.4920 O   0  0  0  0  0  0  0  0  0  0  0  0
  185.1910  173.8080  137.6970 C   0  0  0  0  0  2  0  0  0  0  0  0
  189.3400  176.9970  136.6160 C   0  0  0  0  0  0  0  0  0  0  0  0
  183.6830  173.6200  137.7210 C   0  0  0  0  0  2  0  0  0  0  0  0
  188.9270  175.7830  136.4130 N   0  0  0  0  0  0  0  0  0  0  0  0
  180.9410  174.6610  139.1710 F   0  0  0  0  0  0  0  0  0  0  0  0
  184.2140  179.5460  138.8580 S   0  0  0  0  0  0  0  0  0  0  0  0
  182.9930  174.8340  137.1160 C   0  0  1  0  0  3  0  0  0  0  0  0
  185.7030  173.7640  136.2640 C   0  0  0  0  0  2  0  0  0  0  0  0
  183.5060  177.0680  138.1620 C   0  0  0  0  0  0  0  0  0  0  0  0
  190.5910  176.3200  139.2080 C   0  0  0  0  0  2  0  0  0  0  0  0
  181.6960  175.7850  139.1000 C   0  0  0  0  0  0  0  0  0  0  0  0
  187.1510  174.0960  136.2360 C   0  0  0  0  0  0  0  0  0  0  0  0
  187.8960  178.0280  138.3180 C   0  0  0  0  0  0  0  0  0  0  0  0
  186.5940  178.1680  138.7490 C   0  0  0  0  0  0  0  0  0  0  0  0
  183.1980  178.1010  139.0170 C   0  0  0  0  0  0  0  0  0  0  0  0
  184.7150  177.3020  137.3280 C   0  0  0  0  0  2  0  0  0  0  0  0
  191.4040  176.4110  137.9130 C   0  0  0  0  0  2  0  0  0  0  0  0
  182.1680  177.9630  139.9430 C   0  0  0  0  0  3  0  0  0  0  0  0
  188.6160  177.8240  139.4890 C   0  0  0  0  0  0  0  0  0  0  0  0
  190.7130  177.2250  136.9200 N   0  0  0  0  0  2  0  0  0  0  0  0
  188.3830  178.1110  136.9000 C   0  0  0  0  0  2  0  0  0  0  0  0
  185.4150  178.5410  137.8970 C   0  0  1  0  0  3  0  0  0  0  0  0
  186.5470  177.9980  140.0870 N   0  0  0  0  0  0  0  0  0  0  0  0
  188.0020  173.1710  136.1830 O   0  0  0  0  0  0  0  0  0  0  0  0
  2 15  2  0  0  0  0
  2 17  1  0  0  0  0
  5 10  1  0  0  0  0
  7  9  1  0  0  0  0
  8 27  1  0  0  0  0
  8 26  1  0  0  0  0
 10  8  2  0  0  0  0
 12 21  1  0  0  0  0
 13  1  1  1  0  0  0
 13  9  1  0  0  0  0
 13  2  1  0  0  0  0
 14  7  1  0  0  0  0
 15 21  1  0  0  0  0
 16  3  1  0  0  0  0
 17 11  1  0  0  0  0
 17  4  2  0  0  0  0
 18 14  1  0  0  0  0
 18  5  1  0  0  0  0
 19 20  1  0  0  0  0
 19 25  2  0  0  0  0
 20 29  2  0  0  0  0
 21 24  2  0  0  0  0
 22 15  1  0  0  0  0
 23 16  1  0  0  0  0
 24  4  1  0  0  0  0
 25  3  1  0  0  0  0
 25  6  1  0  0  0  0
 26 23  1  0  0  0  0
 27 19  1  0  0  0  0
 28 22  1  1  0  0  0
 28 20  1  0  0  0  0
 28 12  1  0  0  0  0
 29  6  1  0  0  0  0
 30 18  2  0  0  0  0
M  END
>  <MODEL>
8

>  <REMARK>
 VINA RESULT:      -5.3      5.240      7.725
  Name = 
  0 active torsions:
  status: ('A' for Active; 'I' for Inactive)
                            x       y       z     vdW  Elec       q    Type
                         _______ _______ _______ _____ _____    ______ ____

>  <TORSDO>
F 0

$$$$
=
 OpenBabel10232408423D

 30 34  0  0  1  0  0  0  0  0999 V2000
  185.0930  180.0470  142.8410 C   0  0  0  0  0  1  0  0  0  0  0  0
  186.5020  178.4500  141.5110 C   0  0  0  0  0  0  0  0  0  0  0  0
  184.8870  174.4700  135.0740 C   0  0  0  0  0  2  0  0  0  0  0  0
  188.6230  177.6140  142.2770 N   0  0  0  0  0  0  0  0  0  0  0  0
  182.9720  177.9020  137.7440 N   0  0  0  0  0  2  0  0  0  0  0  0
  186.4850  174.7470  136.9470 O   0  0  0  0  0  0  0  0  0  0  0  0
  183.5260  177.2870  140.8390 C   0  0  0  0  0  2  0  0  0  0  0  0
  183.3820  177.2760  135.4980 C   0  0  0  0  0  0  0  0  0  0  0  0
  184.1380  177.8520  142.1100 C   0  0  0  0  0  2  0  0  0  0  0  0
  182.5870  177.3270  136.5240 N   0  0  0  0  0  0  0  0  0  0  0  0
  186.9140  177.9930  143.8370 F   0  0  0  0  0  0  0  0  0  0  0  0
  188.8110  178.0980  138.2630 S   0  0  0  0  0  0  0  0  0  0  0  0
  185.1130  178.9690  141.7710 C   0  0  1  0  0  3  0  0  0  0  0  0
  182.6000  178.3120  140.2020 C   0  0  0  0  0  2  0  0  0  0  0  0
  186.9970  178.3920  140.2000 C   0  0  0  0  0  0  0  0  0  0  0  0
  183.4200  174.3200  135.4600 C   0  0  0  0  0  2  0  0  0  0  0  0
  187.3500  178.0160  142.5530 C   0  0  0  0  0  0  0  0  0  0  0  0
  182.1230  177.8110  138.8860 C   0  0  0  0  0  0  0  0  0  0  0  0
  185.6230  176.6500  136.2890 C   0  0  0  0  0  0  0  0  0  0  0  0
  186.5610  176.8540  137.2790 C   0  0  0  0  0  0  0  0  0  0  0  0
  188.3030  178.0290  139.9610 C   0  0  0  0  0  0  0  0  0  0  0  0
  186.2040  178.6700  138.9730 C   0  0  0  0  0  2  0  0  0  0  0  0
  182.5080  175.1320  134.5340 C   0  0  0  0  0  2  0  0  0  0  0  0
  189.1210  177.6180  141.0100 C   0  0  0  0  0  3  0  0  0  0  0  0
  185.6410  175.2740  136.0910 C   0  0  0  0  0  0  0  0  0  0  0  0
  183.0120  176.4900  134.3690 N   0  0  0  0  0  2  0  0  0  0  0  0
  184.8110  177.7050  135.5940 C   0  0  0  0  0  2  0  0  0  0  0  0
  187.0390  178.1850  137.7830 C   0  0  1  0  0  3  0  0  0  0  0  0
  187.0560  175.6630  137.6770 N   0  0  0  0  0  0  0  0  0  0  0  0
  180.9890  177.2710  138.7980 O   0  0  0  0  0  0  0  0  0  0  0  0
  2 13  1  0  0  0  0
  2 17  1  0  0  0  0
  3 16  1  0  0  0  0
  3 25  1  0  0  0  0
  4 17  2  0  0  0  0
  5 18  1  0  0  0  0
  6 29  1  0  0  0  0
  7  9  1  0  0  0  0
  8 27  1  0  0  0  0
  8 10  2  0  0  0  0
 10  5  1  0  0  0  0
 12 21  1  0  0  0  0
 13  9  1  0  0  0  0
 13  1  1  1  0  0  0
 14  7  1  0  0  0  0
 15  2  2  0  0  0  0
 17 11  1  0  0  0  0
 18 14  1  0  0  0  0
 19 20  1  0  0  0  0
 20 29  2  0  0  0  0
 20 28  1  0  0  0  0
 21 15  1  0  0  0  0
 21 24  2  0  0  0  0
 22 15  1  0  0  0  0
 23 16  1  0  0  0  0
 24  4  1  0  0  0  0
 25 19  2  0  0  0  0
 25  6  1  0  0  0  0
 26 23  1  0  0  0  0
 26  8  1  0  0  0  0
 27 19  1  0  0  0  0
 28 12  1  0  0  0  0
 28 22  1  1  0  0  0
 30 18  2  0  0  0  0
M  END
>  <MODEL>
9

>  <REMARK>
 VINA RESULT:      -5.0      3.768      5.553
  Name = 
  0 active torsions:
  status: ('A' for Active; 'I' for Inactive)
                            x       y       z     vdW  Elec       q    Type
                         _______ _______ _______ _____ _____    ______ ____

>  <TORSDO>
F 0

$$$$
