=
 OpenBabel10232410273D

 70 78  0  0  1  0  0  0  0  0999 V2000
  190.3270  176.7070  140.3820 C   0  0  0  0  0  0  0  0  0  0  0  0
  191.6430  176.8200  139.8900 N   0  0  0  0  0  0  0  0  0  0  0  0
  193.1600  176.6700  138.0160 C   0  0  0  0  0  3  0  0  0  0  0  0
  190.7540  176.5570  137.5710 C   0  0  0  0  0  0  0  0  0  0  0  0
  190.9850  176.5500  136.0820 C   0  0  0  0  0  2  0  0  0  0  0  0
  190.2730  176.6460  141.8610 C   0  0  1  0  0  3  0  0  0  0  0  0
  193.4300  176.4350  136.5810 C   0  0  0  0  0  0  0  0  0  0  0  0
  189.2960  176.5090  139.5580 C   0  0  0  0  0  3  0  0  0  0  0  0
  191.7590  176.5650  142.2550 C   0  0  0  0  0  3  0  0  0  0  0  0
  192.4230  176.3170  135.7110 C   0  0  0  0  0  3  0  0  0  0  0  0
  189.5090  176.4640  138.0900 C   0  0  0  0  0  0  0  0  0  0  0  0
  191.9120  176.7220  138.4860 C   0  0  0  0  0  0  0  0  0  0  0  0
  192.5980  176.7860  140.9800 C   0  0  0  0  0  3  0  0  0  0  0  0
  195.3600  174.8930  135.9790 C   0  0  0  0  0  0  0  0  0  0  0  0
  194.7610  176.1860  136.1170 N   0  0  0  0  0  2  0  0  0  0  0  0
  196.4200  174.7810  135.3080 O   0  0  0  0  0  0  0  0  0  0  0  0
  194.8000  173.7590  136.6590 N   0  0  0  0  0  2  0  0  0  0  0  0
  195.2960  172.3840  136.6130 C   0  0  1  0  0  3  0  0  0  0  0  0
  195.2060  172.6960  139.0130 O   0  0  0  0  0  1  0  0  0  0  0  0
  195.5150  171.7830  138.0010 C   0  0  0  0  0  2  0  0  0  0  0  0
  195.0890  170.9430  134.7330 O   0  0  0  0  0  0  0  0  0  0  0  0
  194.5260  171.5060  135.6610 C   0  0  0  0  0  0  0  0  0  0  0  0
  193.0520  171.3190  135.8390 C   0  0  0  0  0  2  0  0  0  0  0  0
  192.2950  171.7020  134.5760 C   0  0  0  0  0  3  0  0  0  0  0  0
  192.4600  173.0630  134.3460 O   0  0  0  0  0  1  0  0  0  0  0  0
  190.9340  171.4240  134.7350 O   0  0  0  0  0  1  0  0  0  0  0  0
  188.3200  176.2420  137.2090 C   0  0  0  0  0  2  0  0  0  0  0  0
  188.3110  174.8360  136.6420 C   0  0  0  0  0  2  0  0  0  0  0  0
  186.9890  174.3130  136.6620 O   0  0  0  0  0  0  0  0  0  0  0  0
  187.9870  171.9380  137.0720 S   0  0  0  0  0  0  0  0  0  0  0  0
  186.7240  172.9740  136.9450 C   0  0  0  0  0  0  0  0  0  0  0  0
  185.3720  172.5290  137.1210 N   0  0  0  0  0  2  0  0  0  0  0  0
  184.3930  172.4290  136.0480 C   0  0  0  0  0  2  0  0  0  0  0  0
  182.1040  171.5780  136.5610 C   0  0  0  0  0  3  0  0  0  0  0  0
  180.8170  171.7390  137.0670 C   0  0  0  0  0  3  0  0  0  0  0  0
  181.3300  174.0520  137.6290 C   0  0  0  0  0  0  0  0  0  0  0  0
  183.0100  172.6400  136.5780 C   0  0  0  0  0  0  0  0  0  0  0  0
  180.0620  175.2560  139.3940 C   0  0  0  0  0  1  0  0  0  0  0  0
  183.5200  174.9520  137.0870 O   0  0  0  0  0  0  0  0  0  0  0  0
  183.0790  175.9540  139.2430 C   0  0  0  0  0  2  0  0  0  0  0  0
  182.6190  173.8860  137.1020 C   0  0  0  0  0  0  0  0  0  0  0  0
  180.8510  175.4060  138.1000 C   0  0  2  0  0  0  0  0  0  0  0  0
  180.4300  172.9730  137.5930 C   0  0  0  0  0  3  0  0  0  0  0  0
  183.3460  176.1970  137.7640 C   0  0  2  0  0  3  0  0  0  0  0  0
  179.9860  175.9190  137.1310 O   0  0  0  0  0  1  0  0  0  0  0  0
  181.9530  176.4570  138.3470 C   0  0  2  0  0  3  0  0  0  0  0  0
  189.6450  177.8500  142.4130 N   0  0  0  0  0  0  0  0  0  0  0  0
  187.9150  177.3070  144.0670 C   0  0  0  0  0  3  0  0  0  0  0  0
  185.5750  177.6330  143.5800 C   0  0  0  0  0  3  0  0  0  0  0  0
  187.2460  178.2310  141.9230 C   0  0  0  0  0  0  0  0  0  0  0  0
  185.8880  178.1550  142.3150 C   0  0  0  0  0  0  0  0  0  0  0  0
  187.5900  178.7290  140.6670 O   0  0  0  0  0  1  0  0  0  0  0  0
  186.5810  177.2160  144.4500 C   0  0  0  0  0  3  0  0  0  0  0  0
  188.2620  177.8080  142.8050 C   0  0  0  0  0  0  0  0  0  0  0  0
  183.9810  179.5930  139.3580 C   0  0  0  0  0  3  0  0  0  0  0  0
  184.7780  178.6270  141.4460 C   0  0  0  0  0  0  0  0  0  0  0  0
  183.4610  178.6510  141.9320 C   0  0  0  0  0  3  0  0  0  0  0  0
  182.4150  179.1330  141.1410 C   0  0  0  0  0  3  0  0  0  0  0  0
  185.0250  179.1050  140.1480 C   0  0  0  0  0  3  0  0  0  0  0  0
  182.6750  179.6080  139.8510 C   0  0  0  0  0  0  0  0  0  0  0  0
  180.5130  181.0440  139.2540 C   0  0  0  0  0  2  0  0  0  0  0  0
  181.6130  180.1270  139.0500 N   0  0  0  0  0  0  0  0  0  0  0  0
  180.0580  180.9310  137.9000 C   0  0  0  0  0  2  0  0  0  0  0  0
  181.1810  179.9810  137.6440 C   0  0  0  0  0  0  0  0  0  0  0  0
  181.5900  179.3280  136.6500 O   0  0  0  0  0  0  0  0  0  0  0  0
  190.4210  178.9960  142.6660 N   0  0  0  0  0  2  0  0  0  0  0  0
  190.3000  179.3230  144.0800 C   0  0  0  0  0  2  0  0  0  0  0  0
  191.3520  177.3390  145.5270 C   0  0  0  0  0  0  0  0  0  0  0  0
  190.8800  178.2350  144.8730 C   0  0  0  0  0  0  0  0  0  0  0  0
  191.9190  176.2550  146.3290 C   0  0  0  0  0  1  0  0  0  0  0  0
  1  6  1  0  0  0  0
  2  1  1  0  0  0  0
  2 13  1  0  0  0  0
  3 12  2  0  0  0  0
  4 11  2  0  0  0  0
  4 12  1  0  0  0  0
  5  4  1  0  0  0  0
  6  9  1  0  0  0  0
  6 47  1  1  0  0  0
  7  3  1  0  0  0  0
  8  1  2  0  0  0  0
 10  5  1  0  0  0  0
 10  7  2  0  0  0  0
 11  8  1  0  0  0  0
 12  2  1  0  0  0  0
 13  9  2  0  0  0  0
 14 15  1  0  0  0  0
 14 17  1  0  0  0  0
 15  7  1  0  0  0  0
 16 14  2  0  0  0  0
 18 17  1  0  0  0  0
 18 20  1  1  0  0  0
 20 19  1  0  0  0  0
 21 22  2  0  0  0  0
 22 23  1  0  0  0  0
 22 18  1  0  0  0  0
 24 26  1  0  0  0  0
 24 23  1  0  0  0  0
 25 24  1  0  0  0  0
 27 11  1  0  0  0  0
 28 29  1  0  0  0  0
 28 27  1  0  0  0  0
 29 31  1  0  0  0  0
 31 30  2  0  0  0  0
 31 32  1  0  0  0  0
 33 37  1  0  0  0  0
 33 32  1  0  0  0  0
 34 37  2  0  0  0  0
 34 35  1  0  0  0  0
 35 43  2  0  0  0  0
 36 42  1  0  0  0  0
 37 41  1  0  0  0  0
 39 41  1  0  0  0  0
 39 44  1  0  0  0  0
 41 36  2  0  0  0  0
 42 46  1  0  0  0  0
 42 38  1  1  0  0  0
 43 36  1  0  0  0  0
 44 46  1  0  0  0  0
 44 40  1  1  0  0  0
 45 42  1  0  0  0  0
 46 40  1  1  0  0  0
 47 66  1  0  0  0  0
 47 54  1  0  0  0  0
 48 53  1  0  0  0  0
 49 53  2  0  0  0  0
 50 51  2  0  0  0  0
 50 54  1  0  0  0  0
 51 49  1  0  0  0  0
 52 50  1  0  0  0  0
 54 48  2  0  0  0  0
 55 60  2  0  0  0  0
 55 59  1  0  0  0  0
 56 57  1  0  0  0  0
 56 51  1  0  0  0  0
 58 57  2  0  0  0  0
 59 56  2  0  0  0  0
 60 58  1  0  0  0  0
 62 61  1  0  0  0  0
 62 60  1  0  0  0  0
 63 61  1  0  0  0  0
 64 63  1  0  0  0  0
 64 62  1  0  0  0  0
 65 64  2  0  0  0  0
 66 67  1  0  0  0  0
 67 69  1  0  0  0  0
 68 70  1  0  0  0  0
 69 68  3  0  0  0  0
M  END
>  <MODEL>
1

>  <REMARK>
 VINA RESULT:      -6.7      0.000      0.000
  Name = 
  20 active torsions:
  status: ('A' for Active; 'I' for Inactive)
    1  A    between atoms: O_7  and  C_47
    2  A    between atoms: O_7  and  C_62
    3  A    between atoms: N_8  and  C_39
    4  A    between atoms: N_8  and  N_53
    5  A    between atoms: N_12  and  C_69
    6  A    between atoms: C_13  and  C_15
    7  A    between atoms: C_13  and  C_27
    8  A    between atoms: C_18  and  C_44
    9  A    between atoms: C_19  and  C_67
   10  A    between atoms: C_20  and  CA_60
   11  A    between atoms: C_25  and  C_47
   12  A    between atoms: C_25  and  C_52
   13  A    between atoms: C_27  and  CA_60
   14  A    between atoms: C_29  and  N_53
   15  A    between atoms: C_30  and  C_39
   16  A    between atoms: N_32  and  C_40
   17  A    between atoms: N_38  and  C_62
   18  A    between atoms: N_38  and  C_67
   19  A    between atoms: N_50  and  CA_60
   20  A    between atoms: N_53  and  C_58
                            x       y       z     vdW  Elec       q    Type
                         _______ _______ _______ _____ _____    ______ ____

>  <TORSDO>
F 20

$$$$
=
 OpenBabel10232410273D

 70 78  0  0  1  0  0  0  0  0999 V2000
  190.2130  176.6840  140.3430 C   0  0  0  0  0  0  0  0  0  0  0  0
  191.4750  176.8150  139.7290 N   0  0  0  0  0  0  0  0  0  0  0  0
  192.8230  176.6230  137.7330 C   0  0  0  0  0  3  0  0  0  0  0  0
  190.3930  176.4110  137.5150 C   0  0  0  0  0  0  0  0  0  0  0  0
  190.4880  176.3390  136.0130 C   0  0  0  0  0  2  0  0  0  0  0  0
  190.2950  176.6930  141.8230 C   0  0  1  0  0  3  0  0  0  0  0  0
  192.9710  176.3270  136.2920 C   0  0  0  0  0  0  0  0  0  0  0  0
  189.1210  176.4130  139.6270 C   0  0  0  0  0  3  0  0  0  0  0  0
  191.8110  176.6790  142.0830 C   0  0  0  0  0  3  0  0  0  0  0  0
  191.8960  176.1350  135.5230 C   0  0  0  0  0  3  0  0  0  0  0  0
  189.2030  176.3040  138.1490 C   0  0  0  0  0  0  0  0  0  0  0  0
  191.6210  176.6570  138.3120 C   0  0  0  0  0  0  0  0  0  0  0  0
  192.5250  176.8650  140.7280 C   0  0  0  0  0  3  0  0  0  0  0  0
  194.9770  174.8590  135.7590 C   0  0  0  0  0  0  0  0  0  0  0  0
  194.2630  176.0990  135.7200 N   0  0  0  0  0  2  0  0  0  0  0  0
  195.9650  174.6990  134.9940 O   0  0  0  0  0  0  0  0  0  0  0  0
  194.6160  173.8450  136.7100 N   0  0  0  0  0  2  0  0  0  0  0  0
  195.2470  172.5340  136.8670 C   0  0  1  0  0  3  0  0  0  0  0  0
  193.8170  171.7470  135.0780 O   0  0  0  0  0  1  0  0  0  0  0  0
  195.0970  171.6490  135.6300 C   0  0  0  0  0  2  0  0  0  0  0  0
  197.4880  171.7800  137.1140 O   0  0  0  0  0  0  0  0  0  0  0  0
  196.6460  172.6110  137.4220 C   0  0  0  0  0  0  0  0  0  0  0  0
  197.0180  173.7090  138.3670 C   0  0  0  0  0  2  0  0  0  0  0  0
  198.2490  174.4580  137.8780 C   0  0  0  0  0  3  0  0  0  0  0  0
  199.1320  174.6180  138.9400 O   0  0  0  0  0  1  0  0  0  0  0  0
  197.8780  175.7160  137.3940 O   0  0  0  0  0  1  0  0  0  0  0  0
  187.9480  176.0010  137.3920 C   0  0  0  0  0  2  0  0  0  0  0  0
  188.1150  174.7700  136.5210 C   0  0  0  0  0  2  0  0  0  0  0  0
  187.1120  173.8140  136.8380 O   0  0  0  0  0  0  0  0  0  0  0  0
  188.4190  172.0100  135.4790 S   0  0  0  0  0  0  0  0  0  0  0  0
  187.0750  172.5520  136.2450 C   0  0  0  0  0  0  0  0  0  0  0  0
  185.8830  171.7590  136.3140 N   0  0  0  0  0  2  0  0  0  0  0  0
  184.7740  171.8550  135.3760 C   0  0  0  0  0  2  0  0  0  0  0  0
  182.6100  171.4060  136.5340 C   0  0  0  0  0  3  0  0  0  0  0  0
  181.4620  171.8260  137.2020 C   0  0  0  0  0  3  0  0  0  0  0  0
  182.1680  174.1430  136.9550 C   0  0  0  0  0  0  0  0  0  0  0  0
  183.5390  172.3380  136.0700 C   0  0  0  0  0  0  0  0  0  0  0  0
  181.3390  175.9080  138.4930 C   0  0  0  0  0  1  0  0  0  0  0  0
  184.2310  174.6400  135.7730 O   0  0  0  0  0  0  0  0  0  0  0  0
  184.2840  176.2420  137.5830 C   0  0  0  0  0  2  0  0  0  0  0  0
  183.3130  173.7120  136.2690 C   0  0  0  0  0  0  0  0  0  0  0  0
  181.8480  175.6130  137.0890 C   0  0  2  0  0  0  0  0  0  0  0  0
  181.2400  173.1890  137.4050 C   0  0  0  0  0  3  0  0  0  0  0  0
  184.2490  176.0360  136.0760 C   0  0  2  0  0  3  0  0  0  0  0  0
  180.8230  175.9160  136.1910 O   0  0  0  0  0  1  0  0  0  0  0  0
  183.0170  176.5800  136.8060 C   0  0  2  0  0  3  0  0  0  0  0  0
  189.6750  177.9020  142.3740 N   0  0  0  0  0  0  0  0  0  0  0  0
  187.9130  177.4050  144.0080 C   0  0  0  0  0  3  0  0  0  0  0  0
  185.5840  177.7360  143.4750 C   0  0  0  0  0  3  0  0  0  0  0  0
  187.2880  178.2880  141.8340 C   0  0  0  0  0  0  0  0  0  0  0  0
  185.9230  178.2290  142.2040 C   0  0  0  0  0  0  0  0  0  0  0  0
  187.6560  178.7560  140.5750 O   0  0  0  0  0  1  0  0  0  0  0  0
  186.5720  177.3310  144.3700 C   0  0  0  0  0  3  0  0  0  0  0  0
  188.2850  177.8770  142.7420 C   0  0  0  0  0  0  0  0  0  0  0  0
  182.4630  178.9060  140.7820 C   0  0  0  0  0  3  0  0  0  0  0  0
  184.8300  178.6900  141.3060 C   0  0  0  0  0  0  0  0  0  0  0  0
  185.1350  179.2640  140.0620 C   0  0  0  0  0  3  0  0  0  0  0  0
  184.1170  179.6610  139.1900 C   0  0  0  0  0  3  0  0  0  0  0  0
  183.4810  178.5150  141.6560 C   0  0  0  0  0  3  0  0  0  0  0  0
  182.7770  179.4800  139.5490 C   0  0  0  0  0  0  0  0  0  0  0  0
  181.2680  179.4100  137.3560 C   0  0  0  0  0  2  0  0  0  0  0  0
  181.7360  179.8580  138.6490 N   0  0  0  0  0  0  0  0  0  0  0  0
  180.2030  180.3680  137.3150 C   0  0  0  0  0  2  0  0  0  0  0  0
  180.6500  180.8610  138.6510 C   0  0  0  0  0  0  0  0  0  0  0  0
  180.2660  181.7570  139.4460 O   0  0  0  0  0  0  0  0  0  0  0  0
  190.4630  179.0340  142.6500 N   0  0  0  0  0  2  0  0  0  0  0  0
  190.3310  179.3450  144.0660 C   0  0  0  0  0  2  0  0  0  0  0  0
  191.3620  177.3370  145.4940 C   0  0  0  0  0  0  0  0  0  0  0  0
  190.8950  178.2440  144.8520 C   0  0  0  0  0  0  0  0  0  0  0  0
  191.9250  176.2280  146.2660 C   0  0  0  0  0  1  0  0  0  0  0  0
  1  6  1  0  0  0  0
  2  1  1  0  0  0  0
  2 13  1  0  0  0  0
  3 12  2  0  0  0  0
  4 11  2  0  0  0  0
  4 12  1  0  0  0  0
  5  4  1  0  0  0  0
  6  9  1  0  0  0  0
  6 47  1  6  0  0  0
  7  3  1  0  0  0  0
  8  1  2  0  0  0  0
 10  5  1  0  0  0  0
 10  7  2  0  0  0  0
 11  8  1  0  0  0  0
 12  2  1  0  0  0  0
 13  9  2  0  0  0  0
 14 17  1  0  0  0  0
 15 14  1  0  0  0  0
 15  7  1  0  0  0  0
 16 14  2  0  0  0  0
 17 18  1  0  0  0  0
 18 20  1  6  0  0  0
 18 22  1  0  0  0  0
 19 20  1  0  0  0  0
 21 22  2  0  0  0  0
 22 23  1  0  0  0  0
 24 23  1  0  0  0  0
 24 25  1  0  0  0  0
 26 24  1  0  0  0  0
 27 11  1  0  0  0  0
 28 29  1  0  0  0  0
 28 27  1  0  0  0  0
 30 31  2  0  0  0  0
 31 32  1  0  0  0  0
 31 29  1  0  0  0  0
 33 37  1  0  0  0  0
 33 32  1  0  0  0  0
 34 35  1  0  0  0  0
 35 43  2  0  0  0  0
 36 42  1  0  0  0  0
 36 43  1  0  0  0  0
 37 41  1  0  0  0  0
 37 34  2  0  0  0  0
 39 44  1  0  0  0  0
 39 41  1  0  0  0  0
 41 36  2  0  0  0  0
 42 38  1  1  0  0  0
 44 46  1  0  0  0  0
 44 40  1  1  0  0  0
 45 42  1  0  0  0  0
 46 42  1  0  0  0  0
 46 40  1  1  0  0  0
 47 66  1  0  0  0  0
 47 54  1  0  0  0  0
 48 53  1  0  0  0  0
 49 53  2  0  0  0  0
 50 51  2  0  0  0  0
 50 54  1  0  0  0  0
 51 49  1  0  0  0  0
 52 50  1  0  0  0  0
 54 48  2  0  0  0  0
 55 59  1  0  0  0  0
 56 59  2  0  0  0  0
 56 51  1  0  0  0  0
 57 56  1  0  0  0  0
 58 60  1  0  0  0  0
 58 57  2  0  0  0  0
 60 55  2  0  0  0  0
 61 62  1  0  0  0  0
 62 64  1  0  0  0  0
 62 60  1  0  0  0  0
 63 61  1  0  0  0  0
 63 64  1  0  0  0  0
 64 65  2  0  0  0  0
 66 67  1  0  0  0  0
 67 69  1  0  0  0  0
 68 70  1  0  0  0  0
 69 68  3  0  0  0  0
M  END
>  <MODEL>
2

>  <REMARK>
 VINA RESULT:      -6.5      1.211      2.242
  Name = 
  20 active torsions:
  status: ('A' for Active; 'I' for Inactive)
    1  A    between atoms: O_7  and  C_47
    2  A    between atoms: O_7  and  C_62
    3  A    between atoms: N_8  and  C_39
    4  A    between atoms: N_8  and  N_53
    5  A    between atoms: N_12  and  C_69
    6  A    between atoms: C_13  and  C_15
    7  A    between atoms: C_13  and  C_27
    8  A    between atoms: C_18  and  C_44
    9  A    between atoms: C_19  and  C_67
   10  A    between atoms: C_20  and  CA_60
   11  A    between atoms: C_25  and  C_47
   12  A    between atoms: C_25  and  C_52
   13  A    between atoms: C_27  and  CA_60
   14  A    between atoms: C_29  and  N_53
   15  A    between atoms: C_30  and  C_39
   16  A    between atoms: N_32  and  C_40
   17  A    between atoms: N_38  and  C_62
   18  A    between atoms: N_38  and  C_67
   19  A    between atoms: N_50  and  CA_60
   20  A    between atoms: N_53  and  C_58
                            x       y       z     vdW  Elec       q    Type
                         _______ _______ _______ _____ _____    ______ ____

>  <TORSDO>
F 20

$$$$
=
 OpenBabel10232410273D

 70 78  0  0  1  0  0  0  0  0999 V2000
  186.7530  176.7290  138.2070 C   0  0  0  0  0  0  0  0  0  0  0  0
  185.6700  176.0150  137.6540 N   0  0  0  0  0  0  0  0  0  0  0  0
  183.2830  175.6690  137.5260 C   0  0  0  0  0  3  0  0  0  0  0  0
  184.1060  177.6390  138.7260 C   0  0  0  0  0  0  0  0  0  0  0  0
  182.7050  178.1530  138.9340 C   0  0  0  0  0  3  0  0  0  0  0  0
  188.0540  176.0550  137.9860 C   0  0  1  0  0  3  0  0  0  0  0  0
  181.9000  176.0220  137.9090 C   0  0  0  0  0  0  0  0  0  0  0  0
  186.5530  177.7970  138.9800 C   0  0  0  0  0  3  0  0  0  0  0  0
  187.6420  174.7130  137.3560 C   0  0  0  0  0  3  0  0  0  0  0  0
  181.6500  177.1310  138.6100 C   0  0  0  0  0  3  0  0  0  0  0  0
  185.1770  178.2960  139.2260 C   0  0  0  0  0  0  0  0  0  0  0  0
  184.3200  176.4170  137.9090 C   0  0  1  0  0  3  0  0  0  0  0  0
  186.1290  174.7730  137.0630 C   0  0  0  0  0  3  0  0  0  0  0  0
  180.9310  173.8570  136.9930 C   0  0  0  0  0  0  0  0  0  0  0  0
  180.8180  175.1170  137.6640 N   0  0  0  0  0  2  0  0  0  0  0  0
  179.9820  173.0330  137.0800 O   0  0  0  0  0  0  0  0  0  0  0  0
  182.0750  173.5720  136.1740 N   0  0  0  0  0  2  0  0  0  0  0  0
  182.3310  172.3370  135.4330 C   0  0  1  0  0  3  0  0  0  0  0  0
  180.7670  170.6080  134.7800 O   0  0  0  0  0  1  0  0  0  0  0  0
  181.1610  171.9260  134.5390 C   0  0  0  0  0  2  0  0  0  0  0  0
  184.1880  173.3500  134.3460 O   0  0  0  0  0  0  0  0  0  0  0  0
  183.6780  172.3180  134.7570 C   0  0  0  0  0  0  0  0  0  0  0  0
  184.4070  171.0240  134.5760 C   0  0  0  0  0  2  0  0  0  0  0  0
  185.7140  171.0180  135.3540 C   0  0  0  0  0  3  0  0  0  0  0  0
  185.5570  171.7820  136.5050 O   0  0  0  0  0  1  0  0  0  0  0  0
  186.7340  171.5670  134.5720 O   0  0  0  0  0  1  0  0  0  0  0  0
  185.0060  179.5000  140.0980 C   0  0  0  0  0  2  0  0  0  0  0  0
  185.6570  179.2930  141.4530 C   0  0  0  0  0  2  0  0  0  0  0  0
  184.8860  178.3820  142.2260 O   0  0  0  0  0  0  0  0  0  0  0  0
  183.5970  179.3420  144.2820 S   0  0  0  0  0  0  0  0  0  0  0  0
  184.8120  178.4660  143.6170 C   0  0  0  0  0  0  0  0  0  0  0  0
  185.7810  177.7940  144.4310 N   0  0  0  0  0  2  0  0  0  0  0  0
  186.2640  178.2870  145.7130 C   0  0  0  0  0  2  0  0  0  0  0  0
  188.0730  177.5280  147.2540 C   0  0  0  0  0  3  0  0  0  0  0  0
  189.3700  177.0850  147.5050 C   0  0  0  0  0  3  0  0  0  0  0  0
  189.8830  177.2470  145.1300 C   0  0  0  0  0  0  0  0  0  0  0  0
  187.6700  177.8360  145.9530 C   0  0  0  0  0  0  0  0  0  0  0  0
  191.7220  175.9180  144.1210 C   0  0  0  0  0  1  0  0  0  0  0  0
  188.1790  178.0490  143.5960 O   0  0  0  0  0  0  0  0  0  0  0  0
  189.2320  176.2910  142.3120 C   0  0  0  0  0  2  0  0  0  0  0  0
  188.5800  177.7080  144.8880 C   0  0  0  0  0  0  0  0  0  0  0  0
  190.9100  177.2020  144.0230 C   0  0  2  0  0  0  0  0  0  0  0  0
  190.2720  176.9520  146.4480 C   0  0  0  0  0  3  0  0  0  0  0  0
  188.9100  177.7760  142.3990 C   0  0  2  0  0  3  0  0  0  0  0  0
  191.7860  178.2750  144.2020 O   0  0  0  0  0  1  0  0  0  0  0  0
  190.3510  177.2900  142.5880 C   0  0  2  0  0  3  0  0  0  0  0  0
  188.8980  176.8310  137.0740 N   0  0  0  0  0  0  0  0  0  0  0  0
  189.6370  175.6270  135.0670 C   0  0  0  0  0  3  0  0  0  0  0  0
  191.8890  174.7850  134.8720 C   0  0  0  0  0  3  0  0  0  0  0  0
  191.2260  176.0100  136.8620 C   0  0  0  0  0  0  0  0  0  0  0  0
  192.2220  175.3240  136.1250 C   0  0  0  0  0  0  0  0  0  0  0  0
  191.5200  176.5420  138.1160 O   0  0  0  0  0  1  0  0  0  0  0  0
  190.6080  174.9390  134.3460 C   0  0  0  0  0  3  0  0  0  0  0  0
  189.9310  176.1640  136.3280 C   0  0  0  0  0  0  0  0  0  0  0  0
  196.0160  175.4550  136.3210 C   0  0  0  0  0  3  0  0  0  0  0  0
  193.6170  175.1690  136.6180 C   0  0  0  0  0  0  0  0  0  0  0  0
  193.8700  174.4890  137.8200 C   0  0  0  0  0  3  0  0  0  0  0  0
  195.1790  174.2990  138.2710 C   0  0  0  0  0  3  0  0  0  0  0  0
  194.7070  175.6500  135.8740 C   0  0  0  0  0  3  0  0  0  0  0  0
  196.2560  174.7820  137.5200 C   0  0  0  0  0  0  0  0  0  0  0  0
  198.7920  173.9800  137.4010 C   0  0  0  0  0  2  0  0  0  0  0  0
  197.5950  174.5640  137.9640 N   0  0  0  0  0  0  0  0  0  0  0  0
  199.5750  174.2510  138.5710 C   0  0  0  0  0  2  0  0  0  0  0  0
  198.3640  174.8650  139.1900 C   0  0  0  0  0  0  0  0  0  0  0  0
  198.1030  175.4100  140.2930 O   0  0  0  0  0  0  0  0  0  0  0  0
  188.6210  178.1910  136.8430 N   0  0  0  0  0  2  0  0  0  0  0  0
  188.4460  178.3820  135.4100 C   0  0  0  0  0  2  0  0  0  0  0  0
  185.8940  177.9090  134.7770 C   0  0  0  0  0  0  0  0  0  0  0  0
  187.0460  178.1200  135.0610 C   0  0  0  0  0  0  0  0  0  0  0  0
  184.4920  177.6520  134.4430 C   0  0  0  0  0  1  0  0  0  0  0  0
  1  8  2  0  0  0  0
  2 12  1  0  0  0  0
  2  1  1  0  0  0  0
  3  7  2  0  0  0  0
  4  5  1  0  0  0  0
  4 11  2  0  0  0  0
  6 47  1  6  0  0  0
  6  1  1  0  0  0  0
  7 10  1  0  0  0  0
  8 11  1  0  0  0  0
  9  6  1  0  0  0  0
 10  5  2  0  0  0  0
 11 27  1  0  0  0  0
 12  3  1  1  0  0  0
 12  4  1  0  0  0  0
 13  9  2  0  0  0  0
 13  2  1  0  0  0  0
 14 16  2  0  0  0  0
 14 15  1  0  0  0  0
 15  7  1  0  0  0  0
 17 14  1  0  0  0  0
 18 20  1  6  0  0  0
 18 17  1  0  0  0  0
 20 19  1  0  0  0  0
 21 22  2  0  0  0  0
 22 18  1  0  0  0  0
 23 22  1  0  0  0  0
 23 24  1  0  0  0  0
 24 25  1  0  0  0  0
 26 24  1  0  0  0  0
 27 28  1  0  0  0  0
 28 29  1  0  0  0  0
 29 31  1  0  0  0  0
 31 30  2  0  0  0  0
 31 32  1  0  0  0  0
 32 33  1  0  0  0  0
 33 37  1  0  0  0  0
 34 35  1  0  0  0  0
 36 43  1  0  0  0  0
 37 34  2  0  0  0  0
 39 41  1  0  0  0  0
 41 36  2  0  0  0  0
 41 37  1  0  0  0  0
 42 38  1  1  0  0  0
 42 45  1  0  0  0  0
 42 36  1  0  0  0  0
 43 35  2  0  0  0  0
 44 40  1  1  0  0  0
 44 46  1  0  0  0  0
 44 39  1  0  0  0  0
 46 40  1  1  0  0  0
 46 42  1  0  0  0  0
 48 54  1  0  0  0  0
 49 51  2  0  0  0  0
 50 52  1  0  0  0  0
 51 56  1  0  0  0  0
 51 50  1  0  0  0  0
 53 49  1  0  0  0  0
 53 48  2  0  0  0  0
 54 50  2  0  0  0  0
 54 47  1  0  0  0  0
 55 60  1  0  0  0  0
 56 57  2  0  0  0  0
 57 58  1  0  0  0  0
 59 55  2  0  0  0  0
 59 56  1  0  0  0  0
 60 62  1  0  0  0  0
 60 58  2  0  0  0  0
 61 62  1  0  0  0  0
 61 63  1  0  0  0  0
 62 64  1  0  0  0  0
 63 64  1  0  0  0  0
 64 65  2  0  0  0  0
 66 47  1  0  0  0  0
 67 66  1  0  0  0  0
 68 69  3  0  0  0  0
 69 67  1  0  0  0  0
 70 68  1  0  0  0  0
M  END
>  <MODEL>
3

>  <REMARK>
 VINA RESULT:      -6.3      3.099     11.194
  Name = 
  20 active torsions:
  status: ('A' for Active; 'I' for Inactive)
    1  A    between atoms: O_7  and  C_47
    2  A    between atoms: O_7  and  C_62
    3  A    between atoms: N_8  and  C_39
    4  A    between atoms: N_8  and  N_53
    5  A    between atoms: N_12  and  C_69
    6  A    between atoms: C_13  and  C_15
    7  A    between atoms: C_13  and  C_27
    8  A    between atoms: C_18  and  C_44
    9  A    between atoms: C_19  and  C_67
   10  A    between atoms: C_20  and  CA_60
   11  A    between atoms: C_25  and  C_47
   12  A    between atoms: C_25  and  C_52
   13  A    between atoms: C_27  and  CA_60
   14  A    between atoms: C_29  and  N_53
   15  A    between atoms: C_30  and  C_39
   16  A    between atoms: N_32  and  C_40
   17  A    between atoms: N_38  and  C_62
   18  A    between atoms: N_38  and  C_67
   19  A    between atoms: N_50  and  CA_60
   20  A    between atoms: N_53  and  C_58
                            x       y       z     vdW  Elec       q    Type
                         _______ _______ _______ _____ _____    ______ ____

>  <TORSDO>
F 20

$$$$
=
 OpenBabel10232410273D

 70 78  0  0  1  0  0  0  0  0999 V2000
  187.1090  176.8050  137.8970 C   0  0  0  0  0  0  0  0  0  0  0  0
  186.1620  176.8630  136.8540 N   0  0  0  0  0  0  0  0  0  0  0  0
  183.9460  177.4810  136.1190 C   0  0  0  0  0  3  0  0  0  0  0  0
  184.6860  178.2350  138.3290 C   0  0  0  0  0  0  0  0  0  0  0  0
  183.4320  179.0480  138.5210 C   0  0  0  0  0  3  0  0  0  0  0  0
  188.2440  175.9030  137.5890 C   0  0  1  0  0  3  0  0  0  0  0  0
  182.6150  178.0760  136.3700 C   0  0  0  0  0  0  0  0  0  0  0  0
  186.8760  177.3850  139.0760 C   0  0  0  0  0  3  0  0  0  0  0  0
  187.8120  175.2510  136.2630 C   0  0  0  0  0  3  0  0  0  0  0  0
  182.3700  178.7390  137.5030 C   0  0  0  0  0  3  0  0  0  0  0  0
  185.6290  178.1600  139.2950 C   0  0  0  0  0  0  0  0  0  0  0  0
  184.9160  177.5460  137.0330 C   0  0  1  0  0  3  0  0  0  0  0  0
  186.5360  175.9670  135.7770 C   0  0  0  0  0  3  0  0  0  0  0  0
  181.1090  176.5480  135.0060 C   0  0  0  0  0  0  0  0  0  0  0  0
  181.5250  177.8350  135.4740 N   0  0  0  0  0  2  0  0  0  0  0  0
  179.9840  176.4340  134.4520 O   0  0  0  0  0  0  0  0  0  0  0  0
  181.9960  175.4220  135.0990 N   0  0  0  0  0  2  0  0  0  0  0  0
  181.7140  174.0530  134.6680 C   0  0  1  0  0  3  0  0  0  0  0  0
  184.0850  173.7430  135.0470 O   0  0  0  0  0  1  0  0  0  0  0  0
  182.9790  173.2570  134.3470 C   0  0  0  0  0  2  0  0  0  0  0  0
  180.1220  173.9450  136.4310 O   0  0  0  0  0  0  0  0  0  0  0  0
  180.7300  173.3400  135.5600 C   0  0  0  0  0  0  0  0  0  0  0  0
  180.4920  171.8730  135.3910 C   0  0  0  0  0  2  0  0  0  0  0  0
  180.9410  171.1000  136.6230 C   0  0  0  0  0  3  0  0  0  0  0  0
  180.1950  171.5240  137.7170 O   0  0  0  0  0  1  0  0  0  0  0  0
  182.2950  171.3410  136.8680 O   0  0  0  0  0  1  0  0  0  0  0  0
  185.4160  178.7920  140.6340 C   0  0  0  0  0  2  0  0  0  0  0  0
  184.4630  177.9720  141.4830 C   0  0  0  0  0  2  0  0  0  0  0  0
  183.7180  178.8290  142.3390 O   0  0  0  0  0  0  0  0  0  0  0  0
  182.6850  179.4520  144.6530 S   0  0  0  0  0  0  0  0  0  0  0  0
  183.8770  178.8160  143.7250 C   0  0  0  0  0  0  0  0  0  0  0  0
  185.0590  178.2540  144.3080 N   0  0  0  0  0  2  0  0  0  0  0  0
  185.1920  177.8920  145.7120 C   0  0  0  0  0  2  0  0  0  0  0  0
  186.9510  178.0040  147.4780 C   0  0  0  0  0  3  0  0  0  0  0  0
  188.2820  177.9940  147.8910 C   0  0  0  0  0  3  0  0  0  0  0  0
  188.9980  177.7680  145.5750 C   0  0  0  0  0  0  0  0  0  0  0  0
  186.6310  177.9010  146.1230 C   0  0  0  0  0  0  0  0  0  0  0  0
  191.2130  176.7990  145.0050 C   0  0  0  0  0  1  0  0  0  0  0  0
  187.3290  177.7250  143.8110 O   0  0  0  0  0  0  0  0  0  0  0  0
  188.9250  176.0820  143.0390 C   0  0  0  0  0  2  0  0  0  0  0  0
  187.6560  177.7950  145.1660 C   0  0  0  0  0  0  0  0  0  0  0  0
  190.1200  177.7620  144.5630 C   0  0  2  0  0  0  0  0  0  0  0  0
  189.3000  177.8830  146.9430 C   0  0  0  0  0  3  0  0  0  0  0  0
  188.2330  177.4060  142.7520 C   0  0  2  0  0  3  0  0  0  0  0  0
  190.6720  179.0440  144.5230 O   0  0  0  0  0  1  0  0  0  0  0  0
  189.7190  177.3810  143.1220 C   0  0  2  0  0  3  0  0  0  0  0  0
  189.4870  176.6610  137.4240 N   0  0  0  0  0  0  0  0  0  0  0  0
  190.6780  176.7530  135.2810 C   0  0  0  0  0  3  0  0  0  0  0  0
  192.4240  175.1750  134.7530 C   0  0  0  0  0  3  0  0  0  0  0  0
  191.3110  175.0650  136.9080 C   0  0  0  0  0  0  0  0  0  0  0  0
  192.2890  174.5700  136.0120 C   0  0  0  0  0  0  0  0  0  0  0  0
  191.1400  174.4770  138.1590 O   0  0  0  0  0  1  0  0  0  0  0  0
  191.6280  176.2600  134.3910 C   0  0  0  0  0  3  0  0  0  0  0  0
  190.5060  176.1630  136.5400 C   0  0  0  0  0  0  0  0  0  0  0  0
  193.9500  171.1510  136.0500 C   0  0  0  0  0  3  0  0  0  0  0  0
  193.1960  173.4450  136.3620 C   0  0  0  0  0  0  0  0  0  0  0  0
  194.1070  173.5750  137.4220 C   0  0  0  0  0  3  0  0  0  0  0  0
  194.9340  172.5100  137.7890 C   0  0  0  0  0  3  0  0  0  0  0  0
  193.1280  172.2190  135.6800 C   0  0  0  0  0  3  0  0  0  0  0  0
  194.8560  171.2940  137.1030 C   0  0  0  0  0  0  0  0  0  0  0  0
  197.0930  169.9830  137.7080 C   0  0  0  0  0  2  0  0  0  0  0  0
  195.6790  170.1950  137.4930 N   0  0  0  0  0  0  0  0  0  0  0  0
  196.9160  168.6120  138.0870 C   0  0  0  0  0  2  0  0  0  0  0  0
  195.4480  168.7870  137.8800 C   0  0  0  0  0  0  0  0  0  0  0  0
  194.4370  168.0470  137.9870 O   0  0  0  0  0  0  0  0  0  0  0  0
  189.6300  177.9210  138.0340 N   0  0  0  0  0  2  0  0  0  0  0  0
  189.9740  177.7120  139.4330 C   0  0  0  0  0  2  0  0  0  0  0  0
  192.6020  177.2750  139.6240 C   0  0  0  0  0  0  0  0  0  0  0  0
  191.4160  177.4730  139.5400 C   0  0  0  0  0  0  0  0  0  0  0  0
  194.0400  177.0230  139.7230 C   0  0  0  0  0  1  0  0  0  0  0  0
  1  8  2  0  0  0  0
  2 12  1  0  0  0  0
  2  1  1  0  0  0  0
  3  7  2  0  0  0  0
  4  5  1  0  0  0  0
  4 11  2  0  0  0  0
  6 47  1  6  0  0  0
  6  1  1  0  0  0  0
  7 10  1  0  0  0  0
  8 11  1  0  0  0  0
  9  6  1  0  0  0  0
 10  5  2  0  0  0  0
 11 27  1  0  0  0  0
 12  3  1  1  0  0  0
 12  4  1  0  0  0  0
 13  9  2  0  0  0  0
 13  2  1  0  0  0  0
 14 17  1  0  0  0  0
 14 15  1  0  0  0  0
 15  7  1  0  0  0  0
 16 14  2  0  0  0  0
 18 20  1  1  0  0  0
 18 17  1  0  0  0  0
 18 22  1  0  0  0  0
 20 19  1  0  0  0  0
 22 21  2  0  0  0  0
 23 22  1  0  0  0  0
 23 24  1  0  0  0  0
 24 26  1  0  0  0  0
 24 25  1  0  0  0  0
 27 28  1  0  0  0  0
 28 29  1  0  0  0  0
 29 31  1  0  0  0  0
 31 32  1  0  0  0  0
 31 30  2  0  0  0  0
 32 33  1  0  0  0  0
 33 37  1  0  0  0  0
 34 35  1  0  0  0  0
 36 43  1  0  0  0  0
 37 34  2  0  0  0  0
 39 41  1  0  0  0  0
 41 36  2  0  0  0  0
 41 37  1  0  0  0  0
 42 38  1  1  0  0  0
 42 36  1  0  0  0  0
 43 35  2  0  0  0  0
 44 40  1  1  0  0  0
 44 46  1  0  0  0  0
 44 39  1  0  0  0  0
 45 42  1  0  0  0  0
 46 40  1  1  0  0  0
 46 42  1  0  0  0  0
 47 66  1  0  0  0  0
 48 54  1  0  0  0  0
 49 51  2  0  0  0  0
 50 52  1  0  0  0  0
 51 56  1  0  0  0  0
 51 50  1  0  0  0  0
 53 49  1  0  0  0  0
 53 48  2  0  0  0  0
 54 50  2  0  0  0  0
 54 47  1  0  0  0  0
 55 60  1  0  0  0  0
 56 57  2  0  0  0  0
 57 58  1  0  0  0  0
 59 55  2  0  0  0  0
 59 56  1  0  0  0  0
 60 62  1  0  0  0  0
 60 58  2  0  0  0  0
 61 63  1  0  0  0  0
 62 61  1  0  0  0  0
 62 64  1  0  0  0  0
 64 65  2  0  0  0  0
 64 63  1  0  0  0  0
 66 67  1  0  0  0  0
 67 69  1  0  0  0  0
 68 70  1  0  0  0  0
 69 68  3  0  0  0  0
M  END
>  <MODEL>
4

>  <REMARK>
 VINA RESULT:      -5.9      2.984     11.218
  Name = 
  20 active torsions:
  status: ('A' for Active; 'I' for Inactive)
    1  A    between atoms: O_7  and  C_47
    2  A    between atoms: O_7  and  C_62
    3  A    between atoms: N_8  and  C_39
    4  A    between atoms: N_8  and  N_53
    5  A    between atoms: N_12  and  C_69
    6  A    between atoms: C_13  and  C_15
    7  A    between atoms: C_13  and  C_27
    8  A    between atoms: C_18  and  C_44
    9  A    between atoms: C_19  and  C_67
   10  A    between atoms: C_20  and  CA_60
   11  A    between atoms: C_25  and  C_47
   12  A    between atoms: C_25  and  C_52
   13  A    between atoms: C_27  and  CA_60
   14  A    between atoms: C_29  and  N_53
   15  A    between atoms: C_30  and  C_39
   16  A    between atoms: N_32  and  C_40
   17  A    between atoms: N_38  and  C_62
   18  A    between atoms: N_38  and  C_67
   19  A    between atoms: N_50  and  CA_60
   20  A    between atoms: N_53  and  C_58
                            x       y       z     vdW  Elec       q    Type
                         _______ _______ _______ _____ _____    ______ ____

>  <TORSDO>
F 20

$$$$
=
 OpenBabel10232410273D

 70 78  0  0  1  0  0  0  0  0999 V2000
  189.4340  176.8070  140.9220 C   0  0  0  0  0  0  0  0  0  0  0  0
  190.8180  176.6630  140.6940 N   0  0  0  0  0  0  0  0  0  0  0  0
  192.6320  176.4460  139.1140 C   0  0  0  0  0  3  0  0  0  0  0  0
  190.4110  177.0180  138.2560 C   0  0  0  0  0  0  0  0  0  0  0  0
  190.9470  177.1980  136.8600 C   0  0  0  0  0  2  0  0  0  0  0  0
  189.0530  176.5190  142.3240 C   0  0  1  0  0  3  0  0  0  0  0  0
  193.1460  176.3900  137.7290 C   0  0  0  0  0  0  0  0  0  0  0  0
  188.5860  177.0130  139.9130 C   0  0  0  0  0  3  0  0  0  0  0  0
  190.3660  176.0020  142.9370 C   0  0  0  0  0  3  0  0  0  0  0  0
  192.3480  176.6750  136.6960 C   0  0  0  0  0  3  0  0  0  0  0  0
  189.0930  177.1580  138.5260 C   0  0  0  0  0  0  0  0  0  0  0  0
  191.3540  176.7330  139.3670 C   0  0  0  0  0  0  0  0  0  0  0  0
  191.4870  176.2110  141.8980 C   0  0  0  0  0  3  0  0  0  0  0  0
  194.7630  174.5800  136.9720 C   0  0  0  0  0  0  0  0  0  0  0  0
  194.4600  175.8940  137.4540 N   0  0  0  0  0  2  0  0  0  0  0  0
  195.9110  174.3510  136.5080 O   0  0  0  0  0  0  0  0  0  0  0  0
  193.7960  173.5250  137.0880 N   0  0  0  0  0  2  0  0  0  0  0  0
  193.9590  172.1410  136.6430 C   0  0  1  0  0  3  0  0  0  0  0  0
  192.9420  172.6820  134.5130 O   0  0  0  0  0  1  0  0  0  0  0  0
  194.0030  172.0070  135.1210 C   0  0  0  0  0  2  0  0  0  0  0  0
  195.8330  172.0070  138.1000 O   0  0  0  0  0  0  0  0  0  0  0  0
  195.0550  171.4070  137.3720 C   0  0  0  0  0  0  0  0  0  0  0  0
  195.2050  169.9280  137.2060 C   0  0  0  0  0  2  0  0  0  0  0  0
  194.8030  169.1910  138.4750 C   0  0  0  0  0  3  0  0  0  0  0  0
  195.6030  168.0630  138.6150 O   0  0  0  0  0  1  0  0  0  0  0  0
  193.4640  168.7980  138.3920 O   0  0  0  0  0  1  0  0  0  0  0  0
  188.1010  177.3910  137.4310 C   0  0  0  0  0  2  0  0  0  0  0  0
  188.0040  176.1890  136.5110 C   0  0  0  0  0  2  0  0  0  0  0  0
  188.0410  174.9900  137.2760 O   0  0  0  0  0  0  0  0  0  0  0  0
  189.4310  173.0330  136.2530 S   0  0  0  0  0  0  0  0  0  0  0  0
  188.0100  173.7290  136.6820 C   0  0  0  0  0  0  0  0  0  0  0  0
  186.7580  173.0690  136.4600 N   0  0  0  0  0  2  0  0  0  0  0  0
  185.9800  172.4070  137.4970 C   0  0  0  0  0  2  0  0  0  0  0  0
  183.8480  171.2740  136.8710 C   0  0  0  0  0  3  0  0  0  0  0  0
  182.4840  171.2900  136.5860 C   0  0  0  0  0  3  0  0  0  0  0  0
  182.4450  173.7020  136.9150 C   0  0  0  0  0  0  0  0  0  0  0  0
  184.5200  172.4590  137.1740 C   0  0  0  0  0  0  0  0  0  0  0  0
  180.3400  174.8830  137.5040 C   0  0  0  0  0  1  0  0  0  0  0  0
  184.5080  174.8640  137.4560 O   0  0  0  0  0  0  0  0  0  0  0  0
  182.8960  176.0180  138.8410 C   0  0  0  0  0  2  0  0  0  0  0  0
  183.8210  173.6800  137.1840 C   0  0  0  0  0  0  0  0  0  0  0  0
  181.6930  175.0090  136.8150 C   0  0  2  0  0  0  0  0  0  0  0  0
  181.7880  172.5000  136.6020 C   0  0  0  0  0  3  0  0  0  0  0  0
  183.9060  176.1350  137.7090 C   0  0  2  0  0  3  0  0  0  0  0  0
  181.4600  175.2720  135.4640 O   0  0  0  0  0  1  0  0  0  0  0  0
  182.4060  176.2380  137.4150 C   0  0  2  0  0  3  0  0  0  0  0  0
  188.5950  177.7340  143.0030 N   0  0  0  0  0  0  0  0  0  0  0  0
  186.6610  177.6930  144.5130 C   0  0  0  0  0  3  0  0  0  0  0  0
  184.4430  178.2080  143.7180 C   0  0  0  0  0  3  0  0  0  0  0  0
  186.3270  178.3090  142.1880 C   0  0  0  0  0  0  0  0  0  0  0  0
  184.9410  178.4640  142.4300 C   0  0  0  0  0  0  0  0  0  0  0  0
  186.8500  178.5390  140.9180 O   0  0  0  0  0  1  0  0  0  0  0  0
  185.2970  177.8290  144.7510 C   0  0  0  0  0  3  0  0  0  0  0  0
  187.1890  177.9260  143.2360 C   0  0  0  0  0  0  0  0  0  0  0  0
  181.7200  179.1630  140.5360 C   0  0  0  0  0  3  0  0  0  0  0  0
  183.9910  178.9100  141.3760 C   0  0  0  0  0  0  0  0  0  0  0  0
  184.4730  179.4150  140.1580 C   0  0  0  0  0  3  0  0  0  0  0  0
  183.5910  179.7950  139.1430 C   0  0  0  0  0  3  0  0  0  0  0  0
  182.6020  178.7890  141.5520 C   0  0  0  0  0  3  0  0  0  0  0  0
  182.2110  179.6680  139.3310 C   0  0  0  0  0  0  0  0  0  0  0  0
  180.2080  180.9570  138.1380 C   0  0  0  0  0  2  0  0  0  0  0  0
  181.3080  180.0290  138.2850 N   0  0  0  0  0  0  0  0  0  0  0  0
  179.9830  180.6030  136.7680 C   0  0  0  0  0  2  0  0  0  0  0  0
  181.1130  179.6340  136.8740 C   0  0  0  0  0  0  0  0  0  0  0  0
  181.6680  178.8200  136.0930 O   0  0  0  0  0  0  0  0  0  0  0  0
  189.5320  178.6440  143.5260 N   0  0  0  0  0  2  0  0  0  0  0  0
  189.3350  178.7220  144.9670 C   0  0  0  0  0  2  0  0  0  0  0  0
  191.0240  177.0370  146.1670 C   0  0  0  0  0  0  0  0  0  0  0  0
  190.2590  177.7950  145.6270 C   0  0  0  0  0  0  0  0  0  0  0  0
  191.9570  176.1140  146.8150 C   0  0  0  0  0  1  0  0  0  0  0  0
  1  6  1  0  0  0  0
  2  1  1  0  0  0  0
  2 13  1  0  0  0  0
  3 12  2  0  0  0  0
  4 11  2  0  0  0  0
  4 12  1  0  0  0  0
  5  4  1  0  0  0  0
  6  9  1  0  0  0  0
  6 47  1  1  0  0  0
  7  3  1  0  0  0  0
  8  1  2  0  0  0  0
 10  5  1  0  0  0  0
 10  7  2  0  0  0  0
 11  8  1  0  0  0  0
 12  2  1  0  0  0  0
 13  9  2  0  0  0  0
 14 17  1  0  0  0  0
 14 15  1  0  0  0  0
 15  7  1  0  0  0  0
 16 14  2  0  0  0  0
 18 20  1  6  0  0  0
 18 17  1  0  0  0  0
 18 22  1  0  0  0  0
 19 20  1  0  0  0  0
 22 21  2  0  0  0  0
 23 22  1  0  0  0  0
 23 24  1  0  0  0  0
 24 25  1  0  0  0  0
 26 24  1  0  0  0  0
 27 11  1  0  0  0  0
 28 29  1  0  0  0  0
 28 27  1  0  0  0  0
 30 31  2  0  0  0  0
 31 29  1  0  0  0  0
 32 31  1  0  0  0  0
 32 33  1  0  0  0  0
 34 37  1  0  0  0  0
 35 43  1  0  0  0  0
 35 34  2  0  0  0  0
 36 41  1  0  0  0  0
 37 41  2  0  0  0  0
 37 33  1  0  0  0  0
 39 44  1  0  0  0  0
 41 39  1  0  0  0  0
 42 36  1  0  0  0  0
 42 46  1  0  0  0  0
 42 38  1  1  0  0  0
 43 36  2  0  0  0  0
 44 40  1  1  0  0  0
 45 42  1  0  0  0  0
 46 44  1  0  0  0  0
 46 40  1  1  0  0  0
 47 54  1  0  0  0  0
 47 66  1  0  0  0  0
 48 53  1  0  0  0  0
 49 53  2  0  0  0  0
 50 51  2  0  0  0  0
 50 54  1  0  0  0  0
 51 49  1  0  0  0  0
 52 50  1  0  0  0  0
 54 48  2  0  0  0  0
 55 59  1  0  0  0  0
 56 59  2  0  0  0  0
 56 51  1  0  0  0  0
 57 56  1  0  0  0  0
 58 60  1  0  0  0  0
 58 57  2  0  0  0  0
 60 55  2  0  0  0  0
 61 62  1  0  0  0  0
 62 60  1  0  0  0  0
 63 64  1  0  0  0  0
 63 61  1  0  0  0  0
 64 62  1  0  0  0  0
 65 64  2  0  0  0  0
 66 67  1  0  0  0  0
 67 69  1  0  0  0  0
 68 70  1  0  0  0  0
 69 68  3  0  0  0  0
M  END
>  <MODEL>
5

>  <REMARK>
 VINA RESULT:      -5.6      1.347      2.040
  Name = 
  20 active torsions:
  status: ('A' for Active; 'I' for Inactive)
    1  A    between atoms: O_7  and  C_47
    2  A    between atoms: O_7  and  C_62
    3  A    between atoms: N_8  and  C_39
    4  A    between atoms: N_8  and  N_53
    5  A    between atoms: N_12  and  C_69
    6  A    between atoms: C_13  and  C_15
    7  A    between atoms: C_13  and  C_27
    8  A    between atoms: C_18  and  C_44
    9  A    between atoms: C_19  and  C_67
   10  A    between atoms: C_20  and  CA_60
   11  A    between atoms: C_25  and  C_47
   12  A    between atoms: C_25  and  C_52
   13  A    between atoms: C_27  and  CA_60
   14  A    between atoms: C_29  and  N_53
   15  A    between atoms: C_30  and  C_39
   16  A    between atoms: N_32  and  C_40
   17  A    between atoms: N_38  and  C_62
   18  A    between atoms: N_38  and  C_67
   19  A    between atoms: N_50  and  CA_60
   20  A    between atoms: N_53  and  C_58
                            x       y       z     vdW  Elec       q    Type
                         _______ _______ _______ _____ _____    ______ ____

>  <TORSDO>
F 20

$$$$
=
 OpenBabel10232410273D

 70 78  0  0  1  0  0  0  0  0999 V2000
  189.5100  176.8190  141.0900 C   0  0  0  0  0  0  0  0  0  0  0  0
  190.8830  176.6570  140.8190 N   0  0  0  0  0  0  0  0  0  0  0  0
  192.6480  176.4450  139.1840 C   0  0  0  0  0  3  0  0  0  0  0  0
  190.4130  177.0740  138.4030 C   0  0  0  0  0  0  0  0  0  0  0  0
  190.9130  177.2780  136.9960 C   0  0  0  0  0  2  0  0  0  0  0  0
  189.1630  176.5060  142.4970 C   0  0  1  0  0  3  0  0  0  0  0  0
  193.1200  176.4110  137.7830 C   0  0  0  0  0  0  0  0  0  0  0  0
  188.6370  177.0640  140.1110 C   0  0  0  0  0  3  0  0  0  0  0  0
  190.4840  175.9520  143.0590 C   0  0  0  0  0  3  0  0  0  0  0  0
  192.2990  176.7340  136.7810 C   0  0  0  0  0  3  0  0  0  0  0  0
  189.1070  177.2310  138.7140 C   0  0  0  0  0  0  0  0  0  0  0  0
  191.3820  176.7480  139.4800 C   0  0  0  0  0  0  0  0  0  0  0  0
  191.5780  176.1660  141.9940 C   0  0  0  0  0  3  0  0  0  0  0  0
  194.6870  174.5800  136.9730 C   0  0  0  0  0  0  0  0  0  0  0  0
  194.4170  175.8990  137.4590 N   0  0  0  0  0  2  0  0  0  0  0  0
  195.8130  174.3350  136.4650 O   0  0  0  0  0  0  0  0  0  0  0  0
  193.7130  173.5360  137.1330 N   0  0  0  0  0  2  0  0  0  0  0  0
  193.8430  172.1480  136.6890 C   0  0  1  0  0  3  0  0  0  0  0  0
  193.3060  170.6990  134.8250 O   0  0  0  0  0  1  0  0  0  0  0  0
  193.7030  171.9920  135.1750 C   0  0  0  0  0  2  0  0  0  0  0  0
  195.3370  171.6140  138.4600 O   0  0  0  0  0  0  0  0  0  0  0  0
  195.0310  171.4410  137.2890 C   0  0  0  0  0  0  0  0  0  0  0  0
  195.8570  170.5190  136.4490 C   0  0  0  0  0  2  0  0  0  0  0  0
  195.8540  169.1090  137.0190 C   0  0  0  0  0  3  0  0  0  0  0  0
  196.8250  168.3560  136.3670 O   0  0  0  0  0  1  0  0  0  0  0  0
  194.6030  168.5180  136.8200 O   0  0  0  0  0  1  0  0  0  0  0  0
  188.0880  177.5070  137.6530 C   0  0  0  0  0  2  0  0  0  0  0  0
  188.0140  176.3690  136.6530 C   0  0  0  0  0  2  0  0  0  0  0  0
  188.0070  175.1220  137.3370 O   0  0  0  0  0  0  0  0  0  0  0  0
  189.4840  173.1700  136.4350 S   0  0  0  0  0  0  0  0  0  0  0  0
  188.0360  173.9030  136.6600 C   0  0  0  0  0  0  0  0  0  0  0  0
  186.8190  173.3180  136.1810 N   0  0  0  0  0  2  0  0  0  0  0  0
  185.7680  172.7860  137.0370 C   0  0  0  0  0  2  0  0  0  0  0  0
  184.9090  175.1090  137.3390 C   0  0  0  0  0  3  0  0  0  0  0  0
  183.8730  176.0370  137.4160 C   0  0  0  0  0  3  0  0  0  0  0  0
  182.2510  174.2510  137.0840 C   0  0  0  0  0  0  0  0  0  0  0  0
  184.6330  173.7550  137.1390 C   0  0  0  0  0  0  0  0  0  0  0  0
  179.9840  174.7270  136.1870 C   0  0  0  0  0  1  0  0  0  0  0  0
  183.0300  171.9620  136.8560 O   0  0  0  0  0  0  0  0  0  0  0  0
  181.2290  172.0480  135.2460 C   0  0  0  0  0  2  0  0  0  0  0  0
  183.2990  173.3210  137.0240 C   0  0  0  0  0  0  0  0  0  0  0  0
  180.8090  173.8000  137.0700 C   0  0  2  0  0  0  0  0  0  0  0  0
  182.5500  175.6080  137.2960 C   0  0  0  0  0  3  0  0  0  0  0  0
  181.7610  171.4010  136.5170 C   0  0  2  0  0  3  0  0  0  0  0  0
  180.3130  173.8980  138.3710 O   0  0  0  0  0  1  0  0  0  0  0  0
  180.5650  172.3560  136.5830 C   0  0  2  0  0  3  0  0  0  0  0  0
  188.7470  177.7130  143.2160 N   0  0  0  0  0  0  0  0  0  0  0  0
  186.8530  177.8200  144.7730 C   0  0  0  0  0  3  0  0  0  0  0  0
  184.6200  178.2890  143.9930 C   0  0  0  0  0  3  0  0  0  0  0  0
  186.4630  178.2420  142.4130 C   0  0  0  0  0  0  0  0  0  0  0  0
  185.0850  178.4310  142.6760 C   0  0  0  0  0  0  0  0  0  0  0  0
  186.9550  178.3590  141.1150 O   0  0  0  0  0  1  0  0  0  0  0  0
  185.4970  177.9890  145.0330 C   0  0  0  0  0  3  0  0  0  0  0  0
  187.3490  177.9380  143.4670 C   0  0  0  0  0  0  0  0  0  0  0  0
  181.8210  179.0170  140.8180 C   0  0  0  0  0  3  0  0  0  0  0  0
  184.1110  178.7960  141.6130 C   0  0  0  0  0  0  0  0  0  0  0  0
  184.5650  179.1760  140.3400 C   0  0  0  0  0  3  0  0  0  0  0  0
  183.6600  179.4800  139.3200 C   0  0  0  0  0  3  0  0  0  0  0  0
  182.7270  178.7200  141.8390 C   0  0  0  0  0  3  0  0  0  0  0  0
  182.2840  179.3980  139.5570 C   0  0  0  0  0  0  0  0  0  0  0  0
  180.8280  178.9610  137.3710 C   0  0  0  0  0  2  0  0  0  0  0  0
  181.3560  179.6790  138.5090 N   0  0  0  0  0  0  0  0  0  0  0  0
  179.9830  180.0470  136.9710 C   0  0  0  0  0  2  0  0  0  0  0  0
  180.5000  180.8240  138.1360 C   0  0  0  0  0  0  0  0  0  0  0  0
  180.2950  181.9730  138.6040 O   0  0  0  0  0  0  0  0  0  0  0  0
  189.7150  178.5800  143.7560 N   0  0  0  0  0  2  0  0  0  0  0  0
  189.5310  178.6210  145.2000 C   0  0  0  0  0  2  0  0  0  0  0  0
  191.1950  176.8720  146.3440 C   0  0  0  0  0  0  0  0  0  0  0  0
  190.4460  177.6620  145.8260 C   0  0  0  0  0  0  0  0  0  0  0  0
  192.1020  175.9170  146.9830 C   0  0  0  0  0  1  0  0  0  0  0  0
  1  6  1  0  0  0  0
  2  1  1  0  0  0  0
  2 13  1  0  0  0  0
  3 12  2  0  0  0  0
  4 11  2  0  0  0  0
  4 12  1  0  0  0  0
  5  4  1  0  0  0  0
  6  9  1  0  0  0  0
  6 47  1  1  0  0  0
  7  3  1  0  0  0  0
  8  1  2  0  0  0  0
 10  5  1  0  0  0  0
 10  7  2  0  0  0  0
 11  8  1  0  0  0  0
 12  2  1  0  0  0  0
 13  9  2  0  0  0  0
 14 17  1  0  0  0  0
 14 15  1  0  0  0  0
 15  7  1  0  0  0  0
 16 14  2  0  0  0  0
 18 20  1  6  0  0  0
 18 17  1  0  0  0  0
 18 22  1  0  0  0  0
 19 20  1  0  0  0  0
 22 21  2  0  0  0  0
 23 24  1  0  0  0  0
 23 22  1  0  0  0  0
 25 24  1  0  0  0  0
 26 24  1  0  0  0  0
 27 11  1  0  0  0  0
 28 29  1  0  0  0  0
 28 27  1  0  0  0  0
 30 31  2  0  0  0  0
 31 29  1  0  0  0  0
 32 31  1  0  0  0  0
 32 33  1  0  0  0  0
 33 37  1  0  0  0  0
 34 35  1  0  0  0  0
 36 43  1  0  0  0  0
 37 34  2  0  0  0  0
 39 41  1  0  0  0  0
 41 36  2  0  0  0  0
 41 37  1  0  0  0  0
 42 38  1  6  0  0  0
 42 36  1  0  0  0  0
 42 45  1  0  0  0  0
 43 35  2  0  0  0  0
 44 40  1  6  0  0  0
 44 46  1  0  0  0  0
 44 39  1  0  0  0  0
 46 40  1  6  0  0  0
 46 42  1  0  0  0  0
 47 54  1  0  0  0  0
 47 66  1  0  0  0  0
 48 53  1  0  0  0  0
 49 53  2  0  0  0  0
 50 51  2  0  0  0  0
 50 54  1  0  0  0  0
 51 49  1  0  0  0  0
 52 50  1  0  0  0  0
 54 48  2  0  0  0  0
 55 59  1  0  0  0  0
 56 59  2  0  0  0  0
 56 51  1  0  0  0  0
 57 56  1  0  0  0  0
 58 60  1  0  0  0  0
 58 57  2  0  0  0  0
 60 55  2  0  0  0  0
 61 62  1  0  0  0  0
 62 60  1  0  0  0  0
 63 61  1  0  0  0  0
 63 64  1  0  0  0  0
 64 62  1  0  0  0  0
 64 65  2  0  0  0  0
 66 67  1  0  0  0  0
 67 69  1  0  0  0  0
 68 70  1  0  0  0  0
 69 68  3  0  0  0  0
M  END
>  <MODEL>
6

>  <REMARK>
 VINA RESULT:      -5.5      1.439      2.549
  Name = 
  20 active torsions:
  status: ('A' for Active; 'I' for Inactive)
    1  A    between atoms: O_7  and  C_47
    2  A    between atoms: O_7  and  C_62
    3  A    between atoms: N_8  and  C_39
    4  A    between atoms: N_8  and  N_53
    5  A    between atoms: N_12  and  C_69
    6  A    between atoms: C_13  and  C_15
    7  A    between atoms: C_13  and  C_27
    8  A    between atoms: C_18  and  C_44
    9  A    between atoms: C_19  and  C_67
   10  A    between atoms: C_20  and  CA_60
   11  A    between atoms: C_25  and  C_47
   12  A    between atoms: C_25  and  C_52
   13  A    between atoms: C_27  and  CA_60
   14  A    between atoms: C_29  and  N_53
   15  A    between atoms: C_30  and  C_39
   16  A    between atoms: N_32  and  C_40
   17  A    between atoms: N_38  and  C_62
   18  A    between atoms: N_38  and  C_67
   19  A    between atoms: N_50  and  CA_60
   20  A    between atoms: N_53  and  C_58
                            x       y       z     vdW  Elec       q    Type
                         _______ _______ _______ _____ _____    ______ ____

>  <TORSDO>
F 20

$$$$
=
 OpenBabel10232410273D

 70 78  0  0  1  0  0  0  0  0999 V2000
  189.4310  176.7320  136.5930 C   0  0  0  0  0  0  0  0  0  0  0  0
  190.5430  176.3880  135.7970 N   0  0  0  0  0  0  0  0  0  0  0  0
  192.9280  176.0440  135.6320 C   0  0  0  0  0  3  0  0  0  0  0  0
  191.9530  176.3530  137.8580 C   0  0  0  0  0  0  0  0  0  0  0  0
  193.2770  176.0810  138.5250 C   0  0  0  0  0  3  0  0  0  0  0  0
  188.2280  177.0490  135.7880 C   0  0  1  0  0  3  0  0  0  0  0  0
  194.2770  176.0000  136.2360 C   0  0  0  0  0  0  0  0  0  0  0  0
  189.5510  176.9030  137.9110 C   0  0  0  0  0  3  0  0  0  0  0  0
  188.7660  177.0270  134.3460 C   0  0  0  0  0  3  0  0  0  0  0  0
  194.4310  176.0810  137.5610 C   0  0  0  0  0  3  0  0  0  0  0  0
  190.8560  176.6730  138.5800 C   0  0  0  0  0  0  0  0  0  0  0  0
  191.8380  176.2150  136.3830 C   0  0  1  0  0  3  0  0  0  0  0  0
  190.2140  176.4980  134.3890 C   0  0  0  0  0  3  0  0  0  0  0  0
  196.6640  175.3110  135.6970 C   0  0  0  0  0  0  0  0  0  0  0  0
  195.4490  176.0130  135.4150 N   0  0  0  0  0  2  0  0  0  0  0  0
  197.5160  175.1720  134.7800 O   0  0  0  0  0  0  0  0  0  0  0  0
  196.9360  174.8400  137.0260 N   0  0  0  0  0  2  0  0  0  0  0  0
  198.1250  174.1100  137.4650 C   0  0  1  0  0  3  0  0  0  0  0  0
  198.0600  175.7290  139.2640 O   0  0  0  0  0  1  0  0  0  0  0  0
  198.5660  174.4850  138.8800 C   0  0  0  0  0  2  0  0  0  0  0  0
  199.0570  171.9540  137.0950 O   0  0  0  0  0  0  0  0  0  0  0  0
  198.0430  172.6280  137.2030 C   0  0  0  0  0  0  0  0  0  0  0  0
  196.7090  171.9640  137.0640 C   0  0  0  0  0  2  0  0  0  0  0  0
  196.8640  170.4940  136.7070 C   0  0  0  0  0  3  0  0  0  0  0  0
  196.3620  170.2850  135.4270 O   0  0  0  0  0  1  0  0  0  0  0  0
  196.1510  169.7060  137.6150 O   0  0  0  0  0  1  0  0  0  0  0  0
  190.9370  176.8760  140.0600 C   0  0  0  0  0  2  0  0  0  0  0  0
  189.6290  177.4110  140.6140 C   0  0  0  0  0  2  0  0  0  0  0  0
  189.6430  177.3470  142.0340 O   0  0  0  0  0  0  0  0  0  0  0  0
  192.1480  177.9100  142.5010 S   0  0  0  0  0  0  0  0  0  0  0  0
  190.7940  177.0220  142.7520 C   0  0  0  0  0  0  0  0  0  0  0  0
  190.7760  175.9340  143.6850 N   0  0  0  0  0  2  0  0  0  0  0  0
  191.4620  175.9400  144.9690 C   0  0  0  0  0  2  0  0  0  0  0  0
  191.2400  177.0380  147.1980 C   0  0  0  0  0  3  0  0  0  0  0  0
  190.5030  177.7140  148.1690 C   0  0  0  0  0  3  0  0  0  0  0  0
  188.5330  177.6140  146.7400 C   0  0  0  0  0  0  0  0  0  0  0  0
  190.6390  176.6430  146.0020 C   0  0  0  0  0  0  0  0  0  0  0  0
  186.6760  179.2430  146.9990 C   0  0  0  0  0  1  0  0  0  0  0  0
  188.6770  176.4940  144.5900 O   0  0  0  0  0  0  0  0  0  0  0  0
  187.2750  178.3960  144.0780 C   0  0  0  0  0  2  0  0  0  0  0  0
  189.2780  176.9200  145.7750 C   0  0  0  0  0  0  0  0  0  0  0  0
  187.0480  177.8310  146.5690 C   0  0  2  0  0  0  0  0  0  0  0  0
  189.1540  177.9940  147.9420 C   0  0  0  0  0  3  0  0  0  0  0  0
  187.3810  176.8790  144.1300 C   0  0  2  0  0  3  0  0  0  0  0  0
  186.3810  176.9390  147.4100 O   0  0  0  0  0  1  0  0  0  0  0  0
  186.5020  177.6230  145.1400 C   0  0  2  0  0  3  0  0  0  0  0  0
  187.1870  176.0360  135.9790 N   0  0  0  0  0  0  0  0  0  0  0  0
  185.1220  176.4060  134.7070 C   0  0  0  0  0  3  0  0  0  0  0  0
  183.1320  177.2570  135.7720 C   0  0  0  0  0  3  0  0  0  0  0  0
  185.1340  176.8660  137.0910 C   0  0  0  0  0  0  0  0  0  0  0  0
  183.7810  177.2750  137.0170 C   0  0  0  0  0  0  0  0  0  0  0  0
  185.8110  176.8890  138.3080 O   0  0  0  0  0  1  0  0  0  0  0  0
  183.7970  176.8220  134.6270 C   0  0  0  0  0  3  0  0  0  0  0  0
  185.8040  176.4270  135.9310 C   0  0  0  0  0  0  0  0  0  0  0  0
  182.2120  179.4540  139.7090 C   0  0  0  0  0  3  0  0  0  0  0  0
  183.0100  177.7060  138.2150 C   0  0  0  0  0  0  0  0  0  0  0  0
  182.4230  176.7490  139.0580 C   0  0  0  0  0  3  0  0  0  0  0  0
  181.7330  177.1380  140.2090 C   0  0  0  0  0  3  0  0  0  0  0  0
  182.8960  179.0640  138.5550 C   0  0  0  0  0  3  0  0  0  0  0  0
  181.6280  178.4940  140.5380 C   0  0  0  0  0  0  0  0  0  0  0  0
  180.6340  178.2790  142.9990 C   0  0  0  0  0  2  0  0  0  0  0  0
  180.9490  178.8940  141.7280 N   0  0  0  0  0  0  0  0  0  0  0  0
  179.9820  179.4530  143.5000 C   0  0  0  0  0  2  0  0  0  0  0  0
  180.2890  180.1270  142.2040 C   0  0  0  0  0  0  0  0  0  0  0  0
  180.0750  181.2670  141.7180 O   0  0  0  0  0  0  0  0  0  0  0  0
  187.5370  174.6780  136.0910 N   0  0  0  0  0  2  0  0  0  0  0  0
  186.3330  173.9230  136.4060 C   0  0  0  0  0  2  0  0  0  0  0  0
  186.5350  171.4740  135.3580 C   0  0  0  0  0  0  0  0  0  0  0  0
  186.4450  172.5800  135.8280 C   0  0  0  0  0  0  0  0  0  0  0  0
  186.6500  170.1280  134.7960 C   0  0  0  0  0  1  0  0  0  0  0  0
  1  8  2  0  0  0  0
  2 12  1  0  0  0  0
  2  1  1  0  0  0  0
  3  7  2  0  0  0  0
  4  5  1  0  0  0  0
  4 11  2  0  0  0  0
  6 47  1  6  0  0  0
  6  1  1  0  0  0  0
  7 10  1  0  0  0  0
  8 11  1  0  0  0  0
  9 13  2  0  0  0  0
  9  6  1  0  0  0  0
 10  5  2  0  0  0  0
 11 27  1  0  0  0  0
 12  3  1  6  0  0  0
 12  4  1  0  0  0  0
 13  2  1  0  0  0  0
 14 17  1  0  0  0  0
 15 14  1  0  0  0  0
 15  7  1  0  0  0  0
 16 14  2  0  0  0  0
 17 18  1  0  0  0  0
 18 20  1  1  0  0  0
 20 19  1  0  0  0  0
 21 22  2  0  0  0  0
 22 18  1  0  0  0  0
 23 22  1  0  0  0  0
 24 23  1  0  0  0  0
 24 26  1  0  0  0  0
 25 24  1  0  0  0  0
 27 28  1  0  0  0  0
 28 29  1  0  0  0  0
 29 31  1  0  0  0  0
 30 31  2  0  0  0  0
 31 32  1  0  0  0  0
 32 33  1  0  0  0  0
 33 37  1  0  0  0  0
 34 35  1  0  0  0  0
 36 43  1  0  0  0  0
 37 34  2  0  0  0  0
 39 41  1  0  0  0  0
 41 37  1  0  0  0  0
 41 36  2  0  0  0  0
 42 36  1  0  0  0  0
 42 38  1  1  0  0  0
 42 45  1  0  0  0  0
 43 35  2  0  0  0  0
 44 40  1  6  0  0  0
 44 39  1  0  0  0  0
 44 46  1  0  0  0  0
 46 40  1  6  0  0  0
 46 42  1  0  0  0  0
 47 66  1  0  0  0  0
 48 54  1  0  0  0  0
 49 51  2  0  0  0  0
 50 52  1  0  0  0  0
 51 50  1  0  0  0  0
 51 56  1  0  0  0  0
 53 48  2  0  0  0  0
 53 49  1  0  0  0  0
 54 47  1  0  0  0  0
 54 50  2  0  0  0  0
 55 60  1  0  0  0  0
 56 59  1  0  0  0  0
 56 57  2  0  0  0  0
 57 58  1  0  0  0  0
 58 60  2  0  0  0  0
 59 55  2  0  0  0  0
 60 62  1  0  0  0  0
 61 63  1  0  0  0  0
 62 64  1  0  0  0  0
 62 61  1  0  0  0  0
 64 63  1  0  0  0  0
 65 64  2  0  0  0  0
 66 67  1  0  0  0  0
 68 69  3  0  0  0  0
 69 67  1  0  0  0  0
 70 68  1  0  0  0  0
M  END
>  <MODEL>
7

>  <REMARK>
 VINA RESULT:      -5.1      2.883      7.500
  Name = 
  20 active torsions:
  status: ('A' for Active; 'I' for Inactive)
    1  A    between atoms: O_7  and  C_47
    2  A    between atoms: O_7  and  C_62
    3  A    between atoms: N_8  and  C_39
    4  A    between atoms: N_8  and  N_53
    5  A    between atoms: N_12  and  C_69
    6  A    between atoms: C_13  and  C_15
    7  A    between atoms: C_13  and  C_27
    8  A    between atoms: C_18  and  C_44
    9  A    between atoms: C_19  and  C_67
   10  A    between atoms: C_20  and  CA_60
   11  A    between atoms: C_25  and  C_47
   12  A    between atoms: C_25  and  C_52
   13  A    between atoms: C_27  and  CA_60
   14  A    between atoms: C_29  and  N_53
   15  A    between atoms: C_30  and  C_39
   16  A    between atoms: N_32  and  C_40
   17  A    between atoms: N_38  and  C_62
   18  A    between atoms: N_38  and  C_67
   19  A    between atoms: N_50  and  CA_60
   20  A    between atoms: N_53  and  C_58
                            x       y       z     vdW  Elec       q    Type
                         _______ _______ _______ _____ _____    ______ ____

>  <TORSDO>
F 20

$$$$
=
 OpenBabel10232410273D

 70 78  0  0  1  0  0  0  0  0999 V2000
  190.0650  176.7460  141.3730 C   0  0  0  0  0  0  0  0  0  0  0  0
  191.4230  176.7450  140.9950 N   0  0  0  0  0  0  0  0  0  0  0  0
  193.0720  176.5330  139.2430 C   0  0  0  0  0  3  0  0  0  0  0  0
  190.7130  176.6950  138.6020 C   0  0  0  0  0  0  0  0  0  0  0  0
  191.0680  176.7410  137.1380 C   0  0  0  0  0  2  0  0  0  0  0  0
  189.8790  176.6160  142.8380 C   0  0  1  0  0  3  0  0  0  0  0  0
  193.4370  176.3440  137.8230 C   0  0  0  0  0  0  0  0  0  0  0  0
  189.0940  176.7000  140.4600 C   0  0  0  0  0  3  0  0  0  0  0  0
  191.3100  176.3580  143.3430 C   0  0  0  0  0  3  0  0  0  0  0  0
  192.5020  176.3780  136.8700 C   0  0  0  0  0  3  0  0  0  0  0  0
  189.4250  176.7080  139.0140 C   0  0  0  0  0  0  0  0  0  0  0  0
  191.8000  176.6910  139.6150 C   0  0  0  0  0  0  0  0  0  0  0  0
  192.2730  176.5560  142.1550 C   0  0  0  0  0  3  0  0  0  0  0  0
  195.1560  174.7300  136.8710 C   0  0  0  0  0  0  0  0  0  0  0  0
  194.7710  175.9810  137.4520 N   0  0  0  0  0  2  0  0  0  0  0  0
  196.2920  174.6290  136.3370 O   0  0  0  0  0  0  0  0  0  0  0  0
  194.2880  173.5900  136.9650 N   0  0  0  0  0  2  0  0  0  0  0  0
  194.5410  172.2550  136.4230 C   0  0  1  0  0  3  0  0  0  0  0  0
  195.3640  171.8650  138.6670 O   0  0  0  0  0  1  0  0  0  0  0  0
  194.9240  171.2380  137.4990 C   0  0  0  0  0  2  0  0  0  0  0  0
  193.2020  170.6030  135.3610 O   0  0  0  0  0  0  0  0  0  0  0  0
  193.4730  171.7900  135.4670 C   0  0  0  0  0  0  0  0  0  0  0  0
  192.7340  172.7840  134.6280 C   0  0  0  0  0  2  0  0  0  0  0  0
  191.3610  173.0790  135.2120 C   0  0  0  0  0  3  0  0  0  0  0  0
  190.5660  171.9440  135.0940 O   0  0  0  0  0  1  0  0  0  0  0  0
  190.7640  174.1330  134.5130 O   0  0  0  0  0  1  0  0  0  0  0  0
  188.2990  176.6580  138.0300 C   0  0  0  0  0  2  0  0  0  0  0  0
  188.6690  175.8300  136.8130 C   0  0  0  0  0  2  0  0  0  0  0  0
  188.1890  174.5010  136.9680 O   0  0  0  0  0  0  0  0  0  0  0  0
  187.1180  172.2980  136.0680 S   0  0  0  0  0  0  0  0  0  0  0  0
  187.2840  173.9290  136.0750 C   0  0  0  0  0  0  0  0  0  0  0  0
  186.5220  174.7610  135.1920 N   0  0  0  0  0  2  0  0  0  0  0  0
  185.2970  174.3470  134.5210 C   0  0  0  0  0  2  0  0  0  0  0  0
  183.8580  175.4920  136.2060 C   0  0  0  0  0  3  0  0  0  0  0  0
  182.7820  175.5170  137.0920 C   0  0  0  0  0  3  0  0  0  0  0  0
  182.2660  173.2060  136.5270 C   0  0  0  0  0  0  0  0  0  0  0  0
  184.1500  174.3360  135.4810 C   0  0  0  0  0  0  0  0  0  0  0  0
  179.9820  172.2850  136.8520 C   0  0  0  0  0  1  0  0  0  0  0  0
  183.6790  172.0220  134.9460 O   0  0  0  0  0  0  0  0  0  0  0  0
  181.4730  171.2320  134.3470 C   0  0  0  0  0  2  0  0  0  0  0  0
  183.3600  173.1840  135.6500 C   0  0  0  0  0  0  0  0  0  0  0  0
  181.4680  171.9540  136.8070 C   0  0  2  0  0  0  0  0  0  0  0  0
  181.9950  174.3770  137.2560 C   0  0  0  0  0  3  0  0  0  0  0  0
  182.8590  170.8560  134.8510 C   0  0  2  0  0  3  0  0  0  0  0  0
  181.8370  171.4780  138.0660 O   0  0  0  0  0  1  0  0  0  0  0  0
  181.6560  170.8020  135.7970 C   0  0  2  0  0  3  0  0  0  0  0  0
  189.3310  177.8490  143.4090 N   0  0  0  0  0  0  0  0  0  0  0  0
  187.4680  177.7230  145.0010 C   0  0  0  0  0  3  0  0  0  0  0  0
  185.1840  178.0010  144.2760 C   0  0  0  0  0  3  0  0  0  0  0  0
  186.9910  178.1810  142.6640 C   0  0  0  0  0  0  0  0  0  0  0  0
  185.6070  178.2290  142.9570 C   0  0  0  0  0  0  0  0  0  0  0  0
  187.4430  178.3870  141.3620 O   0  0  0  0  0  1  0  0  0  0  0  0
  186.1070  177.7530  145.2900 C   0  0  0  0  0  3  0  0  0  0  0  0
  187.9230  177.9310  143.6920 C   0  0  0  0  0  0  0  0  0  0  0  0
  183.9790  179.2980  139.6930 C   0  0  0  0  0  3  0  0  0  0  0  0
  184.5810  178.5330  141.9240 C   0  0  0  0  0  0  0  0  0  0  0  0
  183.2160  178.4390  142.2350 C   0  0  0  0  0  3  0  0  0  0  0  0
  182.2430  178.7640  141.2860 C   0  0  0  0  0  3  0  0  0  0  0  0
  184.9510  178.9670  140.6400 C   0  0  0  0  0  3  0  0  0  0  0  0
  182.6240  179.1970  140.0120 C   0  0  0  0  0  0  0  0  0  0  0  0
  180.3640  180.2500  139.0770 C   0  0  0  0  0  2  0  0  0  0  0  0
  181.6330  179.5570  139.0500 N   0  0  0  0  0  0  0  0  0  0  0  0
  180.1690  180.1240  137.6630 C   0  0  0  0  0  2  0  0  0  0  0  0
  181.4750  179.4060  137.5880 C   0  0  0  0  0  0  0  0  0  0  0  0
  182.1570  178.8860  136.6680 O   0  0  0  0  0  0  0  0  0  0  0  0
  190.1930  178.8950  143.7850 N   0  0  0  0  0  2  0  0  0  0  0  0
  191.1100  178.3870  144.7960 C   0  0  0  0  0  2  0  0  0  0  0  0
  189.7270  177.7950  147.0030 C   0  0  0  0  0  0  0  0  0  0  0  0
  190.3520  178.0590  146.0070 C   0  0  0  0  0  0  0  0  0  0  0  0
  188.9730  177.4820  148.2180 C   0  0  0  0  0  1  0  0  0  0  0  0
  1  6  1  0  0  0  0
  2  1  1  0  0  0  0
  2 13  1  0  0  0  0
  3 12  2  0  0  0  0
  4 11  2  0  0  0  0
  4 12  1  0  0  0  0
  5  4  1  0  0  0  0
  6  9  1  0  0  0  0
  6 47  1  1  0  0  0
  7  3  1  0  0  0  0
  8  1  2  0  0  0  0
 10  5  1  0  0  0  0
 10  7  2  0  0  0  0
 11  8  1  0  0  0  0
 12  2  1  0  0  0  0
 13  9  2  0  0  0  0
 14 17  1  0  0  0  0
 14 15  1  0  0  0  0
 15  7  1  0  0  0  0
 16 14  2  0  0  0  0
 18 17  1  0  0  0  0
 18 20  1  1  0  0  0
 20 19  1  0  0  0  0
 21 22  2  0  0  0  0
 22 18  1  0  0  0  0
 23 24  1  0  0  0  0
 23 22  1  0  0  0  0
 25 24  1  0  0  0  0
 26 24  1  0  0  0  0
 27 11  1  0  0  0  0
 28 29  1  0  0  0  0
 28 27  1  0  0  0  0
 30 31  2  0  0  0  0
 31 29  1  0  0  0  0
 32 31  1  0  0  0  0
 33 32  1  0  0  0  0
 33 37  1  0  0  0  0
 34 35  1  0  0  0  0
 35 43  2  0  0  0  0
 36 42  1  0  0  0  0
 36 43  1  0  0  0  0
 37 41  1  0  0  0  0
 37 34  2  0  0  0  0
 39 41  1  0  0  0  0
 41 36  2  0  0  0  0
 42 38  1  1  0  0  0
 42 45  1  0  0  0  0
 44 40  1  6  0  0  0
 44 39  1  0  0  0  0
 44 46  1  0  0  0  0
 46 40  1  6  0  0  0
 46 42  1  0  0  0  0
 47 54  1  0  0  0  0
 47 66  1  0  0  0  0
 48 53  1  0  0  0  0
 49 53  2  0  0  0  0
 50 51  2  0  0  0  0
 50 54  1  0  0  0  0
 51 49  1  0  0  0  0
 52 50  1  0  0  0  0
 54 48  2  0  0  0  0
 55 60  2  0  0  0  0
 55 59  1  0  0  0  0
 56 57  1  0  0  0  0
 56 51  1  0  0  0  0
 58 57  2  0  0  0  0
 59 56  2  0  0  0  0
 60 58  1  0  0  0  0
 62 61  1  0  0  0  0
 62 60  1  0  0  0  0
 63 61  1  0  0  0  0
 64 63  1  0  0  0  0
 64 62  1  0  0  0  0
 65 64  2  0  0  0  0
 66 67  1  0  0  0  0
 67 69  1  0  0  0  0
 68 70  1  0  0  0  0
 69 68  3  0  0  0  0
M  END
>  <MODEL>
8

>  <REMARK>
 VINA RESULT:      -4.6      1.410      2.237
  Name = 
  20 active torsions:
  status: ('A' for Active; 'I' for Inactive)
    1  A    between atoms: O_7  and  C_47
    2  A    between atoms: O_7  and  C_62
    3  A    between atoms: N_8  and  C_39
    4  A    between atoms: N_8  and  N_53
    5  A    between atoms: N_12  and  C_69
    6  A    between atoms: C_13  and  C_15
    7  A    between atoms: C_13  and  C_27
    8  A    between atoms: C_18  and  C_44
    9  A    between atoms: C_19  and  C_67
   10  A    between atoms: C_20  and  CA_60
   11  A    between atoms: C_25  and  C_47
   12  A    between atoms: C_25  and  C_52
   13  A    between atoms: C_27  and  CA_60
   14  A    between atoms: C_29  and  N_53
   15  A    between atoms: C_30  and  C_39
   16  A    between atoms: N_32  and  C_40
   17  A    between atoms: N_38  and  C_62
   18  A    between atoms: N_38  and  C_67
   19  A    between atoms: N_50  and  CA_60
   20  A    between atoms: N_53  and  C_58
                            x       y       z     vdW  Elec       q    Type
                         _______ _______ _______ _____ _____    ______ ____

>  <TORSDO>
F 20

$$$$
=
 OpenBabel10232410273D

 70 78  0  0  1  0  0  0  0  0999 V2000
  188.9030  177.1400  141.6820 C   0  0  0  0  0  0  0  0  0  0  0  0
  190.2290  176.7170  141.9050 N   0  0  0  0  0  0  0  0  0  0  0  0
  192.4670  176.4210  141.0460 C   0  0  0  0  0  3  0  0  0  0  0  0
  190.8670  177.6940  139.6980 C   0  0  0  0  0  0  0  0  0  0  0  0
  191.9290  178.0450  138.6880 C   0  0  0  0  0  2  0  0  0  0  0  0
  187.9650  176.6480  142.7190 C   0  0  1  0  0  3  0  0  0  0  0  0
  193.4700  176.5510  139.9670 C   0  0  0  0  0  0  0  0  0  0  0  0
  188.5580  177.7670  140.5560 C   0  0  0  0  0  3  0  0  0  0  0  0
  188.8440  175.7030  143.5560 C   0  0  0  0  0  3  0  0  0  0  0  0
  193.1910  177.2450  138.8610 C   0  0  0  0  0  3  0  0  0  0  0  0
  189.5840  178.0880  139.5340 C   0  0  0  0  0  0  0  0  0  0  0  0
  191.2470  176.9470  140.9240 C   0  0  0  0  0  0  0  0  0  0  0  0
  190.3000  175.8580  143.0720 C   0  0  0  0  0  3  0  0  0  0  0  0
  195.1940  174.9580  138.9910 C   0  0  0  0  0  0  0  0  0  0  0  0
  194.7010  175.8230  140.0190 N   0  0  0  0  0  2  0  0  0  0  0  0
  196.3990  174.5950  139.0240 O   0  0  0  0  0  0  0  0  0  0  0  0
  194.3050  174.4520  137.9820 N   0  0  0  0  0  2  0  0  0  0  0  0
  194.6590  173.5670  136.8730 C   0  0  1  0  0  3  0  0  0  0  0  0
  195.7290  175.5910  136.0850 O   0  0  0  0  0  1  0  0  0  0  0  0
  195.6250  174.2130  135.8800 C   0  0  0  0  0  2  0  0  0  0  0  0
  195.2850  171.9460  138.4960 O   0  0  0  0  0  0  0  0  0  0  0  0
  195.0480  172.1810  137.3200 C   0  0  0  0  0  0  0  0  0  0  0  0
  195.1560  171.0740  136.3200 C   0  0  0  0  0  2  0  0  0  0  0  0
  194.0670  170.0330  136.5360 C   0  0  0  0  0  3  0  0  0  0  0  0
  194.6620  168.7930  136.7390 O   0  0  0  0  0  1  0  0  0  0  0  0
  193.2420  169.9680  135.4090 O   0  0  0  0  0  1  0  0  0  0  0  0
  189.1460  178.7950  138.2900 C   0  0  0  0  0  2  0  0  0  0  0  0
  189.1990  177.8730  137.0870 C   0  0  0  0  0  2  0  0  0  0  0  0
  189.1250  176.5180  137.5110 O   0  0  0  0  0  0  0  0  0  0  0  0
  190.6120  174.3750  137.5170 S   0  0  0  0  0  0  0  0  0  0  0  0
  189.6620  175.4740  136.7590 C   0  0  0  0  0  0  0  0  0  0  0  0
  189.3800  175.3770  135.3570 N   0  0  0  0  0  2  0  0  0  0  0  0
  188.3050  174.5780  134.7870 C   0  0  0  0  0  2  0  0  0  0  0  0
  186.6900  176.4280  134.3520 C   0  0  0  0  0  3  0  0  0  0  0  0
  185.4570  177.0520  134.5310 C   0  0  0  0  0  3  0  0  0  0  0  0
  184.7800  175.2760  136.0520 C   0  0  0  0  0  0  0  0  0  0  0  0
  186.9810  175.2360  135.0170 C   0  0  0  0  0  0  0  0  0  0  0  0
  182.3800  174.7790  136.4590 C   0  0  0  0  0  1  0  0  0  0  0  0
  186.3410  173.4880  136.5650 O   0  0  0  0  0  0  0  0  0  0  0  0
  184.2400  172.3000  136.4150 C   0  0  0  0  0  2  0  0  0  0  0  0
  186.0290  174.6630  135.8800 C   0  0  0  0  0  0  0  0  0  0  0  0
  183.7820  174.7410  137.0520 C   0  0  2  0  0  0  0  0  0  0  0  0
  184.5100  176.4820  135.3820 C   0  0  0  0  0  3  0  0  0  0  0  0
  185.4170  172.6840  137.3000 C   0  0  2  0  0  3  0  0  0  0  0  0
  183.7950  175.5790  138.1680 O   0  0  0  0  0  1  0  0  0  0  0  0
  184.0370  173.3010  137.5460 C   0  0  2  0  0  3  0  0  0  0  0  0
  187.4550  177.7560  143.5320 N   0  0  0  0  0  0  0  0  0  0  0  0
  185.3480  178.3010  144.6650 C   0  0  0  0  0  3  0  0  0  0  0  0
  183.3160  178.6620  143.4170 C   0  0  0  0  0  3  0  0  0  0  0  0
  185.3820  178.1710  142.2400 C   0  0  0  0  0  0  0  0  0  0  0  0
  183.9990  178.4710  142.2050 C   0  0  0  0  0  0  0  0  0  0  0  0
  186.0870  177.9590  141.0560 O   0  0  0  0  0  1  0  0  0  0  0  0
  183.9850  178.5810  144.6360 C   0  0  0  0  0  3  0  0  0  0  0  0
  186.0570  178.0890  143.4750 C   0  0  0  0  0  0  0  0  0  0  0  0
  181.5880  177.8000  139.3440 C   0  0  0  0  0  3  0  0  0  0  0  0
  183.2440  178.6140  140.9320 C   0  0  0  0  0  0  0  0  0  0  0  0
  183.5460  179.6600  140.0450 C   0  0  0  0  0  3  0  0  0  0  0  0
  182.8740  179.7800  138.8260 C   0  0  0  0  0  3  0  0  0  0  0  0
  182.2560  177.6850  140.5660 C   0  0  0  0  0  3  0  0  0  0  0  0
  181.8930  178.8470  138.4730 C   0  0  0  0  0  0  0  0  0  0  0  0
  180.6890  178.0190  136.2460 C   0  0  0  0  0  2  0  0  0  0  0  0
  181.2250  178.9490  137.2150 N   0  0  0  0  0  0  0  0  0  0  0  0
  180.2200  179.0610  135.3800 C   0  0  0  0  0  2  0  0  0  0  0  0
  180.7570  180.0560  136.3550 C   0  0  0  0  0  0  0  0  0  0  0  0
  180.7960  181.3120  136.4190 O   0  0  0  0  0  0  0  0  0  0  0  0
  188.3040  178.4060  144.4470 N   0  0  0  0  0  2  0  0  0  0  0  0
  188.0410  177.8650  145.7730 C   0  0  0  0  0  2  0  0  0  0  0  0
  190.3320  176.9870  146.8300 C   0  0  0  0  0  0  0  0  0  0  0  0
  189.3000  177.3840  146.3510 C   0  0  0  0  0  0  0  0  0  0  0  0
  191.5840  176.5120  147.4210 C   0  0  0  0  0  1  0  0  0  0  0  0
  1  2  1  0  0  0  0
  1  6  1  0  0  0  0
  2 13  1  0  0  0  0
  4 12  1  0  0  0  0
  5 10  1  0  0  0  0
  5  4  1  0  0  0  0
  6 47  1  1  0  0  0
  6  9  1  0  0  0  0
  7 15  1  0  0  0  0
  7  3  1  0  0  0  0
  8  1  2  0  0  0  0
 10  7  2  0  0  0  0
 11  4  2  0  0  0  0
 11  8  1  0  0  0  0
 12  3  2  0  0  0  0
 12  2  1  0  0  0  0
 13  9  2  0  0  0  0
 14 16  2  0  0  0  0
 14 15  1  0  0  0  0
 17 14  1  0  0  0  0
 18 20  1  1  0  0  0
 18 22  1  0  0  0  0
 18 17  1  0  0  0  0
 20 19  1  0  0  0  0
 22 21  2  0  0  0  0
 23 24  1  0  0  0  0
 23 22  1  0  0  0  0
 24 25  1  0  0  0  0
 26 24  1  0  0  0  0
 27 11  1  0  0  0  0
 28 29  1  0  0  0  0
 28 27  1  0  0  0  0
 31 29  1  0  0  0  0
 31 30  2  0  0  0  0
 32 31  1  0  0  0  0
 33 37  1  0  0  0  0
 33 32  1  0  0  0  0
 34 35  2  0  0  0  0
 34 37  1  0  0  0  0
 35 43  1  0  0  0  0
 36 42  1  0  0  0  0
 37 41  2  0  0  0  0
 39 44  1  0  0  0  0
 41 36  1  0  0  0  0
 41 39  1  0  0  0  0
 42 38  1  6  0  0  0
 42 46  1  0  0  0  0
 42 45  1  0  0  0  0
 43 36  2  0  0  0  0
 44 40  1  6  0  0  0
 44 46  1  0  0  0  0
 46 40  1  6  0  0  0
 47 66  1  0  0  0  0
 49 53  2  0  0  0  0
 50 54  1  0  0  0  0
 51 50  2  0  0  0  0
 51 49  1  0  0  0  0
 52 50  1  0  0  0  0
 53 48  1  0  0  0  0
 54 47  1  0  0  0  0
 54 48  2  0  0  0  0
 55 59  1  0  0  0  0
 56 51  1  0  0  0  0
 57 56  1  0  0  0  0
 58 57  2  0  0  0  0
 59 56  2  0  0  0  0
 60 58  1  0  0  0  0
 60 55  2  0  0  0  0
 61 62  1  0  0  0  0
 62 60  1  0  0  0  0
 63 61  1  0  0  0  0
 63 64  1  0  0  0  0
 64 65  2  0  0  0  0
 64 62  1  0  0  0  0
 66 67  1  0  0  0  0
 67 69  1  0  0  0  0
 68 70  1  0  0  0  0
 69 68  3  0  0  0  0
M  END
>  <MODEL>
9

>  <REMARK>
 VINA RESULT:      -4.5      2.016      3.362
  Name = 
  20 active torsions:
  status: ('A' for Active; 'I' for Inactive)
    1  A    between atoms: O_7  and  C_47
    2  A    between atoms: O_7  and  C_62
    3  A    between atoms: N_8  and  C_39
    4  A    between atoms: N_8  and  N_53
    5  A    between atoms: N_12  and  C_69
    6  A    between atoms: C_13  and  C_15
    7  A    between atoms: C_13  and  C_27
    8  A    between atoms: C_18  and  C_44
    9  A    between atoms: C_19  and  C_67
   10  A    between atoms: C_20  and  CA_60
   11  A    between atoms: C_25  and  C_47
   12  A    between atoms: C_25  and  C_52
   13  A    between atoms: C_27  and  CA_60
   14  A    between atoms: C_29  and  N_53
   15  A    between atoms: C_30  and  C_39
   16  A    between atoms: N_32  and  C_40
   17  A    between atoms: N_38  and  C_62
   18  A    between atoms: N_38  and  C_67
   19  A    between atoms: N_50  and  CA_60
   20  A    between atoms: N_53  and  C_58
                            x       y       z     vdW  Elec       q    Type
                         _______ _______ _______ _____ _____    ______ ____

>  <TORSDO>
F 20

$$$$
