=
 OpenBabel10232412433D

 45 50  0  0  1  0  0  0  0  0999 V2000
  185.1750  177.3240  137.9630 N   0  0  0  0  0  2  0  0  0  0  0  0
  183.6380  177.8760  139.7110 N   0  0  0  0  0  0  0  0  0  0  0  0
  184.8970  175.6480  136.2460 N   0  0  0  0  0  0  0  0  0  0  0  0
  184.0240  177.0650  138.7730 C   0  0  0  0  0  3  0  0  0  0  0  0
  185.6640  176.4430  136.9400 C   0  0  0  0  0  0  0  0  0  0  0  0
  183.6520  170.9830  136.4720 C   0  0  0  0  0  3  0  0  0  0  0  0
  181.6170  172.7970  135.9780 C   0  0  0  0  0  0  0  0  0  0  0  0
  182.7840  173.2140  136.5620 C   0  0  0  0  0  0  0  0  0  0  0  0
  183.4660  175.6350  136.2050 C   0  0  1  0  0  3  0  0  0  0  0  0
  181.4330  171.4780  135.5740 C   0  0  0  0  0  3  0  0  0  0  0  0
  182.7200  176.4910  135.5040 C   0  0  0  0  0  2  0  0  0  0  0  0
  181.3100  174.9230  136.2710 C   0  0  0  0  0  0  0  0  0  0  0  0
  180.7370  173.8840  135.7440 N   0  0  0  0  0  0  0  0  0  0  0  0
  182.6250  174.6420  136.9300 C   0  0  1  0  0  3  0  0  0  0  0  0
  182.4670  170.5620  135.8330 C   0  0  0  0  0  3  0  0  0  0  0  0
  183.8160  172.3250  136.8520 C   0  0  0  0  0  3  0  0  0  0  0  0
  181.3360  176.1550  135.5660 N   0  0  0  0  0  2  0  0  0  0  0  0
  184.4910  180.0210  139.2650 O   0  0  0  0  0  0  0  0  0  0  0  0
  184.2890  179.0950  140.0990 C   0  0  0  0  0  0  0  0  0  0  0  0
  185.0310  178.3880  144.2170 N   0  0  0  0  0  0  0  0  0  0  0  0
  183.6730  178.5070  143.6850 C   0  0  0  0  0  2  0  0  0  0  0  0
  185.7080  178.0360  141.8660 C   0  0  0  0  0  2  0  0  0  0  0  0
  186.3900  178.2560  146.1170 O   0  0  0  0  0  0  0  0  0  0  0  0
  185.2370  178.4330  145.6350 C   0  0  0  0  0  0  0  0  0  0  0  0
  184.1730  178.6840  146.4920 O   0  0  0  0  0  1  0  0  0  0  0  0
  183.6470  179.4450  142.4750 C   0  0  0  0  0  2  0  0  0  0  0  0
  186.1650  178.1470  143.3180 C   0  0  0  0  0  2  0  0  0  0  0  0
  184.8110  179.2190  141.4940 C   0  0  0  0  0  3  0  0  0  0  0  0
  187.4240  176.4200  136.6200 S   0  0  0  0  0  0  0  0  0  0  0  0
  187.7980  177.5720  137.9800 C   0  0  0  0  0  2  0  0  0  0  0  0
  189.0910  177.5890  140.1560 C   0  0  0  0  0  0  0  0  0  0  0  0
  188.5930  176.9080  139.0030 N   0  0  0  0  0  2  0  0  0  0  0  0
  188.8040  178.8020  140.3590 O   0  0  0  0  0  0  0  0  0  0  0  0
  189.5560  177.9760  143.2540 C   0  0  1  0  0  3  0  0  0  0  0  0
  190.9480  177.8440  144.9100 C   0  0  1  0  0  3  0  0  0  0  0  0
  191.3850  177.3850  141.1480 C   0  0  0  0  0  2  0  0  0  0  0  0
  191.0510  178.2620  143.4410 C   0  0  1  0  0  3  0  0  0  0  0  0
  191.9440  177.3820  142.5600 C   0  0  0  0  0  2  0  0  0  0  0  0
  189.9470  176.8430  141.1260 C   0  0  1  0  0  3  0  0  0  0  0  0
  189.3160  176.7640  142.4570 N   0  0  0  0  0  2  0  0  0  0  0  0
  189.4520  177.6230  144.7300 C   0  0  0  0  0  2  0  0  0  0  0  0
  191.6010  176.5670  145.1760 N   0  0  0  0  0  2  0  0  0  0  0  0
  191.9720  176.1600  146.4930 C   0  0  0  0  0  0  0  0  0  0  0  0
  192.4580  175.0150  146.6760 O   0  0  0  0  0  0  0  0  0  0  0  0
  191.7960  177.0160  147.5750 O   0  0  0  0  0  1  0  0  0  0  0  0
  1  4  1  0  0  0  0
  2 19  1  0  0  0  0
  3  5  2  0  0  0  0
  4  2  2  0  0  0  0
  5  1  1  0  0  0  0
  6 16  1  0  0  0  0
  7  8  1  0  0  0  0
  8 16  2  0  0  0  0
  8 14  1  0  0  0  0
  9  3  1  6  0  0  0
  9 14  1  0  0  0  0
 10 15  1  0  0  0  0
 10  7  2  0  0  0  0
 11 17  1  0  0  0  0
 11  9  1  0  0  0  0
 13  7  1  0  0  0  0
 13 12  2  0  0  0  0
 14 12  1  6  0  0  0
 15  6  2  0  0  0  0
 17 12  1  0  0  0  0
 18 19  2  0  0  0  0
 19 28  1  0  0  0  0
 20 24  1  0  0  0  0
 21 20  1  0  0  0  0
 22 27  1  0  0  0  0
 24 23  2  0  0  0  0
 24 25  1  0  0  0  0
 26 21  1  0  0  0  0
 27 20  1  0  0  0  0
 28 22  1  0  0  0  0
 28 26  1  0  0  0  0
 29  5  1  0  0  0  0
 29 30  1  0  0  0  0
 30 32  1  0  0  0  0
 31 33  2  0  0  0  0
 32 31  1  0  0  0  0
 34 37  1  0  0  0  0
 34 41  1  1  0  0  0
 35 42  1  6  0  0  0
 36 38  1  0  0  0  0
 37 38  1  6  0  0  0
 37 35  1  0  0  0  0
 39 31  1  6  0  0  0
 39 36  1  0  0  0  0
 39 40  1  0  0  0  0
 40 34  1  0  0  0  0
 41 35  1  0  0  0  0
 42 43  1  0  0  0  0
 43 44  2  0  0  0  0
 43 45  1  0  0  0  0
M  END
>  <MODEL>
1

>  <REMARK>
 VINA RESULT:      -9.2      0.000      0.000
  Name = 
  8 active torsions:
  status: ('A' for Active; 'I' for Inactive)
    1  A    between atoms: C_1  and  C_28
    2  A    between atoms: S_9  and  C_17
    3  A    between atoms: S_9  and  C_39
    4  A    between atoms: C_12  and  N_18
    5  A    between atoms: C_17  and  N_33
    6  A    between atoms: C_19  and  N_26
    7  A    between atoms: N_22  and  C_23
    8  A    between atoms: C_23  and  C_36
                            x       y       z     vdW  Elec       q    Type
                         _______ _______ _______ _____ _____    ______ ____

>  <TORSDO>
F 8

$$$$
=
 OpenBabel10232412433D

 45 50  0  0  1  0  0  0  0  0999 V2000
  186.4370  178.4060  137.9000 N   0  0  0  0  0  2  0  0  0  0  0  0
  184.6280  177.9010  139.3820 N   0  0  0  0  0  0  0  0  0  0  0  0
  187.1510  177.1340  135.9760 N   0  0  0  0  0  0  0  0  0  0  0  0
  185.4460  177.5290  138.4440 C   0  0  0  0  0  3  0  0  0  0  0  0
  187.3870  178.0330  136.8900 C   0  0  0  0  0  0  0  0  0  0  0  0
  187.8990  172.3880  136.5040 C   0  0  0  0  0  3  0  0  0  0  0  0
  185.4660  173.1560  135.4240 C   0  0  0  0  0  0  0  0  0  0  0  0
  186.2010  174.0430  136.1670 C   0  0  0  0  0  0  0  0  0  0  0  0
  185.8970  176.5150  135.6660 C   0  0  1  0  0  3  0  0  0  0  0  0
  185.9300  171.8730  135.1500 C   0  0  0  0  0  3  0  0  0  0  0  0
  185.0420  176.9560  134.7420 C   0  0  0  0  0  2  0  0  0  0  0  0
  184.2630  174.9600  135.4050 C   0  0  0  0  0  0  0  0  0  0  0  0
  184.2950  173.7620  134.9030 N   0  0  0  0  0  0  0  0  0  0  0  0
  185.3970  175.2780  136.3290 C   0  0  1  0  0  3  0  0  0  0  0  0
  187.1630  171.4890  135.7050 C   0  0  0  0  0  3  0  0  0  0  0  0
  187.4130  173.6820  136.7490 C   0  0  0  0  0  3  0  0  0  0  0  0
  183.9390  176.0670  134.5780 N   0  0  0  0  0  2  0  0  0  0  0  0
  184.2550  180.2230  139.4010 O   0  0  0  0  0  0  0  0  0  0  0  0
  184.6040  179.1840  140.0280 C   0  0  0  0  0  0  0  0  0  0  0  0
  185.3090  178.3750  144.1340 N   0  0  0  0  0  0  0  0  0  0  0  0
  183.9570  178.4310  143.5760 C   0  0  0  0  0  2  0  0  0  0  0  0
  186.0520  178.1500  141.7860 C   0  0  0  0  0  2  0  0  0  0  0  0
  186.6370  178.2590  146.0560 O   0  0  0  0  0  0  0  0  0  0  0  0
  185.4840  178.3820  145.5560 C   0  0  0  0  0  0  0  0  0  0  0  0
  184.3910  178.5360  146.3980 O   0  0  0  0  0  1  0  0  0  0  0  0
  183.8960  179.4080  142.4000 C   0  0  0  0  0  2  0  0  0  0  0  0
  186.4730  178.2370  143.2510 C   0  0  0  0  0  2  0  0  0  0  0  0
  185.0900  179.2880  141.4370 C   0  0  0  0  0  3  0  0  0  0  0  0
  188.9880  178.8290  136.9060 S   0  0  0  0  0  0  0  0  0  0  0  0
  189.8010  177.4260  137.7340 C   0  0  0  0  0  2  0  0  0  0  0  0
  190.2380  177.2720  140.2220 C   0  0  0  0  0  0  0  0  0  0  0  0
  189.3420  177.3140  139.1110 N   0  0  0  0  0  2  0  0  0  0  0  0
  191.4840  177.3890  140.0480 O   0  0  0  0  0  0  0  0  0  0  0  0
  191.2390  178.3240  143.0260 C   0  0  1  0  0  3  0  0  0  0  0  0
  191.4070  177.9410  145.1520 C   0  0  1  0  0  3  0  0  0  0  0  0
  190.1730  175.7970  142.2490 C   0  0  0  0  0  2  0  0  0  0  0  0
  191.5110  177.0850  143.8880 C   0  0  1  0  0  3  0  0  0  0  0  0
  190.4430  175.9980  143.7300 C   0  0  0  0  0  2  0  0  0  0  0  0
  189.6820  177.0990  141.5980 C   0  0  1  0  0  3  0  0  0  0  0  0
  189.8970  178.3000  142.4250 N   0  0  0  0  0  2  0  0  0  0  0  0
  191.1990  179.1760  144.2850 C   0  0  0  0  0  2  0  0  0  0  0  0
  190.1920  177.6700  145.9130 N   0  0  0  0  0  2  0  0  0  0  0  0
  190.2200  177.0410  147.1940 C   0  0  0  0  0  0  0  0  0  0  0  0
  189.1520  176.9040  147.8430 O   0  0  0  0  0  1  0  0  0  0  0  0
  191.4180  176.5820  147.7330 O   0  0  0  0  0  0  0  0  0  0  0  0
  1  4  1  0  0  0  0
  2 19  1  0  0  0  0
  3  5  2  0  0  0  0
  4  2  2  0  0  0  0
  5 29  1  0  0  0  0
  5  1  1  0  0  0  0
  6 16  1  0  0  0  0
  7  8  1  0  0  0  0
  8 14  1  0  0  0  0
  8 16  2  0  0  0  0
  9  3  1  6  0  0  0
  9 14  1  0  0  0  0
 10  7  2  0  0  0  0
 10 15  1  0  0  0  0
 11  9  1  0  0  0  0
 13 12  2  0  0  0  0
 13  7  1  0  0  0  0
 14 12  1  6  0  0  0
 15  6  2  0  0  0  0
 17 11  1  0  0  0  0
 17 12  1  0  0  0  0
 18 19  2  0  0  0  0
 19 28  1  0  0  0  0
 20 24  1  0  0  0  0
 21 20  1  0  0  0  0
 22 27  1  0  0  0  0
 24 23  2  0  0  0  0
 24 25  1  0  0  0  0
 26 21  1  0  0  0  0
 27 20  1  0  0  0  0
 28 22  1  0  0  0  0
 28 26  1  0  0  0  0
 29 30  1  0  0  0  0
 30 32  1  0  0  0  0
 32 31  1  0  0  0  0
 33 31  2  0  0  0  0
 34 37  1  0  0  0  0
 34 41  1  1  0  0  0
 35 42  1  1  0  0  0
 36 38  1  0  0  0  0
 37 38  1  1  0  0  0
 37 35  1  0  0  0  0
 39 31  1  6  0  0  0
 39 36  1  0  0  0  0
 39 40  1  0  0  0  0
 40 34  1  0  0  0  0
 41 35  1  0  0  0  0
 42 43  1  0  0  0  0
 43 45  2  0  0  0  0
 43 44  1  0  0  0  0
M  END
>  <MODEL>
2

>  <REMARK>
 VINA RESULT:      -8.8      1.937      2.362
  Name = 
  8 active torsions:
  status: ('A' for Active; 'I' for Inactive)
    1  A    between atoms: C_1  and  C_28
    2  A    between atoms: S_9  and  C_17
    3  A    between atoms: S_9  and  C_39
    4  A    between atoms: C_12  and  N_18
    5  A    between atoms: C_17  and  N_33
    6  A    between atoms: C_19  and  N_26
    7  A    between atoms: N_22  and  C_23
    8  A    between atoms: C_23  and  C_36
                            x       y       z     vdW  Elec       q    Type
                         _______ _______ _______ _____ _____    ______ ____

>  <TORSDO>
F 8

$$$$
=
 OpenBabel10232412433D

 45 50  0  0  1  0  0  0  0  0999 V2000
  184.9270  177.9870  138.4460 N   0  0  0  0  0  2  0  0  0  0  0  0
  182.9390  177.2860  139.5780 N   0  0  0  0  0  0  0  0  0  0  0  0
  185.7960  177.1440  136.3570 N   0  0  0  0  0  0  0  0  0  0  0  0
  183.8400  177.0820  138.6650 C   0  0  0  0  0  3  0  0  0  0  0  0
  185.9680  177.7900  137.4770 C   0  0  0  0  0  0  0  0  0  0  0  0
  185.9250  172.3180  136.5770 C   0  0  0  0  0  3  0  0  0  0  0  0
  183.8200  173.4480  135.1750 C   0  0  0  0  0  0  0  0  0  0  0  0
  184.5020  174.1850  136.1070 C   0  0  0  0  0  0  0  0  0  0  0  0
  184.5590  176.7050  135.7850 C   0  0  1  0  0  3  0  0  0  0  0  0
  184.1860  172.1400  134.8690 C   0  0  0  0  0  3  0  0  0  0  0  0
  183.9340  177.3100  134.7730 C   0  0  0  0  0  2  0  0  0  0  0  0
  182.8400  175.3810  135.1130 C   0  0  0  0  0  0  0  0  0  0  0  0
  182.8330  174.2260  134.5190 N   0  0  0  0  0  0  0  0  0  0  0  0
  183.8190  175.4950  136.2410 C   0  0  1  0  0  3  0  0  0  0  0  0
  185.2510  171.5720  135.5880 C   0  0  0  0  0  3  0  0  0  0  0  0
  185.5450  173.6410  136.8520 C   0  0  0  0  0  3  0  0  0  0  0  0
  182.7890  176.5740  134.3460 N   0  0  0  0  0  2  0  0  0  0  0  0
  182.6310  179.5550  140.1140 O   0  0  0  0  0  0  0  0  0  0  0  0
  182.9010  178.3840  140.5020 C   0  0  0  0  0  0  0  0  0  0  0  0
  184.3050  178.9390  144.4680 N   0  0  0  0  0  0  0  0  0  0  0  0
  185.1200  179.2840  143.3030 C   0  0  0  0  0  2  0  0  0  0  0  0
  182.4020  178.9430  142.8890 C   0  0  0  0  0  2  0  0  0  0  0  0
  184.2170  178.6550  146.7890 O   0  0  0  0  0  1  0  0  0  0  0  0
  184.9180  178.8770  145.7620 C   0  0  0  0  0  0  0  0  0  0  0  0
  186.2890  179.0480  145.8990 O   0  0  0  0  0  0  0  0  0  0  0  0
  184.7870  178.3710  142.1210 C   0  0  0  0  0  2  0  0  0  0  0  0
  182.8590  178.7320  144.3310 C   0  0  0  0  0  2  0  0  0  0  0  0
  183.2790  178.1380  141.9270 C   0  0  0  0  0  3  0  0  0  0  0  0
  187.5920  178.4440  137.8410 S   0  0  0  0  0  0  0  0  0  0  0  0
  188.3740  176.8000  137.8530 C   0  0  0  0  0  2  0  0  0  0  0  0
  190.0910  177.0570  139.6940 C   0  0  0  0  0  0  0  0  0  0  0  0
  188.8840  176.4910  139.1810 N   0  0  0  0  0  2  0  0  0  0  0  0
  190.7400  177.9060  139.0210 O   0  0  0  0  0  0  0  0  0  0  0  0
  188.9480  177.6290  142.5810 C   0  0  1  0  0  3  0  0  0  0  0  0
  189.3930  177.9770  144.6720 C   0  0  1  0  0  3  0  0  0  0  0  0
  191.6240  177.6120  141.6000 C   0  0  0  0  0  2  0  0  0  0  0  0
  190.0440  178.3790  143.3470 C   0  0  1  0  0  3  0  0  0  0  0  0
  191.4460  177.8130  143.0940 C   0  0  0  0  0  2  0  0  0  0  0  0
  190.5700  176.6400  141.0460 C   0  0  1  0  0  3  0  0  0  0  0  0
  189.4450  176.3900  141.9670 N   0  0  0  0  0  2  0  0  0  0  0  0
  188.2760  177.2880  143.9020 C   0  0  0  0  0  2  0  0  0  0  0  0
  190.1720  176.9790  145.3980 N   0  0  0  0  0  2  0  0  0  0  0  0
  190.2270  176.9440  146.8240 C   0  0  0  0  0  0  0  0  0  0  0  0
  190.8460  176.0130  147.4000 O   0  0  0  0  0  0  0  0  0  0  0  0
  189.5960  177.9250  147.5820 O   0  0  0  0  0  1  0  0  0  0  0  0
  1  4  1  0  0  0  0
  2 19  1  0  0  0  0
  3  5  2  0  0  0  0
  4  2  2  0  0  0  0
  5 29  1  0  0  0  0
  5  1  1  0  0  0  0
  6 16  1  0  0  0  0
  7  8  1  0  0  0  0
  8 14  1  0  0  0  0
  8 16  2  0  0  0  0
  9 14  1  0  0  0  0
  9  3  1  6  0  0  0
 10  7  2  0  0  0  0
 10 15  1  0  0  0  0
 11  9  1  0  0  0  0
 13 12  2  0  0  0  0
 13  7  1  0  0  0  0
 14 12  1  6  0  0  0
 15  6  2  0  0  0  0
 17 11  1  0  0  0  0
 17 12  1  0  0  0  0
 18 19  2  0  0  0  0
 19 28  1  0  0  0  0
 20 24  1  0  0  0  0
 21 20  1  0  0  0  0
 22 27  1  0  0  0  0
 24 25  2  0  0  0  0
 24 23  1  0  0  0  0
 26 21  1  0  0  0  0
 27 20  1  0  0  0  0
 28 26  1  0  0  0  0
 28 22  1  0  0  0  0
 29 30  1  0  0  0  0
 30 32  1  0  0  0  0
 32 31  1  0  0  0  0
 33 31  2  0  0  0  0
 34 37  1  0  0  0  0
 34 41  1  1  0  0  0
 35 42  1  6  0  0  0
 36 38  1  0  0  0  0
 37 38  1  1  0  0  0
 37 35  1  0  0  0  0
 39 31  1  6  0  0  0
 39 36  1  0  0  0  0
 39 40  1  0  0  0  0
 40 34  1  0  0  0  0
 41 35  1  0  0  0  0
 42 43  1  0  0  0  0
 43 44  2  0  0  0  0
 43 45  1  0  0  0  0
M  END
>  <MODEL>
3

>  <REMARK>
 VINA RESULT:      -8.4      1.528      1.881
  Name = 
  8 active torsions:
  status: ('A' for Active; 'I' for Inactive)
    1  A    between atoms: C_1  and  C_28
    2  A    between atoms: S_9  and  C_17
    3  A    between atoms: S_9  and  C_39
    4  A    between atoms: C_12  and  N_18
    5  A    between atoms: C_17  and  N_33
    6  A    between atoms: C_19  and  N_26
    7  A    between atoms: N_22  and  C_23
    8  A    between atoms: C_23  and  C_36
                            x       y       z     vdW  Elec       q    Type
                         _______ _______ _______ _____ _____    ______ ____

>  <TORSDO>
F 8

$$$$
=
 OpenBabel10232412433D

 45 50  0  0  1  0  0  0  0  0999 V2000
  185.2450  176.7560  137.3860 N   0  0  0  0  0  2  0  0  0  0  0  0
  186.9750  176.9910  135.7520 N   0  0  0  0  0  0  0  0  0  0  0  0
  183.6900  174.9230  137.6180 N   0  0  0  0  0  0  0  0  0  0  0  0
  185.8970  176.3960  136.1650 C   0  0  0  0  0  3  0  0  0  0  0  0
  184.0320  176.1560  137.8680 C   0  0  0  0  0  0  0  0  0  0  0  0
  180.5680  171.9030  135.4970 C   0  0  0  0  0  3  0  0  0  0  0  0
  183.2210  171.1080  135.5720 C   0  0  0  0  0  0  0  0  0  0  0  0
  182.8950  172.4310  135.7070 C   0  0  0  0  0  0  0  0  0  0  0  0
  184.4950  173.8970  137.0270 C   0  0  1  0  0  3  0  0  0  0  0  0
  182.2440  170.1240  135.4430 C   0  0  0  0  0  3  0  0  0  0  0  0
  185.6270  173.4250  137.5520 C   0  0  0  0  0  2  0  0  0  0  0  0
  185.1410  172.0840  135.8210 C   0  0  0  0  0  0  0  0  0  0  0  0
  184.6170  170.9010  135.7110 N   0  0  0  0  0  0  0  0  0  0  0  0
  184.1560  173.2100  135.7490 C   0  0  1  0  0  3  0  0  0  0  0  0
  180.9010  170.5360  135.4000 C   0  0  0  0  0  3  0  0  0  0  0  0
  181.5740  172.8710  135.6440 C   0  0  0  0  0  3  0  0  0  0  0  0
  186.1410  172.3290  136.7980 N   0  0  0  0  0  2  0  0  0  0  0  0
  187.0580  179.1820  136.6010 O   0  0  0  0  0  0  0  0  0  0  0  0
  187.6450  178.0810  136.4020 C   0  0  0  0  0  0  0  0  0  0  0  0
  191.2220  176.9570  138.3910 N   0  0  0  0  0  0  0  0  0  0  0  0
  190.1230  177.6230  139.0910 C   0  0  0  0  0  2  0  0  0  0  0  0
  189.5460  176.4730  136.6380 C   0  0  0  0  0  2  0  0  0  0  0  0
  193.4400  176.2190  138.4710 O   0  0  0  0  0  0  0  0  0  0  0  0
  192.5020  176.8550  139.0270 C   0  0  0  0  0  0  0  0  0  0  0  0
  192.7270  177.4640  140.2540 O   0  0  0  0  0  1  0  0  0  0  0  0
  189.3580  178.5480  138.1420 C   0  0  0  0  0  2  0  0  0  0  0  0
  191.0000  176.3310  137.0820 C   0  0  0  0  0  2  0  0  0  0  0  0
  189.0880  177.9280  136.7600 C   0  0  0  0  0  3  0  0  0  0  0  0
  182.9240  177.1660  138.8430 S   0  0  0  0  0  0  0  0  0  0  0  0
  184.0740  178.5760  138.8920 C   0  0  0  0  0  2  0  0  0  0  0  0
  185.8440  178.7890  140.6890 C   0  0  0  0  0  0  0  0  0  0  0  0
  184.4820  178.8510  140.2630 N   0  0  0  0  0  2  0  0  0  0  0  0
  186.7660  178.5430  139.8610 O   0  0  0  0  0  0  0  0  0  0  0  0
  188.0590  177.5510  142.5670 C   0  0  1  0  0  3  0  0  0  0  0  0
  188.5910  176.9130  144.5680 C   0  0  1  0  0  3  0  0  0  0  0  0
  185.3140  178.1490  143.0550 C   0  0  0  0  0  2  0  0  0  0  0  0
  187.3200  176.8540  143.7170 C   0  0  1  0  0  3  0  0  0  0  0  0
  186.1290  177.6630  144.2410 C   0  0  0  0  0  2  0  0  0  0  0  0
  186.1650  179.0300  142.1280 C   0  0  1  0  0  3  0  0  0  0  0  0
  187.6160  178.9400  142.3810 N   0  0  0  0  0  2  0  0  0  0  0  0
  189.3320  177.5480  143.3990 C   0  0  0  0  0  2  0  0  0  0  0  0
  188.4880  177.8750  145.6610 N   0  0  0  0  0  2  0  0  0  0  0  0
  189.0260  177.6160  146.9570 C   0  0  0  0  0  0  0  0  0  0  0  0
  188.9820  178.5120  147.8380 O   0  0  0  0  0  1  0  0  0  0  0  0
  189.6030  176.3850  147.2530 O   0  0  0  0  0  0  0  0  0  0  0  0
  1  5  1  0  0  0  0
  2  4  2  0  0  0  0
  2 19  1  0  0  0  0
  3  5  2  0  0  0  0
  4  1  1  0  0  0  0
  5 29  1  0  0  0  0
  6 16  1  0  0  0  0
  7  8  1  0  0  0  0
  7 13  1  0  0  0  0
  9 11  1  0  0  0  0
  9  3  1  1  0  0  0
 10  7  2  0  0  0  0
 12 17  1  0  0  0  0
 13 12  2  0  0  0  0
 14  8  1  1  0  0  0
 14 12  1  0  0  0  0
 14  9  1  0  0  0  0
 15 10  1  0  0  0  0
 15  6  2  0  0  0  0
 16  8  2  0  0  0  0
 17 11  1  0  0  0  0
 19 18  2  0  0  0  0
 19 28  1  0  0  0  0
 20 24  1  0  0  0  0
 20 21  1  0  0  0  0
 22 28  1  0  0  0  0
 22 27  1  0  0  0  0
 23 24  2  0  0  0  0
 24 25  1  0  0  0  0
 26 21  1  0  0  0  0
 27 20  1  0  0  0  0
 28 26  1  0  0  0  0
 29 30  1  0  0  0  0
 30 32  1  0  0  0  0
 32 31  1  0  0  0  0
 33 31  2  0  0  0  0
 34 41  1  1  0  0  0
 34 37  1  0  0  0  0
 35 42  1  1  0  0  0
 36 38  1  0  0  0  0
 37 38  1  1  0  0  0
 37 35  1  0  0  0  0
 39 31  1  6  0  0  0
 39 40  1  0  0  0  0
 39 36  1  0  0  0  0
 40 34  1  0  0  0  0
 41 35  1  0  0  0  0
 42 43  1  0  0  0  0
 43 45  2  0  0  0  0
 43 44  1  0  0  0  0
M  END
>  <MODEL>
4

>  <REMARK>
 VINA RESULT:      -8.4      2.403      5.099
  Name = 
  8 active torsions:
  status: ('A' for Active; 'I' for Inactive)
    1  A    between atoms: C_1  and  C_28
    2  A    between atoms: S_9  and  C_17
    3  A    between atoms: S_9  and  C_39
    4  A    between atoms: C_12  and  N_18
    5  A    between atoms: C_17  and  N_33
    6  A    between atoms: C_19  and  N_26
    7  A    between atoms: N_22  and  C_23
    8  A    between atoms: C_23  and  C_36
                            x       y       z     vdW  Elec       q    Type
                         _______ _______ _______ _____ _____    ______ ____

>  <TORSDO>
F 8

$$$$
=
 OpenBabel10232412433D

 45 50  0  0  1  0  0  0  0  0999 V2000
  189.7170  177.3540  139.0110 N   0  0  0  0  0  2  0  0  0  0  0  0
  190.7050  176.3490  140.9440 N   0  0  0  0  0  0  0  0  0  0  0  0
  190.1350  176.7990  136.6980 N   0  0  0  0  0  0  0  0  0  0  0  0
  190.7000  176.5410  139.6590 C   0  0  0  0  0  3  0  0  0  0  0  0
  189.6890  177.6270  137.6010 C   0  0  0  0  0  0  0  0  0  0  0  0
  194.6590  176.5260  135.0190 C   0  0  0  0  0  3  0  0  0  0  0  0
  193.4400  174.1380  135.7170 C   0  0  0  0  0  0  0  0  0  0  0  0
  192.9800  175.3220  136.2300 C   0  0  0  0  0  0  0  0  0  0  0  0
  190.5280  175.4340  136.8850 C   0  0  1  0  0  3  0  0  0  0  0  0
  194.4890  174.0970  134.8030 C   0  0  0  0  0  3  0  0  0  0  0  0
  189.7090  174.3870  136.7690 C   0  0  0  0  0  2  0  0  0  0  0  0
  191.7770  173.5390  136.9720 C   0  0  0  0  0  0  0  0  0  0  0  0
  192.6400  173.0450  136.1360 N   0  0  0  0  0  0  0  0  0  0  0  0
  191.9170  175.0100  137.2160 C   0  0  1  0  0  3  0  0  0  0  0  0
  195.1060  175.3120  134.4580 C   0  0  0  0  0  3  0  0  0  0  0  0
  193.5870  176.5380  135.9250 C   0  0  0  0  0  3  0  0  0  0  0  0
  190.4130  173.1530  136.8950 N   0  0  0  0  0  2  0  0  0  0  0  0
  188.5990  177.1900  141.5680 O   0  0  0  0  0  0  0  0  0  0  0  0
  189.7900  176.9220  141.8910 C   0  0  0  0  0  0  0  0  0  0  0  0
  190.4650  176.9520  146.0810 N   0  0  0  0  0  0  0  0  0  0  0  0
  189.1170  176.9950  145.5140 C   0  0  0  0  0  2  0  0  0  0  0  0
  191.1670  176.1740  143.8410 C   0  0  0  0  0  2  0  0  0  0  0  0
  191.7980  177.1430  147.9940 O   0  0  0  0  0  0  0  0  0  0  0  0
  190.6540  177.2480  147.4700 C   0  0  0  0  0  0  0  0  0  0  0  0
  189.5840  177.6640  148.2510 O   0  0  0  0  0  1  0  0  0  0  0  0
  189.1240  177.7010  144.1550 C   0  0  0  0  0  2  0  0  0  0  0  0
  191.6060  176.5370  145.2580 C   0  0  0  0  0  2  0  0  0  0  0  0
  190.2960  177.2850  143.2500 C   0  0  0  0  0  3  0  0  0  0  0  0
  189.0290  179.1990  137.0620 S   0  0  0  0  0  0  0  0  0  0  0  0
  187.4280  178.4840  136.5720 C   0  0  0  0  0  2  0  0  0  0  0  0
  185.2930  178.2410  137.9100 C   0  0  0  0  0  0  0  0  0  0  0  0
  186.3550  179.0400  137.3850 N   0  0  0  0  0  2  0  0  0  0  0  0
  185.2790  176.9920  137.7290 O   0  0  0  0  0  0  0  0  0  0  0  0
  184.7830  178.4630  141.0180 C   0  0  1  0  0  3  0  0  0  0  0  0
  183.3210  178.5570  142.6130 C   0  0  1  0  0  3  0  0  0  0  0  0
  182.9860  177.9820  138.8580 C   0  0  0  0  0  2  0  0  0  0  0  0
  183.4270  177.7990  141.2880 C   0  0  1  0  0  3  0  0  0  0  0  0
  182.3700  178.1460  140.2360 C   0  0  0  0  0  2  0  0  0  0  0  0
  184.2030  178.9040  138.6860 C   0  0  1  0  0  3  0  0  0  0  0  0
  184.7060  179.4720  139.9510 N   0  0  0  0  0  2  0  0  0  0  0  0
  184.6960  179.1630  142.3640 C   0  0  0  0  0  2  0  0  0  0  0  0
  182.3110  179.6100  142.5770 N   0  0  0  0  0  2  0  0  0  0  0  0
  181.1070  179.5380  143.3410 C   0  0  0  0  0  0  0  0  0  0  0  0
  180.3090  180.5090  143.3360 O   0  0  0  0  0  0  0  0  0  0  0  0
  180.8130  178.4070  144.0960 O   0  0  0  0  0  1  0  0  0  0  0  0
  1  4  1  0  0  0  0
  2 19  1  0  0  0  0
  3  5  2  0  0  0  0
  4  2  2  0  0  0  0
  5  1  1  0  0  0  0
  6 16  1  0  0  0  0
  7 13  1  0  0  0  0
  7  8  1  0  0  0  0
  9  3  1  6  0  0  0
  9 14  1  0  0  0  0
 10  7  2  0  0  0  0
 11  9  1  0  0  0  0
 11 17  1  0  0  0  0
 12 14  1  0  0  0  0
 13 12  2  0  0  0  0
 14  8  1  6  0  0  0
 15 10  1  0  0  0  0
 15  6  2  0  0  0  0
 16  8  2  0  0  0  0
 17 12  1  0  0  0  0
 18 19  2  0  0  0  0
 19 28  1  0  0  0  0
 20 24  1  0  0  0  0
 21 20  1  0  0  0  0
 22 27  1  0  0  0  0
 24 23  2  0  0  0  0
 24 25  1  0  0  0  0
 26 21  1  0  0  0  0
 27 20  1  0  0  0  0
 28 22  1  0  0  0  0
 28 26  1  0  0  0  0
 29  5  1  0  0  0  0
 30 29  1  0  0  0  0
 30 32  1  0  0  0  0
 32 31  1  0  0  0  0
 33 31  2  0  0  0  0
 34 37  1  0  0  0  0
 34 41  1  1  0  0  0
 35 42  1  6  0  0  0
 36 38  1  0  0  0  0
 37 38  1  6  0  0  0
 37 35  1  0  0  0  0
 39 31  1  1  0  0  0
 39 36  1  0  0  0  0
 39 40  1  0  0  0  0
 40 34  1  0  0  0  0
 41 35  1  0  0  0  0
 42 43  1  0  0  0  0
 43 45  1  0  0  0  0
 44 43  2  0  0  0  0
M  END
>  <MODEL>
5

>  <REMARK>
 VINA RESULT:      -8.3      3.609      8.226
  Name = 
  8 active torsions:
  status: ('A' for Active; 'I' for Inactive)
    1  A    between atoms: C_1  and  C_28
    2  A    between atoms: S_9  and  C_17
    3  A    between atoms: S_9  and  C_39
    4  A    between atoms: C_12  and  N_18
    5  A    between atoms: C_17  and  N_33
    6  A    between atoms: C_19  and  N_26
    7  A    between atoms: N_22  and  C_23
    8  A    between atoms: C_23  and  C_36
                            x       y       z     vdW  Elec       q    Type
                         _______ _______ _______ _____ _____    ______ ____

>  <TORSDO>
F 8

$$$$
=
 OpenBabel10232412433D

 45 50  0  0  1  0  0  0  0  0999 V2000
  189.7210  176.9730  138.7420 N   0  0  0  0  0  2  0  0  0  0  0  0
  191.3520  175.2710  138.3350 N   0  0  0  0  0  0  0  0  0  0  0  0
  188.7840  177.6220  140.8700 N   0  0  0  0  0  0  0  0  0  0  0  0
  190.4910  175.8300  139.1290 C   0  0  0  0  0  3  0  0  0  0  0  0
  188.7310  177.6040  139.5680 C   0  0  0  0  0  0  0  0  0  0  0  0
  186.9620  177.3440  145.3390 C   0  0  0  0  0  3  0  0  0  0  0  0
  189.7080  177.0730  145.0900 C   0  0  0  0  0  0  0  0  0  0  0  0
  188.8930  176.8440  144.0130 C   0  0  0  0  0  0  0  0  0  0  0  0
  189.8790  177.2270  141.7030 C   0  0  1  0  0  3  0  0  0  0  0  0
  189.1980  177.4900  146.3160 C   0  0  0  0  0  3  0  0  0  0  0  0
  191.1450  177.6080  141.5220 C   0  0  0  0  0  2  0  0  0  0  0  0
  191.0920  176.5570  143.5030 C   0  0  0  0  0  0  0  0  0  0  0  0
  191.0760  176.9540  144.7400 N   0  0  0  0  0  0  0  0  0  0  0  0
  189.7370  176.3490  142.8990 C   0  0  1  0  0  3  0  0  0  0  0  0
  187.8030  177.6200  146.4360 C   0  0  0  0  0  3  0  0  0  0  0  0
  187.5070  176.9420  144.1090 C   0  0  0  0  0  3  0  0  0  0  0  0
  191.9890  177.1520  142.5770 N   0  0  0  0  0  2  0  0  0  0  0  0
  190.7590  175.5990  136.0830 O   0  0  0  0  0  0  0  0  0  0  0  0
  191.6410  175.6640  136.9840 C   0  0  0  0  0  0  0  0  0  0  0  0
  195.7320  175.5200  135.8630 N   0  0  0  0  0  0  0  0  0  0  0  0
  195.2080  174.7360  136.9810 C   0  0  0  0  0  2  0  0  0  0  0  0
  193.3680  175.7490  135.1750 C   0  0  0  0  0  2  0  0  0  0  0  0
  197.6210  176.2660  134.7020 O   0  0  0  0  0  0  0  0  0  0  0  0
  197.1490  175.6570  135.7020 C   0  0  0  0  0  0  0  0  0  0  0  0
  198.0170  175.1320  136.6510 O   0  0  0  0  0  1  0  0  0  0  0  0
  194.0290  175.4560  137.6420 C   0  0  0  0  0  2  0  0  0  0  0  0
  194.8220  176.0990  134.8680 C   0  0  0  0  0  2  0  0  0  0  0  0
  193.0380  176.0660  136.6360 C   0  0  0  0  0  3  0  0  0  0  0  0
  187.3390  178.3870  138.7620 S   0  0  0  0  0  0  0  0  0  0  0  0
  187.6590  177.5680  137.1680 C   0  0  0  0  0  2  0  0  0  0  0  0
  186.8010  175.5900  135.8420 C   0  0  0  0  0  0  0  0  0  0  0  0
  186.8300  176.3790  137.0330 N   0  0  0  0  0  2  0  0  0  0  0  0
  187.5520  175.8710  134.8670 O   0  0  0  0  0  0  0  0  0  0  0  0
  183.6800  175.3650  136.2640 C   0  0  1  0  0  3  0  0  0  0  0  0
  182.0280  174.1530  136.9680 C   0  0  1  0  0  3  0  0  0  0  0  0
  185.8090  173.6670  137.1100 C   0  0  0  0  0  2  0  0  0  0  0  0
  183.4650  174.3980  137.4350 C   0  0  1  0  0  3  0  0  0  0  0  0
  184.3970  173.1830  137.3890 C   0  0  0  0  0  2  0  0  0  0  0  0
  185.8770  174.4180  135.7710 C   0  0  1  0  0  3  0  0  0  0  0  0
  184.5590  174.7990  135.2300 N   0  0  0  0  0  2  0  0  0  0  0  0
  182.2330  175.1610  135.8450 C   0  0  0  0  0  2  0  0  0  0  0  0
  181.8440  172.8220  136.4000 N   0  0  0  0  0  2  0  0  0  0  0  0
  180.8600  171.9120  136.8920 C   0  0  0  0  0  0  0  0  0  0  0  0
  180.6890  170.8090  136.3140 O   0  0  0  0  0  0  0  0  0  0  0  0
  180.0870  172.2370  138.0010 O   0  0  0  0  0  1  0  0  0  0  0  0
  1  4  1  0  0  0  0
  1  5  1  0  0  0  0
  2  4  2  0  0  0  0
  5  3  2  0  0  0  0
  6 15  1  0  0  0  0
  7 10  1  0  0  0  0
  8 16  1  0  0  0  0
  8  7  2  0  0  0  0
  9  3  1  1  0  0  0
  9 14  1  0  0  0  0
 10 15  2  0  0  0  0
 11  9  1  0  0  0  0
 11 17  1  0  0  0  0
 12 13  2  0  0  0  0
 13  7  1  0  0  0  0
 14 12  1  1  0  0  0
 14  8  1  0  0  0  0
 16  6  2  0  0  0  0
 17 12  1  0  0  0  0
 18 19  2  0  0  0  0
 19  2  1  0  0  0  0
 20 21  1  0  0  0  0
 21 26  1  0  0  0  0
 22 28  1  0  0  0  0
 23 24  2  0  0  0  0
 24 20  1  0  0  0  0
 24 25  1  0  0  0  0
 27 22  1  0  0  0  0
 27 20  1  0  0  0  0
 28 19  1  0  0  0  0
 28 26  1  0  0  0  0
 29  5  1  0  0  0  0
 30 29  1  0  0  0  0
 31 32  1  0  0  0  0
 32 30  1  0  0  0  0
 33 31  2  0  0  0  0
 34 41  1  6  0  0  0
 34 37  1  0  0  0  0
 35 42  1  6  0  0  0
 35 37  1  0  0  0  0
 36 38  1  0  0  0  0
 37 38  1  6  0  0  0
 39 31  1  1  0  0  0
 39 36  1  0  0  0  0
 40 39  1  0  0  0  0
 40 34  1  0  0  0  0
 41 35  1  0  0  0  0
 42 43  1  0  0  0  0
 43 45  1  0  0  0  0
 44 43  2  0  0  0  0
M  END
>  <MODEL>
6

>  <REMARK>
 VINA RESULT:      -8.3      4.505     11.073
  Name = 
  8 active torsions:
  status: ('A' for Active; 'I' for Inactive)
    1  A    between atoms: C_1  and  C_28
    2  A    between atoms: S_9  and  C_17
    3  A    between atoms: S_9  and  C_39
    4  A    between atoms: C_12  and  N_18
    5  A    between atoms: C_17  and  N_33
    6  A    between atoms: C_19  and  N_26
    7  A    between atoms: N_22  and  C_23
    8  A    between atoms: C_23  and  C_36
                            x       y       z     vdW  Elec       q    Type
                         _______ _______ _______ _____ _____    ______ ____

>  <TORSDO>
F 8

$$$$
=
 OpenBabel10232412433D

 45 50  0  0  1  0  0  0  0  0999 V2000
  190.1890  176.8660  137.9390 N   0  0  0  0  0  2  0  0  0  0  0  0
  191.1530  174.6770  137.8820 N   0  0  0  0  0  0  0  0  0  0  0  0
  189.4070  178.0700  139.8800 N   0  0  0  0  0  0  0  0  0  0  0  0
  190.4910  175.5940  138.5210 C   0  0  0  0  0  3  0  0  0  0  0  0
  189.4300  177.8980  138.5880 C   0  0  0  0  0  0  0  0  0  0  0  0
  186.6740  177.6670  143.8460 C   0  0  0  0  0  3  0  0  0  0  0  0
  189.3550  177.0170  144.1050 C   0  0  0  0  0  0  0  0  0  0  0  0
  188.7600  177.0080  142.8710 C   0  0  0  0  0  0  0  0  0  0  0  0
  190.2460  177.4460  140.8580 C   0  0  1  0  0  3  0  0  0  0  0  0
  188.6560  177.3940  145.2490 C   0  0  0  0  0  3  0  0  0  0  0  0
  191.5600  177.6510  140.9710 C   0  0  0  0  0  2  0  0  0  0  0  0
  190.9630  176.4470  142.7680 C   0  0  0  0  0  0  0  0  0  0  0  0
  190.7400  176.7300  144.0150 N   0  0  0  0  0  0  0  0  0  0  0  0
  189.7490  176.4960  141.8920 C   0  0  1  0  0  3  0  0  0  0  0  0
  187.2950  177.7170  145.1100 C   0  0  0  0  0  3  0  0  0  0  0  0
  187.4080  177.3000  142.7060 C   0  0  0  0  0  3  0  0  0  0  0  0
  192.1000  176.9830  142.1100 N   0  0  0  0  0  2  0  0  0  0  0  0
  190.8460  174.8450  135.5560 O   0  0  0  0  0  0  0  0  0  0  0  0
  191.6410  174.7660  136.5340 C   0  0  0  0  0  0  0  0  0  0  0  0
  195.8150  174.2930  137.1410 N   0  0  0  0  0  0  0  0  0  0  0  0
  195.0260  175.2590  137.9050 C   0  0  0  0  0  2  0  0  0  0  0  0
  193.6390  173.2600  136.5810 C   0  0  0  0  0  2  0  0  0  0  0  0
  197.9430  173.4960  136.5850 O   0  0  0  0  0  0  0  0  0  0  0  0
  197.2450  174.3660  137.1770 C   0  0  0  0  0  0  0  0  0  0  0  0
  197.8790  175.4010  137.8530 O   0  0  0  0  0  1  0  0  0  0  0  0
  193.8480  175.7740  137.0750 C   0  0  0  0  0  2  0  0  0  0  0  0
  195.1540  173.2090  136.4040 C   0  0  0  0  0  2  0  0  0  0  0  0
  193.1130  174.6690  136.2950 C   0  0  0  0  0  3  0  0  0  0  0  0
  188.4460  178.9870  137.5660 S   0  0  0  0  0  0  0  0  0  0  0  0
  186.9130  178.0480  137.8480 C   0  0  0  0  0  2  0  0  0  0  0  0
  186.7180  176.3450  135.9860 C   0  0  0  0  0  0  0  0  0  0  0  0
  187.0460  176.6930  137.3320 N   0  0  0  0  0  2  0  0  0  0  0  0
  186.3470  177.2300  135.1650 O   0  0  0  0  0  0  0  0  0  0  0  0
  184.6630  173.9530  136.1340 C   0  0  1  0  0  3  0  0  0  0  0  0
  184.3760  171.8220  136.3960 C   0  0  1  0  0  3  0  0  0  0  0  0
  187.4650  174.0450  136.6510 C   0  0  0  0  0  2  0  0  0  0  0  0
  185.3140  172.8690  137.0020 C   0  0  1  0  0  3  0  0  0  0  0  0
  186.8050  172.6790  136.7060 C   0  0  0  0  0  2  0  0  0  0  0  0
  186.8310  174.9180  135.5570 C   0  0  1  0  0  3  0  0  0  0  0  0
  185.5460  174.4020  135.0490 N   0  0  0  0  0  2  0  0  0  0  0  0
  183.6960  172.9160  135.5850 C   0  0  0  0  0  2  0  0  0  0  0  0
  185.0680  170.9060  135.4950 N   0  0  0  0  0  2  0  0  0  0  0  0
  184.7160  169.5260  135.3920 C   0  0  0  0  0  0  0  0  0  0  0  0
  185.2900  168.8000  134.5410 O   0  0  0  0  0  0  0  0  0  0  0  0
  183.7410  168.9800  136.2190 O   0  0  0  0  0  1  0  0  0  0  0  0
  1  4  1  0  0  0  0
  1  5  1  0  0  0  0
  2  4  2  0  0  0  0
  5  3  2  0  0  0  0
  6 15  1  0  0  0  0
  7 10  1  0  0  0  0
  8  7  2  0  0  0  0
  9  3  1  1  0  0  0
  9 11  1  0  0  0  0
  9 14  1  0  0  0  0
 11 17  1  0  0  0  0
 12 13  2  0  0  0  0
 13  7  1  0  0  0  0
 14 12  1  1  0  0  0
 14  8  1  0  0  0  0
 15 10  2  0  0  0  0
 16  8  1  0  0  0  0
 16  6  2  0  0  0  0
 17 12  1  0  0  0  0
 18 19  2  0  0  0  0
 19  2  1  0  0  0  0
 20 24  1  0  0  0  0
 20 21  1  0  0  0  0
 23 24  2  0  0  0  0
 24 25  1  0  0  0  0
 26 21  1  0  0  0  0
 27 22  1  0  0  0  0
 27 20  1  0  0  0  0
 28 19  1  0  0  0  0
 28 22  1  0  0  0  0
 28 26  1  0  0  0  0
 29 30  1  0  0  0  0
 29  5  1  0  0  0  0
 31 32  1  0  0  0  0
 32 30  1  0  0  0  0
 33 31  2  0  0  0  0
 34 41  1  6  0  0  0
 34 37  1  0  0  0  0
 35 42  1  6  0  0  0
 35 37  1  0  0  0  0
 36 38  1  0  0  0  0
 37 38  1  6  0  0  0
 39 31  1  1  0  0  0
 39 36  1  0  0  0  0
 40 39  1  0  0  0  0
 40 34  1  0  0  0  0
 41 35  1  0  0  0  0
 43 42  1  0  0  0  0
 43 45  1  0  0  0  0
 44 43  2  0  0  0  0
M  END
>  <MODEL>
7

>  <REMARK>
 VINA RESULT:      -8.2      4.810     10.732
  Name = 
  8 active torsions:
  status: ('A' for Active; 'I' for Inactive)
    1  A    between atoms: C_1  and  C_28
    2  A    between atoms: S_9  and  C_17
    3  A    between atoms: S_9  and  C_39
    4  A    between atoms: C_12  and  N_18
    5  A    between atoms: C_17  and  N_33
    6  A    between atoms: C_19  and  N_26
    7  A    between atoms: N_22  and  C_23
    8  A    between atoms: C_23  and  C_36
                            x       y       z     vdW  Elec       q    Type
                         _______ _______ _______ _____ _____    ______ ____

>  <TORSDO>
F 8

$$$$
=
 OpenBabel10232412433D

 45 50  0  0  1  0  0  0  0  0999 V2000
  184.1390  178.3900  139.7150 N   0  0  0  0  0  2  0  0  0  0  0  0
  185.4790  178.8790  137.7950 N   0  0  0  0  0  0  0  0  0  0  0  0
  182.0060  179.3600  140.2960 N   0  0  0  0  0  0  0  0  0  0  0  0
  184.4910  179.1870  138.5800 C   0  0  0  0  0  3  0  0  0  0  0  0
  183.0820  178.7050  140.6340 C   0  0  0  0  0  0  0  0  0  0  0  0
  182.2940  175.2580  137.7560 C   0  0  0  0  0  3  0  0  0  0  0  0
  181.7180  177.5670  136.3380 C   0  0  0  0  0  0  0  0  0  0  0  0
  181.4870  177.5120  137.6870 C   0  0  0  0  0  0  0  0  0  0  0  0
  181.5700  179.7000  138.9750 C   0  0  1  0  0  3  0  0  0  0  0  0
  182.2880  176.4990  135.6500 C   0  0  0  0  0  3  0  0  0  0  0  0
  181.8010  180.8710  138.3790 C   0  0  0  0  0  2  0  0  0  0  0  0
  180.9310  179.5330  136.8020 C   0  0  0  0  0  0  0  0  0  0  0  0
  181.4290  178.8530  135.8150 N   0  0  0  0  0  0  0  0  0  0  0  0
  180.8150  178.7720  138.0870 C   0  0  1  0  0  3  0  0  0  0  0  0
  182.5720  175.3290  136.3760 C   0  0  0  0  0  3  0  0  0  0  0  0
  181.7360  176.3580  138.4270 C   0  0  0  0  0  3  0  0  0  0  0  0
  181.3500  180.8710  137.0260 N   0  0  0  0  0  2  0  0  0  0  0  0
  185.9590  176.5770  137.7680 O   0  0  0  0  0  0  0  0  0  0  0  0
  186.3650  177.7600  137.9440 C   0  0  0  0  0  0  0  0  0  0  0  0
  190.1220  177.3420  139.8740 N   0  0  0  0  0  0  0  0  0  0  0  0
  188.8610  177.2870  140.6140 C   0  0  0  0  0  2  0  0  0  0  0  0
  188.7310  176.9490  137.8680 C   0  0  0  0  0  2  0  0  0  0  0  0
  192.4560  177.4540  139.9780 O   0  0  0  0  0  0  0  0  0  0  0  0
  191.3540  177.4800  140.5930 C   0  0  0  0  0  0  0  0  0  0  0  0
  191.3480  177.6560  141.9700 O   0  0  0  0  0  1  0  0  0  0  0  0
  187.7970  178.1550  139.9370 C   0  0  0  0  0  2  0  0  0  0  0  0
  190.1370  177.1820  138.4160 C   0  0  0  0  0  2  0  0  0  0  0  0
  187.7650  178.0080  138.4060 C   0  0  0  0  0  3  0  0  0  0  0  0
  183.2660  178.1920  142.3370 S   0  0  0  0  0  0  0  0  0  0  0  0
  184.7380  179.2290  142.6060 C   0  0  0  0  0  2  0  0  0  0  0  0
  186.1550  178.0390  144.3330 C   0  0  0  0  0  0  0  0  0  0  0  0
  185.8780  178.4040  142.9800 N   0  0  0  0  0  2  0  0  0  0  0  0
  185.3720  178.3800  145.2640 O   0  0  0  0  0  0  0  0  0  0  0  0
  187.9220  177.8220  146.9410 C   0  0  1  0  0  3  0  0  0  0  0  0
  189.9030  177.5450  147.7710 C   0  0  1  0  0  3  0  0  0  0  0  0
  188.6580  177.9650  144.1910 C   0  0  0  0  0  2  0  0  0  0  0  0
  189.3340  178.2760  146.5530 C   0  0  1  0  0  3  0  0  0  0  0  0
  189.7810  177.7430  145.1880 C   0  0  0  0  0  2  0  0  0  0  0  0
  187.3790  177.2360  144.6330 C   0  0  1  0  0  3  0  0  0  0  0  0
  187.4020  176.7860  146.0370 N   0  0  0  0  0  2  0  0  0  0  0  0
  188.4910  177.1520  148.1820 C   0  0  0  0  0  2  0  0  0  0  0  0
  190.6560  176.3500  147.4060 N   0  0  0  0  0  2  0  0  0  0  0  0
  191.9930  176.1240  147.8520 C   0  0  0  0  0  0  0  0  0  0  0  0
  192.5660  175.0400  147.5750 O   0  0  0  0  0  0  0  0  0  0  0  0
  192.6650  177.0890  148.5940 O   0  0  0  0  0  1  0  0  0  0  0  0
  1  5  1  0  0  0  0
  2 19  1  0  0  0  0
  2  4  2  0  0  0  0
  3  5  2  0  0  0  0
  4  1  1  0  0  0  0
  5 29  1  0  0  0  0
  6 16  1  0  0  0  0
  7  8  1  0  0  0  0
  8 14  1  0  0  0  0
  8 16  2  0  0  0  0
  9  3  1  6  0  0  0
 10  7  2  0  0  0  0
 10 15  1  0  0  0  0
 11  9  1  0  0  0  0
 12 17  1  0  0  0  0
 13  7  1  0  0  0  0
 13 12  2  0  0  0  0
 14 12  1  6  0  0  0
 14  9  1  0  0  0  0
 15  6  2  0  0  0  0
 17 11  1  0  0  0  0
 18 19  2  0  0  0  0
 19 28  1  0  0  0  0
 20 24  1  0  0  0  0
 20 21  1  0  0  0  0
 22 28  1  0  0  0  0
 22 27  1  0  0  0  0
 23 24  2  0  0  0  0
 24 25  1  0  0  0  0
 26 21  1  0  0  0  0
 27 20  1  0  0  0  0
 28 26  1  0  0  0  0
 29 30  1  0  0  0  0
 30 32  1  0  0  0  0
 31 33  2  0  0  0  0
 32 31  1  0  0  0  0
 34 41  1  1  0  0  0
 35 42  1  6  0  0  0
 35 41  1  0  0  0  0
 36 39  1  0  0  0  0
 36 38  1  0  0  0  0
 37 38  1  6  0  0  0
 37 34  1  0  0  0  0
 37 35  1  0  0  0  0
 39 31  1  1  0  0  0
 39 40  1  0  0  0  0
 40 34  1  0  0  0  0
 42 43  1  0  0  0  0
 43 45  1  0  0  0  0
 44 43  2  0  0  0  0
M  END
>  <MODEL>
8

>  <REMARK>
 VINA RESULT:      -8.2      2.509      4.953
  Name = 
  8 active torsions:
  status: ('A' for Active; 'I' for Inactive)
    1  A    between atoms: C_1  and  C_28
    2  A    between atoms: S_9  and  C_17
    3  A    between atoms: S_9  and  C_39
    4  A    between atoms: C_12  and  N_18
    5  A    between atoms: C_17  and  N_33
    6  A    between atoms: C_19  and  N_26
    7  A    between atoms: N_22  and  C_23
    8  A    between atoms: C_23  and  C_36
                            x       y       z     vdW  Elec       q    Type
                         _______ _______ _______ _____ _____    ______ ____

>  <TORSDO>
F 8

$$$$
=
 OpenBabel10232412433D

 45 50  0  0  1  0  0  0  0  0999 V2000
  188.8530  177.6350  140.2550 N   0  0  0  0  0  2  0  0  0  0  0  0
  190.5730  176.1290  139.5520 N   0  0  0  0  0  0  0  0  0  0  0  0
  188.1590  178.1090  142.5190 N   0  0  0  0  0  0  0  0  0  0  0  0
  189.7780  176.5670  140.4810 C   0  0  0  0  0  3  0  0  0  0  0  0
  187.9280  178.1310  141.2360 C   0  0  0  0  0  0  0  0  0  0  0  0
  187.0380  177.6620  147.1990 C   0  0  0  0  0  3  0  0  0  0  0  0
  189.7310  177.6220  146.5500 C   0  0  0  0  0  0  0  0  0  0  0  0
  188.7890  177.3310  145.5990 C   0  0  0  0  0  0  0  0  0  0  0  0
  189.3930  177.8040  143.1780 C   0  0  1  0  0  3  0  0  0  0  0  0
  189.3720  177.9900  147.8440 C   0  0  0  0  0  3  0  0  0  0  0  0
  190.5830  178.2900  142.8210 C   0  0  0  0  0  2  0  0  0  0  0  0
  190.9060  177.2300  144.7710 C   0  0  0  0  0  0  0  0  0  0  0  0
  191.0390  177.6190  146.0030 N   0  0  0  0  0  0  0  0  0  0  0  0
  189.4990  176.9130  144.3670 C   0  0  1  0  0  3  0  0  0  0  0  0
  188.0040  178.0030  148.1670 C   0  0  0  0  0  3  0  0  0  0  0  0
  187.4280  177.3120  145.8970 C   0  0  0  0  0  3  0  0  0  0  0  0
  191.6060  177.9020  143.7350 N   0  0  0  0  0  2  0  0  0  0  0  0
  189.5940  176.9910  137.5960 O   0  0  0  0  0  0  0  0  0  0  0  0
  190.6320  176.5950  138.1950 C   0  0  0  0  0  0  0  0  0  0  0  0
  194.3850  175.2410  136.7490 N   0  0  0  0  0  0  0  0  0  0  0  0
  194.0880  175.3170  138.1800 C   0  0  0  0  0  2  0  0  0  0  0  0
  191.9370  175.3850  136.4370 C   0  0  0  0  0  2  0  0  0  0  0  0
  196.0060  174.9100  135.0950 O   0  0  0  0  0  0  0  0  0  0  0  0
  195.7400  175.0530  136.3210 C   0  0  0  0  0  0  0  0  0  0  0  0
  196.7740  175.0380  137.2470 O   0  0  0  0  0  1  0  0  0  0  0  0
  193.0980  176.4480  138.4680 C   0  0  0  0  0  2  0  0  0  0  0  0
  193.3020  175.2800  135.7610 C   0  0  0  0  0  2  0  0  0  0  0  0
  191.9340  176.5190  137.4650 C   0  0  0  0  0  3  0  0  0  0  0  0
  186.3670  178.7890  140.6620 S   0  0  0  0  0  0  0  0  0  0  0  0
  186.7570  178.4880  138.9100 C   0  0  0  0  0  2  0  0  0  0  0  0
  185.8040  177.2080  136.9450 C   0  0  0  0  0  0  0  0  0  0  0  0
  185.8040  177.5510  138.3320 N   0  0  0  0  0  2  0  0  0  0  0  0
  186.6830  177.6730  136.1680 O   0  0  0  0  0  0  0  0  0  0  0  0
  185.4780  174.0770  137.1960 C   0  0  1  0  0  3  0  0  0  0  0  0
  184.8000  172.2440  136.2620 C   0  0  1  0  0  3  0  0  0  0  0  0
  185.0520  175.8310  134.9890 C   0  0  0  0  0  2  0  0  0  0  0  0
  185.4860  173.5200  135.7670 C   0  0  1  0  0  3  0  0  0  0  0  0
  184.6760  174.3740  134.7860 C   0  0  0  0  0  2  0  0  0  0  0  0
  184.7530  176.2800  136.4280 C   0  0  1  0  0  3  0  0  0  0  0  0
  184.5050  175.1670  137.3630 N   0  0  0  0  0  2  0  0  0  0  0  0
  184.8530  172.7810  137.6860 C   0  0  0  0  0  2  0  0  0  0  0  0
  183.4100  172.1510  135.8270 N   0  0  0  0  0  2  0  0  0  0  0  0
  182.7150  170.9060  135.7570 C   0  0  0  0  0  0  0  0  0  0  0  0
  181.4950  170.8930  135.4550 O   0  0  0  0  0  0  0  0  0  0  0  0
  183.3730  169.7110  136.0260 O   0  0  0  0  0  1  0  0  0  0  0  0
  1  4  1  0  0  0  0
  1  5  1  0  0  0  0
  2  4  2  0  0  0  0
  5  3  2  0  0  0  0
  6 15  1  0  0  0  0
  7 10  1  0  0  0  0
  8 16  1  0  0  0  0
  8  7  2  0  0  0  0
  9  3  1  1  0  0  0
  9 14  1  0  0  0  0
 10 15  2  0  0  0  0
 11  9  1  0  0  0  0
 11 17  1  0  0  0  0
 12 13  2  0  0  0  0
 13  7  1  0  0  0  0
 14 12  1  1  0  0  0
 14  8  1  0  0  0  0
 16  6  2  0  0  0  0
 17 12  1  0  0  0  0
 18 19  2  0  0  0  0
 19  2  1  0  0  0  0
 20 21  1  0  0  0  0
 21 26  1  0  0  0  0
 22 28  1  0  0  0  0
 23 24  2  0  0  0  0
 24 20  1  0  0  0  0
 24 25  1  0  0  0  0
 27 22  1  0  0  0  0
 27 20  1  0  0  0  0
 28 19  1  0  0  0  0
 28 26  1  0  0  0  0
 29  5  1  0  0  0  0
 30 29  1  0  0  0  0
 31 32  1  0  0  0  0
 32 30  1  0  0  0  0
 33 31  2  0  0  0  0
 34 40  1  0  0  0  0
 34 41  1  1  0  0  0
 35 42  1  6  0  0  0
 35 41  1  0  0  0  0
 36 39  1  0  0  0  0
 37 38  1  6  0  0  0
 37 35  1  0  0  0  0
 37 34  1  0  0  0  0
 38 36  1  0  0  0  0
 39 31  1  1  0  0  0
 39 40  1  0  0  0  0
 43 42  1  0  0  0  0
 43 45  1  0  0  0  0
 44 43  2  0  0  0  0
M  END
>  <MODEL>
9

>  <REMARK>
 VINA RESULT:      -8.1      4.129     10.935
  Name = 
  8 active torsions:
  status: ('A' for Active; 'I' for Inactive)
    1  A    between atoms: C_1  and  C_28
    2  A    between atoms: S_9  and  C_17
    3  A    between atoms: S_9  and  C_39
    4  A    between atoms: C_12  and  N_18
    5  A    between atoms: C_17  and  N_33
    6  A    between atoms: C_19  and  N_26
    7  A    between atoms: N_22  and  C_23
    8  A    between atoms: C_23  and  C_36
                            x       y       z     vdW  Elec       q    Type
                         _______ _______ _______ _____ _____    ______ ____

>  <TORSDO>
F 8

$$$$
