=
 OpenBabel10232412333D

 29 31  0  0  1  0  0  0  0  0999 V2000
  184.1180  178.7180  142.9560 C   0  0  0  0  0  0  0  0  0  0  0  0
  188.7930  179.1610  140.0090 O   0  0  0  0  0  1  0  0  0  0  0  0
  186.7890  178.2830  142.5160 C   0  0  0  0  0  0  0  0  0  0  0  0
  186.3780  178.3280  143.8170 N   0  0  0  0  0  2  0  0  0  0  0  0
  184.5450  178.6710  141.6310 C   0  0  0  0  0  3  0  0  0  0  0  0
  184.3570  178.6390  145.2130 C   0  0  0  0  0  0  0  0  0  0  0  0
  183.0190  178.8630  144.8900 C   0  0  0  0  0  3  0  0  0  0  0  0
  186.6090  178.3540  140.2210 N   0  0  0  0  0  0  0  0  0  0  0  0
  188.0270  178.1000  140.4930 C   0  0  2  0  0  3  0  0  0  0  0  0
  185.9210  178.4510  141.4520 C   0  0  0  0  0  0  0  0  0  0  0  0
  182.8660  178.9130  143.4960 C   0  0  0  0  0  3  0  0  0  0  0  0
  185.0550  178.5470  144.0350 C   0  0  0  0  0  0  0  0  0  0  0  0
  188.1740  178.0220  142.0340 C   0  0  2  0  0  3  0  0  0  0  0  0
  185.3950  179.3330  138.4840 O   0  0  0  0  0  1  0  0  0  0  0  0
  185.9590  178.1360  138.9330 C   0  0  1  0  0  3  0  0  0  0  0  0
  186.9550  177.6020  137.9020 C   0  0  1  0  0  3  0  0  0  0  0  0
  185.8010  176.7820  136.1950 C   0  0  0  0  0  1  0  0  0  0  0  0
  186.4820  176.4050  137.3550 O   0  0  0  0  0  0  0  0  0  0  0  0
  188.4480  179.2560  136.9160 N   0  0  0  0  0  1  0  0  0  0  0  0
  187.1460  178.6240  136.7900 C   0  0  0  0  0  2  0  0  0  0  0  0
  188.5890  176.6370  142.4370 C   0  0  0  0  0  3  0  0  0  0  0  0
  189.4330  176.3750  143.4430 C   0  0  0  0  0  3  0  0  0  0  0  0
  190.0710  177.4370  144.2850 C   0  0  0  0  0  2  0  0  0  0  0  0
  189.9630  177.0750  145.7540 C   0  0  0  0  0  2  0  0  0  0  0  0
  188.5840  177.4360  146.2610 C   0  0  0  0  0  2  0  0  0  0  0  0
  188.5060  177.1600  147.7480 C   0  0  0  0  0  2  0  0  0  0  0  0
  189.0170  178.2500  148.4500 O   0  0  0  0  0  1  0  0  0  0  0  0
  185.6300  179.4480  147.0880 N   0  0  0  0  0  2  0  0  0  0  0  0
  184.8800  178.5270  146.5790 C   0  0  0  0  0  3  0  0  0  0  0  0
  1 11  1  0  0  0  0
  1 12  1  0  0  0  0
  3  4  1  0  0  0  0
  4 12  1  0  0  0  0
  5  1  2  0  0  0  0
  6 29  1  0  0  0  0
  7  6  1  0  0  0  0
  8  9  1  0  0  0  0
  8 10  1  0  0  0  0
  9  2  1  1  0  0  0
  9 13  1  0  0  0  0
 10  5  1  0  0  0  0
 10  3  2  0  0  0  0
 11  7  2  0  0  0  0
 12  6  2  0  0  0  0
 13 21  1  6  0  0  0
 13  3  1  0  0  0  0
 15 14  1  6  0  0  0
 15  8  1  0  0  0  0
 16 20  1  6  0  0  0
 16 15  1  0  0  0  0
 17 18  1  0  0  0  0
 18 16  1  0  0  0  0
 20 19  1  0  0  0  0
 21 22  2  0  0  0  0
 22 23  1  0  0  0  0
 23 24  1  0  0  0  0
 24 25  1  0  0  0  0
 25 26  1  0  0  0  0
 26 27  1  0  0  0  0
 29 28  2  0  0  0  0
M  END
>  <MODEL>
1

>  <REMARK>
 VINA RESULT:      -7.6      0.000      0.000
  Name = 
  10 active torsions:
  status: ('A' for Active; 'I' for Inactive)
    1  A    between atoms: C_1  and  C_26
    2  A    between atoms: C_8  and  C_27
    3  A    between atoms: C_9  and  C_10
    4  A    between atoms: C_9  and  N_14
    5  A    between atoms: C_10  and  O_25
    6  A    between atoms: C_10  and  C_28
    7  A    between atoms: C_11  and  C_16
    8  A    between atoms: C_21  and  C_24
    9  A    between atoms: C_21  and  C_29
   10  A    between atoms: C_26  and  C_29
                            x       y       z     vdW  Elec       q    Type
                         _______ _______ _______ _____ _____    ______ ____

>  <TORSDO>
F 10

$$$$
=
 OpenBabel10232412333D

 29 31  0  0  1  0  0  0  0  0999 V2000
  184.1700  178.7340  143.0580 C   0  0  0  0  0  0  0  0  0  0  0  0
  188.7850  179.1250  140.0110 O   0  0  0  0  0  1  0  0  0  0  0  0
  186.8220  178.2560  142.5530 C   0  0  0  0  0  0  0  0  0  0  0  0
  186.4410  178.2930  143.8640 N   0  0  0  0  0  2  0  0  0  0  0  0
  184.5660  178.6940  141.7230 C   0  0  0  0  0  3  0  0  0  0  0  0
  184.4570  178.6250  145.3070 C   0  0  0  0  0  0  0  0  0  0  0  0
  183.1170  178.8770  145.0170 C   0  0  0  0  0  3  0  0  0  0  0  0
  186.5930  178.3550  140.2640 N   0  0  0  0  0  0  0  0  0  0  0  0
  188.0110  178.0730  140.5010 C   0  0  2  0  0  3  0  0  0  0  0  0
  185.9340  178.4510  141.5110 C   0  0  0  0  0  0  0  0  0  0  0  0
  182.9340  178.9450  143.6280 C   0  0  0  0  0  3  0  0  0  0  0  0
  185.1270  178.5340  144.1140 C   0  0  0  0  0  0  0  0  0  0  0  0
  188.1910  177.9750  142.0380 C   0  0  2  0  0  3  0  0  0  0  0  0
  185.3730  179.3790  138.5560 O   0  0  0  0  0  1  0  0  0  0  0  0
  185.9100  178.1630  138.9880 C   0  0  1  0  0  3  0  0  0  0  0  0
  186.8680  177.6050  137.9350 C   0  0  1  0  0  3  0  0  0  0  0  0
  187.5050  175.6480  137.1100 C   0  0  0  0  0  1  0  0  0  0  0  0
  186.3720  176.4000  137.4280 O   0  0  0  0  0  0  0  0  0  0  0  0
  188.3100  179.2730  136.8990 N   0  0  0  0  0  1  0  0  0  0  0  0
  187.0250  178.6050  136.7970 C   0  0  0  0  0  2  0  0  0  0  0  0
  188.5890  176.5790  142.4160 C   0  0  0  0  0  3  0  0  0  0  0  0
  189.5670  176.2930  143.2860 C   0  0  0  0  0  3  0  0  0  0  0  0
  190.3850  177.3350  143.9820 C   0  0  0  0  0  2  0  0  0  0  0  0
  189.7170  177.7450  145.2800 C   0  0  0  0  0  2  0  0  0  0  0  0
  190.1790  176.8320  146.3940 C   0  0  0  0  0  2  0  0  0  0  0  0
  191.6770  176.6300  146.2930 C   0  0  0  0  0  2  0  0  0  0  0  0
  192.1170  175.8710  147.3760 O   0  0  0  0  0  1  0  0  0  0  0  0
  185.6750  179.4480  147.2140 N   0  0  0  0  0  2  0  0  0  0  0  0
  185.0090  178.4890  146.6600 C   0  0  0  0  0  3  0  0  0  0  0  0
  1 11  1  0  0  0  0
  1 12  1  0  0  0  0
  3  4  1  0  0  0  0
  4 12  1  0  0  0  0
  5  1  2  0  0  0  0
  6 29  1  0  0  0  0
  7  6  1  0  0  0  0
  8  9  1  0  0  0  0
  8 10  1  0  0  0  0
  9  2  1  1  0  0  0
  9 13  1  0  0  0  0
 10  5  1  0  0  0  0
 10  3  2  0  0  0  0
 11  7  2  0  0  0  0
 12  6  2  0  0  0  0
 13 21  1  6  0  0  0
 13  3  1  0  0  0  0
 15 14  1  6  0  0  0
 15  8  1  0  0  0  0
 16 20  1  6  0  0  0
 16 15  1  0  0  0  0
 17 18  1  0  0  0  0
 18 16  1  0  0  0  0
 20 19  1  0  0  0  0
 21 22  2  0  0  0  0
 22 23  1  0  0  0  0
 23 24  1  0  0  0  0
 24 25  1  0  0  0  0
 26 25  1  0  0  0  0
 26 27  1  0  0  0  0
 29 28  2  0  0  0  0
M  END
>  <MODEL>
2

>  <REMARK>
 VINA RESULT:      -7.4      1.006      1.146
  Name = 
  10 active torsions:
  status: ('A' for Active; 'I' for Inactive)
    1  A    between atoms: C_1  and  C_26
    2  A    between atoms: C_8  and  C_27
    3  A    between atoms: C_9  and  C_10
    4  A    between atoms: C_9  and  N_14
    5  A    between atoms: C_10  and  O_25
    6  A    between atoms: C_10  and  C_28
    7  A    between atoms: C_11  and  C_16
    8  A    between atoms: C_21  and  C_24
    9  A    between atoms: C_21  and  C_29
   10  A    between atoms: C_26  and  C_29
                            x       y       z     vdW  Elec       q    Type
                         _______ _______ _______ _____ _____    ______ ____

>  <TORSDO>
F 10

$$$$
=
 OpenBabel10232412333D

 29 31  0  0  1  0  0  0  0  0999 V2000
  185.3480  178.3530  144.9800 C   0  0  0  0  0  0  0  0  0  0  0  0
  189.6990  175.5750  142.9580 O   0  0  0  0  0  1  0  0  0  0  0  0
  187.0690  177.6130  142.9780 C   0  0  0  0  0  0  0  0  0  0  0  0
  185.8070  177.9740  142.6040 N   0  0  0  0  0  0  0  0  0  0  0  0
  186.6390  177.9840  145.3540 C   0  0  0  0  0  3  0  0  0  0  0  0
  183.6450  178.7440  143.5310 C   0  0  0  0  0  0  0  0  0  0  0  0
  183.2230  179.0090  144.8340 C   0  0  0  0  0  3  0  0  0  0  0  0
  188.8340  177.2000  144.3990 N   0  0  0  0  0  0  0  0  0  0  0  0
  189.3440  176.9210  143.0530 C   0  0  2  0  0  3  0  0  0  0  0  0
  187.4850  177.6080  144.2970 C   0  0  0  0  0  0  0  0  0  0  0  0
  184.2730  178.7690  145.7330 C   0  0  0  0  0  2  0  0  0  0  0  0
  184.9530  178.3370  143.5960 C   0  0  0  0  0  0  0  0  0  0  0  0
  188.1820  177.2160  142.0700 C   0  0  2  0  0  3  0  0  0  0  0  0
  189.2620  176.5630  146.6040 O   0  0  0  0  0  1  0  0  0  0  0  0
  189.6710  177.4160  145.5750 C   0  0  1  0  0  3  0  0  0  0  0  0
  191.1450  177.1770  145.2470 C   0  0  1  0  0  3  0  0  0  0  0  0
  191.8670  178.9210  144.0820 C   0  0  0  0  0  1  0  0  0  0  0  0
  191.8610  178.3730  145.3660 O   0  0  0  0  0  0  0  0  0  0  0  0
  192.1600  176.7900  147.4280 N   0  0  0  0  0  1  0  0  0  0  0  0
  191.7270  176.1440  146.2010 C   0  0  0  0  0  2  0  0  0  0  0  0
  188.5430  178.3740  141.1870 C   0  0  0  0  0  3  0  0  0  0  0  0
  189.0140  178.2420  139.9410 C   0  0  0  0  0  3  0  0  0  0  0  0
  189.2430  176.9190  139.2790 C   0  0  0  0  0  2  0  0  0  0  0  0
  188.5920  176.8980  137.9100 C   0  0  0  0  0  2  0  0  0  0  0  0
  188.7610  178.2500  137.2510 C   0  0  0  0  0  2  0  0  0  0  0  0
  187.4500  178.6710  136.6210 C   0  0  0  0  0  2  0  0  0  0  0  0
  186.4740  178.7810  137.6110 O   0  0  0  0  0  1  0  0  0  0  0  0
  181.5260  179.0280  142.4250 N   0  0  0  0  0  2  0  0  0  0  0  0
  182.8070  178.8900  142.3350 C   0  0  0  0  0  3  0  0  0  0  0  0
  1  5  1  0  0  0  0
  1 11  1  0  0  0  0
  3 10  1  0  0  0  0
  4  3  2  0  0  0  0
  4 12  1  0  0  0  0
  6 12  1  0  0  0  0
  6  7  2  0  0  0  0
  7 11  1  0  0  0  0
  8 15  1  0  0  0  0
  9  2  1  1  0  0  0
  9  8  1  0  0  0  0
 10  8  1  0  0  0  0
 10  5  2  0  0  0  0
 12  1  2  0  0  0  0
 13 21  1  6  0  0  0
 13  3  1  0  0  0  0
 13  9  1  0  0  0  0
 15 14  1  1  0  0  0
 16 18  1  0  0  0  0
 16 15  1  0  0  0  0
 16 20  1  1  0  0  0
 17 18  1  0  0  0  0
 20 19  1  0  0  0  0
 22 21  2  0  0  0  0
 23 22  1  0  0  0  0
 24 23  1  0  0  0  0
 25 24  1  0  0  0  0
 26 25  1  0  0  0  0
 26 27  1  0  0  0  0
 29 28  2  0  0  0  0
 29  6  1  0  0  0  0
M  END
>  <MODEL>
3

>  <REMARK>
 VINA RESULT:      -7.4      2.430      6.631
  Name = 
  10 active torsions:
  status: ('A' for Active; 'I' for Inactive)
    1  A    between atoms: C_1  and  C_26
    2  A    between atoms: C_8  and  C_27
    3  A    between atoms: C_9  and  C_10
    4  A    between atoms: C_9  and  N_14
    5  A    between atoms: C_10  and  O_25
    6  A    between atoms: C_10  and  C_28
    7  A    between atoms: C_11  and  C_16
    8  A    between atoms: C_21  and  C_24
    9  A    between atoms: C_21  and  C_29
   10  A    between atoms: C_26  and  C_29
                            x       y       z     vdW  Elec       q    Type
                         _______ _______ _______ _____ _____    ______ ____

>  <TORSDO>
F 10

$$$$
=
 OpenBabel10232412333D

 29 31  0  0  1  0  0  0  0  0999 V2000
  185.3760  178.3660  144.9380 C   0  0  0  0  0  0  0  0  0  0  0  0
  189.7110  175.5860  142.8840 O   0  0  0  0  0  1  0  0  0  0  0  0
  187.0810  177.6240  142.9230 C   0  0  0  0  0  0  0  0  0  0  0  0
  185.8150  177.9840  142.5590 N   0  0  0  0  0  0  0  0  0  0  0  0
  186.6700  177.9980  145.3020 C   0  0  0  0  0  3  0  0  0  0  0  0
  183.6600  178.7550  143.5030 C   0  0  0  0  0  0  0  0  0  0  0  0
  183.2500  179.0220  144.8090 C   0  0  0  0  0  3  0  0  0  0  0  0
  188.8570  177.2120  144.3290 N   0  0  0  0  0  0  0  0  0  0  0  0
  189.3560  176.9320  142.9800 C   0  0  2  0  0  3  0  0  0  0  0  0
  187.5070  177.6210  144.2390 C   0  0  0  0  0  0  0  0  0  0  0  0
  184.3070  178.7830  145.7000 C   0  0  0  0  0  2  0  0  0  0  0  0
  184.9690  178.3480  143.5580 C   0  0  0  0  0  0  0  0  0  0  0  0
  188.1860  177.2250  142.0070 C   0  0  2  0  0  3  0  0  0  0  0  0
  189.3150  176.5660  146.5260 O   0  0  0  0  0  1  0  0  0  0  0  0
  189.7040  177.4300  145.4990 C   0  0  1  0  0  3  0  0  0  0  0  0
  191.1770  177.2110  145.1540 C   0  0  1  0  0  3  0  0  0  0  0  0
  191.8420  179.0140  144.0460 C   0  0  0  0  0  1  0  0  0  0  0  0
  191.8860  178.4080  145.3030 O   0  0  0  0  0  0  0  0  0  0  0  0
  192.1870  176.7630  147.3250 N   0  0  0  0  0  1  0  0  0  0  0  0
  191.7720  176.1540  146.0730 C   0  0  0  0  0  2  0  0  0  0  0  0
  188.5390  178.3820  141.1190 C   0  0  0  0  0  3  0  0  0  0  0  0
  189.0630  178.2490  139.8940 C   0  0  0  0  0  3  0  0  0  0  0  0
  189.3660  176.9250  139.2640 C   0  0  0  0  0  2  0  0  0  0  0  0
  190.8570  176.6540  139.3060 C   0  0  0  0  0  2  0  0  0  0  0  0
  191.3640  176.4070  137.9020 C   0  0  0  0  0  2  0  0  0  0  0  0
  192.7990  175.9260  137.9620 C   0  0  0  0  0  2  0  0  0  0  0  0
  193.5730  176.8580  138.6520 O   0  0  0  0  0  1  0  0  0  0  0  0
  181.5300  179.0060  142.4120 N   0  0  0  0  0  2  0  0  0  0  0  0
  182.8130  178.8990  142.3140 C   0  0  0  0  0  3  0  0  0  0  0  0
  1  5  1  0  0  0  0
  1 11  1  0  0  0  0
  3 10  1  0  0  0  0
  4  3  2  0  0  0  0
  4 12  1  0  0  0  0
  6 12  1  0  0  0  0
  6  7  2  0  0  0  0
  7 11  1  0  0  0  0
  8 15  1  0  0  0  0
  9  2  1  1  0  0  0
  9  8  1  0  0  0  0
 10  8  1  0  0  0  0
 10  5  2  0  0  0  0
 12  1  2  0  0  0  0
 13 21  1  6  0  0  0
 13  3  1  0  0  0  0
 13  9  1  0  0  0  0
 15 14  1  1  0  0  0
 16 18  1  0  0  0  0
 16 15  1  0  0  0  0
 16 20  1  1  0  0  0
 17 18  1  0  0  0  0
 20 19  1  0  0  0  0
 22 21  2  0  0  0  0
 23 24  1  0  0  0  0
 23 22  1  0  0  0  0
 25 26  1  0  0  0  0
 25 24  1  0  0  0  0
 26 27  1  0  0  0  0
 29 28  2  0  0  0  0
 29  6  1  0  0  0  0
M  END
>  <MODEL>
4

>  <REMARK>
 VINA RESULT:      -7.4      3.063      6.500
  Name = 
  10 active torsions:
  status: ('A' for Active; 'I' for Inactive)
    1  A    between atoms: C_1  and  C_26
    2  A    between atoms: C_8  and  C_27
    3  A    between atoms: C_9  and  C_10
    4  A    between atoms: C_9  and  N_14
    5  A    between atoms: C_10  and  O_25
    6  A    between atoms: C_10  and  C_28
    7  A    between atoms: C_11  and  C_16
    8  A    between atoms: C_21  and  C_24
    9  A    between atoms: C_21  and  C_29
   10  A    between atoms: C_26  and  C_29
                            x       y       z     vdW  Elec       q    Type
                         _______ _______ _______ _____ _____    ______ ____

>  <TORSDO>
F 10

$$$$
=
 OpenBabel10232412333D

 29 31  0  0  1  0  0  0  0  0999 V2000
  186.2290  178.3120  145.1720 C   0  0  0  0  0  0  0  0  0  0  0  0
  190.1510  175.7330  142.2230 O   0  0  0  0  0  1  0  0  0  0  0  0
  187.5050  177.6550  142.8360 C   0  0  0  0  0  0  0  0  0  0  0  0
  186.1770  177.9610  142.7490 N   0  0  0  0  0  0  0  0  0  0  0  0
  187.5840  177.9990  145.2540 C   0  0  0  0  0  3  0  0  0  0  0  0
  184.2370  178.6330  144.1310 C   0  0  0  0  0  0  0  0  0  0  0  0
  184.0960  178.8750  145.4970 C   0  0  0  0  0  3  0  0  0  0  0  0
  189.5510  177.3140  143.8370 N   0  0  0  0  0  0  0  0  0  0  0  0
  189.7690  177.0620  142.4090 C   0  0  2  0  0  3  0  0  0  0  0  0
  188.1960  177.6640  144.0350 C   0  0  0  0  0  0  0  0  0  0  0  0
  185.3250  178.6780  146.1460 C   0  0  0  0  0  2  0  0  0  0  0  0
  185.5440  178.2830  143.9070 C   0  0  0  0  0  0  0  0  0  0  0  0
  188.4100  177.3090  141.7050 C   0  0  2  0  0  3  0  0  0  0  0  0
  190.4010  178.7960  145.4280 O   0  0  0  0  0  1  0  0  0  0  0  0
  190.6130  177.5620  144.8070 C   0  0  1  0  0  3  0  0  0  0  0  0
  190.6680  176.4470  145.8530 C   0  0  1  0  0  3  0  0  0  0  0  0
  192.2870  175.7170  147.1810 C   0  0  0  0  0  1  0  0  0  0  0  0
  191.9280  175.8400  145.8370 O   0  0  0  0  0  0  0  0  0  0  0  0
  189.0680  176.6590  147.6770 N   0  0  0  0  0  1  0  0  0  0  0  0
  190.4030  177.0230  147.2370 C   0  0  0  0  0  2  0  0  0  0  0  0
  188.5220  178.4850  140.7800 C   0  0  0  0  0  3  0  0  0  0  0  0
  188.7760  178.3800  139.4690 C   0  0  0  0  0  3  0  0  0  0  0  0
  188.9840  177.0730  138.7690 C   0  0  0  0  0  2  0  0  0  0  0  0
  190.2670  177.1100  137.9620 C   0  0  0  0  0  2  0  0  0  0  0  0
  191.3370  176.3180  138.6800 C   0  0  0  0  0  2  0  0  0  0  0  0
  191.7780  175.1600  137.8100 C   0  0  0  0  0  2  0  0  0  0  0  0
  190.7550  174.2140  137.7440 O   0  0  0  0  0  1  0  0  0  0  0  0
  181.9180  178.8230  143.5120 N   0  0  0  0  0  2  0  0  0  0  0  0
  183.1550  178.7460  143.1460 C   0  0  0  0  0  3  0  0  0  0  0  0
  1  5  1  0  0  0  0
  1 11  1  0  0  0  0
  3 10  1  0  0  0  0
  4  3  2  0  0  0  0
  4 12  1  0  0  0  0
  6  7  2  0  0  0  0
  7 11  1  0  0  0  0
  8 10  1  0  0  0  0
  8 15  1  0  0  0  0
  9  2  1  1  0  0  0
  9  8  1  0  0  0  0
 10  5  2  0  0  0  0
 12  6  1  0  0  0  0
 12  1  2  0  0  0  0
 13 21  1  6  0  0  0
 13  9  1  0  0  0  0
 13  3  1  0  0  0  0
 15 14  1  1  0  0  0
 15 16  1  0  0  0  0
 16 20  1  1  0  0  0
 18 16  1  0  0  0  0
 18 17  1  0  0  0  0
 20 19  1  0  0  0  0
 22 21  2  0  0  0  0
 23 22  1  0  0  0  0
 24 25  1  0  0  0  0
 24 23  1  0  0  0  0
 26 25  1  0  0  0  0
 27 26  1  0  0  0  0
 29 28  2  0  0  0  0
 29  6  1  0  0  0  0
M  END
>  <MODEL>
5

>  <REMARK>
 VINA RESULT:      -7.2      2.858      6.713
  Name = 
  10 active torsions:
  status: ('A' for Active; 'I' for Inactive)
    1  A    between atoms: C_1  and  C_26
    2  A    between atoms: C_8  and  C_27
    3  A    between atoms: C_9  and  C_10
    4  A    between atoms: C_9  and  N_14
    5  A    between atoms: C_10  and  O_25
    6  A    between atoms: C_10  and  C_28
    7  A    between atoms: C_11  and  C_16
    8  A    between atoms: C_21  and  C_24
    9  A    between atoms: C_21  and  C_29
   10  A    between atoms: C_26  and  C_29
                            x       y       z     vdW  Elec       q    Type
                         _______ _______ _______ _____ _____    ______ ____

>  <TORSDO>
F 10

$$$$
=
 OpenBabel10232412333D

 29 31  0  0  1  0  0  0  0  0999 V2000
  186.3910  178.4350  140.1640 C   0  0  0  0  0  0  0  0  0  0  0  0
  191.9020  177.9820  140.5720 O   0  0  0  0  0  1  0  0  0  0  0  0
  188.7130  177.8990  141.5200 C   0  0  0  0  0  0  0  0  0  0  0  0
  187.6530  178.3340  142.2620 N   0  0  0  0  0  2  0  0  0  0  0  0
  187.4780  177.9890  139.4140 C   0  0  0  0  0  3  0  0  0  0  0  0
  185.2910  179.0460  142.0540 C   0  0  0  0  0  0  0  0  0  0  0  0
  184.4370  179.1560  140.9570 C   0  0  0  0  0  3  0  0  0  0  0  0
  189.8810  177.2680  139.6380 N   0  0  0  0  0  0  0  0  0  0  0  0
  190.8230  177.1150  140.7500 C   0  0  2  0  0  3  0  0  0  0  0  0
  188.6470  177.7320  140.1490 C   0  0  0  0  0  0  0  0  0  0  0  0
  185.1120  178.7790  139.7860 C   0  0  0  0  0  3  0  0  0  0  0  0
  186.5040  178.6040  141.5890 C   0  0  0  0  0  0  0  0  0  0  0  0
  190.0550  177.5090  142.0380 C   0  0  2  0  0  3  0  0  0  0  0  0
  190.1640  177.6720  137.3560 O   0  0  0  0  0  1  0  0  0  0  0  0
  190.0490  176.6660  138.3190 C   0  0  1  0  0  3  0  0  0  0  0  0
  191.2820  175.7610  138.2850 C   0  0  1  0  0  3  0  0  0  0  0  0
  190.9520  174.3760  136.5850 C   0  0  0  0  0  1  0  0  0  0  0  0
  190.9030  174.4490  137.9790 O   0  0  0  0  0  0  0  0  0  0  0  0
  193.4890  176.7030  137.8730 N   0  0  0  0  0  1  0  0  0  0  0  0
  192.2630  176.2610  137.2350 C   0  0  0  0  0  2  0  0  0  0  0  0
  189.9150  176.3140  142.9340 C   0  0  0  0  0  3  0  0  0  0  0  0
  189.9130  176.3830  144.2720 C   0  0  0  0  0  3  0  0  0  0  0  0
  190.0560  177.6630  145.0350 C   0  0  0  0  0  2  0  0  0  0  0  0
  189.0470  177.7150  146.1650 C   0  0  0  0  0  2  0  0  0  0  0  0
  187.6490  177.5980  145.5980 C   0  0  0  0  0  2  0  0  0  0  0  0
  186.6370  177.7480  146.7150 C   0  0  0  0  0  2  0  0  0  0  0  0
  186.1230  179.0440  146.7040 O   0  0  0  0  0  1  0  0  0  0  0  0
  183.6840  179.5270  143.7810 N   0  0  0  0  0  2  0  0  0  0  0  0
  184.9190  179.3570  143.4390 C   0  0  0  0  0  3  0  0  0  0  0  0
  1 12  1  0  0  0  0
  3 13  1  0  0  0  0
  3  4  1  0  0  0  0
  5 10  1  0  0  0  0
  5  1  2  0  0  0  0
  6 29  1  0  0  0  0
  7  6  1  0  0  0  0
  8 10  1  0  0  0  0
  8  9  1  0  0  0  0
  9  2  1  6  0  0  0
  9 13  1  0  0  0  0
 10  3  2  0  0  0  0
 11  1  1  0  0  0  0
 11  7  2  0  0  0  0
 12  6  2  0  0  0  0
 12  4  1  0  0  0  0
 13 21  1  1  0  0  0
 15 14  1  6  0  0  0
 15  8  1  0  0  0  0
 16 20  1  6  0  0  0
 16 15  1  0  0  0  0
 17 18  1  0  0  0  0
 18 16  1  0  0  0  0
 20 19  1  0  0  0  0
 21 22  2  0  0  0  0
 22 23  1  0  0  0  0
 23 24  1  0  0  0  0
 25 24  1  0  0  0  0
 25 26  1  0  0  0  0
 27 26  1  0  0  0  0
 29 28  2  0  0  0  0
M  END
>  <MODEL>
6

>  <REMARK>
 VINA RESULT:      -6.8      2.841      3.597
  Name = 
  10 active torsions:
  status: ('A' for Active; 'I' for Inactive)
    1  A    between atoms: C_1  and  C_26
    2  A    between atoms: C_8  and  C_27
    3  A    between atoms: C_9  and  C_10
    4  A    between atoms: C_9  and  N_14
    5  A    between atoms: C_10  and  O_25
    6  A    between atoms: C_10  and  C_28
    7  A    between atoms: C_11  and  C_16
    8  A    between atoms: C_21  and  C_24
    9  A    between atoms: C_21  and  C_29
   10  A    between atoms: C_26  and  C_29
                            x       y       z     vdW  Elec       q    Type
                         _______ _______ _______ _____ _____    ______ ____

>  <TORSDO>
F 10

$$$$
=
 OpenBabel10232412333D

 29 31  0  0  1  0  0  0  0  0999 V2000
  188.8740  177.6050  139.1080 C   0  0  0  0  0  0  0  0  0  0  0  0
  187.3650  176.7060  144.3660 O   0  0  0  0  0  1  0  0  0  0  0  0
  189.3850  177.2420  141.7770 C   0  0  0  0  0  0  0  0  0  0  0  0
  190.3690  176.8740  140.9050 N   0  0  0  0  0  0  0  0  0  0  0  0
  187.8750  177.9800  140.0040 C   0  0  0  0  0  3  0  0  0  0  0  0
  190.8970  176.7820  138.4880 C   0  0  0  0  0  0  0  0  0  0  0  0
  190.1750  177.1540  137.3550 C   0  0  0  0  0  3  0  0  0  0  0  0
  187.3480  178.0670  142.4660 N   0  0  0  0  0  0  0  0  0  0  0  0
  188.0610  177.7130  143.6970 C   0  0  2  0  0  3  0  0  0  0  0  0
  188.1770  177.7710  141.3600 C   0  0  0  0  0  0  0  0  0  0  0  0
  188.9230  177.6640  137.7320 C   0  0  0  0  0  3  0  0  0  0  0  0
  190.1140  177.0500  139.5820 C   0  0  2  0  0  3  0  0  0  0  0  0
  189.4500  177.1760  143.2640 C   0  0  2  0  0  3  0  0  0  0  0  0
  186.1080  179.5400  141.1460 O   0  0  0  0  0  1  0  0  0  0  0  0
  186.1800  178.9400  142.4060 C   0  0  1  0  0  3  0  0  0  0  0  0
  184.8980  178.1560  142.6920 C   0  0  1  0  0  3  0  0  0  0  0  0
  183.2680  178.9580  143.9640 C   0  0  0  0  0  1  0  0  0  0  0  0
  184.5160  178.3340  144.0260 O   0  0  0  0  0  0  0  0  0  0  0  0
  183.5370  177.6640  140.7320 N   0  0  0  0  0  1  0  0  0  0  0  0
  183.7810  178.6410  141.7780 C   0  0  0  0  0  2  0  0  0  0  0  0
  190.5280  178.0960  143.7560 C   0  0  0  0  0  3  0  0  0  0  0  0
  191.3380  177.8110  144.7840 C   0  0  0  0  0  3  0  0  0  0  0  0
  191.2610  176.5390  145.5700 C   0  0  0  0  0  2  0  0  0  0  0  0
  191.0010  176.8420  147.0330 C   0  0  0  0  0  2  0  0  0  0  0  0
  189.5220  176.7090  147.3200 C   0  0  0  0  0  2  0  0  0  0  0  0
  188.9810  178.0380  147.8050 C   0  0  0  0  0  2  0  0  0  0  0  0
  187.8990  177.8150  148.6560 O   0  0  0  0  0  1  0  0  0  0  0  0
  193.2910  176.9440  138.6830 N   0  0  0  0  0  2  0  0  0  0  0  0
  192.2490  176.2110  138.4680 C   0  0  0  0  0  3  0  0  0  0  0  0
  1 12  1  0  0  0  0
  1  5  1  0  0  0  0
  3 13  1  0  0  0  0
  4  3  2  0  0  0  0
  5 10  2  0  0  0  0
  7 11  1  0  0  0  0
  7  6  2  0  0  0  0
  8  9  1  0  0  0  0
  9  2  1  6  0  0  0
 10  3  1  0  0  0  0
 10  8  1  0  0  0  0
 11  1  2  0  0  0  0
 12  6  1  1  0  0  0
 12  4  1  0  0  0  0
 13  9  1  0  0  0  0
 13 21  1  1  0  0  0
 15 14  1  6  0  0  0
 15  8  1  0  0  0  0
 15 16  1  0  0  0  0
 16 20  1  6  0  0  0
 16 18  1  0  0  0  0
 17 18  1  0  0  0  0
 19 20  1  0  0  0  0
 21 22  2  0  0  0  0
 22 23  1  0  0  0  0
 23 24  1  0  0  0  0
 24 25  1  0  0  0  0
 25 26  1  0  0  0  0
 26 27  1  0  0  0  0
 29  6  1  0  0  0  0
 29 28  2  0  0  0  0
M  END
>  <MODEL>
7

>  <REMARK>
 VINA RESULT:      -6.8      2.673      5.868
  Name = 
  10 active torsions:
  status: ('A' for Active; 'I' for Inactive)
    1  A    between atoms: C_1  and  C_26
    2  A    between atoms: C_8  and  C_27
    3  A    between atoms: C_9  and  C_10
    4  A    between atoms: C_9  and  N_14
    5  A    between atoms: C_10  and  O_25
    6  A    between atoms: C_10  and  C_28
    7  A    between atoms: C_11  and  C_16
    8  A    between atoms: C_21  and  C_24
    9  A    between atoms: C_21  and  C_29
   10  A    between atoms: C_26  and  C_29
                            x       y       z     vdW  Elec       q    Type
                         _______ _______ _______ _____ _____    ______ ____

>  <TORSDO>
F 10

$$$$
=
 OpenBabel10232412333D

 29 31  0  0  1  0  0  0  0  0999 V2000
  184.0970  178.7150  142.9530 C   0  0  0  0  0  0  0  0  0  0  0  0
  188.8490  179.1190  140.1260 O   0  0  0  0  0  1  0  0  0  0  0  0
  186.7660  178.2260  142.5630 C   0  0  0  0  0  0  0  0  0  0  0  0
  186.3250  178.2460  143.8550 N   0  0  0  0  0  2  0  0  0  0  0  0
  184.5530  178.6920  141.6370 C   0  0  0  0  0  3  0  0  0  0  0  0
  184.2800  178.5710  145.2110 C   0  0  0  0  0  0  0  0  0  0  0  0
  182.9560  178.8370  144.8640 C   0  0  0  0  0  3  0  0  0  0  0  0
  186.6420  178.3610  140.2670 N   0  0  0  0  0  0  0  0  0  0  0  0
  188.0460  178.0650  140.5640 C   0  0  2  0  0  3  0  0  0  0  0  0
  185.9280  178.4430  141.4840 C   0  0  0  0  0  0  0  0  0  0  0  0
  182.8370  178.9260  143.4690 C   0  0  0  0  0  3  0  0  0  0  0  0
  185.0030  178.4930  144.0480 C   0  0  0  0  0  0  0  0  0  0  0  0
  188.1560  177.9430  142.1060 C   0  0  2  0  0  3  0  0  0  0  0  0
  185.4660  179.4070  138.5430 O   0  0  0  0  0  1  0  0  0  0  0  0
  186.0170  178.1920  138.9580 C   0  0  1  0  0  3  0  0  0  0  0  0
  187.0320  177.6930  137.9290 C   0  0  1  0  0  3  0  0  0  0  0  0
  186.4670  176.7810  135.9890 C   0  0  0  0  0  1  0  0  0  0  0  0
  186.5810  176.5010  137.3520 O   0  0  0  0  0  0  0  0  0  0  0  0
  188.5140  179.3850  136.9940 N   0  0  0  0  0  1  0  0  0  0  0  0
  187.2220  178.7400  136.8410 C   0  0  0  0  0  2  0  0  0  0  0  0
  188.5270  176.5380  142.4810 C   0  0  0  0  0  3  0  0  0  0  0  0
  189.2640  176.2240  143.5540 C   0  0  0  0  0  3  0  0  0  0  0  0
  189.8120  177.2410  144.5070 C   0  0  0  0  0  2  0  0  0  0  0  0
  191.3120  177.3710  144.3280 C   0  0  0  0  0  2  0  0  0  0  0  0
  191.6030  178.1490  143.0630 C   0  0  0  0  0  2  0  0  0  0  0  0
  191.9820  177.1880  141.9560 C   0  0  0  0  0  2  0  0  0  0  0  0
  192.1390  177.8940  140.7640 O   0  0  0  0  0  1  0  0  0  0  0  0
  185.6070  179.2470  147.1020 N   0  0  0  0  0  2  0  0  0  0  0  0
  184.7690  178.4110  146.5850 C   0  0  0  0  0  3  0  0  0  0  0  0
  1 11  1  0  0  0  0
  1 12  1  0  0  0  0
  3  4  1  0  0  0  0
  4 12  1  0  0  0  0
  5  1  2  0  0  0  0
  6 29  1  0  0  0  0
  7  6  1  0  0  0  0
  8  9  1  0  0  0  0
  8 10  1  0  0  0  0
  9  2  1  1  0  0  0
  9 13  1  0  0  0  0
 10  5  1  0  0  0  0
 10  3  2  0  0  0  0
 11  7  2  0  0  0  0
 12  6  2  0  0  0  0
 13 21  1  6  0  0  0
 13  3  1  0  0  0  0
 15 14  1  6  0  0  0
 15  8  1  0  0  0  0
 16 20  1  6  0  0  0
 16 15  1  0  0  0  0
 17 18  1  0  0  0  0
 18 16  1  0  0  0  0
 20 19  1  0  0  0  0
 21 22  2  0  0  0  0
 22 23  1  0  0  0  0
 24 23  1  0  0  0  0
 25 24  1  0  0  0  0
 26 25  1  0  0  0  0
 27 26  1  0  0  0  0
 29 28  2  0  0  0  0
M  END
>  <MODEL>
8

>  <REMARK>
 VINA RESULT:      -6.7      1.746      2.192
  Name = 
  10 active torsions:
  status: ('A' for Active; 'I' for Inactive)
    1  A    between atoms: C_1  and  C_26
    2  A    between atoms: C_8  and  C_27
    3  A    between atoms: C_9  and  C_10
    4  A    between atoms: C_9  and  N_14
    5  A    between atoms: C_10  and  O_25
    6  A    between atoms: C_10  and  C_28
    7  A    between atoms: C_11  and  C_16
    8  A    between atoms: C_21  and  C_24
    9  A    between atoms: C_21  and  C_29
   10  A    between atoms: C_26  and  C_29
                            x       y       z     vdW  Elec       q    Type
                         _______ _______ _______ _____ _____    ______ ____

>  <TORSDO>
F 10

$$$$
=
 OpenBabel10232412333D

 29 31  0  0  1  0  0  0  0  0999 V2000
  188.9610  177.6270  141.3110 C   0  0  0  0  0  0  0  0  0  0  0  0
  184.6440  180.0300  143.8260 O   0  0  0  0  0  1  0  0  0  0  0  0
  186.4040  178.6160  141.3820 C   0  0  0  0  0  0  0  0  0  0  0  0
  187.0390  178.6330  140.1730 N   0  0  0  0  0  0  0  0  0  0  0  0
  188.3070  177.6120  142.5410 C   0  0  0  0  0  3  0  0  0  0  0  0
  189.1800  178.0310  139.0870 C   0  0  0  0  0  0  0  0  0  0  0  0
  190.3530  177.4580  139.5790 C   0  0  0  0  0  3  0  0  0  0  0  0
  186.1230  178.2300  143.6350 N   0  0  0  0  0  0  0  0  0  0  0  0
  184.8580  178.8120  143.1790 C   0  0  2  0  0  3  0  0  0  0  0  0
  187.0020  178.1330  142.5320 C   0  0  0  0  0  0  0  0  0  0  0  0
  190.2220  177.2060  140.9520 C   0  0  0  0  0  2  0  0  0  0  0  0
  188.3060  178.1460  140.1390 C   0  0  0  0  0  0  0  0  0  0  0  0
  185.0090  179.0610  141.6560 C   0  0  2  0  0  3  0  0  0  0  0  0
  186.9710  176.3060  144.6490 O   0  0  0  0  0  1  0  0  0  0  0  0
  186.2980  177.5060  144.8910 C   0  0  1  0  0  3  0  0  0  0  0  0
  187.0720  178.3510  145.9040 C   0  0  1  0  0  3  0  0  0  0  0  0
  185.0510  178.3420  146.8150 C   0  0  0  0  0  1  0  0  0  0  0  0
  186.4100  178.3460  147.1360 O   0  0  0  0  0  0  0  0  0  0  0  0
  188.6470  177.3100  147.4430 N   0  0  0  0  0  1  0  0  0  0  0  0
  188.4750  177.7870  146.0820 C   0  0  0  0  0  2  0  0  0  0  0  0
  184.0510  178.1880  140.8990 C   0  0  0  0  0  3  0  0  0  0  0  0
  183.4670  178.5460  139.7480 C   0  0  0  0  0  3  0  0  0  0  0  0
  183.6980  179.8650  139.0800 C   0  0  0  0  0  2  0  0  0  0  0  0
  182.3770  180.4690  138.6440 C   0  0  0  0  0  2  0  0  0  0  0  0
  181.2400  179.5940  139.1240 C   0  0  0  0  0  2  0  0  0  0  0  0
  180.2770  180.4240  139.9480 C   0  0  0  0  0  2  0  0  0  0  0  0
  180.3800  180.0580  141.2890 O   0  0  0  0  0  1  0  0  0  0  0  0
  188.8950  179.6670  137.3460 N   0  0  0  0  0  2  0  0  0  0  0  0
  188.9620  178.4240  137.6910 C   0  0  0  0  0  3  0  0  0  0  0  0
  1  5  1  0  0  0  0
  3 13  1  0  0  0  0
  3 10  1  0  0  0  0
  4  3  2  0  0  0  0
  6  7  2  0  0  0  0
  6 12  1  0  0  0  0
  7 11  1  0  0  0  0
  8 15  1  0  0  0  0
  9  8  1  0  0  0  0
  9  2  1  1  0  0  0
 10  5  2  0  0  0  0
 10  8  1  0  0  0  0
 11  1  1  0  0  0  0
 12  4  1  0  0  0  0
 12  1  2  0  0  0  0
 13 21  1  6  0  0  0
 13  9  1  0  0  0  0
 15 14  1  6  0  0  0
 15 16  1  0  0  0  0
 16 20  1  1  0  0  0
 16 18  1  0  0  0  0
 17 18  1  0  0  0  0
 20 19  1  0  0  0  0
 22 21  2  0  0  0  0
 23 22  1  0  0  0  0
 24 23  1  0  0  0  0
 24 25  1  0  0  0  0
 25 26  1  0  0  0  0
 26 27  1  0  0  0  0
 28 29  2  0  0  0  0
 29  6  1  0  0  0  0
M  END
>  <MODEL>
9

>  <REMARK>
 VINA RESULT:      -6.3      2.682      7.856
  Name = 
  10 active torsions:
  status: ('A' for Active; 'I' for Inactive)
    1  A    between atoms: C_1  and  C_26
    2  A    between atoms: C_8  and  C_27
    3  A    between atoms: C_9  and  C_10
    4  A    between atoms: C_9  and  N_14
    5  A    between atoms: C_10  and  O_25
    6  A    between atoms: C_10  and  C_28
    7  A    between atoms: C_11  and  C_16
    8  A    between atoms: C_21  and  C_24
    9  A    between atoms: C_21  and  C_29
   10  A    between atoms: C_26  and  C_29
                            x       y       z     vdW  Elec       q    Type
                         _______ _______ _______ _____ _____    ______ ____

>  <TORSDO>
F 10

$$$$
