=
 OpenBabel10232409353D

 33 39  0  0  1  0  0  0  0  0999 V2000
  192.1590  177.0790  139.8020 C   0  0  0  0  0  0  0  0  0  0  0  0
  189.7290  177.2390  144.4140 C   0  0  0  0  0  0  0  0  0  0  0  0
  190.8860  175.3950  137.9180 C   0  0  1  0  0  3  0  0  0  0  0  0
  192.7720  177.4240  140.9620 N   0  0  0  0  0  0  0  0  0  0  0  0
  188.2710  176.7420  142.0930 C   0  0  0  0  0  3  0  0  0  0  0  0
  192.8580  176.7070  138.6180 N   0  0  0  0  0  2  0  0  0  0  0  0
  188.9330  175.7520  136.3420 N   0  0  0  0  0  2  0  0  0  0  0  0
  192.0890  176.2550  137.4550 C   0  0  1  0  0  3  0  0  0  0  0  0
  188.5380  176.9030  137.0980 C   0  0  0  0  0  0  0  0  0  0  0  0
  191.7390  177.5120  141.8270 C   0  0  1  0  0  3  0  0  0  0  0  0
  190.5830  177.1380  141.2090 C   0  0  2  0  0  3  0  0  0  0  0  0
  187.6030  177.1230  143.2710 C   0  0  0  0  0  3  0  0  0  0  0  0
  190.0060  176.1540  138.9500 C   0  0  2  0  0  3  0  0  0  0  0  0
  190.3080  173.8820  136.1500 O   0  0  0  0  0  0  0  0  0  0  0  0
  189.6530  176.5280  142.1410 C   0  0  0  0  0  0  0  0  0  0  0  0
  190.3270  176.5920  143.3570 C   0  0  0  0  0  0  0  0  0  0  0  0
  191.7340  177.0730  143.2570 C   0  0  2  0  0  3  0  0  0  0  0  0
  189.0710  177.1410  138.2980 C   0  0  0  0  0  3  0  0  0  0  0  0
  190.8390  176.8400  139.9320 N   0  0  0  0  0  0  0  0  0  0  0  0
  191.7360  178.1630  144.2340 N   0  0  0  0  0  0  0  0  0  0  0  0
  190.0350  174.9460  136.7640 C   0  0  0  0  0  0  0  0  0  0  0  0
  190.6450  178.2140  144.8960 N   0  0  0  0  0  0  0  0  0  0  0  0
  188.3310  177.4090  144.4430 C   0  0  0  0  0  0  0  0  0  0  0  0
  187.8450  177.7190  146.9300 C   0  0  0  0  0  0  0  0  0  0  0  0
  188.5070  176.7020  147.2770 O   0  0  0  0  0  0  0  0  0  0  0  0
  187.6540  178.0280  145.5450 N   0  0  0  0  0  2  0  0  0  0  0  0
  187.2540  178.5380  147.8930 O   0  0  0  0  0  0  0  0  0  0  0  0
  186.1490  179.3760  147.5900 C   0  0  0  0  0  1  0  0  0  0  0  0
  192.9580  175.4970  136.5610 N   0  0  0  0  0  0  0  0  0  0  0  0
  192.8100  176.0850  135.2190 C   0  0  0  0  0  2  0  0  0  0  0  0
  193.9680  176.4280  136.0280 C   0  0  0  0  0  2  0  0  0  0  0  0
  187.5870  177.8820  136.5080 C   0  0  0  0  0  2  0  0  0  0  0  0
  187.8970  179.2170  136.9890 N   0  0  0  0  0  1  0  0  0  0  0  0
  1 19  1  0  0  0  0
  1  4  2  0  0  0  0
  2 23  1  0  0  0  0
  2 22  1  0  0  0  0
  3 21  1  6  0  0  0
  3 13  1  0  0  0  0
  5 15  2  0  0  0  0
  5 12  1  0  0  0  0
  6  1  1  0  0  0  0
  7 21  1  0  0  0  0
  7  9  1  0  0  0  0
  8 29  1  6  0  0  0
  8  3  1  0  0  0  0
  8  6  1  0  0  0  0
  9 18  2  0  0  0  0
 10  4  1  6  0  0  0
 10 17  1  0  0  0  0
 11 10  1  0  0  0  0
 11 15  1  1  0  0  0
 12 23  2  0  0  0  0
 13 18  1  6  0  0  0
 13 19  1  0  0  0  0
 14 21  2  0  0  0  0
 15 16  1  0  0  0  0
 16  2  2  0  0  0  0
 17 16  1  6  0  0  0
 17 20  1  0  0  0  0
 19 11  1  0  0  0  0
 20 22  2  0  0  0  0
 23 26  1  0  0  0  0
 24 25  2  0  0  0  0
 24 27  1  0  0  0  0
 26 24  1  0  0  0  0
 28 27  1  0  0  0  0
 30 31  1  0  0  0  0
 30 29  1  0  0  0  0
 31 29  1  0  0  0  0
 32 33  1  0  0  0  0
 32  9  1  0  0  0  0
M  END
>  <MODEL>
1

>  <REMARK>
 VINA RESULT:      -8.0      0.000      0.000
  Name = 
  4 active torsions:
  status: ('A' for Active; 'I' for Inactive)
    1  A    between atoms: C_2  and  O_25
    2  A    between atoms: C_6  and  C_11
    3  A    between atoms: C_10  and  N_13
    4  A    between atoms: N_24  and  C_32
                            x       y       z     vdW  Elec       q    Type
                         _______ _______ _______ _____ _____    ______ ____

>  <TORSDO>
F 4

$$$$
=
 OpenBabel10232409353D

 33 39  0  0  1  0  0  0  0  0999 V2000
  186.9500  177.6880  141.7450 C   0  0  0  0  0  0  0  0  0  0  0  0
  189.6730  177.8270  146.1910 C   0  0  0  0  0  0  0  0  0  0  0  0
  188.3650  178.7300  139.5270 C   0  0  1  0  0  3  0  0  0  0  0  0
  186.3790  177.6790  142.9760 N   0  0  0  0  0  0  0  0  0  0  0  0
  191.0040  177.6110  143.7530 C   0  0  0  0  0  3  0  0  0  0  0  0
  186.2410  177.9870  140.5460 N   0  0  0  0  0  2  0  0  0  0  0  0
  190.0770  177.7170  137.9560 N   0  0  0  0  0  2  0  0  0  0  0  0
  186.9850  178.0670  139.2860 C   0  0  1  0  0  3  0  0  0  0  0  0
  190.3030  176.6560  138.8910 C   0  0  0  0  0  0  0  0  0  0  0  0
  187.4430  177.5320  143.7940 C   0  0  1  0  0  3  0  0  0  0  0  0
  188.5950  177.5500  143.0650 C   0  0  2  0  0  3  0  0  0  0  0  0
  191.6800  177.3090  144.9500 C   0  0  0  0  0  3  0  0  0  0  0  0
  189.1630  177.9940  140.6390 C   0  0  2  0  0  3  0  0  0  0  0  0
  189.0770  179.7680  137.4860 O   0  0  0  0  0  0  0  0  0  0  0  0
  189.6980  178.1080  143.8260 C   0  0  0  0  0  0  0  0  0  0  0  0
  189.1260  178.3920  145.0620 C   0  0  0  0  0  0  0  0  0  0  0  0
  187.6490  178.1980  145.1170 C   0  0  2  0  0  3  0  0  0  0  0  0
  189.8340  176.7420  140.1380 C   0  0  0  0  0  3  0  0  0  0  0  0
  188.2970  177.6710  141.7680 N   0  0  0  0  0  0  0  0  0  0  0  0
  187.5180  177.3150  146.2760 N   0  0  0  0  0  0  0  0  0  0  0  0
  189.1890  178.7910  138.2720 C   0  0  0  0  0  0  0  0  0  0  0  0
  188.6280  177.1570  146.8860 N   0  0  0  0  0  0  0  0  0  0  0  0
  191.0090  177.3830  146.1870 C   0  0  0  0  0  0  0  0  0  0  0  0
  192.4410  175.6490  147.3950 C   0  0  0  0  0  0  0  0  0  0  0  0
  192.4820  174.8640  146.4070 O   0  0  0  0  0  0  0  0  0  0  0  0
  191.6420  176.8360  147.3510 N   0  0  0  0  0  2  0  0  0  0  0  0
  193.1460  175.3510  148.5620 O   0  0  0  0  0  0  0  0  0  0  0  0
  193.5130  176.3560  149.4940 C   0  0  0  0  0  1  0  0  0  0  0  0
  186.2080  178.8220  138.3080 N   0  0  0  0  0  0  0  0  0  0  0  0
  186.0460  177.9560  137.1280 C   0  0  0  0  0  2  0  0  0  0  0  0
  184.9520  178.0880  138.0760 C   0  0  0  0  0  2  0  0  0  0  0  0
  190.9960  175.4170  138.4480 C   0  0  0  0  0  2  0  0  0  0  0  0
  190.0840  174.5980  137.6700 N   0  0  0  0  0  1  0  0  0  0  0  0
  1 19  1  0  0  0  0
  1  4  2  0  0  0  0
  2 22  1  0  0  0  0
  3 21  1  6  0  0  0
  3 13  1  0  0  0  0
  5 15  2  0  0  0  0
  5 12  1  0  0  0  0
  6  1  1  0  0  0  0
  7 21  1  0  0  0  0
  7  9  1  0  0  0  0
  8 29  1  6  0  0  0
  8  3  1  0  0  0  0
  8  6  1  0  0  0  0
  9 18  2  0  0  0  0
 10  4  1  6  0  0  0
 10 17  1  0  0  0  0
 11 10  1  0  0  0  0
 11 15  1  1  0  0  0
 12 23  2  0  0  0  0
 13 18  1  6  0  0  0
 13 19  1  0  0  0  0
 14 21  2  0  0  0  0
 15 16  1  0  0  0  0
 16  2  2  0  0  0  0
 17 16  1  6  0  0  0
 17 20  1  0  0  0  0
 19 11  1  0  0  0  0
 20 22  2  0  0  0  0
 23  2  1  0  0  0  0
 23 26  1  0  0  0  0
 24 27  1  0  0  0  0
 25 24  2  0  0  0  0
 26 24  1  0  0  0  0
 27 28  1  0  0  0  0
 30 31  1  0  0  0  0
 30 29  1  0  0  0  0
 31 29  1  0  0  0  0
 32  9  1  0  0  0  0
 33 32  1  0  0  0  0
M  END
>  <MODEL>
2

>  <REMARK>
 VINA RESULT:      -7.6      2.799      5.037
  Name = 
  4 active torsions:
  status: ('A' for Active; 'I' for Inactive)
    1  A    between atoms: C_2  and  O_25
    2  A    between atoms: C_6  and  C_11
    3  A    between atoms: C_10  and  N_13
    4  A    between atoms: N_24  and  C_32
                            x       y       z     vdW  Elec       q    Type
                         _______ _______ _______ _____ _____    ______ ____

>  <TORSDO>
F 4

$$$$
=
 OpenBabel10232409353D

 33 39  0  0  1  0  0  0  0  0999 V2000
  186.9000  178.4190  140.4050 C   0  0  0  0  0  0  0  0  0  0  0  0
  190.0470  176.3900  136.7750 C   0  0  0  0  0  0  0  0  0  0  0  0
  187.2590  177.2770  142.9690 C   0  0  1  0  0  3  0  0  0  0  0  0
  186.6340  178.4550  139.0750 N   0  0  0  0  0  0  0  0  0  0  0  0
  190.8540  176.4420  139.4400 C   0  0  0  0  0  3  0  0  0  0  0  0
  185.9230  178.6560  141.4140 N   0  0  0  0  0  2  0  0  0  0  0  0
  188.9170  177.7320  144.8320 N   0  0  0  0  0  2  0  0  0  0  0  0
  186.3030  178.4890  142.8200 C   0  0  1  0  0  3  0  0  0  0  0  0
  189.7640  178.4220  143.9060 C   0  0  0  0  0  0  0  0  0  0  0  0
  187.7830  177.9990  138.5310 C   0  0  1  0  0  3  0  0  0  0  0  0
  188.6460  177.6250  139.5170 C   0  0  2  0  0  3  0  0  0  0  0  0
  191.8040  176.2220  138.4250 C   0  0  0  0  0  3  0  0  0  0  0  0
  188.4930  177.4070  142.0340 C   0  0  2  0  0  3  0  0  0  0  0  0
  187.0370  176.4040  145.1910 O   0  0  0  0  0  0  0  0  0  0  0  0
  189.5030  176.5350  139.0890 C   0  0  0  0  0  0  0  0  0  0  0  0
  189.1060  176.3100  137.7750 C   0  0  0  0  0  0  0  0  0  0  0  0
  187.9110  177.0920  137.3490 C   0  0  2  0  0  3  0  0  0  0  0  0
  189.5470  178.3280  142.5910 C   0  0  0  0  0  3  0  0  0  0  0  0
  188.0900  177.8650  140.7080 N   0  0  0  0  0  0  0  0  0  0  0  0
  188.4070  177.7360  136.1320 N   0  0  0  0  0  0  0  0  0  0  0  0
  187.7190  177.0920  144.3880 C   0  0  0  0  0  0  0  0  0  0  0  0
  189.5630  177.3060  135.8000 N   0  0  0  0  0  0  0  0  0  0  0  0
  191.4140  176.2260  137.0710 C   0  0  0  0  0  0  0  0  0  0  0  0
  193.0600  175.1020  135.4760 C   0  0  0  0  0  0  0  0  0  0  0  0
  192.8970  173.9540  135.9760 O   0  0  0  0  0  0  0  0  0  0  0  0
  192.4290  176.2470  136.0590 N   0  0  0  0  0  2  0  0  0  0  0  0
  193.8910  175.2770  134.3690 O   0  0  0  0  0  0  0  0  0  0  0  0
  194.9110  176.2630  134.3460 C   0  0  0  0  0  1  0  0  0  0  0  0
  185.1040  178.3090  143.6310 N   0  0  0  0  0  0  0  0  0  0  0  0
  185.2310  179.2110  144.7890 C   0  0  0  0  0  2  0  0  0  0  0  0
  184.3940  179.6000  143.6660 C   0  0  0  0  0  2  0  0  0  0  0  0
  190.8420  179.3110  144.4130 C   0  0  0  0  0  2  0  0  0  0  0  0
  192.1380  178.7260  144.1200 N   0  0  0  0  0  1  0  0  0  0  0  0
  1 19  1  0  0  0  0
  1  6  1  0  0  0  0
  2 23  2  0  0  0  0
  2 16  1  0  0  0  0
  3 21  1  1  0  0  0
  4  1  2  0  0  0  0
  6  8  1  0  0  0  0
  8  3  1  0  0  0  0
  8 29  1  1  0  0  0
  9 32  1  0  0  0  0
  9  7  1  0  0  0  0
 10  4  1  1  0  0  0
 10 11  1  0  0  0  0
 11 15  1  6  0  0  0
 11 19  1  0  0  0  0
 12  5  2  0  0  0  0
 13 18  1  1  0  0  0
 13  3  1  0  0  0  0
 15  5  1  0  0  0  0
 16 15  2  0  0  0  0
 17 20  1  6  0  0  0
 17 16  1  0  0  0  0
 17 10  1  0  0  0  0
 18  9  2  0  0  0  0
 19 13  1  0  0  0  0
 21  7  1  0  0  0  0
 21 14  2  0  0  0  0
 22 20  2  0  0  0  0
 22  2  1  0  0  0  0
 23 12  1  0  0  0  0
 24 25  2  0  0  0  0
 24 26  1  0  0  0  0
 26 23  1  0  0  0  0
 27 24  1  0  0  0  0
 28 27  1  0  0  0  0
 29 31  1  0  0  0  0
 29 30  1  0  0  0  0
 31 30  1  0  0  0  0
 33 32  1  0  0  0  0
M  END
>  <MODEL>
3

>  <REMARK>
 VINA RESULT:      -7.4      2.147      8.811
  Name = 
  4 active torsions:
  status: ('A' for Active; 'I' for Inactive)
    1  A    between atoms: C_2  and  O_25
    2  A    between atoms: C_6  and  C_11
    3  A    between atoms: C_10  and  N_13
    4  A    between atoms: N_24  and  C_32
                            x       y       z     vdW  Elec       q    Type
                         _______ _______ _______ _____ _____    ______ ____

>  <TORSDO>
F 4

$$$$
=
 OpenBabel10232409353D

 33 39  0  0  1  0  0  0  0  0999 V2000
  190.1870  177.3760  138.8420 C   0  0  0  0  0  0  0  0  0  0  0  0
  190.0290  177.1470  144.0500 C   0  0  0  0  0  0  0  0  0  0  0  0
  187.9710  176.1350  137.5950 C   0  0  1  0  0  3  0  0  0  0  0  0
  191.2850  177.4780  139.6320 N   0  0  0  0  0  0  0  0  0  0  0  0
  187.6580  177.1570  142.5880 C   0  0  0  0  0  3  0  0  0  0  0  0
  190.2390  177.1000  137.4450 N   0  0  0  0  0  2  0  0  0  0  0  0
  185.6200  176.9350  137.0850 N   0  0  0  0  0  2  0  0  0  0  0  0
  188.9830  176.9100  136.7140 C   0  0  1  0  0  3  0  0  0  0  0  0
  185.7830  178.0030  138.0260 C   0  0  0  0  0  0  0  0  0  0  0  0
  190.7520  177.5570  140.8700 C   0  0  1  0  0  3  0  0  0  0  0  0
  189.3990  177.4110  140.8030 C   0  0  2  0  0  3  0  0  0  0  0  0
  187.6320  177.4390  143.9670 C   0  0  0  0  0  3  0  0  0  0  0  0
  187.7560  176.8340  138.9660 C   0  0  2  0  0  3  0  0  0  0  0  0
  186.4490  174.9680  136.1540 O   0  0  0  0  0  0  0  0  0  0  0  0
  188.8710  176.7830  142.0000 C   0  0  0  0  0  0  0  0  0  0  0  0
  190.0010  176.5950  142.7900 C   0  0  0  0  0  0  0  0  0  0  0  0
  191.2880  176.9210  142.1130 C   0  0  2  0  0  3  0  0  0  0  0  0
  186.8100  178.0030  138.8780 C   0  0  0  0  0  3  0  0  0  0  0  0
  189.0310  177.2720  139.5260 N   0  0  0  0  0  0  0  0  0  0  0  0
  191.8880  177.8530  143.0700 N   0  0  0  0  0  0  0  0  0  0  0  0
  186.6460  175.9570  136.9080 C   0  0  0  0  0  0  0  0  0  0  0  0
  191.2110  177.9310  144.1500 N   0  0  0  0  0  0  0  0  0  0  0  0
  188.8280  177.4690  144.7110 C   0  0  0  0  0  0  0  0  0  0  0  0
  189.3300  177.3580  147.2120 C   0  0  0  0  0  0  0  0  0  0  0  0
  189.6980  176.1510  147.1750 O   0  0  0  0  0  0  0  0  0  0  0  0
  188.8010  177.9960  146.0440 N   0  0  0  0  0  2  0  0  0  0  0  0
  189.3990  178.0800  148.4040 O   0  0  0  0  0  0  0  0  0  0  0  0
  188.2720  178.2340  149.2530 C   0  0  0  0  0  1  0  0  0  0  0  0
  189.2470  176.1950  135.4700 N   0  0  0  0  0  0  0  0  0  0  0  0
  188.5980  176.9580  134.3900 C   0  0  0  0  0  2  0  0  0  0  0  0
  190.0300  177.0890  134.6000 C   0  0  0  0  0  2  0  0  0  0  0  0
  184.8470  179.1590  137.9990 C   0  0  0  0  0  2  0  0  0  0  0  0
  184.7090  179.7070  139.3370 N   0  0  0  0  0  1  0  0  0  0  0  0
  1 19  1  0  0  0  0
  1  4  2  0  0  0  0
  2 22  1  0  0  0  0
  2 23  1  0  0  0  0
  3 21  1  6  0  0  0
  3 13  1  0  0  0  0
  5 12  1  0  0  0  0
  6  1  1  0  0  0  0
  7  9  1  0  0  0  0
  8 29  1  6  0  0  0
  8  6  1  0  0  0  0
  8  3  1  0  0  0  0
  9 18  2  0  0  0  0
 10  4  1  6  0  0  0
 10 17  1  0  0  0  0
 11 10  1  0  0  0  0
 11 15  1  1  0  0  0
 12 23  2  0  0  0  0
 13 18  1  6  0  0  0
 13 19  1  0  0  0  0
 14 21  2  0  0  0  0
 15  5  2  0  0  0  0
 15 16  1  0  0  0  0
 16  2  2  0  0  0  0
 17 16  1  1  0  0  0
 17 20  1  0  0  0  0
 19 11  1  0  0  0  0
 20 22  2  0  0  0  0
 21  7  1  0  0  0  0
 23 26  1  0  0  0  0
 24 27  1  0  0  0  0
 25 24  2  0  0  0  0
 26 24  1  0  0  0  0
 27 28  1  0  0  0  0
 30 31  1  0  0  0  0
 30 29  1  0  0  0  0
 31 29  1  0  0  0  0
 32  9  1  0  0  0  0
 32 33  1  0  0  0  0
M  END
>  <MODEL>
4

>  <REMARK>
 VINA RESULT:      -7.3      1.956      2.543
  Name = 
  4 active torsions:
  status: ('A' for Active; 'I' for Inactive)
    1  A    between atoms: C_2  and  O_25
    2  A    between atoms: C_6  and  C_11
    3  A    between atoms: C_10  and  N_13
    4  A    between atoms: N_24  and  C_32
                            x       y       z     vdW  Elec       q    Type
                         _______ _______ _______ _____ _____    ______ ____

>  <TORSDO>
F 4

$$$$
=
 OpenBabel10232409353D

 33 39  0  0  1  0  0  0  0  0999 V2000
  189.4150  177.6380  146.6750 C   0  0  0  0  0  0  0  0  0  0  0  0
  184.5160  178.2640  145.0000 C   0  0  0  0  0  0  0  0  0  0  0  0
  190.8970  175.7760  145.1440 C   0  0  1  0  0  3  0  0  0  0  0  0
  188.4060  178.0970  147.4570 N   0  0  0  0  0  0  0  0  0  0  0  0
  186.5170  177.5400  143.2020 C   0  0  0  0  0  3  0  0  0  0  0  0
  190.6520  177.1490  147.1830 N   0  0  0  0  0  2  0  0  0  0  0  0
  192.1720  175.9780  142.9630 N   0  0  0  0  0  2  0  0  0  0  0  0
  191.6280  176.5840  146.2470 C   0  0  1  0  0  3  0  0  0  0  0  0
  191.4820  177.2000  142.6750 C   0  0  0  0  0  0  0  0  0  0  0  0
  187.4020  178.2720  146.5730 C   0  0  1  0  0  3  0  0  0  0  0  0
  187.7890  177.8410  145.3390 C   0  0  2  0  0  3  0  0  0  0  0  0
  185.2910  178.0380  142.7220 C   0  0  0  0  0  3  0  0  0  0  0  0
  189.8200  176.6370  144.4280 C   0  0  2  0  0  3  0  0  0  0  0  0
  192.3940  174.0950  144.3160 O   0  0  0  0  0  0  0  0  0  0  0  0
  186.6660  177.3290  144.5760 C   0  0  0  0  0  0  0  0  0  0  0  0
  185.5840  177.5130  145.4330 C   0  0  0  0  0  0  0  0  0  0  0  0
  185.9530  177.9790  146.8000 C   0  0  2  0  0  3  0  0  0  0  0  0
  190.4100  177.5550  143.3880 C   0  0  0  0  0  3  0  0  0  0  0  0
  189.0550  177.4170  145.3950 N   0  0  0  0  0  0  0  0  0  0  0  0
  185.1020  179.1610  146.9400 N   0  0  0  0  0  0  0  0  0  0  0  0
  191.8520  175.2160  144.1280 C   0  0  0  0  0  0  0  0  0  0  0  0
  184.2830  179.2800  145.9670 N   0  0  0  0  0  0  0  0  0  0  0  0
  184.2830  178.4380  143.6220 C   0  0  0  0  0  0  0  0  0  0  0  0
  182.3360  178.7840  142.0070 C   0  0  0  0  0  0  0  0  0  0  0  0
  182.6870  177.8430  141.2420 O   0  0  0  0  0  0  0  0  0  0  0  0
  183.1550  179.1660  143.1180 N   0  0  0  0  0  2  0  0  0  0  0  0
  181.1620  179.4950  141.7570 O   0  0  0  0  0  0  0  0  0  0  0  0
  180.2530  179.8300  142.7940 C   0  0  0  0  0  1  0  0  0  0  0  0
  192.5690  175.7390  146.9750 N   0  0  0  0  0  0  0  0  0  0  0  0
  192.5920  176.2210  148.3660 C   0  0  0  0  0  2  0  0  0  0  0  0
  191.8150  175.0390  148.0300 C   0  0  0  0  0  2  0  0  0  0  0  0
  192.0080  178.1170  141.6300 C   0  0  0  0  0  2  0  0  0  0  0  0
  191.9660  177.4590  140.3360 N   0  0  0  0  0  1  0  0  0  0  0  0
  1  6  1  0  0  0  0
  1  4  2  0  0  0  0
  2 16  1  0  0  0  0
  2 22  1  0  0  0  0
  3 21  1  6  0  0  0
  3  8  1  0  0  0  0
  5 15  1  0  0  0  0
  7 21  1  0  0  0  0
  8 29  1  1  0  0  0
  8  6  1  0  0  0  0
  9  7  1  0  0  0  0
  9 18  2  0  0  0  0
 10 17  1  0  0  0  0
 10  4  1  1  0  0  0
 11 15  1  1  0  0  0
 11 19  1  0  0  0  0
 11 10  1  0  0  0  0
 12  5  2  0  0  0  0
 12 23  1  0  0  0  0
 13 18  1  6  0  0  0
 13  3  1  0  0  0  0
 13 19  1  0  0  0  0
 15 16  2  0  0  0  0
 17 16  1  6  0  0  0
 17 20  1  0  0  0  0
 19  1  1  0  0  0  0
 21 14  2  0  0  0  0
 22 20  2  0  0  0  0
 23  2  2  0  0  0  0
 24 26  1  0  0  0  0
 25 24  2  0  0  0  0
 26 23  1  0  0  0  0
 27 24  1  0  0  0  0
 27 28  1  0  0  0  0
 29 31  1  0  0  0  0
 29 30  1  0  0  0  0
 31 30  1  0  0  0  0
 32  9  1  0  0  0  0
 33 32  1  0  0  0  0
M  END
>  <MODEL>
5

>  <REMARK>
 VINA RESULT:      -7.0      4.121      7.277
  Name = 
  4 active torsions:
  status: ('A' for Active; 'I' for Inactive)
    1  A    between atoms: C_2  and  O_25
    2  A    between atoms: C_6  and  C_11
    3  A    between atoms: C_10  and  N_13
    4  A    between atoms: N_24  and  C_32
                            x       y       z     vdW  Elec       q    Type
                         _______ _______ _______ _____ _____    ______ ____

>  <TORSDO>
F 4

$$$$
=
 OpenBabel10232409353D

 33 39  0  0  1  0  0  0  0  0999 V2000
  185.5930  178.6580  144.4660 C   0  0  0  0  0  0  0  0  0  0  0  0
  181.4210  179.0050  141.3550 C   0  0  0  0  0  0  0  0  0  0  0  0
  187.5000  176.7640  143.5830 C   0  0  1  0  0  3  0  0  0  0  0  0
  184.3860  179.1250  144.8760 N   0  0  0  0  0  0  0  0  0  0  0  0
  183.8840  178.2490  140.2960 C   0  0  0  0  0  3  0  0  0  0  0  0
  186.6250  178.2450  145.3560 N   0  0  0  0  0  2  0  0  0  0  0  0
  189.3720  176.8830  141.8780 N   0  0  0  0  0  2  0  0  0  0  0  0
  187.8480  177.6610  144.7970 C   0  0  1  0  0  3  0  0  0  0  0  0
  188.7810  178.0600  141.3140 C   0  0  0  0  0  0  0  0  0  0  0  0
  183.6940  179.2110  143.7200 C   0  0  1  0  0  3  0  0  0  0  0  0
  184.4450  178.7230  142.6930 C   0  0  2  0  0  3  0  0  0  0  0  0
  182.8530  178.6730  139.4370 C   0  0  0  0  0  3  0  0  0  0  0  0
  186.6760  177.5410  142.5180 C   0  0  2  0  0  3  0  0  0  0  0  0
  189.2050  175.0920  143.3590 O   0  0  0  0  0  0  0  0  0  0  0  0
  183.6140  178.1260  141.6630 C   0  0  0  0  0  0  0  0  0  0  0  0
  182.3210  178.3210  142.1390 C   0  0  0  0  0  0  0  0  0  0  0  0
  182.2500  178.8800  143.5190 C   0  0  2  0  0  3  0  0  0  0  0  0
  187.5380  178.4170  141.6460 C   0  0  0  0  0  3  0  0  0  0  0  0
  185.6410  178.3480  143.1560 N   0  0  0  0  0  0  0  0  0  0  0  0
  181.3770  180.0370  143.3160 N   0  0  0  0  0  0  0  0  0  0  0  0
  188.7270  176.1800  142.9410 C   0  0  0  0  0  0  0  0  0  0  0  0
  180.8900  180.0680  142.1360 N   0  0  0  0  0  0  0  0  0  0  0  0
  181.6140  179.0890  139.9620 C   0  0  0  0  0  0  0  0  0  0  0  0
  180.9240  180.9380  138.3430 C   0  0  0  0  0  0  0  0  0  0  0  0
  181.9580  181.6310  138.5540 O   0  0  0  0  0  0  0  0  0  0  0  0
  180.6790  179.7440  139.0940 N   0  0  0  0  0  2  0  0  0  0  0  0
  179.9830  181.3460  137.3970 O   0  0  0  0  0  0  0  0  0  0  0  0
  180.2290  181.2490  136.0030 C   0  0  0  0  0  1  0  0  0  0  0  0
  188.5390  176.8950  145.8300 N   0  0  0  0  0  0  0  0  0  0  0  0
  189.9190  177.4050  145.8910 C   0  0  0  0  0  2  0  0  0  0  0  0
  188.9500  177.8390  146.8840 C   0  0  0  0  0  2  0  0  0  0  0  0
  189.5840  178.9310  140.4170 C   0  0  0  0  0  2  0  0  0  0  0  0
  189.2100  178.6870  139.0350 N   0  0  0  0  0  1  0  0  0  0  0  0
  1  4  2  0  0  0  0
  1  6  1  0  0  0  0
  2 22  1  0  0  0  0
  2 16  1  0  0  0  0
  3 21  1  6  0  0  0
  3  8  1  0  0  0  0
  5 15  1  0  0  0  0
  7 21  1  0  0  0  0
  8  6  1  0  0  0  0
  8 29  1  1  0  0  0
  9 18  2  0  0  0  0
  9  7  1  0  0  0  0
 10  4  1  1  0  0  0
 11 15  1  1  0  0  0
 11 19  1  0  0  0  0
 11 10  1  0  0  0  0
 12 23  1  0  0  0  0
 12  5  2  0  0  0  0
 13 18  1  1  0  0  0
 13 19  1  0  0  0  0
 13  3  1  0  0  0  0
 15 16  2  0  0  0  0
 17 16  1  6  0  0  0
 17 10  1  0  0  0  0
 19  1  1  0  0  0  0
 20 17  1  0  0  0  0
 21 14  2  0  0  0  0
 22 20  2  0  0  0  0
 23  2  2  0  0  0  0
 24 25  2  0  0  0  0
 24 26  1  0  0  0  0
 26 23  1  0  0  0  0
 27 24  1  0  0  0  0
 28 27  1  0  0  0  0
 29 30  1  0  0  0  0
 29 31  1  0  0  0  0
 30 31  1  0  0  0  0
 32  9  1  0  0  0  0
 33 32  1  0  0  0  0
M  END
>  <MODEL>
6

>  <REMARK>
 VINA RESULT:      -6.9      5.294      8.619
  Name = 
  4 active torsions:
  status: ('A' for Active; 'I' for Inactive)
    1  A    between atoms: C_2  and  O_25
    2  A    between atoms: C_6  and  C_11
    3  A    between atoms: C_10  and  N_13
    4  A    between atoms: N_24  and  C_32
                            x       y       z     vdW  Elec       q    Type
                         _______ _______ _______ _____ _____    ______ ____

>  <TORSDO>
F 4

$$$$
=
 OpenBabel10232409353D

 33 39  0  0  1  0  0  0  0  0999 V2000
  185.0410  178.7270  139.8920 C   0  0  0  0  0  0  0  0  0  0  0  0
  188.5870  177.6420  143.5590 C   0  0  0  0  0  0  0  0  0  0  0  0
  182.5320  177.5060  140.3590 C   0  0  1  0  0  3  0  0  0  0  0  0
  186.3800  178.8010  139.6870 N   0  0  0  0  0  0  0  0  0  0  0  0
  185.8790  177.6710  144.2110 C   0  0  0  0  0  3  0  0  0  0  0  0
  184.0800  178.6880  138.8410 N   0  0  0  0  0  2  0  0  0  0  0  0
  180.5480  178.1580  141.7970 N   0  0  0  0  0  2  0  0  0  0  0  0
  182.6670  178.5040  139.1810 C   0  0  1  0  0  3  0  0  0  0  0  0
  181.3800  179.0700  142.5250 C   0  0  0  0  0  0  0  0  0  0  0  0
  186.8790  178.6280  140.9300 C   0  0  1  0  0  3  0  0  0  0  0  0
  185.8670  178.3710  141.8050 C   0  0  2  0  0  3  0  0  0  0  0  0
  186.8460  177.7210  145.2330 C   0  0  0  0  0  3  0  0  0  0  0  0
  183.3810  177.9500  141.5820 C   0  0  2  0  0  3  0  0  0  0  0  0
  180.3810  176.4530  140.2190 O   0  0  0  0  0  0  0  0  0  0  0  0
  186.3050  177.5110  142.8890 C   0  0  0  0  0  0  0  0  0  0  0  0
  187.6520  177.3010  142.6090 C   0  0  0  0  0  0  0  0  0  0  0  0
  188.1020  177.8510  141.2990 C   0  0  2  0  0  3  0  0  0  0  0  0
  182.7080  179.0260  142.3940 C   0  0  0  0  0  3  0  0  0  0  0  0
  184.6990  178.4080  141.1560 N   0  0  0  0  0  0  0  0  0  0  0  0
  189.2470  178.6660  141.7080 N   0  0  0  0  0  0  0  0  0  0  0  0
  181.1010  177.3200  140.7800 C   0  0  0  0  0  0  0  0  0  0  0  0
  189.5330  178.5060  142.9420 N   0  0  0  0  0  0  0  0  0  0  0  0
  188.2180  177.7400  144.9150 C   0  0  0  0  0  0  0  0  0  0  0  0
  189.4780  177.2030  147.0700 C   0  0  0  0  0  0  0  0  0  0  0  0
  188.7710  176.1920  147.3360 O   0  0  0  0  0  0  0  0  0  0  0  0
  189.1640  178.0390  145.9500 N   0  0  0  0  0  2  0  0  0  0  0  0
  190.5570  177.5440  147.8870 O   0  0  0  0  0  0  0  0  0  0  0  0
  191.7210  176.7370  147.9670 C   0  0  0  0  0  1  0  0  0  0  0  0
  181.9410  178.0280  138.0080 N   0  0  0  0  0  0  0  0  0  0  0  0
  180.6490  178.7340  137.9870 C   0  0  0  0  0  2  0  0  0  0  0  0
  181.7250  179.1830  137.1190 C   0  0  0  0  0  2  0  0  0  0  0  0
  180.7560  180.1230  143.3690 C   0  0  0  0  0  2  0  0  0  0  0  0
  179.9820  181.0250  142.5350 N   0  0  0  0  0  1  0  0  0  0  0  0
  1 19  1  0  0  0  0
  2 23  1  0  0  0  0
  3 21  1  1  0  0  0
  3 13  1  0  0  0  0
  4  1  2  0  0  0  0
  5 12  1  0  0  0  0
  6  8  1  0  0  0  0
  6  1  1  0  0  0  0
  7  9  1  0  0  0  0
  8 29  1  6  0  0  0
  8  3  1  0  0  0  0
  9 32  1  0  0  0  0
 10  4  1  6  0  0  0
 10 17  1  0  0  0  0
 10 11  1  0  0  0  0
 11 15  1  6  0  0  0
 13 18  1  6  0  0  0
 14 21  2  0  0  0  0
 15  5  2  0  0  0  0
 16 15  1  0  0  0  0
 16  2  2  0  0  0  0
 17 20  1  1  0  0  0
 17 16  1  0  0  0  0
 18  9  2  0  0  0  0
 19 13  1  0  0  0  0
 19 11  1  0  0  0  0
 20 22  2  0  0  0  0
 21  7  1  0  0  0  0
 22  2  1  0  0  0  0
 23 12  2  0  0  0  0
 23 26  1  0  0  0  0
 24 25  2  0  0  0  0
 24 27  1  0  0  0  0
 26 24  1  0  0  0  0
 27 28  1  0  0  0  0
 30 29  1  0  0  0  0
 31 30  1  0  0  0  0
 31 29  1  0  0  0  0
 33 32  1  0  0  0  0
M  END
>  <MODEL>
7

>  <REMARK>
 VINA RESULT:      -6.9      4.847      7.290
  Name = 
  4 active torsions:
  status: ('A' for Active; 'I' for Inactive)
    1  A    between atoms: C_2  and  O_25
    2  A    between atoms: C_6  and  C_11
    3  A    between atoms: C_10  and  N_13
    4  A    between atoms: N_24  and  C_32
                            x       y       z     vdW  Elec       q    Type
                         _______ _______ _______ _____ _____    ______ ____

>  <TORSDO>
F 4

$$$$
=
 OpenBabel10232409353D

 33 39  0  0  1  0  0  0  0  0999 V2000
  194.3870  172.6770  136.2200 C   0  0  0  0  0  0  0  0  0  0  0  0
  190.3590  175.6960  137.5860 C   0  0  0  0  0  0  0  0  0  0  0  0
  196.7740  174.1260  135.7690 C   0  0  1  0  0  3  0  0  0  0  0  0
  193.0890  172.3170  136.0560 N   0  0  0  0  0  0  0  0  0  0  0  0
  192.9570  176.4820  138.2080 C   0  0  0  0  0  3  0  0  0  0  0  0
  195.4750  172.0350  135.5620 N   0  0  0  0  0  2  0  0  0  0  0  0
  198.5710  175.0000  137.3290 N   0  0  0  0  0  2  0  0  0  0  0  0
  196.8250  172.5770  135.7370 C   0  0  1  0  0  3  0  0  0  0  0  0
  197.6800  174.8410  138.4390 C   0  0  0  0  0  0  0  0  0  0  0  0
  192.4260  173.2950  136.7100 C   0  0  1  0  0  3  0  0  0  0  0  0
  193.3070  174.2350  137.1550 C   0  0  2  0  0  3  0  0  0  0  0  0
  191.8670  177.0930  138.8550 C   0  0  0  0  0  3  0  0  0  0  0  0
  195.7860  174.6410  136.8510 C   0  0  2  0  0  3  0  0  0  0  0  0
  198.8910  174.9710  135.0220 O   0  0  0  0  0  0  0  0  0  0  0  0
  192.7040  175.5550  137.1920 C   0  0  0  0  0  0  0  0  0  0  0  0
  191.3990  175.3250  136.7660 C   0  0  0  0  0  0  0  0  0  0  0  0
  191.1420  173.9360  136.2900 C   0  0  2  0  0  3  0  0  0  0  0  0
  196.3790  174.6160  138.2360 C   0  0  0  0  0  3  0  0  0  0  0  0
  194.5490  173.8670  136.8310 N   0  0  0  0  0  0  0  0  0  0  0  0
  189.9780  173.5670  137.0980 N   0  0  0  0  0  0  0  0  0  0  0  0
  198.1310  174.7310  135.9960 C   0  0  0  0  0  0  0  0  0  0  0  0
  189.5280  174.5550  137.7700 N   0  0  0  0  0  0  0  0  0  0  0  0
  190.5490  176.6820  138.5730 C   0  0  0  0  0  0  0  0  0  0  0  0
  188.7060  178.3260  139.2180 C   0  0  0  0  0  0  0  0  0  0  0  0
  189.0480  179.1850  138.3580 O   0  0  0  0  0  0  0  0  0  0  0  0
  189.4850  177.1420  139.4170 N   0  0  0  0  0  2  0  0  0  0  0  0
  187.5820  178.5390  140.0170 O   0  0  0  0  0  0  0  0  0  0  0  0
  187.6420  178.4590  141.4330 C   0  0  0  0  0  1  0  0  0  0  0  0
  197.6840  172.1060  134.6560 N   0  0  0  0  0  0  0  0  0  0  0  0
  198.8590  171.4770  135.2830 C   0  0  0  0  0  2  0  0  0  0  0  0
  197.7850  170.6410  134.7740 C   0  0  0  0  0  2  0  0  0  0  0  0
  198.2190  174.8490  139.8250 C   0  0  0  0  0  2  0  0  0  0  0  0
  197.3690  175.6630  140.6760 N   0  0  0  0  0  1  0  0  0  0  0  0
  1 19  1  0  0  0  0
  2 22  1  0  0  0  0
  2 23  1  0  0  0  0
  3 21  1  1  0  0  0
  3 13  1  0  0  0  0
  4  1  2  0  0  0  0
  5 12  1  0  0  0  0
  6  8  1  0  0  0  0
  6  1  1  0  0  0  0
  7  9  1  0  0  0  0
  8 29  1  6  0  0  0
  8  3  1  0  0  0  0
  9 32  1  0  0  0  0
 10  4  1  6  0  0  0
 10 11  1  0  0  0  0
 11 15  1  6  0  0  0
 13 18  1  1  0  0  0
 14 21  2  0  0  0  0
 15  5  2  0  0  0  0
 16 15  1  0  0  0  0
 16  2  2  0  0  0  0
 17 10  1  0  0  0  0
 17 16  1  1  0  0  0
 17 20  1  0  0  0  0
 18  9  2  0  0  0  0
 19 13  1  0  0  0  0
 19 11  1  0  0  0  0
 20 22  2  0  0  0  0
 21  7  1  0  0  0  0
 23 12  2  0  0  0  0
 23 26  1  0  0  0  0
 24 26  1  0  0  0  0
 24 27  1  0  0  0  0
 25 24  2  0  0  0  0
 27 28  1  0  0  0  0
 29 31  1  0  0  0  0
 29 30  1  0  0  0  0
 31 30  1  0  0  0  0
 32 33  1  0  0  0  0
M  END
>  <MODEL>
8

>  <REMARK>
 VINA RESULT:      -6.4      4.166      7.528
  Name = 
  4 active torsions:
  status: ('A' for Active; 'I' for Inactive)
    1  A    between atoms: C_2  and  O_25
    2  A    between atoms: C_6  and  C_11
    3  A    between atoms: C_10  and  N_13
    4  A    between atoms: N_24  and  C_32
                            x       y       z     vdW  Elec       q    Type
                         _______ _______ _______ _____ _____    ______ ____

>  <TORSDO>
F 4

$$$$
=
 OpenBabel10232409353D

 33 39  0  0  1  0  0  0  0  0999 V2000
  181.8740  178.9760  142.3780 C   0  0  0  0  0  0  0  0  0  0  0  0
  186.1680  178.5020  145.3000 C   0  0  0  0  0  0  0  0  0  0  0  0
  182.4190  179.2520  139.6150 C   0  0  1  0  0  3  0  0  0  0  0  0
  181.9190  179.2750  143.7000 N   0  0  0  0  0  0  0  0  0  0  0  0
  186.1820  177.6210  142.6580 C   0  0  0  0  0  3  0  0  0  0  0  0
  180.8350  179.4070  141.5040 N   0  0  0  0  0  2  0  0  0  0  0  0
  182.9040  177.5660  137.7860 N   0  0  0  0  0  2  0  0  0  0  0  0
  180.9450  179.1100  140.0730 C   0  0  1  0  0  3  0  0  0  0  0  0
  183.1960  176.5760  138.7800 C   0  0  0  0  0  0  0  0  0  0  0  0
  183.1400  178.8260  144.0630 C   0  0  1  0  0  3  0  0  0  0  0  0
  183.8100  178.3690  142.9690 C   0  0  2  0  0  3  0  0  0  0  0  0
  187.1910  177.1970  143.5420 C   0  0  0  0  0  3  0  0  0  0  0  0
  183.3700  178.3750  140.4760 C   0  0  2  0  0  3  0  0  0  0  0  0
  182.4400  179.7910  137.2780 O   0  0  0  0  0  0  0  0  0  0  0  0
  185.2430  178.5560  143.1050 C   0  0  0  0  0  0  0  0  0  0  0  0
  185.3740  179.1280  144.3670 C   0  0  0  0  0  0  0  0  0  0  0  0
  184.0830  179.4820  145.0210 C   0  0  2  0  0  3  0  0  0  0  0  0
  183.3620  176.9280  140.0570 C   0  0  0  0  0  3  0  0  0  0  0  0
  183.0280  178.4800  141.8910 N   0  0  0  0  0  0  0  0  0  0  0  0
  184.2180  178.8050  146.3110 N   0  0  0  0  0  0  0  0  0  0  0  0
  182.5950  178.9090  138.1630 C   0  0  0  0  0  0  0  0  0  0  0  0
  185.3850  178.3110  146.4720 N   0  0  0  0  0  0  0  0  0  0  0  0
  187.1770  177.6100  144.8900 C   0  0  0  0  0  0  0  0  0  0  0  0
  189.4270  177.3380  146.0660 C   0  0  0  0  0  0  0  0  0  0  0  0
  190.0210  178.1570  145.3110 O   0  0  0  0  0  0  0  0  0  0  0  0
  188.0650  176.9720  145.8180 N   0  0  0  0  0  2  0  0  0  0  0  0
  190.1020  176.7470  147.1340 O   0  0  0  0  0  0  0  0  0  0  0  0
  191.4870  176.4430  147.0700 C   0  0  0  0  0  1  0  0  0  0  0  0
  180.0770  180.0080  139.3200 N   0  0  0  0  0  0  0  0  0  0  0  0
  179.9820  181.2600  140.0900 C   0  0  0  0  0  2  0  0  0  0  0  0
  180.8750  181.1890  138.9460 C   0  0  0  0  0  2  0  0  0  0  0  0
  183.2360  175.1390  138.4000 C   0  0  0  0  0  2  0  0  0  0  0  0
  183.4740  175.0160  136.9730 N   0  0  0  0  0  1  0  0  0  0  0  0
  1  4  2  0  0  0  0
  2 22  1  0  0  0  0
  3 21  1  6  0  0  0
  3  8  1  0  0  0  0
  3 13  1  0  0  0  0
  5 15  2  0  0  0  0
  5 12  1  0  0  0  0
  6  1  1  0  0  0  0
  7 21  1  0  0  0  0
  7  9  1  0  0  0  0
  8 29  1  6  0  0  0
  8  6  1  0  0  0  0
  9 18  2  0  0  0  0
 10  4  1  6  0  0  0
 10 17  1  0  0  0  0
 11 15  1  6  0  0  0
 11 10  1  0  0  0  0
 12 23  2  0  0  0  0
 13 18  1  6  0  0  0
 13 19  1  0  0  0  0
 14 21  2  0  0  0  0
 15 16  1  0  0  0  0
 16  2  2  0  0  0  0
 17 16  1  6  0  0  0
 17 20  1  0  0  0  0
 19  1  1  0  0  0  0
 19 11  1  0  0  0  0
 20 22  2  0  0  0  0
 23  2  1  0  0  0  0
 23 26  1  0  0  0  0
 24 27  1  0  0  0  0
 25 24  2  0  0  0  0
 26 24  1  0  0  0  0
 28 27  1  0  0  0  0
 29 30  1  0  0  0  0
 31 29  1  0  0  0  0
 31 30  1  0  0  0  0
 32  9  1  0  0  0  0
 33 32  1  0  0  0  0
M  END
>  <MODEL>
9

>  <REMARK>
 VINA RESULT:      -6.4      5.665      8.057
  Name = 
  4 active torsions:
  status: ('A' for Active; 'I' for Inactive)
    1  A    between atoms: C_2  and  O_25
    2  A    between atoms: C_6  and  C_11
    3  A    between atoms: C_10  and  N_13
    4  A    between atoms: N_24  and  C_32
                            x       y       z     vdW  Elec       q    Type
                         _______ _______ _______ _____ _____    ______ ____

>  <TORSDO>
F 4

$$$$
