=
 OpenBabel10232408103D

 38 44  0  0  1  0  0  0  0  0999 V2000
  190.6110  178.1440  145.6720 C   0  0  0  0  0  2  0  0  0  0  0  0
  187.8260  177.4600  142.4960 C   0  0  1  0  0  3  0  0  0  0  0  0
  188.4810  177.5480  140.0820 C   0  0  0  0  0  3  0  0  0  0  0  0
  189.7660  176.8740  145.7900 C   0  0  2  0  0  3  0  0  0  0  0  0
  188.2620  177.4870  135.4630 C   0  0  0  0  0  3  0  0  0  0  0  0
  189.4370  177.9460  139.0090 C   0  0  0  0  0  0  0  0  0  0  0  0
  188.7320  177.9480  137.6800 C   0  0  0  0  0  0  0  0  0  0  0  0
  189.9880  178.1510  143.3020 N   0  0  0  0  0  0  0  0  0  0  0  0
  191.3070  177.6270  141.3430 C   0  0  0  0  0  3  0  0  0  0  0  0
  190.1210  177.8780  141.9160 C   0  0  0  0  0  0  0  0  0  0  0  0
  187.5640  178.6970  137.4010 N   0  0  0  0  0  0  0  0  0  0  0  0
  188.8120  177.5720  141.3720 C   0  0  0  0  0  0  0  0  0  0  0  0
  191.0980  176.3650  137.7690 C   0  0  0  0  0  0  0  0  0  0  0  0
  188.5610  176.8450  144.8330 C   0  0  0  0  0  2  0  0  0  0  0  0
  187.1980  178.4500  136.0110 C   0  0  0  0  0  3  0  0  0  0  0  0
  190.3620  176.4500  136.6560 C   0  0  0  0  0  3  0  0  0  0  0  0
  189.3250  176.7210  147.1030 O   0  0  0  0  0  1  0  0  0  0  0  0
  188.6110  177.9180  143.7400 C   0  0  2  0  0  3  0  0  0  0  0  0
  191.1030  178.3020  144.2360 C   0  0  0  0  0  2  0  0  0  0  0  0
  190.6960  177.0940  139.0060 C   0  0  0  0  0  0  0  0  0  0  0  0
  189.1500  177.2740  136.6330 C   0  0  0  0  0  0  0  0  0  0  0  0
  191.5000  177.0670  140.0320 N   0  0  0  0  0  0  0  0  0  0  0  0
  186.6270  178.3390  142.2820 C   0  0  0  0  0  0  0  0  0  0  0  0
  186.7060  179.3390  141.5800 O   0  0  0  0  0  0  0  0  0  0  0  0
  184.8380  179.0080  143.8690 C   0  0  0  0  0  2  0  0  0  0  0  0
  184.2440  177.8280  141.8540 C   0  0  0  0  0  2  0  0  0  0  0  0
  185.3240  177.9510  142.9080 C   0  0  1  0  0  3  0  0  0  0  0  0
  183.0340  178.4380  142.3880 N   0  0  0  0  0  0  0  0  0  0  0  0
  183.4900  179.4450  143.3360 C   0  0  0  0  0  2  0  0  0  0  0  0
  182.3880  179.1500  141.2970 C   0  0  0  0  0  2  0  0  0  0  0  0
  183.0010  178.7390  139.9680 C   0  0  0  0  0  2  0  0  0  0  0  0
  182.0710  177.9990  139.2290 O   0  0  0  0  0  0  0  0  0  0  0  0
  182.8230  175.8210  139.1760 O   0  0  0  0  0  0  0  0  0  0  0  0
  182.8080  177.0540  138.5020 C   0  0  1  0  0  0  0  0  0  0  0  0
  182.0960  175.8720  137.9690 C   0  0  0  0  0  2  0  0  0  0  0  0
  184.2000  177.4130  138.0080 C   0  0  0  0  0  1  0  0  0  0  0  0
  193.2360  174.8910  137.7270 N   0  0  0  0  0  0  0  0  0  0  0  0
  192.2830  175.5470  137.7460 C   0  0  0  0  0  0  0  0  0  0  0  0
  1  4  1  0  0  0  0
  2 23  1  6  0  0  0
  2 18  1  0  0  0  0
  3 12  1  0  0  0  0
  4 17  1  1  0  0  0
  5 15  2  0  0  0  0
  5 21  1  0  0  0  0
  6  3  2  0  0  0  0
  7  6  1  0  0  0  0
  8 18  1  0  0  0  0
  8 19  1  0  0  0  0
  9 10  1  0  0  0  0
 10  8  1  0  0  0  0
 11  7  2  0  0  0  0
 12 10  2  0  0  0  0
 12  2  1  0  0  0  0
 13 20  2  0  0  0  0
 14  4  1  0  0  0  0
 15 11  1  0  0  0  0
 16 13  1  0  0  0  0
 18 14  1  1  0  0  0
 19  1  1  0  0  0  0
 20  6  1  0  0  0  0
 20 22  1  0  0  0  0
 21 16  2  0  0  0  0
 21  7  1  0  0  0  0
 22  9  2  0  0  0  0
 24 23  2  0  0  0  0
 26 28  1  0  0  0  0
 26 27  1  0  0  0  0
 27 23  1  6  0  0  0
 27 25  1  0  0  0  0
 28 29  1  0  0  0  0
 29 25  1  0  0  0  0
 30 28  1  0  0  0  0
 31 30  1  0  0  0  0
 32 31  1  0  0  0  0
 34 36  1  6  0  0  0
 34 33  1  0  0  0  0
 34 32  1  0  0  0  0
 35 34  1  0  0  0  0
 35 33  1  0  0  0  0
 37 38  3  0  0  0  0
 38 13  1  0  0  0  0
M  END
>  <MODEL>
1

>  <REMARK>
 VINA RESULT:      -7.8      0.000      0.000
  Name = 
  7 active torsions:
  status: ('A' for Active; 'I' for Inactive)
    1  A    between atoms: C_3  and  C_14
    2  A    between atoms: C_13  and  O_34
    3  A    between atoms: C_14  and  C_17
    4  A    between atoms: C_15  and  C_29
    5  A    between atoms: C_15  and  N_36
    6  A    between atoms: C_21  and  C_33
    7  A    between atoms: C_29  and  O_34
                            x       y       z     vdW  Elec       q    Type
                         _______ _______ _______ _____ _____    ______ ____

>  <TORSDO>
F 7

$$$$
=
 OpenBabel10232408103D

 38 44  0  0  1  0  0  0  0  0999 V2000
  188.9960  178.1770  136.0380 C   0  0  0  0  0  2  0  0  0  0  0  0
  188.0610  177.2980  140.1190 C   0  0  1  0  0  3  0  0  0  0  0  0
  185.9630  178.0960  141.2270 C   0  0  0  0  0  3  0  0  0  0  0  0
  189.1030  176.7070  136.4430 C   0  0  2  0  0  3  0  0  0  0  0  0
  182.7210  178.9290  144.4180 C   0  0  0  0  0  3  0  0  0  0  0  0
  184.7760  178.9980  141.2660 C   0  0  0  0  0  0  0  0  0  0  0  0
  184.2240  179.0470  142.6650 C   0  0  0  0  0  0  0  0  0  0  0  0
  187.6430  178.4740  138.0590 N   0  0  0  0  0  0  0  0  0  0  0  0
  185.2630  178.8300  138.3030 C   0  0  0  0  0  3  0  0  0  0  0  0
  186.4600  178.5540  138.8390 C   0  0  0  0  0  0  0  0  0  0  0  0
  184.9770  179.4130  143.8050 N   0  0  0  0  0  0  0  0  0  0  0  0
  186.7140  177.9570  140.1360 C   0  0  0  0  0  0  0  0  0  0  0  0
  182.3280  178.3420  140.6600 C   0  0  0  0  0  0  0  0  0  0  0  0
  189.1000  176.4850  137.9660 C   0  0  0  0  0  2  0  0  0  0  0  0
  184.0920  179.3550  144.9620 C   0  0  0  0  0  3  0  0  0  0  0  0
  181.9810  178.4120  141.9490 C   0  0  0  0  0  3  0  0  0  0  0  0
  190.2550  176.1480  135.8910 O   0  0  0  0  0  1  0  0  0  0  0  0
  188.6750  177.7180  138.7710 C   0  0  2  0  0  3  0  0  0  0  0  0
  187.7280  178.7830  136.6330 C   0  0  0  0  0  2  0  0  0  0  0  0
  183.7270  178.6250  140.2310 C   0  0  0  0  0  0  0  0  0  0  0  0
  182.9730  178.7790  142.9620 C   0  0  0  0  0  0  0  0  0  0  0  0
  183.9940  178.6500  138.9560 N   0  0  0  0  0  0  0  0  0  0  0  0
  188.9280  177.7600  141.2560 C   0  0  0  0  0  0  0  0  0  0  0  0
  188.8040  178.8900  141.7130 O   0  0  0  0  0  0  0  0  0  0  0  0
  191.3360  177.2320  141.5570 C   0  0  0  0  0  2  0  0  0  0  0  0
  189.7970  176.7810  143.3550 C   0  0  0  0  0  2  0  0  0  0  0  0
  189.9170  176.8050  141.8460 C   0  0  1  0  0  3  0  0  0  0  0  0
  191.1460  176.7670  143.9060 N   0  0  0  0  0  0  0  0  0  0  0  0
  191.9800  177.4270  142.9120 C   0  0  0  0  0  2  0  0  0  0  0  0
  191.1430  177.6170  145.0850 C   0  0  0  0  0  2  0  0  0  0  0  0
  189.7170  177.9690  145.4730 C   0  0  0  0  0  2  0  0  0  0  0  0
  189.6150  178.0620  146.8660 O   0  0  0  0  0  0  0  0  0  0  0  0
  188.2560  176.5690  147.9770 O   0  0  0  0  0  0  0  0  0  0  0  0
  188.2920  177.7310  147.1870 C   0  0  1  0  0  0  0  0  0  0  0  0
  187.8870  177.7730  148.6090 C   0  0  0  0  0  2  0  0  0  0  0  0
  187.2510  177.6640  146.0830 C   0  0  0  0  0  1  0  0  0  0  0  0
  180.5090  177.6900  138.9240 N   0  0  0  0  0  0  0  0  0  0  0  0
  181.3190  177.9810  139.6980 C   0  0  0  0  0  0  0  0  0  0  0  0
  1  4  1  0  0  0  0
  1 19  1  0  0  0  0
  2 12  1  0  0  0  0
  2 23  1  1  0  0  0
  3  6  1  0  0  0  0
  4 17  1  1  0  0  0
  4 14  1  0  0  0  0
  5 15  1  0  0  0  0
  6  7  2  0  0  0  0
  7 21  1  0  0  0  0
  7 11  1  0  0  0  0
  8 18  1  0  0  0  0
  8 10  1  0  0  0  0
  9 10  2  0  0  0  0
  9 22  1  0  0  0  0
 10 12  1  0  0  0  0
 11 15  2  0  0  0  0
 12  3  2  0  0  0  0
 13 16  2  0  0  0  0
 16 21  1  0  0  0  0
 18 14  1  6  0  0  0
 18  2  1  0  0  0  0
 19  8  1  0  0  0  0
 20 13  1  0  0  0  0
 20  6  1  0  0  0  0
 21  5  2  0  0  0  0
 22 20  2  0  0  0  0
 23 24  2  0  0  0  0
 25 27  1  0  0  0  0
 25 29  1  0  0  0  0
 26 28  1  0  0  0  0
 27 23  1  6  0  0  0
 27 26  1  0  0  0  0
 28 30  1  0  0  0  0
 29 28  1  0  0  0  0
 30 31  1  0  0  0  0
 31 32  1  0  0  0  0
 32 34  1  0  0  0  0
 33 35  1  0  0  0  0
 34 36  1  6  0  0  0
 34 33  1  0  0  0  0
 34 35  1  0  0  0  0
 37 38  3  0  0  0  0
 38 13  1  0  0  0  0
M  END
>  <MODEL>
2

>  <REMARK>
 VINA RESULT:      -7.2      2.544      8.234
  Name = 
  7 active torsions:
  status: ('A' for Active; 'I' for Inactive)
    1  A    between atoms: C_3  and  C_14
    2  A    between atoms: C_13  and  O_34
    3  A    between atoms: C_14  and  C_17
    4  A    between atoms: C_15  and  C_29
    5  A    between atoms: C_15  and  N_36
    6  A    between atoms: C_21  and  C_33
    7  A    between atoms: C_29  and  O_34
                            x       y       z     vdW  Elec       q    Type
                         _______ _______ _______ _____ _____    ______ ____

>  <TORSDO>
F 7

$$$$
=
 OpenBabel10232408103D

 38 44  0  0  1  0  0  0  0  0999 V2000
  189.4280  176.5560  137.7600 C   0  0  0  0  0  2  0  0  0  0  0  0
  187.2850  178.8780  140.6440 C   0  0  1  0  0  3  0  0  0  0  0  0
  187.2370  178.2990  143.0790 C   0  0  0  0  0  3  0  0  0  0  0  0
  189.6950  178.0620  137.7330 C   0  0  2  0  0  3  0  0  0  0  0  0
  186.2430  178.3700  147.5950 C   0  0  0  0  0  3  0  0  0  0  0  0
  187.4530  177.3260  144.1880 C   0  0  0  0  0  0  0  0  0  0  0  0
  186.6930  177.7710  145.4070 C   0  0  0  0  0  0  0  0  0  0  0  0
  188.5270  176.9140  140.0100 N   0  0  0  0  0  0  0  0  0  0  0  0
  189.4520  176.3380  142.1690 C   0  0  0  0  0  3  0  0  0  0  0  0
  188.5420  176.9840  141.4270 C   0  0  0  0  0  0  0  0  0  0  0  0
  185.3000  178.0200  145.4290 N   0  0  0  0  0  0  0  0  0  0  0  0
  187.7040  178.0900  141.8500 C   0  0  0  0  0  0  0  0  0  0  0  0
  189.4680  177.3030  145.8410 C   0  0  0  0  0  0  0  0  0  0  0  0
  188.6680  178.8840  138.5310 C   0  0  0  0  0  2  0  0  0  0  0  0
  184.9390  178.4140  146.7850 C   0  0  0  0  0  3  0  0  0  0  0  0
  188.6720  177.7150  146.8310 C   0  0  0  0  0  3  0  0  0  0  0  0
  189.7310  178.5110  136.4140 O   0  0  0  0  0  1  0  0  0  0  0  0
  187.7770  178.0390  139.4500 C   0  0  2  0  0  3  0  0  0  0  0  0
  189.4030  176.0650  139.2040 C   0  0  0  0  0  2  0  0  0  0  0  0
  188.9270  177.0810  144.4690 C   0  0  0  0  0  0  0  0  0  0  0  0
  187.2460  177.9470  146.5850 C   0  0  0  0  0  0  0  0  0  0  0  0
  189.7160  176.5770  143.5630 N   0  0  0  0  0  0  0  0  0  0  0  0
  185.7940  179.0550  140.5790 C   0  0  0  0  0  0  0  0  0  0  0  0
  185.1830  179.5340  141.5270 O   0  0  0  0  0  0  0  0  0  0  0  0
  184.2040  177.4600  139.5330 C   0  0  0  0  0  2  0  0  0  0  0  0
  184.1350  179.7820  138.8940 C   0  0  0  0  0  2  0  0  0  0  0  0
  185.0740  178.6750  139.3230 C   0  0  1  0  0  3  0  0  0  0  0  0
  182.8890  179.1620  138.4630 N   0  0  0  0  0  0  0  0  0  0  0  0
  182.7970  177.9130  139.2060 C   0  0  0  0  0  2  0  0  0  0  0  0
  181.8010  180.0080  138.9260 C   0  0  0  0  0  2  0  0  0  0  0  0
  181.3300  180.9180  137.8040 C   0  0  0  0  0  2  0  0  0  0  0  0
  181.0920  182.2020  138.3060 O   0  0  0  0  0  0  0  0  0  0  0  0
  180.1170  184.1100  137.4580 O   0  0  0  0  0  0  0  0  0  0  0  0
  181.0000  183.0490  137.1930 C   0  0  1  0  0  0  0  0  0  0  0  0
  181.4810  184.4410  137.3330 C   0  0  0  0  0  2  0  0  0  0  0  0
  180.7270  182.4530  135.8230 C   0  0  0  0  0  1  0  0  0  0  0  0
  191.9820  176.9070  146.3590 N   0  0  0  0  0  0  0  0  0  0  0  0
  190.8620  177.0840  146.1280 C   0  0  0  0  0  0  0  0  0  0  0  0
  1 19  1  0  0  0  0
  2 23  1  6  0  0  0
  2 12  1  0  0  0  0
  3  6  1  0  0  0  0
  4 17  1  6  0  0  0
  4  1  1  0  0  0  0
  4 14  1  0  0  0  0
  6 20  1  0  0  0  0
  6  7  2  0  0  0  0
  7 11  1  0  0  0  0
  7 21  1  0  0  0  0
  8 10  1  0  0  0  0
  9 22  1  0  0  0  0
 10 12  1  0  0  0  0
 10  9  2  0  0  0  0
 11 15  2  0  0  0  0
 12  3  2  0  0  0  0
 13 38  1  0  0  0  0
 13 16  2  0  0  0  0
 15  5  1  0  0  0  0
 18 14  1  6  0  0  0
 18  8  1  0  0  0  0
 18  2  1  0  0  0  0
 19  8  1  0  0  0  0
 20 13  1  0  0  0  0
 21 16  1  0  0  0  0
 21  5  2  0  0  0  0
 22 20  2  0  0  0  0
 23 24  2  0  0  0  0
 26 27  1  0  0  0  0
 27 25  1  0  0  0  0
 27 23  1  1  0  0  0
 28 26  1  0  0  0  0
 28 30  1  0  0  0  0
 28 29  1  0  0  0  0
 29 25  1  0  0  0  0
 31 32  1  0  0  0  0
 31 30  1  0  0  0  0
 34 36  1  6  0  0  0
 34 35  1  0  0  0  0
 34 33  1  0  0  0  0
 34 32  1  0  0  0  0
 35 33  1  0  0  0  0
 38 37  3  0  0  0  0
M  END
>  <MODEL>
3

>  <REMARK>
 VINA RESULT:      -7.1      3.068      6.640
  Name = 
  7 active torsions:
  status: ('A' for Active; 'I' for Inactive)
    1  A    between atoms: C_3  and  C_14
    2  A    between atoms: C_13  and  O_34
    3  A    between atoms: C_14  and  C_17
    4  A    between atoms: C_15  and  C_29
    5  A    between atoms: C_15  and  N_36
    6  A    between atoms: C_21  and  C_33
    7  A    between atoms: C_29  and  O_34
                            x       y       z     vdW  Elec       q    Type
                         _______ _______ _______ _____ _____    ______ ____

>  <TORSDO>
F 7

$$$$
=
 OpenBabel10232408103D

 38 44  0  0  1  0  0  0  0  0999 V2000
  192.7070  175.7840  135.4280 C   0  0  0  0  0  2  0  0  0  0  0  0
  190.0010  176.2170  138.7120 C   0  0  1  0  0  3  0  0  0  0  0  0
  187.6450  177.0130  138.4260 C   0  0  0  0  0  3  0  0  0  0  0  0
  192.5900  174.5750  136.3560 C   0  0  2  0  0  3  0  0  0  0  0  0
  183.3230  178.3770  139.3500 C   0  0  0  0  0  3  0  0  0  0  0  0
  186.5890  177.6810  137.6130 C   0  0  0  0  0  0  0  0  0  0  0  0
  185.4620  178.1190  138.5080 C   0  0  0  0  0  0  0  0  0  0  0  0
  190.5900  176.5410  136.3990 N   0  0  0  0  0  0  0  0  0  0  0  0
  188.3670  176.5890  135.4470 C   0  0  0  0  0  3  0  0  0  0  0  0
  189.1830  176.7000  136.5040 C   0  0  0  0  0  0  0  0  0  0  0  0
  185.6210  178.9630  139.6320 N   0  0  0  0  0  0  0  0  0  0  0  0
  188.8070  176.6280  137.9030 C   0  0  0  0  0  0  0  0  0  0  0  0
  184.6710  176.4890  136.3100 C   0  0  0  0  0  0  0  0  0  0  0  0
  191.8890  174.8880  137.6900 C   0  0  0  0  0  2  0  0  0  0  0  0
  184.3060  179.1680  140.2260 C   0  0  0  0  0  3  0  0  0  0  0  0
  183.7780  176.9410  137.1950 C   0  0  0  0  0  3  0  0  0  0  0  0
  193.8550  174.0450  136.6040 O   0  0  0  0  0  1  0  0  0  0  0  0
  191.1690  176.2410  137.7090 C   0  0  2  0  0  3  0  0  0  0  0  0
  191.3200  176.3540  135.1470 C   0  0  0  0  0  2  0  0  0  0  0  0
  186.1180  176.8210  136.4510 C   0  0  0  0  0  0  0  0  0  0  0  0
  184.2070  177.7800  138.3160 C   0  0  0  0  0  0  0  0  0  0  0  0
  186.9360  176.4490  135.5070 N   0  0  0  0  0  0  0  0  0  0  0  0
  190.2650  177.1670  139.8460 C   0  0  0  0  0  0  0  0  0  0  0  0
  190.3230  178.3740  139.6450 O   0  0  0  0  0  0  0  0  0  0  0  0
  191.3010  177.4990  142.0790 C   0  0  0  0  0  2  0  0  0  0  0  0
  189.0790  176.5800  141.9360 C   0  0  0  0  0  2  0  0  0  0  0  0
  190.4170  176.6180  141.2300 C   0  0  1  0  0  3  0  0  0  0  0  0
  189.2870  177.0360  143.3040 N   0  0  0  0  0  0  0  0  0  0  0  0
  190.4390  177.9260  143.2470 C   0  0  0  0  0  2  0  0  0  0  0  0
  188.1420  177.8550  143.6680 C   0  0  0  0  0  2  0  0  0  0  0  0
  187.5260  177.3470  144.9610 C   0  0  0  0  0  2  0  0  0  0  0  0
  188.5140  177.2460  145.9470 O   0  0  0  0  0  0  0  0  0  0  0  0
  188.2190  176.9870  148.2180 O   0  0  0  0  0  0  0  0  0  0  0  0
  187.9710  177.8130  147.1080 C   0  0  1  0  0  0  0  0  0  0  0  0
  188.8990  178.2210  148.1860 C   0  0  0  0  0  2  0  0  0  0  0  0
  186.5280  178.2860  147.1030 C   0  0  0  0  0  1  0  0  0  0  0  0
  183.8280  175.0140  134.3460 N   0  0  0  0  0  0  0  0  0  0  0  0
  184.2040  175.6710  135.2210 C   0  0  0  0  0  0  0  0  0  0  0  0
  1  4  1  0  0  0  0
  2 23  1  1  0  0  0
  4 17  1  1  0  0  0
  4 14  1  0  0  0  0
  5 15  2  0  0  0  0
  6  3  2  0  0  0  0
  6  7  1  0  0  0  0
  7 11  2  0  0  0  0
  8 10  1  0  0  0  0
  8 18  1  0  0  0  0
  9 22  2  0  0  0  0
  9 10  1  0  0  0  0
 10 12  2  0  0  0  0
 11 15  1  0  0  0  0
 12  3  1  0  0  0  0
 12  2  1  0  0  0  0
 13 20  2  0  0  0  0
 13 16  1  0  0  0  0
 16 21  2  0  0  0  0
 18 14  1  6  0  0  0
 18  2  1  0  0  0  0
 19  1  1  0  0  0  0
 19  8  1  0  0  0  0
 20  6  1  0  0  0  0
 21  7  1  0  0  0  0
 21  5  1  0  0  0  0
 22 20  1  0  0  0  0
 24 23  2  0  0  0  0
 25 29  1  0  0  0  0
 26 28  1  0  0  0  0
 27 23  1  6  0  0  0
 27 26  1  0  0  0  0
 27 25  1  0  0  0  0
 28 30  1  0  0  0  0
 29 28  1  0  0  0  0
 30 31  1  0  0  0  0
 31 32  1  0  0  0  0
 32 34  1  0  0  0  0
 34 36  1  6  0  0  0
 34 35  1  0  0  0  0
 34 33  1  0  0  0  0
 35 33  1  0  0  0  0
 37 38  3  0  0  0  0
 38 13  1  0  0  0  0
M  END
>  <MODEL>
4

>  <REMARK>
 VINA RESULT:      -7.1      2.758      7.322
  Name = 
  7 active torsions:
  status: ('A' for Active; 'I' for Inactive)
    1  A    between atoms: C_3  and  C_14
    2  A    between atoms: C_13  and  O_34
    3  A    between atoms: C_14  and  C_17
    4  A    between atoms: C_15  and  C_29
    5  A    between atoms: C_15  and  N_36
    6  A    between atoms: C_21  and  C_33
    7  A    between atoms: C_29  and  O_34
                            x       y       z     vdW  Elec       q    Type
                         _______ _______ _______ _____ _____    ______ ____

>  <TORSDO>
F 7

$$$$
=
 OpenBabel10232408103D

 38 44  0  0  1  0  0  0  0  0999 V2000
  189.4530  176.5640  137.6740 C   0  0  0  0  0  2  0  0  0  0  0  0
  187.3080  178.8850  140.5580 C   0  0  1  0  0  3  0  0  0  0  0  0
  187.2510  178.3010  142.9910 C   0  0  0  0  0  3  0  0  0  0  0  0
  189.7240  178.0690  137.6510 C   0  0  2  0  0  3  0  0  0  0  0  0
  186.2430  178.3640  147.5040 C   0  0  0  0  0  3  0  0  0  0  0  0
  187.4600  177.3240  144.0980 C   0  0  0  0  0  0  0  0  0  0  0  0
  186.6980  177.7690  145.3160 C   0  0  0  0  0  0  0  0  0  0  0  0
  188.5460  176.9190  139.9220 N   0  0  0  0  0  0  0  0  0  0  0  0
  189.4620  176.3350  142.0830 C   0  0  0  0  0  3  0  0  0  0  0  0
  188.5560  176.9860  141.3400 C   0  0  0  0  0  0  0  0  0  0  0  0
  185.3060  178.0220  145.3340 N   0  0  0  0  0  0  0  0  0  0  0  0
  187.7210  178.0930  141.7620 C   0  0  0  0  0  0  0  0  0  0  0  0
  189.4710  177.2910  145.7570 C   0  0  0  0  0  0  0  0  0  0  0  0
  188.6970  178.8920  138.4490 C   0  0  0  0  0  2  0  0  0  0  0  0
  184.9420  178.4130  146.6900 C   0  0  0  0  0  3  0  0  0  0  0  0
  188.6720  177.7030  146.7460 C   0  0  0  0  0  3  0  0  0  0  0  0
  189.7650  178.5210  136.3340 O   0  0  0  0  0  1  0  0  0  0  0  0
  187.8010  178.0480  139.3620 C   0  0  2  0  0  3  0  0  0  0  0  0
  189.4210  176.0690  139.1170 C   0  0  0  0  0  2  0  0  0  0  0  0
  188.9320  177.0740  144.3830 C   0  0  0  0  0  0  0  0  0  0  0  0
  187.2480  177.9400  146.4960 C   0  0  0  0  0  0  0  0  0  0  0  0
  189.7230  176.5700  143.4780 N   0  0  0  0  0  0  0  0  0  0  0  0
  185.8180  179.0680  140.4890 C   0  0  0  0  0  0  0  0  0  0  0  0
  185.2010  179.5130  141.4480 O   0  0  0  0  0  0  0  0  0  0  0  0
  184.2580  177.4930  139.3670 C   0  0  0  0  0  2  0  0  0  0  0  0
  184.1470  179.8410  138.8360 C   0  0  0  0  0  2  0  0  0  0  0  0
  185.1060  178.7330  139.2150 C   0  0  1  0  0  3  0  0  0  0  0  0
  182.9130  179.2190  138.3750 N   0  0  0  0  0  0  0  0  0  0  0  0
  182.8440  177.9350  139.0580 C   0  0  0  0  0  2  0  0  0  0  0  0
  181.8080  180.0210  138.8750 C   0  0  0  0  0  2  0  0  0  0  0  0
  180.8910  179.1710  139.7370 C   0  0  0  0  0  2  0  0  0  0  0  0
  180.3140  179.9620  140.7360 O   0  0  0  0  0  0  0  0  0  0  0  0
  181.2690  179.3960  142.7550 O   0  0  0  0  0  0  0  0  0  0  0  0
  180.2050  179.1470  141.8710 C   0  0  1  0  0  0  0  0  0  0  0  0
  179.9870  179.7990  143.1810 C   0  0  0  0  0  2  0  0  0  0  0  0
  179.9880  177.6540  141.6990 C   0  0  0  0  0  1  0  0  0  0  0  0
  191.9820  176.8870  146.2820 N   0  0  0  0  0  0  0  0  0  0  0  0
  190.8630  177.0670  146.0480 C   0  0  0  0  0  0  0  0  0  0  0  0
  1 19  1  0  0  0  0
  2 23  1  6  0  0  0
  2 12  1  0  0  0  0
  3  6  1  0  0  0  0
  4 17  1  6  0  0  0
  4  1  1  0  0  0  0
  4 14  1  0  0  0  0
  6 20  1  0  0  0  0
  6  7  2  0  0  0  0
  7 11  1  0  0  0  0
  7 21  1  0  0  0  0
  8 10  1  0  0  0  0
  9 22  1  0  0  0  0
 10 12  1  0  0  0  0
 10  9  2  0  0  0  0
 11 15  2  0  0  0  0
 12  3  2  0  0  0  0
 13 38  1  0  0  0  0
 13 16  2  0  0  0  0
 15  5  1  0  0  0  0
 18 14  1  6  0  0  0
 18  8  1  0  0  0  0
 18  2  1  0  0  0  0
 19  8  1  0  0  0  0
 20 13  1  0  0  0  0
 21 16  1  0  0  0  0
 21  5  2  0  0  0  0
 22 20  2  0  0  0  0
 23 24  2  0  0  0  0
 26 27  1  0  0  0  0
 27 25  1  0  0  0  0
 27 23  1  1  0  0  0
 28 26  1  0  0  0  0
 28 30  1  0  0  0  0
 28 29  1  0  0  0  0
 29 25  1  0  0  0  0
 30 31  1  0  0  0  0
 31 32  1  0  0  0  0
 32 34  1  0  0  0  0
 33 35  1  0  0  0  0
 34 36  1  6  0  0  0
 34 33  1  0  0  0  0
 34 35  1  0  0  0  0
 38 37  3  0  0  0  0
M  END
>  <MODEL>
5

>  <REMARK>
 VINA RESULT:      -7.0      2.617      6.377
  Name = 
  7 active torsions:
  status: ('A' for Active; 'I' for Inactive)
    1  A    between atoms: C_3  and  C_14
    2  A    between atoms: C_13  and  O_34
    3  A    between atoms: C_14  and  C_17
    4  A    between atoms: C_15  and  C_29
    5  A    between atoms: C_15  and  N_36
    6  A    between atoms: C_21  and  C_33
    7  A    between atoms: C_29  and  O_34
                            x       y       z     vdW  Elec       q    Type
                         _______ _______ _______ _____ _____    ______ ____

>  <TORSDO>
F 7

$$$$
=
 OpenBabel10232408103D

 38 44  0  0  1  0  0  0  0  0999 V2000
  190.3460  177.2060  144.6710 C   0  0  0  0  0  2  0  0  0  0  0  0
  188.5220  178.7790  141.1350 C   0  0  1  0  0  3  0  0  0  0  0  0
  186.0850  178.5030  140.6340 C   0  0  0  0  0  3  0  0  0  0  0  0
  190.6300  178.6790  144.3760 C   0  0  2  0  0  3  0  0  0  0  0  0
  181.9930  178.6680  138.4860 C   0  0  0  0  0  3  0  0  0  0  0  0
  184.7780  177.8260  140.8730 C   0  0  0  0  0  0  0  0  0  0  0  0
  183.8650  178.0620  139.7010 C   0  0  0  0  0  0  0  0  0  0  0  0
  188.4600  177.4190  143.1230 N   0  0  0  0  0  0  0  0  0  0  0  0
  186.0830  177.5030  143.5640 C   0  0  0  0  0  3  0  0  0  0  0  0
  187.1170  177.6460  142.7230 C   0  0  0  0  0  0  0  0  0  0  0  0
  184.1880  177.7340  138.3630 N   0  0  0  0  0  0  0  0  0  0  0  0
  187.1190  178.3630  141.4620 C   0  0  0  0  0  0  0  0  0  0  0  0
  182.7720  178.7940  142.2270 C   0  0  0  0  0  0  0  0  0  0  0  0
  190.2520  179.1040  142.9460 C   0  0  0  0  0  2  0  0  0  0  0  0
  183.0490  178.0970  137.5280 C   0  0  0  0  0  3  0  0  0  0  0  0
  182.0780  178.9600  141.0970 C   0  0  0  0  0  3  0  0  0  0  0  0
  191.9760  178.9570  144.6080 O   0  0  0  0  0  1  0  0  0  0  0  0
  189.3860  178.0810  142.2030 C   0  0  2  0  0  3  0  0  0  0  0  0
  188.8690  176.9080  144.4300 C   0  0  0  0  0  2  0  0  0  0  0  0
  184.1500  178.2240  142.1990 C   0  0  0  0  0  0  0  0  0  0  0  0
  182.6600  178.5730  139.8090 C   0  0  0  0  0  0  0  0  0  0  0  0
  184.7460  177.9810  143.3320 N   0  0  0  0  0  0  0  0  0  0  0  0
  188.9330  178.3370  139.7600 C   0  0  0  0  0  0  0  0  0  0  0  0
  188.9810  179.1410  138.8360 O   0  0  0  0  0  0  0  0  0  0  0  0
  188.7960  176.3870  138.2280 C   0  0  0  0  0  2  0  0  0  0  0  0
  190.8260  176.7720  139.4670 C   0  0  0  0  0  2  0  0  0  0  0  0
  189.3210  176.9080  139.5440 C   0  0  1  0  0  3  0  0  0  0  0  0
  191.1320  175.8470  138.3840 N   0  0  0  0  0  0  0  0  0  0  0  0
  190.0220  175.9610  137.4480 C   0  0  0  0  0  2  0  0  0  0  0  0
  192.3110  176.3530  137.7000 C   0  0  0  0  0  2  0  0  0  0  0  0
  193.3850  175.2790  137.6440 C   0  0  0  0  0  2  0  0  0  0  0  0
  194.3880  175.5660  138.5770 O   0  0  0  0  0  0  0  0  0  0  0  0
  196.5210  174.8450  138.0830 O   0  0  0  0  0  0  0  0  0  0  0  0
  195.2580  174.4670  138.5700 C   0  0  1  0  0  0  0  0  0  0  0  0
  196.4460  174.5100  139.4500 C   0  0  0  0  0  2  0  0  0  0  0  0
  194.8060  173.1620  137.9370 C   0  0  0  0  0  1  0  0  0  0  0  0
  181.6680  179.4970  144.4700 N   0  0  0  0  0  0  0  0  0  0  0  0
  182.1600  179.1840  143.4710 C   0  0  0  0  0  0  0  0  0  0  0  0
  2 23  1  6  0  0  0
  2 12  1  0  0  0  0
  2 18  1  0  0  0  0
  3  6  2  0  0  0  0
  3 12  1  0  0  0  0
  4 17  1  6  0  0  0
  4  1  1  0  0  0  0
  5 21  1  0  0  0  0
  6 20  1  0  0  0  0
  7 21  1  0  0  0  0
  7  6  1  0  0  0  0
  8 19  1  0  0  0  0
 10  8  1  0  0  0  0
 10  9  1  0  0  0  0
 11  7  2  0  0  0  0
 12 10  2  0  0  0  0
 13 38  1  0  0  0  0
 14  4  1  0  0  0  0
 15 11  1  0  0  0  0
 15  5  2  0  0  0  0
 16 13  1  0  0  0  0
 18 14  1  1  0  0  0
 18  8  1  0  0  0  0
 19  1  1  0  0  0  0
 20 13  2  0  0  0  0
 20 22  1  0  0  0  0
 21 16  2  0  0  0  0
 22  9  2  0  0  0  0
 24 23  2  0  0  0  0
 25 27  1  0  0  0  0
 26 27  1  0  0  0  0
 27 23  1  6  0  0  0
 28 26  1  0  0  0  0
 29 25  1  0  0  0  0
 29 28  1  0  0  0  0
 30 28  1  0  0  0  0
 31 30  1  0  0  0  0
 31 32  1  0  0  0  0
 33 34  1  0  0  0  0
 33 35  1  0  0  0  0
 34 36  1  6  0  0  0
 34 32  1  0  0  0  0
 34 35  1  0  0  0  0
 38 37  3  0  0  0  0
M  END
>  <MODEL>
6

>  <REMARK>
 VINA RESULT:      -7.0      3.038      7.908
  Name = 
  7 active torsions:
  status: ('A' for Active; 'I' for Inactive)
    1  A    between atoms: C_3  and  C_14
    2  A    between atoms: C_13  and  O_34
    3  A    between atoms: C_14  and  C_17
    4  A    between atoms: C_15  and  C_29
    5  A    between atoms: C_15  and  N_36
    6  A    between atoms: C_21  and  C_33
    7  A    between atoms: C_29  and  O_34
                            x       y       z     vdW  Elec       q    Type
                         _______ _______ _______ _____ _____    ______ ____

>  <TORSDO>
F 7

$$$$
=
 OpenBabel10232408103D

 38 44  0  0  1  0  0  0  0  0999 V2000
  182.0840  179.6980  138.1040 C   0  0  0  0  0  2  0  0  0  0  0  0
  185.7710  177.5330  137.9710 C   0  0  1  0  0  3  0  0  0  0  0  0
  187.4960  177.6880  139.7790 C   0  0  0  0  0  3  0  0  0  0  0  0
  181.9660  178.2000  137.8200 C   0  0  2  0  0  3  0  0  0  0  0  0
  191.3980  177.1110  142.1920 C   0  0  0  0  0  3  0  0  0  0  0  0
  188.0720  178.3770  140.9690 C   0  0  0  0  0  0  0  0  0  0  0  0
  189.4970  177.9360  141.1680 C   0  0  0  0  0  0  0  0  0  0  0  0
  184.3330  179.2040  138.9410 N   0  0  0  0  0  0  0  0  0  0  0  0
  185.1780  179.1610  141.2060 C   0  0  0  0  0  3  0  0  0  0  0  0
  185.3300  178.8950  139.9010 C   0  0  0  0  0  0  0  0  0  0  0  0
  190.5060  178.0420  140.1820 N   0  0  0  0  0  0  0  0  0  0  0  0
  186.2840  177.9780  139.3080 C   0  0  0  0  0  0  0  0  0  0  0  0
  187.8240  177.6210  143.4510 C   0  0  0  0  0  0  0  0  0  0  0  0
  183.3020  177.5380  137.4410 C   0  0  0  0  0  2  0  0  0  0  0  0
  191.7440  177.5290  140.7560 C   0  0  0  0  0  3  0  0  0  0  0  0
  189.1100  177.2590  143.4790 C   0  0  0  0  0  3  0  0  0  0  0  0
  181.0320  177.9840  136.8070 O   0  0  0  0  0  1  0  0  0  0  0  0
  184.5300  178.4100  137.7260 C   0  0  2  0  0  3  0  0  0  0  0  0
  183.0960  179.9310  139.2210 C   0  0  0  0  0  2  0  0  0  0  0  0
  187.2200  178.1970  142.2150 C   0  0  0  0  0  0  0  0  0  0  0  0
  189.9520  177.4340  142.2920 C   0  0  0  0  0  0  0  0  0  0  0  0
  185.9930  178.6330  142.2680 N   0  0  0  0  0  0  0  0  0  0  0  0
  186.7840  177.7450  136.8820 C   0  0  0  0  0  0  0  0  0  0  0  0
  187.3390  178.8290  136.7500 O   0  0  0  0  0  0  0  0  0  0  0  0
  188.2870  176.9420  135.0740 C   0  0  0  0  0  2  0  0  0  0  0  0
  187.5950  175.4090  136.7990 C   0  0  0  0  0  2  0  0  0  0  0  0
  187.1330  176.5980  135.9850 C   0  0  1  0  0  3  0  0  0  0  0  0
  188.7470  174.8290  136.1210 N   0  0  0  0  0  0  0  0  0  0  0  0
  189.3650  175.9280  135.3930 C   0  0  0  0  0  2  0  0  0  0  0  0
  189.6930  174.4190  137.1470 C   0  0  0  0  0  2  0  0  0  0  0  0
  190.8070  175.4450  137.2710 C   0  0  0  0  0  2  0  0  0  0  0  0
  191.8220  174.9430  138.0930 O   0  0  0  0  0  0  0  0  0  0  0  0
  193.8520  176.0150  138.2980 O   0  0  0  0  0  0  0  0  0  0  0  0
  193.0320  175.2450  137.4540 C   0  0  1  0  0  0  0  0  0  0  0  0
  194.2810  174.7000  138.0290 C   0  0  0  0  0  2  0  0  0  0  0  0
  193.0100  175.8260  136.0510 C   0  0  0  0  0  1  0  0  0  0  0  0
  186.4000  177.2860  145.5970 N   0  0  0  0  0  0  0  0  0  0  0  0
  187.0340  177.4350  144.6410 C   0  0  0  0  0  0  0  0  0  0  0  0
  1 19  1  0  0  0  0
  2 23  1  6  0  0  0
  2 12  1  0  0  0  0
  3  6  1  0  0  0  0
  4 17  1  6  0  0  0
  4  1  1  0  0  0  0
  5 21  2  0  0  0  0
  6  7  2  0  0  0  0
  6 20  1  0  0  0  0
  7 21  1  0  0  0  0
  8 19  1  0  0  0  0
  8 10  1  0  0  0  0
  9 22  1  0  0  0  0
 10  9  2  0  0  0  0
 11 15  2  0  0  0  0
 11  7  1  0  0  0  0
 12  3  2  0  0  0  0
 12 10  1  0  0  0  0
 13 16  2  0  0  0  0
 13 38  1  0  0  0  0
 14  4  1  0  0  0  0
 15  5  1  0  0  0  0
 18 14  1  1  0  0  0
 18  2  1  0  0  0  0
 18  8  1  0  0  0  0
 20 22  2  0  0  0  0
 20 13  1  0  0  0  0
 21 16  1  0  0  0  0
 24 23  2  0  0  0  0
 25 29  1  0  0  0  0
 25 27  1  0  0  0  0
 27 26  1  0  0  0  0
 27 23  1  1  0  0  0
 28 26  1  0  0  0  0
 28 30  1  0  0  0  0
 29 28  1  0  0  0  0
 30 31  1  0  0  0  0
 31 32  1  0  0  0  0
 34 36  1  6  0  0  0
 34 35  1  0  0  0  0
 34 32  1  0  0  0  0
 34 33  1  0  0  0  0
 35 33  1  0  0  0  0
 38 37  3  0  0  0  0
M  END
>  <MODEL>
7

>  <REMARK>
 VINA RESULT:      -6.8      2.755      8.136
  Name = 
  7 active torsions:
  status: ('A' for Active; 'I' for Inactive)
    1  A    between atoms: C_3  and  C_14
    2  A    between atoms: C_13  and  O_34
    3  A    between atoms: C_14  and  C_17
    4  A    between atoms: C_15  and  C_29
    5  A    between atoms: C_15  and  N_36
    6  A    between atoms: C_21  and  C_33
    7  A    between atoms: C_29  and  O_34
                            x       y       z     vdW  Elec       q    Type
                         _______ _______ _______ _____ _____    ______ ____

>  <TORSDO>
F 7

$$$$
=
 OpenBabel10232408103D

 38 44  0  0  1  0  0  0  0  0999 V2000
  192.9110  175.9790  136.2000 C   0  0  0  0  0  2  0  0  0  0  0  0
  189.5160  176.9570  138.6120 C   0  0  1  0  0  3  0  0  0  0  0  0
  187.1660  176.4740  137.8970 C   0  0  0  0  0  3  0  0  0  0  0  0
  192.9700  175.5070  137.6530 C   0  0  2  0  0  3  0  0  0  0  0  0
  182.5460  176.2750  137.8260 C   0  0  0  0  0  3  0  0  0  0  0  0
  186.1740  176.1320  136.8370 C   0  0  0  0  0  0  0  0  0  0  0  0
  184.7900  176.4860  137.3070 C   0  0  0  0  0  0  0  0  0  0  0  0
  190.4970  176.2210  136.5390 N   0  0  0  0  0  0  0  0  0  0  0  0
  188.6640  174.8770  135.7100 C   0  0  0  0  0  3  0  0  0  0  0  0
  189.1300  175.8390  136.5200 C   0  0  0  0  0  0  0  0  0  0  0  0
  184.4030  177.7750  137.7430 N   0  0  0  0  0  0  0  0  0  0  0  0
  188.4790  176.3690  137.7020 C   0  0  0  0  0  0  0  0  0  0  0  0
  185.1000  173.7920  136.4360 C   0  0  0  0  0  0  0  0  0  0  0  0
  191.9140  176.1660  138.5580 C   0  0  0  0  0  2  0  0  0  0  0  0
  182.9900  177.7200  138.0990 C   0  0  0  0  0  3  0  0  0  0  0  0
  183.9270  174.2430  136.8920 C   0  0  0  0  0  3  0  0  0  0  0  0
  194.2420  175.7390  138.1740 O   0  0  0  0  0  1  0  0  0  0  0  0
  190.8170  176.9110  137.7890 C   0  0  2  0  0  3  0  0  0  0  0  0
  191.5220  175.7120  135.6290 C   0  0  0  0  0  2  0  0  0  0  0  0
  186.2900  174.6890  136.3760 C   0  0  0  0  0  0  0  0  0  0  0  0
  183.7910  175.6330  137.3320 C   0  0  0  0  0  0  0  0  0  0  0  0
  187.3810  174.2370  135.8250 N   0  0  0  0  0  0  0  0  0  0  0  0
  189.1890  178.3720  138.9970 C   0  0  0  0  0  0  0  0  0  0  0  0
  188.9820  179.2180  138.1360 O   0  0  0  0  0  0  0  0  0  0  0  0
  187.7820  178.2310  141.0390 C   0  0  0  0  0  2  0  0  0  0  0  0
  190.1750  178.0370  141.2410 C   0  0  0  0  0  2  0  0  0  0  0  0
  189.0820  178.7210  140.4480 C   0  0  1  0  0  3  0  0  0  0  0  0
  189.5810  177.5340  142.4720 N   0  0  0  0  0  0  0  0  0  0  0  0
  188.1800  177.2910  142.1570 C   0  0  0  0  0  2  0  0  0  0  0  0
  190.1810  176.2380  142.7460 C   0  0  0  0  0  2  0  0  0  0  0  0
  191.1690  176.3510  143.8940 C   0  0  0  0  0  2  0  0  0  0  0  0
  190.8720  177.4810  144.6630 O   0  0  0  0  0  0  0  0  0  0  0  0
  189.7440  178.0160  146.6010 O   0  0  0  0  0  0  0  0  0  0  0  0
  190.4370  177.0080  145.9090 C   0  0  1  0  0  0  0  0  0  0  0  0
  188.9800  176.9190  146.1530 C   0  0  0  0  0  2  0  0  0  0  0  0
  191.4240  176.3070  146.8260 C   0  0  0  0  0  1  0  0  0  0  0  0
  185.2580  171.3160  135.6680 N   0  0  0  0  0  0  0  0  0  0  0  0
  185.1880  172.4190  136.0100 C   0  0  0  0  0  0  0  0  0  0  0  0
  1  4  1  0  0  0  0
  2 23  1  6  0  0  0
  4 17  1  1  0  0  0
  4 14  1  0  0  0  0
  5 15  2  0  0  0  0
  6  7  1  0  0  0  0
  6  3  2  0  0  0  0
  7 21  1  0  0  0  0
  7 11  2  0  0  0  0
  8 18  1  0  0  0  0
  9 22  2  0  0  0  0
  9 10  1  0  0  0  0
 10  8  1  0  0  0  0
 10 12  2  0  0  0  0
 11 15  1  0  0  0  0
 12  3  1  0  0  0  0
 12  2  1  0  0  0  0
 13 16  1  0  0  0  0
 16 21  2  0  0  0  0
 18 14  1  1  0  0  0
 18  2  1  0  0  0  0
 19  1  1  0  0  0  0
 19  8  1  0  0  0  0
 20 13  2  0  0  0  0
 20  6  1  0  0  0  0
 21  5  1  0  0  0  0
 22 20  1  0  0  0  0
 24 23  2  0  0  0  0
 25 29  1  0  0  0  0
 26 28  1  0  0  0  0
 27 23  1  6  0  0  0
 27 25  1  0  0  0  0
 27 26  1  0  0  0  0
 28 30  1  0  0  0  0
 29 28  1  0  0  0  0
 30 31  1  0  0  0  0
 31 32  1  0  0  0  0
 32 34  1  0  0  0  0
 34 35  1  0  0  0  0
 34 33  1  0  0  0  0
 34 36  1  1  0  0  0
 35 33  1  0  0  0  0
 37 38  3  0  0  0  0
 38 13  1  0  0  0  0
M  END
>  <MODEL>
8

>  <REMARK>
 VINA RESULT:      -6.7      2.959      7.240
  Name = 
  7 active torsions:
  status: ('A' for Active; 'I' for Inactive)
    1  A    between atoms: C_3  and  C_14
    2  A    between atoms: C_13  and  O_34
    3  A    between atoms: C_14  and  C_17
    4  A    between atoms: C_15  and  C_29
    5  A    between atoms: C_15  and  N_36
    6  A    between atoms: C_21  and  C_33
    7  A    between atoms: C_29  and  O_34
                            x       y       z     vdW  Elec       q    Type
                         _______ _______ _______ _____ _____    ______ ____

>  <TORSDO>
F 7

$$$$
=
 OpenBabel10232408103D

 38 44  0  0  1  0  0  0  0  0999 V2000
  189.4550  176.6320  138.0840 C   0  0  0  0  0  2  0  0  0  0  0  0
  187.4230  178.8570  141.1220 C   0  0  1  0  0  3  0  0  0  0  0  0
  187.4840  178.2110  143.5390 C   0  0  0  0  0  3  0  0  0  0  0  0
  189.7100  178.1400  138.0870 C   0  0  2  0  0  3  0  0  0  0  0  0
  186.6850  178.1490  148.0940 C   0  0  0  0  0  3  0  0  0  0  0  0
  187.7540  177.2090  144.6100 C   0  0  0  0  0  0  0  0  0  0  0  0
  187.0440  177.6150  145.8730 C   0  0  0  0  0  0  0  0  0  0  0  0
  188.6490  176.9210  140.3800 N   0  0  0  0  0  0  0  0  0  0  0  0
  189.6700  176.2920  142.4800 C   0  0  0  0  0  3  0  0  0  0  0  0
  188.7240  176.9520  141.7960 C   0  0  0  0  0  0  0  0  0  0  0  0
  185.6520  177.8520  145.9610 N   0  0  0  0  0  0  0  0  0  0  0  0
  187.8990  178.0390  142.2850 C   0  0  0  0  0  0  0  0  0  0  0  0
  189.8390  177.1560  146.1730 C   0  0  0  0  0  0  0  0  0  0  0  0
  188.7130  178.9320  138.9520 C   0  0  0  0  0  2  0  0  0  0  0  0
  185.3470  178.2050  147.3420 C   0  0  0  0  0  3  0  0  0  0  0  0
  189.0830  177.5340  147.2080 C   0  0  0  0  0  3  0  0  0  0  0  0
  189.6870  178.6260  136.7810 O   0  0  0  0  0  1  0  0  0  0  0  0
  187.8690  178.0550  139.8840 C   0  0  2  0  0  3  0  0  0  0  0  0
  189.4950  176.1010  139.5140 C   0  0  0  0  0  2  0  0  0  0  0  0
  189.2400  176.9680  144.8210 C   0  0  0  0  0  0  0  0  0  0  0  0
  187.6470  177.7620  147.0300 C   0  0  0  0  0  0  0  0  0  0  0  0
  189.9930  176.4950  143.8680 N   0  0  0  0  0  0  0  0  0  0  0  0
  185.9300  179.0250  141.1260 C   0  0  0  0  0  0  0  0  0  0  0  0
  185.3630  179.5780  140.1910 O   0  0  0  0  0  0  0  0  0  0  0  0
  184.8750  179.5250  143.3180 C   0  0  0  0  0  2  0  0  0  0  0  0
  183.7810  178.0040  141.8040 C   0  0  0  0  0  2  0  0  0  0  0  0
  185.1420  178.4700  142.2720 C   0  0  1  0  0  3  0  0  0  0  0  0
  182.8030  178.4260  142.7970 N   0  0  0  0  0  0  0  0  0  0  0  0
  183.3670  179.6160  143.4190 C   0  0  0  0  0  2  0  0  0  0  0  0
  181.6110  178.8520  142.0800 C   0  0  0  0  0  2  0  0  0  0  0  0
  181.8280  178.7250  140.5820 C   0  0  0  0  0  2  0  0  0  0  0  0
  180.6740  179.1290  139.9010 O   0  0  0  0  0  0  0  0  0  0  0  0
  180.0560  180.5960  138.2350 O   0  0  0  0  0  0  0  0  0  0  0  0
  181.0050  180.3150  139.2330 C   0  0  1  0  0  0  0  0  0  0  0  0
  180.0800  181.4630  139.3470 C   0  0  0  0  0  2  0  0  0  0  0  0
  182.4160  180.5020  138.7000 C   0  0  0  0  0  1  0  0  0  0  0  0
  192.3750  176.7650  146.5720 N   0  0  0  0  0  0  0  0  0  0  0  0
  191.2450  176.9390  146.3950 C   0  0  0  0  0  0  0  0  0  0  0  0
  1  4  1  0  0  0  0
  1 19  1  0  0  0  0
  2 23  1  1  0  0  0
  2 12  1  0  0  0  0
  3  6  1  0  0  0  0
  4 17  1  6  0  0  0
  4 14  1  0  0  0  0
  6 20  1  0  0  0  0
  6  7  2  0  0  0  0
  7 11  1  0  0  0  0
  7 21  1  0  0  0  0
  8 10  1  0  0  0  0
  9 22  1  0  0  0  0
 10 12  1  0  0  0  0
 10  9  2  0  0  0  0
 11 15  2  0  0  0  0
 12  3  2  0  0  0  0
 13 38  1  0  0  0  0
 13 16  2  0  0  0  0
 15  5  1  0  0  0  0
 18 14  1  6  0  0  0
 18  8  1  0  0  0  0
 18  2  1  0  0  0  0
 19  8  1  0  0  0  0
 20 13  1  0  0  0  0
 21 16  1  0  0  0  0
 21  5  2  0  0  0  0
 22 20  2  0  0  0  0
 24 23  2  0  0  0  0
 25 29  1  0  0  0  0
 26 27  1  0  0  0  0
 26 28  1  0  0  0  0
 27 23  1  6  0  0  0
 27 25  1  0  0  0  0
 28 29  1  0  0  0  0
 30 28  1  0  0  0  0
 31 30  1  0  0  0  0
 32 31  1  0  0  0  0
 33 34  1  0  0  0  0
 33 35  1  0  0  0  0
 34 36  1  6  0  0  0
 34 35  1  0  0  0  0
 34 32  1  0  0  0  0
 38 37  3  0  0  0  0
M  END
>  <MODEL>
9

>  <REMARK>
 VINA RESULT:      -6.7      2.597      6.188
  Name = 
  7 active torsions:
  status: ('A' for Active; 'I' for Inactive)
    1  A    between atoms: C_3  and  C_14
    2  A    between atoms: C_13  and  O_34
    3  A    between atoms: C_14  and  C_17
    4  A    between atoms: C_15  and  C_29
    5  A    between atoms: C_15  and  N_36
    6  A    between atoms: C_21  and  C_33
    7  A    between atoms: C_29  and  O_34
                            x       y       z     vdW  Elec       q    Type
                         _______ _______ _______ _____ _____    ______ ____

>  <TORSDO>
F 7

$$$$
