=
 OpenBabel10232411393D

 63 68  0  0  1  0  0  0  0  0999 V2000
  187.4810  177.9600  143.1580 C   0  0  2  0  0  3  0  0  0  0  0  0
  189.1230  177.6130  141.3050 C   0  0  0  0  0  3  0  0  0  0  0  0
  191.1780  176.3750  141.6380 C   0  0  0  0  0  3  0  0  0  0  0  0
  189.6210  176.6470  143.4680 C   0  0  0  0  0  3  0  0  0  0  0  0
  190.8280  176.1350  142.9700 C   0  0  0  0  0  0  0  0  0  0  0  0
  190.3280  177.1070  140.8030 C   0  0  0  0  0  0  0  0  0  0  0  0
  188.7640  177.3840  142.6360 C   0  0  0  0  0  0  0  0  0  0  0  0
  191.7450  175.3620  143.8160 C   0  0  0  0  0  3  0  0  0  0  0  0
  191.7330  175.4340  145.1430 C   0  0  0  0  0  2  0  0  0  0  0  0
  190.7340  177.3840  139.3930 C   0  0  0  0  0  2  0  0  0  0  0  0
  191.1290  176.1030  138.6660 C   0  0  0  0  0  2  0  0  0  0  0  0
  190.9640  176.2620  137.2290 N   0  0  0  0  0  2  0  0  0  0  0  0
  192.1190  175.6630  136.5790 C   0  0  1  0  0  3  0  0  0  0  0  0
  192.5010  172.2740  135.3850 C   0  0  0  0  0  2  0  0  0  0  0  0
  192.5730  174.4250  137.3560 C   0  0  0  0  0  2  0  0  0  0  0  0
  193.8360  173.0090  135.6110 C   0  0  2  0  0  3  0  0  0  0  0  0
  190.8280  174.1580  135.0010 C   0  0  0  0  0  2  0  0  0  0  0  0
  193.9210  173.8890  136.8750 C   0  0  2  0  0  3  0  0  0  0  0  0
  191.7720  175.3480  135.1240 C   0  0  0  0  0  2  0  0  0  0  0  0
  191.5550  172.9630  134.3950 C   0  0  0  0  0  2  0  0  0  0  0  0
  194.3970  173.6900  134.3630 C   0  0  0  0  0  2  0  0  0  0  0  0
  196.9060  173.6430  134.6290 N   0  0  0  0  0  1  0  0  0  0  0  0
  195.6850  174.3760  134.6590 C   0  0  0  0  0  0  0  0  0  0  0  0
  195.6990  175.6040  134.9280 O   0  0  0  0  0  0  0  0  0  0  0  0
  194.5550  173.0950  138.0100 C   0  0  0  0  0  2  0  0  0  0  0  0
  197.0390  173.0700  137.8200 C   0  0  0  0  0  1  0  0  0  0  0  0
  195.8390  175.0920  138.1570 O   0  0  0  0  0  1  0  0  0  0  0  0
  195.8490  173.7370  138.4830 C   0  0  1  0  0  3  0  0  0  0  0  0
  186.7530  178.4980  145.4890 C   0  0  1  0  0  3  0  0  0  0  0  0
  188.1150  177.8500  145.6480 C   0  0  2  0  0  3  0  0  0  0  0  0
  189.0990  178.7260  145.1790 O   0  0  0  0  0  1  0  0  0  0  0  0
  187.1630  177.3890  144.5410 C   0  0  2  0  0  3  0  0  0  0  0  0
  185.1980  178.9870  147.2420 O   0  0  0  0  0  0  0  0  0  0  0  0
  184.3580  178.2850  146.3560 C   0  0  2  0  0  3  0  0  0  0  0  0
  185.7990  177.9290  146.5330 C   0  0  1  0  0  3  0  0  0  0  0  0
  184.0370  179.1710  145.1570 C   0  0  0  0  0  2  0  0  0  0  0  0
  182.2670  179.6260  143.6380 O   0  0  0  0  0  1  0  0  0  0  0  0
  182.8140  178.6320  144.4430 C   0  0  0  0  0  2  0  0  0  0  0  0
  186.3130  177.6950  142.2090 C   0  0  0  0  0  2  0  0  0  0  0  0
  186.1250  178.8230  141.2410 C   0  0  0  0  0  0  0  0  0  0  0  0
  183.7000  178.2430  140.7280 C   0  0  0  0  0  0  0  0  0  0  0  0
  187.0780  179.6290  141.0670 O   0  0  0  0  0  0  0  0  0  0  0  0
  184.8730  179.9790  139.5560 O   0  0  0  0  0  1  0  0  0  0  0  0
  184.9020  179.0060  140.4990 N   0  0  0  0  0  0  0  0  0  0  0  0
  183.6630  177.3220  141.5870 O   0  0  0  0  0  0  0  0  0  0  0  0
  182.4640  178.5450  139.9470 C   0  0  0  0  0  2  0  0  0  0  0  0
  181.8370  177.3030  139.5280 N   0  0  0  0  0  2  0  0  0  0  0  0
  182.1640  177.1120  138.1260 C   0  0  0  0  0  2  0  0  0  0  0  0
  182.7780  175.7360  137.9430 C   0  0  0  0  0  2  0  0  0  0  0  0
  184.7560  174.4630  137.1800 C   0  0  0  0  0  2  0  0  0  0  0  0
  187.1450  174.5440  136.3170 N   0  0  2  0  0  0  0  0  0  0  0  0
  187.1180  176.9910  136.7210 C   0  0  1  0  0  3  0  0  0  0  0  0
  187.7320  173.3190  136.8600 C   0  0  0  0  0  2  0  0  0  0  0  0
  187.8100  172.2340  135.7800 C   0  0  0  0  0  2  0  0  0  0  0  0
  187.3520  175.5980  137.3110 C   0  0  0  0  0  2  0  0  0  0  0  0
  185.4580  172.9760  135.2900 C   0  0  0  0  0  2  0  0  0  0  0  0
  184.8870  176.8290  137.6320 O   0  0  0  0  0  0  0  0  0  0  0  0
  184.0550  175.8190  137.1260 C   0  0  2  0  0  3  0  0  0  0  0  0
  185.7100  174.3210  135.9910 C   0  0  1  0  0  3  0  0  0  0  0  0
  185.6290  177.2850  136.5340 C   0  0  0  0  0  2  0  0  0  0  0  0
  186.7430  172.4110  134.6960 C   0  0  0  0  0  2  0  0  0  0  0  0
  187.7240  178.0330  137.6080 C   0  0  0  0  0  3  0  0  0  0  0  0
  187.7040  179.2080  137.2870 O   0  0  0  0  0  0  0  0  0  0  0  0
  1 39  1  6  0  0  0
  2  7  1  0  0  0  0
  3  5  2  0  0  0  0
  5  4  1  0  0  0  0
  5  8  1  0  0  0  0
  6  2  2  0  0  0  0
  6  3  1  0  0  0  0
  7  1  1  0  0  0  0
  7  4  2  0  0  0  0
  8  9  2  0  0  0  0
 10  6  1  0  0  0  0
 11 10  1  0  0  0  0
 12 11  1  0  0  0  0
 13 12  1  1  0  0  0
 13 15  1  0  0  0  0
 14 16  1  0  0  0  0
 16 21  1  6  0  0  0
 16 18  1  0  0  0  0
 17 19  1  0  0  0  0
 18 15  1  0  0  0  0
 18 25  1  1  0  0  0
 19 13  1  0  0  0  0
 20 17  1  0  0  0  0
 20 14  1  0  0  0  0
 21 23  1  0  0  0  0
 22 23  1  0  0  0  0
 23 24  2  0  0  0  0
 25 28  1  0  0  0  0
 27 28  1  0  0  0  0
 28 26  1  6  0  0  0
 29 30  1  0  0  0  0
 29 35  1  1  0  0  0
 30 31  1  6  0  0  0
 32  1  1  6  0  0  0
 32 29  1  0  0  0  0
 32 30  1  0  0  0  0
 34 36  1  6  0  0  0
 34 35  1  0  0  0  0
 34 33  1  0  0  0  0
 35 33  1  1  0  0  0
 37 38  1  0  0  0  0
 38 36  1  0  0  0  0
 40 39  1  0  0  0  0
 41 45  2  0  0  0  0
 42 40  2  0  0  0  0
 43 44  1  0  0  0  0
 44 41  1  0  0  0  0
 44 40  1  0  0  0  0
 46 41  1  0  0  0  0
 47 46  1  0  0  0  0
 48 47  1  0  0  0  0
 49 48  1  0  0  0  0
 51 53  1  1  0  0  0
 51 55  1  0  0  0  0
 52 55  1  0  0  0  0
 52 62  1  1  0  0  0
 54 53  1  0  0  0  0
 58 50  1  0  0  0  0
 58 57  1  0  0  0  0
 58 49  1  1  0  0  0
 59 56  1  1  0  0  0
 59 51  1  0  0  0  0
 59 50  1  0  0  0  0
 60 52  1  0  0  0  0
 60 57  1  0  0  0  0
 61 56  1  0  0  0  0
 61 54  1  0  0  0  0
 63 62  2  0  0  0  0
M  END
>  <MODEL>
1

>  <REMARK>
 VINA RESULT:      -6.7      0.000      0.000
  Name = 
  22 active torsions:
  status: ('A' for Active; 'I' for Inactive)
    1  A    between atoms: C_1  and  C_50
    2  A    between atoms: C_2  and  N_8
    3  A    between atoms: C_4  and  C_17
    4  A    between atoms: C_4  and  C_54
    5  A    between atoms: C_6  and  C_43
    6  A    between atoms: C_7  and  C_31
    7  A    between atoms: N_8  and  C_59
    8  A    between atoms: C_12  and  C_48
    9  A    between atoms: C_14  and  C_46
   10  A    between atoms: C_14  and  C_61
   11  A    between atoms: C_16  and  C_40
   12  A    between atoms: C_19  and  C_42
   13  A    between atoms: C_24  and  C_27
   14  A    between atoms: C_24  and  C_38
   15  A    between atoms: C_27  and  N_53
   16  A    between atoms: C_33  and  C_51
   17  A    between atoms: C_33  and  C_59
   18  A    between atoms: C_35  and  C_42
   19  A    between atoms: C_43  and  N_53
   20  A    between atoms: C_50  and  C_60
   21  A    between atoms: C_55  and  C_60
   22  A    between atoms: C_58  and  C_60
                            x       y       z     vdW  Elec       q    Type
                         _______ _______ _______ _____ _____    ______ ____

>  <TORSDO>
F 22

$$$$
=
 OpenBabel10232411393D

 63 68  0  0  1  0  0  0  0  0999 V2000
  187.5420  177.0930  144.3530 C   0  0  2  0  0  3  0  0  0  0  0  0
  185.4360  177.9460  143.3080 C   0  0  0  0  0  3  0  0  0  0  0  0
  185.3850  178.7660  141.0300 C   0  0  0  0  0  3  0  0  0  0  0  0
  187.4500  177.9280  141.9670 C   0  0  0  0  0  3  0  0  0  0  0  0
  186.7440  178.4770  140.8850 C   0  0  0  0  0  0  0  0  0  0  0  0
  184.7270  178.4970  142.2340 C   0  0  0  0  0  0  0  0  0  0  0  0
  186.7980  177.6580  143.1780 C   0  0  0  0  0  0  0  0  0  0  0  0
  187.4010  178.7730  139.6060 C   0  0  0  0  0  3  0  0  0  0  0  0
  188.0520  177.8530  138.9020 C   0  0  0  0  0  2  0  0  0  0  0  0
  183.2820  178.8430  142.3820 C   0  0  0  0  0  2  0  0  0  0  0  0
  182.6230  179.0720  141.0260 C   0  0  0  0  0  2  0  0  0  0  0  0
  181.7500  177.9580  140.6900 N   0  0  0  0  0  2  0  0  0  0  0  0
  181.8770  177.7070  139.2630 C   0  0  1  0  0  3  0  0  0  0  0  0
  182.4280  174.5510  137.5920 C   0  0  0  0  0  2  0  0  0  0  0  0
  183.2040  177.0020  138.9720 C   0  0  0  0  0  2  0  0  0  0  0  0
  182.7970  175.7790  136.7400 C   0  0  2  0  0  3  0  0  0  0  0  0
  180.7170  175.4540  139.2500 C   0  0  0  0  0  2  0  0  0  0  0  0
  183.5170  176.9260  137.4780 C   0  0  2  0  0  3  0  0  0  0  0  0
  180.6690  176.9040  138.7830 C   0  0  0  0  0  2  0  0  0  0  0  0
  180.9720  174.5230  138.0710 C   0  0  0  0  0  2  0  0  0  0  0  0
  181.6780  176.2630  135.8180 C   0  0  0  0  0  2  0  0  0  0  0  0
  181.2850  178.7110  135.3460 N   0  0  0  0  0  1  0  0  0  0  0  0
  182.0560  177.5320  135.1350 C   0  0  0  0  0  0  0  0  0  0  0  0
  183.0600  177.5670  134.3780 O   0  0  0  0  0  0  0  0  0  0  0  0
  185.0230  176.7780  137.3090 C   0  0  0  0  0  2  0  0  0  0  0  0
  186.2330  176.0540  135.2540 C   0  0  0  0  0  1  0  0  0  0  0  0
  186.0630  174.6440  137.1580 O   0  0  0  0  0  1  0  0  0  0  0  0
  185.3700  175.5980  136.4150 C   0  0  1  0  0  3  0  0  0  0  0  0
  187.7270  177.4760  146.8160 C   0  0  1  0  0  3  0  0  0  0  0  0
  186.4700  178.2170  146.4020 C   0  0  2  0  0  3  0  0  0  0  0  0
  185.4750  177.2900  146.0780 O   0  0  0  0  0  1  0  0  0  0  0  0
  187.6730  178.1440  145.4570 C   0  0  2  0  0  3  0  0  0  0  0  0
  188.8240  177.6280  148.9390 O   0  0  0  0  0  0  0  0  0  0  0  0
  189.9150  177.8610  148.0800 C   0  0  2  0  0  3  0  0  0  0  0  0
  188.5380  178.3520  147.7640 C   0  0  1  0  0  3  0  0  0  0  0  0
  190.3210  176.5520  147.4130 C   0  0  0  0  0  2  0  0  0  0  0  0
  192.3140  175.5210  146.6280 O   0  0  0  0  0  1  0  0  0  0  0  0
  191.7930  176.2920  147.6640 C   0  0  0  0  0  2  0  0  0  0  0  0
  188.9280  176.5880  143.9540 C   0  0  0  0  0  2  0  0  0  0  0  0
  189.9120  177.7110  143.8410 C   0  0  0  0  0  0  0  0  0  0  0  0
  190.6160  177.1210  141.4680 C   0  0  0  0  0  0  0  0  0  0  0  0
  190.0110  178.5210  144.8020 O   0  0  0  0  0  0  0  0  0  0  0  0
  191.6960  178.8580  142.7250 O   0  0  0  0  0  1  0  0  0  0  0  0
  190.7500  177.8870  142.6810 N   0  0  0  0  0  0  0  0  0  0  0  0
  189.7600  176.2030  141.3650 O   0  0  0  0  0  0  0  0  0  0  0  0
  191.4950  177.4160  140.2970 C   0  0  0  0  0  2  0  0  0  0  0  0
  192.7460  176.6900  140.4320 N   0  0  0  0  0  2  0  0  0  0  0  0
  193.4580  176.8270  139.1730 C   0  0  0  0  0  2  0  0  0  0  0  0
  192.6570  176.1530  138.0740 C   0  0  0  0  0  2  0  0  0  0  0  0
  193.1270  173.8710  137.2450 C   0  0  0  0  0  2  0  0  0  0  0  0
  194.8210  172.2770  136.2230 N   0  0  2  0  0  0  0  0  0  0  0  0
  196.5330  174.0490  136.5070 C   0  0  1  0  0  3  0  0  0  0  0  0
  194.4360  170.9830  136.7850 C   0  0  0  0  0  2  0  0  0  0  0  0
  193.6510  170.1610  135.7570 C   0  0  0  0  0  2  0  0  0  0  0  0
  195.7830  172.8800  137.1470 C   0  0  0  0  0  2  0  0  0  0  0  0
  192.4420  172.3350  135.3880 C   0  0  0  0  0  2  0  0  0  0  0  0
  194.8980  175.4750  137.5710 O   0  0  0  0  0  0  0  0  0  0  0  0
  193.5610  175.3330  137.1710 C   0  0  2  0  0  3  0  0  0  0  0  0
  193.6140  173.1180  136.0040 C   0  0  1  0  0  3  0  0  0  0  0  0
  195.6560  175.2990  136.4050 C   0  0  0  0  0  2  0  0  0  0  0  0
  192.9210  171.0420  134.7380 C   0  0  0  0  0  2  0  0  0  0  0  0
  197.7620  174.3680  137.3000 C   0  0  0  0  0  3  0  0  0  0  0  0
  198.0990  175.5240  137.4820 O   0  0  0  0  0  0  0  0  0  0  0  0
  1 39  1  6  0  0  0
  3  6  1  0  0  0  0
  4  7  2  0  0  0  0
  5  3  2  0  0  0  0
  5  4  1  0  0  0  0
  6 10  1  0  0  0  0
  6  2  2  0  0  0  0
  7  2  1  0  0  0  0
  7  1  1  0  0  0  0
  8  5  1  0  0  0  0
  9  8  2  0  0  0  0
 11 10  1  0  0  0  0
 12 11  1  0  0  0  0
 13 12  1  1  0  0  0
 14 20  1  0  0  0  0
 15 13  1  0  0  0  0
 16 21  1  1  0  0  0
 16 18  1  0  0  0  0
 16 14  1  0  0  0  0
 18 25  1  1  0  0  0
 18 15  1  0  0  0  0
 19 17  1  0  0  0  0
 19 13  1  0  0  0  0
 20 17  1  0  0  0  0
 23 22  1  0  0  0  0
 23 21  1  0  0  0  0
 24 23  2  0  0  0  0
 28 26  1  6  0  0  0
 28 27  1  0  0  0  0
 28 25  1  0  0  0  0
 29 35  1  1  0  0  0
 30 31  1  6  0  0  0
 30 29  1  0  0  0  0
 32  1  1  6  0  0  0
 32 30  1  0  0  0  0
 32 29  1  0  0  0  0
 34 36  1  6  0  0  0
 34 33  1  0  0  0  0
 35 34  1  0  0  0  0
 35 33  1  1  0  0  0
 36 38  1  0  0  0  0
 37 38  1  0  0  0  0
 40 39  1  0  0  0  0
 40 42  2  0  0  0  0
 41 44  1  0  0  0  0
 44 43  1  0  0  0  0
 44 40  1  0  0  0  0
 45 41  2  0  0  0  0
 46 47  1  0  0  0  0
 46 41  1  0  0  0  0
 48 47  1  0  0  0  0
 49 48  1  0  0  0  0
 51 53  1  1  0  0  0
 51 55  1  0  0  0  0
 52 55  1  0  0  0  0
 52 62  1  1  0  0  0
 54 53  1  0  0  0  0
 58 50  1  0  0  0  0
 58 57  1  0  0  0  0
 58 49  1  1  0  0  0
 59 56  1  1  0  0  0
 59 51  1  0  0  0  0
 59 50  1  0  0  0  0
 60 52  1  0  0  0  0
 60 57  1  0  0  0  0
 61 56  1  0  0  0  0
 61 54  1  0  0  0  0
 62 63  2  0  0  0  0
M  END
>  <MODEL>
2

>  <REMARK>
 VINA RESULT:      -6.3      2.492      8.754
  Name = 
  22 active torsions:
  status: ('A' for Active; 'I' for Inactive)
    1  A    between atoms: C_1  and  C_50
    2  A    between atoms: C_2  and  N_8
    3  A    between atoms: C_4  and  C_17
    4  A    between atoms: C_4  and  C_54
    5  A    between atoms: C_6  and  C_43
    6  A    between atoms: C_7  and  C_31
    7  A    between atoms: N_8  and  C_59
    8  A    between atoms: C_12  and  C_48
    9  A    between atoms: C_14  and  C_46
   10  A    between atoms: C_14  and  C_61
   11  A    between atoms: C_16  and  C_40
   12  A    between atoms: C_19  and  C_42
   13  A    between atoms: C_24  and  C_27
   14  A    between atoms: C_24  and  C_38
   15  A    between atoms: C_27  and  N_53
   16  A    between atoms: C_33  and  C_51
   17  A    between atoms: C_33  and  C_59
   18  A    between atoms: C_35  and  C_42
   19  A    between atoms: C_43  and  N_53
   20  A    between atoms: C_50  and  C_60
   21  A    between atoms: C_55  and  C_60
   22  A    between atoms: C_58  and  C_60
                            x       y       z     vdW  Elec       q    Type
                         _______ _______ _______ _____ _____    ______ ____

>  <TORSDO>
F 22

$$$$
=
 OpenBabel10232411393D

 63 68  0  0  1  0  0  0  0  0999 V2000
  186.8140  176.2980  137.1480 C   0  0  2  0  0  3  0  0  0  0  0  0
  189.1650  176.0710  136.3260 C   0  0  0  0  0  3  0  0  0  0  0  0
  191.0630  176.6080  137.7300 C   0  0  0  0  0  3  0  0  0  0  0  0
  188.8180  176.8230  138.6000 C   0  0  0  0  0  3  0  0  0  0  0  0
  190.2050  176.9270  138.7850 C   0  0  0  0  0  0  0  0  0  0  0  0
  190.5490  176.1750  136.5030 C   0  0  0  0  0  0  0  0  0  0  0  0
  188.2950  176.3910  137.3720 C   0  0  0  0  0  0  0  0  0  0  0  0
  190.7810  177.3770  140.0580 C   0  0  0  0  0  3  0  0  0  0  0  0
  192.0900  177.4930  140.2550 C   0  0  0  0  0  2  0  0  0  0  0  0
  191.4800  175.8720  135.3760 C   0  0  0  0  0  2  0  0  0  0  0  0
  192.2490  174.5780  135.6220 C   0  0  0  0  0  2  0  0  0  0  0  0
  192.7340  174.0280  134.3650 N   0  0  0  0  0  2  0  0  0  0  0  0
  194.0270  173.4120  134.6170 C   0  0  1  0  0  3  0  0  0  0  0  0
  194.9470  171.1710  137.2990 C   0  0  0  0  0  2  0  0  0  0  0  0
  194.5060  173.7610  136.0290 C   0  0  0  0  0  2  0  0  0  0  0  0
  196.1470  171.8660  136.6280 C   0  0  2  0  0  3  0  0  0  0  0  0
  193.1420  171.2080  135.5000 C   0  0  0  0  0  2  0  0  0  0  0  0
  195.9590  173.3560  136.2750 C   0  0  2  0  0  3  0  0  0  0  0  0
  193.9200  171.9040  134.3900 C   0  0  0  0  0  2  0  0  0  0  0  0
  194.0740  170.3470  136.3440 C   0  0  0  0  0  2  0  0  0  0  0  0
  196.7940  171.0560  135.5050 C   0  0  0  0  0  2  0  0  0  0  0  0
  198.9700  170.3910  136.5970 N   0  0  0  0  0  1  0  0  0  0  0  0
  197.7090  170.0160  136.0510 C   0  0  0  0  0  0  0  0  0  0  0  0
  197.3680  168.8050  136.0380 O   0  0  0  0  0  0  0  0  0  0  0  0
  196.5160  174.2220  137.3970 C   0  0  0  0  0  2  0  0  0  0  0  0
  198.9920  173.9850  137.5470 C   0  0  0  0  0  1  0  0  0  0  0  0
  197.9460  174.9120  135.6270 O   0  0  0  0  0  1  0  0  0  0  0  0
  197.8540  174.8350  137.0150 C   0  0  1  0  0  3  0  0  0  0  0  0
  185.2090  174.7060  136.0810 C   0  0  1  0  0  3  0  0  0  0  0  0
  186.5190  173.9450  136.1540 C   0  0  2  0  0  3  0  0  0  0  0  0
  186.7880  173.6190  137.4870 O   0  0  0  0  0  1  0  0  0  0  0  0
  186.5140  175.4560  135.9070 C   0  0  2  0  0  3  0  0  0  0  0  0
  184.1240  173.1600  134.6090 O   0  0  0  0  0  0  0  0  0  0  0  0
  183.1220  174.1440  134.7160 C   0  0  2  0  0  3  0  0  0  0  0  0
  184.5770  174.4900  134.7110 C   0  0  1  0  0  3  0  0  0  0  0  0
  182.4680  174.0510  136.0890 C   0  0  0  0  0  2  0  0  0  0  0  0
  181.2500  175.8240  135.0780 O   0  0  0  0  0  1  0  0  0  0  0  0
  181.2030  174.8860  136.1050 C   0  0  0  0  0  2  0  0  0  0  0  0
  186.1750  177.6780  137.0030 C   0  0  0  0  0  2  0  0  0  0  0  0
  184.7100  177.6410  137.3110 C   0  0  0  0  0  0  0  0  0  0  0  0
  184.9980  178.3620  139.7350 C   0  0  0  0  0  0  0  0  0  0  0  0
  183.9080  177.3690  136.3780 O   0  0  0  0  0  0  0  0  0  0  0  0
  182.8660  177.7140  138.8400 O   0  0  0  0  0  1  0  0  0  0  0  0
  184.1940  177.8940  138.6340 N   0  0  0  0  0  0  0  0  0  0  0  0
  186.2370  178.5460  139.6090 O   0  0  0  0  0  0  0  0  0  0  0  0
  184.3610  178.6510  141.0540 C   0  0  0  0  0  2  0  0  0  0  0  0
  185.2220  179.5260  141.8300 N   0  0  0  0  0  2  0  0  0  0  0  0
  184.8670  179.3460  143.2270 C   0  0  0  0  0  2  0  0  0  0  0  0
  185.4680  178.0460  143.7290 C   0  0  0  0  0  2  0  0  0  0  0  0
  187.8930  177.6250  143.9660 C   0  0  0  0  0  2  0  0  0  0  0  0
  189.8990  177.5140  145.5210 N   0  0  2  0  0  0  0  0  0  0  0  0
  188.3390  177.8440  147.4200 C   0  0  1  0  0  3  0  0  0  0  0  0
  190.7290  176.4740  144.9130 C   0  0  0  0  0  2  0  0  0  0  0  0
  191.8870  177.0990  144.1280 C   0  0  0  0  0  2  0  0  0  0  0  0
  188.9960  176.8490  146.4610 C   0  0  0  0  0  2  0  0  0  0  0  0
  190.0810  178.6220  143.2630 C   0  0  0  0  0  2  0  0  0  0  0  0
  186.4630  177.8320  145.8980 O   0  0  0  0  0  0  0  0  0  0  0  0
  186.6840  178.3120  144.5970 C   0  0  2  0  0  3  0  0  0  0  0  0
  189.1850  178.2800  144.4650 C   0  0  1  0  0  3  0  0  0  0  0  0
  187.2340  178.6510  146.7330 C   0  0  0  0  0  2  0  0  0  0  0  0
  191.5580  178.5080  143.6240 C   0  0  0  0  0  2  0  0  0  0  0  0
  187.7660  177.1210  148.5980 C   0  0  0  0  0  3  0  0  0  0  0  0
  187.6560  177.6800  149.6760 O   0  0  0  0  0  0  0  0  0  0  0  0
  1 39  1  6  0  0  0
  1  7  1  0  0  0  0
  2  6  2  0  0  0  0
  2  7  1  0  0  0  0
  3  5  2  0  0  0  0
  4  5  1  0  0  0  0
  5  8  1  0  0  0  0
  6  3  1  0  0  0  0
  7  4  2  0  0  0  0
  8  9  2  0  0  0  0
 10 11  1  0  0  0  0
 10  6  1  0  0  0  0
 12 11  1  0  0  0  0
 13 12  1  1  0  0  0
 13 15  1  0  0  0  0
 15 18  1  0  0  0  0
 16 21  1  6  0  0  0
 16 14  1  0  0  0  0
 17 20  1  0  0  0  0
 18 16  1  0  0  0  0
 18 25  1  1  0  0  0
 19 13  1  0  0  0  0
 19 17  1  0  0  0  0
 20 14  1  0  0  0  0
 21 23  1  0  0  0  0
 23 22  1  0  0  0  0
 24 23  2  0  0  0  0
 27 28  1  0  0  0  0
 28 25  1  0  0  0  0
 28 26  1  6  0  0  0
 29 35  1  6  0  0  0
 29 30  1  0  0  0  0
 30 31  1  1  0  0  0
 32 29  1  0  0  0  0
 32 30  1  0  0  0  0
 32  1  1  1  0  0  0
 33 34  1  0  0  0  0
 34 36  1  1  0  0  0
 35 33  1  1  0  0  0
 35 34  1  0  0  0  0
 36 38  1  0  0  0  0
 37 38  1  0  0  0  0
 39 40  1  0  0  0  0
 40 44  1  0  0  0  0
 41 46  1  0  0  0  0
 42 40  2  0  0  0  0
 44 43  1  0  0  0  0
 44 41  1  0  0  0  0
 45 41  2  0  0  0  0
 46 47  1  0  0  0  0
 47 48  1  0  0  0  0
 48 49  1  0  0  0  0
 50 59  1  0  0  0  0
 50 58  1  0  0  0  0
 51 53  1  6  0  0  0
 51 55  1  0  0  0  0
 52 62  1  1  0  0  0
 54 53  1  0  0  0  0
 55 52  1  0  0  0  0
 56 61  1  0  0  0  0
 57 60  1  0  0  0  0
 58 49  1  6  0  0  0
 58 57  1  0  0  0  0
 59 56  1  6  0  0  0
 59 51  1  0  0  0  0
 60 52  1  0  0  0  0
 61 54  1  0  0  0  0
 62 63  2  0  0  0  0
M  END
>  <MODEL>
3

>  <REMARK>
 VINA RESULT:      -6.3      2.487      7.279
  Name = 
  22 active torsions:
  status: ('A' for Active; 'I' for Inactive)
    1  A    between atoms: C_1  and  C_50
    2  A    between atoms: C_2  and  N_8
    3  A    between atoms: C_4  and  C_17
    4  A    between atoms: C_4  and  C_54
    5  A    between atoms: C_6  and  C_43
    6  A    between atoms: C_7  and  C_31
    7  A    between atoms: N_8  and  C_59
    8  A    between atoms: C_12  and  C_48
    9  A    between atoms: C_14  and  C_46
   10  A    between atoms: C_14  and  C_61
   11  A    between atoms: C_16  and  C_40
   12  A    between atoms: C_19  and  C_42
   13  A    between atoms: C_24  and  C_27
   14  A    between atoms: C_24  and  C_38
   15  A    between atoms: C_27  and  N_53
   16  A    between atoms: C_33  and  C_51
   17  A    between atoms: C_33  and  C_59
   18  A    between atoms: C_35  and  C_42
   19  A    between atoms: C_43  and  N_53
   20  A    between atoms: C_50  and  C_60
   21  A    between atoms: C_55  and  C_60
   22  A    between atoms: C_58  and  C_60
                            x       y       z     vdW  Elec       q    Type
                         _______ _______ _______ _____ _____    ______ ____

>  <TORSDO>
F 22

$$$$
=
 OpenBabel10232411393D

 63 68  0  0  1  0  0  0  0  0999 V2000
  188.4530  177.4530  138.7360 C   0  0  2  0  0  3  0  0  0  0  0  0
  187.6140  177.6310  141.0850 C   0  0  0  0  0  3  0  0  0  0  0  0
  189.1260  177.7530  142.9720 C   0  0  0  0  0  3  0  0  0  0  0  0
  190.0070  177.6120  140.7250 C   0  0  0  0  0  3  0  0  0  0  0  0
  190.2230  177.7070  142.1080 C   0  0  0  0  0  0  0  0  0  0  0  0
  187.8230  177.7210  142.4660 C   0  0  0  0  0  0  0  0  0  0  0  0
  188.7030  177.5780  140.2100 C   0  0  0  0  0  0  0  0  0  0  0  0
  191.5770  177.7430  142.6760 C   0  0  0  0  0  3  0  0  0  0  0  0
  191.8140  177.6390  143.9790 C   0  0  0  0  0  2  0  0  0  0  0  0
  186.6630  177.7380  143.4060 C   0  0  0  0  0  2  0  0  0  0  0  0
  185.6370  178.7930  143.0060 C   0  0  0  0  0  2  0  0  0  0  0  0
  184.2870  178.2810  143.1810 N   0  0  0  0  0  2  0  0  0  0  0  0
  183.4440  178.8870  142.1610 C   0  0  1  0  0  3  0  0  0  0  0  0
  180.2760  177.7020  140.8900 C   0  0  0  0  0  2  0  0  0  0  0  0
  183.1850  177.8830  141.0350 C   0  0  0  0  0  2  0  0  0  0  0  0
  180.9900  178.6960  139.9550 C   0  0  2  0  0  3  0  0  0  0  0  0
  181.2190  178.2520  143.1930 C   0  0  0  0  0  2  0  0  0  0  0  0
  182.5170  178.5220  139.8180 C   0  0  2  0  0  3  0  0  0  0  0  0
  182.1540  179.3910  142.8060 C   0  0  0  0  0  2  0  0  0  0  0  0
  179.9880  178.2460  142.2950 C   0  0  0  0  0  2  0  0  0  0  0  0
  180.5620  180.1510  140.1400 C   0  0  0  0  0  2  0  0  0  0  0  0
  179.9830  182.1880  138.7670 N   0  0  0  0  0  1  0  0  0  0  0  0
  180.2550  180.7920  138.8310 C   0  0  0  0  0  0  0  0  0  0  0  0
  180.2430  180.1020  137.7790 O   0  0  0  0  0  0  0  0  0  0  0  0
  182.8270  177.6690  138.5950 C   0  0  0  0  0  2  0  0  0  0  0  0
  181.2620  176.7630  136.8810 C   0  0  0  0  0  1  0  0  0  0  0  0
  182.1980  175.3760  138.5660 O   0  0  0  0  0  1  0  0  0  0  0  0
  181.7210  176.6630  138.3230 C   0  0  1  0  0  3  0  0  0  0  0  0
  186.7170  176.9950  136.9950 C   0  0  1  0  0  3  0  0  0  0  0  0
  186.3840  178.3780  137.5210 C   0  0  2  0  0  3  0  0  0  0  0  0
  187.3550  179.2830  137.0830 O   0  0  0  0  0  1  0  0  0  0  0  0
  186.9560  177.3100  138.4590 C   0  0  2  0  0  3  0  0  0  0  0  0
  185.1390  175.9870  135.5040 O   0  0  0  0  0  0  0  0  0  0  0  0
  185.5770  174.8470  136.2070 C   0  0  2  0  0  3  0  0  0  0  0  0
  185.4350  176.1810  136.8680 C   0  0  1  0  0  3  0  0  0  0  0  0
  186.9840  174.4810  135.7490 C   0  0  0  0  0  2  0  0  0  0  0  0
  186.7990  172.7350  137.3510 O   0  0  0  0  0  1  0  0  0  0  0  0
  187.2570  173.0250  136.0690 C   0  0  0  0  0  2  0  0  0  0  0  0
  189.2050  176.2670  138.1330 C   0  0  0  0  0  2  0  0  0  0  0  0
  190.2850  176.7180  137.1980 C   0  0  0  0  0  0  0  0  0  0  0  0
  191.4330  174.4490  137.1100 C   0  0  0  0  0  0  0  0  0  0  0  0
  190.2430  177.8990  136.7590 O   0  0  0  0  0  0  0  0  0  0  0  0
  192.3620  176.3920  136.0490 O   0  0  0  0  0  1  0  0  0  0  0  0
  191.3670  175.8540  136.7970 N   0  0  0  0  0  0  0  0  0  0  0  0
  190.5430  173.8900  137.8030 O   0  0  0  0  0  0  0  0  0  0  0  0
  192.5680  173.6230  136.6000 C   0  0  0  0  0  2  0  0  0  0  0  0
  192.1160  172.8070  135.4870 N   0  0  0  0  0  2  0  0  0  0  0  0
  192.9040  171.5870  135.5030 C   0  0  0  0  0  2  0  0  0  0  0  0
  194.0240  171.7320  136.5170 C   0  0  0  0  0  2  0  0  0  0  0  0
  196.3710  170.9690  136.6610 C   0  0  0  0  0  2  0  0  0  0  0  0
  198.7850  171.3420  135.9600 N   0  0  2  0  0  0  0  0  0  0  0  0
  198.0590  173.4620  134.8960 C   0  0  1  0  0  3  0  0  0  0  0  0
  199.5410  170.8640  137.1170 C   0  0  0  0  0  2  0  0  0  0  0  0
  200.1070  169.4650  136.8510 C   0  0  0  0  0  2  0  0  0  0  0  0
  198.5140  172.7630  136.1790 C   0  0  0  0  0  2  0  0  0  0  0  0
  197.7920  169.0240  135.9720 C   0  0  0  0  0  2  0  0  0  0  0  0
  195.8050  173.1020  135.6860 O   0  0  0  0  0  0  0  0  0  0  0  0
  195.3750  171.7730  135.8280 C   0  0  2  0  0  3  0  0  0  0  0  0
  197.5500  170.5310  135.7860 C   0  0  1  0  0  3  0  0  0  0  0  0
  196.6130  173.1110  134.5410 C   0  0  0  0  0  2  0  0  0  0  0  0
  199.2710  168.6800  135.8350 C   0  0  0  0  0  2  0  0  0  0  0  0
  198.1900  174.9450  135.0440 C   0  0  0  0  0  3  0  0  0  0  0  0
  198.5580  175.4330  136.0990 O   0  0  0  0  0  0  0  0  0  0  0  0
  1 39  1  1  0  0  0
  1  7  1  0  0  0  0
  2  6  1  0  0  0  0
  4  5  2  0  0  0  0
  5  8  1  0  0  0  0
  5  3  1  0  0  0  0
  6  3  2  0  0  0  0
  6 10  1  0  0  0  0
  7  4  1  0  0  0  0
  7  2  2  0  0  0  0
  8  9  2  0  0  0  0
 11 12  1  0  0  0  0
 11 10  1  0  0  0  0
 13 19  1  0  0  0  0
 13 12  1  1  0  0  0
 14 20  1  0  0  0  0
 15 13  1  0  0  0  0
 16 21  1  1  0  0  0
 16 14  1  0  0  0  0
 18 25  1  6  0  0  0
 18 16  1  0  0  0  0
 18 15  1  0  0  0  0
 19 17  1  0  0  0  0
 20 17  1  0  0  0  0
 22 23  1  0  0  0  0
 23 21  1  0  0  0  0
 24 23  2  0  0  0  0
 28 26  1  6  0  0  0
 28 27  1  0  0  0  0
 28 25  1  0  0  0  0
 29 35  1  1  0  0  0
 29 30  1  0  0  0  0
 29 32  1  0  0  0  0
 30 31  1  6  0  0  0
 30 32  1  0  0  0  0
 32  1  1  6  0  0  0
 33 34  1  0  0  0  0
 34 36  1  6  0  0  0
 34 35  1  0  0  0  0
 35 33  1  6  0  0  0
 36 38  1  0  0  0  0
 38 37  1  0  0  0  0
 40 39  1  0  0  0  0
 41 45  2  0  0  0  0
 42 40  2  0  0  0  0
 43 44  1  0  0  0  0
 44 41  1  0  0  0  0
 44 40  1  0  0  0  0
 46 41  1  0  0  0  0
 47 48  1  0  0  0  0
 47 46  1  0  0  0  0
 48 49  1  0  0  0  0
 51 55  1  1  0  0  0
 51 53  1  0  0  0  0
 52 62  1  1  0  0  0
 52 55  1  0  0  0  0
 54 53  1  0  0  0  0
 57 58  1  0  0  0  0
 58 49  1  1  0  0  0
 58 50  1  0  0  0  0
 59 51  1  0  0  0  0
 59 56  1  1  0  0  0
 59 50  1  0  0  0  0
 60 52  1  0  0  0  0
 60 57  1  0  0  0  0
 61 56  1  0  0  0  0
 61 54  1  0  0  0  0
 62 63  2  0  0  0  0
M  END
>  <MODEL>
4

>  <REMARK>
 VINA RESULT:      -6.2      2.772     11.011
  Name = 
  22 active torsions:
  status: ('A' for Active; 'I' for Inactive)
    1  A    between atoms: C_1  and  C_50
    2  A    between atoms: C_2  and  N_8
    3  A    between atoms: C_4  and  C_17
    4  A    between atoms: C_4  and  C_54
    5  A    between atoms: C_6  and  C_43
    6  A    between atoms: C_7  and  C_31
    7  A    between atoms: N_8  and  C_59
    8  A    between atoms: C_12  and  C_48
    9  A    between atoms: C_14  and  C_46
   10  A    between atoms: C_14  and  C_61
   11  A    between atoms: C_16  and  C_40
   12  A    between atoms: C_19  and  C_42
   13  A    between atoms: C_24  and  C_27
   14  A    between atoms: C_24  and  C_38
   15  A    between atoms: C_27  and  N_53
   16  A    between atoms: C_33  and  C_51
   17  A    between atoms: C_33  and  C_59
   18  A    between atoms: C_35  and  C_42
   19  A    between atoms: C_43  and  N_53
   20  A    between atoms: C_50  and  C_60
   21  A    between atoms: C_55  and  C_60
   22  A    between atoms: C_58  and  C_60
                            x       y       z     vdW  Elec       q    Type
                         _______ _______ _______ _____ _____    ______ ____

>  <TORSDO>
F 22

$$$$
=
 OpenBabel10232411393D

 63 68  0  0  1  0  0  0  0  0999 V2000
  188.3090  176.8520  143.5680 C   0  0  2  0  0  3  0  0  0  0  0  0
  186.2190  177.7940  142.5690 C   0  0  0  0  0  3  0  0  0  0  0  0
  186.1820  178.7250  140.3340 C   0  0  0  0  0  3  0  0  0  0  0  0
  188.2320  177.8040  141.2260 C   0  0  0  0  0  3  0  0  0  0  0  0
  187.5360  178.4190  140.1740 C   0  0  0  0  0  0  0  0  0  0  0  0
  185.5200  178.4100  141.5250 C   0  0  0  0  0  0  0  0  0  0  0  0
  187.5750  177.4870  142.4240 C   0  0  0  0  0  0  0  0  0  0  0  0
  188.1980  178.7640  138.9100 C   0  0  0  0  0  3  0  0  0  0  0  0
  187.5980  178.6540  137.7290 C   0  0  0  0  0  2  0  0  0  0  0  0
  184.0810  178.7750  141.6910 C   0  0  0  0  0  2  0  0  0  0  0  0
  183.3340  178.7140  140.3630 C   0  0  0  0  0  2  0  0  0  0  0  0
  182.8390  177.3670  140.1210 N   0  0  0  0  0  2  0  0  0  0  0  0
  183.4200  176.8970  138.8730 C   0  0  1  0  0  3  0  0  0  0  0  0
  181.7820  176.4220  135.6870 C   0  0  0  0  0  2  0  0  0  0  0  0
  182.6540  175.6710  138.3690 C   0  0  0  0  0  2  0  0  0  0  0  0
  183.1030  175.6420  135.8310 C   0  0  2  0  0  3  0  0  0  0  0  0
  182.0360  178.3540  137.3290 C   0  0  0  0  0  2  0  0  0  0  0  0
  183.3530  174.9780  137.2000 C   0  0  2  0  0  3  0  0  0  0  0  0
  183.4310  178.0400  137.8590 C   0  0  0  0  0  2  0  0  0  0  0  0
  181.9160  177.9390  135.8680 C   0  0  0  0  0  2  0  0  0  0  0  0
  184.3270  176.3740  135.2820 C   0  0  0  0  0  2  0  0  0  0  0  0
  186.5390  175.6060  136.2240 N   0  0  0  0  0  1  0  0  0  0  0  0
  185.5150  175.4770  135.2420 C   0  0  0  0  0  0  0  0  0  0  0  0
  185.6140  174.5990  134.3460 O   0  0  0  0  0  0  0  0  0  0  0  0
  182.8930  173.5270  137.1570 C   0  0  0  0  0  2  0  0  0  0  0  0
  184.5670  171.9980  136.1220 C   0  0  0  0  0  1  0  0  0  0  0  0
  185.0710  173.2540  138.0740 O   0  0  0  0  0  1  0  0  0  0  0  0
  184.0440  172.5700  137.4260 C   0  0  1  0  0  3  0  0  0  0  0  0
  188.7560  177.1770  146.0070 C   0  0  1  0  0  3  0  0  0  0  0  0
  187.4640  177.9250  145.7460 C   0  0  2  0  0  3  0  0  0  0  0  0
  186.4380  177.0040  145.5090 O   0  0  0  0  0  1  0  0  0  0  0  0
  188.5580  177.8760  144.6760 C   0  0  2  0  0  3  0  0  0  0  0  0
  189.6260  177.5490  148.2060 O   0  0  0  0  0  0  0  0  0  0  0  0
  190.8240  177.3170  147.5030 C   0  0  2  0  0  3  0  0  0  0  0  0
  189.6660  178.0310  146.8830 C   0  0  1  0  0  3  0  0  0  0  0  0
  190.9390  175.8320  147.1770 C   0  0  0  0  0  2  0  0  0  0  0  0
  192.5810  174.7490  145.8440 O   0  0  0  0  0  1  0  0  0  0  0  0
  192.4000  175.4590  147.0270 C   0  0  0  0  0  2  0  0  0  0  0  0
  189.6370  176.2430  143.1200 C   0  0  0  0  0  2  0  0  0  0  0  0
  190.6450  177.3010  142.7920 C   0  0  0  0  0  0  0  0  0  0  0  0
  190.7960  176.6740  140.3300 C   0  0  0  0  0  0  0  0  0  0  0  0
  190.9940  178.0990  143.7030 O   0  0  0  0  0  0  0  0  0  0  0  0
  192.2240  178.3340  141.3150 O   0  0  0  0  0  1  0  0  0  0  0  0
  191.2310  177.4270  141.4800 N   0  0  0  0  0  0  0  0  0  0  0  0
  189.8810  175.8140  140.4180 O   0  0  0  0  0  0  0  0  0  0  0  0
  191.4270  176.9160  138.9980 C   0  0  0  0  0  2  0  0  0  0  0  0
  192.5620  176.0260  138.8280 N   0  0  0  0  0  2  0  0  0  0  0  0
  193.3430  176.5370  137.7150 C   0  0  0  0  0  2  0  0  0  0  0  0
  193.1090  175.6600  136.4990 C   0  0  0  0  0  2  0  0  0  0  0  0
  193.7830  173.3000  136.7960 C   0  0  0  0  0  2  0  0  0  0  0  0
  195.6890  171.6400  137.0570 N   0  0  2  0  0  0  0  0  0  0  0  0
  197.2400  173.5700  137.1810 C   0  0  1  0  0  3  0  0  0  0  0  0
  195.1090  170.6050  137.9120 C   0  0  0  0  0  2  0  0  0  0  0  0
  194.7010  169.3840  137.0800 C   0  0  0  0  0  2  0  0  0  0  0  0
  196.2930  172.6390  137.9390 C   0  0  0  0  0  2  0  0  0  0  0  0
  193.7350  171.1290  135.5470 C   0  0  0  0  0  2  0  0  0  0  0  0
  195.3730  175.0970  137.0390 O   0  0  0  0  0  0  0  0  0  0  0  0
  194.2470  174.6730  136.3160 C   0  0  2  0  0  3  0  0  0  0  0  0
  194.6450  172.2060  136.1600 C   0  0  1  0  0  3  0  0  0  0  0  0
  196.4770  174.5930  136.3370 C   0  0  0  0  0  2  0  0  0  0  0  0
  194.3780  169.7490  135.6270 C   0  0  0  0  0  2  0  0  0  0  0  0
  198.1350  174.2880  138.1430 C   0  0  0  0  0  3  0  0  0  0  0  0
  198.2800  175.4960  138.0710 O   0  0  0  0  0  0  0  0  0  0  0  0
  1 39  1  6  0  0  0
  3  6  1  0  0  0  0
  4  7  2  0  0  0  0
  5  3  2  0  0  0  0
  5  4  1  0  0  0  0
  6 10  1  0  0  0  0
  6  2  2  0  0  0  0
  7  2  1  0  0  0  0
  7  1  1  0  0  0  0
  8  5  1  0  0  0  0
  9  8  2  0  0  0  0
 11 10  1  0  0  0  0
 12 11  1  0  0  0  0
 13 12  1  1  0  0  0
 14 16  1  0  0  0  0
 14 20  1  0  0  0  0
 15 13  1  0  0  0  0
 16 21  1  1  0  0  0
 16 18  1  0  0  0  0
 17 19  1  0  0  0  0
 18 25  1  6  0  0  0
 18 15  1  0  0  0  0
 19 13  1  0  0  0  0
 20 17  1  0  0  0  0
 23 21  1  0  0  0  0
 23 22  1  0  0  0  0
 24 23  2  0  0  0  0
 25 28  1  0  0  0  0
 28 26  1  6  0  0  0
 28 27  1  0  0  0  0
 29 35  1  1  0  0  0
 30 31  1  6  0  0  0
 30 29  1  0  0  0  0
 32  1  1  6  0  0  0
 32 30  1  0  0  0  0
 32 29  1  0  0  0  0
 34 36  1  6  0  0  0
 34 33  1  0  0  0  0
 35 34  1  0  0  0  0
 35 33  1  1  0  0  0
 37 38  1  0  0  0  0
 38 36  1  0  0  0  0
 40 39  1  0  0  0  0
 40 42  2  0  0  0  0
 41 45  2  0  0  0  0
 41 44  1  0  0  0  0
 43 44  1  0  0  0  0
 44 40  1  0  0  0  0
 46 41  1  0  0  0  0
 47 46  1  0  0  0  0
 48 47  1  0  0  0  0
 49 48  1  0  0  0  0
 51 53  1  1  0  0  0
 51 55  1  0  0  0  0
 52 55  1  0  0  0  0
 52 62  1  1  0  0  0
 54 53  1  0  0  0  0
 56 61  1  0  0  0  0
 58 49  1  1  0  0  0
 58 50  1  0  0  0  0
 58 57  1  0  0  0  0
 59 56  1  1  0  0  0
 59 50  1  0  0  0  0
 59 51  1  0  0  0  0
 60 57  1  0  0  0  0
 60 52  1  0  0  0  0
 61 54  1  0  0  0  0
 63 62  2  0  0  0  0
M  END
>  <MODEL>
5

>  <REMARK>
 VINA RESULT:      -5.6      2.399      8.623
  Name = 
  22 active torsions:
  status: ('A' for Active; 'I' for Inactive)
    1  A    between atoms: C_1  and  C_50
    2  A    between atoms: C_2  and  N_8
    3  A    between atoms: C_4  and  C_17
    4  A    between atoms: C_4  and  C_54
    5  A    between atoms: C_6  and  C_43
    6  A    between atoms: C_7  and  C_31
    7  A    between atoms: N_8  and  C_59
    8  A    between atoms: C_12  and  C_48
    9  A    between atoms: C_14  and  C_46
   10  A    between atoms: C_14  and  C_61
   11  A    between atoms: C_16  and  C_40
   12  A    between atoms: C_19  and  C_42
   13  A    between atoms: C_24  and  C_27
   14  A    between atoms: C_24  and  C_38
   15  A    between atoms: C_27  and  N_53
   16  A    between atoms: C_33  and  C_51
   17  A    between atoms: C_33  and  C_59
   18  A    between atoms: C_35  and  C_42
   19  A    between atoms: C_43  and  N_53
   20  A    between atoms: C_50  and  C_60
   21  A    between atoms: C_55  and  C_60
   22  A    between atoms: C_58  and  C_60
                            x       y       z     vdW  Elec       q    Type
                         _______ _______ _______ _____ _____    ______ ____

>  <TORSDO>
F 22

$$$$
=
 OpenBabel10232411393D

 63 68  0  0  1  0  0  0  0  0999 V2000
  184.9750  177.6720  140.3020 C   0  0  2  0  0  3  0  0  0  0  0  0
  184.4540  178.4570  142.6190 C   0  0  0  0  0  3  0  0  0  0  0  0
  182.2370  179.2020  143.2430 C   0  0  0  0  0  3  0  0  0  0  0  0
  182.6620  178.4280  140.9930 C   0  0  0  0  0  3  0  0  0  0  0  0
  181.7720  178.9300  141.9540 C   0  0  0  0  0  0  0  0  0  0  0  0
  183.5720  178.9620  143.5810 C   0  0  0  0  0  0  0  0  0  0  0  0
  184.0040  178.1860  141.3240 C   0  0  0  0  0  0  0  0  0  0  0  0
  180.3630  179.1950  141.6360 C   0  0  0  0  0  3  0  0  0  0  0  0
  179.9820  179.8530  140.5460 C   0  0  0  0  0  2  0  0  0  0  0  0
  184.0590  179.2900  144.9540 C   0  0  0  0  0  2  0  0  0  0  0  0
  185.4840  178.7920  145.1730 C   0  0  0  0  0  2  0  0  0  0  0  0
  185.4930  177.6660  146.0940 N   0  0  0  0  0  2  0  0  0  0  0  0
  186.8510  177.1480  146.1500 C   0  0  1  0  0  3  0  0  0  0  0  0
  189.8060  178.7670  147.4560 C   0  0  0  0  0  2  0  0  0  0  0  0
  187.8070  178.1060  145.4350 C   0  0  0  0  0  2  0  0  0  0  0  0
  190.1080  177.6090  146.4860 C   0  0  2  0  0  3  0  0  0  0  0  0
  187.4880  178.2140  148.3590 C   0  0  0  0  0  2  0  0  0  0  0  0
  189.2020  177.5130  145.2410 C   0  0  2  0  0  3  0  0  0  0  0  0
  187.2400  176.9100  147.6090 C   0  0  0  0  0  2  0  0  0  0  0  0
  188.9690  178.3710  148.6790 C   0  0  0  0  0  2  0  0  0  0  0  0
  190.3400  176.2610  147.1690 C   0  0  0  0  0  2  0  0  0  0  0  0
  192.6600  176.1240  148.1530 N   0  0  0  0  0  1  0  0  0  0  0  0
  191.7690  175.8510  147.0760 C   0  0  0  0  0  0  0  0  0  0  0  0
  192.1890  175.2570  146.0500 O   0  0  0  0  0  0  0  0  0  0  0  0
  189.8670  178.2210  144.0690 C   0  0  0  0  0  2  0  0  0  0  0  0
  191.8450  177.2490  142.9050 C   0  0  0  0  0  1  0  0  0  0  0  0
  191.9810  179.3110  144.0760 O   0  0  0  0  0  1  0  0  0  0  0  0
  191.3780  178.0550  144.1020 C   0  0  1  0  0  3  0  0  0  0  0  0
  187.2450  178.1210  139.3540 C   0  0  1  0  0  3  0  0  0  0  0  0
  187.2980  178.6720  140.7650 C   0  0  2  0  0  3  0  0  0  0  0  0
  187.2990  177.6100  141.6750 O   0  0  0  0  0  1  0  0  0  0  0  0
  186.0030  178.7500  139.9530 C   0  0  2  0  0  3  0  0  0  0  0  0
  189.2930  179.0290  138.5110 O   0  0  0  0  0  0  0  0  0  0  0  0
  188.7380  178.5220  137.3190 C   0  0  2  0  0  3  0  0  0  0  0  0
  187.8920  179.1170  138.3990 C   0  0  1  0  0  3  0  0  0  0  0  0
  188.8430  177.0020  137.3200 C   0  0  0  0  0  2  0  0  0  0  0  0
  189.6250  176.8080  135.0840 O   0  0  0  0  0  1  0  0  0  0  0  0
  189.9760  176.5720  136.4100 C   0  0  0  0  0  2  0  0  0  0  0  0
  184.2670  177.2030  139.0320 C   0  0  0  0  0  2  0  0  0  0  0  0
  183.4720  178.3080  138.4060 C   0  0  0  0  0  0  0  0  0  0  0  0
  181.9440  176.7420  137.1060 C   0  0  0  0  0  0  0  0  0  0  0  0
  183.7350  179.4960  138.7340 O   0  0  0  0  0  0  0  0  0  0  0  0
  181.8570  179.1270  136.8370 O   0  0  0  0  0  1  0  0  0  0  0  0
  182.4330  178.0570  137.4390 N   0  0  0  0  0  0  0  0  0  0  0  0
  182.4390  175.7080  137.6270 O   0  0  0  0  0  0  0  0  0  0  0  0
  180.8220  176.5870  136.1320 C   0  0  0  0  0  2  0  0  0  0  0  0
  180.1050  175.3550  136.4080 N   0  0  0  0  0  2  0  0  0  0  0  0
  179.9820  174.6410  135.1490 C   0  0  0  0  0  2  0  0  0  0  0  0
  181.3660  174.4080  134.5730 C   0  0  0  0  0  2  0  0  0  0  0  0
  183.6150  173.5580  135.1530 C   0  0  0  0  0  2  0  0  0  0  0  0
  185.0100  171.6050  135.9860 N   0  0  2  0  0  0  0  0  0  0  0  0
  182.9660  170.2050  135.8700 C   0  0  1  0  0  3  0  0  0  0  0  0
  186.2860  171.7950  135.2960 C   0  0  0  0  0  2  0  0  0  0  0  0
  187.3240  172.4110  136.2410 C   0  0  0  0  0  2  0  0  0  0  0  0
  184.1700  170.7770  135.1190 C   0  0  0  0  0  2  0  0  0  0  0  0
  185.4210  173.9390  136.8470 C   0  0  0  0  0  2  0  0  0  0  0  0
  181.7210  172.0740  134.9790 O   0  0  0  0  0  0  0  0  0  0  0  0
  182.1170  173.3610  135.3750 C   0  0  2  0  0  3  0  0  0  0  0  0
  184.4010  172.9240  136.3050 C   0  0  1  0  0  3  0  0  0  0  0  0
  181.8910  171.2670  136.1120 C   0  0  0  0  0  2  0  0  0  0  0  0
  186.6790  173.2430  137.3530 C   0  0  0  0  0  2  0  0  0  0  0  0
  182.3760  169.0650  135.1020 C   0  0  0  0  0  3  0  0  0  0  0  0
  183.0160  168.0440  134.9190 O   0  0  0  0  0  0  0  0  0  0  0  0
  1 39  1  6  0  0  0
  1  7  1  0  0  0  0
  2  6  1  0  0  0  0
  3  6  2  0  0  0  0
  4  7  1  0  0  0  0
  4  5  2  0  0  0  0
  5  3  1  0  0  0  0
  6 10  1  0  0  0  0
  7  2  2  0  0  0  0
  8  5  1  0  0  0  0
  9  8  2  0  0  0  0
 10 11  1  0  0  0  0
 11 12  1  0  0  0  0
 13 12  1  1  0  0  0
 13 19  1  0  0  0  0
 14 20  1  0  0  0  0
 15 13  1  0  0  0  0
 16 21  1  1  0  0  0
 16 14  1  0  0  0  0
 17 20  1  0  0  0  0
 18 25  1  6  0  0  0
 18 15  1  0  0  0  0
 18 16  1  0  0  0  0
 19 17  1  0  0  0  0
 23 21  1  0  0  0  0
 23 22  1  0  0  0  0
 24 23  2  0  0  0  0
 25 28  1  0  0  0  0
 27 28  1  0  0  0  0
 28 26  1  6  0  0  0
 29 35  1  6  0  0  0
 29 32  1  0  0  0  0
 29 30  1  0  0  0  0
 30 31  1  1  0  0  0
 32  1  1  1  0  0  0
 32 30  1  0  0  0  0
 34 36  1  1  0  0  0
 34 35  1  0  0  0  0
 34 33  1  0  0  0  0
 35 33  1  1  0  0  0
 37 38  1  0  0  0  0
 38 36  1  0  0  0  0
 40 42  2  0  0  0  0
 40 39  1  0  0  0  0
 41 44  1  0  0  0  0
 41 45  2  0  0  0  0
 43 44  1  0  0  0  0
 44 40  1  0  0  0  0
 46 47  1  0  0  0  0
 46 41  1  0  0  0  0
 48 47  1  0  0  0  0
 49 48  1  0  0  0  0
 50 58  1  0  0  0  0
 51 55  1  6  0  0  0
 51 59  1  0  0  0  0
 52 62  1  6  0  0  0
 52 60  1  0  0  0  0
 53 51  1  0  0  0  0
 53 54  1  0  0  0  0
 54 61  1  0  0  0  0
 55 52  1  0  0  0  0
 56 61  1  0  0  0  0
 57 58  1  0  0  0  0
 57 60  1  0  0  0  0
 58 49  1  6  0  0  0
 59 50  1  6  0  0  0
 59 56  1  0  0  0  0
 63 62  2  0  0  0  0
M  END
>  <MODEL>
6

>  <REMARK>
 VINA RESULT:      -5.5      3.746      8.614
  Name = 
  22 active torsions:
  status: ('A' for Active; 'I' for Inactive)
    1  A    between atoms: C_1  and  C_50
    2  A    between atoms: C_2  and  N_8
    3  A    between atoms: C_4  and  C_17
    4  A    between atoms: C_4  and  C_54
    5  A    between atoms: C_6  and  C_43
    6  A    between atoms: C_7  and  C_31
    7  A    between atoms: N_8  and  C_59
    8  A    between atoms: C_12  and  C_48
    9  A    between atoms: C_14  and  C_46
   10  A    between atoms: C_14  and  C_61
   11  A    between atoms: C_16  and  C_40
   12  A    between atoms: C_19  and  C_42
   13  A    between atoms: C_24  and  C_27
   14  A    between atoms: C_24  and  C_38
   15  A    between atoms: C_27  and  N_53
   16  A    between atoms: C_33  and  C_51
   17  A    between atoms: C_33  and  C_59
   18  A    between atoms: C_35  and  C_42
   19  A    between atoms: C_43  and  N_53
   20  A    between atoms: C_50  and  C_60
   21  A    between atoms: C_55  and  C_60
   22  A    between atoms: C_58  and  C_60
                            x       y       z     vdW  Elec       q    Type
                         _______ _______ _______ _____ _____    ______ ____

>  <TORSDO>
F 22

$$$$
=
 OpenBabel10232411393D

 63 68  0  0  1  0  0  0  0  0999 V2000
  186.6830  178.0770  138.4050 C   0  0  2  0  0  3  0  0  0  0  0  0
  188.2610  178.2600  140.3360 C   0  0  0  0  0  3  0  0  0  0  0  0
  190.4070  177.1380  140.3380 C   0  0  0  0  0  3  0  0  0  0  0  0
  188.9430  176.9410  138.4250 C   0  0  0  0  0  3  0  0  0  0  0  0
  190.1550  176.6330  139.0600 C   0  0  0  0  0  0  0  0  0  0  0  0
  189.4670  177.9540  140.9760 C   0  0  0  0  0  0  0  0  0  0  0  0
  187.9950  177.7580  139.0590 C   0  0  0  0  0  0  0  0  0  0  0  0
  191.1650  175.7800  138.4220 C   0  0  0  0  0  3  0  0  0  0  0  0
  191.9050  176.1850  137.3960 C   0  0  0  0  0  2  0  0  0  0  0  0
  189.7380  178.4570  142.3560 C   0  0  0  0  0  2  0  0  0  0  0  0
  191.1140  178.0210  142.8470 C   0  0  0  0  0  2  0  0  0  0  0  0
  191.0020  177.3150  144.1150 N   0  0  0  0  0  2  0  0  0  0  0  0
  189.8830  177.8890  144.8460 C   0  0  1  0  0  3  0  0  0  0  0  0
  187.7620  176.2900  147.2960 C   0  0  0  0  0  2  0  0  0  0  0  0
  188.6220  177.0530  144.6140 C   0  0  0  0  0  2  0  0  0  0  0  0
  187.1440  177.5520  146.6660 C   0  0  2  0  0  3  0  0  0  0  0  0
  190.2710  176.6390  147.0160 C   0  0  0  0  0  2  0  0  0  0  0  0
  187.3600  177.7280  145.1490 C   0  0  2  0  0  3  0  0  0  0  0  0
  190.2510  177.9980  146.3260 C   0  0  0  0  0  2  0  0  0  0  0  0
  189.1080  176.5220  147.9940 C   0  0  0  0  0  2  0  0  0  0  0  0
  187.3820  178.8340  147.4630 C   0  0  0  0  0  2  0  0  0  0  0  0
  185.2040  179.5570  146.4130 N   0  0  0  0  0  1  0  0  0  0  0  0
  186.1800  179.7130  147.4380 C   0  0  0  0  0  0  0  0  0  0  0  0
  186.0220  180.5900  148.3260 O   0  0  0  0  0  0  0  0  0  0  0  0
  186.1600  177.1730  144.3930 C   0  0  0  0  0  2  0  0  0  0  0  0
  184.2510  178.0630  143.0620 C   0  0  0  0  0  1  0  0  0  0  0  0
  186.1700  179.3850  143.5190 O   0  0  0  0  0  1  0  0  0  0  0  0
  185.7570  178.0830  143.2430 C   0  0  1  0  0  3  0  0  0  0  0  0
  184.1980  177.9090  138.6230 C   0  0  1  0  0  3  0  0  0  0  0  0
  184.6140  178.9110  139.6830 C   0  0  2  0  0  3  0  0  0  0  0  0
  185.0170  180.0970  139.0620 O   0  0  0  0  0  1  0  0  0  0  0  0
  185.5220  177.7280  139.3380 C   0  0  2  0  0  3  0  0  0  0  0  0
  181.8790  177.4090  138.9470 O   0  0  0  0  0  0  0  0  0  0  0  0
  182.2810  176.2640  138.2320 C   0  0  2  0  0  3  0  0  0  0  0  0
  183.1810  176.9410  139.2160 C   0  0  1  0  0  3  0  0  0  0  0  0
  182.5010  176.6330  136.7690 C   0  0  0  0  0  2  0  0  0  0  0  0
  183.9810  174.7890  137.0110 O   0  0  0  0  0  1  0  0  0  0  0  0
  183.2550  175.5180  136.0740 C   0  0  0  0  0  2  0  0  0  0  0  0
  186.5180  177.3390  137.0760 C   0  0  0  0  0  2  0  0  0  0  0  0
  187.3650  177.9470  136.0010 C   0  0  0  0  0  0  0  0  0  0  0  0
  188.3560  175.7270  135.2500 C   0  0  0  0  0  0  0  0  0  0  0  0
  187.2740  179.1880  135.7950 O   0  0  0  0  0  0  0  0  0  0  0  0
  189.0940  177.8260  134.3470 O   0  0  0  0  0  1  0  0  0  0  0  0
  188.2820  177.1660  135.2080 N   0  0  0  0  0  0  0  0  0  0  0  0
  187.6310  175.0560  136.0310 O   0  0  0  0  0  0  0  0  0  0  0  0
  189.3000  175.0020  134.3470 C   0  0  0  0  0  2  0  0  0  0  0  0
  190.6420  175.0560  134.9010 N   0  0  0  0  0  2  0  0  0  0  0  0
  191.3590  173.8980  134.3960 C   0  0  0  0  0  2  0  0  0  0  0  0
  191.8620  173.0760  135.5680 C   0  0  0  0  0  2  0  0  0  0  0  0
  193.6140  171.4400  136.1770 C   0  0  0  0  0  2  0  0  0  0  0  0
  196.0970  170.9640  136.4240 N   0  0  2  0  0  0  0  0  0  0  0  0
  196.5190  173.3590  135.9410 C   0  0  1  0  0  3  0  0  0  0  0  0
  196.1410  170.0150  137.5360 C   0  0  0  0  0  2  0  0  0  0  0  0
  196.3340  168.5850  137.0180 C   0  0  0  0  0  2  0  0  0  0  0  0
  196.1860  172.3060  137.0000 C   0  0  0  0  0  2  0  0  0  0  0  0
  194.5600  169.2660  135.3690 C   0  0  0  0  0  2  0  0  0  0  0  0
  194.1400  173.7680  135.8270 O   0  0  0  0  0  0  0  0  0  0  0  0
  193.3250  172.7140  135.3860 C   0  0  2  0  0  3  0  0  0  0  0  0
  194.8630  170.7520  135.6200 C   0  0  1  0  0  3  0  0  0  0  0  0
  195.3100  173.6800  135.0600 C   0  0  0  0  0  2  0  0  0  0  0  0
  195.7960  168.4020  135.5950 C   0  0  0  0  0  2  0  0  0  0  0  0
  197.0020  174.6140  136.5980 C   0  0  0  0  0  3  0  0  0  0  0  0
  196.2750  175.5890  136.6820 O   0  0  0  0  0  0  0  0  0  0  0  0
  1 39  1  6  0  0  0
  1  7  1  0  0  0  0
  2  6  1  0  0  0  0
  3  6  2  0  0  0  0
  4  7  1  0  0  0  0
  4  5  2  0  0  0  0
  5  3  1  0  0  0  0
  6 10  1  0  0  0  0
  7  2  2  0  0  0  0
  8  5  1  0  0  0  0
  9  8  2  0  0  0  0
 10 11  1  0  0  0  0
 11 12  1  0  0  0  0
 13 12  1  6  0  0  0
 13 19  1  0  0  0  0
 14 20  1  0  0  0  0
 15 13  1  0  0  0  0
 15 18  1  0  0  0  0
 16 14  1  0  0  0  0
 16 21  1  1  0  0  0
 17 20  1  0  0  0  0
 18 25  1  6  0  0  0
 18 16  1  0  0  0  0
 19 17  1  0  0  0  0
 22 23  1  0  0  0  0
 23 21  1  0  0  0  0
 23 24  2  0  0  0  0
 28 26  1  1  0  0  0
 28 27  1  0  0  0  0
 28 25  1  0  0  0  0
 29 35  1  1  0  0  0
 29 32  1  0  0  0  0
 29 30  1  0  0  0  0
 30 31  1  6  0  0  0
 32  1  1  6  0  0  0
 32 30  1  0  0  0  0
 34 36  1  6  0  0  0
 34 33  1  0  0  0  0
 34 35  1  0  0  0  0
 35 33  1  1  0  0  0
 38 36  1  0  0  0  0
 38 37  1  0  0  0  0
 40 39  1  0  0  0  0
 41 45  2  0  0  0  0
 42 40  2  0  0  0  0
 43 44  1  0  0  0  0
 44 41  1  0  0  0  0
 44 40  1  0  0  0  0
 46 47  1  0  0  0  0
 46 41  1  0  0  0  0
 48 47  1  0  0  0  0
 48 49  1  0  0  0  0
 51 55  1  1  0  0  0
 51 53  1  0  0  0  0
 52 62  1  1  0  0  0
 52 55  1  0  0  0  0
 54 53  1  0  0  0  0
 56 61  1  0  0  0  0
 58 49  1  1  0  0  0
 58 57  1  0  0  0  0
 58 50  1  0  0  0  0
 59 56  1  1  0  0  0
 59 50  1  0  0  0  0
 59 51  1  0  0  0  0
 60 57  1  0  0  0  0
 60 52  1  0  0  0  0
 61 54  1  0  0  0  0
 62 63  2  0  0  0  0
M  END
>  <MODEL>
7

>  <REMARK>
 VINA RESULT:      -5.2      2.402      9.600
  Name = 
  22 active torsions:
  status: ('A' for Active; 'I' for Inactive)
    1  A    between atoms: C_1  and  C_50
    2  A    between atoms: C_2  and  N_8
    3  A    between atoms: C_4  and  C_17
    4  A    between atoms: C_4  and  C_54
    5  A    between atoms: C_6  and  C_43
    6  A    between atoms: C_7  and  C_31
    7  A    between atoms: N_8  and  C_59
    8  A    between atoms: C_12  and  C_48
    9  A    between atoms: C_14  and  C_46
   10  A    between atoms: C_14  and  C_61
   11  A    between atoms: C_16  and  C_40
   12  A    between atoms: C_19  and  C_42
   13  A    between atoms: C_24  and  C_27
   14  A    between atoms: C_24  and  C_38
   15  A    between atoms: C_27  and  N_53
   16  A    between atoms: C_33  and  C_51
   17  A    between atoms: C_33  and  C_59
   18  A    between atoms: C_35  and  C_42
   19  A    between atoms: C_43  and  N_53
   20  A    between atoms: C_50  and  C_60
   21  A    between atoms: C_55  and  C_60
   22  A    between atoms: C_58  and  C_60
                            x       y       z     vdW  Elec       q    Type
                         _______ _______ _______ _____ _____    ______ ____

>  <TORSDO>
F 22

$$$$
=
 OpenBabel10232411393D

 63 68  0  0  1  0  0  0  0  0999 V2000
  189.3970  176.6900  140.4090 C   0  0  2  0  0  3  0  0  0  0  0  0
  187.4820  177.8890  139.3360 C   0  0  0  0  0  3  0  0  0  0  0  0
  187.4240  178.3250  136.9550 C   0  0  0  0  0  3  0  0  0  0  0  0
  189.2940  177.1350  137.9210 C   0  0  0  0  0  3  0  0  0  0  0  0
  188.6490  177.6730  136.7960 C   0  0  0  0  0  0  0  0  0  0  0  0
  186.8360  178.4300  138.2190 C   0  0  0  0  0  0  0  0  0  0  0  0
  188.7100  177.2380  139.1920 C   0  0  0  0  0  0  0  0  0  0  0  0
  189.2370  177.5810  135.4540 C   0  0  0  0  0  3  0  0  0  0  0  0
  190.1040  176.6350  135.1100 C   0  0  0  0  0  2  0  0  0  0  0  0
  185.5420  179.1610  138.3760 C   0  0  0  0  0  2  0  0  0  0  0  0
  184.8550  178.8020  139.6890 C   0  0  0  0  0  2  0  0  0  0  0  0
  183.4600  179.2130  139.6620 N   0  0  0  0  0  2  0  0  0  0  0  0
  182.7320  178.2650  138.8330 C   0  0  1  0  0  3  0  0  0  0  0  0
  180.8250  175.3830  139.8900 C   0  0  0  0  0  2  0  0  0  0  0  0
  183.2280  176.8430  139.1080 C   0  0  0  0  0  2  0  0  0  0  0  0
  181.2540  175.3380  138.4110 C   0  0  2  0  0  3  0  0  0  0  0  0
  180.8150  177.8710  140.4430 C   0  0  0  0  0  2  0  0  0  0  0  0
  182.6850  175.8250  138.1050 C   0  0  2  0  0  3  0  0  0  0  0  0
  181.2330  178.4220  139.0850 C   0  0  0  0  0  2  0  0  0  0  0  0
  179.9820  176.6070  140.2700 C   0  0  0  0  0  2  0  0  0  0  0  0
  180.2100  175.8810  137.4370 C   0  0  0  0  0  2  0  0  0  0  0  0
  180.7420  174.6640  135.2910 N   0  0  0  0  0  1  0  0  0  0  0  0
  180.7250  175.8750  136.0390 C   0  0  0  0  0  0  0  0  0  0  0  0
  181.1380  176.9410  135.5150 O   0  0  0  0  0  0  0  0  0  0  0  0
  183.6340  174.6350  138.0660 C   0  0  0  0  0  2  0  0  0  0  0  0
  185.8030  175.0410  136.9090 C   0  0  0  0  0  1  0  0  0  0  0  0
  184.3870  173.2370  136.2960 O   0  0  0  0  0  1  0  0  0  0  0  0
  184.3760  174.5570  136.7410 C   0  0  1  0  0  3  0  0  0  0  0  0
  190.2850  177.2500  142.6780 C   0  0  1  0  0  3  0  0  0  0  0  0
  188.8760  177.8090  142.6640 C   0  0  2  0  0  3  0  0  0  0  0  0
  187.9610  176.7530  142.6940 O   0  0  0  0  0  1  0  0  0  0  0  0
  189.7240  177.8170  141.3890 C   0  0  2  0  0  3  0  0  0  0  0  0
  190.5800  178.9140  144.3740 O   0  0  0  0  0  0  0  0  0  0  0  0
  191.6120  178.0200  144.7220 C   0  0  2  0  0  3  0  0  0  0  0  0
  191.2280  178.2730  143.2990 C   0  0  1  0  0  3  0  0  0  0  0  0
  191.0070  176.7750  145.3610 C   0  0  0  0  0  2  0  0  0  0  0  0
  192.3150  176.2450  147.2730 O   0  0  0  0  0  1  0  0  0  0  0  0
  191.1370  176.8650  146.8680 C   0  0  0  0  0  2  0  0  0  0  0  0
  190.6740  175.9340  140.0460 C   0  0  0  0  0  2  0  0  0  0  0  0
  191.7340  176.8600  139.5310 C   0  0  0  0  0  0  0  0  0  0  0  0
  192.5270  175.2630  137.7140 C   0  0  0  0  0  0  0  0  0  0  0  0
  191.8320  178.0050  140.0480 O   0  0  0  0  0  0  0  0  0  0  0  0
  193.6460  177.3380  138.1690 O   0  0  0  0  0  1  0  0  0  0  0  0
  192.6440  176.4800  138.4790 N   0  0  0  0  0  0  0  0  0  0  0  0
  191.6200  174.4230  137.9550 O   0  0  0  0  0  0  0  0  0  0  0  0
  193.4860  174.9840  136.6040 C   0  0  0  0  0  2  0  0  0  0  0  0
  194.8140  175.4340  136.9830 N   0  0  0  0  0  2  0  0  0  0  0  0
  195.6920  174.2790  136.9170 C   0  0  0  0  0  2  0  0  0  0  0  0
  195.5120  173.5950  135.5740 C   0  0  0  0  0  2  0  0  0  0  0  0
  194.8430  171.4360  136.5770 C   0  0  0  0  0  2  0  0  0  0  0  0
  195.5450  169.0960  137.2720 N   0  0  2  0  0  0  0  0  0  0  0  0
  197.8780  169.7210  136.7120 C   0  0  1  0  0  3  0  0  0  0  0  0
  194.6980  168.8300  138.4350 C   0  0  0  0  0  2  0  0  0  0  0  0
  193.5240  167.9230  138.0510 C   0  0  0  0  0  2  0  0  0  0  0  0
  196.7690  169.7270  137.7660 C   0  0  0  0  0  2  0  0  0  0  0  0
  193.3540  169.4820  136.0850 C   0  0  0  0  0  2  0  0  0  0  0  0
  197.1610  171.9630  136.1710 O   0  0  0  0  0  0  0  0  0  0  0  0
  195.8600  172.1200  135.6680 C   0  0  2  0  0  3  0  0  0  0  0  0
  194.8100  169.9330  136.2860 C   0  0  1  0  0  3  0  0  0  0  0  0
  197.6300  170.7630  135.6200 C   0  0  0  0  0  2  0  0  0  0  0  0
  193.1440  168.0530  136.5730 C   0  0  0  0  0  2  0  0  0  0  0  0
  199.2020  169.9830  137.3590 C   0  0  0  0  0  3  0  0  0  0  0  0
  199.3660  169.7650  138.5470 O   0  0  0  0  0  0  0  0  0  0  0  0
  1 39  1  6  0  0  0
  3  6  1  0  0  0  0
  4  7  2  0  0  0  0
  5  3  2  0  0  0  0
  5  4  1  0  0  0  0
  6 10  1  0  0  0  0
  6  2  2  0  0  0  0
  7  2  1  0  0  0  0
  7  1  1  0  0  0  0
  8  5  1  0  0  0  0
  9  8  2  0  0  0  0
 10 11  1  0  0  0  0
 12 11  1  0  0  0  0
 13 19  1  0  0  0  0
 13 15  1  0  0  0  0
 13 12  1  1  0  0  0
 14 20  1  0  0  0  0
 16 21  1  6  0  0  0
 16 14  1  0  0  0  0
 18 25  1  1  0  0  0
 18 16  1  0  0  0  0
 18 15  1  0  0  0  0
 19 17  1  0  0  0  0
 20 17  1  0  0  0  0
 22 23  1  0  0  0  0
 23 21  1  0  0  0  0
 24 23  2  0  0  0  0
 27 28  1  0  0  0  0
 28 26  1  1  0  0  0
 28 25  1  0  0  0  0
 29 35  1  1  0  0  0
 30 29  1  0  0  0  0
 30 31  1  6  0  0  0
 32  1  1  6  0  0  0
 32 30  1  0  0  0  0
 32 29  1  0  0  0  0
 33 34  1  0  0  0  0
 34 36  1  1  0  0  0
 35 33  1  1  0  0  0
 35 34  1  0  0  0  0
 36 38  1  0  0  0  0
 38 37  1  0  0  0  0
 40 39  1  0  0  0  0
 40 42  2  0  0  0  0
 41 45  2  0  0  0  0
 41 44  1  0  0  0  0
 43 44  1  0  0  0  0
 44 40  1  0  0  0  0
 46 47  1  0  0  0  0
 46 41  1  0  0  0  0
 48 47  1  0  0  0  0
 49 48  1  0  0  0  0
 51 55  1  1  0  0  0
 51 53  1  0  0  0  0
 52 62  1  1  0  0  0
 52 55  1  0  0  0  0
 54 53  1  0  0  0  0
 56 61  1  0  0  0  0
 58 49  1  1  0  0  0
 58 57  1  0  0  0  0
 58 50  1  0  0  0  0
 59 56  1  1  0  0  0
 59 50  1  0  0  0  0
 59 51  1  0  0  0  0
 60 57  1  0  0  0  0
 60 52  1  0  0  0  0
 61 54  1  0  0  0  0
 62 63  2  0  0  0  0
M  END
>  <MODEL>
8

>  <REMARK>
 VINA RESULT:      -5.1      2.965     10.126
  Name = 
  22 active torsions:
  status: ('A' for Active; 'I' for Inactive)
    1  A    between atoms: C_1  and  C_50
    2  A    between atoms: C_2  and  N_8
    3  A    between atoms: C_4  and  C_17
    4  A    between atoms: C_4  and  C_54
    5  A    between atoms: C_6  and  C_43
    6  A    between atoms: C_7  and  C_31
    7  A    between atoms: N_8  and  C_59
    8  A    between atoms: C_12  and  C_48
    9  A    between atoms: C_14  and  C_46
   10  A    between atoms: C_14  and  C_61
   11  A    between atoms: C_16  and  C_40
   12  A    between atoms: C_19  and  C_42
   13  A    between atoms: C_24  and  C_27
   14  A    between atoms: C_24  and  C_38
   15  A    between atoms: C_27  and  N_53
   16  A    between atoms: C_33  and  C_51
   17  A    between atoms: C_33  and  C_59
   18  A    between atoms: C_35  and  C_42
   19  A    between atoms: C_43  and  N_53
   20  A    between atoms: C_50  and  C_60
   21  A    between atoms: C_55  and  C_60
   22  A    between atoms: C_58  and  C_60
                            x       y       z     vdW  Elec       q    Type
                         _______ _______ _______ _____ _____    ______ ____

>  <TORSDO>
F 22

$$$$
=
 OpenBabel10232411393D

 63 68  0  0  1  0  0  0  0  0999 V2000
  187.7500  177.8740  143.3200 C   0  0  2  0  0  3  0  0  0  0  0  0
  189.8290  177.7110  141.9400 C   0  0  0  0  0  3  0  0  0  0  0  0
  191.7910  176.5290  142.7250 C   0  0  0  0  0  3  0  0  0  0  0  0
  189.8050  176.6220  144.1010 C   0  0  0  0  0  3  0  0  0  0  0  0
  191.1250  176.1880  143.9050 C   0  0  0  0  0  0  0  0  0  0  0  0
  191.1460  177.2840  141.7400 C   0  0  0  0  0  0  0  0  0  0  0  0
  189.1530  177.3810  143.1170 C   0  0  0  0  0  0  0  0  0  0  0  0
  191.8330  175.3940  144.9170 C   0  0  0  0  0  3  0  0  0  0  0  0
  192.4780  174.2690  144.6270 C   0  0  0  0  0  2  0  0  0  0  0  0
  191.8850  177.6680  140.5000 C   0  0  0  0  0  2  0  0  0  0  0  0
  192.3640  176.4400  139.7350 C   0  0  0  0  0  2  0  0  0  0  0  0
  191.9480  176.5130  138.3420 N   0  0  0  0  0  2  0  0  0  0  0  0
  193.1050  176.2130  137.5140 C   0  0  1  0  0  3  0  0  0  0  0  0
  194.0090  173.0580  136.0010 C   0  0  0  0  0  2  0  0  0  0  0  0
  193.8990  175.0560  138.1260 C   0  0  0  0  0  2  0  0  0  0  0  0
  195.1840  174.0450  136.1320 C   0  0  2  0  0  3  0  0  0  0  0  0
  191.9530  174.5630  135.9750 C   0  0  0  0  0  2  0  0  0  0  0  0
  195.2540  174.8470  137.4480 C   0  0  2  0  0  3  0  0  0  0  0  0
  192.6420  175.9180  136.0880 C   0  0  0  0  0  2  0  0  0  0  0  0
  192.8210  173.5880  135.1890 C   0  0  0  0  0  2  0  0  0  0  0  0
  195.4270  174.9020  134.8900 C   0  0  0  0  0  2  0  0  0  0  0  0
  196.4100  177.1530  135.4670 N   0  0  0  0  0  1  0  0  0  0  0  0
  196.6020  175.7980  135.0760 C   0  0  0  0  0  0  0  0  0  0  0  0
  197.7660  175.3570  134.8960 O   0  0  0  0  0  0  0  0  0  0  0  0
  196.1790  174.1410  138.4300 C   0  0  0  0  0  2  0  0  0  0  0  0
  198.1320  175.0300  139.6970 C   0  0  0  0  0  1  0  0  0  0  0  0
  198.4150  173.6710  137.7700 O   0  0  0  0  0  1  0  0  0  0  0  0
  197.6040  174.6590  138.3240 C   0  0  1  0  0  3  0  0  0  0  0  0
  186.5270  178.4430  145.4260 C   0  0  1  0  0  3  0  0  0  0  0  0
  187.8540  177.8740  145.8890 C   0  0  2  0  0  3  0  0  0  0  0  0
  188.8730  178.7860  145.5990 O   0  0  0  0  0  1  0  0  0  0  0  0
  187.1770  177.3290  144.6290 C   0  0  2  0  0  3  0  0  0  0  0  0
  184.8560  178.8660  147.0860 O   0  0  0  0  0  0  0  0  0  0  0  0
  184.0430  178.4240  146.0240 C   0  0  2  0  0  3  0  0  0  0  0  0
  185.4040  177.8560  146.2710 C   0  0  1  0  0  3  0  0  0  0  0  0
  183.9620  179.5140  144.9620 C   0  0  0  0  0  2  0  0  0  0  0  0
  181.7280  178.7800  144.6220 O   0  0  0  0  0  1  0  0  0  0  0  0
  182.8870  179.1610  143.9540 C   0  0  0  0  0  2  0  0  0  0  0  0
  186.8390  177.4860  142.1560 C   0  0  0  0  0  2  0  0  0  0  0  0
  186.5960  178.6450  141.2380 C   0  0  0  0  0  0  0  0  0  0  0  0
  184.0960  178.2160  141.0330 C   0  0  0  0  0  0  0  0  0  0  0  0
  187.5660  179.3990  140.9560 O   0  0  0  0  0  0  0  0  0  0  0  0
  185.2110  179.9100  139.7470 O   0  0  0  0  0  1  0  0  0  0  0  0
  185.3020  178.9140  140.6630 N   0  0  0  0  0  0  0  0  0  0  0  0
  184.1140  177.2790  141.8750 O   0  0  0  0  0  0  0  0  0  0  0  0
  182.7900  178.6060  140.4230 C   0  0  0  0  0  2  0  0  0  0  0  0
  182.1460  177.4320  139.8600 N   0  0  0  0  0  2  0  0  0  0  0  0
  182.3460  177.4830  138.4230 C   0  0  0  0  0  2  0  0  0  0  0  0
  181.6190  176.3170  137.7780 C   0  0  0  0  0  2  0  0  0  0  0  0
  182.2290  174.0330  137.0530 C   0  0  0  0  0  2  0  0  0  0  0  0
  184.0070  172.5080  136.0690 N   0  0  2  0  0  0  0  0  0  0  0  0
  185.5980  174.4050  136.2220 C   0  0  1  0  0  3  0  0  0  0  0  0
  183.7250  171.2210  136.7050 C   0  0  0  0  0  2  0  0  0  0  0  0
  182.9770  170.2950  135.7380 C   0  0  0  0  0  2  0  0  0  0  0  0
  184.9440  173.2210  136.9390 C   0  0  0  0  0  2  0  0  0  0  0  0
  181.6130  172.3610  135.2920 C   0  0  0  0  0  2  0  0  0  0  0  0
  183.8910  175.7690  137.2540 O   0  0  0  0  0  0  0  0  0  0  0  0
  182.5580  175.5150  136.8950 C   0  0  2  0  0  3  0  0  0  0  0  0
  182.7400  173.2520  135.8380 C   0  0  1  0  0  3  0  0  0  0  0  0
  184.6340  175.5850  136.0800 C   0  0  0  0  0  2  0  0  0  0  0  0
  182.1670  171.0710  134.6960 C   0  0  0  0  0  2  0  0  0  0  0  0
  186.8180  174.8460  136.9680 C   0  0  0  0  0  3  0  0  0  0  0  0
  187.9290  174.6660  136.5000 O   0  0  0  0  0  0  0  0  0  0  0  0
  1 39  1  6  0  0  0
  2  7  1  0  0  0  0
  3  5  2  0  0  0  0
  5  4  1  0  0  0  0
  5  8  1  0  0  0  0
  6  2  2  0  0  0  0
  6  3  1  0  0  0  0
  7  1  1  0  0  0  0
  7  4  2  0  0  0  0
  9  8  2  0  0  0  0
 10  6  1  0  0  0  0
 11 10  1  0  0  0  0
 12 11  1  0  0  0  0
 13 15  1  0  0  0  0
 13 12  1  1  0  0  0
 14 16  1  0  0  0  0
 16 21  1  6  0  0  0
 16 18  1  0  0  0  0
 17 19  1  0  0  0  0
 18 15  1  0  0  0  0
 18 25  1  1  0  0  0
 19 13  1  0  0  0  0
 20 17  1  0  0  0  0
 20 14  1  0  0  0  0
 21 23  1  0  0  0  0
 23 22  1  0  0  0  0
 24 23  2  0  0  0  0
 27 28  1  0  0  0  0
 28 25  1  0  0  0  0
 28 26  1  1  0  0  0
 29 30  1  0  0  0  0
 29 35  1  1  0  0  0
 30 31  1  6  0  0  0
 32  1  1  6  0  0  0
 32 29  1  0  0  0  0
 32 30  1  0  0  0  0
 34 36  1  6  0  0  0
 34 35  1  0  0  0  0
 34 33  1  0  0  0  0
 35 33  1  1  0  0  0
 38 37  1  0  0  0  0
 38 36  1  0  0  0  0
 40 39  1  0  0  0  0
 41 45  2  0  0  0  0
 42 40  2  0  0  0  0
 43 44  1  0  0  0  0
 44 41  1  0  0  0  0
 44 40  1  0  0  0  0
 46 41  1  0  0  0  0
 47 46  1  0  0  0  0
 48 47  1  0  0  0  0
 49 48  1  0  0  0  0
 51 53  1  1  0  0  0
 51 55  1  0  0  0  0
 52 55  1  0  0  0  0
 52 62  1  1  0  0  0
 54 53  1  0  0  0  0
 58 50  1  0  0  0  0
 58 57  1  0  0  0  0
 58 49  1  1  0  0  0
 59 56  1  1  0  0  0
 59 51  1  0  0  0  0
 59 50  1  0  0  0  0
 60 52  1  0  0  0  0
 60 57  1  0  0  0  0
 61 56  1  0  0  0  0
 61 54  1  0  0  0  0
 63 62  2  0  0  0  0
M  END
>  <MODEL>
9

>  <REMARK>
 VINA RESULT:      -5.1      1.675      2.083
  Name = 
  22 active torsions:
  status: ('A' for Active; 'I' for Inactive)
    1  A    between atoms: C_1  and  C_50
    2  A    between atoms: C_2  and  N_8
    3  A    between atoms: C_4  and  C_17
    4  A    between atoms: C_4  and  C_54
    5  A    between atoms: C_6  and  C_43
    6  A    between atoms: C_7  and  C_31
    7  A    between atoms: N_8  and  C_59
    8  A    between atoms: C_12  and  C_48
    9  A    between atoms: C_14  and  C_46
   10  A    between atoms: C_14  and  C_61
   11  A    between atoms: C_16  and  C_40
   12  A    between atoms: C_19  and  C_42
   13  A    between atoms: C_24  and  C_27
   14  A    between atoms: C_24  and  C_38
   15  A    between atoms: C_27  and  N_53
   16  A    between atoms: C_33  and  C_51
   17  A    between atoms: C_33  and  C_59
   18  A    between atoms: C_35  and  C_42
   19  A    between atoms: C_43  and  N_53
   20  A    between atoms: C_50  and  C_60
   21  A    between atoms: C_55  and  C_60
   22  A    between atoms: C_58  and  C_60
                            x       y       z     vdW  Elec       q    Type
                         _______ _______ _______ _____ _____    ______ ____

>  <TORSDO>
F 22

$$$$
