=
 OpenBabel10232411393D

 63 68  0  0  1  0  0  0  0  0999 V2000
  194.4750  174.5570  138.1280 C   0  0  0  0  0  1  0  0  0  0  0  0
  190.0340  172.7610  135.3860 O   0  0  0  0  0  0  0  0  0  0  0  0
  189.0470  170.8840  134.5120 O   0  0  0  0  0  1  0  0  0  0  0  0
  189.2560  173.8140  134.8790 C   0  0  1  0  0  3  0  0  0  0  0  0
  195.8680  172.4080  134.6410 O   0  0  0  0  0  1  0  0  0  0  0  0
  189.1650  177.6840  135.5030 C   0  0  0  0  0  2  0  0  0  0  0  0
  189.4220  177.4670  136.9800 C   0  0  1  0  0  3  0  0  0  0  0  0
  188.8340  176.3560  134.8490 C   0  0  2  0  0  3  0  0  0  0  0  0
  186.9020  174.6650  134.7990 N   0  0  0  0  0  0  0  0  0  0  0  0
  193.8760  172.2120  135.8970 C   0  0  0  0  0  2  0  0  0  0  0  0
  191.8070  174.7090  136.6850 C   0  0  0  0  0  2  0  0  0  0  0  0
  187.8240  173.6930  135.2980 C   0  0  0  0  0  0  0  0  0  0  0  0
  190.3930  175.3480  136.7330 C   0  0  2  0  0  0  0  0  0  0  0  0
  191.6590  170.5380  135.6660 O   0  0  0  0  0  0  0  0  0  0  0  0
  187.3510  176.0280  134.9120 C   0  0  0  0  0  0  0  0  0  0  0  0
  190.0910  171.8000  134.3640 C   0  0  2  0  0  3  0  0  0  0  0  0
  186.5070  176.9640  134.9900 O   0  0  0  0  0  0  0  0  0  0  0  0
  194.3620  175.1720  136.7320 C   0  0  2  0  0  3  0  0  0  0  0  0
  192.9550  175.6990  136.3910 C   0  0  1  0  0  3  0  0  0  0  0  0
  191.4200  171.0790  134.3960 C   0  0  0  0  0  2  0  0  0  0  0  0
  192.8930  169.8890  135.5330 C   0  0  0  0  0  2  0  0  0  0  0  0
  192.8790  176.2590  134.9780 C   0  0  0  0  0  1  0  0  0  0  0  0
  189.7880  175.2130  135.2930 C   0  0  1  0  0  3  0  0  0  0  0  0
  187.4860  172.9220  136.2330 O   0  0  0  0  0  0  0  0  0  0  0  0
  195.2260  172.8980  135.7720 C   0  0  2  0  0  3  0  0  0  0  0  0
  190.5900  176.6990  137.1250 O   0  0  0  0  0  0  0  0  0  0  0  0
  195.0680  174.4000  135.5940 C   0  0  0  0  0  2  0  0  0  0  0  0
  194.0490  170.7060  136.1230 C   0  0  2  0  0  3  0  0  0  0  0  0
  184.6570  174.6780  137.5480 C   0  0  0  0  0  2  0  0  0  0  0  0
  185.1940  175.9620  136.9380 C   0  0  2  0  0  3  0  0  0  0  0  0
  185.4920  174.3070  134.5260 C   0  0  1  0  0  3  0  0  0  0  0  0
  184.8930  173.2540  135.4810 C   0  0  0  0  0  2  0  0  0  0  0  0
  184.5600  175.5320  134.4450 C   0  0  0  0  0  3  0  0  0  0  0  0
  185.3160  173.4570  136.9270 C   0  0  0  0  0  2  0  0  0  0  0  0
  185.1620  177.0630  137.9770 C   0  0  0  0  0  1  0  0  0  0  0  0
  184.3650  176.3710  135.7230 C   0  0  0  0  0  3  0  0  0  0  0  0
  189.4800  174.6540  137.7830 C   0  0  0  0  0  2  0  0  0  0  0  0
  188.1200  175.3130  138.0190 C   0  0  0  0  0  1  0  0  0  0  0  0
  194.2600  170.3830  137.5710 C   0  0  0  0  0  3  0  0  0  0  0  0
  194.6700  169.2140  137.9150 N   0  0  0  0  0  0  0  0  0  0  0  0
  194.8920  168.8030  139.5660 S   0  0  0  0  0  0  0  0  0  0  0  0
  193.7650  167.9170  140.0250 O   0  0  0  0  0  0  0  0  0  0  0  0
  194.9110  170.0570  140.3930 O   0  0  0  0  0  0  0  0  0  0  0  0
  196.3800  167.9140  139.7150 N   0  0  0  0  0  2  0  0  0  0  0  0
  197.0830  167.9230  138.4380 C   0  0  0  0  0  2  0  0  0  0  0  0
  197.5650  169.3300  138.1190 C   0  0  0  0  0  2  0  0  0  0  0  0
  197.7100  169.4810  136.7410 O   0  0  0  0  0  1  0  0  0  0  0  0
  189.6580  178.8220  137.6270 C   0  0  0  0  0  2  0  0  0  0  0  0
  190.0020  178.6750  138.9760 O   0  0  0  0  0  0  0  0  0  0  0  0
  189.0840  177.7610  139.5070 C   0  0  2  0  0  3  0  0  0  0  0  0
  187.8500  178.5180  139.9680 C   0  0  0  0  0  1  0  0  0  0  0  0
  189.7110  177.0050  140.6740 C   0  0  0  0  0  2  0  0  0  0  0  0
  190.4120  177.9350  141.5560 N   0  0  0  0  0  2  0  0  0  0  0  0
  191.6620  177.4460  141.7330 O   0  0  0  0  0  0  0  0  0  0  0  0
  191.8780  177.5180  143.1150 C   0  0  0  0  0  2  0  0  0  0  0  0
  190.9480  176.5610  143.8510 C   0  0  0  0  0  2  0  0  0  0  0  0
  191.8140  177.4290  145.9210 O   0  0  0  0  0  0  0  0  0  0  0  0
  191.1840  176.2790  146.4390 C   0  0  0  0  0  2  0  0  0  0  0  0
  190.6380  177.0190  145.2750 C   0  0  2  0  0  0  0  0  0  0  0  0
  189.5240  178.0240  145.5280 C   0  0  0  0  0  2  0  0  0  0  0  0
  187.1350  178.2100  145.0000 C   0  0  0  0  0  2  0  0  0  0  0  0
  187.5760  176.9060  144.7060 O   0  0  0  0  0  0  0  0  0  0  0  0
  188.4720  177.9590  144.4310 C   0  0  2  0  0  3  0  0  0  0  0  0
  4 23  1  0  0  0  0
  4 12  1  1  0  0  0
  4  2  1  0  0  0  0
  5 25  1  0  0  0  0
  6  7  1  0  0  0  0
  7 26  1  0  0  0  0
  7 48  1  1  0  0  0
  8 15  1  0  0  0  0
  8 23  1  0  0  0  0
  8  6  1  1  0  0  0
  9 15  1  0  0  0  0
  9 12  1  0  0  0  0
 10 28  1  0  0  0  0
 11 13  1  0  0  0  0
 12 24  2  0  0  0  0
 13 26  1  0  0  0  0
 13 37  1  1  0  0  0
 15 17  2  0  0  0  0
 16 20  1  0  0  0  0
 16  3  1  1  0  0  0
 16  2  1  0  0  0  0
 18  1  1  1  0  0  0
 19 22  1  6  0  0  0
 19 11  1  0  0  0  0
 19 18  1  0  0  0  0
 20 14  1  0  0  0  0
 21 14  1  0  0  0  0
 21 28  1  0  0  0  0
 23 13  1  0  0  0  0
 25 10  1  0  0  0  0
 27 25  1  0  0  0  0
 27 18  1  0  0  0  0
 28 39  1  0  0  0  0
 30 29  1  0  0  0  0
 30 35  1  0  0  0  0
 31  9  1  0  0  0  0
 31 32  1  0  0  0  0
 32 34  1  0  0  0  0
 33 31  1  0  0  0  0
 33 36  2  0  0  0  0
 34 29  1  0  0  0  0
 36 30  1  0  0  0  0
 37 38  1  0  0  0  0
 39 40  2  0  0  0  0
 40 41  1  0  0  0  0
 41 44  1  0  0  0  0
 41 42  2  0  0  0  0
 41 43  2  0  0  0  0
 45 44  1  0  0  0  0
 46 45  1  0  0  0  0
 47 46  1  0  0  0  0
 48 49  1  0  0  0  0
 49 50  1  0  0  0  0
 50 51  1  0  0  0  0
 50 52  1  0  0  0  0
 52 53  1  0  0  0  0
 53 54  1  0  0  0  0
 54 55  1  0  0  0  0
 55 56  1  0  0  0  0
 56 59  1  0  0  0  0
 57 58  1  0  0  0  0
 59 60  1  0  0  0  0
 59 57  1  0  0  0  0
 59 58  1  0  0  0  0
 62 61  1  0  0  0  0
 63 62  1  0  0  0  0
 63 61  1  0  0  0  0
 63 60  1  0  0  0  0
M  END
>  <MODEL>
1

>  <REMARK>
 VINA RESULT:      -3.9      0.000      0.000
  Name = 
  18 active torsions:
  status: ('A' for Active; 'I' for Inactive)
    1  A    between atoms: C_3  and  C_20
    2  A    between atoms: S_4  and  N_14
    3  A    between atoms: S_4  and  N_55
    4  A    between atoms: C_12  and  C_48
    5  A    between atoms: N_14  and  C_20
    6  A    between atoms: N_15  and  C_22
    7  A    between atoms: C_17  and  C_44
    8  A    between atoms: C_17  and  N_61
    9  A    between atoms: C_23  and  C_59
   10  A    between atoms: C_24  and  C_27
   11  A    between atoms: O_35  and  C_44
   12  A    between atoms: O_35  and  C_48
   13  A    between atoms: O_39  and  C_56
   14  A    between atoms: O_39  and  N_61
   15  A    between atoms: C_49  and  C_56
   16  A    between atoms: C_49  and  C_58
   17  A    between atoms: C_58  and  C_62
   18  A    between atoms: C_62  and  C_63
                            x       y       z     vdW  Elec       q    Type
                         _______ _______ _______ _____ _____    ______ ____

>  <TORSDO>
F 18

$$$$
=
 OpenBabel10232411393D

 63 68  0  0  1  0  0  0  0  0999 V2000
  187.1030  177.1330  137.9020 C   0  0  0  0  0  1  0  0  0  0  0  0
  186.6160  177.6070  143.3800 O   0  0  0  0  0  0  0  0  0  0  0  0
  185.0970  177.6050  145.0970 O   0  0  0  0  0  1  0  0  0  0  0  0
  187.8070  178.0360  143.9870 C   0  0  1  0  0  3  0  0  0  0  0  0
  184.2410  180.2770  138.6950 O   0  0  0  0  0  1  0  0  0  0  0  0
  191.5260  178.3490  142.7830 C   0  0  0  0  0  2  0  0  0  0  0  0
  191.4000  177.0540  142.0080 C   0  0  1  0  0  3  0  0  0  0  0  0
  190.3230  178.5100  143.6940 C   0  0  2  0  0  3  0  0  0  0  0  0
  189.3870  177.4690  145.8460 N   0  0  0  0  0  0  0  0  0  0  0  0
  184.8660  178.3860  139.9660 C   0  0  0  0  0  2  0  0  0  0  0  0
  187.9850  177.5220  140.7820 C   0  0  0  0  0  2  0  0  0  0  0  0
  188.2220  177.1180  145.0950 C   0  0  0  0  0  0  0  0  0  0  0  0
  189.0640  177.1260  141.8250 C   0  0  2  0  0  0  0  0  0  0  0  0
  184.0210  177.4110  142.4370 O   0  0  0  0  0  0  0  0  0  0  0  0
  190.5230  177.8470  145.0480 C   0  0  0  0  0  0  0  0  0  0  0  0
  185.5860  178.3260  144.0060 C   0  0  2  0  0  3  0  0  0  0  0  0
  191.6910  177.6960  145.5020 O   0  0  0  0  0  0  0  0  0  0  0  0
  187.5630  178.5000  138.4140 C   0  0  2  0  0  3  0  0  0  0  0  0
  188.4910  178.4300  139.6400 C   0  0  1  0  0  3  0  0  0  0  0  0
  184.4680  178.6010  143.0260 C   0  0  0  0  0  2  0  0  0  0  0  0
  182.9850  177.8180  141.5880 C   0  0  0  0  0  2  0  0  0  0  0  0
  188.8850  179.8120  140.1410 C   0  0  0  0  0  1  0  0  0  0  0  0
  188.9820  178.1800  142.9820 C   0  0  1  0  0  3  0  0  0  0  0  0
  187.7180  175.9710  145.2080 O   0  0  0  0  0  0  0  0  0  0  0  0
  185.0390  179.1410  138.6590 C   0  0  2  0  0  3  0  0  0  0  0  0
  190.3040  177.1590  141.1340 O   0  0  0  0  0  0  0  0  0  0  0  0
  186.4780  179.5990  138.4720 C   0  0  0  0  0  2  0  0  0  0  0  0
  183.4250  177.8890  140.1210 C   0  0  2  0  0  3  0  0  0  0  0  0
  187.8980  179.7060  148.1650 C   0  0  0  0  0  2  0  0  0  0  0  0
  187.0690  178.7900  147.2800 C   0  0  2  0  0  3  0  0  0  0  0  0
  189.4960  177.1300  147.2840 C   0  0  1  0  0  3  0  0  0  0  0  0
  189.9790  178.2830  148.1880 C   0  0  0  0  0  2  0  0  0  0  0  0
  188.2050  176.5160  147.8610 C   0  0  0  0  0  3  0  0  0  0  0  0
  189.3730  179.6250  147.8090 C   0  0  0  0  0  2  0  0  0  0  0  0
  185.6920  179.3910  147.0870 C   0  0  0  0  0  1  0  0  0  0  0  0
  186.9450  177.4020  147.9060 C   0  0  0  0  0  3  0  0  0  0  0  0
  188.8380  175.6870  142.3720 C   0  0  0  0  0  2  0  0  0  0  0  0
  190.0440  175.0380  143.0510 C   0  0  0  0  0  1  0  0  0  0  0  0
  183.2110  176.5780  139.4250 C   0  0  0  0  0  3  0  0  0  0  0  0
  182.3870  176.5000  138.4420 N   0  0  0  0  0  0  0  0  0  0  0  0
  182.0970  175.0080  137.6460 S   0  0  0  0  0  0  0  0  0  0  0  0
  181.7470  175.2610  136.2040 O   0  0  0  0  0  0  0  0  0  0  0  0
  180.9590  174.2970  138.3200 O   0  0  0  0  0  0  0  0  0  0  0  0
  183.5600  174.0670  137.6950 N   0  0  0  0  0  2  0  0  0  0  0  0
  183.7460  173.3880  136.4190 C   0  0  0  0  0  2  0  0  0  0  0  0
  183.2210  171.9620  136.5070 C   0  0  0  0  0  2  0  0  0  0  0  0
  183.6560  171.2280  135.4050 O   0  0  0  0  0  1  0  0  0  0  0  0
  192.6590  176.8710  141.1760 C   0  0  0  0  0  2  0  0  0  0  0  0
  192.5100  177.4570  139.9140 O   0  0  0  0  0  0  0  0  0  0  0  0
  192.5610  176.4020  138.9940 C   0  0  2  0  0  3  0  0  0  0  0  0
  193.8340  176.5270  138.1760 C   0  0  0  0  0  1  0  0  0  0  0  0
  191.3370  176.4390  138.0850 C   0  0  0  0  0  2  0  0  0  0  0  0
  190.4710  175.2970  138.3610 N   0  0  0  0  0  2  0  0  0  0  0  0
  191.0090  174.2280  137.7280 O   0  0  0  0  0  0  0  0  0  0  0  0
  190.2060  174.0450  136.5960 C   0  0  0  0  0  2  0  0  0  0  0  0
  188.7310  174.1080  136.9720 C   0  0  0  0  0  2  0  0  0  0  0  0
  188.4680  173.9220  134.5880 O   0  0  0  0  0  0  0  0  0  0  0  0
  187.3620  174.7610  134.8430 C   0  0  0  0  0  2  0  0  0  0  0  0
  187.8100  173.7310  135.8130 C   0  0  2  0  0  0  0  0  0  0  0  0
  187.0860  172.3930  135.8170 C   0  0  0  0  0  2  0  0  0  0  0  0
  187.1260  170.0790  135.0040 C   0  0  0  0  0  2  0  0  0  0  0  0
  188.3370  170.3610  135.6640 O   0  0  0  0  0  0  0  0  0  0  0  0
  187.7730  171.4000  134.8940 C   0  0  2  0  0  3  0  0  0  0  0  0
  2 16  1  0  0  0  0
  4  2  1  6  0  0  0
  4 12  1  0  0  0  0
  7 48  1  6  0  0  0
  7  6  1  0  0  0  0
  8  6  1  6  0  0  0
  8 15  1  0  0  0  0
  9 31  1  0  0  0  0
 10 28  1  0  0  0  0
 11 13  1  0  0  0  0
 12 24  2  0  0  0  0
 12  9  1  0  0  0  0
 13 37  1  1  0  0  0
 13 23  1  0  0  0  0
 14 20  1  0  0  0  0
 15 17  2  0  0  0  0
 15  9  1  0  0  0  0
 16  3  1  1  0  0  0
 18  1  1  1  0  0  0
 18 27  1  0  0  0  0
 18 19  1  0  0  0  0
 19 22  1  1  0  0  0
 19 11  1  0  0  0  0
 20 16  1  0  0  0  0
 21 14  1  0  0  0  0
 23  8  1  0  0  0  0
 23  4  1  0  0  0  0
 25  5  1  0  0  0  0
 25 10  1  0  0  0  0
 26 13  1  0  0  0  0
 26  7  1  0  0  0  0
 27 25  1  0  0  0  0
 28 21  1  0  0  0  0
 30 36  1  0  0  0  0
 30 29  1  0  0  0  0
 31 33  1  0  0  0  0
 31 32  1  0  0  0  0
 33 36  2  0  0  0  0
 34 29  1  0  0  0  0
 34 32  1  0  0  0  0
 35 30  1  0  0  0  0
 37 38  1  0  0  0  0
 39 28  1  0  0  0  0
 40 39  2  0  0  0  0
 41 44  1  0  0  0  0
 41 43  2  0  0  0  0
 41 40  1  0  0  0  0
 42 41  2  0  0  0  0
 45 46  1  0  0  0  0
 45 44  1  0  0  0  0
 47 46  1  0  0  0  0
 49 48  1  0  0  0  0
 50 49  1  0  0  0  0
 51 50  1  0  0  0  0
 52 53  1  0  0  0  0
 52 50  1  0  0  0  0
 54 53  1  0  0  0  0
 55 56  1  0  0  0  0
 55 54  1  0  0  0  0
 57 58  1  0  0  0  0
 57 59  1  0  0  0  0
 58 59  1  0  0  0  0
 59 60  1  0  0  0  0
 59 56  1  0  0  0  0
 61 62  1  0  0  0  0
 63 61  1  0  0  0  0
 63 62  1  0  0  0  0
 63 60  1  0  0  0  0
M  END
>  <MODEL>
2

>  <REMARK>
 VINA RESULT:      -3.0      4.115     10.823
  Name = 
  18 active torsions:
  status: ('A' for Active; 'I' for Inactive)
    1  A    between atoms: C_3  and  C_20
    2  A    between atoms: S_4  and  N_14
    3  A    between atoms: S_4  and  N_55
    4  A    between atoms: C_12  and  C_48
    5  A    between atoms: N_14  and  C_20
    6  A    between atoms: N_15  and  C_22
    7  A    between atoms: C_17  and  C_44
    8  A    between atoms: C_17  and  N_61
    9  A    between atoms: C_23  and  C_59
   10  A    between atoms: C_24  and  C_27
   11  A    between atoms: O_35  and  C_44
   12  A    between atoms: O_35  and  C_48
   13  A    between atoms: O_39  and  C_56
   14  A    between atoms: O_39  and  N_61
   15  A    between atoms: C_49  and  C_56
   16  A    between atoms: C_49  and  C_58
   17  A    between atoms: C_58  and  C_62
   18  A    between atoms: C_62  and  C_63
                            x       y       z     vdW  Elec       q    Type
                         _______ _______ _______ _____ _____    ______ ____

>  <TORSDO>
F 18

$$$$
=
 OpenBabel10232411393D

 63 68  0  0  1  0  0  0  0  0999 V2000
  187.2760  177.0820  137.8540 C   0  0  0  0  0  1  0  0  0  0  0  0
  186.6580  177.5940  143.3150 O   0  0  0  0  0  0  0  0  0  0  0  0
  185.0980  177.6010  144.9960 O   0  0  0  0  0  1  0  0  0  0  0  0
  187.8330  178.0300  143.9480 C   0  0  1  0  0  3  0  0  0  0  0  0
  184.3900  180.2270  138.5570 O   0  0  0  0  0  1  0  0  0  0  0  0
  191.5790  178.3410  142.8300 C   0  0  0  0  0  2  0  0  0  0  0  0
  191.4740  177.0400  142.0610 C   0  0  1  0  0  3  0  0  0  0  0  0
  190.3550  178.5070  143.7110 C   0  0  2  0  0  3  0  0  0  0  0  0
  189.3700  177.4790  145.8470 N   0  0  0  0  0  0  0  0  0  0  0  0
  184.9880  178.3460  139.8550 C   0  0  0  0  0  2  0  0  0  0  0  0
  188.0880  177.4930  140.7510 C   0  0  0  0  0  2  0  0  0  0  0  0
  188.2240  177.1200  145.0710 C   0  0  0  0  0  0  0  0  0  0  0  0
  189.1430  177.1060  141.8220 C   0  0  2  0  0  0  0  0  0  0  0  0
  184.0870  177.3860  142.3130 O   0  0  0  0  0  0  0  0  0  0  0  0
  190.5240  177.8530  145.0730 C   0  0  0  0  0  0  0  0  0  0  0  0
  185.6120  178.3160  143.9110 C   0  0  2  0  0  3  0  0  0  0  0  0
  191.6810  177.7070  145.5570 O   0  0  0  0  0  0  0  0  0  0  0  0
  187.7200  178.4530  138.3660 C   0  0  2  0  0  3  0  0  0  0  0  0
  188.6200  178.3940  139.6150 C   0  0  1  0  0  3  0  0  0  0  0  0
  184.5170  178.5820  142.9030 C   0  0  0  0  0  2  0  0  0  0  0  0
  183.0700  177.7860  141.4370 C   0  0  0  0  0  2  0  0  0  0  0  0
  189.0000  179.7810  140.1150 C   0  0  0  0  0  1  0  0  0  0  0  0
  189.0320  178.1690  142.9690 C   0  0  1  0  0  3  0  0  0  0  0  0
  187.7190  175.9730  145.1800 O   0  0  0  0  0  0  0  0  0  0  0  0
  185.1900  179.0920  138.5470 C   0  0  2  0  0  3  0  0  0  0  0  0
  190.3990  177.1370  141.1600 O   0  0  0  0  0  0  0  0  0  0  0  0
  186.6330  179.5510  138.3910 C   0  0  0  0  0  2  0  0  0  0  0  0
  183.5440  177.8470  139.9790 C   0  0  2  0  0  3  0  0  0  0  0  0
  187.8010  179.7160  148.1120 C   0  0  0  0  0  2  0  0  0  0  0  0
  187.0040  178.7860  147.2130 C   0  0  2  0  0  3  0  0  0  0  0  0
  189.4460  177.1500  147.2890 C   0  0  1  0  0  3  0  0  0  0  0  0
  189.8940  178.3130  148.1980 C   0  0  0  0  0  2  0  0  0  0  0  0
  188.1470  176.5270  147.8370 C   0  0  0  0  0  3  0  0  0  0  0  0
  189.2860  179.6470  147.7950 C   0  0  0  0  0  2  0  0  0  0  0  0
  185.6270  179.3730  146.9810 C   0  0  0  0  0  1  0  0  0  0  0  0
  186.8780  177.4020  147.8440 C   0  0  0  0  0  3  0  0  0  0  0  0
  188.9070  175.6720  142.3740 C   0  0  0  0  0  2  0  0  0  0  0  0
  190.1010  175.0240  143.0750 C   0  0  0  0  0  1  0  0  0  0  0  0
  183.3490  176.5320  139.2890 C   0  0  0  0  0  3  0  0  0  0  0  0
  182.7270  176.4820  138.1650 N   0  0  0  0  0  0  0  0  0  0  0  0
  182.4600  174.9880  137.3640 S   0  0  0  0  0  0  0  0  0  0  0  0
  182.4090  175.2100  135.8770 O   0  0  0  0  0  0  0  0  0  0  0  0
  181.1590  174.4000  137.8280 O   0  0  0  0  0  0  0  0  0  0  0  0
  183.8000  173.9330  137.7130 N   0  0  0  0  0  2  0  0  0  0  0  0
  184.8260  174.0940  136.6900 C   0  0  0  0  0  2  0  0  0  0  0  0
  185.1640  172.7450  136.0740 C   0  0  0  0  0  2  0  0  0  0  0  0
  186.0290  172.9200  134.9950 O   0  0  0  0  0  1  0  0  0  0  0  0
  192.7520  176.8540  141.2610 C   0  0  0  0  0  2  0  0  0  0  0  0
  192.7420  177.6560  140.1140 O   0  0  0  0  0  0  0  0  0  0  0  0
  193.2320  176.8500  139.0790 C   0  0  2  0  0  3  0  0  0  0  0  0
  192.0590  176.1930  138.3730 C   0  0  0  0  0  1  0  0  0  0  0  0
  194.1770  175.7920  139.6390 C   0  0  0  0  0  2  0  0  0  0  0  0
  195.0740  175.3140  138.5920 N   0  0  0  0  0  2  0  0  0  0  0  0
  196.2700  175.0670  139.1770 O   0  0  0  0  0  0  0  0  0  0  0  0
  196.8370  174.0440  138.4060 C   0  0  0  0  0  2  0  0  0  0  0  0
  196.3820  174.1540  136.9560 C   0  0  0  0  0  2  0  0  0  0  0  0
  198.4350  175.3040  136.4550 O   0  0  0  0  0  0  0  0  0  0  0  0
  197.7450  175.6050  135.2620 C   0  0  0  0  0  2  0  0  0  0  0  0
  197.5480  174.3240  135.9840 C   0  0  2  0  0  0  0  0  0  0  0  0
  198.3210  173.1060  135.4990 C   0  0  0  0  0  2  0  0  0  0  0  0
  200.1030  171.5050  136.0270 C   0  0  0  0  0  2  0  0  0  0  0  0
  199.0460  171.3430  136.9430 O   0  0  0  0  0  0  0  0  0  0  0  0
  199.3410  172.6610  136.5360 C   0  0  2  0  0  3  0  0  0  0  0  0
  2 16  1  0  0  0  0
  4  2  1  6  0  0  0
  4 12  1  0  0  0  0
  7 48  1  6  0  0  0
  7  6  1  0  0  0  0
  8  6  1  6  0  0  0
  8 15  1  0  0  0  0
  9 31  1  0  0  0  0
 10 28  1  0  0  0  0
 11 13  1  0  0  0  0
 12 24  2  0  0  0  0
 12  9  1  0  0  0  0
 13 37  1  1  0  0  0
 13 23  1  0  0  0  0
 14 20  1  0  0  0  0
 15 17  2  0  0  0  0
 15  9  1  0  0  0  0
 16  3  1  1  0  0  0
 18  1  1  1  0  0  0
 18 27  1  0  0  0  0
 18 19  1  0  0  0  0
 19 22  1  1  0  0  0
 19 11  1  0  0  0  0
 20 16  1  0  0  0  0
 21 14  1  0  0  0  0
 23  8  1  0  0  0  0
 23  4  1  0  0  0  0
 25  5  1  0  0  0  0
 25 10  1  0  0  0  0
 26 13  1  0  0  0  0
 26  7  1  0  0  0  0
 27 25  1  0  0  0  0
 28 21  1  0  0  0  0
 30 36  1  0  0  0  0
 30 29  1  0  0  0  0
 31 33  1  0  0  0  0
 31 32  1  0  0  0  0
 33 36  2  0  0  0  0
 34 29  1  0  0  0  0
 34 32  1  0  0  0  0
 35 30  1  0  0  0  0
 37 38  1  0  0  0  0
 39 28  1  0  0  0  0
 40 39  2  0  0  0  0
 41 44  1  0  0  0  0
 41 43  2  0  0  0  0
 41 40  1  0  0  0  0
 42 41  2  0  0  0  0
 45 44  1  0  0  0  0
 46 45  1  0  0  0  0
 47 46  1  0  0  0  0
 49 48  1  0  0  0  0
 50 52  1  0  0  0  0
 50 49  1  0  0  0  0
 51 50  1  0  0  0  0
 53 54  1  0  0  0  0
 53 52  1  0  0  0  0
 55 54  1  0  0  0  0
 56 55  1  0  0  0  0
 58 59  1  0  0  0  0
 58 57  1  0  0  0  0
 59 57  1  0  0  0  0
 59 56  1  0  0  0  0
 60 59  1  0  0  0  0
 60 63  1  0  0  0  0
 61 63  1  0  0  0  0
 61 62  1  0  0  0  0
 63 62  1  0  0  0  0
M  END
>  <MODEL>
3

>  <REMARK>
 VINA RESULT:      -2.8      3.832     11.001
  Name = 
  18 active torsions:
  status: ('A' for Active; 'I' for Inactive)
    1  A    between atoms: C_3  and  C_20
    2  A    between atoms: S_4  and  N_14
    3  A    between atoms: S_4  and  N_55
    4  A    between atoms: C_12  and  C_48
    5  A    between atoms: N_14  and  C_20
    6  A    between atoms: N_15  and  C_22
    7  A    between atoms: C_17  and  C_44
    8  A    between atoms: C_17  and  N_61
    9  A    between atoms: C_23  and  C_59
   10  A    between atoms: C_24  and  C_27
   11  A    between atoms: O_35  and  C_44
   12  A    between atoms: O_35  and  C_48
   13  A    between atoms: O_39  and  C_56
   14  A    between atoms: O_39  and  N_61
   15  A    between atoms: C_49  and  C_56
   16  A    between atoms: C_49  and  C_58
   17  A    between atoms: C_58  and  C_62
   18  A    between atoms: C_62  and  C_63
                            x       y       z     vdW  Elec       q    Type
                         _______ _______ _______ _____ _____    ______ ____

>  <TORSDO>
F 18

$$$$
=
 OpenBabel10232411393D

 63 68  0  0  1  0  0  0  0  0999 V2000
  187.1700  177.1900  137.8620 C   0  0  0  0  0  1  0  0  0  0  0  0
  186.6140  177.6060  143.3380 O   0  0  0  0  0  0  0  0  0  0  0  0
  185.0730  177.5900  145.0370 O   0  0  0  0  0  1  0  0  0  0  0  0
  187.7980  178.0250  143.9660 C   0  0  1  0  0  3  0  0  0  0  0  0
  184.3060  180.3350  138.6540 O   0  0  0  0  0  1  0  0  0  0  0  0
  191.5330  178.3390  142.8130 C   0  0  0  0  0  2  0  0  0  0  0  0
  191.4130  177.0530  142.0220 C   0  0  1  0  0  3  0  0  0  0  0  0
  190.3190  178.4950  143.7100 C   0  0  2  0  0  3  0  0  0  0  0  0
  189.3520  177.4330  145.8380 N   0  0  0  0  0  0  0  0  0  0  0  0
  184.9100  178.4280  139.9110 C   0  0  0  0  0  2  0  0  0  0  0  0
  188.0160  177.5450  140.7580 C   0  0  0  0  0  2  0  0  0  0  0  0
  188.1970  177.0940  145.0690 C   0  0  0  0  0  0  0  0  0  0  0  0
  189.0800  177.1340  141.8100 C   0  0  2  0  0  0  0  0  0  0  0  0
  184.0310  177.4280  142.3610 O   0  0  0  0  0  0  0  0  0  0  0  0
  190.5000  177.8160  145.0590 C   0  0  0  0  0  0  0  0  0  0  0  0
  185.5780  178.3210  143.9590 C   0  0  2  0  0  3  0  0  0  0  0  0
  191.6610  177.6560  145.5270 O   0  0  0  0  0  0  0  0  0  0  0  0
  187.6260  178.5500  138.3950 C   0  0  2  0  0  3  0  0  0  0  0  0
  188.5390  178.4640  139.6320 C   0  0  1  0  0  3  0  0  0  0  0  0
  184.4730  178.6110  142.9680 C   0  0  0  0  0  2  0  0  0  0  0  0
  183.0060  177.8480  141.5030 C   0  0  0  0  0  2  0  0  0  0  0  0
  188.9310  179.8400  140.1530 C   0  0  0  0  0  1  0  0  0  0  0  0
  188.9870  178.1760  142.9770 C   0  0  1  0  0  3  0  0  0  0  0  0
  187.6870  175.9470  145.1630 O   0  0  0  0  0  0  0  0  0  0  0  0
  185.1020  179.1970  138.6150 C   0  0  2  0  0  3  0  0  0  0  0  0
  190.3290  177.1710  141.1350 O   0  0  0  0  0  0  0  0  0  0  0  0
  186.5440  179.6520  138.4520 C   0  0  0  0  0  2  0  0  0  0  0  0
  183.4650  177.9340  140.0420 C   0  0  2  0  0  3  0  0  0  0  0  0
  187.9570  179.7150  148.1710 C   0  0  0  0  0  2  0  0  0  0  0  0
  187.0910  178.8430  147.2770 C   0  0  2  0  0  3  0  0  0  0  0  0
  189.4420  177.0770  147.2730 C   0  0  1  0  0  3  0  0  0  0  0  0
  189.9730  178.2000  148.1880 C   0  0  0  0  0  2  0  0  0  0  0  0
  188.1240  176.5170  147.8420 C   0  0  0  0  0  3  0  0  0  0  0  0
  189.4290  179.5710  147.8190 C   0  0  0  0  0  2  0  0  0  0  0  0
  185.7430  179.5060  147.0850 C   0  0  0  0  0  1  0  0  0  0  0  0
  186.9040  177.4570  147.8910 C   0  0  0  0  0  3  0  0  0  0  0  0
  188.8430  175.6910  142.3380 C   0  0  0  0  0  2  0  0  0  0  0  0
  190.0550  175.0090  142.9740 C   0  0  0  0  0  1  0  0  0  0  0  0
  183.2570  176.6320  139.3300 C   0  0  0  0  0  3  0  0  0  0  0  0
  183.1160  176.6140  138.0530 N   0  0  0  0  0  0  0  0  0  0  0  0
  182.8450  175.1430  137.2110 S   0  0  0  0  0  0  0  0  0  0  0  0
  182.5070  175.4350  135.7740 O   0  0  0  0  0  0  0  0  0  0  0  0
  181.7060  174.4050  137.8530 O   0  0  0  0  0  0  0  0  0  0  0  0
  184.3150  174.2120  137.2480 N   0  0  0  0  0  2  0  0  0  0  0  0
  184.0130  172.8140  136.9660 C   0  0  0  0  0  2  0  0  0  0  0  0
  185.2880  172.0720  136.5920 C   0  0  0  0  0  2  0  0  0  0  0  0
  186.1070  172.8960  135.8220 O   0  0  0  0  0  1  0  0  0  0  0  0
  192.6820  176.8760  141.2040 C   0  0  0  0  0  2  0  0  0  0  0  0
  192.5350  177.4370  139.9310 O   0  0  0  0  0  0  0  0  0  0  0  0
  192.4890  176.3570  139.0400 C   0  0  2  0  0  3  0  0  0  0  0  0
  193.7950  176.3040  138.2670 C   0  0  0  0  0  1  0  0  0  0  0  0
  191.3100  176.5150  138.0850 C   0  0  0  0  0  2  0  0  0  0  0  0
  190.4450  175.3410  138.1560 N   0  0  0  0  0  2  0  0  0  0  0  0
  190.4530  174.7690  136.9280 O   0  0  0  0  0  0  0  0  0  0  0  0
  191.4210  173.7610  137.0130 C   0  0  0  0  0  2  0  0  0  0  0  0
  191.9020  173.3660  135.6220 C   0  0  0  0  0  2  0  0  0  0  0  0
  193.2720  171.8550  134.3460 O   0  0  0  0  0  0  0  0  0  0  0  0
  192.6050  170.8950  135.1370 C   0  0  0  0  0  2  0  0  0  0  0  0
  192.9400  172.2450  135.6530 C   0  0  2  0  0  0  0  0  0  0  0  0
  194.2000  172.3950  136.4910 C   0  0  0  0  0  2  0  0  0  0  0  0
  196.4130  173.4530  136.5440 C   0  0  0  0  0  2  0  0  0  0  0  0
  195.4950  174.3280  135.9340 O   0  0  0  0  0  0  0  0  0  0  0  0
  195.3450  172.9520  135.6600 C   0  0  2  0  0  3  0  0  0  0  0  0
  2 16  1  0  0  0  0
  4  2  1  6  0  0  0
  4 12  1  0  0  0  0
  7 48  1  6  0  0  0
  7  6  1  0  0  0  0
  8  6  1  6  0  0  0
  8 15  1  0  0  0  0
  9 31  1  0  0  0  0
 10 28  1  0  0  0  0
 11 13  1  0  0  0  0
 12 24  2  0  0  0  0
 12  9  1  0  0  0  0
 13 37  1  1  0  0  0
 13 23  1  0  0  0  0
 14 20  1  0  0  0  0
 15 17  2  0  0  0  0
 15  9  1  0  0  0  0
 16  3  1  1  0  0  0
 18  1  1  1  0  0  0
 18 27  1  0  0  0  0
 18 19  1  0  0  0  0
 19 22  1  1  0  0  0
 19 11  1  0  0  0  0
 20 16  1  0  0  0  0
 21 14  1  0  0  0  0
 23  8  1  0  0  0  0
 23  4  1  0  0  0  0
 25  5  1  0  0  0  0
 25 10  1  0  0  0  0
 26 13  1  0  0  0  0
 26  7  1  0  0  0  0
 27 25  1  0  0  0  0
 28 21  1  0  0  0  0
 30 36  1  0  0  0  0
 30 29  1  0  0  0  0
 31 33  1  0  0  0  0
 31 32  1  0  0  0  0
 33 36  2  0  0  0  0
 34 29  1  0  0  0  0
 34 32  1  0  0  0  0
 35 30  1  0  0  0  0
 37 38  1  0  0  0  0
 39 28  1  0  0  0  0
 40 39  2  0  0  0  0
 41 44  1  0  0  0  0
 41 43  2  0  0  0  0
 41 40  1  0  0  0  0
 42 41  2  0  0  0  0
 45 44  1  0  0  0  0
 46 45  1  0  0  0  0
 47 46  1  0  0  0  0
 49 48  1  0  0  0  0
 50 49  1  0  0  0  0
 51 50  1  0  0  0  0
 52 53  1  0  0  0  0
 52 50  1  0  0  0  0
 54 55  1  0  0  0  0
 54 53  1  0  0  0  0
 56 59  1  0  0  0  0
 56 55  1  0  0  0  0
 57 58  1  0  0  0  0
 57 59  1  0  0  0  0
 58 59  1  0  0  0  0
 59 60  1  0  0  0  0
 62 61  1  0  0  0  0
 63 62  1  0  0  0  0
 63 60  1  0  0  0  0
 63 61  1  0  0  0  0
M  END
>  <MODEL>
4

>  <REMARK>
 VINA RESULT:      -2.7      3.571     10.744
  Name = 
  18 active torsions:
  status: ('A' for Active; 'I' for Inactive)
    1  A    between atoms: C_3  and  C_20
    2  A    between atoms: S_4  and  N_14
    3  A    between atoms: S_4  and  N_55
    4  A    between atoms: C_12  and  C_48
    5  A    between atoms: N_14  and  C_20
    6  A    between atoms: N_15  and  C_22
    7  A    between atoms: C_17  and  C_44
    8  A    between atoms: C_17  and  N_61
    9  A    between atoms: C_23  and  C_59
   10  A    between atoms: C_24  and  C_27
   11  A    between atoms: O_35  and  C_44
   12  A    between atoms: O_35  and  C_48
   13  A    between atoms: O_39  and  C_56
   14  A    between atoms: O_39  and  N_61
   15  A    between atoms: C_49  and  C_56
   16  A    between atoms: C_49  and  C_58
   17  A    between atoms: C_58  and  C_62
   18  A    between atoms: C_62  and  C_63
                            x       y       z     vdW  Elec       q    Type
                         _______ _______ _______ _____ _____    ______ ____

>  <TORSDO>
F 18

$$$$
=
 OpenBabel10232411393D

 63 68  0  0  1  0  0  0  0  0999 V2000
  187.0170  177.1600  137.9490 C   0  0  0  0  0  1  0  0  0  0  0  0
  186.6080  177.6180  143.4340 O   0  0  0  0  0  0  0  0  0  0  0  0
  185.1110  177.6300  145.1720 O   0  0  0  0  0  1  0  0  0  0  0  0
  187.8120  178.0270  144.0290 C   0  0  1  0  0  3  0  0  0  0  0  0
  184.2110  180.3430  138.7920 O   0  0  0  0  0  1  0  0  0  0  0  0
  191.5190  178.2910  142.7770 C   0  0  0  0  0  2  0  0  0  0  0  0
  191.3640  177.0010  141.9980 C   0  0  1  0  0  3  0  0  0  0  0  0
  190.3310  178.4660  143.7050 C   0  0  2  0  0  3  0  0  0  0  0  0
  189.4070  177.4290  145.8640 N   0  0  0  0  0  0  0  0  0  0  0  0
  184.8250  178.4370  140.0470 C   0  0  0  0  0  2  0  0  0  0  0  0
  187.9420  177.5240  140.8190 C   0  0  0  0  0  2  0  0  0  0  0  0
  188.2290  177.0980  145.1270 C   0  0  0  0  0  0  0  0  0  0  0  0
  189.0280  177.1080  141.8460 C   0  0  2  0  0  0  0  0  0  0  0  0
  183.9980  177.4640  142.5250 O   0  0  0  0  0  0  0  0  0  0  0  0
  190.5390  177.7940  145.0520 C   0  0  0  0  0  0  0  0  0  0  0  0
  185.5960  178.3490  144.0770 C   0  0  2  0  0  3  0  0  0  0  0  0
  191.7100  177.6240  145.4920 O   0  0  0  0  0  0  0  0  0  0  0  0
  187.5030  178.5180  138.4600 C   0  0  2  0  0  3  0  0  0  0  0  0
  188.4460  178.4300  139.6740 C   0  0  1  0  0  3  0  0  0  0  0  0
  184.4700  178.6450  143.1130 C   0  0  0  0  0  2  0  0  0  0  0  0
  182.9570  177.8890  141.6910 C   0  0  0  0  0  2  0  0  0  0  0  0
  188.8670  179.8040  140.1760 C   0  0  0  0  0  1  0  0  0  0  0  0
  188.9770  178.1580  143.0090 C   0  0  1  0  0  3  0  0  0  0  0  0
  187.7090  175.9580  145.2420 O   0  0  0  0  0  0  0  0  0  0  0  0
  184.9920  179.1950  138.7410 C   0  0  2  0  0  3  0  0  0  0  0  0
  190.2600  177.1260  141.1390 O   0  0  0  0  0  0  0  0  0  0  0  0
  186.4350  179.6330  138.5370 C   0  0  0  0  0  2  0  0  0  0  0  0
  183.3790  177.9600  140.2180 C   0  0  2  0  0  3  0  0  0  0  0  0
  188.0480  179.7150  148.2150 C   0  0  0  0  0  2  0  0  0  0  0  0
  187.1680  178.8330  147.3440 C   0  0  2  0  0  3  0  0  0  0  0  0
  189.5310  177.0820  147.2990 C   0  0  1  0  0  3  0  0  0  0  0  0
  190.0730  178.2130  148.1960 C   0  0  0  0  0  2  0  0  0  0  0  0
  188.2280  176.5160  147.8980 C   0  0  0  0  0  3  0  0  0  0  0  0
  189.5130  179.5790  147.8310 C   0  0  0  0  0  2  0  0  0  0  0  0
  185.8120  179.4860  147.1770 C   0  0  0  0  0  1  0  0  0  0  0  0
  187.0040  177.4490  147.9690 C   0  0  0  0  0  3  0  0  0  0  0  0
  188.7880  175.6710  142.3900 C   0  0  0  0  0  2  0  0  0  0  0  0
  190.0040  174.9850  143.0140 C   0  0  0  0  0  1  0  0  0  0  0  0
  183.1370  176.6560  139.5210 C   0  0  0  0  0  3  0  0  0  0  0  0
  182.2670  176.5840  138.5770 N   0  0  0  0  0  0  0  0  0  0  0  0
  181.9450  175.0990  137.7800 S   0  0  0  0  0  0  0  0  0  0  0  0
  180.8420  174.3670  138.4940 O   0  0  0  0  0  0  0  0  0  0  0  0
  183.1870  174.2560  137.7790 O   0  0  0  0  0  0  0  0  0  0  0  0
  181.4080  175.4510  136.1620 N   0  0  0  0  0  2  0  0  0  0  0  0
  182.4210  176.2420  135.4730 C   0  0  0  0  0  2  0  0  0  0  0  0
  181.8150  177.5480  134.9800 C   0  0  0  0  0  2  0  0  0  0  0  0
  180.6710  177.8470  135.7180 O   0  0  0  0  0  1  0  0  0  0  0  0
  192.6100  176.8040  141.1500 C   0  0  0  0  0  2  0  0  0  0  0  0
  192.4730  177.4400  139.9110 O   0  0  0  0  0  0  0  0  0  0  0  0
  192.2810  176.4170  138.9740 C   0  0  2  0  0  3  0  0  0  0  0  0
  193.5920  176.1650  138.2500 C   0  0  0  0  0  1  0  0  0  0  0  0
  191.1910  176.8120  137.9820 C   0  0  0  0  0  2  0  0  0  0  0  0
  191.0610  175.7910  136.9470 N   0  0  0  0  0  2  0  0  0  0  0  0
  189.8590  175.1950  137.1260 O   0  0  0  0  0  0  0  0  0  0  0  0
  189.9870  173.9440  136.5110 C   0  0  0  0  0  2  0  0  0  0  0  0
  188.7900  173.0620  136.8400 C   0  0  0  0  0  2  0  0  0  0  0  0
  187.2630  171.4190  135.9690 O   0  0  0  0  0  0  0  0  0  0  0  0
  188.4150  171.0080  135.2660 C   0  0  0  0  0  2  0  0  0  0  0  0
  188.1610  172.4320  135.5980 C   0  0  2  0  0  0  0  0  0  0  0  0
  187.5420  173.3150  134.5260 C   0  0  0  0  0  2  0  0  0  0  0  0
  185.7000  174.9260  134.3460 C   0  0  0  0  0  2  0  0  0  0  0  0
  185.9640  174.6710  135.7050 O   0  0  0  0  0  0  0  0  0  0  0  0
  186.0730  173.5800  134.8180 C   0  0  2  0  0  3  0  0  0  0  0  0
  2 16  1  0  0  0  0
  4  2  1  6  0  0  0
  4 12  1  0  0  0  0
  7 48  1  6  0  0  0
  7  6  1  0  0  0  0
  8  6  1  6  0  0  0
  8 15  1  0  0  0  0
  9 31  1  0  0  0  0
 10 28  1  0  0  0  0
 11 13  1  0  0  0  0
 12 24  2  0  0  0  0
 12  9  1  0  0  0  0
 13 37  1  1  0  0  0
 13 23  1  0  0  0  0
 14 20  1  0  0  0  0
 15 17  2  0  0  0  0
 15  9  1  0  0  0  0
 16  3  1  1  0  0  0
 18  1  1  1  0  0  0
 18 27  1  0  0  0  0
 18 19  1  0  0  0  0
 19 22  1  1  0  0  0
 19 11  1  0  0  0  0
 20 16  1  0  0  0  0
 21 14  1  0  0  0  0
 23  8  1  0  0  0  0
 23  4  1  0  0  0  0
 25  5  1  0  0  0  0
 25 10  1  0  0  0  0
 26 13  1  0  0  0  0
 26  7  1  0  0  0  0
 27 25  1  0  0  0  0
 28 21  1  0  0  0  0
 30 36  1  0  0  0  0
 30 29  1  0  0  0  0
 31 33  1  0  0  0  0
 31 32  1  0  0  0  0
 33 36  2  0  0  0  0
 34 32  1  0  0  0  0
 34 29  1  0  0  0  0
 35 30  1  0  0  0  0
 37 38  1  0  0  0  0
 39 28  1  0  0  0  0
 40 39  2  0  0  0  0
 41 42  2  0  0  0  0
 41 40  1  0  0  0  0
 43 41  2  0  0  0  0
 44 41  1  0  0  0  0
 45 44  1  0  0  0  0
 46 45  1  0  0  0  0
 46 47  1  0  0  0  0
 49 48  1  0  0  0  0
 50 49  1  0  0  0  0
 51 50  1  0  0  0  0
 52 50  1  0  0  0  0
 53 54  1  0  0  0  0
 53 52  1  0  0  0  0
 55 56  1  0  0  0  0
 55 54  1  0  0  0  0
 58 59  1  0  0  0  0
 58 57  1  0  0  0  0
 59 57  1  0  0  0  0
 59 56  1  0  0  0  0
 60 63  1  0  0  0  0
 60 59  1  0  0  0  0
 61 63  1  0  0  0  0
 61 62  1  0  0  0  0
 63 62  1  0  0  0  0
M  END
>  <MODEL>
5

>  <REMARK>
 VINA RESULT:      -2.7      4.282     11.111
  Name = 
  18 active torsions:
  status: ('A' for Active; 'I' for Inactive)
    1  A    between atoms: C_3  and  C_20
    2  A    between atoms: S_4  and  N_14
    3  A    between atoms: S_4  and  N_55
    4  A    between atoms: C_12  and  C_48
    5  A    between atoms: N_14  and  C_20
    6  A    between atoms: N_15  and  C_22
    7  A    between atoms: C_17  and  C_44
    8  A    between atoms: C_17  and  N_61
    9  A    between atoms: C_23  and  C_59
   10  A    between atoms: C_24  and  C_27
   11  A    between atoms: O_35  and  C_44
   12  A    between atoms: O_35  and  C_48
   13  A    between atoms: O_39  and  C_56
   14  A    between atoms: O_39  and  N_61
   15  A    between atoms: C_49  and  C_56
   16  A    between atoms: C_49  and  C_58
   17  A    between atoms: C_58  and  C_62
   18  A    between atoms: C_62  and  C_63
                            x       y       z     vdW  Elec       q    Type
                         _______ _______ _______ _____ _____    ______ ____

>  <TORSDO>
F 18

$$$$
=
 OpenBabel10232411393D

 63 68  0  0  1  0  0  0  0  0999 V2000
  186.8720  177.0510  138.0510 C   0  0  0  0  0  1  0  0  0  0  0  0
  186.4950  177.6760  143.5220 O   0  0  0  0  0  0  0  0  0  0  0  0
  185.0070  177.7570  145.2660 O   0  0  0  0  0  1  0  0  0  0  0  0
  187.7070  178.0880  144.0990 C   0  0  1  0  0  3  0  0  0  0  0  0
  184.1080  180.2900  138.8130 O   0  0  0  0  0  1  0  0  0  0  0  0
  191.4110  178.2710  142.8230 C   0  0  0  0  0  2  0  0  0  0  0  0
  191.2370  176.9610  142.0830 C   0  0  1  0  0  3  0  0  0  0  0  0
  190.2300  178.4870  143.7500 C   0  0  2  0  0  3  0  0  0  0  0  0
  189.3050  177.5260  145.9440 N   0  0  0  0  0  0  0  0  0  0  0  0
  184.7060  178.4150  140.1200 C   0  0  0  0  0  2  0  0  0  0  0  0
  187.8150  177.4890  140.9050 C   0  0  0  0  0  2  0  0  0  0  0  0
  188.1190  177.1870  145.2220 C   0  0  0  0  0  0  0  0  0  0  0  0
  188.9010  177.0900  141.9390 C   0  0  2  0  0  0  0  0  0  0  0  0
  183.8800  177.5250  142.6300 O   0  0  0  0  0  0  0  0  0  0  0  0
  190.4360  177.8530  145.1160 C   0  0  0  0  0  0  0  0  0  0  0  0
  185.4960  178.4380  144.1480 C   0  0  2  0  0  3  0  0  0  0  0  0
  191.6080  177.6820  145.5550 O   0  0  0  0  0  0  0  0  0  0  0  0
  187.3760  178.4180  138.5200 C   0  0  2  0  0  3  0  0  0  0  0  0
  188.3250  178.3540  139.7310 C   0  0  1  0  0  3  0  0  0  0  0  0
  184.3680  178.7180  143.1800 C   0  0  0  0  0  2  0  0  0  0  0  0
  182.8390  177.9380  141.7890 C   0  0  0  0  0  2  0  0  0  0  0  0
  188.7640  179.7370  140.1900 C   0  0  0  0  0  1  0  0  0  0  0  0
  188.8680  178.1750  143.0700 C   0  0  1  0  0  3  0  0  0  0  0  0
  187.5860  176.0570  145.3730 O   0  0  0  0  0  0  0  0  0  0  0  0
  184.8750  179.1320  138.7920 C   0  0  2  0  0  3  0  0  0  0  0  0
  190.1300  177.0730  141.2260 O   0  0  0  0  0  0  0  0  0  0  0  0
  186.3220  179.5470  138.5690 C   0  0  0  0  0  2  0  0  0  0  0  0
  183.2550  177.9610  140.3130 C   0  0  2  0  0  3  0  0  0  0  0  0
  187.8870  179.8420  148.2290 C   0  0  0  0  0  2  0  0  0  0  0  0
  187.0300  178.9180  147.3800 C   0  0  2  0  0  3  0  0  0  0  0  0
  189.4310  177.2200  147.3870 C   0  0  1  0  0  3  0  0  0  0  0  0
  189.9460  178.3870  148.2560 C   0  0  0  0  0  2  0  0  0  0  0  0
  188.1400  176.6410  147.9990 C   0  0  0  0  0  3  0  0  0  0  0  0
  189.3560  179.7290  147.8530 C   0  0  0  0  0  2  0  0  0  0  0  0
  185.6610  179.5370  147.1920 C   0  0  0  0  0  1  0  0  0  0  0  0
  186.8950  177.5490  148.0410 C   0  0  0  0  0  3  0  0  0  0  0  0
  188.6480  175.6730  142.5270 C   0  0  0  0  0  2  0  0  0  0  0  0
  189.8850  174.9330  143.0360 C   0  0  0  0  0  1  0  0  0  0  0  0
  182.9950  176.6390  139.6550 C   0  0  0  0  0  3  0  0  0  0  0  0
  182.3580  176.5920  138.5390 N   0  0  0  0  0  0  0  0  0  0  0  0
  182.0170  175.0930  137.7770 S   0  0  0  0  0  0  0  0  0  0  0  0
  180.9840  174.3410  138.5720 O   0  0  0  0  0  0  0  0  0  0  0  0
  183.2760  174.2790  137.6940 O   0  0  0  0  0  0  0  0  0  0  0  0
  181.3590  175.4180  136.1980 N   0  0  0  0  0  2  0  0  0  0  0  0
  182.3460  176.1310  135.3970 C   0  0  0  0  0  2  0  0  0  0  0  0
  181.7150  177.3690  134.7750 C   0  0  0  0  0  2  0  0  0  0  0  0
  181.8520  178.4540  135.6390 O   0  0  0  0  0  1  0  0  0  0  0  0
  192.4760  176.7230  141.2350 C   0  0  0  0  0  2  0  0  0  0  0  0
  192.6570  177.7650  140.3190 O   0  0  0  0  0  0  0  0  0  0  0  0
  192.9130  177.1500  139.0860 C   0  0  2  0  0  3  0  0  0  0  0  0
  191.6350  176.4930  138.5930 C   0  0  0  0  0  1  0  0  0  0  0  0
  194.0210  176.1130  139.2370 C   0  0  0  0  0  2  0  0  0  0  0  0
  194.2240  175.4090  137.9740 N   0  0  0  0  0  2  0  0  0  0  0  0
  194.4290  176.3500  137.0230 O   0  0  0  0  0  0  0  0  0  0  0  0
  194.4840  175.6340  135.8210 C   0  0  0  0  0  2  0  0  0  0  0  0
  195.7900  175.9190  135.0910 C   0  0  0  0  0  2  0  0  0  0  0  0
  197.6220  175.5330  136.6020 O   0  0  0  0  0  0  0  0  0  0  0  0
  198.3370  175.4090  135.3920 C   0  0  0  0  0  2  0  0  0  0  0  0
  196.9210  174.9840  135.5170 C   0  0  2  0  0  0  0  0  0  0  0  0
  196.6390  173.5100  135.7670 C   0  0  0  0  0  2  0  0  0  0  0  0
  197.3280  171.7630  137.3450 C   0  0  0  0  0  2  0  0  0  0  0  0
  195.9830  172.1020  137.5850 O   0  0  0  0  0  0  0  0  0  0  0  0
  196.8520  173.1550  137.2300 C   0  0  2  0  0  3  0  0  0  0  0  0
  2 16  1  0  0  0  0
  4  2  1  6  0  0  0
  4 12  1  0  0  0  0
  7 48  1  6  0  0  0
  7  6  1  0  0  0  0
  8  6  1  6  0  0  0
  8 15  1  0  0  0  0
  9 31  1  0  0  0  0
 10 28  1  0  0  0  0
 11 13  1  0  0  0  0
 12 24  2  0  0  0  0
 12  9  1  0  0  0  0
 13 37  1  1  0  0  0
 13 23  1  0  0  0  0
 14 20  1  0  0  0  0
 15 17  2  0  0  0  0
 15  9  1  0  0  0  0
 16  3  1  1  0  0  0
 18  1  1  1  0  0  0
 18 27  1  0  0  0  0
 18 19  1  0  0  0  0
 19 22  1  1  0  0  0
 19 11  1  0  0  0  0
 20 16  1  0  0  0  0
 21 14  1  0  0  0  0
 23  8  1  0  0  0  0
 23  4  1  0  0  0  0
 25  5  1  0  0  0  0
 25 10  1  0  0  0  0
 26 13  1  0  0  0  0
 26  7  1  0  0  0  0
 27 25  1  0  0  0  0
 28 21  1  0  0  0  0
 30 36  1  0  0  0  0
 30 29  1  0  0  0  0
 31 33  1  0  0  0  0
 31 32  1  0  0  0  0
 33 36  2  0  0  0  0
 34 29  1  0  0  0  0
 34 32  1  0  0  0  0
 35 30  1  0  0  0  0
 37 38  1  0  0  0  0
 39 28  1  0  0  0  0
 40 39  2  0  0  0  0
 41 40  1  0  0  0  0
 41 42  2  0  0  0  0
 43 41  2  0  0  0  0
 44 41  1  0  0  0  0
 45 44  1  0  0  0  0
 46 45  1  0  0  0  0
 46 47  1  0  0  0  0
 49 48  1  0  0  0  0
 50 52  1  0  0  0  0
 50 49  1  0  0  0  0
 51 50  1  0  0  0  0
 53 52  1  0  0  0  0
 54 53  1  0  0  0  0
 55 54  1  0  0  0  0
 56 59  1  0  0  0  0
 56 55  1  0  0  0  0
 58 59  1  0  0  0  0
 58 57  1  0  0  0  0
 59 60  1  0  0  0  0
 59 57  1  0  0  0  0
 60 63  1  0  0  0  0
 61 62  1  0  0  0  0
 63 61  1  0  0  0  0
 63 62  1  0  0  0  0
M  END
>  <MODEL>
6

>  <REMARK>
 VINA RESULT:      -2.6      4.006     11.294
  Name = 
  18 active torsions:
  status: ('A' for Active; 'I' for Inactive)
    1  A    between atoms: C_3  and  C_20
    2  A    between atoms: S_4  and  N_14
    3  A    between atoms: S_4  and  N_55
    4  A    between atoms: C_12  and  C_48
    5  A    between atoms: N_14  and  C_20
    6  A    between atoms: N_15  and  C_22
    7  A    between atoms: C_17  and  C_44
    8  A    between atoms: C_17  and  N_61
    9  A    between atoms: C_23  and  C_59
   10  A    between atoms: C_24  and  C_27
   11  A    between atoms: O_35  and  C_44
   12  A    between atoms: O_35  and  C_48
   13  A    between atoms: O_39  and  C_56
   14  A    between atoms: O_39  and  N_61
   15  A    between atoms: C_49  and  C_56
   16  A    between atoms: C_49  and  C_58
   17  A    between atoms: C_58  and  C_62
   18  A    between atoms: C_62  and  C_63
                            x       y       z     vdW  Elec       q    Type
                         _______ _______ _______ _____ _____    ______ ____

>  <TORSDO>
F 18

$$$$
=
 OpenBabel10232411393D

 63 68  0  0  1  0  0  0  0  0999 V2000
  187.1440  177.1050  137.9530 C   0  0  0  0  0  1  0  0  0  0  0  0
  186.6710  177.6170  143.4280 O   0  0  0  0  0  0  0  0  0  0  0  0
  185.1530  177.6550  145.1470 O   0  0  0  0  0  1  0  0  0  0  0  0
  187.8710  178.0250  144.0330 C   0  0  1  0  0  3  0  0  0  0  0  0
  184.3480  180.3120  138.7320 O   0  0  0  0  0  1  0  0  0  0  0  0
  191.5950  178.2550  142.8250 C   0  0  0  0  0  2  0  0  0  0  0  0
  191.4410  176.9590  142.0560 C   0  0  1  0  0  3  0  0  0  0  0  0
  190.3960  178.4460  143.7360 C   0  0  2  0  0  3  0  0  0  0  0  0
  189.4400  177.4350  145.8940 N   0  0  0  0  0  0  0  0  0  0  0  0
  184.9350  178.4150  140.0120 C   0  0  0  0  0  2  0  0  0  0  0  0
  188.0360  177.4910  140.8310 C   0  0  0  0  0  2  0  0  0  0  0  0
  188.2680  177.1040  145.1450 C   0  0  0  0  0  0  0  0  0  0  0  0
  189.1070  177.0780  141.8750 C   0  0  2  0  0  0  0  0  0  0  0  0
  184.0720  177.4700  142.4890 O   0  0  0  0  0  0  0  0  0  0  0  0
  190.5830  177.7860  145.0930 C   0  0  0  0  0  0  0  0  0  0  0  0
  185.6570  178.3610  144.0520 C   0  0  2  0  0  3  0  0  0  0  0  0
  191.7480  177.6120  145.5480 O   0  0  0  0  0  0  0  0  0  0  0  0
  187.6320  178.4650  138.4570 C   0  0  2  0  0  3  0  0  0  0  0  0
  188.5600  178.3820  139.6830 C   0  0  1  0  0  3  0  0  0  0  0  0
  184.5440  178.6530  143.0710 C   0  0  0  0  0  2  0  0  0  0  0  0
  183.0440  177.8940  141.6380 C   0  0  0  0  0  2  0  0  0  0  0  0
  188.9830  179.7590  140.1770 C   0  0  0  0  0  1  0  0  0  0  0  0
  189.0480  178.1390  143.0270 C   0  0  1  0  0  3  0  0  0  0  0  0
  187.7410  175.9680  145.2650 O   0  0  0  0  0  0  0  0  0  0  0  0
  185.1220  179.1590  138.7010 C   0  0  2  0  0  3  0  0  0  0  0  0
  190.3480  177.0820  141.1830 O   0  0  0  0  0  0  0  0  0  0  0  0
  186.5700  179.5870  138.5110 C   0  0  0  0  0  2  0  0  0  0  0  0
  183.4840  177.9480  140.1700 C   0  0  2  0  0  3  0  0  0  0  0  0
  188.0680  179.7520  148.2060 C   0  0  0  0  0  2  0  0  0  0  0  0
  187.1930  178.8670  147.3330 C   0  0  2  0  0  3  0  0  0  0  0  0
  189.5440  177.1010  147.3330 C   0  0  1  0  0  3  0  0  0  0  0  0
  190.0830  178.2370  148.2260 C   0  0  0  0  0  2  0  0  0  0  0  0
  188.2310  176.5490  147.9220 C   0  0  0  0  0  3  0  0  0  0  0  0
  189.5360  179.6020  147.8420 C   0  0  0  0  0  2  0  0  0  0  0  0
  185.8430  179.5280  147.1440 C   0  0  0  0  0  1  0  0  0  0  0  0
  187.0120  177.4910  147.9690 C   0  0  0  0  0  3  0  0  0  0  0  0
  188.8530  175.6470  142.4300 C   0  0  0  0  0  2  0  0  0  0  0  0
  190.0730  174.9330  143.0100 C   0  0  0  0  0  1  0  0  0  0  0  0
  183.2430  176.6390  139.4820 C   0  0  0  0  0  3  0  0  0  0  0  0
  182.5200  176.5950  138.4200 N   0  0  0  0  0  0  0  0  0  0  0  0
  182.2000  175.1080  137.6260 S   0  0  0  0  0  0  0  0  0  0  0  0
  180.9860  174.4580  138.2340 O   0  0  0  0  0  0  0  0  0  0  0  0
  183.3840  174.1980  137.7790 O   0  0  0  0  0  0  0  0  0  0  0  0
  181.8600  175.4420  135.9520 N   0  0  0  0  0  2  0  0  0  0  0  0
  181.9270  176.8790  135.7190 C   0  0  0  0  0  2  0  0  0  0  0  0
  183.1170  177.2070  134.8280 C   0  0  0  0  0  2  0  0  0  0  0  0
  184.3020  176.8710  135.4790 O   0  0  0  0  0  1  0  0  0  0  0  0
  192.6960  176.7460  141.2250 C   0  0  0  0  0  2  0  0  0  0  0  0
  192.7840  177.7000  140.2060 O   0  0  0  0  0  0  0  0  0  0  0  0
  192.9840  176.9790  139.0220 C   0  0  2  0  0  3  0  0  0  0  0  0
  191.6420  176.7780  138.3390 C   0  0  0  0  0  1  0  0  0  0  0  0
  193.6310  175.6330  139.3310 C   0  0  0  0  0  2  0  0  0  0  0  0
  194.9840  175.5890  138.7830 N   0  0  0  0  0  2  0  0  0  0  0  0
  194.8640  175.4960  137.4380 O   0  0  0  0  0  0  0  0  0  0  0  0
  194.3500  174.2120  137.2160 C   0  0  0  0  0  2  0  0  0  0  0  0
  193.7030  174.1270  135.8400 C   0  0  0  0  0  2  0  0  0  0  0  0
  192.8920  171.8770  136.0960 O   0  0  0  0  0  0  0  0  0  0  0  0
  192.4000  172.1150  134.7960 C   0  0  0  0  0  2  0  0  0  0  0  0
  192.4950  173.1930  135.8120 C   0  0  2  0  0  0  0  0  0  0  0  0
  191.2410  173.5430  136.5990 C   0  0  0  0  0  2  0  0  0  0  0  0
  188.8630  174.1290  136.4450 C   0  0  0  0  0  2  0  0  0  0  0  0
  189.0870  172.9140  135.7700 O   0  0  0  0  0  0  0  0  0  0  0  0
  190.0930  173.8970  135.6650 C   0  0  2  0  0  3  0  0  0  0  0  0
  2 16  1  0  0  0  0
  4  2  1  6  0  0  0
  4 12  1  0  0  0  0
  7 48  1  6  0  0  0
  7  6  1  0  0  0  0
  8  6  1  6  0  0  0
  8 15  1  0  0  0  0
  9 31  1  0  0  0  0
 10 28  1  0  0  0  0
 11 13  1  0  0  0  0
 12 24  2  0  0  0  0
 12  9  1  0  0  0  0
 13 37  1  1  0  0  0
 13 23  1  0  0  0  0
 14 20  1  0  0  0  0
 15 17  2  0  0  0  0
 15  9  1  0  0  0  0
 16  3  1  1  0  0  0
 18  1  1  1  0  0  0
 18 27  1  0  0  0  0
 18 19  1  0  0  0  0
 19 22  1  1  0  0  0
 19 11  1  0  0  0  0
 20 16  1  0  0  0  0
 21 14  1  0  0  0  0
 23  8  1  0  0  0  0
 23  4  1  0  0  0  0
 25  5  1  0  0  0  0
 25 10  1  0  0  0  0
 26 13  1  0  0  0  0
 26  7  1  0  0  0  0
 27 25  1  0  0  0  0
 28 21  1  0  0  0  0
 30 36  1  0  0  0  0
 30 29  1  0  0  0  0
 31 33  1  0  0  0  0
 31 32  1  0  0  0  0
 33 36  2  0  0  0  0
 34 29  1  0  0  0  0
 34 32  1  0  0  0  0
 35 30  1  0  0  0  0
 37 38  1  0  0  0  0
 39 28  1  0  0  0  0
 40 39  2  0  0  0  0
 41 43  2  0  0  0  0
 41 42  2  0  0  0  0
 41 40  1  0  0  0  0
 44 41  1  0  0  0  0
 45 44  1  0  0  0  0
 46 47  1  0  0  0  0
 46 45  1  0  0  0  0
 49 48  1  0  0  0  0
 50 52  1  0  0  0  0
 50 49  1  0  0  0  0
 51 50  1  0  0  0  0
 53 52  1  0  0  0  0
 54 53  1  0  0  0  0
 55 54  1  0  0  0  0
 56 55  1  0  0  0  0
 58 59  1  0  0  0  0
 58 57  1  0  0  0  0
 59 56  1  0  0  0  0
 59 57  1  0  0  0  0
 59 60  1  0  0  0  0
 62 61  1  0  0  0  0
 63 62  1  0  0  0  0
 63 61  1  0  0  0  0
 63 60  1  0  0  0  0
M  END
>  <MODEL>
7

>  <REMARK>
 VINA RESULT:      -2.3      3.515     10.877
  Name = 
  18 active torsions:
  status: ('A' for Active; 'I' for Inactive)
    1  A    between atoms: C_3  and  C_20
    2  A    between atoms: S_4  and  N_14
    3  A    between atoms: S_4  and  N_55
    4  A    between atoms: C_12  and  C_48
    5  A    between atoms: N_14  and  C_20
    6  A    between atoms: N_15  and  C_22
    7  A    between atoms: C_17  and  C_44
    8  A    between atoms: C_17  and  N_61
    9  A    between atoms: C_23  and  C_59
   10  A    between atoms: C_24  and  C_27
   11  A    between atoms: O_35  and  C_44
   12  A    between atoms: O_35  and  C_48
   13  A    between atoms: O_39  and  C_56
   14  A    between atoms: O_39  and  N_61
   15  A    between atoms: C_49  and  C_56
   16  A    between atoms: C_49  and  C_58
   17  A    between atoms: C_58  and  C_62
   18  A    between atoms: C_62  and  C_63
                            x       y       z     vdW  Elec       q    Type
                         _______ _______ _______ _____ _____    ______ ____

>  <TORSDO>
F 18

$$$$
=
 OpenBabel10232411393D

 63 68  0  0  1  0  0  0  0  0999 V2000
  187.7070  176.2210  137.8960 C   0  0  0  0  0  1  0  0  0  0  0  0
  186.5570  178.0060  142.9910 O   0  0  0  0  0  0  0  0  0  0  0  0
  184.8340  178.4570  144.4360 O   0  0  0  0  0  1  0  0  0  0  0  0
  187.6840  178.5340  143.6400 C   0  0  1  0  0  3  0  0  0  0  0  0
  184.9600  179.5430  137.5320 O   0  0  0  0  0  1  0  0  0  0  0  0
  191.5380  178.4460  142.9200 C   0  0  0  0  0  2  0  0  0  0  0  0
  191.4340  177.0070  142.4580 C   0  0  1  0  0  3  0  0  0  0  0  0
  190.2410  178.8540  143.5930 C   0  0  2  0  0  3  0  0  0  0  0  0
  188.9780  178.3840  145.7790 N   0  0  0  0  0  0  0  0  0  0  0  0
  185.3050  177.9940  139.2820 C   0  0  0  0  0  2  0  0  0  0  0  0
  188.2370  177.2630  140.6990 C   0  0  0  0  0  2  0  0  0  0  0  0
  187.9000  177.8970  144.9770 C   0  0  0  0  0  0  0  0  0  0  0  0
  189.1490  177.0980  141.9440 C   0  0  2  0  0  0  0  0  0  0  0  0
  184.0960  177.6620  141.7730 O   0  0  0  0  0  0  0  0  0  0  0  0
  190.2280  178.5290  145.0790 C   0  0  0  0  0  0  0  0  0  0  0  0
  185.5010  178.8820  143.2840 C   0  0  2  0  0  3  0  0  0  0  0  0
  191.3170  178.4580  145.7130 O   0  0  0  0  0  0  0  0  0  0  0  0
  188.1790  177.6570  138.1330 C   0  0  2  0  0  3  0  0  0  0  0  0
  188.9380  177.8570  139.4580 C   0  0  1  0  0  3  0  0  0  0  0  0
  184.5350  178.9460  142.1230 C   0  0  0  0  0  2  0  0  0  0  0  0
  183.2020  177.8830  140.7180 C   0  0  0  0  0  2  0  0  0  0  0  0
  189.3470  179.3080  139.6720 C   0  0  0  0  0  1  0  0  0  0  0  0
  188.9850  178.4000  142.8010 C   0  0  1  0  0  3  0  0  0  0  0  0
  187.3180  176.8240  145.2850 O   0  0  0  0  0  0  0  0  0  0  0  0
  185.6870  178.4090  137.8720 C   0  0  2  0  0  3  0  0  0  0  0  0
  190.4670  176.9300  141.4420 O   0  0  0  0  0  0  0  0  0  0  0  0
  187.1630  178.7690  137.7830 C   0  0  0  0  0  2  0  0  0  0  0  0
  183.8280  177.5890  139.3490 C   0  0  2  0  0  3  0  0  0  0  0  0
  189.7690  175.3730  147.4840 C   0  0  0  0  0  2  0  0  0  0  0  0
  190.8370  176.2380  146.8340 C   0  0  2  0  0  3  0  0  0  0  0  0
  188.8840  178.3960  147.2570 C   0  0  1  0  0  3  0  0  0  0  0  0
  188.0940  177.2190  147.8660 C   0  0  0  0  0  2  0  0  0  0  0  0
  190.2550  178.5220  147.9500 C   0  0  0  0  0  3  0  0  0  0  0  0
  188.3760  175.8950  147.1720 C   0  0  0  0  0  2  0  0  0  0  0  0
  192.0360  175.3790  146.4890 C   0  0  0  0  0  1  0  0  0  0  0  0
  191.2600  177.3680  147.7700 C   0  0  0  0  0  3  0  0  0  0  0  0
  188.7700  175.8390  142.7750 C   0  0  0  0  0  2  0  0  0  0  0  0
  189.9430  175.0420  143.3460 C   0  0  0  0  0  1  0  0  0  0  0  0
  183.6270  176.1570  138.9560 C   0  0  0  0  0  3  0  0  0  0  0  0
  183.6920  175.8150  137.7190 N   0  0  0  0  0  0  0  0  0  0  0  0
  183.4350  174.1900  137.2330 S   0  0  0  0  0  0  0  0  0  0  0  0
  182.0340  173.7680  137.5860 O   0  0  0  0  0  0  0  0  0  0  0  0
  184.4180  173.2990  137.9380 O   0  0  0  0  0  0  0  0  0  0  0  0
  183.6130  174.0990  135.5040 N   0  0  0  0  0  2  0  0  0  0  0  0
  185.0290  174.0600  135.1610 C   0  0  0  0  0  2  0  0  0  0  0  0
  185.4700  175.4120  134.6180 C   0  0  0  0  0  2  0  0  0  0  0  0
  186.8620  175.4710  134.5690 O   0  0  0  0  0  1  0  0  0  0  0  0
  192.7760  176.5950  141.8740 C   0  0  0  0  0  2  0  0  0  0  0  0
  193.0330  177.2880  140.6850 O   0  0  0  0  0  0  0  0  0  0  0  0
  193.4660  176.3230  139.7670 C   0  0  2  0  0  3  0  0  0  0  0  0
  194.9500  176.0800  139.9750 C   0  0  0  0  0  1  0  0  0  0  0  0
  193.1980  176.7980  138.3420 C   0  0  0  0  0  2  0  0  0  0  0  0
  192.2830  175.8810  137.6700 N   0  0  0  0  0  2  0  0  0  0  0  0
  193.0340  175.0820  136.8760 O   0  0  0  0  0  0  0  0  0  0  0  0
  193.9070  175.9580  136.2170 C   0  0  0  0  0  2  0  0  0  0  0  0
  194.7190  175.2110  135.1670 C   0  0  0  0  0  2  0  0  0  0  0  0
  196.4500  175.4170  136.8250 O   0  0  0  0  0  0  0  0  0  0  0  0
  197.2690  175.4820  135.6780 C   0  0  0  0  0  2  0  0  0  0  0  0
  196.0330  174.6610  135.7180 C   0  0  2  0  0  0  0  0  0  0  0  0
  196.1740  173.1750  136.0150 C   0  0  0  0  0  2  0  0  0  0  0  0
  195.8780  171.4330  137.7160 C   0  0  0  0  0  2  0  0  0  0  0  0
  194.6210  171.7900  137.1940 O   0  0  0  0  0  0  0  0  0  0  0  0
  195.5600  172.8290  137.3630 C   0  0  2  0  0  3  0  0  0  0  0  0
  2 16  1  0  0  0  0
  4  2  1  6  0  0  0
  4 12  1  0  0  0  0
  5 25  1  0  0  0  0
  7 48  1  6  0  0  0
  7  6  1  0  0  0  0
  8  6  1  6  0  0  0
  8 15  1  0  0  0  0
  9 31  1  0  0  0  0
 10 28  1  0  0  0  0
 11 13  1  0  0  0  0
 12 24  2  0  0  0  0
 12  9  1  0  0  0  0
 13 37  1  1  0  0  0
 13 23  1  0  0  0  0
 14 20  1  0  0  0  0
 15 17  2  0  0  0  0
 15  9  1  0  0  0  0
 16  3  1  1  0  0  0
 18  1  1  1  0  0  0
 18 19  1  0  0  0  0
 19 22  1  1  0  0  0
 19 11  1  0  0  0  0
 20 16  1  0  0  0  0
 21 14  1  0  0  0  0
 23  8  1  0  0  0  0
 23  4  1  0  0  0  0
 25 10  1  0  0  0  0
 26 13  1  0  0  0  0
 26  7  1  0  0  0  0
 27 25  1  0  0  0  0
 27 18  1  0  0  0  0
 28 21  1  0  0  0  0
 30 29  1  0  0  0  0
 30 36  1  0  0  0  0
 31 32  1  0  0  0  0
 31 33  1  0  0  0  0
 34 29  1  0  0  0  0
 34 32  1  0  0  0  0
 35 30  1  0  0  0  0
 36 33  2  0  0  0  0
 37 38  1  0  0  0  0
 39 28  1  0  0  0  0
 40 39  2  0  0  0  0
 41 42  2  0  0  0  0
 41 40  1  0  0  0  0
 41 43  2  0  0  0  0
 44 41  1  0  0  0  0
 45 44  1  0  0  0  0
 46 45  1  0  0  0  0
 47 46  1  0  0  0  0
 49 48  1  0  0  0  0
 50 51  1  0  0  0  0
 50 49  1  0  0  0  0
 52 50  1  0  0  0  0
 53 52  1  0  0  0  0
 54 53  1  0  0  0  0
 55 54  1  0  0  0  0
 56 59  1  0  0  0  0
 56 55  1  0  0  0  0
 58 59  1  0  0  0  0
 58 57  1  0  0  0  0
 59 60  1  0  0  0  0
 59 57  1  0  0  0  0
 60 63  1  0  0  0  0
 62 63  1  0  0  0  0
 62 61  1  0  0  0  0
 63 61  1  0  0  0  0
M  END
>  <MODEL>
8

>  <REMARK>
 VINA RESULT:      -2.1      3.402     10.553
  Name = 
  18 active torsions:
  status: ('A' for Active; 'I' for Inactive)
    1  A    between atoms: C_3  and  C_20
    2  A    between atoms: S_4  and  N_14
    3  A    between atoms: S_4  and  N_55
    4  A    between atoms: C_12  and  C_48
    5  A    between atoms: N_14  and  C_20
    6  A    between atoms: N_15  and  C_22
    7  A    between atoms: C_17  and  C_44
    8  A    between atoms: C_17  and  N_61
    9  A    between atoms: C_23  and  C_59
   10  A    between atoms: C_24  and  C_27
   11  A    between atoms: O_35  and  C_44
   12  A    between atoms: O_35  and  C_48
   13  A    between atoms: O_39  and  C_56
   14  A    between atoms: O_39  and  N_61
   15  A    between atoms: C_49  and  C_56
   16  A    between atoms: C_49  and  C_58
   17  A    between atoms: C_58  and  C_62
   18  A    between atoms: C_62  and  C_63
                            x       y       z     vdW  Elec       q    Type
                         _______ _______ _______ _____ _____    ______ ____

>  <TORSDO>
F 18

$$$$
=
 OpenBabel10232411393D

 63 68  0  0  1  0  0  0  0  0999 V2000
  186.4350  176.8740  138.4720 C   0  0  0  0  0  1  0  0  0  0  0  0
  186.3280  178.3200  143.7980 O   0  0  0  0  0  0  0  0  0  0  0  0
  184.9220  178.7660  145.5550 O   0  0  0  0  0  1  0  0  0  0  0  0
  187.5880  178.7220  144.2690 C   0  0  1  0  0  3  0  0  0  0  0  0
  183.9330  180.3850  138.8270 O   0  0  0  0  0  1  0  0  0  0  0  0
  191.2400  178.4420  142.8680 C   0  0  0  0  0  2  0  0  0  0  0  0
  190.9470  177.0540  142.3380 C   0  0  1  0  0  3  0  0  0  0  0  0
  190.1150  178.8790  143.7880 C   0  0  2  0  0  3  0  0  0  0  0  0
  189.2180  178.3200  146.1280 N   0  0  0  0  0  0  0  0  0  0  0  0
  184.4550  178.6830  140.3810 C   0  0  0  0  0  2  0  0  0  0  0  0
  187.5230  177.6550  141.1990 C   0  0  0  0  0  2  0  0  0  0  0  0
  187.9830  177.9680  145.5010 C   0  0  0  0  0  0  0  0  0  0  0  0
  188.6210  177.3330  142.2470 C   0  0  2  0  0  0  0  0  0  0  0  0
  183.6740  178.2340  143.0190 O   0  0  0  0  0  0  0  0  0  0  0  0
  190.3340  178.4380  145.2270 C   0  0  0  0  0  0  0  0  0  0  0  0
  185.4100  179.2370  144.3330 C   0  0  2  0  0  3  0  0  0  0  0  0
  191.5090  178.2470  145.6500 O   0  0  0  0  0  0  0  0  0  0  0  0
  187.0510  178.2540  138.7160 C   0  0  2  0  0  3  0  0  0  0  0  0
  188.0420  178.2990  139.8940 C   0  0  1  0  0  3  0  0  0  0  0  0
  184.2650  179.4550  143.3700 C   0  0  0  0  0  2  0  0  0  0  0  0
  182.6300  178.5950  142.1580 C   0  0  0  0  0  2  0  0  0  0  0  0
  188.5930  179.6980  140.1280 C   0  0  0  0  0  1  0  0  0  0  0  0
  188.7090  178.5710  143.2040 C   0  0  1  0  0  3  0  0  0  0  0  0
  187.3810  176.9140  145.8350 O   0  0  0  0  0  0  0  0  0  0  0  0
  184.6180  179.1830  138.9550 C   0  0  2  0  0  3  0  0  0  0  0  0
  189.8150  177.1210  141.5070 O   0  0  0  0  0  0  0  0  0  0  0  0
  186.0790  179.4530  138.6290 C   0  0  0  0  0  2  0  0  0  0  0  0
  182.9850  178.3700  140.6830 C   0  0  2  0  0  3  0  0  0  0  0  0
  189.9890  175.1240  147.4660 C   0  0  0  0  0  2  0  0  0  0  0  0
  191.0090  175.9430  146.6920 C   0  0  2  0  0  3  0  0  0  0  0  0
  189.3830  178.2200  147.5970 C   0  0  1  0  0  3  0  0  0  0  0  0
  188.5970  177.0710  148.2610 C   0  0  0  0  0  2  0  0  0  0  0  0
  190.8580  178.1710  148.0390 C   0  0  0  0  0  3  0  0  0  0  0  0
  188.6220  175.7880  147.4450 C   0  0  0  0  0  2  0  0  0  0  0  0
  192.0390  175.0150  146.0820 C   0  0  0  0  0  1  0  0  0  0  0  0
  191.6980  176.9530  147.6070 C   0  0  0  0  0  3  0  0  0  0  0  0
  188.2960  176.0400  143.0470 C   0  0  0  0  0  2  0  0  0  0  0  0
  189.4850  175.1270  143.3470 C   0  0  0  0  0  1  0  0  0  0  0  0
  182.6080  176.9900  140.2380 C   0  0  0  0  0  3  0  0  0  0  0  0
  181.8570  176.8300  139.2070 N   0  0  0  0  0  0  0  0  0  0  0  0
  181.3820  175.2640  138.6910 S   0  0  0  0  0  0  0  0  0  0  0  0
  180.4020  175.3790  137.5540 O   0  0  0  0  0  0  0  0  0  0  0  0
  180.7380  174.5360  139.8350 O   0  0  0  0  0  0  0  0  0  0  0  0
  182.7940  174.4260  138.1120 N   0  0  0  0  0  2  0  0  0  0  0  0
  182.7820  174.4000  136.6550 C   0  0  0  0  0  2  0  0  0  0  0  0
  183.6050  175.5570  136.1070 C   0  0  0  0  0  2  0  0  0  0  0  0
  184.4580  175.0980  135.1050 O   0  0  0  0  0  1  0  0  0  0  0  0
  192.1300  176.6040  141.4970 C   0  0  0  0  0  2  0  0  0  0  0  0
  192.1360  177.2560  140.2590 O   0  0  0  0  0  0  0  0  0  0  0  0
  192.1570  176.2420  139.2930 C   0  0  2  0  0  3  0  0  0  0  0  0
  193.2660  176.5370  138.2980 C   0  0  0  0  0  1  0  0  0  0  0  0
  190.8100  176.1670  138.5820 C   0  0  0  0  0  2  0  0  0  0  0  0
  190.5050  177.4460  137.9470 N   0  0  0  0  0  2  0  0  0  0  0  0
  189.8450  177.1700  136.7970 O   0  0  0  0  0  0  0  0  0  0  0  0
  189.5560  175.8020  136.8740 C   0  0  0  0  0  2  0  0  0  0  0  0
  189.2650  175.2400  135.4880 C   0  0  0  0  0  2  0  0  0  0  0  0
  189.7410  173.2030  136.6760 O   0  0  0  0  0  0  0  0  0  0  0  0
  190.8270  173.1630  135.7770 C   0  0  0  0  0  2  0  0  0  0  0  0
  189.5110  173.7350  135.3980 C   0  0  2  0  0  0  0  0  0  0  0  0
  188.5440  172.8480  134.6270 C   0  0  0  0  0  2  0  0  0  0  0  0
  186.8120  171.3810  135.5560 C   0  0  0  0  0  2  0  0  0  0  0  0
  186.2720  172.1180  134.4860 O   0  0  0  0  0  0  0  0  0  0  0  0
  187.1920  172.7860  135.3200 C   0  0  2  0  0  3  0  0  0  0  0  0
  2 16  1  0  0  0  0
  4  2  1  6  0  0  0
  4 12  1  0  0  0  0
  5 25  1  0  0  0  0
  7 48  1  6  0  0  0
  7  6  1  0  0  0  0
  8  6  1  6  0  0  0
  8 15  1  0  0  0  0
  9 31  1  0  0  0  0
 10 28  1  0  0  0  0
 11 13  1  0  0  0  0
 12 24  2  0  0  0  0
 12  9  1  0  0  0  0
 13 37  1  1  0  0  0
 13 23  1  0  0  0  0
 14 20  1  0  0  0  0
 15 17  2  0  0  0  0
 15  9  1  0  0  0  0
 16  3  1  1  0  0  0
 18  1  1  1  0  0  0
 18 19  1  0  0  0  0
 19 22  1  1  0  0  0
 19 11  1  0  0  0  0
 20 16  1  0  0  0  0
 21 14  1  0  0  0  0
 23  8  1  0  0  0  0
 23  4  1  0  0  0  0
 25 10  1  0  0  0  0
 26 13  1  0  0  0  0
 26  7  1  0  0  0  0
 27 18  1  0  0  0  0
 27 25  1  0  0  0  0
 28 21  1  0  0  0  0
 30 29  1  0  0  0  0
 30 36  1  0  0  0  0
 31 33  1  0  0  0  0
 31 32  1  0  0  0  0
 34 29  1  0  0  0  0
 34 32  1  0  0  0  0
 35 30  1  0  0  0  0
 36 33  2  0  0  0  0
 37 38  1  0  0  0  0
 39 28  1  0  0  0  0
 40 39  2  0  0  0  0
 41 40  1  0  0  0  0
 41 43  2  0  0  0  0
 42 41  2  0  0  0  0
 44 41  1  0  0  0  0
 45 44  1  0  0  0  0
 46 45  1  0  0  0  0
 47 46  1  0  0  0  0
 49 48  1  0  0  0  0
 50 49  1  0  0  0  0
 51 50  1  0  0  0  0
 52 50  1  0  0  0  0
 53 52  1  0  0  0  0
 54 55  1  0  0  0  0
 54 53  1  0  0  0  0
 56 55  1  0  0  0  0
 58 57  1  0  0  0  0
 59 56  1  0  0  0  0
 59 58  1  0  0  0  0
 59 57  1  0  0  0  0
 60 63  1  0  0  0  0
 60 59  1  0  0  0  0
 62 63  1  0  0  0  0
 62 61  1  0  0  0  0
 63 61  1  0  0  0  0
M  END
>  <MODEL>
9

>  <REMARK>
 VINA RESULT:      -1.9      4.200     11.141
  Name = 
  18 active torsions:
  status: ('A' for Active; 'I' for Inactive)
    1  A    between atoms: C_3  and  C_20
    2  A    between atoms: S_4  and  N_14
    3  A    between atoms: S_4  and  N_55
    4  A    between atoms: C_12  and  C_48
    5  A    between atoms: N_14  and  C_20
    6  A    between atoms: N_15  and  C_22
    7  A    between atoms: C_17  and  C_44
    8  A    between atoms: C_17  and  N_61
    9  A    between atoms: C_23  and  C_59
   10  A    between atoms: C_24  and  C_27
   11  A    between atoms: O_35  and  C_44
   12  A    between atoms: O_35  and  C_48
   13  A    between atoms: O_39  and  C_56
   14  A    between atoms: O_39  and  N_61
   15  A    between atoms: C_49  and  C_56
   16  A    between atoms: C_49  and  C_58
   17  A    between atoms: C_58  and  C_62
   18  A    between atoms: C_62  and  C_63
                            x       y       z     vdW  Elec       q    Type
                         _______ _______ _______ _____ _____    ______ ____

>  <TORSDO>
F 18

$$$$
