=
 OpenBabel10232409363D

 33 36  0  0  1  0  0  0  0  0999 V2000
  189.7010  177.2770  137.7920 C   0  0  0  0  0  0  0  0  0  0  0  0
  196.0200  174.2070  135.8050 C   0  0  0  0  0  1  0  0  0  0  0  0
  194.6230  174.5130  136.2240 C   0  0  0  0  0  0  0  0  0  0  0  0
  194.3020  175.8660  136.8230 C   0  0  2  0  0  3  0  0  0  0  0  0
  192.3330  173.8610  136.3800 C   0  0  0  0  0  0  0  0  0  0  0  0
  189.2400  176.5360  140.6940 O   0  0  0  0  0  0  0  0  0  0  0  0
  192.0370  174.9620  137.3190 C   0  0  0  0  0  0  0  0  0  0  0  0
  189.6210  174.5380  136.9460 C   0  0  1  0  0  3  0  0  0  0  0  0
  189.9920  173.1540  136.3820 C   0  0  0  0  0  2  0  0  0  0  0  0
  191.3880  173.0860  135.9380 N   0  0  0  0  0  0  0  0  0  0  0  0
  189.8550  175.3330  134.6420 O   0  0  0  0  0  1  0  0  0  0  0  0
  188.0730  178.6530  140.6360 C   0  0  0  0  0  2  0  0  0  0  0  0
  189.6490  177.0500  136.2960 C   0  0  0  0  0  2  0  0  0  0  0  0
  193.6820  173.6590  135.9490 N   0  0  0  0  0  0  0  0  0  0  0  0
  189.1890  177.8140  141.2660 C   0  0  1  0  0  3  0  0  0  0  0  0
  192.9900  175.8680  137.5650 C   0  0  0  0  0  3  0  0  0  0  0  0
  194.2400  176.8920  135.7060 C   0  0  0  0  0  1  0  0  0  0  0  0
  189.2320  178.6050  138.3620 C   0  0  1  0  0  3  0  0  0  0  0  0
  190.6740  174.9920  137.9690 C   0  0  2  0  0  3  0  0  0  0  0  0
  190.2700  176.3170  138.5720 C   0  0  0  0  0  0  0  0  0  0  0  0
  190.4770  176.4900  140.0430 C   0  0  0  0  0  2  0  0  0  0  0  0
  189.2740  175.6170  135.8800 C   0  0  2  0  0  3  0  0  0  0  0  0
  189.0550  179.5640  137.3540 O   0  0  0  0  0  1  0  0  0  0  0  0
  187.9200  178.4280  139.1230 C   0  0  0  0  0  2  0  0  0  0  0  0
  190.0900  178.2410  143.5700 N   0  0  0  0  0  2  0  0  0  0  0  0
  189.0590  177.6870  142.7500 C   0  0  0  0  0  0  0  0  0  0  0  0
  188.1100  177.0410  143.2690 O   0  0  0  0  0  0  0  0  0  0  0  0
  190.2680  177.8920  144.9750 C   0  0  0  0  0  2  0  0  0  0  0  0
  191.5430  177.0880  145.1830 C   0  0  2  0  0  3  0  0  0  0  0  0
  191.6270  176.0200  144.2030 N   0  0  0  0  0  1  0  0  0  0  0  0
  191.5540  176.5120  146.5620 C   0  0  0  0  0  0  0  0  0  0  0  0
  190.6270  176.9320  147.5150 O   0  0  0  0  0  1  0  0  0  0  0  0
  192.4110  175.6430  146.8660 O   0  0  0  0  0  0  0  0  0  0  0  0
  1 18  1  0  0  0  0
  1 20  2  0  0  0  0
  2  3  1  0  0  0  0
  3  4  1  0  0  0  0
  4 17  1  6  0  0  0
  4 16  1  0  0  0  0
  5  7  1  0  0  0  0
  6 15  1  0  0  0  0
  7 16  2  0  0  0  0
  8  9  1  6  0  0  0
  8 19  1  0  0  0  0
 10  5  2  0  0  0  0
 10  9  1  0  0  0  0
 12 15  1  0  0  0  0
 13  1  1  0  0  0  0
 14  3  2  0  0  0  0
 14  5  1  0  0  0  0
 15 26  1  1  0  0  0
 18 23  1  6  0  0  0
 18 24  1  0  0  0  0
 19  7  1  6  0  0  0
 19 20  1  0  0  0  0
 20 21  1  0  0  0  0
 21  6  1  0  0  0  0
 22 11  1  6  0  0  0
 22 13  1  0  0  0  0
 22  8  1  0  0  0  0
 24 12  1  0  0  0  0
 25 28  1  0  0  0  0
 26 27  2  0  0  0  0
 26 25  1  0  0  0  0
 28 29  1  0  0  0  0
 29 30  1  6  0  0  0
 29 31  1  0  0  0  0
 31 33  2  0  0  0  0
 31 32  1  0  0  0  0
M  END
>  <MODEL>
1

>  <REMARK>
 VINA RESULT:      -7.8      0.000      0.000
  Name = 
  4 active torsions:
  status: ('A' for Active; 'I' for Inactive)
    1  A    between atoms: CA_3  and  C_15
    2  A    between atoms: CA_3  and  C_28
    3  A    between atoms: C_17  and  C_20
    4  A    between atoms: N_19  and  C_28
                            x       y       z     vdW  Elec       q    Type
                         _______ _______ _______ _____ _____    ______ ____

>  <TORSDO>
F 4

$$$$
=
 OpenBabel10232409363D

 33 36  0  0  1  0  0  0  0  0999 V2000
  189.7360  177.2700  137.9020 C   0  0  0  0  0  0  0  0  0  0  0  0
  195.9920  174.2750  135.6250 C   0  0  0  0  0  1  0  0  0  0  0  0
  194.6150  174.5640  136.1140 C   0  0  0  0  0  0  0  0  0  0  0  0
  194.3020  175.9220  136.7060 C   0  0  2  0  0  3  0  0  0  0  0  0
  192.3490  173.8750  136.4070 C   0  0  0  0  0  0  0  0  0  0  0  0
  189.4480  176.5750  140.8370 O   0  0  0  0  0  0  0  0  0  0  0  0
  192.0840  174.9880  137.3410 C   0  0  0  0  0  0  0  0  0  0  0  0
  189.6600  174.5150  137.1090 C   0  0  1  0  0  3  0  0  0  0  0  0
  190.0250  173.1280  136.5500 C   0  0  0  0  0  2  0  0  0  0  0  0
  191.3960  173.0760  136.0310 N   0  0  0  0  0  0  0  0  0  0  0  0
  189.7530  175.2720  134.7820 O   0  0  0  0  0  1  0  0  0  0  0  0
  188.2400  178.6690  140.8070 C   0  0  0  0  0  2  0  0  0  0  0  0
  189.6060  177.0140  136.4150 C   0  0  0  0  0  2  0  0  0  0  0  0
  193.6760  173.6890  135.9060 N   0  0  0  0  0  0  0  0  0  0  0  0
  189.4040  177.8620  141.3890 C   0  0  1  0  0  3  0  0  0  0  0  0
  193.0330  175.9150  137.5190 C   0  0  0  0  0  3  0  0  0  0  0  0
  194.1600  176.9270  135.5760 C   0  0  0  0  0  1  0  0  0  0  0  0
  189.2730  178.6000  138.4730 C   0  0  1  0  0  3  0  0  0  0  0  0
  190.7590  175.0060  138.0650 C   0  0  2  0  0  3  0  0  0  0  0  0
  190.3640  176.3340  138.6660 C   0  0  0  0  0  0  0  0  0  0  0  0
  190.6480  176.5380  140.1200 C   0  0  0  0  0  2  0  0  0  0  0  0
  189.2350  175.5680  136.0450 C   0  0  2  0  0  3  0  0  0  0  0  0
  189.0240  179.5370  137.4600 O   0  0  0  0  0  1  0  0  0  0  0  0
  188.0080  178.4140  139.3080 C   0  0  0  0  0  2  0  0  0  0  0  0
  188.1630  177.2680  143.4890 N   0  0  0  0  0  2  0  0  0  0  0  0
  189.3580  177.7600  142.8800 C   0  0  0  0  0  0  0  0  0  0  0  0
  190.3150  178.1690  143.5920 O   0  0  0  0  0  0  0  0  0  0  0  0
  187.8570  177.4430  144.9040 C   0  0  0  0  0  2  0  0  0  0  0  0
  186.3570  177.5580  145.1310 C   0  0  2  0  0  3  0  0  0  0  0  0
  185.7460  178.3230  144.0590 N   0  0  0  0  0  1  0  0  0  0  0  0
  186.0980  178.2270  146.4420 C   0  0  0  0  0  0  0  0  0  0  0  0
  184.8520  178.7880  146.7200 O   0  0  0  0  0  0  0  0  0  0  0  0
  187.0150  178.2880  147.3010 O   0  0  0  0  0  1  0  0  0  0  0  0
  1 18  1  0  0  0  0
  1 20  2  0  0  0  0
  2  3  1  0  0  0  0
  3  4  1  0  0  0  0
  4 17  1  6  0  0  0
  4 16  1  0  0  0  0
  5  7  1  0  0  0  0
  6 15  1  0  0  0  0
  7 16  2  0  0  0  0
  8  9  1  6  0  0  0
  8 19  1  0  0  0  0
 10  5  2  0  0  0  0
 10  9  1  0  0  0  0
 12 15  1  0  0  0  0
 13  1  1  0  0  0  0
 14  3  2  0  0  0  0
 14  5  1  0  0  0  0
 15 26  1  1  0  0  0
 18 23  1  6  0  0  0
 18 24  1  0  0  0  0
 19  7  1  6  0  0  0
 19 20  1  0  0  0  0
 20 21  1  0  0  0  0
 21  6  1  0  0  0  0
 22 11  1  6  0  0  0
 22 13  1  0  0  0  0
 22  8  1  0  0  0  0
 24 12  1  0  0  0  0
 25 28  1  0  0  0  0
 26 25  1  0  0  0  0
 26 27  2  0  0  0  0
 28 29  1  0  0  0  0
 29 30  1  6  0  0  0
 29 31  1  0  0  0  0
 31 32  2  0  0  0  0
 31 33  1  0  0  0  0
M  END
>  <MODEL>
2

>  <REMARK>
 VINA RESULT:      -7.8      1.825      2.406
  Name = 
  4 active torsions:
  status: ('A' for Active; 'I' for Inactive)
    1  A    between atoms: CA_3  and  C_15
    2  A    between atoms: CA_3  and  C_28
    3  A    between atoms: C_17  and  C_20
    4  A    between atoms: N_19  and  C_28
                            x       y       z     vdW  Elec       q    Type
                         _______ _______ _______ _____ _____    ______ ____

>  <TORSDO>
F 4

$$$$
=
 OpenBabel10232409363D

 33 36  0  0  1  0  0  0  0  0999 V2000
  183.4200  178.6320  141.4190 C   0  0  0  0  0  0  0  0  0  0  0  0
  179.9820  181.7570  135.7880 C   0  0  0  0  0  1  0  0  0  0  0  0
  180.6540  180.8390  136.7500 C   0  0  0  0  0  0  0  0  0  0  0  0
  181.5310  181.4130  137.8430 C   0  0  2  0  0  3  0  0  0  0  0  0
  181.0310  178.6260  137.5620 C   0  0  0  0  0  0  0  0  0  0  0  0
  186.1750  177.8400  140.4360 O   0  0  0  0  0  0  0  0  0  0  0  0
  182.1880  179.0700  138.3660 C   0  0  0  0  0  0  0  0  0  0  0  0
  182.1110  176.8930  139.5520 C   0  0  1  0  0  3  0  0  0  0  0  0
  181.2560  176.3400  138.3980 C   0  0  0  0  0  2  0  0  0  0  0  0
  180.6030  177.4010  137.6250 N   0  0  0  0  0  0  0  0  0  0  0  0
  179.9820  177.5430  140.5710 O   0  0  0  0  0  1  0  0  0  0  0  0
  186.6790  178.2030  142.7730 C   0  0  0  0  0  2  0  0  0  0  0  0
  181.9330  178.4390  141.6280 C   0  0  0  0  0  2  0  0  0  0  0  0
  180.3730  179.5700  136.7110 N   0  0  0  0  0  0  0  0  0  0  0  0
  186.9710  178.5830  141.3180 C   0  0  1  0  0  3  0  0  0  0  0  0
  182.4490  180.3800  138.4440 C   0  0  0  0  0  3  0  0  0  0  0  0
  180.6410  181.9790  138.9350 C   0  0  0  0  0  1  0  0  0  0  0  0
  184.2860  179.0740  142.5880 C   0  0  1  0  0  3  0  0  0  0  0  0
  183.0300  178.0130  139.0390 C   0  0  2  0  0  3  0  0  0  0  0  0
  183.9180  178.5050  140.1590 C   0  0  0  0  0  0  0  0  0  0  0  0
  185.3480  178.7870  139.8240 C   0  0  0  0  0  2  0  0  0  0  0  0
  181.3240  177.2650  140.8410 C   0  0  2  0  0  3  0  0  0  0  0  0
  183.5070  179.5090  143.6700 O   0  0  0  0  0  1  0  0  0  0  0  0
  185.1900  177.9320  143.0470 C   0  0  0  0  0  2  0  0  0  0  0  0
  189.2420  177.6280  141.7990 N   0  0  0  0  0  2  0  0  0  0  0  0
  188.4090  178.4150  140.9470 C   0  0  0  0  0  0  0  0  0  0  0  0
  188.9000  179.0140  139.9520 O   0  0  0  0  0  0  0  0  0  0  0  0
  190.6990  177.6700  141.7540 C   0  0  0  0  0  2  0  0  0  0  0  0
  191.2990  177.4160  143.1280 C   0  0  2  0  0  3  0  0  0  0  0  0
  191.0730  176.0380  143.5260 N   0  0  0  0  0  1  0  0  0  0  0  0
  190.6780  178.3400  144.1250 C   0  0  0  0  0  0  0  0  0  0  0  0
  189.7970  177.8560  145.0910 O   0  0  0  0  0  1  0  0  0  0  0  0
  190.9510  179.5680  144.0890 O   0  0  0  0  0  0  0  0  0  0  0  0
  1 13  1  0  0  0  0
  1 18  1  0  0  0  0
  2  3  1  0  0  0  0
  3  4  1  0  0  0  0
  4 16  1  0  0  0  0
  4 17  1  1  0  0  0
  5 10  2  0  0  0  0
  5  7  1  0  0  0  0
  6 15  1  0  0  0  0
  7 16  2  0  0  0  0
  8  9  1  6  0  0  0
  8 22  1  0  0  0  0
 10  9  1  0  0  0  0
 12 24  1  0  0  0  0
 14  3  2  0  0  0  0
 14  5  1  0  0  0  0
 15 26  1  6  0  0  0
 15 12  1  0  0  0  0
 18 24  1  0  0  0  0
 18 23  1  1  0  0  0
 19  7  1  1  0  0  0
 19  8  1  0  0  0  0
 19 20  1  0  0  0  0
 20  1  2  0  0  0  0
 21 20  1  0  0  0  0
 21  6  1  0  0  0  0
 22 11  1  6  0  0  0
 22 13  1  0  0  0  0
 26 25  1  0  0  0  0
 27 26  2  0  0  0  0
 28 25  1  0  0  0  0
 28 29  1  0  0  0  0
 29 30  1  1  0  0  0
 29 31  1  0  0  0  0
 31 32  1  0  0  0  0
 33 31  2  0  0  0  0
M  END
>  <MODEL>
3

>  <REMARK>
 VINA RESULT:      -6.7      5.750      8.939
  Name = 
  4 active torsions:
  status: ('A' for Active; 'I' for Inactive)
    1  A    between atoms: CA_3  and  C_15
    2  A    between atoms: CA_3  and  C_28
    3  A    between atoms: C_17  and  C_20
    4  A    between atoms: N_19  and  C_28
                            x       y       z     vdW  Elec       q    Type
                         _______ _______ _______ _____ _____    ______ ____

>  <TORSDO>
F 4

$$$$
=
 OpenBabel10232409363D

 33 36  0  0  1  0  0  0  0  0999 V2000
  190.1020  176.5180  137.9000 C   0  0  0  0  0  0  0  0  0  0  0  0
  184.0440  173.3610  135.3230 C   0  0  0  0  0  1  0  0  0  0  0  0
  185.1160  174.2920  135.7760 C   0  0  0  0  0  0  0  0  0  0  0  0
  186.2040  173.7850  136.6990 C   0  0  2  0  0  3  0  0  0  0  0  0
  186.1300  176.4510  135.7070 C   0  0  0  0  0  0  0  0  0  0  0  0
  189.3440  177.8800  140.4990 O   0  0  0  0  0  0  0  0  0  0  0  0
  186.9580  176.1500  136.8930 C   0  0  0  0  0  0  0  0  0  0  0  0
  188.3170  178.1590  136.3690 C   0  0  1  0  0  3  0  0  0  0  0  0
  187.1660  178.6540  135.4740 C   0  0  0  0  0  2  0  0  0  0  0  0
  186.2720  177.5680  135.0580 N   0  0  0  0  0  0  0  0  0  0  0  0
  189.1560  177.0450  134.3570 O   0  0  0  0  0  1  0  0  0  0  0  0
  191.6670  177.3980  140.9680 C   0  0  0  0  0  2  0  0  0  0  0  0
  190.2420  176.4200  136.3960 C   0  0  0  0  0  2  0  0  0  0  0  0
  185.1680  175.4880  135.2680 N   0  0  0  0  0  0  0  0  0  0  0  0
  190.2050  177.2140  141.3820 C   0  0  1  0  0  3  0  0  0  0  0  0
  186.9410  174.9070  137.3870 C   0  0  0  0  0  3  0  0  0  0  0  0
  187.1940  172.9700  135.8860 C   0  0  0  0  0  1  0  0  0  0  0  0
  191.2760  176.1330  138.7850 C   0  0  1  0  0  3  0  0  0  0  0  0
  187.7640  177.2740  137.4990 C   0  0  2  0  0  3  0  0  0  0  0  0
  188.8860  176.8480  138.4160 C   0  0  0  0  0  0  0  0  0  0  0  0
  188.6090  176.8600  139.8860 C   0  0  0  0  0  2  0  0  0  0  0  0
  189.5240  177.5330  135.6130 C   0  0  2  0  0  3  0  0  0  0  0  0
  192.2720  175.4660  138.0580 O   0  0  0  0  0  1  0  0  0  0  0  0
  191.8790  177.3710  139.4450 C   0  0  0  0  0  2  0  0  0  0  0  0
  188.9690  176.9490  143.5510 N   0  0  0  0  0  2  0  0  0  0  0  0
  189.9290  177.6710  142.7790 C   0  0  0  0  0  0  0  0  0  0  0  0
  190.4680  178.7110  143.2440 O   0  0  0  0  0  0  0  0  0  0  0  0
  188.3590  177.4780  144.7660 C   0  0  0  0  0  2  0  0  0  0  0  0
  186.8430  177.3560  144.7170 C   0  0  2  0  0  3  0  0  0  0  0  0
  186.3400  177.8780  143.4590 N   0  0  0  0  0  1  0  0  0  0  0  0
  186.2420  178.1130  145.8570 C   0  0  0  0  0  0  0  0  0  0  0  0
  185.0600  178.8330  145.6880 O   0  0  0  0  0  0  0  0  0  0  0  0
  186.8120  178.1050  146.9780 O   0  0  0  0  0  1  0  0  0  0  0  0
  1 20  2  0  0  0  0
  1 18  1  0  0  0  0
  2  3  1  0  0  0  0
  3  4  1  0  0  0  0
  4 17  1  6  0  0  0
  4 16  1  0  0  0  0
  5  7  1  0  0  0  0
  6 15  1  0  0  0  0
  7 16  2  0  0  0  0
  8  9  1  6  0  0  0
  8 19  1  0  0  0  0
 10  9  1  0  0  0  0
 10  5  2  0  0  0  0
 12 15  1  0  0  0  0
 13  1  1  0  0  0  0
 14  5  1  0  0  0  0
 14  3  2  0  0  0  0
 15 26  1  1  0  0  0
 18 23  1  6  0  0  0
 18 24  1  0  0  0  0
 19  7  1  6  0  0  0
 19 20  1  0  0  0  0
 20 21  1  0  0  0  0
 21  6  1  0  0  0  0
 22 11  1  6  0  0  0
 22  8  1  0  0  0  0
 22 13  1  0  0  0  0
 24 12  1  0  0  0  0
 25 28  1  0  0  0  0
 26 27  2  0  0  0  0
 26 25  1  0  0  0  0
 29 30  1  6  0  0  0
 29 28  1  0  0  0  0
 29 31  1  0  0  0  0
 31 33  1  0  0  0  0
 32 31  2  0  0  0  0
M  END
>  <MODEL>
4

>  <REMARK>
 VINA RESULT:      -6.5      3.311      5.327
  Name = 
  4 active torsions:
  status: ('A' for Active; 'I' for Inactive)
    1  A    between atoms: CA_3  and  C_15
    2  A    between atoms: CA_3  and  C_28
    3  A    between atoms: C_17  and  C_20
    4  A    between atoms: N_19  and  C_28
                            x       y       z     vdW  Elec       q    Type
                         _______ _______ _______ _____ _____    ______ ____

>  <TORSDO>
F 4

$$$$
=
 OpenBabel10232409363D

 33 36  0  0  1  0  0  0  0  0999 V2000
  190.2880  176.4540  137.8360 C   0  0  0  0  0  0  0  0  0  0  0  0
  183.9510  173.4430  135.8160 C   0  0  0  0  0  1  0  0  0  0  0  0
  185.0830  174.3480  136.1630 C   0  0  0  0  0  0  0  0  0  0  0  0
  186.2260  173.8250  137.0070 C   0  0  2  0  0  3  0  0  0  0  0  0
  186.1530  176.4720  135.9670 C   0  0  0  0  0  0  0  0  0  0  0  0
  189.7820  177.8890  140.4570 O   0  0  0  0  0  0  0  0  0  0  0  0
  187.0640  176.1670  137.0890 C   0  0  0  0  0  0  0  0  0  0  0  0
  188.4360  178.1210  136.4160 C   0  0  1  0  0  3  0  0  0  0  0  0
  187.2330  178.6350  135.6040 C   0  0  0  0  0  2  0  0  0  0  0  0
  186.2770  177.5710  135.2850 N   0  0  0  0  0  0  0  0  0  0  0  0
  189.0780  176.9430  134.3690 O   0  0  0  0  0  1  0  0  0  0  0  0
  192.1190  177.3430  140.7500 C   0  0  0  0  0  2  0  0  0  0  0  0
  190.3040  176.3240  136.3280 C   0  0  0  0  0  2  0  0  0  0  0  0
  185.1310  175.5310  135.6260 N   0  0  0  0  0  0  0  0  0  0  0  0
  190.6890  177.2130  141.2830 C   0  0  1  0  0  3  0  0  0  0  0  0
  187.0490  174.9350  137.6100 C   0  0  0  0  0  3  0  0  0  0  0  0
  187.1230  172.9630  136.1360 C   0  0  0  0  0  1  0  0  0  0  0  0
  191.5170  176.0490  138.6330 C   0  0  1  0  0  3  0  0  0  0  0  0
  187.9490  177.2760  137.6050 C   0  0  2  0  0  3  0  0  0  0  0  0
  189.1270  176.8330  138.4390 C   0  0  0  0  0  0  0  0  0  0  0  0
  188.9700  176.8820  139.9260 C   0  0  0  0  0  2  0  0  0  0  0  0
  189.5600  177.4430  135.5810 C   0  0  2  0  0  3  0  0  0  0  0  0
  192.4310  175.3380  137.8440 O   0  0  0  0  0  1  0  0  0  0  0  0
  192.2070  177.2800  139.2160 C   0  0  0  0  0  2  0  0  0  0  0  0
  189.3000  177.4760  143.3580 N   0  0  0  0  0  2  0  0  0  0  0  0
  190.5400  177.7050  142.6870 C   0  0  0  0  0  0  0  0  0  0  0  0
  191.4520  178.3750  143.2440 O   0  0  0  0  0  0  0  0  0  0  0  0
  188.9010  178.1900  144.5650 C   0  0  0  0  0  2  0  0  0  0  0  0
  188.4800  177.2220  145.6610 C   0  0  2  0  0  3  0  0  0  0  0  0
  187.1200  177.5040  146.0830 N   0  0  0  0  0  1  0  0  0  0  0  0
  189.4090  177.3480  146.8260 C   0  0  0  0  0  0  0  0  0  0  0  0
  190.6180  176.6550  146.8500 O   0  0  0  0  0  0  0  0  0  0  0  0
  189.0920  178.0850  147.7960 O   0  0  0  0  0  1  0  0  0  0  0  0
  1 20  2  0  0  0  0
  1 18  1  0  0  0  0
  2  3  1  0  0  0  0
  3  4  1  0  0  0  0
  4 17  1  6  0  0  0
  4 16  1  0  0  0  0
  5  7  1  0  0  0  0
  6 15  1  0  0  0  0
  7 16  2  0  0  0  0
  8  9  1  6  0  0  0
  8 19  1  0  0  0  0
 10  9  1  0  0  0  0
 10  5  2  0  0  0  0
 12 15  1  0  0  0  0
 13  1  1  0  0  0  0
 14  5  1  0  0  0  0
 14  3  2  0  0  0  0
 15 26  1  1  0  0  0
 18 23  1  6  0  0  0
 18 24  1  0  0  0  0
 19  7  1  6  0  0  0
 19 20  1  0  0  0  0
 20 21  1  0  0  0  0
 21  6  1  0  0  0  0
 22 11  1  6  0  0  0
 22 13  1  0  0  0  0
 22  8  1  0  0  0  0
 24 12  1  0  0  0  0
 25 28  1  0  0  0  0
 26 27  2  0  0  0  0
 26 25  1  0  0  0  0
 28 29  1  0  0  0  0
 29 30  1  1  0  0  0
 29 31  1  0  0  0  0
 31 32  2  0  0  0  0
 31 33  1  0  0  0  0
M  END
>  <MODEL>
5

>  <REMARK>
 VINA RESULT:      -6.4      3.040      5.058
  Name = 
  4 active torsions:
  status: ('A' for Active; 'I' for Inactive)
    1  A    between atoms: CA_3  and  C_15
    2  A    between atoms: CA_3  and  C_28
    3  A    between atoms: C_17  and  C_20
    4  A    between atoms: N_19  and  C_28
                            x       y       z     vdW  Elec       q    Type
                         _______ _______ _______ _____ _____    ______ ____

>  <TORSDO>
F 4

$$$$
=
 OpenBabel10232409363D

 33 36  0  0  1  0  0  0  0  0999 V2000
  183.3540  178.6700  141.6270 C   0  0  0  0  0  0  0  0  0  0  0  0
  180.1530  181.6580  135.7850 C   0  0  0  0  0  1  0  0  0  0  0  0
  180.7910  180.7650  136.7930 C   0  0  0  0  0  0  0  0  0  0  0  0
  181.6010  181.3690  137.9200 C   0  0  2  0  0  3  0  0  0  0  0  0
  181.1640  178.5700  137.6550 C   0  0  0  0  0  0  0  0  0  0  0  0
  186.1680  177.9140  140.7950 O   0  0  0  0  0  0  0  0  0  0  0  0
  182.2710  179.0460  138.5090 C   0  0  0  0  0  0  0  0  0  0  0  0
  182.1710  176.8830  139.7220 C   0  0  1  0  0  3  0  0  0  0  0  0
  181.3850  176.3000  138.5340 C   0  0  0  0  0  2  0  0  0  0  0  0
  180.7530  177.3390  137.7140 N   0  0  0  0  0  0  0  0  0  0  0  0
  179.9820  177.5100  140.6230 O   0  0  0  0  0  1  0  0  0  0  0  0
  186.5470  178.3170  143.1480 C   0  0  0  0  0  2  0  0  0  0  0  0
  181.8620  178.4540  141.7630 C   0  0  0  0  0  2  0  0  0  0  0  0
  180.5330  179.4910  136.7590 N   0  0  0  0  0  0  0  0  0  0  0  0
  186.9060  178.6820  141.7050 C   0  0  1  0  0  3  0  0  0  0  0  0
  182.5060  180.3610  138.5820 C   0  0  0  0  0  3  0  0  0  0  0  0
  180.6490  181.9350  138.9590 C   0  0  0  0  0  1  0  0  0  0  0  0
  184.1530  179.1430  142.8310 C   0  0  1  0  0  3  0  0  0  0  0  0
  183.0960  178.0130  139.2400 C   0  0  2  0  0  3  0  0  0  0  0  0
  183.9170  178.5350  140.3950 C   0  0  0  0  0  0  0  0  0  0  0  0
  185.3570  178.8380  140.1280 C   0  0  0  0  0  2  0  0  0  0  0  0
  181.3130  177.2600  140.9640 C   0  0  2  0  0  3  0  0  0  0  0  0
  183.3130  179.5790  143.8660 O   0  0  0  0  0  1  0  0  0  0  0  0
  185.0510  178.0230  143.3510 C   0  0  0  0  0  2  0  0  0  0  0  0
  188.7600  178.2980  140.0570 N   0  0  0  0  0  2  0  0  0  0  0  0
  188.3640  178.5350  141.4090 C   0  0  0  0  0  0  0  0  0  0  0  0
  189.2220  178.5390  142.3330 O   0  0  0  0  0  0  0  0  0  0  0  0
  190.0780  177.7970  139.6860 C   0  0  0  0  0  2  0  0  0  0  0  0
  189.9740  176.7000  138.6370 C   0  0  2  0  0  3  0  0  0  0  0  0
  191.2760  176.4480  138.0450 N   0  0  0  0  0  1  0  0  0  0  0  0
  189.0050  177.1100  137.5760 C   0  0  0  0  0  0  0  0  0  0  0  0
  189.2940  178.1730  136.7210 O   0  0  0  0  0  0  0  0  0  0  0  0
  187.9150  176.4930  137.4570 O   0  0  0  0  0  1  0  0  0  0  0  0
  1 13  1  0  0  0  0
  1 18  1  0  0  0  0
  2  3  1  0  0  0  0
  3  4  1  0  0  0  0
  4 16  1  0  0  0  0
  4 17  1  1  0  0  0
  5 10  2  0  0  0  0
  5  7  1  0  0  0  0
  6 15  1  0  0  0  0
  7 16  2  0  0  0  0
  8  9  1  6  0  0  0
  8 22  1  0  0  0  0
 10  9  1  0  0  0  0
 12 24  1  0  0  0  0
 14  3  2  0  0  0  0
 14  5  1  0  0  0  0
 15 26  1  1  0  0  0
 15 12  1  0  0  0  0
 18 24  1  0  0  0  0
 18 23  1  1  0  0  0
 19  7  1  1  0  0  0
 19  8  1  0  0  0  0
 19 20  1  0  0  0  0
 20  1  2  0  0  0  0
 21 20  1  0  0  0  0
 21  6  1  0  0  0  0
 22 11  1  6  0  0  0
 22 13  1  0  0  0  0
 25 26  1  0  0  0  0
 26 27  2  0  0  0  0
 28 25  1  0  0  0  0
 29 30  1  6  0  0  0
 29 28  1  0  0  0  0
 31 29  1  0  0  0  0
 32 31  2  0  0  0  0
 33 31  1  0  0  0  0
M  END
>  <MODEL>
6

>  <REMARK>
 VINA RESULT:      -6.4      5.741      9.528
  Name = 
  4 active torsions:
  status: ('A' for Active; 'I' for Inactive)
    1  A    between atoms: CA_3  and  C_15
    2  A    between atoms: CA_3  and  C_28
    3  A    between atoms: C_17  and  C_20
    4  A    between atoms: N_19  and  C_28
                            x       y       z     vdW  Elec       q    Type
                         _______ _______ _______ _____ _____    ______ ____

>  <TORSDO>
F 4

$$$$
=
 OpenBabel10232409363D

 33 36  0  0  1  0  0  0  0  0999 V2000
  182.3270  177.9320  137.6440 C   0  0  0  0  0  0  0  0  0  0  0  0
  188.8460  175.7430  135.1920 C   0  0  0  0  0  1  0  0  0  0  0  0
  187.4730  175.8610  135.7600 C   0  0  0  0  0  0  0  0  0  0  0  0
  186.9710  177.2120  136.2250 C   0  0  2  0  0  3  0  0  0  0  0  0
  185.3820  174.8530  136.3140 C   0  0  0  0  0  0  0  0  0  0  0  0
  182.3500  177.5600  140.6510 O   0  0  0  0  0  0  0  0  0  0  0  0
  184.9910  176.0130  137.1410 C   0  0  0  0  0  0  0  0  0  0  0  0
  182.6730  175.1270  137.1630 C   0  0  1  0  0  3  0  0  0  0  0  0
  183.2340  173.7600  136.7300 C   0  0  0  0  0  2  0  0  0  0  0  0
  184.5580  173.8700  136.1080 N   0  0  0  0  0  0  0  0  0  0  0  0
  182.4870  175.6020  134.7690 O   0  0  0  0  0  1  0  0  0  0  0  0
  180.8020  179.4110  140.4940 C   0  0  0  0  0  2  0  0  0  0  0  0
  182.1480  177.4810  136.2100 C   0  0  0  0  0  2  0  0  0  0  0  0
  186.6860  174.8260  135.7270 N   0  0  0  0  0  0  0  0  0  0  0  0
  182.1210  178.8800  141.0610 C   0  0  1  0  0  3  0  0  0  0  0  0
  185.7760  177.0960  137.1370 C   0  0  0  0  0  3  0  0  0  0  0  0
  186.5860  178.0360  135.0090 C   0  0  0  0  0  1  0  0  0  0  0  0
  181.6810  179.2290  138.1040 C   0  0  1  0  0  3  0  0  0  0  0  0
  183.7310  175.9020  137.9660 C   0  0  2  0  0  3  0  0  0  0  0  0
  183.1540  177.2110  138.4500 C   0  0  0  0  0  0  0  0  0  0  0  0
  183.4900  177.6330  139.8450 C   0  0  0  0  0  2  0  0  0  0  0  0
  182.0070  175.9600  136.0310 C   0  0  2  0  0  3  0  0  0  0  0  0
  181.2110  179.9840  137.0200 O   0  0  0  0  0  1  0  0  0  0  0  0
  180.5220  178.9420  139.0560 C   0  0  0  0  0  2  0  0  0  0  0  0
  183.4650  179.1520  143.1640 N   0  0  0  0  0  2  0  0  0  0  0  0
  182.1890  178.9530  142.5530 C   0  0  0  0  0  0  0  0  0  0  0  0
  181.1640  178.7660  143.2630 O   0  0  0  0  0  0  0  0  0  0  0  0
  183.7230  178.8970  144.5770 C   0  0  0  0  0  2  0  0  0  0  0  0
  185.2150  178.9180  144.8750 C   0  0  2  0  0  3  0  0  0  0  0  0
  185.9200  178.0370  143.9620 N   0  0  0  0  0  1  0  0  0  0  0  0
  185.4510  178.4820  146.2850 C   0  0  0  0  0  0  0  0  0  0  0  0
  186.7320  178.1450  146.7200 O   0  0  0  0  0  0  0  0  0  0  0  0
  184.4820  178.4140  147.0850 O   0  0  0  0  0  1  0  0  0  0  0  0
  1 18  1  0  0  0  0
  1 20  2  0  0  0  0
  2  3  1  0  0  0  0
  3  4  1  0  0  0  0
  4 17  1  6  0  0  0
  4 16  1  0  0  0  0
  5  7  1  0  0  0  0
  6 15  1  0  0  0  0
  8  9  1  6  0  0  0
  8 19  1  0  0  0  0
 10  5  2  0  0  0  0
 10  9  1  0  0  0  0
 12 15  1  0  0  0  0
 13  1  1  0  0  0  0
 14  3  2  0  0  0  0
 14  5  1  0  0  0  0
 15 26  1  1  0  0  0
 16  7  2  0  0  0  0
 18 23  1  6  0  0  0
 18 24  1  0  0  0  0
 19  7  1  6  0  0  0
 19 20  1  0  0  0  0
 20 21  1  0  0  0  0
 21  6  1  0  0  0  0
 22 11  1  6  0  0  0
 22 13  1  0  0  0  0
 22  8  1  0  0  0  0
 24 12  1  0  0  0  0
 25 28  1  0  0  0  0
 26 25  1  0  0  0  0
 26 27  2  0  0  0  0
 28 29  1  0  0  0  0
 29 30  1  6  0  0  0
 29 31  1  0  0  0  0
 31 32  2  0  0  0  0
 31 33  1  0  0  0  0
M  END
>  <MODEL>
7

>  <REMARK>
 VINA RESULT:      -6.2      5.609      7.103
  Name = 
  4 active torsions:
  status: ('A' for Active; 'I' for Inactive)
    1  A    between atoms: CA_3  and  C_15
    2  A    between atoms: CA_3  and  C_28
    3  A    between atoms: C_17  and  C_20
    4  A    between atoms: N_19  and  C_28
                            x       y       z     vdW  Elec       q    Type
                         _______ _______ _______ _____ _____    ______ ____

>  <TORSDO>
F 4

$$$$
=
 OpenBabel10232409363D

 33 36  0  0  1  0  0  0  0  0999 V2000
  190.0060  176.7450  136.9260 C   0  0  0  0  0  0  0  0  0  0  0  0
  197.0420  174.9250  136.2370 C   0  0  0  0  0  1  0  0  0  0  0  0
  195.5700  174.9700  136.4570 C   0  0  0  0  0  0  0  0  0  0  0  0
  194.8890  176.3020  136.6920 C   0  0  2  0  0  3  0  0  0  0  0  0
  193.4720  173.8380  136.5770 C   0  0  0  0  0  0  0  0  0  0  0  0
  189.3330  176.5450  139.8740 O   0  0  0  0  0  0  0  0  0  0  0  0
  192.8250  175.0090  137.2020 C   0  0  0  0  0  0  0  0  0  0  0  0
  190.6270  173.9510  136.7460 C   0  0  1  0  0  3  0  0  0  0  0  0
  191.3580  172.6100  136.5560 C   0  0  0  0  0  2  0  0  0  0  0  0
  192.7820  172.7840  136.2560 N   0  0  0  0  0  0  0  0  0  0  0  0
  190.9900  174.2750  134.3460 O   0  0  0  0  0  1  0  0  0  0  0  0
  187.7580  178.2610  139.2240 C   0  0  0  0  0  2  0  0  0  0  0  0
  190.2020  176.2020  135.5270 C   0  0  0  0  0  2  0  0  0  0  0  0
  194.8780  173.8780  136.3160 N   0  0  0  0  0  0  0  0  0  0  0  0
  188.9330  177.8650  140.1220 C   0  0  1  0  0  3  0  0  0  0  0  0
  193.5200  176.1470  137.3040 C   0  0  0  0  0  3  0  0  0  0  0  0
  194.7570  177.0250  135.3630 C   0  0  0  0  0  1  0  0  0  0  0  0
  189.1910  178.0130  137.1270 C   0  0  1  0  0  3  0  0  0  0  0  0
  191.4130  174.8490  137.7150 C   0  0  2  0  0  3  0  0  0  0  0  0
  190.6590  176.1360  137.9540 C   0  0  0  0  0  0  0  0  0  0  0  0
  190.6260  176.6600  139.3540 C   0  0  0  0  0  2  0  0  0  0  0  0
  190.2020  174.6660  135.4310 C   0  0  2  0  0  3  0  0  0  0  0  0
  188.9490  178.6670  135.9100 O   0  0  0  0  0  1  0  0  0  0  0  0
  187.8580  177.6920  137.7990 C   0  0  0  0  0  2  0  0  0  0  0  0
  189.7270  177.9720  142.5010 N   0  0  0  0  0  2  0  0  0  0  0  0
  188.6380  178.0270  141.5790 C   0  0  0  0  0  0  0  0  0  0  0  0
  187.4530  178.1300  141.9970 O   0  0  0  0  0  0  0  0  0  0  0  0
  189.5520  177.7660  143.9340 C   0  0  0  0  0  2  0  0  0  0  0  0
  190.8560  177.9920  144.6850 C   0  0  2  0  0  3  0  0  0  0  0  0
  191.9850  177.6370  143.8430 N   0  0  0  0  0  1  0  0  0  0  0  0
  190.8700  177.1610  145.9270 C   0  0  0  0  0  0  0  0  0  0  0  0
  189.6800  176.8300  146.5750 O   0  0  0  0  0  1  0  0  0  0  0  0
  191.9670  176.7620  146.3960 O   0  0  0  0  0  0  0  0  0  0  0  0
  1 18  1  0  0  0  0
  1 20  2  0  0  0  0
  2  3  1  0  0  0  0
  3  4  1  0  0  0  0
  4 17  1  6  0  0  0
  4 16  1  0  0  0  0
  5  7  1  0  0  0  0
  6 15  1  0  0  0  0
  7 16  2  0  0  0  0
  8  9  1  6  0  0  0
  8 19  1  0  0  0  0
 10  9  1  0  0  0  0
 10  5  2  0  0  0  0
 12 15  1  0  0  0  0
 13  1  1  0  0  0  0
 14  3  2  0  0  0  0
 14  5  1  0  0  0  0
 15 26  1  1  0  0  0
 18 23  1  6  0  0  0
 18 24  1  0  0  0  0
 19  7  1  6  0  0  0
 19 20  1  0  0  0  0
 20 21  1  0  0  0  0
 21  6  1  0  0  0  0
 22 11  1  6  0  0  0
 22 13  1  0  0  0  0
 22  8  1  0  0  0  0
 24 12  1  0  0  0  0
 25 28  1  0  0  0  0
 26 27  2  0  0  0  0
 26 25  1  0  0  0  0
 28 29  1  0  0  0  0
 29 30  1  6  0  0  0
 29 31  1  0  0  0  0
 31 33  2  0  0  0  0
 31 32  1  0  0  0  0
M  END
>  <MODEL>
8

>  <REMARK>
 VINA RESULT:      -6.0      1.154      1.242
  Name = 
  4 active torsions:
  status: ('A' for Active; 'I' for Inactive)
    1  A    between atoms: CA_3  and  C_15
    2  A    between atoms: CA_3  and  C_28
    3  A    between atoms: C_17  and  C_20
    4  A    between atoms: N_19  and  C_28
                            x       y       z     vdW  Elec       q    Type
                         _______ _______ _______ _____ _____    ______ ____

>  <TORSDO>
F 4

$$$$
=
 OpenBabel10232409363D

 33 36  0  0  1  0  0  0  0  0999 V2000
  192.9200  174.5480  136.1100 C   0  0  0  0  0  0  0  0  0  0  0  0
  200.2180  174.4740  136.2990 C   0  0  0  0  0  1  0  0  0  0  0  0
  198.7590  174.2310  136.4760 C   0  0  0  0  0  0  0  0  0  0  0  0
  197.7690  175.3120  136.0970 C   0  0  2  0  0  3  0  0  0  0  0  0
  196.9760  172.7650  137.0860 C   0  0  0  0  0  0  0  0  0  0  0  0
  191.9810  175.4650  138.8410 O   0  0  0  0  0  0  0  0  0  0  0  0
  196.0110  173.8820  137.1270 C   0  0  0  0  0  0  0  0  0  0  0  0
  194.1810  172.2080  137.1860 C   0  0  1  0  0  3  0  0  0  0  0  0
  195.2170  171.1510  137.6110 C   0  0  0  0  0  2  0  0  0  0  0  0
  196.5880  171.5380  137.2640 N   0  0  0  0  0  0  0  0  0  0  0  0
  194.7300  171.5530  134.8920 O   0  0  0  0  0  1  0  0  0  0  0  0
  190.1380  176.2710  137.4980 C   0  0  0  0  0  2  0  0  0  0  0  0
  193.3930  173.5270  135.0960 C   0  0  0  0  0  2  0  0  0  0  0  0
  198.3560  173.0470  136.8340 N   0  0  0  0  0  0  0  0  0  0  0  0
  191.2630  176.6130  138.4780 C   0  0  1  0  0  3  0  0  0  0  0  0
  196.4120  175.0900  136.7140 C   0  0  0  0  0  3  0  0  0  0  0  0
  197.6260  175.3350  134.5850 C   0  0  0  0  0  1  0  0  0  0  0  0
  191.8190  175.5240  135.7280 C   0  0  1  0  0  3  0  0  0  0  0  0
  194.6260  173.6020  137.6570 C   0  0  2  0  0  3  0  0  0  0  0  0
  193.5740  174.6270  137.3010 C   0  0  0  0  0  0  0  0  0  0  0  0
  193.2630  175.6720  138.3240 C   0  0  0  0  0  2  0  0  0  0  0  0
  193.7550  172.1560  135.6910 C   0  0  2  0  0  3  0  0  0  0  0  0
  191.5730  175.5080  134.3480 O   0  0  0  0  0  1  0  0  0  0  0  0
  190.5270  175.1930  136.4730 C   0  0  0  0  0  2  0  0  0  0  0  0
  191.6370  177.3400  140.8520 N   0  0  0  0  0  2  0  0  0  0  0  0
  190.7760  177.3020  139.7130 C   0  0  0  0  0  0  0  0  0  0  0  0
  189.6070  177.7700  139.7810 O   0  0  0  0  0  0  0  0  0  0  0  0
  191.1700  177.6580  142.1970 C   0  0  0  0  0  2  0  0  0  0  0  0
  190.8010  176.3960  142.9620 C   0  0  2  0  0  3  0  0  0  0  0  0
  189.3870  176.4070  143.2920 N   0  0  0  0  0  1  0  0  0  0  0  0
  191.6130  176.3130  144.2140 C   0  0  0  0  0  0  0  0  0  0  0  0
  191.8660  177.4530  144.9740 O   0  0  0  0  0  1  0  0  0  0  0  0
  192.0770  175.2020  144.5810 O   0  0  0  0  0  0  0  0  0  0  0  0
  1 20  2  0  0  0  0
  2  3  1  0  0  0  0
  3 14  2  0  0  0  0
  4 17  1  6  0  0  0
  4  3  1  0  0  0  0
  4 16  1  0  0  0  0
  5  7  1  0  0  0  0
  5 10  2  0  0  0  0
  8  9  1  6  0  0  0
  8 19  1  0  0  0  0
 10  9  1  0  0  0  0
 12 15  1  0  0  0  0
 13 22  1  0  0  0  0
 13  1  1  0  0  0  0
 14  5  1  0  0  0  0
 15  6  1  0  0  0  0
 15 26  1  1  0  0  0
 16  7  2  0  0  0  0
 18 23  1  6  0  0  0
 18  1  1  0  0  0  0
 18 24  1  0  0  0  0
 19  7  1  6  0  0  0
 20 19  1  0  0  0  0
 20 21  1  0  0  0  0
 21  6  1  0  0  0  0
 22 11  1  6  0  0  0
 22  8  1  0  0  0  0
 24 12  1  0  0  0  0
 25 28  1  0  0  0  0
 26 27  2  0  0  0  0
 26 25  1  0  0  0  0
 28 29  1  0  0  0  0
 29 30  1  1  0  0  0
 29 31  1  0  0  0  0
 31 33  2  0  0  0  0
 31 32  1  0  0  0  0
M  END
>  <MODEL>
9

>  <REMARK>
 VINA RESULT:      -5.8      2.567      4.247
  Name = 
  4 active torsions:
  status: ('A' for Active; 'I' for Inactive)
    1  A    between atoms: CA_3  and  C_15
    2  A    between atoms: CA_3  and  C_28
    3  A    between atoms: C_17  and  C_20
    4  A    between atoms: N_19  and  C_28
                            x       y       z     vdW  Elec       q    Type
                         _______ _______ _______ _____ _____    ______ ____

>  <TORSDO>
F 4

$$$$
