=
 OpenBabel10232412363D

 37 42  0  0  1  0  0  0  0  0999 V2000
  189.8510  176.9690  140.3370 N   0  0  0  0  0  0  0  0  0  0  0  0
  189.0800  177.3290  141.3780 C   0  0  0  0  0  0  0  0  0  0  0  0
  189.3940  177.5980  139.2650 N   0  0  0  0  0  0  0  0  0  0  0  0
  188.1040  178.2060  140.9330 C   0  0  0  0  0  0  0  0  0  0  0  0
  188.3250  178.3570  139.5750 C   0  0  0  0  0  3  0  0  0  0  0  0
  189.9320  177.4190  137.9220 C   0  0  1  0  0  3  0  0  0  0  0  0
  191.1540  175.8340  136.4960 C   0  0  0  0  0  2  0  0  0  0  0  0
  190.2960  175.9630  137.6740 C   0  0  2  0  0  3  0  0  0  0  0  0
  189.7120  175.5600  136.3760 N   0  0  1  0  0  0  0  0  0  0  0  0
  188.8790  177.7610  136.9030 C   0  0  0  0  0  2  0  0  0  0  0  0
  189.0910  176.7470  135.7970 C   0  0  2  0  0  3  0  0  0  0  0  0
  187.8060  176.3830  135.2120 N   0  0  0  0  0  2  0  0  0  0  0  0
  186.3280  174.7310  136.7250 S   0  0  0  0  0  0  0  0  0  0  0  0
  186.6090  176.1580  135.9660 C   0  0  0  0  0  0  0  0  0  0  0  0
  185.5550  177.2080  135.9760 C   0  0  0  0  0  2  0  0  0  0  0  0
  184.7330  177.0760  137.1690 N   0  0  0  0  0  2  0  0  0  0  0  0
  185.2950  177.8560  138.1280 O   0  0  0  0  0  0  0  0  0  0  0  0
  184.4020  179.9520  139.4490 O   0  0  0  0  0  1  0  0  0  0  0  0
  182.7120  178.7960  137.8070 O   0  0  0  0  0  0  0  0  0  0  0  0
  183.9830  178.6000  138.9100 P   0  0  0  0  0  0  0  0  0  0  0  0
  183.4640  177.6230  140.2000 O   0  0  0  0  0  1  0  0  0  0  0  0
  187.0360  178.8230  141.7320 C   0  0  0  0  0  3  0  0  0  0  0  0
  186.0800  178.1000  142.3000 C   0  0  0  0  0  2  0  0  0  0  0  0
  189.5690  175.6160  142.9420 O   0  0  0  0  0  0  0  0  0  0  0  0
  189.2900  176.8310  142.7590 C   0  0  0  0  0  0  0  0  0  0  0  0
  189.2880  177.7950  143.9350 C   0  0  2  0  0  3  0  0  0  0  0  0
  191.7420  177.3000  144.3700 O   0  0  0  0  0  0  0  0  0  0  0  0
  190.6180  178.1020  144.7110 C   0  0  2  0  0  0  0  0  0  0  0  0
  189.6370  177.0100  145.1510 C   0  0  1  0  0  3  0  0  0  0  0  0
  191.5470  178.4130  143.5790 C   0  0  0  0  0  2  0  0  0  0  0  0
  186.7290  178.2750  147.2550 C   0  0  0  0  0  0  0  0  0  0  0  0
  188.6790  178.0610  148.6810 C   0  0  0  0  0  3  0  0  0  0  0  0
  187.3280  178.3910  148.5150 C   0  0  0  0  0  3  0  0  0  0  0  0
  188.8270  177.4660  146.3280 C   0  0  0  0  0  0  0  0  0  0  0  0
  187.4780  177.8190  146.1640 C   0  0  0  0  0  3  0  0  0  0  0  0
  185.4210  178.5980  147.0940 F   0  0  0  0  0  0  0  0  0  0  0  0
  189.4270  177.6060  147.5900 C   0  0  0  0  0  3  0  0  0  0  0  0
  1  2  2  0  0  0  0
  2 25  1  0  0  0  0
  3  5  1  0  0  0  0
  3  1  1  0  0  0  0
  4  2  1  0  0  0  0
  4 22  1  0  0  0  0
  5  4  2  0  0  0  0
  6 10  1  6  0  0  0
  6  3  1  0  0  0  0
  8  7  1  6  0  0  0
  8  6  1  0  0  0  0
  9  7  1  6  0  0  0
  9  8  1  0  0  0  0
 11 12  1  1  0  0  0
 11  9  1  0  0  0  0
 11 10  1  0  0  0  0
 12 14  1  0  0  0  0
 14 15  1  0  0  0  0
 14 13  2  0  0  0  0
 15 16  1  0  0  0  0
 16 17  1  0  0  0  0
 17 20  1  0  0  0  0
 19 20  2  0  0  0  0
 20 18  1  0  0  0  0
 20 21  1  0  0  0  0
 22 23  2  0  0  0  0
 25 24  2  0  0  0  0
 26 25  1  6  0  0  0
 26 28  1  0  0  0  0
 26 29  1  0  0  0  0
 27 28  1  0  0  0  0
 28 30  1  1  0  0  0
 28 29  1  0  0  0  0
 29 34  1  1  0  0  0
 30 27  1  0  0  0  0
 31 33  1  0  0  0  0
 33 32  2  0  0  0  0
 34 37  2  0  0  0  0
 35 34  1  0  0  0  0
 35 31  2  0  0  0  0
 36 31  1  0  0  0  0
 37 32  1  0  0  0  0
M  END
>  <MODEL>
1

>  <REMARK>
 VINA RESULT:      -8.5      0.000      0.000
  Name = 
  11 active torsions:
  status: ('A' for Active; 'I' for Inactive)
    1  A    between atoms: C_2  and  N_32
    2  A    between atoms: C_4  and  C_33
    3  A    between atoms: C_8  and  N_14
    4  A    between atoms: C_8  and  C_27
    5  A    between atoms: C_11  and  C_13
    6  A    between atoms: C_13  and  C_21
    7  A    between atoms: N_14  and  C_35
    8  A    between atoms: O_19  and  P_25
    9  A    between atoms: O_19  and  N_36
   10  A    between atoms: C_22  and  C_30
   11  A    between atoms: C_27  and  N_36
                            x       y       z     vdW  Elec       q    Type
                         _______ _______ _______ _____ _____    ______ ____

>  <TORSDO>
F 11

$$$$
=
 OpenBabel10232412363D

 37 42  0  0  1  0  0  0  0  0999 V2000
  188.6920  177.3740  140.1230 N   0  0  0  0  0  0  0  0  0  0  0  0
  189.7800  177.1550  140.8830 C   0  0  0  0  0  0  0  0  0  0  0  0
  189.1110  177.6960  138.9090 N   0  0  0  0  0  0  0  0  0  0  0  0
  190.9150  177.3580  140.1130 C   0  0  0  0  0  0  0  0  0  0  0  0
  190.4570  177.7090  138.8540 C   0  0  0  0  0  3  0  0  0  0  0  0
  188.2260  178.0660  137.8120 C   0  0  1  0  0  3  0  0  0  0  0  0
  187.8100  177.6920  135.4180 C   0  0  0  0  0  2  0  0  0  0  0  0
  188.4080  177.1280  136.6280 C   0  0  2  0  0  3  0  0  0  0  0  0
  187.0700  176.6790  136.1880 N   0  0  1  0  0  0  0  0  0  0  0  0
  186.7910  177.9140  138.2410 C   0  0  0  0  0  2  0  0  0  0  0  0
  186.0890  177.3860  137.0070 C   0  0  2  0  0  3  0  0  0  0  0  0
  185.0330  176.4610  137.4010 N   0  0  0  0  0  2  0  0  0  0  0  0
  183.0390  177.0270  135.6960 S   0  0  0  0  0  0  0  0  0  0  0  0
  183.6360  176.6900  137.1870 C   0  0  0  0  0  0  0  0  0  0  0  0
  182.7220  176.7190  138.3600 C   0  0  0  0  0  2  0  0  0  0  0  0
  183.0660  177.8320  139.2320 N   0  0  0  0  0  2  0  0  0  0  0  0
  183.4330  177.3020  140.4280 O   0  0  0  0  0  0  0  0  0  0  0  0
  183.3760  179.1060  142.3450 O   0  0  0  0  0  1  0  0  0  0  0  0
  185.6940  177.9660  141.8790 O   0  0  0  0  0  1  0  0  0  0  0  0
  184.2450  178.5600  141.2310 P   0  0  0  0  0  0  0  0  0  0  0  0
  184.5880  179.8070  140.1300 O   0  0  0  0  0  0  0  0  0  0  0  0
  192.3130  177.2540  140.5510 C   0  0  0  0  0  3  0  0  0  0  0  0
  193.3160  177.2100  139.6840 C   0  0  0  0  0  2  0  0  0  0  0  0
  190.0990  175.6160  142.6570 O   0  0  0  0  0  0  0  0  0  0  0  0
  189.7120  176.7640  142.3110 C   0  0  0  0  0  0  0  0  0  0  0  0
  189.2950  177.7750  143.3680 C   0  0  2  0  0  3  0  0  0  0  0  0
  191.5400  177.5180  144.5290 O   0  0  0  0  0  0  0  0  0  0  0  0
  190.3110  178.2320  144.4740 C   0  0  2  0  0  0  0  0  0  0  0  0
  189.3250  177.0780  144.6830 C   0  0  1  0  0  3  0  0  0  0  0  0
  191.5090  178.5740  143.6420 C   0  0  0  0  0  2  0  0  0  0  0  0
  185.8530  178.2050  145.7580 C   0  0  0  0  0  0  0  0  0  0  0  0
  187.2890  178.1610  147.7110 C   0  0  0  0  0  3  0  0  0  0  0  0
  186.0360  178.3960  147.1330 C   0  0  0  0  0  3  0  0  0  0  0  0
  188.1740  177.5120  145.5410 C   0  0  0  0  0  0  0  0  0  0  0  0
  186.9200  177.7700  144.9640 C   0  0  0  0  0  3  0  0  0  0  0  0
  184.6390  178.4370  145.1980 F   0  0  0  0  0  0  0  0  0  0  0  0
  188.3560  177.7260  146.9170 C   0  0  0  0  0  3  0  0  0  0  0  0
  1  2  2  0  0  0  0
  2 25  1  0  0  0  0
  3  1  1  0  0  0  0
  4 22  1  0  0  0  0
  4  2  1  0  0  0  0
  5  3  1  0  0  0  0
  5  4  2  0  0  0  0
  6 10  1  1  0  0  0
  6  3  1  0  0  0  0
  8  7  1  6  0  0  0
  8  6  1  0  0  0  0
  9  7  1  6  0  0  0
  9  8  1  0  0  0  0
  9 11  1  0  0  0  0
 11 12  1  1  0  0  0
 11 10  1  0  0  0  0
 13 14  2  0  0  0  0
 14 12  1  0  0  0  0
 14 15  1  0  0  0  0
 15 16  1  0  0  0  0
 16 17  1  0  0  0  0
 17 20  1  0  0  0  0
 20 19  1  0  0  0  0
 20 18  1  0  0  0  0
 21 20  2  0  0  0  0
 23 22  2  0  0  0  0
 25 24  2  0  0  0  0
 26 25  1  6  0  0  0
 26 28  1  0  0  0  0
 26 29  1  0  0  0  0
 28 30  1  1  0  0  0
 28 27  1  0  0  0  0
 28 29  1  0  0  0  0
 29 34  1  1  0  0  0
 30 27  1  0  0  0  0
 31 33  1  0  0  0  0
 33 32  2  0  0  0  0
 34 37  2  0  0  0  0
 35 34  1  0  0  0  0
 35 31  2  0  0  0  0
 36 31  1  0  0  0  0
 37 32  1  0  0  0  0
M  END
>  <MODEL>
2

>  <REMARK>
 VINA RESULT:      -8.3      1.838      2.838
  Name = 
  11 active torsions:
  status: ('A' for Active; 'I' for Inactive)
    1  A    between atoms: C_2  and  N_32
    2  A    between atoms: C_4  and  C_33
    3  A    between atoms: C_8  and  N_14
    4  A    between atoms: C_8  and  C_27
    5  A    between atoms: C_11  and  C_13
    6  A    between atoms: C_13  and  C_21
    7  A    between atoms: N_14  and  C_35
    8  A    between atoms: O_19  and  P_25
    9  A    between atoms: O_19  and  N_36
   10  A    between atoms: C_22  and  C_30
   11  A    between atoms: C_27  and  N_36
                            x       y       z     vdW  Elec       q    Type
                         _______ _______ _______ _____ _____    ______ ____

>  <TORSDO>
F 11

$$$$
=
 OpenBabel10232412363D

 37 42  0  0  1  0  0  0  0  0999 V2000
  190.2940  176.0610  140.3260 N   0  0  0  0  0  0  0  0  0  0  0  0
  189.6870  176.8380  141.2400 C   0  0  0  0  0  0  0  0  0  0  0  0
  189.8820  176.4530  139.1310 N   0  0  0  0  0  0  0  0  0  0  0  0
  188.8600  177.7390  140.5870 C   0  0  0  0  0  0  0  0  0  0  0  0
  189.0010  177.4670  139.2360 C   0  0  0  0  0  3  0  0  0  0  0  0
  190.2720  175.8110  137.8820 C   0  0  1  0  0  3  0  0  0  0  0  0
  190.2460  176.0960  135.4410 C   0  0  0  0  0  2  0  0  0  0  0  0
  190.2140  176.7970  136.7240 C   0  0  2  0  0  3  0  0  0  0  0  0
  191.4820  176.6940  135.9710 N   0  0  1  0  0  0  0  0  0  0  0  0
  191.7050  175.3590  137.9670 C   0  0  0  0  0  2  0  0  0  0  0  0
  192.2590  175.6190  136.5810 C   0  0  2  0  0  3  0  0  0  0  0  0
  193.6540  176.0270  136.6790 N   0  0  0  0  0  2  0  0  0  0  0  0
  195.7230  174.6830  135.6210 S   0  0  0  0  0  0  0  0  0  0  0  0
  194.7500  175.1240  136.8670 C   0  0  0  0  0  0  0  0  0  0  0  0
  194.9480  174.4980  138.2020 C   0  0  0  0  0  2  0  0  0  0  0  0
  196.3650  174.4650  138.5300 N   0  0  0  0  0  2  0  0  0  0  0  0
  196.4580  174.3060  139.8760 O   0  0  0  0  0  0  0  0  0  0  0  0
  198.4610  174.9130  141.4740 O   0  0  0  0  0  1  0  0  0  0  0  0
  198.5410  175.9340  139.0560 O   0  0  0  0  0  0  0  0  0  0  0  0
  197.5820  175.4780  140.3770 P   0  0  0  0  0  0  0  0  0  0  0  0
  196.7550  176.8390  140.9710 O   0  0  0  0  0  1  0  0  0  0  0  0
  187.9910  178.7520  141.2010 C   0  0  0  0  0  3  0  0  0  0  0  0
  186.6940  178.5440  141.3840 C   0  0  0  0  0  2  0  0  0  0  0  0
  190.6150  175.7580  143.1350 O   0  0  0  0  0  0  0  0  0  0  0  0
  189.9050  176.7040  142.7000 C   0  0  0  0  0  0  0  0  0  0  0  0
  189.3800  177.7610  143.6590 C   0  0  2  0  0  3  0  0  0  0  0  0
  191.5740  177.7160  144.9400 O   0  0  0  0  0  0  0  0  0  0  0  0
  190.3130  178.3530  144.7750 C   0  0  2  0  0  0  0  0  0  0  0  0
  189.3800  177.1630  145.0220 C   0  0  1  0  0  3  0  0  0  0  0  0
  191.5310  178.7030  143.9770 C   0  0  0  0  0  2  0  0  0  0  0  0
  185.8070  178.1810  145.8420 C   0  0  0  0  0  0  0  0  0  0  0  0
  187.1340  178.3210  147.8670 C   0  0  0  0  0  3  0  0  0  0  0  0
  185.9050  178.4610  147.2100 C   0  0  0  0  0  3  0  0  0  0  0  0
  188.1650  177.5890  145.7900 C   0  0  0  0  0  0  0  0  0  0  0  0
  186.9350  177.7520  145.1330 C   0  0  0  0  0  3  0  0  0  0  0  0
  184.6170  178.3200  145.2060 F   0  0  0  0  0  0  0  0  0  0  0  0
  188.2620  177.8930  147.1580 C   0  0  0  0  0  3  0  0  0  0  0  0
  1  2  2  0  0  0  0
  2 25  1  0  0  0  0
  3  5  1  0  0  0  0
  3  1  1  0  0  0  0
  4 22  1  0  0  0  0
  4  2  1  0  0  0  0
  5  4  2  0  0  0  0
  6 10  1  1  0  0  0
  6  3  1  0  0  0  0
  8  7  1  6  0  0  0
  8  6  1  0  0  0  0
  9  7  1  6  0  0  0
  9 11  1  0  0  0  0
  9  8  1  0  0  0  0
 11 12  1  1  0  0  0
 11 10  1  0  0  0  0
 12 14  1  0  0  0  0
 13 14  2  0  0  0  0
 14 15  1  0  0  0  0
 15 16  1  0  0  0  0
 16 17  1  0  0  0  0
 17 20  1  0  0  0  0
 19 20  2  0  0  0  0
 20 21  1  0  0  0  0
 20 18  1  0  0  0  0
 22 23  2  0  0  0  0
 25 24  2  0  0  0  0
 26 25  1  6  0  0  0
 26 28  1  0  0  0  0
 26 29  1  0  0  0  0
 28 30  1  1  0  0  0
 28 27  1  0  0  0  0
 28 29  1  0  0  0  0
 29 34  1  1  0  0  0
 30 27  1  0  0  0  0
 31 33  1  0  0  0  0
 33 32  2  0  0  0  0
 34 37  2  0  0  0  0
 35 34  1  0  0  0  0
 35 31  2  0  0  0  0
 36 31  1  0  0  0  0
 37 32  1  0  0  0  0
M  END
>  <MODEL>
3

>  <REMARK>
 VINA RESULT:      -8.1      4.321      6.383
  Name = 
  11 active torsions:
  status: ('A' for Active; 'I' for Inactive)
    1  A    between atoms: C_2  and  N_32
    2  A    between atoms: C_4  and  C_33
    3  A    between atoms: C_8  and  N_14
    4  A    between atoms: C_8  and  C_27
    5  A    between atoms: C_11  and  C_13
    6  A    between atoms: C_13  and  C_21
    7  A    between atoms: N_14  and  C_35
    8  A    between atoms: O_19  and  P_25
    9  A    between atoms: O_19  and  N_36
   10  A    between atoms: C_22  and  C_30
   11  A    between atoms: C_27  and  N_36
                            x       y       z     vdW  Elec       q    Type
                         _______ _______ _______ _____ _____    ______ ____

>  <TORSDO>
F 11

$$$$
=
 OpenBabel10232412363D

 37 42  0  0  1  0  0  0  0  0999 V2000
  189.7720  178.3980  142.0680 N   0  0  0  0  0  0  0  0  0  0  0  0
  190.1630  177.6570  143.1200 C   0  0  0  0  0  0  0  0  0  0  0  0
  189.7090  177.5970  141.0160 N   0  0  0  0  0  0  0  0  0  0  0  0
  190.3580  176.3500  142.7010 C   0  0  0  0  0  0  0  0  0  0  0  0
  190.0650  176.3410  141.3480 C   0  0  0  0  0  3  0  0  0  0  0  0
  189.3790  178.0440  139.6680 C   0  0  1  0  0  3  0  0  0  0  0  0
  189.8510  177.6210  137.2940 C   0  0  0  0  0  2  0  0  0  0  0  0
  189.8460  177.0320  138.6320 C   0  0  2  0  0  3  0  0  0  0  0  0
  188.7220  176.7720  137.7070 N   0  0  1  0  0  0  0  0  0  0  0  0
  187.8850  178.1340  139.5130 C   0  0  0  0  0  2  0  0  0  0  0  0
  187.6300  177.6590  138.0970 C   0  0  2  0  0  3  0  0  0  0  0  0
  186.3710  176.9280  138.0450 N   0  0  0  0  0  2  0  0  0  0  0  0
  185.9660  177.4260  135.4380 S   0  0  0  0  0  0  0  0  0  0  0  0
  185.4760  176.9350  136.9260 C   0  0  0  0  0  0  0  0  0  0  0  0
  184.0470  176.5830  137.1430 C   0  0  0  0  0  2  0  0  0  0  0  0
  183.5090  177.3490  138.2570 N   0  0  0  0  0  2  0  0  0  0  0  0
  183.2270  178.5910  137.7870 O   0  0  0  0  0  0  0  0  0  0  0  0
  182.8800  181.0090  138.7710 O   0  0  0  0  0  0  0  0  0  0  0  0
  182.1930  179.0040  140.3200 O   0  0  0  0  0  1  0  0  0  0  0  0
  183.2710  179.5970  139.1550 P   0  0  0  0  0  0  0  0  0  0  0  0
  184.8450  179.6100  139.7980 O   0  0  0  0  0  1  0  0  0  0  0  0
  190.8120  175.2160  143.5180 C   0  0  0  0  0  3  0  0  0  0  0  0
  191.9750  175.2350  144.1570 C   0  0  0  0  0  2  0  0  0  0  0  0
  191.4870  178.5780  144.8570 O   0  0  0  0  0  0  0  0  0  0  0  0
  190.3410  178.2070  144.4850 C   0  0  0  0  0  0  0  0  0  0  0  0
  189.1390  178.4380  145.3860 C   0  0  2  0  0  3  0  0  0  0  0  0
  189.6130  176.2610  146.6080 O   0  0  0  0  0  0  0  0  0  0  0  0
  188.8290  177.4470  146.5650 C   0  0  2  0  0  0  0  0  0  0  0  0
  188.2020  177.3000  145.1750 C   0  0  1  0  0  3  0  0  0  0  0  0
  190.1700  177.3600  147.2280 C   0  0  0  0  0  2  0  0  0  0  0  0
  184.7760  178.4380  143.9730 C   0  0  0  0  0  0  0  0  0  0  0  0
  184.8270  178.5680  146.3940 C   0  0  0  0  0  3  0  0  0  0  0  0
  184.1410  178.7350  145.1850 C   0  0  0  0  0  3  0  0  0  0  0  0
  186.7800  177.7750  145.1800 C   0  0  0  0  0  0  0  0  0  0  0  0
  186.0930  177.9650  143.9710 C   0  0  0  0  0  3  0  0  0  0  0  0
  184.1110  178.6030  142.8020 F   0  0  0  0  0  0  0  0  0  0  0  0
  186.1440  178.0950  146.3920 C   0  0  0  0  0  3  0  0  0  0  0  0
  1  2  2  0  0  0  0
  2 25  1  0  0  0  0
  3  5  1  0  0  0  0
  3  1  1  0  0  0  0
  4  2  1  0  0  0  0
  4 22  1  0  0  0  0
  5  4  2  0  0  0  0
  6 10  1  1  0  0  0
  6  3  1  0  0  0  0
  8  7  1  6  0  0  0
  8  6  1  0  0  0  0
  9  7  1  6  0  0  0
  9 11  1  0  0  0  0
  9  8  1  0  0  0  0
 11 12  1  1  0  0  0
 11 10  1  0  0  0  0
 13 14  2  0  0  0  0
 14 15  1  0  0  0  0
 14 12  1  0  0  0  0
 15 16  1  0  0  0  0
 17 16  1  0  0  0  0
 17 20  1  0  0  0  0
 18 20  2  0  0  0  0
 20 21  1  0  0  0  0
 20 19  1  0  0  0  0
 22 23  2  0  0  0  0
 25 24  2  0  0  0  0
 26 25  1  6  0  0  0
 26 28  1  0  0  0  0
 27 30  1  0  0  0  0
 28 27  1  0  0  0  0
 28 30  1  1  0  0  0
 29 34  1  1  0  0  0
 29 26  1  0  0  0  0
 29 28  1  0  0  0  0
 31 33  1  0  0  0  0
 33 32  2  0  0  0  0
 34 37  2  0  0  0  0
 35 31  2  0  0  0  0
 35 34  1  0  0  0  0
 36 31  1  0  0  0  0
 37 32  1  0  0  0  0
M  END
>  <MODEL>
4

>  <REMARK>
 VINA RESULT:      -8.0      1.859      3.108
  Name = 
  11 active torsions:
  status: ('A' for Active; 'I' for Inactive)
    1  A    between atoms: C_2  and  N_32
    2  A    between atoms: C_4  and  C_33
    3  A    between atoms: C_8  and  N_14
    4  A    between atoms: C_8  and  C_27
    5  A    between atoms: C_11  and  C_13
    6  A    between atoms: C_13  and  C_21
    7  A    between atoms: N_14  and  C_35
    8  A    between atoms: O_19  and  P_25
    9  A    between atoms: O_19  and  N_36
   10  A    between atoms: C_22  and  C_30
   11  A    between atoms: C_27  and  N_36
                            x       y       z     vdW  Elec       q    Type
                         _______ _______ _______ _____ _____    ______ ____

>  <TORSDO>
F 11

$$$$
=
 OpenBabel10232412363D

 37 42  0  0  1  0  0  0  0  0999 V2000
  187.6220  178.0530  142.4350 N   0  0  0  0  0  0  0  0  0  0  0  0
  186.3030  178.1960  142.6520 C   0  0  0  0  0  0  0  0  0  0  0  0
  187.8470  178.3130  141.1560 N   0  0  0  0  0  0  0  0  0  0  0  0
  185.6870  178.5480  141.4610 C   0  0  0  0  0  0  0  0  0  0  0  0
  186.6980  178.6110  140.5180 C   0  0  0  0  0  3  0  0  0  0  0  0
  189.1540  178.2060  140.5190 C   0  0  1  0  0  3  0  0  0  0  0  0
  191.4510  177.4110  140.8810 C   0  0  0  0  0  2  0  0  0  0  0  0
  190.0550  177.2510  141.2880 C   0  0  2  0  0  3  0  0  0  0  0  0
  190.6550  176.3070  140.3210 N   0  0  1  0  0  0  0  0  0  0  0  0
  189.0020  177.6110  139.1440 C   0  0  0  0  0  2  0  0  0  0  0  0
  190.2160  176.7180  138.9900 C   0  0  2  0  0  3  0  0  0  0  0  0
  189.8610  175.5380  138.2120 N   0  0  0  0  0  2  0  0  0  0  0  0
  190.2580  173.5700  136.4320 S   0  0  0  0  0  0  0  0  0  0  0  0
  190.7210  174.9140  137.2510 C   0  0  0  0  0  0  0  0  0  0  0  0
  192.0990  175.4430  137.0650 C   0  0  0  0  0  2  0  0  0  0  0  0
  193.0440  174.6480  137.8340 N   0  0  0  0  0  2  0  0  0  0  0  0
  194.1690  175.3960  137.9760 O   0  0  0  0  0  0  0  0  0  0  0  0
  196.7660  175.0540  137.7110 O   0  0  0  0  0  1  0  0  0  0  0  0
  195.4670  173.1860  139.0210 O   0  0  0  0  0  1  0  0  0  0  0  0
  195.4510  174.3050  137.7480 P   0  0  0  0  0  0  0  0  0  0  0  0
  195.2380  173.4810  136.2760 O   0  0  0  0  0  0  0  0  0  0  0  0
  184.2520  178.7760  141.2390 C   0  0  0  0  0  3  0  0  0  0  0  0
  183.4660  177.8390  140.7260 C   0  0  0  0  0  2  0  0  0  0  0  0
  184.4300  178.1920  144.1050 O   0  0  0  0  0  0  0  0  0  0  0  0
  185.6680  177.9920  143.9760 C   0  0  0  0  0  0  0  0  0  0  0  0
  186.4720  177.4330  145.1390 C   0  0  2  0  0  3  0  0  0  0  0  0
  185.7080  179.3540  146.6170 O   0  0  0  0  0  0  0  0  0  0  0  0
  186.4010  178.1130  146.5520 C   0  0  2  0  0  0  0  0  0  0  0  0
  187.4770  178.4630  145.5190 C   0  0  1  0  0  3  0  0  0  0  0  0
  184.9200  178.2290  146.7430 C   0  0  0  0  0  2  0  0  0  0  0  0
  190.9550  176.9520  145.2090 C   0  0  0  0  0  0  0  0  0  0  0  0
  190.2410  176.7780  147.5200 C   0  0  0  0  0  3  0  0  0  0  0  0
  191.2050  176.5570  146.5280 C   0  0  0  0  0  3  0  0  0  0  0  0
  188.7850  177.8230  145.8760 C   0  0  0  0  0  0  0  0  0  0  0  0
  189.7470  177.5780  144.8830 C   0  0  0  0  0  3  0  0  0  0  0  0
  191.8880  176.7340  144.2480 F   0  0  0  0  0  0  0  0  0  0  0  0
  189.0330  177.4030  147.1940 C   0  0  0  0  0  3  0  0  0  0  0  0
  1  2  2  0  0  0  0
  2 25  1  0  0  0  0
  3  1  1  0  0  0  0
  4  2  1  0  0  0  0
  5  3  1  0  0  0  0
  5  4  2  0  0  0  0
  6 10  1  6  0  0  0
  6  3  1  0  0  0  0
  6  8  1  0  0  0  0
  8  7  1  6  0  0  0
  9  7  1  6  0  0  0
  9  8  1  0  0  0  0
 11 12  1  6  0  0  0
 11 10  1  0  0  0  0
 11  9  1  0  0  0  0
 13 14  2  0  0  0  0
 14 12  1  0  0  0  0
 15 14  1  0  0  0  0
 15 16  1  0  0  0  0
 16 17  1  0  0  0  0
 18 20  1  0  0  0  0
 20 17  1  0  0  0  0
 20 19  1  0  0  0  0
 21 20  2  0  0  0  0
 22  4  1  0  0  0  0
 23 22  2  0  0  0  0
 25 24  2  0  0  0  0
 26 25  1  6  0  0  0
 26 29  1  0  0  0  0
 26 28  1  0  0  0  0
 27 30  1  0  0  0  0
 28 27  1  0  0  0  0
 28 30  1  1  0  0  0
 29 34  1  1  0  0  0
 29 28  1  0  0  0  0
 31 33  1  0  0  0  0
 33 32  2  0  0  0  0
 34 37  2  0  0  0  0
 35 31  2  0  0  0  0
 35 34  1  0  0  0  0
 36 31  1  0  0  0  0
 37 32  1  0  0  0  0
M  END
>  <MODEL>
5

>  <REMARK>
 VINA RESULT:      -8.0      4.105      6.127
  Name = 
  11 active torsions:
  status: ('A' for Active; 'I' for Inactive)
    1  A    between atoms: C_2  and  N_32
    2  A    between atoms: C_4  and  C_33
    3  A    between atoms: C_8  and  N_14
    4  A    between atoms: C_8  and  C_27
    5  A    between atoms: C_11  and  C_13
    6  A    between atoms: C_13  and  C_21
    7  A    between atoms: N_14  and  C_35
    8  A    between atoms: O_19  and  P_25
    9  A    between atoms: O_19  and  N_36
   10  A    between atoms: C_22  and  C_30
   11  A    between atoms: C_27  and  N_36
                            x       y       z     vdW  Elec       q    Type
                         _______ _______ _______ _____ _____    ______ ____

>  <TORSDO>
F 11

$$$$
=
 OpenBabel10232412363D

 37 42  0  0  1  0  0  0  0  0999 V2000
  190.4770  175.9670  140.2670 N   0  0  0  0  0  0  0  0  0  0  0  0
  189.8210  176.7430  141.1470 C   0  0  0  0  0  0  0  0  0  0  0  0
  190.1790  176.3990  139.0520 N   0  0  0  0  0  0  0  0  0  0  0  0
  189.0800  177.6850  140.4500 C   0  0  0  0  0  0  0  0  0  0  0  0
  189.3230  177.4390  139.1090 C   0  0  0  0  0  3  0  0  0  0  0  0
  190.6510  175.7730  137.8230 C   0  0  1  0  0  3  0  0  0  0  0  0
  190.4810  175.8890  135.3740 C   0  0  0  0  0  2  0  0  0  0  0  0
  190.3470  176.6490  136.6170 C   0  0  2  0  0  3  0  0  0  0  0  0
  191.5820  176.7640  135.8110 N   0  0  1  0  0  0  0  0  0  0  0  0
  192.1490  175.6350  137.8650 C   0  0  0  0  0  2  0  0  0  0  0  0
  192.5880  175.9140  136.4420 C   0  0  2  0  0  3  0  0  0  0  0  0
  193.8690  176.6080  136.4510 N   0  0  0  0  0  2  0  0  0  0  0  0
  195.6920  177.7440  134.8420 S   0  0  0  0  0  0  0  0  0  0  0  0
  194.8800  176.4530  135.4490 C   0  0  0  0  0  0  0  0  0  0  0  0
  195.1290  175.1020  134.8780 C   0  0  0  0  0  2  0  0  0  0  0  0
  195.9820  174.3340  135.7730 N   0  0  0  0  0  2  0  0  0  0  0  0
  195.1650  173.5490  136.5230 O   0  0  0  0  0  0  0  0  0  0  0  0
  195.3130  172.3980  138.8860 O   0  0  0  0  0  1  0  0  0  0  0  0
  197.5420  173.4060  137.9330 O   0  0  0  0  0  0  0  0  0  0  0  0
  195.8600  173.5530  138.0730 P   0  0  0  0  0  0  0  0  0  0  0  0
  195.4840  175.0130  138.8580 O   0  0  0  0  0  1  0  0  0  0  0  0
  188.1940  178.7120  141.0160 C   0  0  0  0  0  3  0  0  0  0  0  0
  186.8800  178.5470  141.0770 C   0  0  0  0  0  2  0  0  0  0  0  0
  190.4490  175.5280  143.0830 O   0  0  0  0  0  0  0  0  0  0  0  0
  189.9120  176.5680  142.6160 C   0  0  0  0  0  0  0  0  0  0  0  0
  189.4740  177.6830  143.5530 C   0  0  2  0  0  3  0  0  0  0  0  0
  191.7910  177.7440  144.5940 O   0  0  0  0  0  0  0  0  0  0  0  0
  190.5090  178.3570  144.5230 C   0  0  2  0  0  0  0  0  0  0  0  0
  189.6280  177.1770  144.9450 C   0  0  1  0  0  3  0  0  0  0  0  0
  191.6310  178.6640  143.5790 C   0  0  0  0  0  2  0  0  0  0  0  0
  187.6030  178.1830  148.0060 C   0  0  0  0  0  0  0  0  0  0  0  0
  186.1620  178.2870  146.0590 C   0  0  0  0  0  3  0  0  0  0  0  0
  186.3510  178.4420  147.4370 C   0  0  0  0  0  3  0  0  0  0  0  0
  188.4940  177.6420  145.8080 C   0  0  0  0  0  0  0  0  0  0  0  0
  188.6700  177.7790  147.1950 C   0  0  0  0  0  3  0  0  0  0  0  0
  187.7840  178.3290  149.3430 F   0  0  0  0  0  0  0  0  0  0  0  0
  187.2280  177.8830  145.2470 C   0  0  0  0  0  3  0  0  0  0  0  0
  1  2  2  0  0  0  0
  2 25  1  0  0  0  0
  3  5  1  0  0  0  0
  3  1  1  0  0  0  0
  4 22  1  0  0  0  0
  4  2  1  0  0  0  0
  5  4  2  0  0  0  0
  6 10  1  1  0  0  0
  6  3  1  0  0  0  0
  8  7  1  6  0  0  0
  8  6  1  0  0  0  0
  9  7  1  6  0  0  0
  9 11  1  0  0  0  0
  9  8  1  0  0  0  0
 11 12  1  1  0  0  0
 11 10  1  0  0  0  0
 13 14  2  0  0  0  0
 14 12  1  0  0  0  0
 15 14  1  0  0  0  0
 15 16  1  0  0  0  0
 16 17  1  0  0  0  0
 17 20  1  0  0  0  0
 19 20  2  0  0  0  0
 20 21  1  0  0  0  0
 20 18  1  0  0  0  0
 22 23  2  0  0  0  0
 25 24  2  0  0  0  0
 26 25  1  6  0  0  0
 26 28  1  0  0  0  0
 26 29  1  0  0  0  0
 28 30  1  1  0  0  0
 28 27  1  0  0  0  0
 28 29  1  0  0  0  0
 29 34  1  1  0  0  0
 30 27  1  0  0  0  0
 31 36  1  0  0  0  0
 32 33  2  0  0  0  0
 33 31  1  0  0  0  0
 34 35  1  0  0  0  0
 35 31  2  0  0  0  0
 37 34  2  0  0  0  0
 37 32  1  0  0  0  0
M  END
>  <MODEL>
6

>  <REMARK>
 VINA RESULT:      -7.9      4.289      6.154
  Name = 
  11 active torsions:
  status: ('A' for Active; 'I' for Inactive)
    1  A    between atoms: C_2  and  N_32
    2  A    between atoms: C_4  and  C_33
    3  A    between atoms: C_8  and  N_14
    4  A    between atoms: C_8  and  C_27
    5  A    between atoms: C_11  and  C_13
    6  A    between atoms: C_13  and  C_21
    7  A    between atoms: N_14  and  C_35
    8  A    between atoms: O_19  and  P_25
    9  A    between atoms: O_19  and  N_36
   10  A    between atoms: C_22  and  C_30
   11  A    between atoms: C_27  and  N_36
                            x       y       z     vdW  Elec       q    Type
                         _______ _______ _______ _____ _____    ______ ____

>  <TORSDO>
F 11

$$$$
=
 OpenBabel10232412363D

 37 42  0  0  1  0  0  0  0  0999 V2000
  187.6770  177.2840  144.4370 N   0  0  0  0  0  0  0  0  0  0  0  0
  188.6980  177.3090  145.3130 C   0  0  0  0  0  0  0  0  0  0  0  0
  186.6010  177.7340  145.0640 N   0  0  0  0  0  0  0  0  0  0  0  0
  188.2340  177.7830  146.5300 C   0  0  0  0  0  0  0  0  0  0  0  0
  186.8870  178.0430  146.3450 C   0  0  0  0  0  3  0  0  0  0  0  0
  185.2750  177.8020  144.4640 C   0  0  1  0  0  3  0  0  0  0  0  0
  183.1980  179.1160  144.4440 C   0  0  0  0  0  2  0  0  0  0  0  0
  184.6350  179.1590  144.7160 C   0  0  2  0  0  3  0  0  0  0  0  0
  184.1120  179.6650  143.4290 N   0  0  1  0  0  0  0  0  0  0  0  0
  185.3850  177.6700  142.9690 C   0  0  0  0  0  2  0  0  0  0  0  0
  184.3340  178.6200  142.4340 C   0  0  2  0  0  3  0  0  0  0  0  0
  184.8060  179.2260  141.1950 N   0  0  0  0  0  2  0  0  0  0  0  0
  182.4930  179.1150  139.8370 S   0  0  0  0  0  0  0  0  0  0  0  0
  184.1310  179.1220  139.9350 C   0  0  0  0  0  0  0  0  0  0  0  0
  184.9360  178.9180  138.7010 C   0  0  0  0  0  2  0  0  0  0  0  0
  184.7810  177.5510  138.2260 N   0  0  0  0  0  2  0  0  0  0  0  0
  184.5120  177.6200  136.8970 O   0  0  0  0  0  0  0  0  0  0  0  0
  185.4880  176.3970  134.7790 O   0  0  0  0  0  0  0  0  0  0  0  0
  187.0700  178.1230  135.9670 O   0  0  0  0  0  1  0  0  0  0  0  0
  185.8720  176.9370  136.1410 P   0  0  0  0  0  0  0  0  0  0  0  0
  186.4710  175.6650  137.0960 O   0  0  0  0  0  1  0  0  0  0  0  0
  189.0060  177.9450  147.7700 C   0  0  0  0  0  3  0  0  0  0  0  0
  188.4160  178.0380  148.9550 C   0  0  0  0  0  2  0  0  0  0  0  0
  190.7430  176.2200  145.8110 O   0  0  0  0  0  0  0  0  0  0  0  0
  190.0760  176.8820  144.9720 C   0  0  0  0  0  0  0  0  0  0  0  0
  190.6380  177.1320  143.5810 C   0  0  2  0  0  3  0  0  0  0  0  0
  190.8590  179.6110  144.0950 O   0  0  0  0  0  0  0  0  0  0  0  0
  191.1370  178.5640  143.1730 C   0  0  2  0  0  0  0  0  0  0  0  0
  189.7130  178.0730  142.8920 C   0  0  1  0  0  3  0  0  0  0  0  0
  192.0190  178.9050  144.3350 C   0  0  0  0  0  2  0  0  0  0  0  0
  190.4000  176.5950  139.4530 C   0  0  0  0  0  0  0  0  0  0  0  0
  188.3340  177.8600  139.3510 C   0  0  0  0  0  3  0  0  0  0  0  0
  189.3000  177.0620  138.7250 C   0  0  0  0  0  3  0  0  0  0  0  0
  189.5550  177.7000  141.4480 C   0  0  0  0  0  0  0  0  0  0  0  0
  190.5300  176.9170  140.8090 C   0  0  0  0  0  3  0  0  0  0  0  0
  191.3370  175.8240  138.8450 F   0  0  0  0  0  0  0  0  0  0  0  0
  188.4650  178.1830  140.7060 C   0  0  0  0  0  3  0  0  0  0  0  0
  1  3  1  0  0  0  0
  1  2  2  0  0  0  0
  2  4  1  0  0  0  0
  3  5  1  0  0  0  0
  4 22  1  0  0  0  0
  5  4  2  0  0  0  0
  6 10  1  6  0  0  0
  6  8  1  0  0  0  0
  6  3  1  0  0  0  0
  8  7  1  1  0  0  0
  9  7  1  1  0  0  0
  9  8  1  0  0  0  0
 11 12  1  6  0  0  0
 11 10  1  0  0  0  0
 11  9  1  0  0  0  0
 13 14  2  0  0  0  0
 14 12  1  0  0  0  0
 15 14  1  0  0  0  0
 16 15  1  0  0  0  0
 17 16  1  0  0  0  0
 18 20  2  0  0  0  0
 19 20  1  0  0  0  0
 20 17  1  0  0  0  0
 20 21  1  0  0  0  0
 22 23  2  0  0  0  0
 25  2  1  0  0  0  0
 25 24  2  0  0  0  0
 26 25  1  1  0  0  0
 27 30  1  0  0  0  0
 28 26  1  0  0  0  0
 28 27  1  0  0  0  0
 28 30  1  6  0  0  0
 29 34  1  6  0  0  0
 29 28  1  0  0  0  0
 29 26  1  0  0  0  0
 31 35  1  0  0  0  0
 32 37  2  0  0  0  0
 33 32  1  0  0  0  0
 33 31  2  0  0  0  0
 35 34  2  0  0  0  0
 36 31  1  0  0  0  0
 37 34  1  0  0  0  0
M  END
>  <MODEL>
7

>  <REMARK>
 VINA RESULT:      -7.8      3.298      6.407
  Name = 
  11 active torsions:
  status: ('A' for Active; 'I' for Inactive)
    1  A    between atoms: C_2  and  N_32
    2  A    between atoms: C_4  and  C_33
    3  A    between atoms: C_8  and  N_14
    4  A    between atoms: C_8  and  C_27
    5  A    between atoms: C_11  and  C_13
    6  A    between atoms: C_13  and  C_21
    7  A    between atoms: N_14  and  C_35
    8  A    between atoms: O_19  and  P_25
    9  A    between atoms: O_19  and  N_36
   10  A    between atoms: C_22  and  C_30
   11  A    between atoms: C_27  and  N_36
                            x       y       z     vdW  Elec       q    Type
                         _______ _______ _______ _____ _____    ______ ____

>  <TORSDO>
F 11

$$$$
=
 OpenBabel10232412363D

 37 42  0  0  1  0  0  0  0  0999 V2000
  187.6810  177.2940  144.4700 N   0  0  0  0  0  0  0  0  0  0  0  0
  188.7110  177.3240  145.3340 C   0  0  0  0  0  0  0  0  0  0  0  0
  186.6190  177.7740  145.0970 N   0  0  0  0  0  0  0  0  0  0  0  0
  188.2680  177.8340  146.5440 C   0  0  0  0  0  0  0  0  0  0  0  0
  186.9230  178.1090  146.3670 C   0  0  0  0  0  3  0  0  0  0  0  0
  185.2870  177.8470  144.5100 C   0  0  1  0  0  3  0  0  0  0  0  0
  183.2120  179.1630  144.5170 C   0  0  0  0  0  2  0  0  0  0  0  0
  184.6510  179.2030  144.7760 C   0  0  2  0  0  3  0  0  0  0  0  0
  184.1160  179.7170  143.4970 N   0  0  1  0  0  0  0  0  0  0  0  0
  185.3830  177.7230  143.0130 C   0  0  0  0  0  2  0  0  0  0  0  0
  184.3280  178.6780  142.4930 C   0  0  2  0  0  3  0  0  0  0  0  0
  184.7890  179.2900  141.2540 N   0  0  0  0  0  2  0  0  0  0  0  0
  182.4960  179.3030  139.8580 S   0  0  0  0  0  0  0  0  0  0  0  0
  184.1260  179.1590  139.9910 C   0  0  0  0  0  0  0  0  0  0  0  0
  184.9240  178.7890  138.7920 C   0  0  0  0  0  2  0  0  0  0  0  0
  184.1070  178.0160  137.8690 N   0  0  0  0  0  2  0  0  0  0  0  0
  184.4670  176.7140  138.0130 O   0  0  0  0  0  0  0  0  0  0  0  0
  182.5760  175.7020  139.5390 O   0  0  0  0  0  1  0  0  0  0  0  0
  181.8090  176.7140  137.2410 O   0  0  0  0  0  0  0  0  0  0  0  0
  183.0000  175.8610  138.0940 P   0  0  0  0  0  0  0  0  0  0  0  0
  183.2000  174.3230  137.3990 O   0  0  0  0  0  1  0  0  0  0  0  0
  189.0560  178.0150  147.7720 C   0  0  0  0  0  3  0  0  0  0  0  0
  188.4880  178.0420  148.9700 C   0  0  0  0  0  2  0  0  0  0  0  0
  190.7340  176.1910  145.8240 O   0  0  0  0  0  0  0  0  0  0  0  0
  190.0790  176.8690  144.9890 C   0  0  0  0  0  0  0  0  0  0  0  0
  190.6440  177.1120  143.5980 C   0  0  2  0  0  3  0  0  0  0  0  0
  190.8580  179.5940  144.0960 O   0  0  0  0  0  0  0  0  0  0  0  0
  191.1410  178.5420  143.1820 C   0  0  2  0  0  0  0  0  0  0  0  0
  189.7190  178.0460  142.9000 C   0  0  1  0  0  3  0  0  0  0  0  0
  192.0190  178.8920  144.3430 C   0  0  0  0  0  2  0  0  0  0  0  0
  190.4350  176.5840  139.4610 C   0  0  0  0  0  0  0  0  0  0  0  0
  188.3250  177.7750  139.3690 C   0  0  0  0  0  3  0  0  0  0  0  0
  189.3140  177.0100  138.7400 C   0  0  0  0  0  3  0  0  0  0  0  0
  189.5640  177.6640  141.4590 C   0  0  0  0  0  0  0  0  0  0  0  0
  190.5630  176.9150  140.8150 C   0  0  0  0  0  3  0  0  0  0  0  0
  191.3950  175.8460  138.8490 F   0  0  0  0  0  0  0  0  0  0  0  0
  188.4520  178.1060  140.7230 C   0  0  0  0  0  3  0  0  0  0  0  0
  1  3  1  0  0  0  0
  1  2  2  0  0  0  0
  2  4  1  0  0  0  0
  3  5  1  0  0  0  0
  4 22  1  0  0  0  0
  5  4  2  0  0  0  0
  6 10  1  6  0  0  0
  6  8  1  0  0  0  0
  6  3  1  0  0  0  0
  8  7  1  1  0  0  0
  9  7  1  1  0  0  0
  9  8  1  0  0  0  0
 11 12  1  6  0  0  0
 11 10  1  0  0  0  0
 11  9  1  0  0  0  0
 13 14  2  0  0  0  0
 14 12  1  0  0  0  0
 15 14  1  0  0  0  0
 16 17  1  0  0  0  0
 16 15  1  0  0  0  0
 17 20  1  0  0  0  0
 19 20  2  0  0  0  0
 20 18  1  0  0  0  0
 21 20  1  0  0  0  0
 22 23  2  0  0  0  0
 25  2  1  0  0  0  0
 25 24  2  0  0  0  0
 26 25  1  1  0  0  0
 27 30  1  0  0  0  0
 28 26  1  0  0  0  0
 28 27  1  0  0  0  0
 28 30  1  6  0  0  0
 29 34  1  6  0  0  0
 29 28  1  0  0  0  0
 29 26  1  0  0  0  0
 31 35  1  0  0  0  0
 32 37  2  0  0  0  0
 33 32  1  0  0  0  0
 33 31  2  0  0  0  0
 35 34  2  0  0  0  0
 36 31  1  0  0  0  0
 37 34  1  0  0  0  0
M  END
>  <MODEL>
8

>  <REMARK>
 VINA RESULT:      -7.7      3.300      6.346
  Name = 
  11 active torsions:
  status: ('A' for Active; 'I' for Inactive)
    1  A    between atoms: C_2  and  N_32
    2  A    between atoms: C_4  and  C_33
    3  A    between atoms: C_8  and  N_14
    4  A    between atoms: C_8  and  C_27
    5  A    between atoms: C_11  and  C_13
    6  A    between atoms: C_13  and  C_21
    7  A    between atoms: N_14  and  C_35
    8  A    between atoms: O_19  and  P_25
    9  A    between atoms: O_19  and  N_36
   10  A    between atoms: C_22  and  C_30
   11  A    between atoms: C_27  and  N_36
                            x       y       z     vdW  Elec       q    Type
                         _______ _______ _______ _____ _____    ______ ____

>  <TORSDO>
F 11

$$$$
=
 OpenBabel10232412363D

 37 42  0  0  1  0  0  0  0  0999 V2000
  188.6200  177.3410  140.1530 N   0  0  0  0  0  0  0  0  0  0  0  0
  189.7380  177.1400  140.8720 C   0  0  0  0  0  0  0  0  0  0  0  0
  188.9880  177.6790  138.9270 N   0  0  0  0  0  0  0  0  0  0  0  0
  190.8400  177.3710  140.0640 C   0  0  0  0  0  0  0  0  0  0  0  0
  190.3310  177.7200  138.8250 C   0  0  0  0  0  3  0  0  0  0  0  0
  188.0570  178.0380  137.8650 C   0  0  1  0  0  3  0  0  0  0  0  0
  187.4680  177.5490  135.5290 C   0  0  0  0  0  2  0  0  0  0  0  0
  188.1080  177.0210  136.7330 C   0  0  2  0  0  3  0  0  0  0  0  0
  186.7210  176.6310  136.4050 N   0  0  1  0  0  0  0  0  0  0  0  0
  186.6470  178.0000  138.3890 C   0  0  0  0  0  2  0  0  0  0  0  0
  185.8370  177.4450  137.2350 C   0  0  2  0  0  3  0  0  0  0  0  0
  184.7570  176.6130  137.7500 N   0  0  0  0  0  2  0  0  0  0  0  0
  183.2950  174.7270  136.5220 S   0  0  0  0  0  0  0  0  0  0  0  0
  183.5790  176.2670  137.0120 C   0  0  0  0  0  0  0  0  0  0  0  0
  182.6440  177.3480  136.5990 C   0  0  0  0  0  2  0  0  0  0  0  0
  182.1530  178.0560  137.7710 N   0  0  0  0  0  2  0  0  0  0  0  0
  181.6310  179.2320  137.3360 O   0  0  0  0  0  0  0  0  0  0  0  0
  181.4860  181.7240  138.1750 O   0  0  0  0  0  0  0  0  0  0  0  0
  181.1800  179.8560  139.9940 O   0  0  0  0  0  1  0  0  0  0  0  0
  181.9670  180.3440  138.5750 P   0  0  0  0  0  0  0  0  0  0  0  0
  183.6440  180.3970  138.8490 O   0  0  0  0  0  1  0  0  0  0  0  0
  192.2550  177.2930  140.4520 C   0  0  0  0  0  3  0  0  0  0  0  0
  193.2070  177.0130  139.5720 C   0  0  0  0  0  2  0  0  0  0  0  0
  190.1090  175.5810  142.6190 O   0  0  0  0  0  0  0  0  0  0  0  0
  189.7290  176.7390  142.2990 C   0  0  0  0  0  0  0  0  0  0  0  0
  189.3810  177.7490  143.3820 C   0  0  2  0  0  3  0  0  0  0  0  0
  191.6700  177.4340  144.4390 O   0  0  0  0  0  0  0  0  0  0  0  0
  190.4550  178.1740  144.4450 C   0  0  2  0  0  0  0  0  0  0  0  0
  189.4540  177.0400  144.6890 C   0  0  1  0  0  3  0  0  0  0  0  0
  191.6220  178.4980  143.5630 C   0  0  0  0  0  2  0  0  0  0  0  0
  187.5630  178.0620  147.8290 C   0  0  0  0  0  0  0  0  0  0  0  0
  186.0160  178.0620  145.9610 C   0  0  0  0  0  3  0  0  0  0  0  0
  186.2730  178.2620  147.3230 C   0  0  0  0  0  3  0  0  0  0  0  0
  188.3520  177.4910  145.6000 C   0  0  0  0  0  0  0  0  0  0  0  0
  188.5980  177.6720  146.9710 C   0  0  0  0  0  3  0  0  0  0  0  0
  187.8100  178.2520  149.1490 F   0  0  0  0  0  0  0  0  0  0  0  0
  187.0510  177.6720  145.1040 C   0  0  0  0  0  3  0  0  0  0  0  0
  1  2  2  0  0  0  0
  2 25  1  0  0  0  0
  3  1  1  0  0  0  0
  4 22  1  0  0  0  0
  4  2  1  0  0  0  0
  5  3  1  0  0  0  0
  5  4  2  0  0  0  0
  6 10  1  1  0  0  0
  6  3  1  0  0  0  0
  8  7  1  6  0  0  0
  8  6  1  0  0  0  0
  9  7  1  6  0  0  0
  9  8  1  0  0  0  0
  9 11  1  0  0  0  0
 11 12  1  1  0  0  0
 11 10  1  0  0  0  0
 13 14  2  0  0  0  0
 14 12  1  0  0  0  0
 15 14  1  0  0  0  0
 15 16  1  0  0  0  0
 17 16  1  0  0  0  0
 17 20  1  0  0  0  0
 18 20  2  0  0  0  0
 20 21  1  0  0  0  0
 20 19  1  0  0  0  0
 23 22  2  0  0  0  0
 25 24  2  0  0  0  0
 26 25  1  6  0  0  0
 26 28  1  0  0  0  0
 26 29  1  0  0  0  0
 27 28  1  0  0  0  0
 28 30  1  1  0  0  0
 28 29  1  0  0  0  0
 29 34  1  1  0  0  0
 30 27  1  0  0  0  0
 31 36  1  0  0  0  0
 32 33  2  0  0  0  0
 33 31  1  0  0  0  0
 34 35  1  0  0  0  0
 35 31  2  0  0  0  0
 37 34  2  0  0  0  0
 37 32  1  0  0  0  0
M  END
>  <MODEL>
9

>  <REMARK>
 VINA RESULT:      -7.7      1.838      2.925
  Name = 
  11 active torsions:
  status: ('A' for Active; 'I' for Inactive)
    1  A    between atoms: C_2  and  N_32
    2  A    between atoms: C_4  and  C_33
    3  A    between atoms: C_8  and  N_14
    4  A    between atoms: C_8  and  C_27
    5  A    between atoms: C_11  and  C_13
    6  A    between atoms: C_13  and  C_21
    7  A    between atoms: N_14  and  C_35
    8  A    between atoms: O_19  and  P_25
    9  A    between atoms: O_19  and  N_36
   10  A    between atoms: C_22  and  C_30
   11  A    between atoms: C_27  and  N_36
                            x       y       z     vdW  Elec       q    Type
                         _______ _______ _______ _____ _____    ______ ____

>  <TORSDO>
F 11

$$$$
