=
 OpenBabel10232410593D

 42 49  0  0  1  0  0  0  0  0999 V2000
  195.5240  171.4470  137.8850 C   0  0  0  0  0  0  0  0  0  0  0  0
  189.1030  177.3780  139.6970 C   0  0  0  0  0  0  0  0  0  0  0  0
  193.0860  175.9180  136.7430 S   0  0  0  0  0  0  0  0  0  0  0  0
  190.1580  177.3430  140.5240 C   0  0  0  0  0  0  0  0  0  0  0  0
  189.6210  177.1250  138.3700 C   0  0  0  0  0  0  0  0  0  0  0  0
  195.9490  172.8620  138.0460 C   0  0  0  0  0  2  0  0  0  0  0  0
  191.5130  176.6440  137.1980 C   0  0  0  0  0  0  0  0  0  0  0  0
  194.3480  171.3980  137.2200 C   0  0  0  0  0  0  0  0  0  0  0  0
  195.1600  168.0880  135.9580 C   0  0  0  0  0  1  0  0  0  0  0  0
  193.9500  172.7590  136.9690 C   0  0  0  0  0  0  0  0  0  0  0  0
  191.0020  176.9590  138.5060 C   0  0  0  0  0  0  0  0  0  0  0  0
  190.5390  175.8920  135.0810 C   0  0  0  0  0  2  0  0  0  0  0  0
  191.2040  174.6020  135.2880 N   0  0  0  0  0  0  0  0  0  0  0  0
  190.4490  176.6070  136.3920 C   0  0  0  0  0  0  0  0  0  0  0  0
  191.4130  177.0570  139.7600 C   0  0  0  0  0  3  0  0  0  0  0  0
  194.8340  173.5930  137.4240 N   0  0  0  0  0  0  0  0  0  0  0  0
  192.2910  174.4620  135.9950 C   0  0  0  0  0  0  0  0  0  0  0  0
  192.7780  173.1350  136.2350 N   0  0  0  0  0  2  0  0  0  0  0  0
  196.3890  170.0430  137.5690 S   0  0  0  0  0  0  0  0  0  0  0  0
  195.1090  169.4030  136.6510 C   0  0  0  0  0  0  0  0  0  0  0  0
  194.0950  170.2880  136.4850 N   0  0  0  0  0  0  0  0  0  0  0  0
  189.1940  176.9030  137.1340 C   0  0  0  0  0  3  0  0  0  0  0  0
  190.9920  176.6910  142.7620 C   0  0  1  0  0  3  0  0  0  0  0  0
  189.6330  176.3600  142.6110 O   0  0  0  0  0  0  0  0  0  0  0  0
  190.0560  177.5570  142.0040 C   0  0  2  0  0  3  0  0  0  0  0  0
  191.2120  177.2680  144.1440 C   0  0  2  0  0  3  0  0  0  0  0  0
  191.2330  176.1350  145.1510 C   0  0  2  0  0  3  0  0  0  0  0  0
  189.9950  176.9930  144.9990 C   0  0  0  0  0  2  0  0  0  0  0  0
  192.0050  176.5790  146.3800 C   0  0  0  0  0  2  0  0  0  0  0  0
  192.0050  175.4860  147.4320 C   0  0  0  0  0  2  0  0  0  0  0  0
  192.9520  175.8350  148.5650 C   0  0  0  0  0  1  0  0  0  0  0  0
  187.7800  177.6130  140.0770 O   0  0  0  0  0  0  0  0  0  0  0  0
  184.7000  179.1740  144.8130 C   0  0  0  0  0  2  0  0  0  0  0  0
  187.4450  178.6220  140.9750 C   0  0  0  0  0  3  0  0  0  0  0  0
  184.7690  179.0050  143.3040 C   0  0  0  0  0  2  0  0  0  0  0  0
  185.9110  178.0980  143.0140 C   0  0  0  0  0  0  0  0  0  0  0  0
  186.0520  178.7870  145.3910 C   0  0  2  0  0  3  0  0  0  0  0  0
  186.6770  178.3600  141.9920 C   0  0  0  0  0  0  0  0  0  0  0  0
  186.6330  177.3470  144.4570 S   0  0  0  0  0  0  0  0  0  0  0  0
  185.9140  178.4520  146.7390 O   0  0  0  0  0  0  0  0  0  0  0  0
  187.7690  178.2940  148.2150 C   0  0  0  0  0  1  0  0  0  0  0  0
  187.0430  177.6870  147.0340 C   0  0  0  0  0  2  0  0  0  0  0  0
  1  6  1  0  0  0  0
  2 32  1  0  0  0  0
  2  4  1  0  0  0  0
  3  7  1  0  0  0  0
  5 11  1  0  0  0  0
  5  2  2  0  0  0  0
  7 11  2  0  0  0  0
  8  1  2  0  0  0  0
  9 20  1  0  0  0  0
 10  8  1  0  0  0  0
 10 16  2  0  0  0  0
 11 15  1  0  0  0  0
 12 13  1  0  0  0  0
 12 14  1  0  0  0  0
 13 17  2  0  0  0  0
 14 22  2  0  0  0  0
 14  7  1  0  0  0  0
 15  4  2  0  0  0  0
 16  6  1  0  0  0  0
 17 18  1  0  0  0  0
 17  3  1  0  0  0  0
 18 10  1  0  0  0  0
 19  1  1  0  0  0  0
 20 19  1  0  0  0  0
 21 20  2  0  0  0  0
 21  8  1  0  0  0  0
 22  5  1  0  0  0  0
 23 24  1  1  0  0  0
 23 26  1  0  0  0  0
 25  4  1  6  0  0  0
 25 24  1  0  0  0  0
 25 23  1  0  0  0  0
 26 28  1  1  0  0  0
 26 27  1  0  0  0  0
 27 29  1  1  0  0  0
 28 27  1  0  0  0  0
 29 30  1  0  0  0  0
 30 31  1  0  0  0  0
 32 34  1  0  0  0  0
 33 37  1  0  0  0  0
 34 38  2  0  0  0  0
 35 33  1  0  0  0  0
 36 35  1  0  0  0  0
 36 39  1  0  0  0  0
 37 40  1  1  0  0  0
 38 36  2  0  0  0  0
 39 37  1  0  0  0  0
 40 42  1  0  0  0  0
 42 41  1  0  0  0  0
M  END
>  <MODEL>
1

>  <REMARK>
 VINA RESULT:      -8.8      0.000      0.000
  Name = 
  8 active torsions:
  status: ('A' for Active; 'I' for Inactive)
    1  A    between atoms: C_2  and  O_13
    2  A    between atoms: C_5  and  C_6
    3  A    between atoms: C_7  and  O_13
    4  A    between atoms: C_10  and  O_12
    5  A    between atoms: C_11  and  C_30
    6  A    between atoms: O_12  and  C_41
    7  A    between atoms: C_20  and  C_24
    8  A    between atoms: C_20  and  C_31
                            x       y       z     vdW  Elec       q    Type
                         _______ _______ _______ _____ _____    ______ ____

>  <TORSDO>
F 8

$$$$
=
 OpenBabel10232410593D

 42 49  0  0  1  0  0  0  0  0999 V2000
  185.5730  178.3190  143.6220 C   0  0  0  0  0  0  0  0  0  0  0  0
  188.9730  173.9080  136.6460 C   0  0  0  0  0  0  0  0  0  0  0  0
  188.6550  178.2640  139.4110 S   0  0  0  0  0  0  0  0  0  0  0  0
  187.6860  174.2770  136.5720 C   0  0  0  0  0  0  0  0  0  0  0  0
  189.6590  174.9730  137.3430 C   0  0  0  0  0  0  0  0  0  0  0  0
  185.4200  178.9600  142.2900 C   0  0  0  0  0  2  0  0  0  0  0  0
  189.3610  176.9750  138.3870 C   0  0  0  0  0  0  0  0  0  0  0  0
  186.7920  177.7430  143.7130 C   0  0  0  0  0  0  0  0  0  0  0  0
  186.7570  178.1560  147.3230 C   0  0  0  0  0  1  0  0  0  0  0  0
  187.4480  177.9440  142.4470 C   0  0  0  0  0  0  0  0  0  0  0  0
  188.6960  175.9430  137.6380 C   0  0  0  0  0  0  0  0  0  0  0  0
  191.4820  177.1580  139.5970 C   0  0  0  0  0  2  0  0  0  0  0  0
  190.7120  177.2110  140.8440 N   0  0  0  0  0  0  0  0  0  0  0  0
  190.6250  176.5670  138.5230 C   0  0  0  0  0  0  0  0  0  0  0  0
  187.4830  175.6060  137.2290 C   0  0  0  0  0  3  0  0  0  0  0  0
  186.6950  178.6240  141.6370 N   0  0  0  0  0  0  0  0  0  0  0  0
  189.4830  177.6420  140.9070 C   0  0  0  0  0  0  0  0  0  0  0  0
  188.7880  177.5260  142.1560 N   0  0  0  0  0  2  0  0  0  0  0  0
  185.0730  178.7850  145.1560 S   0  0  0  0  0  0  0  0  0  0  0  0
  186.4580  178.1020  145.8680 C   0  0  0  0  0  0  0  0  0  0  0  0
  187.3400  177.6380  144.9480 N   0  0  0  0  0  0  0  0  0  0  0  0
  190.8470  175.2530  137.8620 C   0  0  0  0  0  3  0  0  0  0  0  0
  185.5340  173.0870  136.8610 C   0  0  1  0  0  3  0  0  0  0  0  0
  186.5720  172.1890  136.5540 O   0  0  0  0  0  0  0  0  0  0  0  0
  186.6230  173.4450  135.9200 C   0  0  2  0  0  3  0  0  0  0  0  0
  184.2950  172.6990  136.0820 C   0  0  2  0  0  3  0  0  0  0  0  0
  183.0880  172.8070  136.9920 C   0  0  2  0  0  3  0  0  0  0  0  0
  183.6920  171.4530  136.6910 C   0  0  0  0  0  2  0  0  0  0  0  0
  181.8450  173.0040  136.1430 C   0  0  0  0  0  2  0  0  0  0  0  0
  180.6100  173.0850  137.0210 C   0  0  0  0  0  2  0  0  0  0  0  0
  180.0390  171.7000  137.2680 C   0  0  0  0  0  1  0  0  0  0  0  0
  189.5080  172.7210  136.1410 O   0  0  0  0  0  0  0  0  0  0  0  0
  195.2210  172.8430  134.8400 C   0  0  0  0  0  2  0  0  0  0  0  0
  190.4820  172.7220  135.1480 C   0  0  0  0  0  3  0  0  0  0  0  0
  193.9400  173.6020  135.1440 C   0  0  0  0  0  2  0  0  0  0  0  0
  193.0050  172.6460  135.7920 C   0  0  0  0  0  0  0  0  0  0  0  0
  194.9000  171.3560  134.8490 C   0  0  2  0  0  3  0  0  0  0  0  0
  191.7420  172.6870  135.4710 C   0  0  0  0  0  0  0  0  0  0  0  0
  193.7350  171.0770  136.2080 S   0  0  0  0  0  0  0  0  0  0  0  0
  196.0650  170.6190  135.0650 O   0  0  0  0  0  0  0  0  0  0  0  0
  197.5400  170.8410  136.9150 C   0  0  0  0  0  1  0  0  0  0  0  0
  196.1460  170.4780  136.4510 C   0  0  0  0  0  2  0  0  0  0  0  0
  1  8  2  0  0  0  0
  1 19  1  0  0  0  0
  2  5  1  0  0  0  0
  3 17  1  0  0  0  0
  4  2  2  0  0  0  0
  4 15  1  0  0  0  0
  5 11  1  0  0  0  0
  5 22  2  0  0  0  0
  6  1  1  0  0  0  0
  7 14  2  0  0  0  0
  7  3  1  0  0  0  0
  8 21  1  0  0  0  0
 10  8  1  0  0  0  0
 11  7  1  0  0  0  0
 12 13  1  0  0  0  0
 13 17  2  0  0  0  0
 14 12  1  0  0  0  0
 15 11  2  0  0  0  0
 16  6  1  0  0  0  0
 16 10  2  0  0  0  0
 17 18  1  0  0  0  0
 18 10  1  0  0  0  0
 19 20  1  0  0  0  0
 20  9  1  0  0  0  0
 21 20  2  0  0  0  0
 22 14  1  0  0  0  0
 23 24  1  6  0  0  0
 25 24  1  0  0  0  0
 25  4  1  1  0  0  0
 25 23  1  0  0  0  0
 26 28  1  1  0  0  0
 26 23  1  0  0  0  0
 26 27  1  0  0  0  0
 27 29  1  6  0  0  0
 28 27  1  0  0  0  0
 29 30  1  0  0  0  0
 30 31  1  0  0  0  0
 32  2  1  0  0  0  0
 33 37  1  0  0  0  0
 33 35  1  0  0  0  0
 34 38  2  0  0  0  0
 34 32  1  0  0  0  0
 35 36  1  0  0  0  0
 36 39  1  0  0  0  0
 37 40  1  1  0  0  0
 37 39  1  0  0  0  0
 38 36  2  0  0  0  0
 40 42  1  0  0  0  0
 42 41  1  0  0  0  0
M  END
>  <MODEL>
2

>  <REMARK>
 VINA RESULT:      -8.2      5.124     11.325
  Name = 
  8 active torsions:
  status: ('A' for Active; 'I' for Inactive)
    1  A    between atoms: C_2  and  O_13
    2  A    between atoms: C_5  and  C_6
    3  A    between atoms: C_7  and  O_13
    4  A    between atoms: C_10  and  O_12
    5  A    between atoms: C_11  and  C_30
    6  A    between atoms: O_12  and  C_41
    7  A    between atoms: C_20  and  C_24
    8  A    between atoms: C_20  and  C_31
                            x       y       z     vdW  Elec       q    Type
                         _______ _______ _______ _____ _____    ______ ____

>  <TORSDO>
F 8

$$$$
=
 OpenBabel10232410593D

 42 49  0  0  1  0  0  0  0  0999 V2000
  184.1900  171.9320  135.4330 C   0  0  0  0  0  0  0  0  0  0  0  0
  191.3380  176.4540  138.2880 C   0  0  0  0  0  0  0  0  0  0  0  0
  187.1900  176.1970  135.2130 S   0  0  0  0  0  0  0  0  0  0  0  0
  191.5570  175.3970  137.4910 C   0  0  0  0  0  0  0  0  0  0  0  0
  190.1240  177.0760  137.8080 C   0  0  0  0  0  0  0  0  0  0  0  0
  185.1370  172.4100  134.3910 C   0  0  0  0  0  2  0  0  0  0  0  0
  188.4540  176.9010  136.2700 C   0  0  0  0  0  0  0  0  0  0  0  0
  184.0570  172.8740  136.3940 C   0  0  0  0  0  0  0  0  0  0  0  0
  180.7180  171.6670  137.1640 C   0  0  0  0  0  1  0  0  0  0  0  0
  184.9340  173.9600  136.0420 C   0  0  0  0  0  0  0  0  0  0  0  0
  189.6950  176.3230  136.7120 C   0  0  0  0  0  0  0  0  0  0  0  0
  186.8100  178.4420  137.2300 C   0  0  0  0  0  2  0  0  0  0  0  0
  185.8730  177.3170  137.3120 N   0  0  0  0  0  0  0  0  0  0  0  0
  188.2020  177.9060  137.1130 C   0  0  0  0  0  0  0  0  0  0  0  0
  190.4810  175.2880  136.4570 C   0  0  0  0  0  3  0  0  0  0  0  0
  185.5470  173.7190  134.9230 N   0  0  0  0  0  0  0  0  0  0  0  0
  185.9320  176.2780  136.5250 C   0  0  0  0  0  0  0  0  0  0  0  0
  185.0450  175.1820  136.7830 N   0  0  0  0  0  2  0  0  0  0  0  0
  182.7670  171.0470  135.3350 S   0  0  0  0  0  0  0  0  0  0  0  0
  182.0920  171.8940  136.6460 C   0  0  0  0  0  0  0  0  0  0  0  0
  182.8830  172.9120  137.0680 N   0  0  0  0  0  0  0  0  0  0  0  0
  189.2700  178.0360  138.1390 C   0  0  0  0  0  3  0  0  0  0  0  0
  193.7080  174.6150  136.5490 C   0  0  1  0  0  3  0  0  0  0  0  0
  192.7530  173.5820  136.5580 O   0  0  0  0  0  0  0  0  0  0  0  0
  192.7240  174.4700  137.6490 C   0  0  2  0  0  3  0  0  0  0  0  0
  195.0460  174.0570  136.9860 C   0  0  2  0  0  3  0  0  0  0  0  0
  196.1270  174.6040  136.0760 C   0  0  2  0  0  3  0  0  0  0  0  0
  195.6130  173.1940  135.8810 C   0  0  0  0  0  2  0  0  0  0  0  0
  197.4580  174.5580  136.8050 C   0  0  0  0  0  2  0  0  0  0  0  0
  198.6070  174.6350  135.8170 C   0  0  0  0  0  2  0  0  0  0  0  0
  199.7690  173.7770  136.2840 C   0  0  0  0  0  1  0  0  0  0  0  0
  192.1430  176.8440  139.3600 O   0  0  0  0  0  0  0  0  0  0  0  0
  189.1610  177.3100  144.3840 C   0  0  0  0  0  2  0  0  0  0  0  0
  191.6680  177.6790  140.3660 C   0  0  0  0  0  3  0  0  0  0  0  0
  189.1520  177.2790  142.8650 C   0  0  0  0  0  2  0  0  0  0  0  0
  190.4370  176.6720  142.4280 C   0  0  0  0  0  0  0  0  0  0  0  0
  190.6040  177.1840  144.8480 C   0  0  2  0  0  3  0  0  0  0  0  0
  191.0510  177.1750  141.3950 C   0  0  0  0  0  0  0  0  0  0  0  0
  191.4080  175.9850  143.7530 S   0  0  0  0  0  0  0  0  0  0  0  0
  190.6410  176.7220  146.1640 O   0  0  0  0  0  0  0  0  0  0  0  0
  192.1170  175.7710  147.7650 C   0  0  0  0  0  1  0  0  0  0  0  0
  191.9430  176.2540  146.3420 C   0  0  0  0  0  2  0  0  0  0  0  0
  1  8  2  0  0  0  0
  2 32  1  0  0  0  0
  3  7  1  0  0  0  0
  3 17  1  0  0  0  0
  4  2  2  0  0  0  0
  5 22  2  0  0  0  0
  5  2  1  0  0  0  0
  6 16  1  0  0  0  0
  6  1  1  0  0  0  0
  7 11  1  0  0  0  0
  7 14  2  0  0  0  0
  8 21  1  0  0  0  0
 10  8  1  0  0  0  0
 10 18  1  0  0  0  0
 11  5  1  0  0  0  0
 12 13  1  0  0  0  0
 14 12  1  0  0  0  0
 14 22  1  0  0  0  0
 15 11  2  0  0  0  0
 15  4  1  0  0  0  0
 16 10  2  0  0  0  0
 17 18  1  0  0  0  0
 17 13  2  0  0  0  0
 19  1  1  0  0  0  0
 19 20  1  0  0  0  0
 20 21  2  0  0  0  0
 20  9  1  0  0  0  0
 23 24  1  6  0  0  0
 23 26  1  0  0  0  0
 23 25  1  0  0  0  0
 24 25  1  0  0  0  0
 25  4  1  6  0  0  0
 26 28  1  6  0  0  0
 27 29  1  1  0  0  0
 27 26  1  0  0  0  0
 28 27  1  0  0  0  0
 30 31  1  0  0  0  0
 30 29  1  0  0  0  0
 32 34  1  0  0  0  0
 33 37  1  0  0  0  0
 34 38  2  0  0  0  0
 35 33  1  0  0  0  0
 36 35  1  0  0  0  0
 36 39  1  0  0  0  0
 37 40  1  1  0  0  0
 38 36  2  0  0  0  0
 39 37  1  0  0  0  0
 40 42  1  0  0  0  0
 42 41  1  0  0  0  0
M  END
>  <MODEL>
3

>  <REMARK>
 VINA RESULT:      -8.2      4.636      8.110
  Name = 
  8 active torsions:
  status: ('A' for Active; 'I' for Inactive)
    1  A    between atoms: C_2  and  O_13
    2  A    between atoms: C_5  and  C_6
    3  A    between atoms: C_7  and  O_13
    4  A    between atoms: C_10  and  O_12
    5  A    between atoms: C_11  and  C_30
    6  A    between atoms: O_12  and  C_41
    7  A    between atoms: C_20  and  C_24
    8  A    between atoms: C_20  and  C_31
                            x       y       z     vdW  Elec       q    Type
                         _______ _______ _______ _____ _____    ______ ____

>  <TORSDO>
F 8

$$$$
=
 OpenBabel10232410593D

 42 49  0  0  1  0  0  0  0  0999 V2000
  195.3680  172.3040  137.9270 C   0  0  0  0  0  0  0  0  0  0  0  0
  188.7460  177.1090  141.4970 C   0  0  0  0  0  0  0  0  0  0  0  0
  192.7960  176.8300  138.2970 S   0  0  0  0  0  0  0  0  0  0  0  0
  189.7960  176.8290  142.2840 C   0  0  0  0  0  0  0  0  0  0  0  0
  189.2820  177.3270  140.1720 C   0  0  0  0  0  0  0  0  0  0  0  0
  195.7460  173.5960  138.5570 C   0  0  0  0  0  2  0  0  0  0  0  0
  191.1980  177.3190  138.9400 C   0  0  0  0  0  0  0  0  0  0  0  0
  194.2000  172.4470  137.2620 C   0  0  0  0  0  0  0  0  0  0  0  0
  195.1270  169.7730  134.9840 C   0  0  0  0  0  1  0  0  0  0  0  0
  193.7590  173.8020  137.4720 C   0  0  0  0  0  0  0  0  0  0  0  0
  190.6670  177.1650  140.2680 C   0  0  0  0  0  0  0  0  0  0  0  0
  190.2640  177.2890  136.6770 C   0  0  0  0  0  2  0  0  0  0  0  0
  190.9680  176.0230  136.4530 N   0  0  0  0  0  0  0  0  0  0  0  0
  190.1410  177.5220  138.1490 C   0  0  0  0  0  0  0  0  0  0  0  0
  191.0650  176.8490  141.4910 C   0  0  0  0  0  3  0  0  0  0  0  0
  194.6130  174.4610  138.1950 N   0  0  0  0  0  0  0  0  0  0  0  0
  192.0540  175.6860  137.0930 C   0  0  0  0  0  0  0  0  0  0  0  0
  192.5820  174.3690  136.8850 N   0  0  0  0  0  2  0  0  0  0  0  0
  196.2810  171.1110  137.1760 S   0  0  0  0  0  0  0  0  0  0  0  0
  195.0290  170.7780  136.0740 C   0  0  0  0  0  0  0  0  0  0  0  0
  193.9880  171.6400  136.1950 N   0  0  0  0  0  0  0  0  0  0  0  0
  188.8720  177.5190  138.9250 C   0  0  0  0  0  3  0  0  0  0  0  0
  189.2120  177.7110  144.5220 C   0  0  1  0  0  3  0  0  0  0  0  0
  190.5720  177.3580  144.4550 O   0  0  0  0  0  0  0  0  0  0  0  0
  189.6760  176.5340  143.7490 C   0  0  2  0  0  3  0  0  0  0  0  0
  188.6460  177.2560  145.8500 C   0  0  2  0  0  3  0  0  0  0  0  0
  187.8120  178.3770  146.4390 C   0  0  2  0  0  3  0  0  0  0  0  0
  189.2110  178.1190  146.9560 C   0  0  0  0  0  2  0  0  0  0  0  0
  186.8010  177.7870  147.4050 C   0  0  0  0  0  2  0  0  0  0  0  0
  185.4800  178.5260  147.3090 C   0  0  0  0  0  2  0  0  0  0  0  0
  185.0480  178.6600  145.8600 C   0  0  0  0  0  1  0  0  0  0  0  0
  187.4140  177.1670  141.9100 O   0  0  0  0  0  0  0  0  0  0  0  0
  183.1820  179.9480  138.9590 C   0  0  0  0  0  2  0  0  0  0  0  0
  186.6530  178.3230  141.7670 C   0  0  0  0  0  3  0  0  0  0  0  0
  184.6540  179.5940  139.0980 C   0  0  0  0  0  2  0  0  0  0  0  0
  184.7400  178.4160  140.0010 C   0  0  0  0  0  0  0  0  0  0  0  0
  182.4360  179.3210  140.1260 C   0  0  2  0  0  3  0  0  0  0  0  0
  185.6990  178.3690  140.8820 C   0  0  0  0  0  0  0  0  0  0  0  0
  183.1670  177.6870  140.4040 S   0  0  0  0  0  0  0  0  0  0  0  0
  181.0840  179.1870  139.8080 O   0  0  0  0  0  0  0  0  0  0  0  0
  181.0210  179.4660  142.1670 C   0  0  0  0  0  1  0  0  0  0  0  0
  180.4890  178.7020  140.9740 C   0  0  0  0  0  2  0  0  0  0  0  0
  1  6  1  0  0  0  0
  2 32  1  0  0  0  0
  2  4  1  0  0  0  0
  3  7  1  0  0  0  0
  5 11  1  0  0  0  0
  5  2  2  0  0  0  0
  7 11  2  0  0  0  0
  8 10  1  0  0  0  0
  8  1  2  0  0  0  0
  9 20  1  0  0  0  0
 10 16  2  0  0  0  0
 11 15  1  0  0  0  0
 12 14  1  0  0  0  0
 13 12  1  0  0  0  0
 13 17  2  0  0  0  0
 14 22  2  0  0  0  0
 14  7  1  0  0  0  0
 15  4  2  0  0  0  0
 16  6  1  0  0  0  0
 17  3  1  0  0  0  0
 18 17  1  0  0  0  0
 18 10  1  0  0  0  0
 19  1  1  0  0  0  0
 20 21  2  0  0  0  0
 20 19  1  0  0  0  0
 21  8  1  0  0  0  0
 22  5  1  0  0  0  0
 23 24  1  1  0  0  0
 23 26  1  0  0  0  0
 25  4  1  6  0  0  0
 25 24  1  0  0  0  0
 25 23  1  0  0  0  0
 26 27  1  0  0  0  0
 26 28  1  1  0  0  0
 27 28  1  0  0  0  0
 27 29  1  1  0  0  0
 30 29  1  0  0  0  0
 31 30  1  0  0  0  0
 33 35  1  0  0  0  0
 33 37  1  0  0  0  0
 34 32  1  0  0  0  0
 35 36  1  0  0  0  0
 36 39  1  0  0  0  0
 36 38  2  0  0  0  0
 37 40  1  6  0  0  0
 37 39  1  0  0  0  0
 38 34  2  0  0  0  0
 40 42  1  0  0  0  0
 42 41  1  0  0  0  0
M  END
>  <MODEL>
4

>  <REMARK>
 VINA RESULT:      -8.1      2.341      3.926
  Name = 
  8 active torsions:
  status: ('A' for Active; 'I' for Inactive)
    1  A    between atoms: C_2  and  O_13
    2  A    between atoms: C_5  and  C_6
    3  A    between atoms: C_7  and  O_13
    4  A    between atoms: C_10  and  O_12
    5  A    between atoms: C_11  and  C_30
    6  A    between atoms: O_12  and  C_41
    7  A    between atoms: C_20  and  C_24
    8  A    between atoms: C_20  and  C_31
                            x       y       z     vdW  Elec       q    Type
                         _______ _______ _______ _____ _____    ______ ____

>  <TORSDO>
F 8

$$$$
=
 OpenBabel10232410593D

 42 49  0  0  1  0  0  0  0  0999 V2000
  182.3280  179.0990  140.0110 C   0  0  0  0  0  0  0  0  0  0  0  0
  191.0910  177.3990  140.0310 C   0  0  0  0  0  0  0  0  0  0  0  0
  186.4090  176.5270  138.0200 S   0  0  0  0  0  0  0  0  0  0  0  0
  190.3650  176.8950  141.0390 C   0  0  0  0  0  0  0  0  0  0  0  0
  190.2540  177.3240  138.8540 C   0  0  0  0  0  0  0  0  0  0  0  0
  182.7300  177.6720  140.1140 C   0  0  0  0  0  2  0  0  0  0  0  0
  188.1870  176.7320  138.1040 C   0  0  0  0  0  0  0  0  0  0  0  0
  183.1450  179.7410  139.1460 C   0  0  0  0  0  0  0  0  0  0  0  0
  180.5130  182.1250  138.3740 C   0  0  0  0  0  1  0  0  0  0  0  0
  184.1210  178.7810  138.6990 C   0  0  0  0  0  0  0  0  0  0  0  0
  189.0460  176.7500  139.2580 C   0  0  0  0  0  0  0  0  0  0  0  0
  188.1750  177.8460  135.9230 C   0  0  0  0  0  2  0  0  0  0  0  0
  187.0040  178.6060  136.3700 N   0  0  0  0  0  0  0  0  0  0  0  0
  188.8880  177.3040  137.1220 C   0  0  0  0  0  0  0  0  0  0  0  0
  189.0140  176.4740  140.5520 C   0  0  0  0  0  3  0  0  0  0  0  0
  183.9040  177.6160  139.2290 N   0  0  0  0  0  0  0  0  0  0  0  0
  186.1730  178.1720  137.2780 C   0  0  0  0  0  0  0  0  0  0  0  0
  185.1380  179.0560  137.7270 N   0  0  0  0  0  2  0  0  0  0  0  0
  180.8230  179.8430  139.9950 S   0  0  0  0  0  0  0  0  0  0  0  0
  181.3710  181.0400  138.9190 C   0  0  0  0  0  0  0  0  0  0  0  0
  182.6350  180.8080  138.4840 N   0  0  0  0  0  0  0  0  0  0  0  0
  190.2400  177.7150  137.5860 C   0  0  0  0  0  3  0  0  0  0  0  0
  189.9850  177.4900  143.4110 C   0  0  1  0  0  3  0  0  0  0  0  0
  191.1660  178.0790  142.9240 O   0  0  0  0  0  0  0  0  0  0  0  0
  190.8670  176.7890  142.4480 C   0  0  2  0  0  3  0  0  0  0  0  0
  190.2340  176.9600  144.8070 C   0  0  2  0  0  3  0  0  0  0  0  0
  189.3840  177.7410  145.7890 C   0  0  2  0  0  3  0  0  0  0  0  0
  190.8590  178.0490  145.6510 C   0  0  0  0  0  2  0  0  0  0  0  0
  189.1590  176.8980  147.0300 C   0  0  0  0  0  2  0  0  0  0  0  0
  187.8720  177.3040  147.7230 C   0  0  0  0  0  2  0  0  0  0  0  0
  186.9590  178.0440  146.7620 C   0  0  0  0  0  1  0  0  0  0  0  0
  192.3930  177.8920  140.1340 O   0  0  0  0  0  0  0  0  0  0  0  0
  194.7800  173.9630  136.4990 C   0  0  0  0  0  2  0  0  0  0  0  0
  193.4990  177.1080  139.8210 C   0  0  0  0  0  3  0  0  0  0  0  0
  193.9320  174.2520  137.7260 C   0  0  0  0  0  2  0  0  0  0  0  0
  193.5100  175.6750  137.6460 C   0  0  0  0  0  0  0  0  0  0  0  0
  195.2710  175.2910  135.9440 C   0  0  2  0  0  3  0  0  0  0  0  0
  193.5030  176.3900  138.7350 C   0  0  0  0  0  0  0  0  0  0  0  0
  193.9020  176.4670  136.1010 S   0  0  0  0  0  0  0  0  0  0  0  0
  195.6190  175.1450  134.6000 O   0  0  0  0  0  0  0  0  0  0  0  0
  197.9340  175.4040  135.0680 C   0  0  0  0  0  1  0  0  0  0  0  0
  196.8360  174.4650  134.6180 C   0  0  0  0  0  2  0  0  0  0  0  0
  1  6  1  0  0  0  0
  2 32  1  0  0  0  0
  2  4  1  0  0  0  0
  3  7  1  0  0  0  0
  5 11  1  0  0  0  0
  5  2  2  0  0  0  0
  7 11  2  0  0  0  0
  8  1  2  0  0  0  0
  9 20  1  0  0  0  0
 10  8  1  0  0  0  0
 10 16  2  0  0  0  0
 11 15  1  0  0  0  0
 12 13  1  0  0  0  0
 12 14  1  0  0  0  0
 13 17  2  0  0  0  0
 14 22  2  0  0  0  0
 14  7  1  0  0  0  0
 15  4  2  0  0  0  0
 16  6  1  0  0  0  0
 17 18  1  0  0  0  0
 17  3  1  0  0  0  0
 18 10  1  0  0  0  0
 19  1  1  0  0  0  0
 20 19  1  0  0  0  0
 21 20  2  0  0  0  0
 21  8  1  0  0  0  0
 22  5  1  0  0  0  0
 23 24  1  1  0  0  0
 23 26  1  0  0  0  0
 25  4  1  6  0  0  0
 25 24  1  0  0  0  0
 25 23  1  0  0  0  0
 26 28  1  1  0  0  0
 26 27  1  0  0  0  0
 27 29  1  1  0  0  0
 28 27  1  0  0  0  0
 29 30  1  0  0  0  0
 31 30  1  0  0  0  0
 33 35  1  0  0  0  0
 34 32  1  0  0  0  0
 36 35  1  0  0  0  0
 36 38  2  0  0  0  0
 37 40  1  6  0  0  0
 37 39  1  0  0  0  0
 37 33  1  0  0  0  0
 38 34  2  0  0  0  0
 39 36  1  0  0  0  0
 40 42  1  0  0  0  0
 42 41  1  0  0  0  0
M  END
>  <MODEL>
5

>  <REMARK>
 VINA RESULT:      -7.4      4.294     10.087
  Name = 
  8 active torsions:
  status: ('A' for Active; 'I' for Inactive)
    1  A    between atoms: C_2  and  O_13
    2  A    between atoms: C_5  and  C_6
    3  A    between atoms: C_7  and  O_13
    4  A    between atoms: C_10  and  O_12
    5  A    between atoms: C_11  and  C_30
    6  A    between atoms: O_12  and  C_41
    7  A    between atoms: C_20  and  C_24
    8  A    between atoms: C_20  and  C_31
                            x       y       z     vdW  Elec       q    Type
                         _______ _______ _______ _____ _____    ______ ____

>  <TORSDO>
F 8

$$$$
=
 OpenBabel10232410593D

 42 49  0  0  1  0  0  0  0  0999 V2000
  187.1210  177.3400  144.0670 C   0  0  0  0  0  0  0  0  0  0  0  0
  190.4530  173.9560  136.5080 C   0  0  0  0  0  0  0  0  0  0  0  0
  189.7140  178.0380  139.5920 S   0  0  0  0  0  0  0  0  0  0  0  0
  189.1220  174.1040  136.5810 C   0  0  0  0  0  0  0  0  0  0  0  0
  191.0240  175.0830  137.2120 C   0  0  0  0  0  0  0  0  0  0  0  0
  186.7280  178.0160  142.8030 C   0  0  0  0  0  2  0  0  0  0  0  0
  190.5120  176.9460  138.4170 C   0  0  0  0  0  0  0  0  0  0  0  0
  188.4220  176.9760  144.0020 C   0  0  0  0  0  0  0  0  0  0  0  0
  188.6960  177.1810  147.6200 C   0  0  0  0  0  1  0  0  0  0  0  0
  188.9000  177.3540  142.6980 C   0  0  0  0  0  0  0  0  0  0  0  0
  189.9510  175.8570  137.6630 C   0  0  0  0  0  0  0  0  0  0  0  0
  192.6890  177.4220  139.4340 C   0  0  0  0  0  2  0  0  0  0  0  0
  192.0550  177.2760  140.7480 N   0  0  0  0  0  0  0  0  0  0  0  0
  191.8330  176.7530  138.4050 C   0  0  0  0  0  0  0  0  0  0  0  0
  188.7740  175.3410  137.3470 C   0  0  0  0  0  3  0  0  0  0  0  0
  187.9650  177.9380  142.0120 N   0  0  0  0  0  0  0  0  0  0  0  0
  190.7840  177.4870  140.9570 C   0  0  0  0  0  0  0  0  0  0  0  0
  190.2520  177.1870  142.2530 N   0  0  0  0  0  2  0  0  0  0  0  0
  186.7140  177.6300  145.6700 S   0  0  0  0  0  0  0  0  0  0  0  0
  188.2590  177.1550  146.1990 C   0  0  0  0  0  0  0  0  0  0  0  0
  189.1050  176.9000  145.1700 N   0  0  0  0  0  0  0  0  0  0  0  0
  192.1970  175.5330  137.6360 C   0  0  0  0  0  3  0  0  0  0  0  0
  186.9980  172.8660  136.8700 C   0  0  1  0  0  3  0  0  0  0  0  0
  188.0900  171.9840  136.7760 O   0  0  0  0  0  0  0  0  0  0  0  0
  188.1480  173.1390  135.9750 C   0  0  2  0  0  3  0  0  0  0  0  0
  185.8440  172.3130  136.0610 C   0  0  2  0  0  3  0  0  0  0  0  0
  184.7930  173.3940  135.9010 C   0  0  2  0  0  3  0  0  0  0  0  0
  184.5980  172.2900  136.9180 C   0  0  0  0  0  2  0  0  0  0  0  0
  183.9600  173.0970  134.6680 C   0  0  0  0  0  2  0  0  0  0  0  0
  182.4940  172.9710  135.0360 C   0  0  0  0  0  2  0  0  0  0  0  0
  181.8580  174.3430  135.1690 C   0  0  0  0  0  1  0  0  0  0  0  0
  191.1200  172.9070  135.8730 O   0  0  0  0  0  0  0  0  0  0  0  0
  196.8710  172.9640  134.7410 C   0  0  0  0  0  2  0  0  0  0  0  0
  192.3940  172.5060  136.2640 C   0  0  0  0  0  3  0  0  0  0  0  0
  195.5120  172.3150  134.5390 C   0  0  0  0  0  2  0  0  0  0  0  0
  194.4830  173.3120  134.9330 C   0  0  0  0  0  0  0  0  0  0  0  0
  196.6930  174.1380  135.6920 C   0  0  2  0  0  3  0  0  0  0  0  0
  193.4370  172.9080  135.5960 C   0  0  0  0  0  0  0  0  0  0  0  0
  195.1280  174.9390  135.2560 S   0  0  0  0  0  0  0  0  0  0  0  0
  197.7460  175.0400  135.5360 O   0  0  0  0  0  0  0  0  0  0  0  0
  199.8480  175.0380  134.4280 C   0  0  0  0  0  1  0  0  0  0  0  0
  198.3900  174.6380  134.3650 C   0  0  0  0  0  2  0  0  0  0  0  0
  1 19  1  0  0  0  0
  2  4  2  0  0  0  0
  2  5  1  0  0  0  0
  3 17  1  0  0  0  0
  4 15  1  0  0  0  0
  5 22  2  0  0  0  0
  5 11  1  0  0  0  0
  6  1  1  0  0  0  0
  7  3  1  0  0  0  0
  8  1  2  0  0  0  0
  8 21  1  0  0  0  0
 10  8  1  0  0  0  0
 11  7  1  0  0  0  0
 12 13  1  0  0  0  0
 13 17  2  0  0  0  0
 14  7  2  0  0  0  0
 14 12  1  0  0  0  0
 15 11  2  0  0  0  0
 16 10  2  0  0  0  0
 16  6  1  0  0  0  0
 17 18  1  0  0  0  0
 18 10  1  0  0  0  0
 19 20  1  0  0  0  0
 20  9  1  0  0  0  0
 21 20  2  0  0  0  0
 22 14  1  0  0  0  0
 23 24  1  1  0  0  0
 25  4  1  1  0  0  0
 25 24  1  0  0  0  0
 25 23  1  0  0  0  0
 26 23  1  0  0  0  0
 26 28  1  1  0  0  0
 27 29  1  6  0  0  0
 27 26  1  0  0  0  0
 27 28  1  0  0  0  0
 29 30  1  0  0  0  0
 30 31  1  0  0  0  0
 32 34  1  0  0  0  0
 32  2  1  0  0  0  0
 33 37  1  0  0  0  0
 35 33  1  0  0  0  0
 35 36  1  0  0  0  0
 36 39  1  0  0  0  0
 36 38  2  0  0  0  0
 37 40  1  6  0  0  0
 38 34  2  0  0  0  0
 39 37  1  0  0  0  0
 42 41  1  0  0  0  0
 42 40  1  0  0  0  0
M  END
>  <MODEL>
6

>  <REMARK>
 VINA RESULT:      -7.4      4.772     11.156
  Name = 
  8 active torsions:
  status: ('A' for Active; 'I' for Inactive)
    1  A    between atoms: C_2  and  O_13
    2  A    between atoms: C_5  and  C_6
    3  A    between atoms: C_7  and  O_13
    4  A    between atoms: C_10  and  O_12
    5  A    between atoms: C_11  and  C_30
    6  A    between atoms: O_12  and  C_41
    7  A    between atoms: C_20  and  C_24
    8  A    between atoms: C_20  and  C_31
                            x       y       z     vdW  Elec       q    Type
                         _______ _______ _______ _____ _____    ______ ____

>  <TORSDO>
F 8

$$$$
=
 OpenBabel10232410593D

 42 49  0  0  1  0  0  0  0  0999 V2000
  185.9870  178.0380  144.1310 C   0  0  0  0  0  0  0  0  0  0  0  0
  187.3760  174.4020  136.0980 C   0  0  0  0  0  0  0  0  0  0  0  0
  188.0890  178.3440  139.3640 S   0  0  0  0  0  0  0  0  0  0  0  0
  186.1460  174.8700  136.3560 C   0  0  0  0  0  0  0  0  0  0  0  0
  188.2970  175.3080  136.7470 C   0  0  0  0  0  0  0  0  0  0  0  0
  185.6220  178.8660  142.9520 C   0  0  0  0  0  2  0  0  0  0  0  0
  188.4300  177.1620  138.0620 C   0  0  0  0  0  0  0  0  0  0  0  0
  187.1340  177.3680  143.8790 C   0  0  0  0  0  0  0  0  0  0  0  0
  187.9030  177.2780  147.4300 C   0  0  0  0  0  1  0  0  0  0  0  0
  187.5240  177.6940  142.5330 C   0  0  0  0  0  0  0  0  0  0  0  0
  187.5210  176.2950  137.3620 C   0  0  0  0  0  0  0  0  0  0  0  0
  190.7660  177.0210  138.7840 C   0  0  0  0  0  2  0  0  0  0  0  0
  190.2860  176.9570  140.1680 N   0  0  0  0  0  0  0  0  0  0  0  0
  189.6470  176.6490  137.8640 C   0  0  0  0  0  0  0  0  0  0  0  0
  186.2210  176.1070  137.1960 C   0  0  0  0  0  3  0  0  0  0  0  0
  186.6900  178.5330  141.9970 N   0  0  0  0  0  0  0  0  0  0  0  0
  189.1470  177.4630  140.5540 C   0  0  0  0  0  0  0  0  0  0  0  0
  188.7230  177.2250  141.9030 N   0  0  0  0  0  2  0  0  0  0  0  0
  185.8720  178.3220  145.7820 S   0  0  0  0  0  0  0  0  0  0  0  0
  187.2990  177.4470  146.0820 C   0  0  0  0  0  0  0  0  0  0  0  0
  187.9160  177.0540  144.9400 N   0  0  0  0  0  0  0  0  0  0  0  0
  189.5900  175.4260  137.0190 C   0  0  0  0  0  3  0  0  0  0  0  0
  183.8500  174.1310  136.9150 C   0  0  1  0  0  3  0  0  0  0  0  0
  184.6720  173.0350  136.5960 O   0  0  0  0  0  0  0  0  0  0  0  0
  184.8910  174.2160  135.8620 C   0  0  2  0  0  3  0  0  0  0  0  0
  182.4930  173.9370  136.2740 C   0  0  2  0  0  3  0  0  0  0  0  0
  181.5120  174.9120  136.8940 C   0  0  2  0  0  3  0  0  0  0  0  0
  181.5100  173.4600  137.3200 C   0  0  0  0  0  2  0  0  0  0  0  0
  180.3720  175.1530  135.9210 C   0  0  0  0  0  2  0  0  0  0  0  0
  180.1240  176.6400  135.7520 C   0  0  0  0  0  2  0  0  0  0  0  0
  180.9870  177.4380  136.7120 C   0  0  0  0  0  1  0  0  0  0  0  0
  187.6700  173.2610  135.3480 O   0  0  0  0  0  0  0  0  0  0  0  0
  192.9400  170.7240  134.9860 C   0  0  0  0  0  2  0  0  0  0  0  0
  188.5290  172.2760  135.8230 C   0  0  0  0  0  3  0  0  0  0  0  0
  191.5020  170.8090  134.5020 C   0  0  0  0  0  2  0  0  0  0  0  0
  190.9710  172.1310  134.9290 C   0  0  0  0  0  0  0  0  0  0  0  0
  193.1250  171.7470  136.0950 C   0  0  2  0  0  3  0  0  0  0  0  0
  189.7480  172.2020  135.3740 C   0  0  0  0  0  0  0  0  0  0  0  0
  192.1980  173.2260  135.6080 S   0  0  0  0  0  0  0  0  0  0  0  0
  194.4770  172.0610  136.2330 O   0  0  0  0  0  0  0  0  0  0  0  0
  195.1960  173.0670  138.2620 C   0  0  0  0  0  1  0  0  0  0  0  0
  194.4950  173.2660  136.9360 C   0  0  0  0  0  2  0  0  0  0  0  0
  1 19  1  0  0  0  0
  2  4  2  0  0  0  0
  2  5  1  0  0  0  0
  3 17  1  0  0  0  0
  4 15  1  0  0  0  0
  5 22  2  0  0  0  0
  5 11  1  0  0  0  0
  6  1  1  0  0  0  0
  7  3  1  0  0  0  0
  8  1  2  0  0  0  0
  8 21  1  0  0  0  0
 10  8  1  0  0  0  0
 11  7  1  0  0  0  0
 12 13  1  0  0  0  0
 13 17  2  0  0  0  0
 14  7  2  0  0  0  0
 14 12  1  0  0  0  0
 15 11  2  0  0  0  0
 16 10  2  0  0  0  0
 16  6  1  0  0  0  0
 17 18  1  0  0  0  0
 18 10  1  0  0  0  0
 19 20  1  0  0  0  0
 20  9  1  0  0  0  0
 21 20  2  0  0  0  0
 22 14  1  0  0  0  0
 23 24  1  1  0  0  0
 25  4  1  1  0  0  0
 25 24  1  0  0  0  0
 25 23  1  0  0  0  0
 26 27  1  0  0  0  0
 26 23  1  0  0  0  0
 26 28  1  1  0  0  0
 27 29  1  6  0  0  0
 27 28  1  0  0  0  0
 30 29  1  0  0  0  0
 30 31  1  0  0  0  0
 32 34  1  0  0  0  0
 32  2  1  0  0  0  0
 33 37  1  0  0  0  0
 35 36  1  0  0  0  0
 35 33  1  0  0  0  0
 36 38  2  0  0  0  0
 36 39  1  0  0  0  0
 37 40  1  6  0  0  0
 38 34  2  0  0  0  0
 39 37  1  0  0  0  0
 40 42  1  0  0  0  0
 42 41  1  0  0  0  0
M  END
>  <MODEL>
7

>  <REMARK>
 VINA RESULT:      -7.4      5.081     10.961
  Name = 
  8 active torsions:
  status: ('A' for Active; 'I' for Inactive)
    1  A    between atoms: C_2  and  O_13
    2  A    between atoms: C_5  and  C_6
    3  A    between atoms: C_7  and  O_13
    4  A    between atoms: C_10  and  O_12
    5  A    between atoms: C_11  and  C_30
    6  A    between atoms: O_12  and  C_41
    7  A    between atoms: C_20  and  C_24
    8  A    between atoms: C_20  and  C_31
                            x       y       z     vdW  Elec       q    Type
                         _______ _______ _______ _____ _____    ______ ____

>  <TORSDO>
F 8

$$$$
=
 OpenBabel10232410593D

 42 49  0  0  1  0  0  0  0  0999 V2000
  189.7490  177.2150  143.7670 C   0  0  0  0  0  0  0  0  0  0  0  0
  184.8230  177.0070  136.3260 C   0  0  0  0  0  0  0  0  0  0  0  0
  188.9710  178.7790  138.8500 S   0  0  0  0  0  0  0  0  0  0  0  0
  184.3320  177.6930  137.3690 C   0  0  0  0  0  0  0  0  0  0  0  0
  186.2540  177.2140  136.3440 C   0  0  0  0  0  0  0  0  0  0  0  0
  189.3210  178.5270  143.2140 C   0  0  0  0  0  2  0  0  0  0  0  0
  187.9520  178.2040  137.4930 C   0  0  0  0  0  0  0  0  0  0  0  0
  190.0820  176.3810  142.7570 C   0  0  0  0  0  0  0  0  0  0  0  0
  192.3620  174.5850  144.9430 C   0  0  0  0  0  1  0  0  0  0  0  0
  189.8430  177.0930  141.5280 C   0  0  0  0  0  0  0  0  0  0  0  0
  186.5240  178.0470  137.4330 C   0  0  0  0  0  0  0  0  0  0  0  0
  189.8760  177.0360  136.5270 C   0  0  0  0  0  2  0  0  0  0  0  0
  190.2050  176.5610  137.8750 N   0  0  0  0  0  0  0  0  0  0  0  0
  188.4410  177.4590  136.4990 C   0  0  0  0  0  0  0  0  0  0  0  0
  185.4370  178.3730  138.1150 C   0  0  0  0  0  3  0  0  0  0  0  0
  189.4170  178.2970  141.7640 N   0  0  0  0  0  0  0  0  0  0  0  0
  189.8610  177.1960  138.9610 C   0  0  0  0  0  0  0  0  0  0  0  0
  190.1240  176.5710  140.2240 N   0  0  0  0  0  2  0  0  0  0  0  0
  190.6440  176.8090  145.1280 S   0  0  0  0  0  0  0  0  0  0  0  0
  191.3470  175.4820  144.3300 C   0  0  0  0  0  0  0  0  0  0  0  0
  191.0030  175.4230  143.0190 N   0  0  0  0  0  0  0  0  0  0  0  0
  187.3540  176.7870  135.7380 C   0  0  0  0  0  3  0  0  0  0  0  0
  182.6140  177.3250  139.1120 C   0  0  1  0  0  3  0  0  0  0  0  0
  182.4350  176.4440  138.0310 O   0  0  0  0  0  0  0  0  0  0  0  0
  182.8740  177.7420  137.7140 C   0  0  2  0  0  3  0  0  0  0  0  0
  181.2640  177.8460  139.5560 C   0  0  2  0  0  3  0  0  0  0  0  0
  181.2820  178.0420  141.0590 C   0  0  2  0  0  3  0  0  0  0  0  0
  180.6070  176.8270  140.4600 C   0  0  0  0  0  2  0  0  0  0  0  0
  180.2290  179.0680  141.4370 C   0  0  0  0  0  2  0  0  0  0  0  0
  180.5310  179.6600  142.8010 C   0  0  0  0  0  2  0  0  0  0  0  0
  181.5190  178.7890  143.5550 C   0  0  0  0  0  1  0  0  0  0  0  0
  184.0710  176.2520  135.4230 O   0  0  0  0  0  0  0  0  0  0  0  0
  182.9660  170.6400  136.7030 C   0  0  0  0  0  2  0  0  0  0  0  0
  184.3590  174.9150  135.1690 C   0  0  0  0  0  3  0  0  0  0  0  0
  183.7460  171.9120  136.9950 C   0  0  0  0  0  2  0  0  0  0  0  0
  183.0070  173.0370  136.3640 C   0  0  0  0  0  0  0  0  0  0  0  0
  182.0530  170.9110  135.5170 C   0  0  2  0  0  3  0  0  0  0  0  0
  183.6850  173.9780  135.7680 C   0  0  0  0  0  0  0  0  0  0  0  0
  181.4080  172.5920  135.7210 S   0  0  0  0  0  0  0  0  0  0  0  0
  180.9990  169.9980  135.5100 O   0  0  0  0  0  0  0  0  0  0  0  0
  180.2560  168.0140  134.4320 C   0  0  0  0  0  1  0  0  0  0  0  0
  181.3500  169.0540  134.5450 C   0  0  0  0  0  2  0  0  0  0  0  0
  1 19  1  0  0  0  0
  2  5  2  0  0  0  0
  2  4  1  0  0  0  0
  3 17  1  0  0  0  0
  4 15  2  0  0  0  0
  5 11  1  0  0  0  0
  6  1  1  0  0  0  0
  7  3  1  0  0  0  0
  8 21  1  0  0  0  0
  8  1  2  0  0  0  0
 10 16  2  0  0  0  0
 10  8  1  0  0  0  0
 11  7  2  0  0  0  0
 11 15  1  0  0  0  0
 12 13  1  0  0  0  0
 13 17  2  0  0  0  0
 14 12  1  0  0  0  0
 14  7  1  0  0  0  0
 16  6  1  0  0  0  0
 17 18  1  0  0  0  0
 18 10  1  0  0  0  0
 20  9  1  0  0  0  0
 20 19  1  0  0  0  0
 21 20  2  0  0  0  0
 22  5  1  0  0  0  0
 22 14  2  0  0  0  0
 23 24  1  6  0  0  0
 23 26  1  0  0  0  0
 25  4  1  1  0  0  0
 25 24  1  0  0  0  0
 25 23  1  0  0  0  0
 26 28  1  1  0  0  0
 26 27  1  0  0  0  0
 27 29  1  6  0  0  0
 28 27  1  0  0  0  0
 29 30  1  0  0  0  0
 30 31  1  0  0  0  0
 32  2  1  0  0  0  0
 33 35  1  0  0  0  0
 34 32  1  0  0  0  0
 34 38  2  0  0  0  0
 36 35  1  0  0  0  0
 37 40  1  1  0  0  0
 37 39  1  0  0  0  0
 37 33  1  0  0  0  0
 38 36  2  0  0  0  0
 39 36  1  0  0  0  0
 41 42  1  0  0  0  0
 42 40  1  0  0  0  0
M  END
>  <MODEL>
8

>  <REMARK>
 VINA RESULT:      -7.3      5.864      9.548
  Name = 
  8 active torsions:
  status: ('A' for Active; 'I' for Inactive)
    1  A    between atoms: C_2  and  O_13
    2  A    between atoms: C_5  and  C_6
    3  A    between atoms: C_7  and  O_13
    4  A    between atoms: C_10  and  O_12
    5  A    between atoms: C_11  and  C_30
    6  A    between atoms: O_12  and  C_41
    7  A    between atoms: C_20  and  C_24
    8  A    between atoms: C_20  and  C_31
                            x       y       z     vdW  Elec       q    Type
                         _______ _______ _______ _____ _____    ______ ____

>  <TORSDO>
F 8

$$$$
=
 OpenBabel10232410593D

 42 49  0  0  1  0  0  0  0  0999 V2000
  185.7960  177.8960  144.7940 C   0  0  0  0  0  0  0  0  0  0  0  0
  184.0490  175.0940  136.5010 C   0  0  0  0  0  0  0  0  0  0  0  0
  185.0360  178.9920  139.7490 S   0  0  0  0  0  0  0  0  0  0  0  0
  183.0360  175.0830  137.3790 C   0  0  0  0  0  0  0  0  0  0  0  0
  184.8390  176.2640  136.8110 C   0  0  0  0  0  0  0  0  0  0  0  0
  184.6580  178.5490  144.0950 C   0  0  0  0  0  2  0  0  0  0  0  0
  185.0290  178.0270  138.2400 C   0  0  0  0  0  0  0  0  0  0  0  0
  186.8070  177.6880  143.9220 C   0  0  0  0  0  0  0  0  0  0  0  0
  189.2240  177.8440  146.6310 C   0  0  0  0  0  1  0  0  0  0  0  0
  186.3540  178.1480  142.6350 C   0  0  0  0  0  0  0  0  0  0  0  0
  184.2120  176.8970  137.8870 C   0  0  0  0  0  0  0  0  0  0  0  0
  187.3260  178.7320  137.7640 C   0  0  0  0  0  2  0  0  0  0  0  0
  187.6440  178.4840  139.1730 N   0  0  0  0  0  0  0  0  0  0  0  0
  186.0760  177.9900  137.4110 C   0  0  0  0  0  0  0  0  0  0  0  0
  183.1330  176.2540  138.3060 C   0  0  0  0  0  3  0  0  0  0  0  0
  185.1520  178.6350  142.7120 N   0  0  0  0  0  0  0  0  0  0  0  0
  186.7570  178.5400  140.1280 C   0  0  0  0  0  0  0  0  0  0  0  0
  187.1570  178.1510  141.4480 N   0  0  0  0  0  2  0  0  0  0  0  0
  186.4360  178.1010  146.3330 S   0  0  0  0  0  0  0  0  0  0  0  0
  188.0120  177.7990  145.7710 C   0  0  0  0  0  0  0  0  0  0  0  0
  188.0660  177.6670  144.4220 N   0  0  0  0  0  0  0  0  0  0  0  0
  185.9860  176.8390  136.4730 C   0  0  0  0  0  3  0  0  0  0  0  0
  180.9840  174.1970  136.3160 C   0  0  1  0  0  3  0  0  0  0  0  0
  180.7260  174.6340  137.6270 O   0  0  0  0  0  0  0  0  0  0  0  0
  181.9740  174.0240  137.4050 C   0  0  2  0  0  3  0  0  0  0  0  0
  180.2570  172.8900  136.0770 C   0  0  2  0  0  3  0  0  0  0  0  0
  181.1400  171.9810  135.2460 C   0  0  2  0  0  3  0  0  0  0  0  0
  179.9950  172.7270  134.5970 C   0  0  0  0  0  2  0  0  0  0  0  0
  180.7320  170.5390  135.4850 C   0  0  0  0  0  2  0  0  0  0  0  0
  181.9090  169.6090  135.2590 C   0  0  0  0  0  2  0  0  0  0  0  0
  183.1760  170.1980  135.8520 C   0  0  0  0  0  1  0  0  0  0  0  0
  184.2670  174.1440  135.5000 O   0  0  0  0  0  0  0  0  0  0  0  0
  190.0190  173.0520  135.2420 C   0  0  0  0  0  2  0  0  0  0  0  0
  185.2840  173.2000  135.5960 C   0  0  0  0  0  3  0  0  0  0  0  0
  188.6870  173.1850  134.5230 C   0  0  0  0  0  2  0  0  0  0  0  0
  187.7750  173.9420  135.4190 C   0  0  0  0  0  0  0  0  0  0  0  0
  189.7780  173.2860  136.7250 C   0  0  2  0  0  3  0  0  0  0  0  0
  186.5280  173.5710  135.5050 C   0  0  0  0  0  0  0  0  0  0  0  0
  188.5680  174.6290  136.8570 S   0  0  0  0  0  0  0  0  0  0  0  0
  190.9690  173.6600  137.3480 O   0  0  0  0  0  0  0  0  0  0  0  0
  193.2510  173.6440  136.6850 C   0  0  0  0  0  1  0  0  0  0  0  0
  191.8290  173.9950  136.3010 C   0  0  0  0  0  2  0  0  0  0  0  0
  1 19  1  0  0  0  0
  2  5  2  0  0  0  0
  2  4  1  0  0  0  0
  3 17  1  0  0  0  0
  4 15  2  0  0  0  0
  5 11  1  0  0  0  0
  6  1  1  0  0  0  0
  7  3  1  0  0  0  0
  8 21  1  0  0  0  0
  8  1  2  0  0  0  0
 10 16  2  0  0  0  0
 10  8  1  0  0  0  0
 11  7  2  0  0  0  0
 11 15  1  0  0  0  0
 12 13  1  0  0  0  0
 13 17  2  0  0  0  0
 14 12  1  0  0  0  0
 14  7  1  0  0  0  0
 16  6  1  0  0  0  0
 17 18  1  0  0  0  0
 18 10  1  0  0  0  0
 20 19  1  0  0  0  0
 20  9  1  0  0  0  0
 21 20  2  0  0  0  0
 22  5  1  0  0  0  0
 22 14  2  0  0  0  0
 23 25  1  0  0  0  0
 23 24  1  1  0  0  0
 25  4  1  6  0  0  0
 25 24  1  0  0  0  0
 26 28  1  6  0  0  0
 26 23  1  0  0  0  0
 27 29  1  1  0  0  0
 27 26  1  0  0  0  0
 28 27  1  0  0  0  0
 30 29  1  0  0  0  0
 30 31  1  0  0  0  0
 32 34  1  0  0  0  0
 32  2  1  0  0  0  0
 33 37  1  0  0  0  0
 35 33  1  0  0  0  0
 35 36  1  0  0  0  0
 36 38  2  0  0  0  0
 36 39  1  0  0  0  0
 37 39  1  0  0  0  0
 37 40  1  1  0  0  0
 38 34  2  0  0  0  0
 42 41  1  0  0  0  0
 42 40  1  0  0  0  0
M  END
>  <MODEL>
9

>  <REMARK>
 VINA RESULT:      -7.2      6.076     11.248
  Name = 
  8 active torsions:
  status: ('A' for Active; 'I' for Inactive)
    1  A    between atoms: C_2  and  O_13
    2  A    between atoms: C_5  and  C_6
    3  A    between atoms: C_7  and  O_13
    4  A    between atoms: C_10  and  O_12
    5  A    between atoms: C_11  and  C_30
    6  A    between atoms: O_12  and  C_41
    7  A    between atoms: C_20  and  C_24
    8  A    between atoms: C_20  and  C_31
                            x       y       z     vdW  Elec       q    Type
                         _______ _______ _______ _____ _____    ______ ____

>  <TORSDO>
F 8

$$$$
