=
 OpenBabel10232409083D

 60 62  0  0  1  0  0  0  0  0999 V2000
  187.0290  178.4110  139.2930 C   0  0  0  0  0  3  0  0  0  0  0  0
  188.3390  177.9410  139.3520 C   0  0  0  0  0  0  0  0  0  0  0  0
  186.6660  177.2030  137.2080 C   0  0  0  0  0  0  0  0  0  0  0  0
  188.8100  177.0900  138.3460 C   0  0  0  0  0  3  0  0  0  0  0  0
  187.9930  176.7270  137.2680 C   0  0  0  0  0  0  0  0  0  0  0  0
  186.1830  178.0570  138.2290 C   0  0  0  0  0  0  0  0  0  0  0  0
  184.7900  178.5390  138.1950 C   0  0  0  0  0  2  0  0  0  0  0  0
  183.8950  178.7670  139.5190 S   0  0  0  0  0  0  0  0  0  0  0  0
  180.6740  180.2670  138.0600 C   0  0  0  0  0  2  0  0  0  0  0  0
  181.9290  180.4080  138.5280 N   0  0  0  0  0  0  0  0  0  0  0  0
  182.3020  179.1600  138.8560 C   0  0  0  0  0  0  0  0  0  0  0  0
  181.3570  178.2350  138.6210 N   0  0  0  0  0  0  0  0  0  0  0  0
  180.3230  178.9350  138.1170 C   0  0  0  0  0  3  0  0  0  0  0  0
  188.7790  174.4300  136.7070 C   0  0  0  0  0  1  0  0  0  0  0  0
  188.5500  175.8400  136.1830 C   0  0  2  0  0  3  0  0  0  0  0  0
  189.7450  176.3680  135.6890 O   0  0  0  0  0  0  0  0  0  0  0  0
  190.5850  175.2680  135.5090 C   0  0  0  0  0  2  0  0  0  0  0  0
  192.0420  175.7030  135.5820 C   0  0  0  0  0  2  0  0  0  0  0  0
  192.9820  174.5190  135.7650 C   0  0  0  0  0  2  0  0  0  0  0  0
  193.5260  174.4590  137.1840 C   0  0  1  0  0  3  0  0  0  0  0  0
  192.5230  174.0680  138.0530 F   0  0  0  0  0  0  0  0  0  0  0  0
  196.2330  173.8720  136.4410 O   0  0  0  0  0  0  0  0  0  0  0  0
  195.2990  173.0070  138.8910 O   0  0  0  0  0  1  0  0  0  0  0  0
  194.8880  173.2650  137.2710 P   0  0  0  0  0  0  0  0  0  0  0  0
  194.4590  171.9580  136.6480 O   0  0  0  0  0  1  0  0  0  0  0  0
  185.7600  176.7750  136.0840 C   0  0  0  0  0  2  0  0  0  0  0  0
  183.3030  175.9120  136.2470 C   0  0  0  0  0  2  0  0  0  0  0  0
  182.4160  175.0660  137.1970 C   0  0  0  0  0  2  0  0  0  0  0  0
  184.9990  173.3100  137.1270 C   0  0  0  0  0  3  0  0  0  0  0  0
  183.6180  172.7800  137.0620 C   0  0  0  0  0  0  0  0  0  0  0  0
  182.5060  173.5520  137.0270 C   0  0  0  0  0  3  0  0  0  0  0  0
  183.4450  171.3050  136.9820 C   0  0  0  0  0  1  0  0  0  0  0  0
  185.1150  174.5680  136.8620 C   0  0  0  0  0  0  0  0  0  0  0  0
  184.7660  175.7740  136.5630 C   0  0  0  0  0  0  0  0  0  0  0  0
  189.1710  178.2590  140.5540 C   0  0  0  0  0  2  0  0  0  0  0  0
  189.8700  177.0340  141.1430 C   0  0  0  0  0  2  0  0  0  0  0  0
  192.2210  177.2140  140.3070 C   0  0  0  0  0  0  0  0  0  0  0  0
  191.2850  177.3010  141.3880 N   0  0  0  0  0  0  0  0  0  0  0  0
  191.7820  176.8940  139.0260 O   0  0  0  0  0  0  0  0  0  0  0  0
  193.4500  177.4170  140.5050 O   0  0  0  0  0  1  0  0  0  0  0  0
  191.7360  177.6600  142.7330 C   0  0  0  0  0  2  0  0  0  0  0  0
  190.5920  177.7060  143.7450 C   0  0  2  0  0  3  0  0  0  0  0  0
  190.4910  178.9630  144.3520 O   0  0  0  0  0  1  0  0  0  0  0  0
  191.9100  175.9310  144.7200 O   0  0  0  0  0  1  0  0  0  0  0  0
  190.6740  176.5780  144.7780 C   0  0  1  0  0  3  0  0  0  0  0  0
  190.4080  177.0860  146.1920 C   0  0  2  0  0  3  0  0  0  0  0  0
  191.5690  176.9810  146.9620 O   0  0  0  0  0  1  0  0  0  0  0  0
  189.3690  176.3640  146.7900 O   0  0  0  0  0  0  0  0  0  0  0  0
  189.2740  178.9930  147.9090 C   0  0  0  0  0  1  0  0  0  0  0  0
  188.3300  177.5030  147.4990 P   0  0  2  0  0  0  0  0  0  0  0  0
  187.7720  176.9200  148.7740 O   0  0  0  0  0  0  0  0  0  0  0  0
  186.9570  177.9550  146.3690 C   0  0  1  0  0  3  0  0  0  0  0  0
  185.8160  178.7160  146.9920 C   0  0  0  0  0  0  0  0  0  0  0  0
  184.6270  178.3370  146.8340 O   0  0  0  0  0  0  0  0  0  0  0  0
  186.0860  179.8230  147.7870 O   0  0  0  0  0  1  0  0  0  0  0  0
  187.3630  178.3870  145.0840 O   0  0  0  0  0  0  0  0  0  0  0  0
  187.5070  176.2710  143.3480 O   0  0  0  0  0  0  0  0  0  0  0  0
  186.6610  177.4060  143.8780 P   0  0  2  0  0  4  0  0  0  0  0  0
  186.3350  178.4510  142.5550 O   0  0  0  0  0  1  0  0  0  0  0  0
  185.2790  177.8830  142.9840 O   0  0  0  0  0  0  0  0  0  0  0  0
  1  2  1  0  0  0  0
  2 35  1  0  0  0  0
  3  5  2  0  0  0  0
  3  6  1  0  0  0  0
  4  2  2  0  0  0  0
  5  4  1  0  0  0  0
  6  1  2  0  0  0  0
  7  6  1  0  0  0  0
  7  8  1  0  0  0  0
  9 13  1  0  0  0  0
  9 10  1  0  0  0  0
 10 11  2  0  0  0  0
 11  8  1  0  0  0  0
 12 11  1  0  0  0  0
 13 12  2  0  0  0  0
 15 14  1  1  0  0  0
 15  5  1  0  0  0  0
 16 15  1  0  0  0  0
 17 18  1  0  0  0  0
 17 16  1  0  0  0  0
 18 19  1  0  0  0  0
 19 20  1  0  0  0  0
 20 24  1  0  0  0  0
 20 21  1  1  0  0  0
 22 24  2  0  0  0  0
 24 23  1  0  0  0  0
 25 24  1  0  0  0  0
 26 34  1  0  0  0  0
 26  3  1  0  0  0  0
 27 34  1  0  0  0  0
 27 28  1  0  0  0  0
 30 29  1  0  0  0  0
 31 30  2  0  0  0  0
 31 28  1  0  0  0  0
 32 30  1  0  0  0  0
 33 29  2  0  0  0  0
 34 33  2  0  0  0  0
 35 36  1  0  0  0  0
 36 38  1  0  0  0  0
 37 40  1  0  0  0  0
 37 38  1  0  0  0  0
 38 41  1  0  0  0  0
 39 37  2  0  0  0  0
 41 42  1  0  0  0  0
 42 43  1  1  0  0  0
 42 45  1  0  0  0  0
 45 44  1  1  0  0  0
 45 46  1  0  0  0  0
 46 48  1  0  0  0  0
 46 47  1  1  0  0  0
 48 50  1  0  0  0  0
 50 49  1  1  0  0  0
 50 51  2  0  0  0  0
 52 56  1  6  0  0  0
 52 53  1  0  0  0  0
 52 50  1  0  0  0  0
 53 55  1  0  0  0  0
 54 53  2  0  0  0  0
 58 57  2  6  0  0  0
 58 56  1  0  0  0  0
 59 60  1  0  0  0  0
 60 58  1  0  0  0  0
M  END
>  <MODEL>
1

>  <REMARK>
 VINA RESULT:      -6.5      0.000      0.000
  Name = 
  24 active torsions:
  status: ('A' for Active; 'I' for Inactive)
    1  A    between atoms: C_4  and  C_10
    2  A    between atoms: C_4  and  C_29
    3  A    between atoms: C_6  and  C_56
    4  A    between atoms: O_8  and  C_33
    5  A    between atoms: O_8  and  P_51
    6  A    between atoms: C_10  and  C_48
    7  A    between atoms: C_12  and  N_35
    8  A    between atoms: C_12  and  C_60
    9  A    between atoms: C_13  and  S_22
   10  A    between atoms: C_14  and  C_45
   11  A    between atoms: C_19  and  C_30
   12  A    between atoms: C_19  and  C_53
   13  A    between atoms: C_20  and  C_60
   14  A    between atoms: P_24  and  O_25
   15  A    between atoms: O_25  and  C_56
   16  A    between atoms: C_26  and  C_32
   17  A    between atoms: C_26  and  O_47
   18  A    between atoms: C_27  and  C_40
   19  A    between atoms: C_29  and  P_38
   20  A    between atoms: C_30  and  C_33
   21  A    between atoms: N_35  and  C_53
   22  A    between atoms: C_40  and  C_55
   23  A    between atoms: O_47  and  C_48
   24  A    between atoms: P_51  and  C_56
                            x       y       z     vdW  Elec       q    Type
                         _______ _______ _______ _____ _____    ______ ____

>  <TORSDO>
F 24

$$$$
=
 OpenBabel10232409083D

 60 62  0  0  1  0  0  0  0  0999 V2000
  184.8970  178.3390  139.4520 C   0  0  0  0  0  3  0  0  0  0  0  0
  185.9540  178.5980  140.3230 C   0  0  0  0  0  0  0  0  0  0  0  0
  186.4690  177.7670  137.6800 C   0  0  0  0  0  0  0  0  0  0  0  0
  187.2690  178.4280  139.8770 C   0  0  0  0  0  3  0  0  0  0  0  0
  187.5390  178.0280  138.5620 C   0  0  0  0  0  0  0  0  0  0  0  0
  185.1370  177.9290  138.1300 C   0  0  0  0  0  0  0  0  0  0  0  0
  184.0090  177.6310  137.2290 C   0  0  0  0  0  2  0  0  0  0  0  0
  182.4830  178.0590  137.5410 S   0  0  0  0  0  0  0  0  0  0  0  0
  180.1690  176.9740  134.6730 C   0  0  0  0  0  2  0  0  0  0  0  0
  180.5610  177.8820  135.5880 N   0  0  0  0  0  0  0  0  0  0  0  0
  181.5800  177.2870  136.2280 C   0  0  0  0  0  0  0  0  0  0  0  0
  181.8600  176.0550  135.7710 N   0  0  0  0  0  0  0  0  0  0  0  0
  180.9660  175.8540  134.7850 C   0  0  0  0  0  3  0  0  0  0  0  0
  189.1150  178.3230  136.6550 C   0  0  0  0  0  1  0  0  0  0  0  0
  188.9710  177.8950  138.1080 C   0  0  2  0  0  3  0  0  0  0  0  0
  189.4120  176.5800  138.2670 O   0  0  0  0  0  0  0  0  0  0  0  0
  190.6670  176.5380  137.6590 C   0  0  0  0  0  2  0  0  0  0  0  0
  191.0840  175.0950  137.4150 C   0  0  0  0  0  2  0  0  0  0  0  0
  192.5040  174.8230  137.8940 C   0  0  0  0  0  2  0  0  0  0  0  0
  193.3000  174.0490  136.8530 C   0  0  1  0  0  3  0  0  0  0  0  0
  193.2740  174.7250  135.6470 F   0  0  0  0  0  0  0  0  0  0  0  0
  195.0860  172.8760  138.7660 O   0  0  0  0  0  1  0  0  0  0  0  0
  195.9300  173.1800  136.1550 O   0  0  0  0  0  0  0  0  0  0  0  0
  195.0200  173.8740  137.4000 P   0  0  0  0  0  0  0  0  0  0  0  0
  195.5870  175.2320  137.7400 O   0  0  0  0  0  1  0  0  0  0  0  0
  186.7450  177.2830  136.2810 C   0  0  0  0  0  2  0  0  0  0  0  0
  186.9150  174.8880  137.3010 C   0  0  0  0  0  2  0  0  0  0  0  0
  187.0430  173.4160  136.8280 C   0  0  0  0  0  2  0  0  0  0  0  0
  184.8380  174.4470  134.8690 C   0  0  0  0  0  3  0  0  0  0  0  0
  184.8130  173.1320  135.5480 C   0  0  0  0  0  0  0  0  0  0  0  0
  185.7390  172.7190  136.4450 C   0  0  0  0  0  3  0  0  0  0  0  0
  183.6700  172.2240  135.2590 C   0  0  0  0  0  1  0  0  0  0  0  0
  185.6410  175.3150  135.3870 C   0  0  0  0  0  0  0  0  0  0  0  0
  186.5280  175.8120  136.1810 C   0  0  0  0  0  0  0  0  0  0  0  0
  185.6530  178.9320  141.7500 C   0  0  0  0  0  2  0  0  0  0  0  0
  184.5390  178.0740  142.3460 C   0  0  0  0  0  2  0  0  0  0  0  0
  182.2170  178.9940  142.4920 C   0  0  0  0  0  0  0  0  0  0  0  0
  183.5430  178.8990  143.0270 N   0  0  0  0  0  0  0  0  0  0  0  0
  181.8740  178.2910  141.3420 O   0  0  0  0  0  0  0  0  0  0  0  0
  181.3520  179.7210  143.0520 O   0  0  0  0  0  1  0  0  0  0  0  0
  183.9050  179.6180  144.2480 C   0  0  0  0  0  2  0  0  0  0  0  0
  184.5290  178.7070  145.3040 C   0  0  2  0  0  3  0  0  0  0  0  0
  183.6970  178.5680  146.4220 O   0  0  0  0  0  1  0  0  0  0  0  0
  185.9630  179.6960  146.9800 O   0  0  0  0  0  1  0  0  0  0  0  0
  185.9430  179.1440  145.6970 C   0  0  1  0  0  3  0  0  0  0  0  0
  186.9380  177.9900  145.6030 C   0  0  2  0  0  3  0  0  0  0  0  0
  186.9910  177.3060  146.8190 O   0  0  0  0  0  1  0  0  0  0  0  0
  188.2110  178.4620  145.2620 O   0  0  0  0  0  0  0  0  0  0  0  0
  189.2410  178.4000  142.5950 C   0  0  0  0  0  1  0  0  0  0  0  0
  188.8070  177.4240  144.0570 P   0  0  2  0  0  0  0  0  0  0  0  0
  187.7210  176.4470  143.6800 O   0  0  0  0  0  0  0  0  0  0  0  0
  190.2910  176.5120  144.6320 C   0  0  1  0  0  3  0  0  0  0  0  0
  191.0180  175.7120  143.5830 C   0  0  0  0  0  0  0  0  0  0  0  0
  191.9710  174.9540  143.8980 O   0  0  0  0  0  1  0  0  0  0  0  0
  190.6000  175.7790  142.2600 O   0  0  0  0  0  0  0  0  0  0  0  0
  191.1060  177.2200  145.5480 O   0  0  0  0  0  0  0  0  0  0  0  0
  189.7220  176.2230  147.6940 O   0  0  0  0  0  0  0  0  0  0  0  0
  191.0810  176.4590  147.0750 P   0  0  2  0  0  4  0  0  0  0  0  0
  191.9400  177.5040  148.1330 O   0  0  0  0  0  1  0  0  0  0  0  0
  192.4670  176.3460  148.0770 O   0  0  0  0  0  0  0  0  0  0  0  0
  1  2  1  0  0  0  0
  2 35  1  0  0  0  0
  3  6  1  0  0  0  0
  3  5  2  0  0  0  0
  4  2  2  0  0  0  0
  5  4  1  0  0  0  0
  6  1  2  0  0  0  0
  7  8  1  0  0  0  0
  7  6  1  0  0  0  0
  9 13  1  0  0  0  0
  9 10  1  0  0  0  0
 10 11  2  0  0  0  0
 11  8  1  0  0  0  0
 12 11  1  0  0  0  0
 13 12  2  0  0  0  0
 15 14  1  6  0  0  0
 15 16  1  0  0  0  0
 15  5  1  0  0  0  0
 17 16  1  0  0  0  0
 18 17  1  0  0  0  0
 18 19  1  0  0  0  0
 20 21  1  6  0  0  0
 20 24  1  0  0  0  0
 20 19  1  0  0  0  0
 23 24  2  0  0  0  0
 24 25  1  0  0  0  0
 24 22  1  0  0  0  0
 26  3  1  0  0  0  0
 28 27  1  0  0  0  0
 29 33  2  0  0  0  0
 29 30  1  0  0  0  0
 30 31  2  0  0  0  0
 31 28  1  0  0  0  0
 32 30  1  0  0  0  0
 33 34  2  0  0  0  0
 34 26  1  0  0  0  0
 34 27  1  0  0  0  0
 35 36  1  0  0  0  0
 36 38  1  0  0  0  0
 37 38  1  0  0  0  0
 37 40  1  0  0  0  0
 38 41  1  0  0  0  0
 39 37  2  0  0  0  0
 41 42  1  0  0  0  0
 42 45  1  0  0  0  0
 42 43  1  1  0  0  0
 45 44  1  1  0  0  0
 46 45  1  0  0  0  0
 46 47  1  1  0  0  0
 48 46  1  0  0  0  0
 50 49  1  6  0  0  0
 50 52  1  0  0  0  0
 50 48  1  0  0  0  0
 51 50  2  0  0  0  0
 52 53  1  6  0  0  0
 52 56  1  0  0  0  0
 53 54  1  0  0  0  0
 55 53  2  0  0  0  0
 56 58  1  0  0  0  0
 58 57  2  1  0  0  0
 58 60  1  0  0  0  0
 60 59  1  0  0  0  0
M  END
>  <MODEL>
2

>  <REMARK>
 VINA RESULT:      -5.9      2.282      5.040
  Name = 
  24 active torsions:
  status: ('A' for Active; 'I' for Inactive)
    1  A    between atoms: C_4  and  C_10
    2  A    between atoms: C_4  and  C_29
    3  A    between atoms: C_6  and  C_56
    4  A    between atoms: O_8  and  C_33
    5  A    between atoms: O_8  and  P_51
    6  A    between atoms: C_10  and  C_48
    7  A    between atoms: C_12  and  N_35
    8  A    between atoms: C_12  and  C_60
    9  A    between atoms: C_13  and  S_22
   10  A    between atoms: C_14  and  C_45
   11  A    between atoms: C_19  and  C_30
   12  A    between atoms: C_19  and  C_53
   13  A    between atoms: C_20  and  C_60
   14  A    between atoms: P_24  and  O_25
   15  A    between atoms: O_25  and  C_56
   16  A    between atoms: C_26  and  C_32
   17  A    between atoms: C_26  and  O_47
   18  A    between atoms: C_27  and  C_40
   19  A    between atoms: C_29  and  P_38
   20  A    between atoms: C_30  and  C_33
   21  A    between atoms: N_35  and  C_53
   22  A    between atoms: C_40  and  C_55
   23  A    between atoms: O_47  and  C_48
   24  A    between atoms: P_51  and  C_56
                            x       y       z     vdW  Elec       q    Type
                         _______ _______ _______ _____ _____    ______ ____

>  <TORSDO>
F 24

$$$$
=
 OpenBabel10232409083D

 60 62  0  0  1  0  0  0  0  0999 V2000
  187.1630  177.1600  137.5550 C   0  0  0  0  0  3  0  0  0  0  0  0
  188.4470  176.6940  137.8320 C   0  0  0  0  0  0  0  0  0  0  0  0
  186.9320  175.5240  135.7640 C   0  0  0  0  0  0  0  0  0  0  0  0
  188.9690  175.6330  137.0840 C   0  0  0  0  0  3  0  0  0  0  0  0
  188.2320  175.0510  136.0450 C   0  0  0  0  0  0  0  0  0  0  0  0
  186.3970  176.5910  136.5240 C   0  0  0  0  0  0  0  0  0  0  0  0
  185.0290  177.0750  136.2610 C   0  0  0  0  0  2  0  0  0  0  0  0
  183.9380  177.3320  137.4230 S   0  0  0  0  0  0  0  0  0  0  0  0
  181.1420  178.0340  134.8830 C   0  0  0  0  0  2  0  0  0  0  0  0
  182.4170  177.7020  135.1660 N   0  0  0  0  0  0  0  0  0  0  0  0
  182.4710  177.7150  136.5080 C   0  0  0  0  0  0  0  0  0  0  0  0
  181.3050  178.0340  137.0930 N   0  0  0  0  0  0  0  0  0  0  0  0
  180.4600  178.2370  136.0650 C   0  0  0  0  0  3  0  0  0  0  0  0
  188.8460  172.6370  136.0270 C   0  0  0  0  0  1  0  0  0  0  0  0
  188.8460  173.9370  135.2360 C   0  0  2  0  0  3  0  0  0  0  0  0
  190.1490  174.2690  134.8600 O   0  0  0  0  0  0  0  0  0  0  0  0
  190.9390  173.2030  135.2940 C   0  0  0  0  0  2  0  0  0  0  0  0
  192.2330  173.7230  135.9040 C   0  0  0  0  0  2  0  0  0  0  0  0
  192.9970  174.6230  134.9420 C   0  0  0  0  0  2  0  0  0  0  0  0
  193.6620  175.7780  135.6750 C   0  0  1  0  0  3  0  0  0  0  0  0
  192.8310  176.2310  136.6850 F   0  0  0  0  0  0  0  0  0  0  0  0
  195.1200  175.2510  138.0890 O   0  0  0  0  0  1  0  0  0  0  0  0
  195.5540  173.6470  135.8830 O   0  0  0  0  0  0  0  0  0  0  0  0
  195.2300  175.2250  136.3990 P   0  0  0  0  0  0  0  0  0  0  0  0
  196.3470  176.1380  135.9530 O   0  0  0  0  0  1  0  0  0  0  0  0
  186.1080  174.8700  134.6860 C   0  0  0  0  0  2  0  0  0  0  0  0
  185.3300  173.2020  136.5350 C   0  0  0  0  0  2  0  0  0  0  0  0
  184.3250  172.0340  136.7150 C   0  0  0  0  0  2  0  0  0  0  0  0
  182.5300  174.0900  135.1970 C   0  0  0  0  0  3  0  0  0  0  0  0
  182.0840  173.2720  136.3470 C   0  0  0  0  0  0  0  0  0  0  0  0
  182.8870  172.4310  137.0400 C   0  0  0  0  0  3  0  0  0  0  0  0
  180.6740  173.4190  136.7970 C   0  0  0  0  0  1  0  0  0  0  0  0
  183.8100  174.1830  135.0540 C   0  0  0  0  0  0  0  0  0  0  0  0
  185.0640  173.9900  135.2840 C   0  0  0  0  0  0  0  0  0  0  0  0
  189.1870  177.2590  139.0030 C   0  0  0  0  0  2  0  0  0  0  0  0
  188.4500  178.4140  139.6800 C   0  0  0  0  0  2  0  0  0  0  0  0
  186.4950  178.5340  141.2360 C   0  0  0  0  0  0  0  0  0  0  0  0
  187.7620  177.9640  140.8890 N   0  0  0  0  0  0  0  0  0  0  0  0
  185.9130  179.4980  140.4190 O   0  0  0  0  0  0  0  0  0  0  0  0
  185.8990  178.1760  142.2890 O   0  0  0  0  0  1  0  0  0  0  0  0
  188.3690  176.9350  141.7310 C   0  0  0  0  0  2  0  0  0  0  0  0
  189.4190  177.4990  142.6870 C   0  0  2  0  0  3  0  0  0  0  0  0
  189.5560  178.8850  142.5440 O   0  0  0  0  0  1  0  0  0  0  0  0
  191.7240  177.5930  141.9650 O   0  0  0  0  0  1  0  0  0  0  0  0
  190.7660  176.7780  142.5730 C   0  0  1  0  0  3  0  0  0  0  0  0
  191.2670  176.2970  143.9320 C   0  0  2  0  0  3  0  0  0  0  0  0
  192.0210  175.1320  143.7760 O   0  0  0  0  0  1  0  0  0  0  0  0
  190.1940  176.0620  144.8000 O   0  0  0  0  0  0  0  0  0  0  0  0
  191.3340  178.5530  145.6210 C   0  0  0  0  0  1  0  0  0  0  0  0
  190.4220  177.0770  146.1410 P   0  0  2  0  0  0  0  0  0  0  0  0
  191.2430  176.3410  147.1700 O   0  0  0  0  0  0  0  0  0  0  0  0
  188.8200  177.5890  146.8760 C   0  0  1  0  0  3  0  0  0  0  0  0
  188.8450  177.9130  148.3460 C   0  0  0  0  0  0  0  0  0  0  0  0
  189.7730  178.6050  148.8370 O   0  0  0  0  0  0  0  0  0  0  0  0
  187.8050  177.4790  149.1590 O   0  0  0  0  0  1  0  0  0  0  0  0
  188.0430  178.4480  146.0630 O   0  0  0  0  0  0  0  0  0  0  0  0
  185.8190  177.2410  145.0090 O   0  0  0  0  0  0  0  0  0  0  0  0
  186.3920  178.0290  146.1650 P   0  0  2  0  0  4  0  0  0  0  0  0
  185.5340  179.5140  146.2340 O   0  0  0  0  0  1  0  0  0  0  0  0
  185.3080  178.7860  147.2550 O   0  0  0  0  0  0  0  0  0  0  0  0
  1  2  1  0  0  0  0
  2 35  1  0  0  0  0
  3  5  2  0  0  0  0
  3  6  1  0  0  0  0
  4  2  2  0  0  0  0
  5  4  1  0  0  0  0
  6  1  2  0  0  0  0
  7  6  1  0  0  0  0
  7  8  1  0  0  0  0
  9 10  1  0  0  0  0
  9 13  1  0  0  0  0
 10 11  2  0  0  0  0
 11 12  1  0  0  0  0
 11  8  1  0  0  0  0
 13 12  2  0  0  0  0
 15 14  1  1  0  0  0
 15  5  1  0  0  0  0
 16 15  1  0  0  0  0
 16 17  1  0  0  0  0
 17 18  1  0  0  0  0
 19 20  1  0  0  0  0
 19 18  1  0  0  0  0
 20 24  1  0  0  0  0
 20 21  1  1  0  0  0
 23 24  2  0  0  0  0
 24 22  1  0  0  0  0
 25 24  1  0  0  0  0
 26 34  1  0  0  0  0
 26  3  1  0  0  0  0
 27 28  1  0  0  0  0
 28 31  1  0  0  0  0
 29 30  1  0  0  0  0
 30 32  1  0  0  0  0
 30 31  2  0  0  0  0
 33 29  2  0  0  0  0
 33 34  2  0  0  0  0
 34 27  1  0  0  0  0
 35 36  1  0  0  0  0
 36 38  1  0  0  0  0
 37 40  1  0  0  0  0
 38 37  1  0  0  0  0
 38 41  1  0  0  0  0
 39 37  2  0  0  0  0
 41 42  1  0  0  0  0
 42 43  1  6  0  0  0
 45 44  1  1  0  0  0
 45 42  1  0  0  0  0
 45 46  1  0  0  0  0
 46 47  1  6  0  0  0
 46 48  1  0  0  0  0
 48 50  1  0  0  0  0
 50 49  1  6  0  0  0
 50 52  1  0  0  0  0
 50 51  2  0  0  0  0
 52 56  1  6  0  0  0
 52 53  1  0  0  0  0
 53 54  2  0  0  0  0
 53 55  1  0  0  0  0
 56 58  1  0  0  0  0
 58 57  2  6  0  0  0
 58 60  1  0  0  0  0
 59 60  1  0  0  0  0
M  END
>  <MODEL>
3

>  <REMARK>
 VINA RESULT:      -5.3      1.840      3.129
  Name = 
  24 active torsions:
  status: ('A' for Active; 'I' for Inactive)
    1  A    between atoms: C_4  and  C_10
    2  A    between atoms: C_4  and  C_29
    3  A    between atoms: C_6  and  C_56
    4  A    between atoms: O_8  and  C_33
    5  A    between atoms: O_8  and  P_51
    6  A    between atoms: C_10  and  C_48
    7  A    between atoms: C_12  and  N_35
    8  A    between atoms: C_12  and  C_60
    9  A    between atoms: C_13  and  S_22
   10  A    between atoms: C_14  and  C_45
   11  A    between atoms: C_19  and  C_30
   12  A    between atoms: C_19  and  C_53
   13  A    between atoms: C_20  and  C_60
   14  A    between atoms: P_24  and  O_25
   15  A    between atoms: O_25  and  C_56
   16  A    between atoms: C_26  and  C_32
   17  A    between atoms: C_26  and  O_47
   18  A    between atoms: C_27  and  C_40
   19  A    between atoms: C_29  and  P_38
   20  A    between atoms: C_30  and  C_33
   21  A    between atoms: N_35  and  C_53
   22  A    between atoms: C_40  and  C_55
   23  A    between atoms: O_47  and  C_48
   24  A    between atoms: P_51  and  C_56
                            x       y       z     vdW  Elec       q    Type
                         _______ _______ _______ _____ _____    ______ ____

>  <TORSDO>
F 24

$$$$
=
 OpenBabel10232409083D

 60 62  0  0  1  0  0  0  0  0999 V2000
  185.1520  178.4380  139.5890 C   0  0  0  0  0  3  0  0  0  0  0  0
  186.2870  178.5360  140.3920 C   0  0  0  0  0  0  0  0  0  0  0  0
  186.5280  177.7930  137.6840 C   0  0  0  0  0  0  0  0  0  0  0  0
  187.5430  178.2480  139.8450 C   0  0  0  0  0  3  0  0  0  0  0  0
  187.6780  177.8910  138.4970 C   0  0  0  0  0  0  0  0  0  0  0  0
  185.2560  178.0740  138.2360 C   0  0  0  0  0  0  0  0  0  0  0  0
  184.0430  177.9480  137.4070 C   0  0  0  0  0  2  0  0  0  0  0  0
  182.5610  177.7640  138.0190 S   0  0  0  0  0  0  0  0  0  0  0  0
  180.1930  177.8100  134.9950 C   0  0  0  0  0  2  0  0  0  0  0  0
  180.7320  178.4090  136.0750 N   0  0  0  0  0  0  0  0  0  0  0  0
  181.5700  177.4870  136.5790 C   0  0  0  0  0  0  0  0  0  0  0  0
  181.5960  176.3410  135.8800 N   0  0  0  0  0  0  0  0  0  0  0  0
  180.7230  176.5420  134.8750 C   0  0  0  0  0  3  0  0  0  0  0  0
  189.1950  178.2510  136.5540 C   0  0  0  0  0  1  0  0  0  0  0  0
  189.0520  177.6290  137.9360 C   0  0  2  0  0  3  0  0  0  0  0  0
  189.2970  176.2550  137.8710 O   0  0  0  0  0  0  0  0  0  0  0  0
  190.6150  176.0970  138.3020 C   0  0  0  0  0  2  0  0  0  0  0  0
  191.4820  175.5850  137.1610 C   0  0  0  0  0  2  0  0  0  0  0  0
  192.5720  174.6410  137.6520 C   0  0  0  0  0  2  0  0  0  0  0  0
  193.9080  175.3560  137.7770 C   0  0  1  0  0  3  0  0  0  0  0  0
  194.7070  174.6960  138.6930 F   0  0  0  0  0  0  0  0  0  0  0  0
  196.4220  175.4290  136.3970 O   0  0  0  0  0  1  0  0  0  0  0  0
  194.3350  173.9870  135.3070 O   0  0  0  0  0  0  0  0  0  0  0  0
  194.7450  175.3830  136.1690 P   0  0  0  0  0  0  0  0  0  0  0  0
  194.3090  176.6000  135.3880 O   0  0  0  0  0  1  0  0  0  0  0  0
  186.6540  177.3570  136.2490 C   0  0  0  0  0  2  0  0  0  0  0  0
  187.5620  174.9120  136.3210 C   0  0  0  0  0  2  0  0  0  0  0  0
  187.2470  173.5240  135.7050 C   0  0  0  0  0  2  0  0  0  0  0  0
  184.3710  174.4570  136.4860 C   0  0  0  0  0  3  0  0  0  0  0  0
  184.8950  173.0880  136.6890 C   0  0  0  0  0  0  0  0  0  0  0  0
  186.1640  172.7080  136.4080 C   0  0  0  0  0  3  0  0  0  0  0  0
  183.9810  172.0770  137.2840 C   0  0  0  0  0  1  0  0  0  0  0  0
  185.2690  175.3640  136.2890 C   0  0  0  0  0  0  0  0  0  0  0  0
  186.4360  175.8870  136.1250 C   0  0  0  0  0  0  0  0  0  0  0  0
  186.1220  178.8260  141.8500 C   0  0  0  0  0  2  0  0  0  0  0  0
  185.0010  178.0170  142.5000 C   0  0  0  0  0  2  0  0  0  0  0  0
  182.7320  178.9790  142.9340 C   0  0  0  0  0  0  0  0  0  0  0  0
  184.1170  178.8760  143.2860 N   0  0  0  0  0  0  0  0  0  0  0  0
  182.2270  178.2530  141.8610 O   0  0  0  0  0  0  0  0  0  0  0  0
  181.9610  179.7350  143.5850 O   0  0  0  0  0  1  0  0  0  0  0  0
  184.6510  179.6200  144.4270 C   0  0  0  0  0  2  0  0  0  0  0  0
  184.9890  178.7170  145.6120 C   0  0  2  0  0  3  0  0  0  0  0  0
  183.8640  178.4640  146.4060 O   0  0  0  0  0  1  0  0  0  0  0  0
  185.7140  179.9880  147.5360 O   0  0  0  0  0  1  0  0  0  0  0  0
  186.1630  179.2470  146.4400 C   0  0  1  0  0  3  0  0  0  0  0  0
  187.0830  178.1210  146.9040 C   0  0  2  0  0  3  0  0  0  0  0  0
  187.4160  178.3020  148.2480 O   0  0  0  0  0  1  0  0  0  0  0  0
  188.2440  178.0780  146.1230 O   0  0  0  0  0  0  0  0  0  0  0  0
  188.7980  175.8970  147.8880 C   0  0  0  0  0  1  0  0  0  0  0  0
  189.4540  177.3840  147.0900 P   0  0  2  0  0  0  0  0  0  0  0  0
  189.8440  178.3730  148.1600 O   0  0  0  0  0  0  0  0  0  0  0  0
  190.9290  176.9310  146.0960 C   0  0  1  0  0  3  0  0  0  0  0  0
  191.9500  176.0700  146.7910 C   0  0  0  0  0  0  0  0  0  0  0  0
  192.4050  175.0360  146.2350 O   0  0  0  0  0  0  0  0  0  0  0  0
  192.4280  176.4470  148.0400 O   0  0  0  0  0  1  0  0  0  0  0  0
  190.6580  176.6060  144.7460 O   0  0  0  0  0  0  0  0  0  0  0  0
  190.8630  179.2220  143.9530 O   0  0  0  0  0  0  0  0  0  0  0  0
  191.3030  177.7960  143.7070 P   0  0  2  0  0  4  0  0  0  0  0  0
  190.7790  177.3740  142.1280 O   0  0  0  0  0  1  0  0  0  0  0  0
  192.0490  177.4170  142.2120 O   0  0  0  0  0  0  0  0  0  0  0  0
  1  2  1  0  0  0  0
  2 35  1  0  0  0  0
  3  6  1  0  0  0  0
  3  5  2  0  0  0  0
  4  2  2  0  0  0  0
  5  4  1  0  0  0  0
  6  1  2  0  0  0  0
  7  8  1  0  0  0  0
  7  6  1  0  0  0  0
  9 10  1  0  0  0  0
 10 11  2  0  0  0  0
 11  8  1  0  0  0  0
 12 11  1  0  0  0  0
 13  9  1  0  0  0  0
 13 12  2  0  0  0  0
 15 14  1  6  0  0  0
 15  5  1  0  0  0  0
 16 15  1  0  0  0  0
 16 17  1  0  0  0  0
 18 19  1  0  0  0  0
 18 17  1  0  0  0  0
 19 20  1  0  0  0  0
 20 21  1  1  0  0  0
 23 24  2  0  0  0  0
 24 22  1  0  0  0  0
 24 20  1  0  0  0  0
 25 24  1  0  0  0  0
 26  3  1  0  0  0  0
 28 27  1  0  0  0  0
 28 31  1  0  0  0  0
 29 30  1  0  0  0  0
 30 32  1  0  0  0  0
 31 30  2  0  0  0  0
 33 29  2  0  0  0  0
 34 26  1  0  0  0  0
 34 33  2  0  0  0  0
 34 27  1  0  0  0  0
 35 36  1  0  0  0  0
 36 38  1  0  0  0  0
 37 38  1  0  0  0  0
 37 40  1  0  0  0  0
 38 41  1  0  0  0  0
 39 37  2  0  0  0  0
 41 42  1  0  0  0  0
 42 43  1  1  0  0  0
 42 45  1  0  0  0  0
 45 46  1  0  0  0  0
 45 44  1  1  0  0  0
 46 47  1  1  0  0  0
 48 46  1  0  0  0  0
 48 50  1  0  0  0  0
 50 49  1  1  0  0  0
 50 51  2  0  0  0  0
 52 56  1  6  0  0  0
 52 53  1  0  0  0  0
 52 50  1  0  0  0  0
 53 55  1  0  0  0  0
 54 53  2  0  0  0  0
 58 57  2  6  0  0  0
 58 56  1  0  0  0  0
 59 60  1  0  0  0  0
 60 58  1  0  0  0  0
M  END
>  <MODEL>
4

>  <REMARK>
 VINA RESULT:      -5.0      2.287      4.649
  Name = 
  24 active torsions:
  status: ('A' for Active; 'I' for Inactive)
    1  A    between atoms: C_4  and  C_10
    2  A    between atoms: C_4  and  C_29
    3  A    between atoms: C_6  and  C_56
    4  A    between atoms: O_8  and  C_33
    5  A    between atoms: O_8  and  P_51
    6  A    between atoms: C_10  and  C_48
    7  A    between atoms: C_12  and  N_35
    8  A    between atoms: C_12  and  C_60
    9  A    between atoms: C_13  and  S_22
   10  A    between atoms: C_14  and  C_45
   11  A    between atoms: C_19  and  C_30
   12  A    between atoms: C_19  and  C_53
   13  A    between atoms: C_20  and  C_60
   14  A    between atoms: P_24  and  O_25
   15  A    between atoms: O_25  and  C_56
   16  A    between atoms: C_26  and  C_32
   17  A    between atoms: C_26  and  O_47
   18  A    between atoms: C_27  and  C_40
   19  A    between atoms: C_29  and  P_38
   20  A    between atoms: C_30  and  C_33
   21  A    between atoms: N_35  and  C_53
   22  A    between atoms: C_40  and  C_55
   23  A    between atoms: O_47  and  C_48
   24  A    between atoms: P_51  and  C_56
                            x       y       z     vdW  Elec       q    Type
                         _______ _______ _______ _____ _____    ______ ____

>  <TORSDO>
F 24

$$$$
=
 OpenBabel10232409083D

 60 62  0  0  1  0  0  0  0  0999 V2000
  190.5630  176.5410  139.8640 C   0  0  0  0  0  3  0  0  0  0  0  0
  189.3330  176.9790  140.3520 C   0  0  0  0  0  0  0  0  0  0  0  0
  189.6910  176.5560  137.5890 C   0  0  0  0  0  0  0  0  0  0  0  0
  188.2850  177.2200  139.4570 C   0  0  0  0  0  3  0  0  0  0  0  0
  188.4450  177.0000  138.0830 C   0  0  0  0  0  0  0  0  0  0  0  0
  190.7560  176.3210  138.4910 C   0  0  0  0  0  0  0  0  0  0  0  0
  192.0720  175.8850  137.9870 C   0  0  0  0  0  2  0  0  0  0  0  0
  193.4690  176.5330  138.4690 S   0  0  0  0  0  0  0  0  0  0  0  0
  195.8140  175.2880  135.6930 C   0  0  0  0  0  2  0  0  0  0  0  0
  194.8320  176.1030  136.1240 N   0  0  0  0  0  0  0  0  0  0  0  0
  194.6530  175.7540  137.4090 C   0  0  0  0  0  0  0  0  0  0  0  0
  195.4660  174.7660  137.8180 N   0  0  0  0  0  0  0  0  0  0  0  0
  196.2030  174.4680  136.7320 C   0  0  0  0  0  3  0  0  0  0  0  0
  186.6660  178.6030  137.3970 C   0  0  0  0  0  1  0  0  0  0  0  0
  187.2800  177.2320  137.1550 C   0  0  2  0  0  3  0  0  0  0  0  0
  186.3150  176.2380  137.3290 O   0  0  0  0  0  0  0  0  0  0  0  0
  185.2260  176.6440  136.5560 C   0  0  0  0  0  2  0  0  0  0  0  0
  184.3700  175.4430  136.1810 C   0  0  0  0  0  2  0  0  0  0  0  0
  183.9040  174.6690  137.4070 C   0  0  0  0  0  2  0  0  0  0  0  0
  182.4020  174.4280  137.3710 C   0  0  1  0  0  3  0  0  0  0  0  0
  181.8080  175.3140  136.4910 F   0  0  0  0  0  0  0  0  0  0  0  0
  181.6720  172.7290  135.1790 O   0  0  0  0  0  0  0  0  0  0  0  0
  183.4450  171.7850  137.0730 O   0  0  0  0  0  1  0  0  0  0  0  0
  182.0660  172.7320  136.8260 P   0  0  0  0  0  0  0  0  0  0  0  0
  180.9150  172.1610  137.6200 O   0  0  0  0  0  1  0  0  0  0  0  0
  189.8930  176.3700  136.1090 C   0  0  0  0  0  2  0  0  0  0  0  0
  190.3290  173.8010  136.2340 C   0  0  0  0  0  2  0  0  0  0  0  0
  190.1410  172.5340  135.3600 C   0  0  0  0  0  2  0  0  0  0  0  0
  187.3780  173.9280  134.9320 C   0  0  0  0  0  3  0  0  0  0  0  0
  187.5630  172.4760  135.1540 C   0  0  0  0  0  0  0  0  0  0  0  0
  188.7580  171.8890  135.4030 C   0  0  0  0  0  3  0  0  0  0  0  0
  186.3510  171.6140  135.1480 C   0  0  0  0  0  1  0  0  0  0  0  0
  188.3820  174.6660  135.2700 C   0  0  0  0  0  0  0  0  0  0  0  0
  189.5570  174.9760  135.7040 C   0  0  0  0  0  0  0  0  0  0  0  0
  189.2020  177.2990  141.8070 C   0  0  0  0  0  2  0  0  0  0  0  0
  190.4060  178.0540  142.3680 C   0  0  0  0  0  2  0  0  0  0  0  0
  191.4150  176.5900  144.1280 C   0  0  0  0  0  0  0  0  0  0  0  0
  190.6220  177.7310  143.7770 N   0  0  0  0  0  0  0  0  0  0  0  0
  191.9890  175.8040  143.1350 O   0  0  0  0  0  0  0  0  0  0  0  0
  191.5910  176.2820  145.3380 O   0  0  0  0  0  1  0  0  0  0  0  0
  190.0340  178.5750  144.8160 C   0  0  0  0  0  2  0  0  0  0  0  0
  188.7640  177.9730  145.4160 C   0  0  2  0  0  3  0  0  0  0  0  0
  189.0460  176.8440  146.1930 O   0  0  0  0  0  1  0  0  0  0  0  0
  187.5630  176.3130  144.1350 O   0  0  0  0  0  1  0  0  0  0  0  0
  187.6930  177.6850  144.3600 C   0  0  1  0  0  3  0  0  0  0  0  0
  186.3450  178.2890  144.7410 C   0  0  2  0  0  3  0  0  0  0  0  0
  186.1090  178.1030  146.1050 O   0  0  0  0  0  1  0  0  0  0  0  0
  185.3140  177.7110  143.9920 O   0  0  0  0  0  0  0  0  0  0  0  0
  185.7230  178.8760  141.4130 C   0  0  0  0  0  1  0  0  0  0  0  0
  184.7460  178.9130  142.9370 P   0  0  2  0  0  0  0  0  0  0  0  0
  184.9290  180.2590  143.5950 O   0  0  0  0  0  0  0  0  0  0  0  0
  182.9760  178.6610  142.5220 C   0  0  1  0  0  3  0  0  0  0  0  0
  182.0160  178.7080  143.6810 C   0  0  0  0  0  0  0  0  0  0  0  0
  182.4180  178.9900  144.8390 O   0  0  0  0  0  1  0  0  0  0  0  0
  180.6630  178.4810  143.4580 O   0  0  0  0  0  0  0  0  0  0  0  0
  182.5480  179.3010  141.3350 O   0  0  0  0  0  0  0  0  0  0  0  0
  183.2050  177.6620  139.2380 O   0  0  0  0  0  0  0  0  0  0  0  0
  182.1090  178.1430  140.1610 P   0  0  2  0  0  4  0  0  0  0  0  0
  180.9210  178.8990  139.1790 O   0  0  0  0  0  1  0  0  0  0  0  0
  180.4810  177.8360  139.7260 O   0  0  0  0  0  0  0  0  0  0  0  0
  1  2  1  0  0  0  0
  2 35  1  0  0  0  0
  3  5  2  0  0  0  0
  3  6  1  0  0  0  0
  4  2  2  0  0  0  0
  5  4  1  0  0  0  0
  6  1  2  0  0  0  0
  7  8  1  0  0  0  0
  7  6  1  0  0  0  0
  9 10  1  0  0  0  0
  9 13  1  0  0  0  0
 10 11  2  0  0  0  0
 11 12  1  0  0  0  0
 11  8  1  0  0  0  0
 13 12  2  0  0  0  0
 15 16  1  0  0  0  0
 15 14  1  1  0  0  0
 15  5  1  0  0  0  0
 17 16  1  0  0  0  0
 18 17  1  0  0  0  0
 18 19  1  0  0  0  0
 20 21  1  6  0  0  0
 20 19  1  0  0  0  0
 22 24  2  0  0  0  0
 24 23  1  0  0  0  0
 24 20  1  0  0  0  0
 24 25  1  0  0  0  0
 26  3  1  0  0  0  0
 28 31  1  0  0  0  0
 28 27  1  0  0  0  0
 29 30  1  0  0  0  0
 29 33  2  0  0  0  0
 30 31  2  0  0  0  0
 32 30  1  0  0  0  0
 33 34  2  0  0  0  0
 34 26  1  0  0  0  0
 34 27  1  0  0  0  0
 35 36  1  0  0  0  0
 36 38  1  0  0  0  0
 37 40  1  0  0  0  0
 38 37  1  0  0  0  0
 38 41  1  0  0  0  0
 39 37  2  0  0  0  0
 41 42  1  0  0  0  0
 42 43  1  6  0  0  0
 45 44  1  1  0  0  0
 45 46  1  0  0  0  0
 45 42  1  0  0  0  0
 46 47  1  1  0  0  0
 48 46  1  0  0  0  0
 50 49  1  6  0  0  0
 50 51  2  0  0  0  0
 50 48  1  0  0  0  0
 52 56  1  6  0  0  0
 52 50  1  0  0  0  0
 52 53  1  0  0  0  0
 53 54  1  0  0  0  0
 55 53  2  0  0  0  0
 58 57  2  6  0  0  0
 58 56  1  0  0  0  0
 59 60  1  0  0  0  0
 60 58  1  0  0  0  0
M  END
>  <MODEL>
5

>  <REMARK>
 VINA RESULT:      -5.0      4.193      7.520
  Name = 
  24 active torsions:
  status: ('A' for Active; 'I' for Inactive)
    1  A    between atoms: C_4  and  C_10
    2  A    between atoms: C_4  and  C_29
    3  A    between atoms: C_6  and  C_56
    4  A    between atoms: O_8  and  C_33
    5  A    between atoms: O_8  and  P_51
    6  A    between atoms: C_10  and  C_48
    7  A    between atoms: C_12  and  N_35
    8  A    between atoms: C_12  and  C_60
    9  A    between atoms: C_13  and  S_22
   10  A    between atoms: C_14  and  C_45
   11  A    between atoms: C_19  and  C_30
   12  A    between atoms: C_19  and  C_53
   13  A    between atoms: C_20  and  C_60
   14  A    between atoms: P_24  and  O_25
   15  A    between atoms: O_25  and  C_56
   16  A    between atoms: C_26  and  C_32
   17  A    between atoms: C_26  and  O_47
   18  A    between atoms: C_27  and  C_40
   19  A    between atoms: C_29  and  P_38
   20  A    between atoms: C_30  and  C_33
   21  A    between atoms: N_35  and  C_53
   22  A    between atoms: C_40  and  C_55
   23  A    between atoms: O_47  and  C_48
   24  A    between atoms: P_51  and  C_56
                            x       y       z     vdW  Elec       q    Type
                         _______ _______ _______ _____ _____    ______ ____

>  <TORSDO>
F 24

$$$$
=
 OpenBabel10232409083D

 60 62  0  0  1  0  0  0  0  0999 V2000
  189.3570  175.9780  137.8290 C   0  0  0  0  0  3  0  0  0  0  0  0
  188.3450  176.8130  138.2980 C   0  0  0  0  0  0  0  0  0  0  0  0
  188.0420  175.4620  135.8440 C   0  0  0  0  0  0  0  0  0  0  0  0
  187.1860  176.9850  137.5340 C   0  0  0  0  0  3  0  0  0  0  0  0
  187.0160  176.3080  136.3190 C   0  0  0  0  0  0  0  0  0  0  0  0
  189.2200  175.2930  136.6100 C   0  0  0  0  0  0  0  0  0  0  0  0
  190.3110  174.4350  136.1130 C   0  0  0  0  0  2  0  0  0  0  0  0
  191.8270  174.5160  136.6630 S   0  0  0  0  0  0  0  0  0  0  0  0
  194.2120  172.5870  134.3520 C   0  0  0  0  0  2  0  0  0  0  0  0
  193.9180  173.6690  135.0980 N   0  0  0  0  0  0  0  0  0  0  0  0
  192.6950  173.4090  135.5890 C   0  0  0  0  0  0  0  0  0  0  0  0
  192.1980  172.2240  135.1990 N   0  0  0  0  0  0  0  0  0  0  0  0
  193.1580  171.7010  134.4140 C   0  0  0  0  0  3  0  0  0  0  0  0
  185.9470  177.4340  134.3710 C   0  0  0  0  0  1  0  0  0  0  0  0
  185.7360  176.4880  135.5440 C   0  0  2  0  0  3  0  0  0  0  0  0
  184.7270  176.9750  136.3770 O   0  0  0  0  0  0  0  0  0  0  0  0
  183.5400  176.4590  135.8560 C   0  0  0  0  0  2  0  0  0  0  0  0
  182.8900  175.5180  136.8610 C   0  0  0  0  0  2  0  0  0  0  0  0
  183.1070  175.9770  138.2960 C   0  0  0  0  0  2  0  0  0  0  0  0
  181.8570  176.6340  138.8620 C   0  0  1  0  0  3  0  0  0  0  0  0
  181.3510  175.8650  139.8940 F   0  0  0  0  0  0  0  0  0  0  0  0
  182.4420  178.2240  141.1770 O   0  0  0  0  0  1  0  0  0  0  0  0
  183.7120  178.8060  138.7950 O   0  0  0  0  0  0  0  0  0  0  0  0
  182.2630  178.2850  139.4940 P   0  0  0  0  0  0  0  0  0  0  0  0
  181.1590  179.2520  139.1400 O   0  0  0  0  0  1  0  0  0  0  0  0
  187.8960  174.7730  134.5130 C   0  0  0  0  0  2  0  0  0  0  0  0
  187.9250  172.2550  135.1940 C   0  0  0  0  0  2  0  0  0  0  0  0
  187.1860  170.9360  134.8470 C   0  0  0  0  0  2  0  0  0  0  0  0
  184.7630  172.8930  135.0830 C   0  0  0  0  0  3  0  0  0  0  0  0
  184.7880  171.5150  135.6230 C   0  0  0  0  0  0  0  0  0  0  0  0
  185.8650  170.6960  135.5740 C   0  0  0  0  0  3  0  0  0  0  0  0
  183.5640  171.0160  136.3060 C   0  0  0  0  0  1  0  0  0  0  0  0
  185.9200  173.3940  134.8060 C   0  0  0  0  0  0  0  0  0  0  0  0
  187.2020  173.4640  134.6730 C   0  0  0  0  0  0  0  0  0  0  0  0
  188.5750  177.6020  139.5480 C   0  0  0  0  0  2  0  0  0  0  0  0
  190.0340  178.0150  139.7380 C   0  0  0  0  0  2  0  0  0  0  0  0
  192.0270  177.2810  141.0620 C   0  0  0  0  0  0  0  0  0  0  0  0
  190.6040  177.4020  140.9370 N   0  0  0  0  0  0  0  0  0  0  0  0
  192.8610  177.7590  140.0570 O   0  0  0  0  0  0  0  0  0  0  0  0
  192.5350  176.7330  142.0780 O   0  0  0  0  0  1  0  0  0  0  0  0
  189.7220  176.9230  141.9990 C   0  0  0  0  0  2  0  0  0  0  0  0
  189.4510  177.9850  143.0640 C   0  0  2  0  0  3  0  0  0  0  0  0
  189.0310  179.1930  142.4930 O   0  0  0  0  0  1  0  0  0  0  0  0
  191.0910  179.5040  143.9810 O   0  0  0  0  0  1  0  0  0  0  0  0
  190.6360  178.1840  144.0120 C   0  0  1  0  0  3  0  0  0  0  0  0
  190.2920  177.7770  145.4430 C   0  0  2  0  0  3  0  0  0  0  0  0
  191.3990  177.1780  146.0470 O   0  0  0  0  0  1  0  0  0  0  0  0
  189.2020  176.8990  145.4580 O   0  0  0  0  0  0  0  0  0  0  0  0
  189.0260  178.6880  147.6810 C   0  0  0  0  0  1  0  0  0  0  0  0
  188.1820  177.4110  146.7140 P   0  0  2  0  0  0  0  0  0  0  0  0
  187.8950  176.2350  147.6140 O   0  0  0  0  0  0  0  0  0  0  0  0
  186.6070  178.0930  146.0630 C   0  0  1  0  0  3  0  0  0  0  0  0
  185.7120  178.7600  147.0740 C   0  0  0  0  0  0  0  0  0  0  0  0
  186.0140  179.8800  147.5610 O   0  0  0  0  0  1  0  0  0  0  0  0
  184.5180  178.1500  147.4380 O   0  0  0  0  0  0  0  0  0  0  0  0
  186.7130  178.7360  144.8070 O   0  0  0  0  0  0  0  0  0  0  0  0
  185.6920  177.9740  142.3810 O   0  0  0  0  0  0  0  0  0  0  0  0
  185.3840  178.3300  143.8170 P   0  0  2  0  0  4  0  0  0  0  0  0
  184.3800  179.7220  143.7860 O   0  0  0  0  0  1  0  0  0  0  0  0
  183.7660  178.7020  144.2390 O   0  0  0  0  0  0  0  0  0  0  0  0
  1  2  1  0  0  0  0
  2 35  1  0  0  0  0
  3  5  2  0  0  0  0
  3  6  1  0  0  0  0
  4  2  2  0  0  0  0
  5  4  1  0  0  0  0
  6  1  2  0  0  0  0
  7  6  1  0  0  0  0
  7  8  1  0  0  0  0
  9 13  1  0  0  0  0
  9 10  1  0  0  0  0
 10 11  2  0  0  0  0
 11  8  1  0  0  0  0
 12 11  1  0  0  0  0
 13 12  2  0  0  0  0
 15 14  1  6  0  0  0
 15  5  1  0  0  0  0
 15 16  1  0  0  0  0
 17 16  1  0  0  0  0
 17 18  1  0  0  0  0
 18 19  1  0  0  0  0
 19 20  1  0  0  0  0
 20 24  1  0  0  0  0
 20 21  1  1  0  0  0
 23 24  2  0  0  0  0
 24 22  1  0  0  0  0
 25 24  1  0  0  0  0
 26 34  1  0  0  0  0
 26  3  1  0  0  0  0
 28 27  1  0  0  0  0
 28 31  1  0  0  0  0
 29 30  1  0  0  0  0
 30 32  1  0  0  0  0
 31 30  2  0  0  0  0
 33 29  2  0  0  0  0
 34 33  2  0  0  0  0
 34 27  1  0  0  0  0
 35 36  1  0  0  0  0
 36 38  1  0  0  0  0
 37 40  1  0  0  0  0
 38 37  1  0  0  0  0
 38 41  1  0  0  0  0
 39 37  2  0  0  0  0
 41 42  1  0  0  0  0
 42 43  1  6  0  0  0
 42 45  1  0  0  0  0
 45 44  1  1  0  0  0
 45 46  1  0  0  0  0
 46 48  1  0  0  0  0
 46 47  1  6  0  0  0
 48 50  1  0  0  0  0
 50 51  2  0  0  0  0
 50 49  1  1  0  0  0
 52 56  1  6  0  0  0
 52 50  1  0  0  0  0
 52 53  1  0  0  0  0
 53 55  2  0  0  0  0
 53 54  1  0  0  0  0
 58 57  2  6  0  0  0
 58 60  1  0  0  0  0
 58 56  1  0  0  0  0
 59 60  1  0  0  0  0
M  END
>  <MODEL>
6

>  <REMARK>
 VINA RESULT:      -4.9      3.684      6.855
  Name = 
  24 active torsions:
  status: ('A' for Active; 'I' for Inactive)
    1  A    between atoms: C_4  and  C_10
    2  A    between atoms: C_4  and  C_29
    3  A    between atoms: C_6  and  C_56
    4  A    between atoms: O_8  and  C_33
    5  A    between atoms: O_8  and  P_51
    6  A    between atoms: C_10  and  C_48
    7  A    between atoms: C_12  and  N_35
    8  A    between atoms: C_12  and  C_60
    9  A    between atoms: C_13  and  S_22
   10  A    between atoms: C_14  and  C_45
   11  A    between atoms: C_19  and  C_30
   12  A    between atoms: C_19  and  C_53
   13  A    between atoms: C_20  and  C_60
   14  A    between atoms: P_24  and  O_25
   15  A    between atoms: O_25  and  C_56
   16  A    between atoms: C_26  and  C_32
   17  A    between atoms: C_26  and  O_47
   18  A    between atoms: C_27  and  C_40
   19  A    between atoms: C_29  and  P_38
   20  A    between atoms: C_30  and  C_33
   21  A    between atoms: N_35  and  C_53
   22  A    between atoms: C_40  and  C_55
   23  A    between atoms: O_47  and  C_48
   24  A    between atoms: P_51  and  C_56
                            x       y       z     vdW  Elec       q    Type
                         _______ _______ _______ _____ _____    ______ ____

>  <TORSDO>
F 24

$$$$
=
 OpenBabel10232409083D

 60 62  0  0  1  0  0  0  0  0999 V2000
  189.7830  176.6600  138.8090 C   0  0  0  0  0  3  0  0  0  0  0  0
  188.5820  177.3360  139.0170 C   0  0  0  0  0  0  0  0  0  0  0  0
  189.1780  176.2560  136.4840 C   0  0  0  0  0  0  0  0  0  0  0  0
  187.6850  177.4860  137.9540 C   0  0  0  0  0  3  0  0  0  0  0  0
  187.9620  176.9420  136.6930 C   0  0  0  0  0  0  0  0  0  0  0  0
  190.0930  176.1110  137.5540 C   0  0  0  0  0  0  0  0  0  0  0  0
  191.3790  175.4220  137.3420 C   0  0  0  0  0  2  0  0  0  0  0  0
  192.8140  176.1220  137.5840 S   0  0  0  0  0  0  0  0  0  0  0  0
  195.6910  174.0060  136.1730 C   0  0  0  0  0  2  0  0  0  0  0  0
  195.1480  175.2030  136.4680 N   0  0  0  0  0  0  0  0  0  0  0  0
  193.9530  174.8990  137.0010 C   0  0  0  0  0  0  0  0  0  0  0  0
  193.7080  173.5800  137.0640 N   0  0  0  0  0  0  0  0  0  0  0  0
  194.8090  173.0110  136.5380 C   0  0  0  0  0  3  0  0  0  0  0  0
  187.4710  178.0290  134.5070 C   0  0  0  0  0  1  0  0  0  0  0  0
  186.9520  177.0890  135.5850 C   0  0  2  0  0  3  0  0  0  0  0  0
  185.7390  177.5630  136.0910 O   0  0  0  0  0  0  0  0  0  0  0  0
  184.7870  176.6210  135.7030 C   0  0  0  0  0  2  0  0  0  0  0  0
  183.8870  176.2690  136.8790 C   0  0  0  0  0  2  0  0  0  0  0  0
  183.8150  174.7660  137.1130 C   0  0  0  0  0  2  0  0  0  0  0  0
  182.7410  174.4150  138.1320 C   0  0  1  0  0  3  0  0  0  0  0  0
  182.6560  175.4140  139.0840 F   0  0  0  0  0  0  0  0  0  0  0  0
  181.3770  173.9400  135.6530 O   0  0  0  0  0  0  0  0  0  0  0  0
  180.2840  172.9640  137.9930 O   0  0  0  0  0  1  0  0  0  0  0  0
  181.1370  174.2490  137.3010 P   0  0  0  0  0  0  0  0  0  0  0  0
  180.3450  175.5240  137.4640 O   0  0  0  0  0  1  0  0  0  0  0  0
  189.5130  175.7150  135.1190 C   0  0  0  0  0  2  0  0  0  0  0  0
  189.7660  173.1440  135.4810 C   0  0  0  0  0  2  0  0  0  0  0  0
  189.3090  171.8150  134.8240 C   0  0  0  0  0  2  0  0  0  0  0  0
  186.6330  173.4250  134.7540 C   0  0  0  0  0  3  0  0  0  0  0  0
  186.7450  171.9950  135.1170 C   0  0  0  0  0  0  0  0  0  0  0  0
  187.9170  171.3210  135.2080 C   0  0  0  0  0  3  0  0  0  0  0  0
  185.4930  171.2630  135.4490 C   0  0  0  0  0  1  0  0  0  0  0  0
  187.7380  174.0900  134.8020 C   0  0  0  0  0  0  0  0  0  0  0  0
  188.9960  174.3260  134.9630 C   0  0  0  0  0  0  0  0  0  0  0  0
  188.3380  177.9930  140.3390 C   0  0  0  0  0  2  0  0  0  0  0  0
  189.5970  178.6160  140.9420 C   0  0  0  0  0  2  0  0  0  0  0  0
  191.5840  177.2580  141.6230 C   0  0  0  0  0  0  0  0  0  0  0  0
  190.2440  177.6970  141.8760 N   0  0  0  0  0  0  0  0  0  0  0  0
  192.2720  177.7160  140.5040 O   0  0  0  0  0  0  0  0  0  0  0  0
  192.1500  176.4460  142.4050 O   0  0  0  0  0  1  0  0  0  0  0  0
  189.5230  177.2370  143.0620 C   0  0  0  0  0  2  0  0  0  0  0  0
  189.9230  177.9970  144.3260 C   0  0  2  0  0  3  0  0  0  0  0  0
  190.4920  179.2400  144.0230 O   0  0  0  0  0  1  0  0  0  0  0  0
  192.1210  177.6740  145.2760 O   0  0  0  0  0  1  0  0  0  0  0  0
  190.8190  177.1700  145.2520 C   0  0  1  0  0  3  0  0  0  0  0  0
  190.2540  177.0950  146.6680 C   0  0  2  0  0  3  0  0  0  0  0  0
  191.1320  176.3900  147.4940 O   0  0  0  0  0  1  0  0  0  0  0  0
  188.9970  176.4810  146.6670 O   0  0  0  0  0  0  0  0  0  0  0  0
  188.8360  179.0420  147.9290 C   0  0  0  0  0  1  0  0  0  0  0  0
  187.9370  177.5410  147.4620 P   0  0  2  0  0  0  0  0  0  0  0  0
  187.4340  176.8710  148.7170 O   0  0  0  0  0  0  0  0  0  0  0  0
  186.5180  177.9990  146.3930 C   0  0  1  0  0  3  0  0  0  0  0  0
  185.3840  178.7150  147.0760 C   0  0  0  0  0  0  0  0  0  0  0  0
  184.2460  178.1860  147.1610 O   0  0  0  0  0  0  0  0  0  0  0  0
  185.6100  179.9570  147.6590 O   0  0  0  0  0  1  0  0  0  0  0  0
  186.8730  178.4810  145.1100 O   0  0  0  0  0  0  0  0  0  0  0  0
  185.9150  177.6980  142.6640 O   0  0  0  0  0  0  0  0  0  0  0  0
  185.5770  178.2770  144.0190 P   0  0  2  0  0  4  0  0  0  0  0  0
  184.9390  179.8480  143.7500 O   0  0  0  0  0  1  0  0  0  0  0  0
  184.0630  179.0530  144.2230 O   0  0  0  0  0  0  0  0  0  0  0  0
  1  2  1  0  0  0  0
  2 35  1  0  0  0  0
  3  5  2  0  0  0  0
  3  6  1  0  0  0  0
  4  2  2  0  0  0  0
  5  4  1  0  0  0  0
  6  1  2  0  0  0  0
  7  6  1  0  0  0  0
  7  8  1  0  0  0  0
  9 10  1  0  0  0  0
  9 13  1  0  0  0  0
 10 11  2  0  0  0  0
 11 12  1  0  0  0  0
 11  8  1  0  0  0  0
 13 12  2  0  0  0  0
 15 14  1  6  0  0  0
 15 16  1  0  0  0  0
 15  5  1  0  0  0  0
 17 16  1  0  0  0  0
 17 18  1  0  0  0  0
 18 19  1  0  0  0  0
 19 20  1  0  0  0  0
 20 21  1  1  0  0  0
 22 24  2  0  0  0  0
 24 25  1  0  0  0  0
 24 23  1  0  0  0  0
 24 20  1  0  0  0  0
 26  3  1  0  0  0  0
 28 31  1  0  0  0  0
 28 27  1  0  0  0  0
 29 33  2  0  0  0  0
 29 30  1  0  0  0  0
 30 31  2  0  0  0  0
 30 32  1  0  0  0  0
 33 34  2  0  0  0  0
 34 26  1  0  0  0  0
 34 27  1  0  0  0  0
 35 36  1  0  0  0  0
 36 38  1  0  0  0  0
 37 38  1  0  0  0  0
 37 40  1  0  0  0  0
 38 41  1  0  0  0  0
 39 37  2  0  0  0  0
 41 42  1  0  0  0  0
 42 43  1  6  0  0  0
 42 45  1  0  0  0  0
 45 44  1  1  0  0  0
 45 46  1  0  0  0  0
 46 47  1  1  0  0  0
 48 46  1  0  0  0  0
 48 50  1  0  0  0  0
 50 49  1  1  0  0  0
 50 51  2  0  0  0  0
 52 56  1  6  0  0  0
 52 53  1  0  0  0  0
 52 50  1  0  0  0  0
 53 54  2  0  0  0  0
 53 55  1  0  0  0  0
 58 57  2  6  0  0  0
 58 60  1  0  0  0  0
 58 56  1  0  0  0  0
 59 60  1  0  0  0  0
M  END
>  <MODEL>
7

>  <REMARK>
 VINA RESULT:      -4.7      3.698      6.851
  Name = 
  24 active torsions:
  status: ('A' for Active; 'I' for Inactive)
    1  A    between atoms: C_4  and  C_10
    2  A    between atoms: C_4  and  C_29
    3  A    between atoms: C_6  and  C_56
    4  A    between atoms: O_8  and  C_33
    5  A    between atoms: O_8  and  P_51
    6  A    between atoms: C_10  and  C_48
    7  A    between atoms: C_12  and  N_35
    8  A    between atoms: C_12  and  C_60
    9  A    between atoms: C_13  and  S_22
   10  A    between atoms: C_14  and  C_45
   11  A    between atoms: C_19  and  C_30
   12  A    between atoms: C_19  and  C_53
   13  A    between atoms: C_20  and  C_60
   14  A    between atoms: P_24  and  O_25
   15  A    between atoms: O_25  and  C_56
   16  A    between atoms: C_26  and  C_32
   17  A    between atoms: C_26  and  O_47
   18  A    between atoms: C_27  and  C_40
   19  A    between atoms: C_29  and  P_38
   20  A    between atoms: C_30  and  C_33
   21  A    between atoms: N_35  and  C_53
   22  A    between atoms: C_40  and  C_55
   23  A    between atoms: O_47  and  C_48
   24  A    between atoms: P_51  and  C_56
                            x       y       z     vdW  Elec       q    Type
                         _______ _______ _______ _____ _____    ______ ____

>  <TORSDO>
F 24

$$$$
=
 OpenBabel10232409083D

 60 62  0  0  1  0  0  0  0  0999 V2000
  191.4380  177.0140  138.9240 C   0  0  0  0  0  3  0  0  0  0  0  0
  190.3130  177.5450  139.5520 C   0  0  0  0  0  0  0  0  0  0  0  0
  190.1760  176.7210  136.8610 C   0  0  0  0  0  0  0  0  0  0  0  0
  189.1220  177.6790  138.8300 C   0  0  0  0  0  3  0  0  0  0  0  0
  189.0360  177.2600  137.4960 C   0  0  0  0  0  0  0  0  0  0  0  0
  191.3850  176.5930  137.5850 C   0  0  0  0  0  0  0  0  0  0  0  0
  192.5900  176.0580  136.9270 C   0  0  0  0  0  2  0  0  0  0  0  0
  193.7810  175.3110  137.7200 S   0  0  0  0  0  0  0  0  0  0  0  0
  196.8220  175.2070  135.3770 C   0  0  0  0  0  2  0  0  0  0  0  0
  196.2110  175.6580  136.4890 N   0  0  0  0  0  0  0  0  0  0  0  0
  195.0040  175.0700  136.4630 C   0  0  0  0  0  0  0  0  0  0  0  0
  194.8140  174.2720  135.4000 N   0  0  0  0  0  0  0  0  0  0  0  0
  195.9660  174.3570  134.7090 C   0  0  0  0  0  3  0  0  0  0  0  0
  187.4340  178.8370  136.4220 C   0  0  0  0  0  1  0  0  0  0  0  0
  187.7240  177.3830  136.7640 C   0  0  2  0  0  3  0  0  0  0  0  0
  186.6850  176.8560  137.5350 O   0  0  0  0  0  0  0  0  0  0  0  0
  185.5820  177.6680  137.2690 C   0  0  0  0  0  2  0  0  0  0  0  0
  184.2960  176.8630  137.3920 C   0  0  0  0  0  2  0  0  0  0  0  0
  183.0600  177.7500  137.3250 C   0  0  0  0  0  2  0  0  0  0  0  0
  183.0390  178.7580  138.4640 C   0  0  1  0  0  3  0  0  0  0  0  0
  182.2740  179.8530  138.1050 F   0  0  0  0  0  0  0  0  0  0  0  0
  181.3360  179.1120  140.7450 O   0  0  0  0  0  1  0  0  0  0  0  0
  181.4020  176.6530  139.4900 O   0  0  0  0  0  0  0  0  0  0  0  0
  182.3260  177.9940  139.9470 P   0  0  0  0  0  0  0  0  0  0  0  0
  183.4330  177.5500  140.8730 O   0  0  0  0  0  1  0  0  0  0  0  0
  190.1120  176.3190  135.4110 C   0  0  0  0  0  2  0  0  0  0  0  0
  189.8370  173.8120  136.0800 C   0  0  0  0  0  2  0  0  0  0  0  0
  189.3460  172.4780  135.4600 C   0  0  0  0  0  2  0  0  0  0  0  0
  187.0770  174.4060  134.5150 C   0  0  0  0  0  3  0  0  0  0  0  0
  186.8570  173.0370  135.0340 C   0  0  0  0  0  0  0  0  0  0  0  0
  187.8400  172.2320  135.5030 C   0  0  0  0  0  3  0  0  0  0  0  0
  185.4580  172.5330  135.0880 C   0  0  0  0  0  1  0  0  0  0  0  0
  188.2300  174.9170  134.7910 C   0  0  0  0  0  0  0  0  0  0  0  0
  189.4280  175.0030  135.2600 C   0  0  0  0  0  0  0  0  0  0  0  0
  190.4410  178.0750  140.9450 C   0  0  0  0  0  2  0  0  0  0  0  0
  191.2830  177.1800  141.8530 C   0  0  0  0  0  2  0  0  0  0  0  0
  189.3400  176.1840  143.0750 C   0  0  0  0  0  0  0  0  0  0  0  0
  190.5850  176.8930  143.1050 N   0  0  0  0  0  0  0  0  0  0  0  0
  188.8070  175.7560  141.8640 O   0  0  0  0  0  0  0  0  0  0  0  0
  188.7120  175.9490  144.1440 O   0  0  0  0  0  1  0  0  0  0  0  0
  191.1630  177.3260  144.3760 C   0  0  0  0  0  2  0  0  0  0  0  0
  191.9870  176.2320  145.0520 C   0  0  2  0  0  3  0  0  0  0  0  0
  192.1990  175.1430  144.1980 O   0  0  0  0  0  1  0  0  0  0  0  0
  192.3980  175.3790  147.2760 O   0  0  0  0  0  1  0  0  0  0  0  0
  191.3970  175.7950  146.3960 C   0  0  1  0  0  3  0  0  0  0  0  0
  190.5590  176.9010  147.0320 C   0  0  2  0  0  3  0  0  0  0  0  0
  191.1340  177.2980  148.2410 O   0  0  0  0  0  1  0  0  0  0  0  0
  189.2460  176.4660  147.2450 O   0  0  0  0  0  0  0  0  0  0  0  0
  189.3790  179.3150  147.4500 C   0  0  0  0  0  1  0  0  0  0  0  0
  188.3260  177.8490  147.5930 P   0  0  2  0  0  0  0  0  0  0  0  0
  187.8250  177.7520  149.0130 O   0  0  0  0  0  0  0  0  0  0  0  0
  186.9050  178.0160  146.4440 C   0  0  1  0  0  3  0  0  0  0  0  0
  185.6520  178.6130  147.0300 C   0  0  0  0  0  0  0  0  0  0  0  0
  184.6600  177.8900  147.3000 O   0  0  0  0  0  0  0  0  0  0  0  0
  185.6120  179.9730  147.3160 O   0  0  0  0  0  1  0  0  0  0  0  0
  187.2440  178.4430  145.1390 O   0  0  0  0  0  0  0  0  0  0  0  0
  186.2880  177.6670  142.6900 O   0  0  0  0  0  0  0  0  0  0  0  0
  185.9410  178.1790  144.0700 P   0  0  2  0  0  4  0  0  0  0  0  0
  185.1870  179.7080  143.8630 O   0  0  0  0  0  1  0  0  0  0  0  0
  184.3810  178.8380  144.3290 O   0  0  0  0  0  0  0  0  0  0  0  0
  1  2  1  0  0  0  0
  2 35  1  0  0  0  0
  3  5  2  0  0  0  0
  3  6  1  0  0  0  0
  4  2  2  0  0  0  0
  5  4  1  0  0  0  0
  6  1  2  0  0  0  0
  7  6  1  0  0  0  0
  7  8  1  0  0  0  0
  9 10  1  0  0  0  0
 11 10  2  0  0  0  0
 11  8  1  0  0  0  0
 12 11  1  0  0  0  0
 13  9  1  0  0  0  0
 13 12  2  0  0  0  0
 15 14  1  1  0  0  0
 15  5  1  0  0  0  0
 15 16  1  0  0  0  0
 17 18  1  0  0  0  0
 17 16  1  0  0  0  0
 19 18  1  0  0  0  0
 19 20  1  0  0  0  0
 20 21  1  6  0  0  0
 20 24  1  0  0  0  0
 23 24  2  0  0  0  0
 24 22  1  0  0  0  0
 24 25  1  0  0  0  0
 26  3  1  0  0  0  0
 28 31  1  0  0  0  0
 28 27  1  0  0  0  0
 29 33  2  0  0  0  0
 29 30  1  0  0  0  0
 30 32  1  0  0  0  0
 30 31  2  0  0  0  0
 33 34  2  0  0  0  0
 34 26  1  0  0  0  0
 34 27  1  0  0  0  0
 35 36  1  0  0  0  0
 36 38  1  0  0  0  0
 37 38  1  0  0  0  0
 37 40  1  0  0  0  0
 38 41  1  0  0  0  0
 39 37  2  0  0  0  0
 41 42  1  0  0  0  0
 42 43  1  6  0  0  0
 42 45  1  0  0  0  0
 45 46  1  0  0  0  0
 45 44  1  1  0  0  0
 46 48  1  0  0  0  0
 46 47  1  1  0  0  0
 48 50  1  0  0  0  0
 50 49  1  6  0  0  0
 50 51  2  0  0  0  0
 52 56  1  6  0  0  0
 52 53  1  0  0  0  0
 52 50  1  0  0  0  0
 53 54  2  0  0  0  0
 53 55  1  0  0  0  0
 58 57  2  6  0  0  0
 58 60  1  0  0  0  0
 58 56  1  0  0  0  0
 59 60  1  0  0  0  0
M  END
>  <MODEL>
8

>  <REMARK>
 VINA RESULT:      -4.4      4.074      7.258
  Name = 
  24 active torsions:
  status: ('A' for Active; 'I' for Inactive)
    1  A    between atoms: C_4  and  C_10
    2  A    between atoms: C_4  and  C_29
    3  A    between atoms: C_6  and  C_56
    4  A    between atoms: O_8  and  C_33
    5  A    between atoms: O_8  and  P_51
    6  A    between atoms: C_10  and  C_48
    7  A    between atoms: C_12  and  N_35
    8  A    between atoms: C_12  and  C_60
    9  A    between atoms: C_13  and  S_22
   10  A    between atoms: C_14  and  C_45
   11  A    between atoms: C_19  and  C_30
   12  A    between atoms: C_19  and  C_53
   13  A    between atoms: C_20  and  C_60
   14  A    between atoms: P_24  and  O_25
   15  A    between atoms: O_25  and  C_56
   16  A    between atoms: C_26  and  C_32
   17  A    between atoms: C_26  and  O_47
   18  A    between atoms: C_27  and  C_40
   19  A    between atoms: C_29  and  P_38
   20  A    between atoms: C_30  and  C_33
   21  A    between atoms: N_35  and  C_53
   22  A    between atoms: C_40  and  C_55
   23  A    between atoms: O_47  and  C_48
   24  A    between atoms: P_51  and  C_56
                            x       y       z     vdW  Elec       q    Type
                         _______ _______ _______ _____ _____    ______ ____

>  <TORSDO>
F 24

$$$$
=
 OpenBabel10232409083D

 60 62  0  0  1  0  0  0  0  0999 V2000
  187.2830  178.2370  139.3360 C   0  0  0  0  0  3  0  0  0  0  0  0
  188.6080  177.8530  139.1380 C   0  0  0  0  0  0  0  0  0  0  0  0
  186.6940  177.4290  137.1140 C   0  0  0  0  0  0  0  0  0  0  0  0
  188.9750  177.2430  137.9330 C   0  0  0  0  0  3  0  0  0  0  0  0
  188.0360  177.0390  136.9130 C   0  0  0  0  0  0  0  0  0  0  0  0
  186.3180  178.0370  138.3350 C   0  0  0  0  0  0  0  0  0  0  0  0
  184.9150  178.4230  138.5690 C   0  0  0  0  0  2  0  0  0  0  0  0
  184.3700  178.9880  139.9800 S   0  0  0  0  0  0  0  0  0  0  0  0
  180.7510  179.4100  138.7660 C   0  0  0  0  0  2  0  0  0  0  0  0
  182.0780  179.4750  138.5480 N   0  0  0  0  0  0  0  0  0  0  0  0
  182.6230  179.0950  139.7150 C   0  0  0  0  0  0  0  0  0  0  0  0
  181.7190  178.7920  140.6600 N   0  0  0  0  0  0  0  0  0  0  0  0
  180.5300  178.9910  140.0610 C   0  0  0  0  0  3  0  0  0  0  0  0
  187.8950  177.1710  134.4300 C   0  0  0  0  0  1  0  0  0  0  0  0
  188.4790  176.4150  135.6140 C   0  0  2  0  0  3  0  0  0  0  0  0
  188.0970  175.0730  135.5630 O   0  0  0  0  0  0  0  0  0  0  0  0
  189.1930  174.3610  136.0490 C   0  0  0  0  0  2  0  0  0  0  0  0
  190.4640  174.8030  135.3370 C   0  0  0  0  0  2  0  0  0  0  0  0
  191.7060  174.5650  136.1850 C   0  0  0  0  0  2  0  0  0  0  0  0
  192.9700  174.9620  135.4390 C   0  0  1  0  0  3  0  0  0  0  0  0
  192.9890  176.3330  135.2490 F   0  0  0  0  0  0  0  0  0  0  0  0
  194.0220  173.2210  137.4610 O   0  0  0  0  0  1  0  0  0  0  0  0
  195.6380  173.9440  135.3430 O   0  0  0  0  0  0  0  0  0  0  0  0
  194.4290  174.4750  136.4000 P   0  0  0  0  0  0  0  0  0  0  0  0
  194.9370  175.6590  137.1890 O   0  0  0  0  0  1  0  0  0  0  0  0
  185.6650  177.1640  136.0470 C   0  0  0  0  0  2  0  0  0  0  0  0
  183.2370  176.2150  136.1350 C   0  0  0  0  0  2  0  0  0  0  0  0
  182.3490  175.3440  137.0630 C   0  0  0  0  0  2  0  0  0  0  0  0
  184.9930  173.6810  137.0920 C   0  0  0  0  0  3  0  0  0  0  0  0
  183.6360  173.1020  136.9860 C   0  0  0  0  0  0  0  0  0  0  0  0
  182.4980  173.8330  136.9080 C   0  0  0  0  0  3  0  0  0  0  0  0
  183.5180  171.6200  136.9120 C   0  0  0  0  0  1  0  0  0  0  0  0
  185.0740  174.9410  136.8210 C   0  0  0  0  0  0  0  0  0  0  0  0
  184.6910  176.1310  136.5010 C   0  0  0  0  0  0  0  0  0  0  0  0
  189.5790  177.9890  140.2670 C   0  0  0  0  0  2  0  0  0  0  0  0
  190.2990  176.6840  140.6030 C   0  0  0  0  0  2  0  0  0  0  0  0
  192.6220  177.1300  139.7880 C   0  0  0  0  0  0  0  0  0  0  0  0
  191.7150  176.9170  140.8770 N   0  0  0  0  0  0  0  0  0  0  0  0
  192.1540  177.1310  138.4780 O   0  0  0  0  0  0  0  0  0  0  0  0
  193.8510  177.3080  140.0040 O   0  0  0  0  0  1  0  0  0  0  0  0
  192.1960  176.9370  142.2580 C   0  0  0  0  0  2  0  0  0  0  0  0
  191.3740  177.8610  143.1550 C   0  0  2  0  0  3  0  0  0  0  0  0
  192.0430  179.0640  143.4070 O   0  0  0  0  0  1  0  0  0  0  0  0
  191.4100  177.8500  145.5710 O   0  0  0  0  0  1  0  0  0  0  0  0
  190.9230  177.1770  144.4490 C   0  0  1  0  0  3  0  0  0  0  0  0
  189.4030  177.0540  144.5250 C   0  0  2  0  0  3  0  0  0  0  0  0
  188.9600  176.0800  143.6280 O   0  0  0  0  0  1  0  0  0  0  0  0
  188.7930  178.2810  144.2410 O   0  0  0  0  0  0  0  0  0  0  0  0
  187.0500  176.1880  143.3720 C   0  0  0  0  0  1  0  0  0  0  0  0
  187.1870  177.9390  143.8130 P   0  0  2  0  0  0  0  0  0  0  0  0
  186.8200  178.7690  142.6080 O   0  0  0  0  0  0  0  0  0  0  0  0
  186.0330  178.3020  145.1920 C   0  0  1  0  0  3  0  0  0  0  0  0
  184.6100  178.6000  144.7980 C   0  0  0  0  0  0  0  0  0  0  0  0
  183.8260  179.1710  145.5990 O   0  0  0  0  0  1  0  0  0  0  0  0
  184.1740  178.2790  143.5180 O   0  0  0  0  0  0  0  0  0  0  0  0
  186.2020  177.4890  146.3380 O   0  0  0  0  0  0  0  0  0  0  0  0
  186.2730  179.8730  147.6880 O   0  0  0  0  0  0  0  0  0  0  0  0
  186.7220  178.4300  147.6630 P   0  0  2  0  0  4  0  0  0  0  0  0
  188.4370  178.4380  147.5870 O   0  0  0  0  0  1  0  0  0  0  0  0
  188.0120  177.9570  148.6870 O   0  0  0  0  0  0  0  0  0  0  0  0
  2  1  1  0  0  0  0
  2 35  1  0  0  0  0
  3  6  1  0  0  0  0
  4  2  2  0  0  0  0
  5  3  2  0  0  0  0
  5  4  1  0  0  0  0
  6  7  1  0  0  0  0
  6  1  2  0  0  0  0
  7  8  1  0  0  0  0
  9 13  1  0  0  0  0
 10  9  1  0  0  0  0
 10 11  2  0  0  0  0
 11  8  1  0  0  0  0
 11 12  1  0  0  0  0
 13 12  2  0  0  0  0
 15 14  1  6  0  0  0
 15  5  1  0  0  0  0
 16 15  1  0  0  0  0
 16 17  1  0  0  0  0
 18 17  1  0  0  0  0
 18 19  1  0  0  0  0
 20 21  1  1  0  0  0
 20 19  1  0  0  0  0
 20 24  1  0  0  0  0
 23 24  2  0  0  0  0
 24 25  1  0  0  0  0
 24 22  1  0  0  0  0
 26 34  1  0  0  0  0
 26  3  1  0  0  0  0
 27 34  1  0  0  0  0
 27 28  1  0  0  0  0
 30 29  1  0  0  0  0
 31 30  2  0  0  0  0
 31 28  1  0  0  0  0
 32 30  1  0  0  0  0
 33 29  2  0  0  0  0
 34 33  2  0  0  0  0
 35 36  1  0  0  0  0
 36 38  1  0  0  0  0
 37 40  1  0  0  0  0
 37 38  1  0  0  0  0
 38 41  1  0  0  0  0
 39 37  2  0  0  0  0
 41 42  1  0  0  0  0
 42 43  1  1  0  0  0
 42 45  1  0  0  0  0
 45 46  1  0  0  0  0
 45 44  1  1  0  0  0
 46 47  1  6  0  0  0
 48 46  1  0  0  0  0
 50 49  1  6  0  0  0
 50 48  1  0  0  0  0
 50 52  1  0  0  0  0
 51 50  2  0  0  0  0
 52 53  1  6  0  0  0
 52 56  1  0  0  0  0
 53 54  1  0  0  0  0
 55 53  2  0  0  0  0
 56 58  1  0  0  0  0
 58 57  2  6  0  0  0
 58 60  1  0  0  0  0
 59 60  1  0  0  0  0
M  END
>  <MODEL>
9

>  <REMARK>
 VINA RESULT:      -4.2      1.342      2.547
  Name = 
  24 active torsions:
  status: ('A' for Active; 'I' for Inactive)
    1  A    between atoms: C_4  and  C_10
    2  A    between atoms: C_4  and  C_29
    3  A    between atoms: C_6  and  C_56
    4  A    between atoms: O_8  and  C_33
    5  A    between atoms: O_8  and  P_51
    6  A    between atoms: C_10  and  C_48
    7  A    between atoms: C_12  and  N_35
    8  A    between atoms: C_12  and  C_60
    9  A    between atoms: C_13  and  S_22
   10  A    between atoms: C_14  and  C_45
   11  A    between atoms: C_19  and  C_30
   12  A    between atoms: C_19  and  C_53
   13  A    between atoms: C_20  and  C_60
   14  A    between atoms: P_24  and  O_25
   15  A    between atoms: O_25  and  C_56
   16  A    between atoms: C_26  and  C_32
   17  A    between atoms: C_26  and  O_47
   18  A    between atoms: C_27  and  C_40
   19  A    between atoms: C_29  and  P_38
   20  A    between atoms: C_30  and  C_33
   21  A    between atoms: N_35  and  C_53
   22  A    between atoms: C_40  and  C_55
   23  A    between atoms: O_47  and  C_48
   24  A    between atoms: P_51  and  C_56
                            x       y       z     vdW  Elec       q    Type
                         _______ _______ _______ _____ _____    ______ ____

>  <TORSDO>
F 24

$$$$
