=
 OpenBabel10232409563D

 34 39  0  0  1  0  0  0  0  0999 V2000
  189.7080  178.4210  137.9220 C   0  0  0  0  0  2  0  0  0  0  0  0
  189.1530  177.3200  137.0080 C   0  0  1  0  0  0  0  0  0  0  0  0
  188.8800  174.9300  136.6980 C   0  0  0  0  0  2  0  0  0  0  0  0
  186.8640  175.5520  135.3800 C   0  0  0  0  0  1  0  0  0  0  0  0
  189.3160  178.2410  139.3790 C   0  0  0  0  0  2  0  0  0  0  0  0
  189.8540  175.9760  137.2140 C   0  0  1  0  0  3  0  0  0  0  0  0
  187.6670  176.9930  137.2510 C   0  0  1  0  0  3  0  0  0  0  0  0
  187.4920  175.5600  136.7590 C   0  0  2  0  0  3  0  0  0  0  0  0
  189.3010  177.8140  135.5710 C   0  0  0  0  0  1  0  0  0  0  0  0
  187.8010  178.2030  139.4830 C   0  0  1  0  0  3  0  0  0  0  0  0
  187.2700  176.9910  138.7330 C   0  0  0  0  0  2  0  0  0  0  0  0
  185.3420  178.5460  143.7860 C   0  0  0  0  0  3  0  0  0  0  0  0
  185.6790  178.1380  145.2100 C   0  0  0  0  0  2  0  0  0  0  0  0
  187.3660  178.1810  140.9170 C   0  0  0  0  0  0  0  0  0  0  0  0
  187.5110  177.7440  143.0430 C   0  0  0  0  0  0  0  0  0  0  0  0
  188.1970  177.6350  141.9540 N   0  0  0  0  0  0  0  0  0  0  0  0
  186.1920  178.6160  141.3980 C   0  0  0  0  0  0  0  0  0  0  0  0
  187.9200  177.3210  144.3800 C   0  0  0  0  0  3  0  0  0  0  0  0
  186.2290  178.3410  142.8180 C   0  0  0  0  0  0  0  0  0  0  0  0
  187.0580  177.5090  145.3900 C   0  0  0  0  0  3  0  0  0  0  0  0
  184.0040  178.1810  140.4860 N   0  0  0  0  0  1  0  0  0  0  0  0
  185.0460  179.1830  140.6250 C   0  0  0  0  0  2  0  0  0  0  0  0
  192.3870  176.0630  137.1550 C   0  0  0  0  0  0  0  0  0  0  0  0
  192.4390  176.2950  138.3930 O   0  0  0  0  0  0  0  0  0  0  0  0
  191.1270  175.8790  136.5060 N   0  0  0  0  0  2  0  0  0  0  0  0
  196.8070  173.8580  136.7500 C   0  0  0  0  0  2  0  0  0  0  0  0
  193.6590  176.0240  136.3570 C   0  0  1  0  0  3  0  0  0  0  0  0
  195.9920  175.0760  136.3070 C   0  0  0  0  0  2  0  0  0  0  0  0
  193.2530  174.2890  134.3560 O   0  0  0  0  0  0  0  0  0  0  0  0
  194.0930  173.8030  137.6430 C   0  0  0  0  0  2  0  0  0  0  0  0
  194.5050  174.8900  136.6290 C   0  0  1  0  0  0  0  0  0  0  0  0
  196.4890  173.5200  138.1790 C   0  0  0  0  0  3  0  0  0  0  0  0
  195.2160  173.5000  138.5970 C   0  0  0  0  0  3  0  0  0  0  0  0
  193.6490  174.8430  135.3680 C   0  0  0  0  0  0  0  0  0  0  0  0
  1  5  1  0  0  0  0
  2  9  1  6  0  0  0
  2  6  1  0  0  0  0
  2  7  1  0  0  0  0
  2  1  1  0  0  0  0
  3  8  1  0  0  0  0
  3  6  1  0  0  0  0
  5 10  1  0  0  0  0
  6 25  1  6  0  0  0
  7 11  1  1  0  0  0
  8  4  1  6  0  0  0
  8  7  1  0  0  0  0
 10 14  1  1  0  0  0
 11 10  1  0  0  0  0
 12 13  1  0  0  0  0
 13 20  1  0  0  0  0
 14 17  2  0  0  0  0
 14 16  1  0  0  0  0
 15 18  1  0  0  0  0
 16 15  2  0  0  0  0
 17 19  1  0  0  0  0
 18 20  2  0  0  0  0
 19 15  1  0  0  0  0
 19 12  2  0  0  0  0
 21 22  1  0  0  0  0
 22 17  1  0  0  0  0
 23 24  2  0  0  0  0
 25 23  1  0  0  0  0
 26 32  1  0  0  0  0
 27 31  1  0  0  0  0
 27 23  1  1  0  0  0
 28 26  1  0  0  0  0
 29 34  2  0  0  0  0
 30 33  1  0  0  0  0
 31 28  1  6  0  0  0
 31 30  1  0  0  0  0
 32 33  2  0  0  0  0
 34 27  1  0  0  0  0
 34 31  1  0  0  0  0
M  END
>  <MODEL>
1

>  <REMARK>
 VINA RESULT:      -7.8      0.000      0.000
  Name = 
  4 active torsions:
  status: ('A' for Active; 'I' for Inactive)
    1  A    between atoms: C_3  and  C_14
    2  A    between atoms: C_6  and  C_27
    3  A    between atoms: C_17  and  N_29
    4  A    between atoms: C_24  and  C_28
                            x       y       z     vdW  Elec       q    Type
                         _______ _______ _______ _____ _____    ______ ____

>  <TORSDO>
F 4

$$$$
=
 OpenBabel10232409563D

 34 39  0  0  1  0  0  0  0  0999 V2000
  190.5070  177.6210  138.7610 C   0  0  0  0  0  2  0  0  0  0  0  0
  189.3140  177.4450  137.8110 C   0  0  1  0  0  0  0  0  0  0  0  0
  187.5270  175.9680  137.0990 C   0  0  0  0  0  2  0  0  0  0  0  0
  186.3350  178.0630  136.4840 C   0  0  0  0  0  1  0  0  0  0  0  0
  190.1790  177.2650  140.2020 C   0  0  0  0  0  2  0  0  0  0  0  0
  188.9760  175.9750  137.5570 C   0  0  1  0  0  3  0  0  0  0  0  0
  187.9940  178.0320  138.3470 C   0  0  1  0  0  3  0  0  0  0  0  0
  186.8960  177.2500  137.6340 C   0  0  2  0  0  3  0  0  0  0  0  0
  189.6640  178.1720  136.5140 C   0  0  0  0  0  1  0  0  0  0  0  0
  189.0190  178.1240  140.6720 C   0  0  1  0  0  3  0  0  0  0  0  0
  187.7810  177.8020  139.8480 C   0  0  0  0  0  2  0  0  0  0  0  0
  189.3360  177.6010  145.6020 C   0  0  0  0  0  3  0  0  0  0  0  0
  188.2970  177.4300  146.6970 C   0  0  0  0  0  2  0  0  0  0  0  0
  188.7610  177.9170  142.1340 C   0  0  0  0  0  0  0  0  0  0  0  0
  187.5700  177.6530  143.9350 C   0  0  0  0  0  0  0  0  0  0  0  0
  187.4290  177.7800  142.6580 N   0  0  0  0  0  0  0  0  0  0  0  0
  189.6850  177.8660  143.1050 C   0  0  0  0  0  0  0  0  0  0  0  0
  186.5040  177.4910  144.9200 C   0  0  0  0  0  3  0  0  0  0  0  0
  188.9440  177.6980  144.3360 C   0  0  0  0  0  0  0  0  0  0  0  0
  186.8510  177.3860  146.2110 C   0  0  0  0  0  3  0  0  0  0  0  0
  191.8340  176.7910  143.2890 N   0  0  0  0  0  1  0  0  0  0  0  0
  191.1620  178.0370  142.9640 C   0  0  0  0  0  2  0  0  0  0  0  0
  190.9490  174.5320  136.8840 C   0  0  0  0  0  0  0  0  0  0  0  0
  191.2210  174.2870  138.0900 O   0  0  0  0  0  0  0  0  0  0  0  0
  189.8300  175.3570  136.5480 N   0  0  0  0  0  2  0  0  0  0  0  0
  195.1350  175.3010  134.3460 C   0  0  0  0  0  2  0  0  0  0  0  0
  191.8340  173.9840  135.8020 C   0  0  1  0  0  3  0  0  0  0  0  0
  193.8260  174.5090  134.3520 C   0  0  0  0  0  2  0  0  0  0  0  0
  193.5440  172.3000  136.9930 O   0  0  0  0  0  0  0  0  0  0  0  0
  193.5610  175.7140  136.6950 C   0  0  0  0  0  2  0  0  0  0  0  0
  193.1320  174.6020  135.7160 C   0  0  1  0  0  0  0  0  0  0  0  0
  194.8950  176.6940  134.8590 C   0  0  0  0  0  3  0  0  0  0  0  0
  194.1510  176.8850  135.9570 C   0  0  0  0  0  3  0  0  0  0  0  0
  193.0430  173.2440  136.4050 C   0  0  0  0  0  0  0  0  0  0  0  0
  1  5  1  0  0  0  0
  2  9  1  6  0  0  0
  2  7  1  0  0  0  0
  2  1  1  0  0  0  0
  3  6  1  0  0  0  0
  3  8  1  0  0  0  0
  5 10  1  0  0  0  0
  6 25  1  6  0  0  0
  6  2  1  0  0  0  0
  7 11  1  1  0  0  0
  8  4  1  6  0  0  0
  8  7  1  0  0  0  0
 10 14  1  1  0  0  0
 11 10  1  0  0  0  0
 12 13  1  0  0  0  0
 14 16  1  0  0  0  0
 14 17  2  0  0  0  0
 15 19  1  0  0  0  0
 15 18  1  0  0  0  0
 16 15  2  0  0  0  0
 17 19  1  0  0  0  0
 18 20  2  0  0  0  0
 19 12  2  0  0  0  0
 20 13  1  0  0  0  0
 22 17  1  0  0  0  0
 22 21  1  0  0  0  0
 23 24  2  0  0  0  0
 25 23  1  0  0  0  0
 26 28  1  0  0  0  0
 26 32  1  0  0  0  0
 27 34  1  0  0  0  0
 27 23  1  1  0  0  0
 31 28  1  6  0  0  0
 31 27  1  0  0  0  0
 31 34  1  0  0  0  0
 31 30  1  0  0  0  0
 32 33  2  0  0  0  0
 33 30  1  0  0  0  0
 34 29  2  0  0  0  0
M  END
>  <MODEL>
2

>  <REMARK>
 VINA RESULT:      -7.7      1.912      3.038
  Name = 
  4 active torsions:
  status: ('A' for Active; 'I' for Inactive)
    1  A    between atoms: C_3  and  C_14
    2  A    between atoms: C_6  and  C_27
    3  A    between atoms: C_17  and  N_29
    4  A    between atoms: C_24  and  C_28
                            x       y       z     vdW  Elec       q    Type
                         _______ _______ _______ _____ _____    ______ ____

>  <TORSDO>
F 4

$$$$
=
 OpenBabel10232409563D

 34 39  0  0  1  0  0  0  0  0999 V2000
  184.5510  178.6700  139.3620 C   0  0  0  0  0  2  0  0  0  0  0  0
  183.0450  178.4230  139.5260 C   0  0  1  0  0  0  0  0  0  0  0  0
  181.3380  176.8020  140.1090 C   0  0  0  0  0  2  0  0  0  0  0  0
  179.9990  178.7830  140.7950 C   0  0  0  0  0  1  0  0  0  0  0  0
  185.3670  178.1850  140.5480 C   0  0  0  0  0  2  0  0  0  0  0  0
  182.6740  176.9440  139.4010 C   0  0  1  0  0  3  0  0  0  0  0  0
  182.4910  178.8190  140.9080 C   0  0  1  0  0  3  0  0  0  0  0  0
  181.2400  177.9660  141.0920 C   0  0  2  0  0  3  0  0  0  0  0  0
  182.3350  179.2690  138.4710 C   0  0  0  0  0  1  0  0  0  0  0  0
  184.8680  178.8730  141.8070 C   0  0  1  0  0  3  0  0  0  0  0  0
  183.4260  178.4660  142.0720 C   0  0  0  0  0  2  0  0  0  0  0  0
  186.8920  178.2770  146.3050 C   0  0  0  0  0  3  0  0  0  0  0  0
  188.1450  177.5710  146.7950 C   0  0  0  0  0  2  0  0  0  0  0  0
  185.7440  178.5410  142.9780 C   0  0  0  0  0  0  0  0  0  0  0  0
  187.4350  177.6550  144.0210 C   0  0  0  0  0  0  0  0  0  0  0  0
  186.9560  177.7830  142.8280 N   0  0  0  0  0  0  0  0  0  0  0  0
  185.5130  178.8620  144.2590 C   0  0  0  0  0  0  0  0  0  0  0  0
  188.6580  176.9530  144.4010 C   0  0  0  0  0  3  0  0  0  0  0  0
  186.6100  178.2870  145.0070 C   0  0  0  0  0  0  0  0  0  0  0  0
  188.9850  176.9180  145.7010 C   0  0  0  0  0  3  0  0  0  0  0  0
  183.7190  178.7860  145.8660 N   0  0  0  0  0  1  0  0  0  0  0  0
  184.3290  179.5830  144.8170 C   0  0  0  0  0  2  0  0  0  0  0  0
  183.2940  175.3750  137.5080 C   0  0  0  0  0  0  0  0  0  0  0  0
  184.0500  174.7090  138.2660 O   0  0  0  0  0  0  0  0  0  0  0  0
  182.5660  176.4960  138.0160 N   0  0  0  0  0  2  0  0  0  0  0  0
  182.7210  171.6000  134.3500 C   0  0  0  0  0  2  0  0  0  0  0  0
  183.1960  175.0080  136.0550 C   0  0  1  0  0  3  0  0  0  0  0  0
  183.1520  173.0640  134.4540 C   0  0  0  0  0  2  0  0  0  0  0  0
  180.6080  175.2060  135.3890 O   0  0  0  0  0  0  0  0  0  0  0  0
  182.3620  172.7130  136.9570 C   0  0  0  0  0  2  0  0  0  0  0  0
  182.7420  173.6650  135.8040 C   0  0  1  0  0  0  0  0  0  0  0  0
  183.1790  170.8420  135.5640 C   0  0  0  0  0  3  0  0  0  0  0  0
  183.0160  171.3690  136.7850 C   0  0  0  0  0  3  0  0  0  0  0  0
  181.7280  174.7920  135.6420 C   0  0  0  0  0  0  0  0  0  0  0  0
  1  2  1  0  0  0  0
  1  5  1  0  0  0  0
  2  9  1  6  0  0  0
  2  7  1  0  0  0  0
  3  8  1  0  0  0  0
  5 10  1  0  0  0  0
  6 25  1  6  0  0  0
  6  2  1  0  0  0  0
  6  3  1  0  0  0  0
  7  8  1  0  0  0  0
  7 11  1  1  0  0  0
  8  4  1  6  0  0  0
 10 11  1  0  0  0  0
 10 14  1  1  0  0  0
 12 13  1  0  0  0  0
 14 17  2  0  0  0  0
 15 18  1  0  0  0  0
 15 19  1  0  0  0  0
 16 14  1  0  0  0  0
 16 15  2  0  0  0  0
 17 22  1  0  0  0  0
 17 19  1  0  0  0  0
 18 20  2  0  0  0  0
 19 12  2  0  0  0  0
 20 13  1  0  0  0  0
 22 21  1  0  0  0  0
 23 25  1  0  0  0  0
 23 24  2  0  0  0  0
 26 28  1  0  0  0  0
 26 32  1  0  0  0  0
 27 23  1  1  0  0  0
 29 34  2  0  0  0  0
 31 28  1  6  0  0  0
 31 27  1  0  0  0  0
 31 30  1  0  0  0  0
 32 33  2  0  0  0  0
 33 30  1  0  0  0  0
 34 31  1  0  0  0  0
 34 27  1  0  0  0  0
M  END
>  <MODEL>
3

>  <REMARK>
 VINA RESULT:      -7.2      6.425      8.163
  Name = 
  4 active torsions:
  status: ('A' for Active; 'I' for Inactive)
    1  A    between atoms: C_3  and  C_14
    2  A    between atoms: C_6  and  C_27
    3  A    between atoms: C_17  and  N_29
    4  A    between atoms: C_24  and  C_28
                            x       y       z     vdW  Elec       q    Type
                         _______ _______ _______ _____ _____    ______ ____

>  <TORSDO>
F 4

$$$$
=
 OpenBabel10232409563D

 34 39  0  0  1  0  0  0  0  0999 V2000
  184.4500  178.7280  139.3320 C   0  0  0  0  0  2  0  0  0  0  0  0
  182.9510  178.6850  139.6600 C   0  0  1  0  0  0  0  0  0  0  0  0
  181.1200  177.3140  140.4640 C   0  0  0  0  0  2  0  0  0  0  0  0
  180.1340  179.4640  141.2320 C   0  0  0  0  0  1  0  0  0  0  0  0
  185.3190  178.1540  140.4380 C   0  0  0  0  0  2  0  0  0  0  0  0
  182.3790  177.2670  139.6150 C   0  0  1  0  0  3  0  0  0  0  0  0
  182.6060  179.1690  141.0810 C   0  0  1  0  0  3  0  0  0  0  0  0
  181.2820  178.4920  141.4190 C   0  0  2  0  0  3  0  0  0  0  0  0
  182.2480  179.6040  138.6630 C   0  0  0  0  0  1  0  0  0  0  0  0
  185.0530  178.9190  141.7230 C   0  0  1  0  0  3  0  0  0  0  0  0
  183.6080  178.7110  142.1490 C   0  0  0  0  0  2  0  0  0  0  0  0
  189.0050  177.6630  144.4600 C   0  0  0  0  0  3  0  0  0  0  0  0
  189.1830  177.3120  145.9270 C   0  0  0  0  0  2  0  0  0  0  0  0
  186.0000  178.4900  142.8040 C   0  0  0  0  0  0  0  0  0  0  0  0
  186.6180  177.9370  144.8150 C   0  0  0  0  0  0  0  0  0  0  0  0
  185.5560  178.2530  144.1500 N   0  0  0  0  0  0  0  0  0  0  0  0
  187.3220  178.3080  142.6760 C   0  0  0  0  0  0  0  0  0  0  0  0
  186.6940  177.6110  146.2360 C   0  0  0  0  0  3  0  0  0  0  0  0
  187.7920  177.9440  143.9950 C   0  0  0  0  0  0  0  0  0  0  0  0
  187.8970  177.3190  146.7500 C   0  0  0  0  0  3  0  0  0  0  0  0
  188.8250  177.2850  141.0930 N   0  0  0  0  0  1  0  0  0  0  0  0
  188.1560  178.5220  141.4560 C   0  0  0  0  0  2  0  0  0  0  0  0
  182.6150  175.6280  137.6950 C   0  0  0  0  0  0  0  0  0  0  0  0
  183.3890  174.8980  138.3730 O   0  0  0  0  0  0  0  0  0  0  0  0
  182.0640  176.8190  138.2620 N   0  0  0  0  0  2  0  0  0  0  0  0
  180.4140  172.2590  134.8030 C   0  0  0  0  0  2  0  0  0  0  0  0
  182.3110  175.2590  136.2720 C   0  0  1  0  0  3  0  0  0  0  0  0
  181.4080  173.4230  134.8030 C   0  0  0  0  0  2  0  0  0  0  0  0
  179.9990  176.4620  135.6480 O   0  0  0  0  0  0  0  0  0  0  0  0
  180.6580  173.5540  137.3390 C   0  0  0  0  0  2  0  0  0  0  0  0
  181.3390  174.2080  136.1180 C   0  0  1  0  0  0  0  0  0  0  0  0
  180.5800  171.4440  136.0550 C   0  0  0  0  0  3  0  0  0  0  0  0
  180.7000  172.0530  137.2420 C   0  0  0  0  0  3  0  0  0  0  0  0
  180.8640  175.6410  135.9050 C   0  0  0  0  0  0  0  0  0  0  0  0
  1  2  1  0  0  0  0
  1  5  1  0  0  0  0
  2  9  1  6  0  0  0
  2  7  1  0  0  0  0
  3  8  1  0  0  0  0
  5 10  1  0  0  0  0
  6 25  1  6  0  0  0
  6  2  1  0  0  0  0
  6  3  1  0  0  0  0
  7  8  1  0  0  0  0
  7 11  1  1  0  0  0
  8  4  1  6  0  0  0
 10 11  1  0  0  0  0
 10 14  1  1  0  0  0
 12 13  1  0  0  0  0
 13 20  1  0  0  0  0
 14 16  1  0  0  0  0
 15 18  1  0  0  0  0
 16 15  2  0  0  0  0
 17 14  2  0  0  0  0
 17 19  1  0  0  0  0
 18 20  2  0  0  0  0
 19 12  2  0  0  0  0
 19 15  1  0  0  0  0
 21 22  1  0  0  0  0
 22 17  1  0  0  0  0
 23 25  1  0  0  0  0
 23 24  2  0  0  0  0
 26 32  1  0  0  0  0
 27 23  1  1  0  0  0
 28 26  1  0  0  0  0
 29 34  2  0  0  0  0
 31 28  1  6  0  0  0
 31 27  1  0  0  0  0
 31 30  1  0  0  0  0
 32 33  2  0  0  0  0
 33 30  1  0  0  0  0
 34 31  1  0  0  0  0
 34 27  1  0  0  0  0
M  END
>  <MODEL>
4

>  <REMARK>
 VINA RESULT:      -6.9      5.955      8.937
  Name = 
  4 active torsions:
  status: ('A' for Active; 'I' for Inactive)
    1  A    between atoms: C_3  and  C_14
    2  A    between atoms: C_6  and  C_27
    3  A    between atoms: C_17  and  N_29
    4  A    between atoms: C_24  and  C_28
                            x       y       z     vdW  Elec       q    Type
                         _______ _______ _______ _____ _____    ______ ____

>  <TORSDO>
F 4

$$$$
=
 OpenBabel10232409563D

 34 39  0  0  1  0  0  0  0  0999 V2000
  190.4260  176.6920  139.3400 C   0  0  0  0  0  2  0  0  0  0  0  0
  189.4470  177.3180  138.3370 C   0  0  1  0  0  0  0  0  0  0  0  0
  187.2000  177.2470  137.4280 C   0  0  0  0  0  2  0  0  0  0  0  0
  187.5420  179.6680  136.9720 C   0  0  0  0  0  1  0  0  0  0  0  0
  189.8310  176.5250  140.7290 C   0  0  0  0  0  2  0  0  0  0  0  0
  188.3250  176.3600  137.9340 C   0  0  1  0  0  3  0  0  0  0  0  0
  188.6940  178.5480  138.8800 C   0  0  1  0  0  3  0  0  0  0  0  0
  187.4110  178.6200  138.0590 C   0  0  2  0  0  3  0  0  0  0  0  0
  190.2680  177.7610  137.1280 C   0  0  0  0  0  1  0  0  0  0  0  0
  189.3730  177.8800  141.2370 C   0  0  1  0  0  3  0  0  0  0  0  0
  188.2600  178.4090  140.3450 C   0  0  0  0  0  2  0  0  0  0  0  0
  189.0300  177.7150  146.1910 C   0  0  0  0  0  3  0  0  0  0  0  0
  187.8520  177.6530  147.1490 C   0  0  0  0  0  2  0  0  0  0  0  0
  188.9200  177.7890  142.6640 C   0  0  0  0  0  0  0  0  0  0  0  0
  187.4970  177.6890  144.3060 C   0  0  0  0  0  0  0  0  0  0  0  0
  187.5280  177.7250  143.0160 N   0  0  0  0  0  0  0  0  0  0  0  0
  189.7080  177.7860  143.7490 C   0  0  0  0  0  0  0  0  0  0  0  0
  186.3070  177.6270  145.1510 C   0  0  0  0  0  3  0  0  0  0  0  0
  188.8090  177.7290  144.8810 C   0  0  0  0  0  0  0  0  0  0  0  0
  186.4810  177.6100  146.4800 C   0  0  0  0  0  3  0  0  0  0  0  0
  191.5770  179.3080  143.7190 N   0  0  0  0  0  1  0  0  0  0  0  0
  191.1960  177.9080  143.7920 C   0  0  0  0  0  2  0  0  0  0  0  0
  187.8270  174.4490  136.3440 C   0  0  0  0  0  0  0  0  0  0  0  0
  186.6240  174.4100  136.7180 O   0  0  0  0  0  0  0  0  0  0  0  0
  188.7270  175.4100  136.9010 N   0  0  0  0  0  2  0  0  0  0  0  0
  191.8210  171.9800  134.7570 C   0  0  0  0  0  2  0  0  0  0  0  0
  188.3200  173.4490  135.3370 C   0  0  1  0  0  3  0  0  0  0  0  0
  190.3940  172.3880  134.3810 C   0  0  0  0  0  2  0  0  0  0  0  0
  187.9670  171.0280  136.4290 O   0  0  0  0  0  0  0  0  0  0  0  0
  190.4410  173.3640  136.8420 C   0  0  0  0  0  2  0  0  0  0  0  0
  189.6370  172.9310  135.5990 C   0  0  1  0  0  0  0  0  0  0  0  0
  192.4970  173.1010  135.4950 C   0  0  0  0  0  3  0  0  0  0  0  0
  191.8460  173.7520  136.4690 C   0  0  0  0  0  3  0  0  0  0  0  0
  188.4480  172.0510  135.9710 C   0  0  0  0  0  0  0  0  0  0  0  0
  1  5  1  0  0  0  0
  2  9  1  6  0  0  0
  2  7  1  0  0  0  0
  2  1  1  0  0  0  0
  3  6  1  0  0  0  0
  3  8  1  0  0  0  0
  5 10  1  0  0  0  0
  6 25  1  6  0  0  0
  6  2  1  0  0  0  0
  7 11  1  1  0  0  0
  8  4  1  6  0  0  0
  8  7  1  0  0  0  0
 10 14  1  1  0  0  0
 11 10  1  0  0  0  0
 12 13  1  0  0  0  0
 14 16  1  0  0  0  0
 14 17  2  0  0  0  0
 15 19  1  0  0  0  0
 15 18  1  0  0  0  0
 16 15  2  0  0  0  0
 17 22  1  0  0  0  0
 17 19  1  0  0  0  0
 18 20  2  0  0  0  0
 19 12  2  0  0  0  0
 20 13  1  0  0  0  0
 21 22  1  0  0  0  0
 23 24  2  0  0  0  0
 23 25  1  0  0  0  0
 26 32  1  0  0  0  0
 27 31  1  0  0  0  0
 27 34  1  0  0  0  0
 27 23  1  1  0  0  0
 28 26  1  0  0  0  0
 31 28  1  6  0  0  0
 31 34  1  0  0  0  0
 31 30  1  0  0  0  0
 32 33  2  0  0  0  0
 33 30  1  0  0  0  0
 34 29  2  0  0  0  0
M  END
>  <MODEL>
5

>  <REMARK>
 VINA RESULT:      -6.9      2.808      4.229
  Name = 
  4 active torsions:
  status: ('A' for Active; 'I' for Inactive)
    1  A    between atoms: C_3  and  C_14
    2  A    between atoms: C_6  and  C_27
    3  A    between atoms: C_17  and  N_29
    4  A    between atoms: C_24  and  C_28
                            x       y       z     vdW  Elec       q    Type
                         _______ _______ _______ _____ _____    ______ ____

>  <TORSDO>
F 4

$$$$
=
 OpenBabel10232409563D

 34 39  0  0  1  0  0  0  0  0999 V2000
  187.7210  178.9740  142.0800 C   0  0  0  0  0  2  0  0  0  0  0  0
  188.8900  178.0470  142.4390 C   0  0  1  0  0  0  0  0  0  0  0  0
  189.5820  175.7500  142.7910 C   0  0  0  0  0  2  0  0  0  0  0  0
  191.8320  176.5500  142.0960 C   0  0  0  0  0  1  0  0  0  0  0  0
  186.9520  178.5170  140.8510 C   0  0  0  0  0  2  0  0  0  0  0  0
  188.4230  176.7070  143.0110 C   0  0  1  0  0  3  0  0  0  0  0  0
  189.7610  177.6420  141.2350 C   0  0  1  0  0  3  0  0  0  0  0  0
  190.4050  176.3200  141.6400 C   0  0  2  0  0  3  0  0  0  0  0  0
  189.7730  178.8020  143.4290 C   0  0  0  0  0  1  0  0  0  0  0  0
  187.9090  178.4210  139.6760 C   0  0  1  0  0  3  0  0  0  0  0  0
  188.9570  177.3540  139.9600 C   0  0  0  0  0  2  0  0  0  0  0  0
  186.5170  177.5990  134.9780 C   0  0  0  0  0  3  0  0  0  0  0  0
  185.2120  177.1450  134.3470 C   0  0  0  0  0  3  0  0  0  0  0  0
  187.1680  178.1220  138.4080 C   0  0  0  0  0  0  0  0  0  0  0  0
  185.4830  177.5100  137.1750 C   0  0  0  0  0  0  0  0  0  0  0  0
  185.7900  177.7140  138.4130 N   0  0  0  0  0  2  0  0  0  0  0  0
  187.6700  178.1620  137.1650 C   0  0  0  0  0  0  0  0  0  0  0  0
  184.1910  177.0720  136.6550 C   0  0  0  0  0  3  0  0  0  0  0  0
  186.5880  177.7530  136.2960 C   0  0  0  0  0  0  0  0  0  0  0  0
  184.0710  176.9030  135.3310 C   0  0  0  0  0  3  0  0  0  0  0  0
  189.8490  177.2470  136.6890 N   0  0  0  0  0  1  0  0  0  0  0  0
  189.0740  178.4740  136.7610 C   0  0  0  0  0  2  0  0  0  0  0  0
  186.7740  177.1100  144.8940 C   0  0  0  0  0  0  0  0  0  0  0  0
  185.8430  177.3330  144.0730 O   0  0  0  0  0  0  0  0  0  0  0  0
  188.0840  176.7770  144.4290 N   0  0  0  0  0  2  0  0  0  0  0  0
  188.8260  178.2010  149.2710 C   0  0  0  0  0  2  0  0  0  0  0  0
  186.5060  177.2380  146.3660 C   0  0  1  0  0  3  0  0  0  0  0  0
  187.6090  177.5520  148.6090 C   0  0  0  0  0  2  0  0  0  0  0  0
  185.6770  179.7530  146.7760 O   0  0  0  0  0  0  0  0  0  0  0  0
  188.8190  178.4290  146.4220 C   0  0  0  0  0  2  0  0  0  0  0  0
  187.5500  177.8880  147.1140 C   0  0  1  0  0  0  0  0  0  0  0  0
  190.0680  177.8850  148.4850 C   0  0  0  0  0  3  0  0  0  0  0  0
  190.0600  177.9870  147.1490 C   0  0  0  0  0  3  0  0  0  0  0  0
  186.3180  178.7140  146.7620 C   0  0  0  0  0  0  0  0  0  0  0  0
  1  2  1  0  0  0  0
  2  6  1  0  0  0  0
  2  9  1  1  0  0  0
  3  6  1  0  0  0  0
  5  1  1  0  0  0  0
  6 25  1  1  0  0  0
  7 11  1  6  0  0  0
  7  8  1  0  0  0  0
  7  2  1  0  0  0  0
  8  4  1  1  0  0  0
  8  3  1  0  0  0  0
 10 14  1  6  0  0  0
 10 11  1  0  0  0  0
 10  5  1  0  0  0  0
 12 19  1  0  0  0  0
 13 12  2  0  0  0  0
 13 20  1  0  0  0  0
 14 16  1  0  0  0  0
 15 16  1  0  0  0  0
 17 14  2  0  0  0  0
 18 15  1  0  0  0  0
 19 17  1  0  0  0  0
 19 15  2  0  0  0  0
 20 18  2  0  0  0  0
 21 22  1  0  0  0  0
 22 17  1  0  0  0  0
 24 23  2  0  0  0  0
 25 23  1  0  0  0  0
 27 23  1  6  0  0  0
 27 34  1  0  0  0  0
 27 31  1  0  0  0  0
 28 26  1  0  0  0  0
 30 33  1  0  0  0  0
 31 30  1  6  0  0  0
 31 28  1  0  0  0  0
 32 26  1  0  0  0  0
 33 32  2  0  0  0  0
 34 29  2  0  0  0  0
 34 31  1  0  0  0  0
M  END
>  <MODEL>
6

>  <REMARK>
 VINA RESULT:      -6.7      4.398      9.073
  Name = 
  4 active torsions:
  status: ('A' for Active; 'I' for Inactive)
    1  A    between atoms: C_3  and  C_14
    2  A    between atoms: C_6  and  C_27
    3  A    between atoms: C_17  and  N_29
    4  A    between atoms: C_24  and  C_28
                            x       y       z     vdW  Elec       q    Type
                         _______ _______ _______ _____ _____    ______ ____

>  <TORSDO>
F 4

$$$$
=
 OpenBabel10232409563D

 34 39  0  0  1  0  0  0  0  0999 V2000
  185.6320  178.2180  137.2410 C   0  0  0  0  0  2  0  0  0  0  0  0
  185.1110  176.8700  136.7220 C   0  0  1  0  0  0  0  0  0  0  0  0
  185.2280  174.4590  136.9570 C   0  0  0  0  0  2  0  0  0  0  0  0
  182.9000  174.4800  136.0810 C   0  0  0  0  0  1  0  0  0  0  0  0
  185.5960  178.3280  138.7560 C   0  0  0  0  0  2  0  0  0  0  0  0
  186.0770  175.7180  137.0050 C   0  0  1  0  0  3  0  0  0  0  0  0
  183.7970  176.4100  137.3810 C   0  0  1  0  0  3  0  0  0  0  0  0
  183.7910  174.8920  137.2350 C   0  0  2  0  0  3  0  0  0  0  0  0
  184.8590  177.0340  135.2250 C   0  0  0  0  0  1  0  0  0  0  0  0
  184.1710  178.1100  139.2340 C   0  0  1  0  0  3  0  0  0  0  0  0
  183.7280  176.6970  138.8870 C   0  0  0  0  0  2  0  0  0  0  0  0
  182.6500  179.0750  143.8650 C   0  0  0  0  0  3  0  0  0  0  0  0
  183.3550  179.0760  145.2100 C   0  0  0  0  0  2  0  0  0  0  0  0
  184.0590  178.3620  140.7080 C   0  0  0  0  0  0  0  0  0  0  0  0
  184.7340  178.4720  142.7730 C   0  0  0  0  0  0  0  0  0  0  0  0
  185.1850  178.2160  141.5900 N   0  0  0  0  0  0  0  0  0  0  0  0
  182.9470  178.7080  141.3730 C   0  0  0  0  0  0  0  0  0  0  0  0
  185.4930  178.4500  144.0210 C   0  0  0  0  0  3  0  0  0  0  0  0
  183.3370  178.7880  142.7640 C   0  0  0  0  0  0  0  0  0  0  0  0
  184.8410  178.7340  145.1580 C   0  0  0  0  0  3  0  0  0  0  0  0
  180.8060  177.6660  141.0030 N   0  0  0  0  0  1  0  0  0  0  0  0
  181.5730  178.8850  140.8170 C   0  0  0  0  0  2  0  0  0  0  0  0
  188.4510  176.2180  136.2700 C   0  0  0  0  0  0  0  0  0  0  0  0
  188.6940  176.8160  137.3530 O   0  0  0  0  0  0  0  0  0  0  0  0
  187.1670  175.6340  136.0390 N   0  0  0  0  0  2  0  0  0  0  0  0
  193.3160  175.7270  135.4650 C   0  0  0  0  0  2  0  0  0  0  0  0
  189.5090  176.1610  135.2060 C   0  0  1  0  0  3  0  0  0  0  0  0
  191.9980  176.1580  134.8180 C   0  0  0  0  0  2  0  0  0  0  0  0
  189.7110  173.5920  134.4670 O   0  0  0  0  0  0  0  0  0  0  0  0
  191.0340  175.2970  137.1300 C   0  0  0  0  0  2  0  0  0  0  0  0
  190.7980  175.7110  135.6620 C   0  0  1  0  0  0  0  0  0  0  0  0
  193.3430  176.1500  136.9070 C   0  0  0  0  0  3  0  0  0  0  0  0
  192.2700  175.9530  137.6840 C   0  0  0  0  0  3  0  0  0  0  0  0
  189.9240  174.7040  134.9230 C   0  0  0  0  0  0  0  0  0  0  0  0
  1  5  1  0  0  0  0
  2  9  1  6  0  0  0
  2  6  1  0  0  0  0
  2  1  1  0  0  0  0
  2  7  1  0  0  0  0
  3  6  1  0  0  0  0
  3  8  1  0  0  0  0
  5 10  1  0  0  0  0
  6 25  1  6  0  0  0
  7 11  1  1  0  0  0
  8  4  1  6  0  0  0
  8  7  1  0  0  0  0
 10 14  1  1  0  0  0
 11 10  1  0  0  0  0
 12 13  1  0  0  0  0
 14 17  2  0  0  0  0
 14 16  1  0  0  0  0
 15 18  1  0  0  0  0
 16 15  2  0  0  0  0
 17 19  1  0  0  0  0
 18 20  2  0  0  0  0
 19 15  1  0  0  0  0
 19 12  2  0  0  0  0
 20 13  1  0  0  0  0
 22 21  1  0  0  0  0
 22 17  1  0  0  0  0
 23 24  2  0  0  0  0
 25 23  1  0  0  0  0
 26 32  1  0  0  0  0
 27 31  1  0  0  0  0
 27 23  1  1  0  0  0
 28 26  1  0  0  0  0
 29 34  2  0  0  0  0
 30 33  1  0  0  0  0
 31 28  1  6  0  0  0
 31 30  1  0  0  0  0
 32 33  2  0  0  0  0
 34 27  1  0  0  0  0
 34 31  1  0  0  0  0
M  END
>  <MODEL>
7

>  <REMARK>
 VINA RESULT:      -6.7      2.484      3.675
  Name = 
  4 active torsions:
  status: ('A' for Active; 'I' for Inactive)
    1  A    between atoms: C_3  and  C_14
    2  A    between atoms: C_6  and  C_27
    3  A    between atoms: C_17  and  N_29
    4  A    between atoms: C_24  and  C_28
                            x       y       z     vdW  Elec       q    Type
                         _______ _______ _______ _____ _____    ______ ____

>  <TORSDO>
F 4

$$$$
=
 OpenBabel10232409563D

 34 39  0  0  1  0  0  0  0  0999 V2000
  184.5140  178.6310  139.8930 C   0  0  0  0  0  2  0  0  0  0  0  0
  182.9880  178.6500  140.0520 C   0  0  1  0  0  0  0  0  0  0  0  0
  181.0320  177.3780  140.7120 C   0  0  0  0  0  2  0  0  0  0  0  0
  180.0430  179.5940  141.2570 C   0  0  0  0  0  1  0  0  0  0  0  0
  185.2350  178.0920  141.1170 C   0  0  0  0  0  2  0  0  0  0  0  0
  182.3750  177.2500  140.0130 C   0  0  1  0  0  3  0  0  0  0  0  0
  182.5050  179.2190  141.3990 C   0  0  1  0  0  3  0  0  0  0  0  0
  181.1280  178.6010  141.6190 C   0  0  2  0  0  3  0  0  0  0  0  0
  182.4330  179.5350  138.9380 C   0  0  0  0  0  1  0  0  0  0  0  0
  184.8550  178.9310  142.3250 C   0  0  1  0  0  3  0  0  0  0  0  0
  183.3650  178.7890  142.5950 C   0  0  0  0  0  2  0  0  0  0  0  0
  188.3180  177.2860  145.4850 C   0  0  0  0  0  3  0  0  0  0  0  0
  188.4310  177.2980  147.0000 C   0  0  0  0  0  2  0  0  0  0  0  0
  185.6600  178.5320  143.5250 C   0  0  0  0  0  0  0  0  0  0  0  0
  186.1490  178.3680  145.6380 C   0  0  0  0  0  0  0  0  0  0  0  0
  185.2150  178.8100  144.8630 N   0  0  0  0  0  0  0  0  0  0  0  0
  186.8550  177.9230  143.5140 C   0  0  0  0  0  0  0  0  0  0  0  0
  186.1720  178.4230  147.0980 C   0  0  0  0  0  3  0  0  0  0  0  0
  187.2370  177.7950  144.9040 C   0  0  0  0  0  0  0  0  0  0  0  0
  187.2430  177.9200  147.7280 C   0  0  0  0  0  3  0  0  0  0  0  0
  188.8220  178.4130  142.2110 N   0  0  0  0  0  1  0  0  0  0  0  0
  187.6680  177.5380  142.3220 C   0  0  0  0  0  2  0  0  0  0  0  0
  181.5630  175.4880  138.3810 C   0  0  0  0  0  0  0  0  0  0  0  0
  181.1060  174.7820  139.3210 O   0  0  0  0  0  0  0  0  0  0  0  0
  182.1960  176.7390  138.6580 N   0  0  0  0  0  2  0  0  0  0  0  0
  184.2100  173.8030  134.5450 C   0  0  0  0  0  2  0  0  0  0  0  0
  181.4750  174.9830  136.9690 C   0  0  1  0  0  3  0  0  0  0  0  0
  182.8440  174.3630  134.9480 C   0  0  0  0  0  2  0  0  0  0  0  0
  181.0920  172.3350  137.1270 O   0  0  0  0  0  0  0  0  0  0  0  0
  183.9370  174.2330  137.3570 C   0  0  0  0  0  2  0  0  0  0  0  0
  182.6800  174.3710  136.4720 C   0  0  1  0  0  0  0  0  0  0  0  0
  185.2980  174.5020  135.3110 C   0  0  0  0  0  3  0  0  0  0  0  0
  185.1650  174.7080  136.6280 C   0  0  0  0  0  3  0  0  0  0  0  0
  181.5590  173.4450  136.9310 C   0  0  0  0  0  0  0  0  0  0  0  0
  1  2  1  0  0  0  0
  1  5  1  0  0  0  0
  2  9  1  6  0  0  0
  2  7  1  0  0  0  0
  3  8  1  0  0  0  0
  5 10  1  0  0  0  0
  6 25  1  6  0  0  0
  6  2  1  0  0  0  0
  6  3  1  0  0  0  0
  7  8  1  0  0  0  0
  7 11  1  1  0  0  0
  8  4  1  6  0  0  0
 10 11  1  0  0  0  0
 10 14  1  1  0  0  0
 12 13  1  0  0  0  0
 13 20  1  0  0  0  0
 14 16  1  0  0  0  0
 15 18  1  0  0  0  0
 16 15  2  0  0  0  0
 17 14  2  0  0  0  0
 17 19  1  0  0  0  0
 18 20  2  0  0  0  0
 19 12  2  0  0  0  0
 19 15  1  0  0  0  0
 21 22  1  0  0  0  0
 22 17  1  0  0  0  0
 23 25  1  0  0  0  0
 23 24  2  0  0  0  0
 26 28  1  0  0  0  0
 26 32  1  0  0  0  0
 27 23  1  1  0  0  0
 31 28  1  6  0  0  0
 31 34  1  0  0  0  0
 31 27  1  0  0  0  0
 31 30  1  0  0  0  0
 32 33  2  0  0  0  0
 33 30  1  0  0  0  0
 34 27  1  0  0  0  0
 34 29  2  0  0  0  0
M  END
>  <MODEL>
8

>  <REMARK>
 VINA RESULT:      -6.6      6.216      8.276
  Name = 
  4 active torsions:
  status: ('A' for Active; 'I' for Inactive)
    1  A    between atoms: C_3  and  C_14
    2  A    between atoms: C_6  and  C_27
    3  A    between atoms: C_17  and  N_29
    4  A    between atoms: C_24  and  C_28
                            x       y       z     vdW  Elec       q    Type
                         _______ _______ _______ _____ _____    ______ ____

>  <TORSDO>
F 4

$$$$
=
 OpenBabel10232409563D

 34 39  0  0  1  0  0  0  0  0999 V2000
  182.7750  177.8570  139.0460 C   0  0  0  0  0  2  0  0  0  0  0  0
  182.2340  177.8410  140.4820 C   0  0  1  0  0  0  0  0  0  0  0  0
  182.2920  178.9230  142.6510 C   0  0  0  0  0  2  0  0  0  0  0  0
  179.9820  178.0390  142.9120 C   0  0  0  0  0  1  0  0  0  0  0  0
  182.7140  179.2320  138.4010 C   0  0  0  0  0  2  0  0  0  0  0  0
  183.1680  178.5410  141.4710 C   0  0  1  0  0  3  0  0  0  0  0  0
  180.8980  178.5870  140.6570 C   0  0  1  0  0  3  0  0  0  0  0  0
  180.8610  178.9920  142.1270 C   0  0  2  0  0  3  0  0  0  0  0  0
  182.0130  176.3780  140.8600 C   0  0  0  0  0  1  0  0  0  0  0  0
  181.2760  179.7210  138.4130 C   0  0  1  0  0  3  0  0  0  0  0  0
  180.8080  179.8900  139.8510 C   0  0  0  0  0  2  0  0  0  0  0  0
  180.3030  183.2780  135.0840 C   0  0  0  0  0  3  0  0  0  0  0  0
  180.4780  184.7870  135.0960 C   0  0  0  0  0  3  0  0  0  0  0  0
  181.1430  181.0040  137.6500 C   0  0  0  0  0  0  0  0  0  0  0  0
  181.2570  183.1510  137.3150 C   0  0  0  0  0  0  0  0  0  0  0  0
  181.5340  182.2660  138.2140 N   0  0  0  0  0  2  0  0  0  0  0  0
  180.6390  181.1460  136.4150 C   0  0  0  0  0  0  0  0  0  0  0  0
  181.4630  184.5930  137.4140 C   0  0  0  0  0  3  0  0  0  0  0  0
  180.6820  182.5660  136.1400 C   0  0  0  0  0  0  0  0  0  0  0  0
  181.0970  185.3530  136.3710 C   0  0  0  0  0  3  0  0  0  0  0  0
  181.1060  179.5380  134.6820 N   0  0  0  0  0  1  0  0  0  0  0  0
  180.0670  180.0810  135.5390 C   0  0  0  0  0  2  0  0  0  0  0  0
  185.1160  178.0380  143.0140 C   0  0  0  0  0  0  0  0  0  0  0  0
  184.9070  179.0940  143.6720 O   0  0  0  0  0  0  0  0  0  0  0  0
  184.2740  177.6960  141.9110 N   0  0  0  0  0  2  0  0  0  0  0  0
  189.8040  176.9230  141.8570 C   0  0  0  0  0  2  0  0  0  0  0  0
  186.2830  177.1640  143.3730 C   0  0  1  0  0  3  0  0  0  0  0  0
  188.5740  176.4320  142.6230 C   0  0  0  0  0  2  0  0  0  0  0  0
  187.6660  178.4710  145.2600 O   0  0  0  0  0  0  0  0  0  0  0  0
  187.6340  178.7830  141.8470 C   0  0  0  0  0  2  0  0  0  0  0  0
  187.5310  177.5470  142.7650 C   0  0  1  0  0  0  0  0  0  0  0  0
  189.3800  177.5820  140.5740 C   0  0  0  0  0  3  0  0  0  0  0  0
  188.3580  178.4490  140.5710 C   0  0  0  0  0  3  0  0  0  0  0  0
  187.3090  177.9400  144.2210 C   0  0  0  0  0  0  0  0  0  0  0  0
  1  2  1  0  0  0  0
  2  7  1  0  0  0  0
  2  9  1  1  0  0  0
  2  6  1  0  0  0  0
  5 10  1  0  0  0  0
  5  1  1  0  0  0  0
  6 25  1  1  0  0  0
  6  3  1  0  0  0  0
  7 11  1  6  0  0  0
  7  8  1  0  0  0  0
  8  3  1  0  0  0  0
  8  4  1  1  0  0  0
 10 14  1  6  0  0  0
 10 11  1  0  0  0  0
 12 13  2  0  0  0  0
 12 19  1  0  0  0  0
 13 20  1  0  0  0  0
 14 16  1  0  0  0  0
 15 18  1  0  0  0  0
 15 16  1  0  0  0  0
 17 14  2  0  0  0  0
 19 17  1  0  0  0  0
 19 15  2  0  0  0  0
 20 18  2  0  0  0  0
 21 22  1  0  0  0  0
 22 17  1  0  0  0  0
 23 24  2  0  0  0  0
 25 23  1  0  0  0  0
 26 28  1  0  0  0  0
 27 23  1  6  0  0  0
 27 34  1  0  0  0  0
 28 31  1  0  0  0  0
 31 30  1  6  0  0  0
 31 27  1  0  0  0  0
 31 34  1  0  0  0  0
 32 26  1  0  0  0  0
 33 32  2  0  0  0  0
 33 30  1  0  0  0  0
 34 29  2  0  0  0  0
M  END
>  <MODEL>
9

>  <REMARK>
 VINA RESULT:      -6.5      5.427      9.445
  Name = 
  4 active torsions:
  status: ('A' for Active; 'I' for Inactive)
    1  A    between atoms: C_3  and  C_14
    2  A    between atoms: C_6  and  C_27
    3  A    between atoms: C_17  and  N_29
    4  A    between atoms: C_24  and  C_28
                            x       y       z     vdW  Elec       q    Type
                         _______ _______ _______ _____ _____    ______ ____

>  <TORSDO>
F 4

$$$$
