=
 OpenBabel10232412113D

 39 45  0  0  1  0  0  0  0  0999 V2000
  183.3610  178.4390  141.9770 C   0  0  2  0  0  3  0  0  0  0  0  0
  190.7040  176.4130  143.3900 O   0  0  0  0  0  0  0  0  0  0  0  0
  189.8850  176.8670  144.3000 C   0  0  0  0  0  0  0  0  0  0  0  0
  187.6340  177.6120  144.5230 C   0  0  0  0  0  0  0  0  0  0  0  0
  185.5810  177.9520  143.1030 C   0  0  0  0  0  3  0  0  0  0  0  0
  189.0880  177.5960  146.4740 C   0  0  0  0  0  3  0  0  0  0  0  0
  185.8230  178.3810  145.4820 C   0  0  0  0  0  0  0  0  0  0  0  0
  188.6640  177.1170  143.7350 C   0  0  0  0  0  0  0  0  0  0  0  0
  184.2410  178.3880  143.1920 C   0  0  0  0  0  0  0  0  0  0  0  0
  186.3360  177.9600  144.2720 C   0  0  0  0  0  0  0  0  0  0  0  0
  187.8420  177.8430  145.8720 C   0  0  1  0  0  3  0  0  0  0  0  0
  183.7150  178.8160  144.4310 C   0  0  0  0  0  3  0  0  0  0  0  0
  184.5050  178.8160  145.5940 C   0  0  0  0  0  3  0  0  0  0  0  0
  190.0510  176.3590  142.2400 C   0  0  0  0  0  3  0  0  0  0  0  0
  186.7330  178.3180  146.4830 N   0  0  0  0  0  0  0  0  0  0  0  0
  190.1410  177.0970  145.6680 C   0  0  0  0  0  0  0  0  0  0  0  0
  188.7330  176.7980  142.3970 C   0  0  0  0  0  3  0  0  0  0  0  0
  191.4790  176.8140  146.2660 C   0  0  0  0  0  2  0  0  0  0  0  0
  192.7070  175.7030  148.1290 C   0  0  0  0  0  1  0  0  0  0  0  0
  191.3610  175.8780  147.4580 C   0  0  0  0  0  2  0  0  0  0  0  0
  185.9570  178.5910  139.7080 O   0  0  0  0  0  0  0  0  0  0  0  0
  185.5260  179.2040  140.9070 C   0  0  0  0  0  2  0  0  0  0  0  0
  183.9890  179.2530  140.8380 C   0  0  1  0  0  3  0  0  0  0  0  0
  185.0280  177.6840  137.7060 C   0  0  0  0  0  3  0  0  0  0  0  0
  184.8950  178.2810  138.8880 C   0  0  0  0  0  0  0  0  0  0  0  0
  183.5990  178.6690  139.4780 C   0  0  2  0  0  3  0  0  0  0  0  0
  182.8210  179.9390  138.5000 Cl  0  0  0  0  0  0  0  0  0  0  0  0
  187.3060  176.2200  135.0500 O   0  0  0  0  0  0  0  0  0  0  0  0
  186.6870  178.1550  136.0110 C   0  0  0  0  0  2  0  0  0  0  0  0
  186.1780  176.7300  135.7520 C   0  0  2  0  0  0  0  0  0  0  0  0
  186.3630  177.3070  137.1630 C   0  0  2  0  0  3  0  0  0  0  0  0
  186.8440  175.4240  136.0720 C   0  0  0  0  0  2  0  0  0  0  0  0
  181.7160  179.1000  142.4260 S   0  0  0  0  0  0  0  0  0  0  0  0
  180.8310  177.7040  141.6730 C   0  0  0  0  0  2  0  0  0  0  0  0
  180.1680  178.1420  140.4500 N   0  0  0  0  0  2  0  0  0  0  0  0
  180.1780  177.0580  139.4660 C   0  0  1  0  0  3  0  0  0  0  0  0
  180.4460  177.5590  138.1910 O   0  0  0  0  0  1  0  0  0  0  0  0
  181.6200  175.6290  138.5880 C   0  0  0  0  0  1  0  0  0  0  0  0
  181.1130  176.0770  139.8070 O   0  0  0  0  0  0  0  0  0  0  0  0
  1 33  1  1  0  0  0
  1  9  1  0  0  0  0
  2  3  1  0  0  0  0
  3 16  1  0  0  0  0
  4 11  1  0  0  0  0
  5  9  2  0  0  0  0
  5 10  1  0  0  0  0
  7 13  1  0  0  0  0
  7 15  2  0  0  0  0
  8  3  2  0  0  0  0
  8  4  1  0  0  0  0
  9 12  1  0  0  0  0
 10  4  2  0  0  0  0
 10  7  1  0  0  0  0
 11  6  1  6  0  0  0
 11 15  1  0  0  0  0
 12 13  2  0  0  0  0
 14 17  2  0  0  0  0
 14  2  1  0  0  0  0
 16 18  1  0  0  0  0
 16  6  2  0  0  0  0
 17  8  1  0  0  0  0
 18 20  1  0  0  0  0
 20 19  1  0  0  0  0
 21 22  1  0  0  0  0
 23 22  1  0  0  0  0
 23  1  1  1  0  0  0
 24 25  2  0  0  0  0
 25 26  1  0  0  0  0
 25 21  1  0  0  0  0
 26 27  1  6  0  0  0
 26 23  1  0  0  0  0
 28 30  1  0  0  0  0
 28 32  1  0  0  0  0
 29 31  1  0  0  0  0
 30 29  1  6  0  0  0
 30 32  1  0  0  0  0
 30 31  1  0  0  0  0
 31 24  1  6  0  0  0
 34 33  1  0  0  0  0
 35 34  1  0  0  0  0
 36 37  1  6  0  0  0
 36 39  1  0  0  0  0
 36 35  1  0  0  0  0
 38 39  1  0  0  0  0
M  END
>  <MODEL>
1

>  <REMARK>
 VINA RESULT:      -9.0      0.000      0.000
  Name = 
  10 active torsions:
  status: ('A' for Active; 'I' for Inactive)
    1  A    between atoms: S_6  and  C_8
    2  A    between atoms: S_6  and  C_20
    3  A    between atoms: C_8  and  N_18
    4  A    between atoms: C_13  and  C_20
    5  A    between atoms: C_14  and  N_18
    6  A    between atoms: C_14  and  O_33
    7  A    between atoms: C_17  and  C_21
    8  A    between atoms: C_19  and  C_37
    9  A    between atoms: C_19  and  C_39
   10  A    between atoms: C_20  and  C_26
                            x       y       z     vdW  Elec       q    Type
                         _______ _______ _______ _____ _____    ______ ____

>  <TORSDO>
F 10

$$$$
=
 OpenBabel10232412113D

 39 45  0  0  1  0  0  0  0  0999 V2000
  182.5360  178.2790  139.9060 C   0  0  2  0  0  3  0  0  0  0  0  0
  188.5320  177.6850  144.7770 O   0  0  0  0  0  0  0  0  0  0  0  0
  187.3240  178.0200  145.1440 C   0  0  0  0  0  0  0  0  0  0  0  0
  185.1580  178.3520  144.2130 C   0  0  0  0  0  0  0  0  0  0  0  0
  183.9990  178.2530  141.9780 C   0  0  0  0  0  3  0  0  0  0  0  0
  185.4980  178.6830  146.6000 C   0  0  0  0  0  3  0  0  0  0  0  0
  183.0200  178.8180  144.1290 C   0  0  0  0  0  0  0  0  0  0  0  0
  186.4960  178.0200  144.0550 C   0  0  0  0  0  0  0  0  0  0  0  0
  182.7310  178.4400  141.3860 C   0  0  0  0  0  0  0  0  0  0  0  0
  184.0990  178.4470  143.3530 C   0  0  0  0  0  0  0  0  0  0  0  0
  184.6660  178.6740  145.4670 C   0  0  1  0  0  3  0  0  0  0  0  0
  181.6260  178.8170  142.1810 C   0  0  0  0  0  3  0  0  0  0  0  0
  181.7610  179.0100  143.5670 C   0  0  0  0  0  3  0  0  0  0  0  0
  188.5170  177.4650  143.4710 C   0  0  0  0  0  3  0  0  0  0  0  0
  183.3450  178.9640  145.4360 N   0  0  0  0  0  0  0  0  0  0  0  0
  186.8650  178.3510  146.4370 C   0  0  0  0  0  0  0  0  0  0  0  0
  187.2350  177.6630  142.9500 C   0  0  0  0  0  3  0  0  0  0  0  0
  187.7850  178.3410  147.6130 C   0  0  0  0  0  2  0  0  0  0  0  0
  189.5980  176.6310  147.5890 C   0  0  0  0  0  1  0  0  0  0  0  0
  188.1680  176.9220  147.9980 C   0  0  0  0  0  2  0  0  0  0  0  0
  180.6180  176.8420  137.4240 O   0  0  0  0  0  0  0  0  0  0  0  0
  180.7390  178.0570  138.1340 C   0  0  0  0  0  2  0  0  0  0  0  0
  181.1650  177.6800  139.5640 C   0  0  1  0  0  3  0  0  0  0  0  0
  180.8510  174.4970  137.7980 C   0  0  0  0  0  3  0  0  0  0  0  0
  180.8810  175.7560  138.2280 C   0  0  0  0  0  0  0  0  0  0  0  0
  181.2180  176.1500  139.6100 C   0  0  2  0  0  3  0  0  0  0  0  0
  179.9820  175.5590  140.7490 Cl  0  0  0  0  0  0  0  0  0  0  0  0
  181.5710  172.8800  134.4440 O   0  0  0  0  0  0  0  0  0  0  0  0
  180.2710  172.7150  136.2700 C   0  0  0  0  0  2  0  0  0  0  0  0
  181.6260  173.2720  135.8110 C   0  0  2  0  0  0  0  0  0  0  0  0
  180.5110  174.1570  136.3880 C   0  0  2  0  0  3  0  0  0  0  0  0
  181.9200  174.1910  134.6620 C   0  0  0  0  0  2  0  0  0  0  0  0
  183.8880  177.2670  139.2050 S   0  0  0  0  0  0  0  0  0  0  0  0
  184.7840  178.7120  138.5700 C   0  0  0  0  0  2  0  0  0  0  0  0
  186.1870  178.6360  138.9620 N   0  0  0  0  0  2  0  0  0  0  0  0
  186.9700  178.0300  137.8840 C   0  0  1  0  0  3  0  0  0  0  0  0
  187.2470  178.9740  136.8920 O   0  0  0  0  0  1  0  0  0  0  0  0
  188.5500  178.3310  139.4030 C   0  0  0  0  0  1  0  0  0  0  0  0
  188.1570  177.4780  138.3720 O   0  0  0  0  0  0  0  0  0  0  0  0
  1 33  1  1  0  0  0
  1  9  1  0  0  0  0
  2  3  1  0  0  0  0
  3 16  1  0  0  0  0
  4 11  1  0  0  0  0
  5 10  1  0  0  0  0
  7 15  2  0  0  0  0
  8  4  1  0  0  0  0
  8  3  2  0  0  0  0
  9  5  2  0  0  0  0
  9 12  1  0  0  0  0
 10  7  1  0  0  0  0
 10  4  2  0  0  0  0
 11  6  1  6  0  0  0
 12 13  2  0  0  0  0
 13  7  1  0  0  0  0
 14  2  1  0  0  0  0
 15 11  1  0  0  0  0
 16  6  2  0  0  0  0
 16 18  1  0  0  0  0
 17 14  2  0  0  0  0
 17  8  1  0  0  0  0
 18 20  1  0  0  0  0
 19 20  1  0  0  0  0
 21 22  1  0  0  0  0
 21 25  1  0  0  0  0
 22 23  1  0  0  0  0
 23 26  1  0  0  0  0
 23  1  1  6  0  0  0
 24 25  2  0  0  0  0
 25 26  1  0  0  0  0
 26 27  1  1  0  0  0
 28 32  1  0  0  0  0
 28 30  1  0  0  0  0
 29 31  1  0  0  0  0
 30 32  1  1  0  0  0
 30 29  1  0  0  0  0
 30 31  1  0  0  0  0
 31 24  1  1  0  0  0
 34 35  1  0  0  0  0
 34 33  1  0  0  0  0
 36 37  1  6  0  0  0
 36 39  1  0  0  0  0
 36 35  1  0  0  0  0
 39 38  1  0  0  0  0
M  END
>  <MODEL>
2

>  <REMARK>
 VINA RESULT:      -8.9      2.634      4.720
  Name = 
  10 active torsions:
  status: ('A' for Active; 'I' for Inactive)
    1  A    between atoms: S_6  and  C_8
    2  A    between atoms: S_6  and  C_20
    3  A    between atoms: C_8  and  N_18
    4  A    between atoms: C_13  and  C_20
    5  A    between atoms: C_14  and  N_18
    6  A    between atoms: C_14  and  O_33
    7  A    between atoms: C_17  and  C_21
    8  A    between atoms: C_19  and  C_37
    9  A    between atoms: C_19  and  C_39
   10  A    between atoms: C_20  and  C_26
                            x       y       z     vdW  Elec       q    Type
                         _______ _______ _______ _____ _____    ______ ____

>  <TORSDO>
F 10

$$$$
=
 OpenBabel10232412113D

 39 45  0  0  1  0  0  0  0  0999 V2000
  183.0000  178.9410  139.9340 C   0  0  2  0  0  3  0  0  0  0  0  0
  188.6020  177.0510  144.9410 O   0  0  0  0  0  0  0  0  0  0  0  0
  187.4160  177.4660  145.2970 C   0  0  0  0  0  0  0  0  0  0  0  0
  185.3550  178.1550  144.3240 C   0  0  0  0  0  0  0  0  0  0  0  0
  184.3270  178.4800  142.0460 C   0  0  0  0  0  3  0  0  0  0  0  0
  185.5840  178.1290  146.7460 C   0  0  0  0  0  3  0  0  0  0  0  0
  183.2860  178.8610  144.2080 C   0  0  0  0  0  0  0  0  0  0  0  0
  186.6590  177.7010  144.1820 C   0  0  0  0  0  0  0  0  0  0  0  0
  183.1230  178.8830  141.4290 C   0  0  0  0  0  0  0  0  0  0  0  0
  184.3650  178.4790  143.4370 C   0  0  0  0  0  0  0  0  0  0  0  0
  184.8260  178.3610  145.5860 C   0  0  1  0  0  3  0  0  0  0  0  0
  182.0170  179.2710  142.2180 C   0  0  0  0  0  3  0  0  0  0  0  0
  182.0890  179.2640  143.6220 C   0  0  0  0  0  3  0  0  0  0  0  0
  188.6430  177.0080  143.6190 C   0  0  0  0  0  3  0  0  0  0  0  0
  183.5460  178.7970  145.5360 N   0  0  0  0  0  0  0  0  0  0  0  0
  186.9180  177.6720  146.6000 C   0  0  0  0  0  0  0  0  0  0  0  0
  187.4210  177.4140  143.0720 C   0  0  0  0  0  3  0  0  0  0  0  0
  187.7600  177.4060  147.8040 C   0  0  0  0  0  2  0  0  0  0  0  0
  190.2300  177.7350  147.8700 C   0  0  0  0  0  1  0  0  0  0  0  0
  188.8820  178.4240  147.9250 C   0  0  0  0  0  2  0  0  0  0  0  0
  180.6140  181.1290  138.7400 O   0  0  0  0  0  0  0  0  0  0  0  0
  180.9540  180.4350  139.9230 C   0  0  0  0  0  2  0  0  0  0  0  0
  181.5430  179.0850  139.4770 C   0  0  1  0  0  3  0  0  0  0  0  0
  180.6680  180.8090  136.3770 C   0  0  0  0  0  3  0  0  0  0  0  0
  180.8830  180.3790  137.6180 C   0  0  0  0  0  0  0  0  0  0  0  0
  181.4520  179.0580  137.9480 C   0  0  2  0  0  3  0  0  0  0  0  0
  180.3410  177.7560  137.4540 Cl  0  0  0  0  0  0  0  0  0  0  0  0
  180.8810  184.3710  135.0920 O   0  0  0  0  0  0  0  0  0  0  0  0
  179.9820  182.3590  134.6520 C   0  0  0  0  0  2  0  0  0  0  0  0
  181.1610  183.0080  135.3910 C   0  0  2  0  0  0  0  0  0  0  0  0
  180.0970  182.1570  136.1000 C   0  0  2  0  0  3  0  0  0  0  0  0
  181.1350  184.1030  136.4160 C   0  0  0  0  0  2  0  0  0  0  0  0
  183.7810  177.4660  139.1870 S   0  0  0  0  0  0  0  0  0  0  0  0
  185.1160  178.4280  138.4210 C   0  0  0  0  0  2  0  0  0  0  0  0
  185.9970  177.5410  137.6710 N   0  0  0  0  0  2  0  0  0  0  0  0
  187.3930  177.9140  137.9060 C   0  0  1  0  0  3  0  0  0  0  0  0
  187.8680  178.7080  136.8600 O   0  0  0  0  0  1  0  0  0  0  0  0
  188.7660  178.1500  139.6240 C   0  0  0  0  0  1  0  0  0  0  0  0
  187.5380  178.5820  139.1250 O   0  0  0  0  0  0  0  0  0  0  0  0
  1 33  1  6  0  0  0
  1  9  1  0  0  0  0
  2  3  1  0  0  0  0
  3 16  1  0  0  0  0
  4 11  1  0  0  0  0
  5 10  1  0  0  0  0
  7 15  2  0  0  0  0
  8  4  1  0  0  0  0
  8  3  2  0  0  0  0
  9  5  2  0  0  0  0
  9 12  1  0  0  0  0
 10  7  1  0  0  0  0
 10  4  2  0  0  0  0
 11  6  1  6  0  0  0
 12 13  2  0  0  0  0
 13  7  1  0  0  0  0
 14  2  1  0  0  0  0
 15 11  1  0  0  0  0
 16  6  2  0  0  0  0
 16 18  1  0  0  0  0
 17 14  2  0  0  0  0
 17  8  1  0  0  0  0
 18 20  1  0  0  0  0
 19 20  1  0  0  0  0
 21 22  1  0  0  0  0
 23 22  1  0  0  0  0
 23  1  1  6  0  0  0
 24 25  2  0  0  0  0
 25 26  1  0  0  0  0
 25 21  1  0  0  0  0
 26 27  1  1  0  0  0
 26 23  1  0  0  0  0
 28 30  1  0  0  0  0
 28 32  1  0  0  0  0
 29 31  1  0  0  0  0
 30 29  1  6  0  0  0
 30 31  1  0  0  0  0
 30 32  1  0  0  0  0
 31 24  1  6  0  0  0
 34 33  1  0  0  0  0
 35 36  1  0  0  0  0
 35 34  1  0  0  0  0
 36 37  1  6  0  0  0
 36 39  1  0  0  0  0
 39 38  1  0  0  0  0
M  END
>  <MODEL>
3

>  <REMARK>
 VINA RESULT:      -8.8      3.358      5.104
  Name = 
  10 active torsions:
  status: ('A' for Active; 'I' for Inactive)
    1  A    between atoms: S_6  and  C_8
    2  A    between atoms: S_6  and  C_20
    3  A    between atoms: C_8  and  N_18
    4  A    between atoms: C_13  and  C_20
    5  A    between atoms: C_14  and  N_18
    6  A    between atoms: C_14  and  O_33
    7  A    between atoms: C_17  and  C_21
    8  A    between atoms: C_19  and  C_37
    9  A    between atoms: C_19  and  C_39
   10  A    between atoms: C_20  and  C_26
                            x       y       z     vdW  Elec       q    Type
                         _______ _______ _______ _____ _____    ______ ____

>  <TORSDO>
F 10

$$$$
=
 OpenBabel10232412113D

 39 45  0  0  1  0  0  0  0  0999 V2000
  182.5490  177.7100  139.8510 C   0  0  2  0  0  3  0  0  0  0  0  0
  188.5530  177.2710  144.7290 O   0  0  0  0  0  0  0  0  0  0  0  0
  187.3980  177.7960  145.0400 C   0  0  0  0  0  0  0  0  0  0  0  0
  185.2600  178.2080  144.0740 C   0  0  0  0  0  0  0  0  0  0  0  0
  184.0470  177.8660  141.8920 C   0  0  0  0  0  3  0  0  0  0  0  0
  185.6880  178.8930  146.3700 C   0  0  0  0  0  3  0  0  0  0  0  0
  183.1850  178.8890  143.9210 C   0  0  0  0  0  0  0  0  0  0  0  0
  186.5500  177.7060  143.9690 C   0  0  0  0  0  0  0  0  0  0  0  0
  182.7950  178.0930  141.2820 C   0  0  0  0  0  0  0  0  0  0  0  0
  184.2000  178.2750  143.2140 C   0  0  0  0  0  0  0  0  0  0  0  0
  184.8360  178.7870  145.2570 C   0  0  1  0  0  3  0  0  0  0  0  0
  181.7560  178.7190  142.0060 C   0  0  0  0  0  3  0  0  0  0  0  0
  181.9430  179.1240  143.3390 C   0  0  0  0  0  3  0  0  0  0  0  0
  188.4850  176.8380  143.4800 C   0  0  0  0  0  3  0  0  0  0  0  0
  183.5540  179.2140  145.1830 N   0  0  0  0  0  0  0  0  0  0  0  0
  187.0070  178.3870  146.2600 C   0  0  0  0  0  0  0  0  0  0  0  0
  187.2210  177.0890  142.9370 C   0  0  0  0  0  3  0  0  0  0  0  0
  187.9460  178.4710  147.4170 C   0  0  0  0  0  2  0  0  0  0  0  0
  189.8230  176.8480  147.6610 C   0  0  0  0  0  1  0  0  0  0  0  0
  188.3460  177.0870  147.9010 C   0  0  0  0  0  2  0  0  0  0  0  0
  185.6250  179.2120  139.4130 O   0  0  0  0  0  0  0  0  0  0  0  0
  184.2700  179.5550  139.6240 C   0  0  0  0  0  2  0  0  0  0  0  0
  183.4370  178.4970  138.8790 C   0  0  1  0  0  3  0  0  0  0  0  0
  186.9160  177.5620  138.2710 C   0  0  0  0  0  3  0  0  0  0  0  0
  185.7470  178.1000  138.6100 C   0  0  0  0  0  0  0  0  0  0  0  0
  184.4370  177.5670  138.1870 C   0  0  2  0  0  3  0  0  0  0  0  0
  184.2430  177.7120  136.4220 Cl  0  0  0  0  0  0  0  0  0  0  0  0
  190.6610  177.4250  138.8550 O   0  0  0  0  0  0  0  0  0  0  0  0
  189.0810  178.3900  137.5810 C   0  0  0  0  0  2  0  0  0  0  0  0
  189.3330  177.1360  138.4310 C   0  0  2  0  0  0  0  0  0  0  0  0
  188.2100  178.1380  138.7340 C   0  0  2  0  0  3  0  0  0  0  0  0
  189.7970  177.0480  139.8550 C   0  0  0  0  0  2  0  0  0  0  0  0
  180.7790  177.9220  139.4440 S   0  0  0  0  0  0  0  0  0  0  0  0
  180.6420  176.2700  138.7020 C   0  0  0  0  0  2  0  0  0  0  0  0
  180.8830  176.3520  137.2660 N   0  0  0  0  0  2  0  0  0  0  0  0
  181.6760  175.2020  136.8310 C   0  0  1  0  0  3  0  0  0  0  0  0
  182.4050  174.6790  137.9010 O   0  0  0  0  0  1  0  0  0  0  0  0
  180.9040  173.1590  137.1800 C   0  0  0  0  0  1  0  0  0  0  0  0
  180.8640  174.2130  136.2690 O   0  0  0  0  0  0  0  0  0  0  0  0
  1 33  1  6  0  0  0
  1  9  1  0  0  0  0
  2  3  1  0  0  0  0
  3 16  1  0  0  0  0
  4 11  1  0  0  0  0
  5 10  1  0  0  0  0
  7 15  2  0  0  0  0
  8  4  1  0  0  0  0
  8  3  2  0  0  0  0
  9  5  2  0  0  0  0
  9 12  1  0  0  0  0
 10  7  1  0  0  0  0
 10  4  2  0  0  0  0
 11  6  1  6  0  0  0
 12 13  2  0  0  0  0
 13  7  1  0  0  0  0
 14  2  1  0  0  0  0
 15 11  1  0  0  0  0
 16  6  2  0  0  0  0
 16 18  1  0  0  0  0
 17 14  2  0  0  0  0
 17  8  1  0  0  0  0
 18 20  1  0  0  0  0
 19 20  1  0  0  0  0
 21 22  1  0  0  0  0
 23 22  1  0  0  0  0
 23  1  1  1  0  0  0
 24 25  2  0  0  0  0
 25 21  1  0  0  0  0
 26 27  1  6  0  0  0
 26 25  1  0  0  0  0
 26 23  1  0  0  0  0
 28 32  1  0  0  0  0
 29 31  1  0  0  0  0
 30 29  1  6  0  0  0
 30 31  1  0  0  0  0
 30 28  1  0  0  0  0
 30 32  1  0  0  0  0
 31 24  1  6  0  0  0
 34 33  1  0  0  0  0
 35 34  1  0  0  0  0
 36 35  1  0  0  0  0
 36 37  1  1  0  0  0
 39 36  1  0  0  0  0
 39 38  1  0  0  0  0
M  END
>  <MODEL>
4

>  <REMARK>
 VINA RESULT:      -8.6      2.131      3.075
  Name = 
  10 active torsions:
  status: ('A' for Active; 'I' for Inactive)
    1  A    between atoms: S_6  and  C_8
    2  A    between atoms: S_6  and  C_20
    3  A    between atoms: C_8  and  N_18
    4  A    between atoms: C_13  and  C_20
    5  A    between atoms: C_14  and  N_18
    6  A    between atoms: C_14  and  O_33
    7  A    between atoms: C_17  and  C_21
    8  A    between atoms: C_19  and  C_37
    9  A    between atoms: C_19  and  C_39
   10  A    between atoms: C_20  and  C_26
                            x       y       z     vdW  Elec       q    Type
                         _______ _______ _______ _____ _____    ______ ____

>  <TORSDO>
F 10

$$$$
=
 OpenBabel10232412113D

 39 45  0  0  1  0  0  0  0  0999 V2000
  191.2850  176.7630  137.4910 C   0  0  2  0  0  3  0  0  0  0  0  0
  190.5610  176.4990  145.2000 O   0  0  0  0  0  0  0  0  0  0  0  0
  189.6540  176.9900  144.3990 C   0  0  0  0  0  0  0  0  0  0  0  0
  189.2660  177.3400  142.0750 C   0  0  0  0  0  0  0  0  0  0  0  0
  190.4150  176.9630  139.8640 C   0  0  0  0  0  3  0  0  0  0  0  0
  187.5820  178.0370  143.6880 C   0  0  0  0  0  3  0  0  0  0  0  0
  188.2330  177.9610  140.2480 C   0  0  0  0  0  0  0  0  0  0  0  0
  190.0770  176.8760  143.1020 C   0  0  0  0  0  0  0  0  0  0  0  0
  190.2250  177.1540  138.4790 C   0  0  0  0  0  0  0  0  0  0  0  0
  189.3930  177.3760  140.7140 C   0  0  0  0  0  0  0  0  0  0  0  0
  188.0370  177.9070  142.3640 C   0  0  1  0  0  3  0  0  0  0  0  0
  189.0360  177.7490  138.0010 C   0  0  0  0  0  3  0  0  0  0  0  0
  188.0240  178.1600  138.8860 C   0  0  0  0  0  3  0  0  0  0  0  0
  191.5700  176.0640  144.4610 C   0  0  0  0  0  3  0  0  0  0  0  0
  187.3820  178.2970  141.2470 N   0  0  0  0  0  0  0  0  0  0  0  0
  188.4130  177.5700  144.7360 C   0  0  0  0  0  0  0  0  0  0  0  0
  191.3170  176.2780  143.1020 C   0  0  0  0  0  3  0  0  0  0  0  0
  187.9690  177.6810  146.1570 C   0  0  0  0  0  2  0  0  0  0  0  0
  185.9100  178.9140  146.8310 C   0  0  0  0  0  1  0  0  0  0  0  0
  186.4540  177.6190  146.2650 C   0  0  0  0  0  2  0  0  0  0  0  0
  189.5500  173.7810  137.4660 O   0  0  0  0  0  0  0  0  0  0  0  0
  190.8780  174.2630  137.4670 C   0  0  0  0  0  2  0  0  0  0  0  0
  190.8680  175.5590  136.6370 C   0  0  1  0  0  3  0  0  0  0  0  0
  187.4170  174.3610  136.5700 C   0  0  0  0  0  3  0  0  0  0  0  0
  188.7200  174.5860  136.7200 C   0  0  0  0  0  0  0  0  0  0  0  0
  189.4350  175.7310  136.1240 C   0  0  2  0  0  3  0  0  0  0  0  0
  189.4350  175.6140  134.3470 Cl  0  0  0  0  0  0  0  0  0  0  0  0
  184.5310  171.9320  136.9710 O   0  0  0  0  0  0  0  0  0  0  0  0
  186.6480  172.0930  136.2340 C   0  0  0  0  0  2  0  0  0  0  0  0
  185.4020  172.9510  136.4930 C   0  0  2  0  0  0  0  0  0  0  0  0
  186.7440  173.1910  137.2010 C   0  0  2  0  0  3  0  0  0  0  0  0
  184.5870  173.0650  137.7480 C   0  0  0  0  0  2  0  0  0  0  0  0
  192.8600  176.4360  138.3620 S   0  0  0  0  0  0  0  0  0  0  0  0
  193.7810  176.1700  136.8200 C   0  0  0  0  0  2  0  0  0  0  0  0
  194.3590  174.8310  136.8150 N   0  0  0  0  0  2  0  0  0  0  0  0
  195.8150  174.9210  136.7030 C   0  0  1  0  0  3  0  0  0  0  0  0
  196.1810  176.0620  135.9860 O   0  0  0  0  0  1  0  0  0  0  0  0
  196.2620  173.6280  138.4420 C   0  0  0  0  0  1  0  0  0  0  0  0
  196.4180  174.9280  137.9640 O   0  0  0  0  0  0  0  0  0  0  0  0
  1 33  1  1  0  0  0
  1  9  1  0  0  0  0
  3 16  1  0  0  0  0
  3  2  1  0  0  0  0
  4 11  1  0  0  0  0
  4  8  1  0  0  0  0
  5 10  1  0  0  0  0
  6 16  2  0  0  0  0
  7 10  1  0  0  0  0
  7 15  2  0  0  0  0
  8  3  2  0  0  0  0
  9  5  2  0  0  0  0
 10  4  2  0  0  0  0
 11  6  1  1  0  0  0
 12  9  1  0  0  0  0
 12 13  2  0  0  0  0
 13  7  1  0  0  0  0
 14  2  1  0  0  0  0
 15 11  1  0  0  0  0
 16 18  1  0  0  0  0
 17  8  1  0  0  0  0
 17 14  2  0  0  0  0
 18 20  1  0  0  0  0
 20 19  1  0  0  0  0
 21 22  1  0  0  0  0
 23 22  1  0  0  0  0
 23  1  1  1  0  0  0
 24 25  2  0  0  0  0
 25 21  1  0  0  0  0
 26 27  1  6  0  0  0
 26 23  1  0  0  0  0
 26 25  1  0  0  0  0
 28 32  1  0  0  0  0
 29 31  1  0  0  0  0
 30 29  1  6  0  0  0
 30 28  1  0  0  0  0
 30 31  1  0  0  0  0
 30 32  1  0  0  0  0
 31 24  1  6  0  0  0
 34 33  1  0  0  0  0
 35 34  1  0  0  0  0
 36 37  1  1  0  0  0
 36 35  1  0  0  0  0
 36 39  1  0  0  0  0
 39 38  1  0  0  0  0
M  END
>  <MODEL>
5

>  <REMARK>
 VINA RESULT:      -8.3      4.948      8.111
  Name = 
  10 active torsions:
  status: ('A' for Active; 'I' for Inactive)
    1  A    between atoms: S_6  and  C_8
    2  A    between atoms: S_6  and  C_20
    3  A    between atoms: C_8  and  N_18
    4  A    between atoms: C_13  and  C_20
    5  A    between atoms: C_14  and  N_18
    6  A    between atoms: C_14  and  O_33
    7  A    between atoms: C_17  and  C_21
    8  A    between atoms: C_19  and  C_37
    9  A    between atoms: C_19  and  C_39
   10  A    between atoms: C_20  and  C_26
                            x       y       z     vdW  Elec       q    Type
                         _______ _______ _______ _____ _____    ______ ____

>  <TORSDO>
F 10

$$$$
=
 OpenBabel10232412113D

 39 45  0  0  1  0  0  0  0  0999 V2000
  189.8530  177.3860  143.3040 C   0  0  2  0  0  3  0  0  0  0  0  0
  183.1220  178.9090  139.7820 O   0  0  0  0  0  0  0  0  0  0  0  0
  183.2610  178.8080  141.0770 C   0  0  0  0  0  0  0  0  0  0  0  0
  184.9490  178.3980  142.7060 C   0  0  0  0  0  0  0  0  0  0  0  0
  187.4190  177.9140  142.8230 C   0  0  0  0  0  3  0  0  0  0  0  0
  182.6570  178.7800  143.4280 C   0  0  0  0  0  3  0  0  0  0  0  0
  185.8610  178.1160  144.6760 C   0  0  0  0  0  0  0  0  0  0  0  0
  184.5710  178.5490  141.3790 C   0  0  0  0  0  0  0  0  0  0  0  0
  188.4490  177.6660  143.7560 C   0  0  0  0  0  0  0  0  0  0  0  0
  186.1410  178.1380  143.3250 C   0  0  0  0  0  0  0  0  0  0  0  0
  184.0080  178.5160  143.7130 C   0  0  1  0  0  3  0  0  0  0  0  0
  188.1640  177.6460  145.1390 C   0  0  0  0  0  3  0  0  0  0  0  0
  186.8600  177.8730  145.6140 C   0  0  0  0  0  3  0  0  0  0  0  0
  184.3090  178.7230  139.2260 C   0  0  0  0  0  3  0  0  0  0  0  0
  184.5530  178.3460  144.9400 N   0  0  0  0  0  0  0  0  0  0  0  0
  182.2700  178.9270  142.0730 C   0  0  0  0  0  0  0  0  0  0  0  0
  185.2820  178.4870  140.2020 C   0  0  0  0  0  3  0  0  0  0  0  0
  180.8470  179.2130  141.7220 C   0  0  0  0  0  2  0  0  0  0  0  0
  179.9820  176.9780  141.0370 C   0  0  0  0  0  1  0  0  0  0  0  0
  180.3860  178.3560  140.5550 C   0  0  0  0  0  2  0  0  0  0  0  0
  191.8930  177.3170  140.5220 O   0  0  0  0  0  0  0  0  0  0  0  0
  191.6940  178.0680  141.7020 C   0  0  0  0  0  2  0  0  0  0  0  0
  190.1780  178.0620  141.9660 C   0  0  1  0  0  3  0  0  0  0  0  0
  190.6130  176.1290  138.8960 C   0  0  0  0  0  3  0  0  0  0  0  0
  190.7010  176.8710  139.9970 C   0  0  0  0  0  0  0  0  0  0  0  0
  189.5400  177.2940  140.8040 C   0  0  2  0  0  3  0  0  0  0  0  0
  188.5010  178.4030  139.8730 Cl  0  0  0  0  0  0  0  0  0  0  0  0
  192.3490  174.4520  135.9700 O   0  0  0  0  0  0  0  0  0  0  0  0
  191.8700  176.4610  136.8570 C   0  0  0  0  0  2  0  0  0  0  0  0
  191.3710  175.0090  136.8410 C   0  0  2  0  0  0  0  0  0  0  0  0
  191.8210  175.7240  138.1240 C   0  0  2  0  0  3  0  0  0  0  0  0
  192.1370  173.7520  137.1340 C   0  0  0  0  0  2  0  0  0  0  0  0
  190.1310  175.5810  143.2110 S   0  0  0  0  0  0  0  0  0  0  0  0
  191.5900  175.6420  144.2890 C   0  0  0  0  0  2  0  0  0  0  0  0
  191.5950  176.8900  145.0440 N   0  0  0  0  0  2  0  0  0  0  0  0
  191.6460  176.6010  146.4780 C   0  0  1  0  0  3  0  0  0  0  0  0
  190.3560  176.5180  147.0050 O   0  0  0  0  0  1  0  0  0  0  0  0
  192.7630  175.5270  148.0560 C   0  0  0  0  0  1  0  0  0  0  0  0
  192.3490  175.4200  146.7290 O   0  0  0  0  0  0  0  0  0  0  0  0
  1 33  1  6  0  0  0
  1  9  1  0  0  0  0
  2  3  1  0  0  0  0
  3  8  2  0  0  0  0
  3 16  1  0  0  0  0
  4 10  2  0  0  0  0
  4 11  1  0  0  0  0
  5 10  1  0  0  0  0
  5  9  2  0  0  0  0
  7 15  2  0  0  0  0
  7 13  1  0  0  0  0
  8  4  1  0  0  0  0
  9 12  1  0  0  0  0
 10  7  1  0  0  0  0
 11  6  1  6  0  0  0
 11 15  1  0  0  0  0
 12 13  2  0  0  0  0
 14  2  1  0  0  0  0
 14 17  2  0  0  0  0
 16  6  2  0  0  0  0
 17  8  1  0  0  0  0
 18 16  1  0  0  0  0
 20 19  1  0  0  0  0
 20 18  1  0  0  0  0
 21 22  1  0  0  0  0
 22 23  1  0  0  0  0
 23  1  1  1  0  0  0
 24 25  2  0  0  0  0
 25 21  1  0  0  0  0
 25 26  1  0  0  0  0
 26 27  1  6  0  0  0
 26 23  1  0  0  0  0
 28 30  1  0  0  0  0
 28 32  1  0  0  0  0
 29 31  1  0  0  0  0
 30 29  1  6  0  0  0
 30 32  1  0  0  0  0
 30 31  1  0  0  0  0
 31 24  1  1  0  0  0
 33 34  1  0  0  0  0
 34 35  1  0  0  0  0
 35 36  1  0  0  0  0
 36 39  1  0  0  0  0
 36 37  1  6  0  0  0
 39 38  1  0  0  0  0
M  END
>  <MODEL>
6

>  <REMARK>
 VINA RESULT:      -8.2      3.150      8.088
  Name = 
  10 active torsions:
  status: ('A' for Active; 'I' for Inactive)
    1  A    between atoms: S_6  and  C_8
    2  A    between atoms: S_6  and  C_20
    3  A    between atoms: C_8  and  N_18
    4  A    between atoms: C_13  and  C_20
    5  A    between atoms: C_14  and  N_18
    6  A    between atoms: C_14  and  O_33
    7  A    between atoms: C_17  and  C_21
    8  A    between atoms: C_19  and  C_37
    9  A    between atoms: C_19  and  C_39
   10  A    between atoms: C_20  and  C_26
                            x       y       z     vdW  Elec       q    Type
                         _______ _______ _______ _____ _____    ______ ____

>  <TORSDO>
F 10

$$$$
=
 OpenBabel10232412113D

 39 45  0  0  1  0  0  0  0  0999 V2000
  189.8500  177.5350  138.3420 C   0  0  2  0  0  3  0  0  0  0  0  0
  186.9840  177.2660  145.5350 O   0  0  0  0  0  0  0  0  0  0  0  0
  188.2600  177.2290  145.2560 C   0  0  0  0  0  0  0  0  0  0  0  0
  189.7200  177.2850  143.3770 C   0  0  0  0  0  0  0  0  0  0  0  0
  189.6020  177.4310  140.8640 C   0  0  0  0  0  3  0  0  0  0  0  0
  190.6570  177.1000  145.6150 C   0  0  0  0  0  3  0  0  0  0  0  0
  191.5950  177.2780  142.2460 C   0  0  0  0  0  0  0  0  0  0  0  0
  188.4360  177.3090  143.9020 C   0  0  0  0  0  0  0  0  0  0  0  0
  190.4330  177.4660  139.7230 C   0  0  0  0  0  0  0  0  0  0  0  0
  190.2230  177.3410  142.1070 C   0  0  0  0  0  0  0  0  0  0  0  0
  190.8130  177.1860  144.2210 C   0  0  1  0  0  3  0  0  0  0  0  0
  191.8370  177.4040  139.8660 C   0  0  0  0  0  3  0  0  0  0  0  0
  192.4340  177.3100  141.1350 C   0  0  0  0  0  3  0  0  0  0  0  0
  186.3180  177.3690  144.3960 C   0  0  0  0  0  3  0  0  0  0  0  0
  191.9820  177.1810  143.5400 N   0  0  0  0  0  0  0  0  0  0  0  0
  189.3450  177.1180  146.1500 C   0  0  0  0  0  0  0  0  0  0  0  0
  187.1970  177.4020  143.3090 C   0  0  0  0  0  3  0  0  0  0  0  0
  189.1310  177.0350  147.6250 C   0  0  0  0  0  2  0  0  0  0  0  0
  187.5050  178.6720  148.5690 C   0  0  0  0  0  1  0  0  0  0  0  0
  188.9600  178.4180  148.2330 C   0  0  0  0  0  2  0  0  0  0  0  0
  187.1540  178.5070  136.4190 O   0  0  0  0  0  0  0  0  0  0  0  0
  188.4040  178.9970  136.8610 C   0  0  0  0  0  2  0  0  0  0  0  0
  188.6100  178.4350  138.2800 C   0  0  1  0  0  3  0  0  0  0  0  0
  185.3590  177.1520  137.2140 C   0  0  0  0  0  3  0  0  0  0  0  0
  186.5390  177.7420  137.3840 C   0  0  0  0  0  0  0  0  0  0  0  0
  187.3460  177.6380  138.6160 C   0  0  2  0  0  3  0  0  0  0  0  0
  186.5090  178.4220  139.9800 Cl  0  0  0  0  0  0  0  0  0  0  0  0
  182.8750  175.9280  134.6230 O   0  0  0  0  0  0  0  0  0  0  0  0
  183.1650  177.4570  136.2440 C   0  0  0  0  0  2  0  0  0  0  0  0
  183.6590  176.0720  135.8010 C   0  0  2  0  0  0  0  0  0  0  0  0
  184.5900  177.2850  135.9450 C   0  0  2  0  0  3  0  0  0  0  0  0
  184.2140  175.6570  134.4710 C   0  0  0  0  0  2  0  0  0  0  0  0
  189.4680  175.8500  137.7420 S   0  0  0  0  0  0  0  0  0  0  0  0
  190.4940  176.0310  136.2550 C   0  0  0  0  0  2  0  0  0  0  0  0
  191.9020  175.8930  136.6070 N   0  0  0  0  0  2  0  0  0  0  0  0
  192.1040  174.6580  137.3660 C   0  0  1  0  0  3  0  0  0  0  0  0
  192.0610  173.5500  136.5160 O   0  0  0  0  0  1  0  0  0  0  0  0
  194.2850  174.3910  137.1040 C   0  0  0  0  0  1  0  0  0  0  0  0
  193.3160  174.6860  138.0620 O   0  0  0  0  0  0  0  0  0  0  0  0
  1 33  1  1  0  0  0
  1  9  1  0  0  0  0
  3  2  1  0  0  0  0
  3 16  1  0  0  0  0
  4  8  1  0  0  0  0
  4 11  1  0  0  0  0
  5 10  1  0  0  0  0
  6 16  2  0  0  0  0
  7 15  2  0  0  0  0
  8  3  2  0  0  0  0
  9 12  1  0  0  0  0
  9  5  2  0  0  0  0
 10  7  1  0  0  0  0
 10  4  2  0  0  0  0
 11  6  1  6  0  0  0
 12 13  2  0  0  0  0
 13  7  1  0  0  0  0
 14  2  1  0  0  0  0
 15 11  1  0  0  0  0
 16 18  1  0  0  0  0
 17  8  1  0  0  0  0
 17 14  2  0  0  0  0
 18 20  1  0  0  0  0
 20 19  1  0  0  0  0
 21 22  1  0  0  0  0
 21 25  1  0  0  0  0
 22 23  1  0  0  0  0
 23  1  1  6  0  0  0
 23 26  1  0  0  0  0
 24 25  2  0  0  0  0
 25 26  1  0  0  0  0
 26 27  1  1  0  0  0
 28 30  1  0  0  0  0
 30 32  1  1  0  0  0
 30 31  1  0  0  0  0
 30 29  1  0  0  0  0
 31 29  1  0  0  0  0
 31 24  1  1  0  0  0
 32 28  1  0  0  0  0
 34 35  1  0  0  0  0
 34 33  1  0  0  0  0
 35 36  1  0  0  0  0
 36 37  1  6  0  0  0
 36 39  1  0  0  0  0
 38 39  1  0  0  0  0
M  END
>  <MODEL>
7

>  <REMARK>
 VINA RESULT:      -8.1      3.890      6.580
  Name = 
  10 active torsions:
  status: ('A' for Active; 'I' for Inactive)
    1  A    between atoms: S_6  and  C_8
    2  A    between atoms: S_6  and  C_20
    3  A    between atoms: C_8  and  N_18
    4  A    between atoms: C_13  and  C_20
    5  A    between atoms: C_14  and  N_18
    6  A    between atoms: C_14  and  O_33
    7  A    between atoms: C_17  and  C_21
    8  A    between atoms: C_19  and  C_37
    9  A    between atoms: C_19  and  C_39
   10  A    between atoms: C_20  and  C_26
                            x       y       z     vdW  Elec       q    Type
                         _______ _______ _______ _____ _____    ______ ____

>  <TORSDO>
F 10

$$$$
=
 OpenBabel10232412113D

 39 45  0  0  1  0  0  0  0  0999 V2000
  188.9390  177.2190  138.0800 C   0  0  2  0  0  3  0  0  0  0  0  0
  187.2790  177.2840  145.6480 O   0  0  0  0  0  0  0  0  0  0  0  0
  188.4940  177.2850  145.1680 C   0  0  0  0  0  0  0  0  0  0  0  0
  189.6300  177.2850  143.0750 C   0  0  0  0  0  0  0  0  0  0  0  0
  189.1040  177.2660  140.6110 C   0  0  0  0  0  3  0  0  0  0  0  0
  190.9210  177.2850  145.1380 C   0  0  0  0  0  3  0  0  0  0  0  0
  191.2970  177.2900  141.6560 C   0  0  0  0  0  0  0  0  0  0  0  0
  188.4460  177.2870  143.8000 C   0  0  0  0  0  0  0  0  0  0  0  0
  189.7390  177.2650  139.3500 C   0  0  0  0  0  0  0  0  0  0  0  0
  189.9190  177.2830  141.7390 C   0  0  0  0  0  0  0  0  0  0  0  0
  190.8470  177.2890  143.7340 C   0  0  1  0  0  3  0  0  0  0  0  0
  191.1490  177.2740  139.2650 C   0  0  0  0  0  3  0  0  0  0  0  0
  191.9450  177.2870  140.4240 C   0  0  0  0  0  3  0  0  0  0  0  0
  186.4340  177.2840  144.6280 C   0  0  0  0  0  3  0  0  0  0  0  0
  191.8910  177.2930  142.8740 N   0  0  0  0  0  0  0  0  0  0  0  0
  189.7120  177.2800  145.8770 C   0  0  0  0  0  0  0  0  0  0  0  0
  187.1250  177.2870  143.4120 C   0  0  0  0  0  3  0  0  0  0  0  0
  189.7420  177.2820  147.3700 C   0  0  0  0  0  2  0  0  0  0  0  0
  187.9830  178.0330  148.9690 C   0  0  0  0  0  1  0  0  0  0  0  0
  188.9920  178.4790  147.9320 C   0  0  0  0  0  2  0  0  0  0  0  0
  191.7620  176.1740  136.3930 O   0  0  0  0  0  0  0  0  0  0  0  0
  190.5460  176.8550  136.1560 C   0  0  0  0  0  2  0  0  0  0  0  0
  189.5000  176.2030  137.0770 C   0  0  1  0  0  3  0  0  0  0  0  0
  192.6000  174.3810  137.7250 C   0  0  0  0  0  3  0  0  0  0  0  0
  191.6050  175.1640  137.3150 C   0  0  0  0  0  0  0  0  0  0  0  0
  190.2170  175.0640  137.8070 C   0  0  2  0  0  3  0  0  0  0  0  0
  189.4910  173.5120  137.3200 Cl  0  0  0  0  0  0  0  0  0  0  0  0
  196.1330  173.1480  137.1050 O   0  0  0  0  0  0  0  0  0  0  0  0
  194.1920  173.6150  136.0730 C   0  0  0  0  0  2  0  0  0  0  0  0
  194.7540  173.2260  137.4480 C   0  0  2  0  0  0  0  0  0  0  0  0
  193.9860  174.5320  137.1990 C   0  0  2  0  0  3  0  0  0  0  0  0
  195.8510  173.8830  138.2320 C   0  0  0  0  0  2  0  0  0  0  0  0
  188.8470  178.8890  137.3410 S   0  0  0  0  0  0  0  0  0  0  0  0
  187.0410  178.8310  137.1700 C   0  0  0  0  0  2  0  0  0  0  0  0
  186.4400  178.3760  138.4190 N   0  0  0  0  0  2  0  0  0  0  0  0
  185.0380  178.7880  138.4730 C   0  0  1  0  0  3  0  0  0  0  0  0
  184.2190  177.6960  138.7690 O   0  0  0  0  0  1  0  0  0  0  0  0
  184.8980  179.1610  140.6500 C   0  0  0  0  0  1  0  0  0  0  0  0
  184.8470  179.8040  139.4140 O   0  0  0  0  0  0  0  0  0  0  0  0
  1 33  1  6  0  0  0
  1  9  1  0  0  0  0
  3  2  1  0  0  0  0
  3 16  1  0  0  0  0
  4 11  1  0  0  0  0
  4  8  1  0  0  0  0
  5 10  1  0  0  0  0
  6 16  2  0  0  0  0
  7 10  1  0  0  0  0
  7 15  2  0  0  0  0
  8  3  2  0  0  0  0
  9  5  2  0  0  0  0
 10  4  2  0  0  0  0
 11  6  1  6  0  0  0
 12  9  1  0  0  0  0
 12 13  2  0  0  0  0
 13  7  1  0  0  0  0
 14  2  1  0  0  0  0
 15 11  1  0  0  0  0
 16 18  1  0  0  0  0
 17  8  1  0  0  0  0
 17 14  2  0  0  0  0
 18 20  1  0  0  0  0
 20 19  1  0  0  0  0
 21 25  1  0  0  0  0
 22 21  1  0  0  0  0
 22 23  1  0  0  0  0
 23 26  1  0  0  0  0
 23  1  1  1  0  0  0
 25 24  2  0  0  0  0
 25 26  1  0  0  0  0
 26 27  1  6  0  0  0
 28 30  1  0  0  0  0
 28 32  1  0  0  0  0
 29 31  1  0  0  0  0
 30 29  1  1  0  0  0
 30 32  1  0  0  0  0
 31 30  1  0  0  0  0
 31 24  1  1  0  0  0
 34 33  1  0  0  0  0
 34 35  1  0  0  0  0
 35 36  1  0  0  0  0
 36 37  1  1  0  0  0
 36 39  1  0  0  0  0
 39 38  1  0  0  0  0
M  END
>  <MODEL>
8

>  <REMARK>
 VINA RESULT:      -8.0      4.373      6.450
  Name = 
  10 active torsions:
  status: ('A' for Active; 'I' for Inactive)
    1  A    between atoms: S_6  and  C_8
    2  A    between atoms: S_6  and  C_20
    3  A    between atoms: C_8  and  N_18
    4  A    between atoms: C_13  and  C_20
    5  A    between atoms: C_14  and  N_18
    6  A    between atoms: C_14  and  O_33
    7  A    between atoms: C_17  and  C_21
    8  A    between atoms: C_19  and  C_37
    9  A    between atoms: C_19  and  C_39
   10  A    between atoms: C_20  and  C_26
                            x       y       z     vdW  Elec       q    Type
                         _______ _______ _______ _____ _____    ______ ____

>  <TORSDO>
F 10

$$$$
=
 OpenBabel10232412113D

 39 45  0  0  1  0  0  0  0  0999 V2000
  191.1780  176.6720  137.3700 C   0  0  2  0  0  3  0  0  0  0  0  0
  190.6120  176.5340  145.0960 O   0  0  0  0  0  0  0  0  0  0  0  0
  189.6880  177.0100  144.3060 C   0  0  0  0  0  0  0  0  0  0  0  0
  189.2520  177.3210  141.9850 C   0  0  0  0  0  0  0  0  0  0  0  0
  190.3560  176.9100  139.7580 C   0  0  0  0  0  3  0  0  0  0  0  0
  187.6000  178.0420  143.6200 C   0  0  0  0  0  3  0  0  0  0  0  0
  188.1800  177.9100  140.1690 C   0  0  0  0  0  0  0  0  0  0  0  0
  190.0840  176.8750  143.0030 C   0  0  0  0  0  0  0  0  0  0  0  0
  190.1370  177.0770  138.3740 C   0  0  0  0  0  0  0  0  0  0  0  0
  189.3510  177.3350  140.6220 C   0  0  0  0  0  0  0  0  0  0  0  0
  188.0280  177.8910  142.2900 C   0  0  1  0  0  3  0  0  0  0  0  0
  188.9380  177.6620  137.9100 C   0  0  0  0  0  3  0  0  0  0  0  0
  187.9430  178.0860  138.8090 C   0  0  0  0  0  3  0  0  0  0  0  0
  191.6070  176.0890  144.3440 C   0  0  0  0  0  3  0  0  0  0  0  0
  187.3490  178.2610  141.1800 N   0  0  0  0  0  0  0  0  0  0  0  0
  188.4530  177.5930  144.6590 C   0  0  0  0  0  0  0  0  0  0  0  0
  191.3250  176.2800  142.9870 C   0  0  0  0  0  3  0  0  0  0  0  0
  188.0380  177.7280  146.0870 C   0  0  0  0  0  2  0  0  0  0  0  0
  185.8690  178.8500  146.5850 C   0  0  0  0  0  1  0  0  0  0  0  0
  186.5380  177.5350  146.2420 C   0  0  0  0  0  2  0  0  0  0  0  0
  192.0230  174.5460  134.7870 O   0  0  0  0  0  0  0  0  0  0  0  0
  191.3510  175.7690  135.0090 C   0  0  0  0  0  2  0  0  0  0  0  0
  190.6490  175.6340  136.3720 C   0  0  1  0  0  3  0  0  0  0  0  0
  192.3390  172.4360  135.8550 C   0  0  0  0  0  3  0  0  0  0  0  0
  191.8070  173.6560  135.8140 C   0  0  0  0  0  0  0  0  0  0  0  0
  190.9370  174.2140  136.8680 C   0  0  2  0  0  3  0  0  0  0  0  0
  189.4060  173.3080  136.9600 Cl  0  0  0  0  0  0  0  0  0  0  0  0
  195.5030  170.8000  134.5510 O   0  0  0  0  0  0  0  0  0  0  0  0
  193.2990  170.4640  134.8370 C   0  0  0  0  0  2  0  0  0  0  0  0
  194.4670  171.2910  135.3940 C   0  0  2  0  0  0  0  0  0  0  0  0
  193.2180  171.9260  134.7650 C   0  0  2  0  0  3  0  0  0  0  0  0
  195.4310  172.1690  134.6520 C   0  0  0  0  0  2  0  0  0  0  0  0
  192.6680  176.0540  138.2320 S   0  0  0  0  0  0  0  0  0  0  0  0
  193.8050  176.8590  137.0680 C   0  0  0  0  0  2  0  0  0  0  0  0
  194.7810  175.8900  136.5810 N   0  0  0  0  0  2  0  0  0  0  0  0
  195.6300  176.5110  135.5640 C   0  0  1  0  0  3  0  0  0  0  0  0
  195.3600  177.8790  135.4710 O   0  0  0  0  0  1  0  0  0  0  0  0
  197.0380  175.0340  136.4150 C   0  0  0  0  0  1  0  0  0  0  0  0
  196.9830  176.3030  135.8400 O   0  0  0  0  0  0  0  0  0  0  0  0
  1 33  1  1  0  0  0
  1  9  1  0  0  0  0
  3 16  1  0  0  0  0
  3  2  1  0  0  0  0
  4 11  1  0  0  0  0
  4  8  1  0  0  0  0
  5 10  1  0  0  0  0
  6 16  2  0  0  0  0
  7 10  1  0  0  0  0
  7 15  2  0  0  0  0
  8  3  2  0  0  0  0
  9  5  2  0  0  0  0
 10  4  2  0  0  0  0
 11  6  1  1  0  0  0
 12  9  1  0  0  0  0
 12 13  2  0  0  0  0
 13  7  1  0  0  0  0
 14  2  1  0  0  0  0
 15 11  1  0  0  0  0
 16 18  1  0  0  0  0
 17  8  1  0  0  0  0
 17 14  2  0  0  0  0
 18 20  1  0  0  0  0
 20 19  1  0  0  0  0
 21 22  1  0  0  0  0
 21 25  1  0  0  0  0
 22 23  1  0  0  0  0
 23 26  1  0  0  0  0
 23  1  1  1  0  0  0
 25 24  2  0  0  0  0
 25 26  1  0  0  0  0
 26 27  1  6  0  0  0
 28 32  1  0  0  0  0
 28 30  1  0  0  0  0
 29 30  1  0  0  0  0
 30 32  1  1  0  0  0
 31 29  1  0  0  0  0
 31 30  1  0  0  0  0
 31 24  1  1  0  0  0
 34 33  1  0  0  0  0
 35 34  1  0  0  0  0
 36 37  1  1  0  0  0
 36 39  1  0  0  0  0
 36 35  1  0  0  0  0
 39 38  1  0  0  0  0
M  END
>  <MODEL>
9

>  <REMARK>
 VINA RESULT:      -8.0      6.013      8.990
  Name = 
  10 active torsions:
  status: ('A' for Active; 'I' for Inactive)
    1  A    between atoms: S_6  and  C_8
    2  A    between atoms: S_6  and  C_20
    3  A    between atoms: C_8  and  N_18
    4  A    between atoms: C_13  and  C_20
    5  A    between atoms: C_14  and  N_18
    6  A    between atoms: C_14  and  O_33
    7  A    between atoms: C_17  and  C_21
    8  A    between atoms: C_19  and  C_37
    9  A    between atoms: C_19  and  C_39
   10  A    between atoms: C_20  and  C_26
                            x       y       z     vdW  Elec       q    Type
                         _______ _______ _______ _____ _____    ______ ____

>  <TORSDO>
F 10

$$$$
