=
 OpenBabel10232408493D

 25 26  0  0  1  0  0  0  0  0999 V2000
  187.1640  178.5210  141.7710 C   0  0  1  0  0  3  0  0  0  0  0  0
  186.4950  178.8130  140.4640 C   0  0  0  0  0  0  0  0  0  0  0  0
  187.0870  178.5210  139.3900 O   0  0  0  0  0  0  0  0  0  0  0  0
  184.6280  179.7570  139.2480 O   0  0  0  0  0  1  0  0  0  0  0  0
  185.2210  179.4550  140.4270 N   0  0  0  0  0  2  0  0  0  0  0  0
  186.3020  177.7320  142.6580 N   0  0  0  0  0  2  0  0  0  0  0  0
  184.9500  179.1180  144.2170 C   0  0  1  0  0  3  0  0  0  0  0  0
  184.7760  179.0050  145.7050 C   0  0  0  0  0  2  0  0  0  0  0  0
  186.3180  177.3440  144.9780 O   0  0  0  0  0  0  0  0  0  0  0  0
  185.7650  177.9340  146.1260 C   0  0  0  0  0  2  0  0  0  0  0  0
  186.2320  178.3330  143.9910 C   0  0  1  0  0  3  0  0  0  0  0  0
  183.7450  178.4820  143.5230 C   0  0  0  0  0  2  0  0  0  0  0  0
  181.7290  179.7460  143.3190 O   0  0  0  0  0  1  0  0  0  0  0  0
  182.4450  178.9140  144.1810 C   0  0  0  0  0  2  0  0  0  0  0  0
  188.4630  177.8820  141.5770 N   0  0  0  0  0  2  0  0  0  0  0  0
  190.4230  175.8100  143.9190 N   0  0  0  0  0  0  0  0  0  0  0  0
  189.6070  176.1710  142.8930 C   0  0  0  0  0  3  0  0  0  0  0  0
  190.9940  176.7370  144.7360 C   0  0  0  0  0  0  0  0  0  0  0  0
  189.3290  177.5190  142.6570 C   0  0  0  0  0  0  0  0  0  0  0  0
  190.7390  178.0960  144.5370 C   0  0  0  0  0  3  0  0  0  0  0  0
  189.9040  178.4860  143.4910 C   0  0  0  0  0  3  0  0  0  0  0  0
  191.8600  176.2990  145.8650 C   0  0  0  0  0  2  0  0  0  0  0  0
  191.3440  176.8810  147.1670 C   0  0  0  0  0  2  0  0  0  0  0  0
  189.8620  176.6040  147.2920 C   0  0  0  0  0  2  0  0  0  0  0  0
  189.1760  177.8020  147.9130 C   0  0  0  0  0  1  0  0  0  0  0  0
  1  2  1  6  0  0  0
  1  6  1  0  0  0  0
  3  2  2  0  0  0  0
  4  5  1  0  0  0  0
  5  2  1  0  0  0  0
  7 12  1  6  0  0  0
  7  8  1  0  0  0  0
  8 10  1  0  0  0  0
  9 10  1  0  0  0  0
 11  6  1  6  0  0  0
 11  7  1  0  0  0  0
 11  9  1  0  0  0  0
 12 14  1  0  0  0  0
 13 14  1  0  0  0  0
 15  1  1  0  0  0  0
 15 19  1  0  0  0  0
 16 18  1  0  0  0  0
 17 16  2  0  0  0  0
 18 22  1  0  0  0  0
 19 17  1  0  0  0  0
 19 21  2  0  0  0  0
 20 18  2  0  0  0  0
 21 20  1  0  0  0  0
 22 23  1  0  0  0  0
 23 24  1  0  0  0  0
 24 25  1  0  0  0  0
M  END
>  <MODEL>
1

>  <REMARK>
 VINA RESULT:      -7.1      0.000      0.000
  Name = 
  10 active torsions:
  status: ('A' for Active; 'I' for Inactive)
    1  A    between atoms: C_1  and  C_10
    2  A    between atoms: C_1  and  C_21
    3  A    between atoms: C_2  and  C_24
    4  A    between atoms: C_6  and  C_11
    5  A    between atoms: C_6  and  C_20
    6  A    between atoms: C_7  and  C_21
    7  A    between atoms: N_13  and  C_24
    8  A    between atoms: N_13  and  C_25
    9  A    between atoms: C_17  and  N_22
   10  A    between atoms: N_22  and  C_24
                            x       y       z     vdW  Elec       q    Type
                         _______ _______ _______ _____ _____    ______ ____

>  <TORSDO>
F 10

$$$$
=
 OpenBabel10232408493D

 25 26  0  0  1  0  0  0  0  0999 V2000
  190.0250  176.5670  143.5230 C   0  0  1  0  0  3  0  0  0  0  0  0
  190.7260  177.0360  142.2860 C   0  0  0  0  0  0  0  0  0  0  0  0
  191.8570  177.5810  142.3870 O   0  0  0  0  0  0  0  0  0  0  0  0
  190.7150  177.3650  139.8890 O   0  0  0  0  0  1  0  0  0  0  0  0
  190.1040  176.9090  141.0070 N   0  0  0  0  0  2  0  0  0  0  0  0
  190.0910  177.5650  144.5960 N   0  0  0  0  0  2  0  0  0  0  0  0
  190.6400  177.2200  146.9950 C   0  0  1  0  0  3  0  0  0  0  0  0
  191.5670  176.2290  147.6410 C   0  0  0  0  0  2  0  0  0  0  0  0
  191.6780  175.9680  145.2770 O   0  0  0  0  0  0  0  0  0  0  0  0
  192.2730  175.5540  146.4800 C   0  0  0  0  0  2  0  0  0  0  0  0
  191.1400  177.2290  145.5600 C   0  0  1  0  0  3  0  0  0  0  0  0
  189.2040  176.7080  147.1110 C   0  0  0  0  0  2  0  0  0  0  0  0
  189.1980  178.5650  148.6140 O   0  0  0  0  0  1  0  0  0  0  0  0
  188.4140  177.5180  148.1260 C   0  0  0  0  0  2  0  0  0  0  0  0
  188.6470  176.1730  143.2410 N   0  0  0  0  0  2  0  0  0  0  0  0
  185.9430  178.6160  142.6560 N   0  0  0  0  0  0  0  0  0  0  0  0
  187.0090  177.7990  142.4410 C   0  0  0  0  0  3  0  0  0  0  0  0
  185.3440  178.7000  143.8750 C   0  0  0  0  0  0  0  0  0  0  0  0
  187.5220  177.0230  143.4820 C   0  0  0  0  0  0  0  0  0  0  0  0
  185.8280  177.9440  144.9460 C   0  0  0  0  0  3  0  0  0  0  0  0
  186.9200  177.1000  144.7450 C   0  0  0  0  0  3  0  0  0  0  0  0
  184.1970  179.6280  144.0770 C   0  0  0  0  0  2  0  0  0  0  0  0
  182.9640  178.8450  144.4820 C   0  0  0  0  0  2  0  0  0  0  0  0
  181.9320  178.9210  143.3780 C   0  0  0  0  0  2  0  0  0  0  0  0
  180.5590  178.6430  143.9510 C   0  0  0  0  0  1  0  0  0  0  0  0
  1  2  1  6  0  0  0
  1  6  1  0  0  0  0
  2  3  2  0  0  0  0
  4  5  1  0  0  0  0
  5  2  1  0  0  0  0
  7 12  1  6  0  0  0
  7  8  1  0  0  0  0
  9 11  1  0  0  0  0
  9 10  1  0  0  0  0
 10  8  1  0  0  0  0
 11  6  1  6  0  0  0
 11  7  1  0  0  0  0
 12 14  1  0  0  0  0
 14 13  1  0  0  0  0
 15 19  1  0  0  0  0
 15  1  1  0  0  0  0
 16 18  1  0  0  0  0
 17 16  2  0  0  0  0
 17 19  1  0  0  0  0
 18 22  1  0  0  0  0
 18 20  2  0  0  0  0
 19 21  2  0  0  0  0
 21 20  1  0  0  0  0
 22 23  1  0  0  0  0
 24 25  1  0  0  0  0
 24 23  1  0  0  0  0
M  END
>  <MODEL>
2

>  <REMARK>
 VINA RESULT:      -7.1      2.878      6.346
  Name = 
  10 active torsions:
  status: ('A' for Active; 'I' for Inactive)
    1  A    between atoms: C_1  and  C_10
    2  A    between atoms: C_1  and  C_21
    3  A    between atoms: C_2  and  C_24
    4  A    between atoms: C_6  and  C_11
    5  A    between atoms: C_6  and  C_20
    6  A    between atoms: C_7  and  C_21
    7  A    between atoms: N_13  and  C_24
    8  A    between atoms: N_13  and  C_25
    9  A    between atoms: C_17  and  N_22
   10  A    between atoms: N_22  and  C_24
                            x       y       z     vdW  Elec       q    Type
                         _______ _______ _______ _____ _____    ______ ____

>  <TORSDO>
F 10

$$$$
=
 OpenBabel10232408493D

 25 26  0  0  1  0  0  0  0  0999 V2000
  188.3550  178.5250  140.7400 C   0  0  1  0  0  3  0  0  0  0  0  0
  188.3990  178.2570  139.2670 C   0  0  0  0  0  0  0  0  0  0  0  0
  188.1030  177.1100  138.8390 O   0  0  0  0  0  0  0  0  0  0  0  0
  188.8940  179.0300  137.0290 O   0  0  0  0  0  1  0  0  0  0  0  0
  188.8150  179.2750  138.3570 N   0  0  0  0  0  2  0  0  0  0  0  0
  187.1730  179.3080  141.1150 N   0  0  0  0  0  2  0  0  0  0  0  0
  185.0620  178.2110  141.8350 C   0  0  1  0  0  3  0  0  0  0  0  0
  183.6940  178.2500  141.2150 C   0  0  0  0  0  2  0  0  0  0  0  0
  185.1960  179.4960  139.8520 O   0  0  0  0  0  0  0  0  0  0  0  0
  183.8890  178.9850  139.9020 C   0  0  0  0  0  2  0  0  0  0  0  0
  185.9450  178.6450  140.6750 C   0  0  1  0  0  3  0  0  0  0  0  0
  185.1090  179.1960  143.0040 C   0  0  0  0  0  2  0  0  0  0  0  0
  184.6180  179.4100  145.3320 O   0  0  0  0  0  1  0  0  0  0  0  0
  184.3040  178.6790  144.1860 C   0  0  0  0  0  2  0  0  0  0  0  0
  188.4450  177.2870  141.5110 N   0  0  0  0  0  2  0  0  0  0  0  0
  190.4420  177.4780  144.6080 N   0  0  0  0  0  0  0  0  0  0  0  0
  190.1000  177.5150  143.2930 C   0  0  0  0  0  3  0  0  0  0  0  0
  189.5270  177.1930  145.5750 C   0  0  0  0  0  0  0  0  0  0  0  0
  188.7860  177.2500  142.9000 C   0  0  0  0  0  0  0  0  0  0  0  0
  188.2030  176.9180  145.2250 C   0  0  0  0  0  3  0  0  0  0  0  0
  187.8330  176.9500  143.8800 C   0  0  0  0  0  3  0  0  0  0  0  0
  189.9470  177.1360  147.0020 C   0  0  0  0  0  2  0  0  0  0  0  0
  188.7450  176.8590  147.8840 C   0  0  0  0  0  2  0  0  0  0  0  0
  188.3890  178.1100  148.6580 C   0  0  0  0  0  2  0  0  0  0  0  0
  187.1280  178.7170  148.0820 C   0  0  0  0  0  1  0  0  0  0  0  0
  1  2  1  6  0  0  0
  1  6  1  0  0  0  0
  1 15  1  0  0  0  0
  3  2  2  0  0  0  0
  4  5  1  0  0  0  0
  5  2  1  0  0  0  0
  7 12  1  1  0  0  0
  8  7  1  0  0  0  0
  9 10  1  0  0  0  0
  9 11  1  0  0  0  0
 10  8  1  0  0  0  0
 11  6  1  1  0  0  0
 11  7  1  0  0  0  0
 12 14  1  0  0  0  0
 14 13  1  0  0  0  0
 15 19  1  0  0  0  0
 16 18  1  0  0  0  0
 17 16  2  0  0  0  0
 18 22  1  0  0  0  0
 19 17  1  0  0  0  0
 19 21  2  0  0  0  0
 20 18  2  0  0  0  0
 21 20  1  0  0  0  0
 22 23  1  0  0  0  0
 23 24  1  0  0  0  0
 25 24  1  0  0  0  0
M  END
>  <MODEL>
3

>  <REMARK>
 VINA RESULT:      -7.0      1.908      3.099
  Name = 
  10 active torsions:
  status: ('A' for Active; 'I' for Inactive)
    1  A    between atoms: C_1  and  C_10
    2  A    between atoms: C_1  and  C_21
    3  A    between atoms: C_2  and  C_24
    4  A    between atoms: C_6  and  C_11
    5  A    between atoms: C_6  and  C_20
    6  A    between atoms: C_7  and  C_21
    7  A    between atoms: N_13  and  C_24
    8  A    between atoms: N_13  and  C_25
    9  A    between atoms: C_17  and  N_22
   10  A    between atoms: N_22  and  C_24
                            x       y       z     vdW  Elec       q    Type
                         _______ _______ _______ _____ _____    ______ ____

>  <TORSDO>
F 10

$$$$
=
 OpenBabel10232408493D

 25 26  0  0  1  0  0  0  0  0999 V2000
  190.8280  176.9310  146.9020 C   0  0  1  0  0  3  0  0  0  0  0  0
  191.9610  176.4810  147.7710 C   0  0  0  0  0  0  0  0  0  0  0  0
  192.4460  175.3300  147.6050 O   0  0  0  0  0  0  0  0  0  0  0  0
  193.4580  176.9090  149.6230 O   0  0  0  0  0  1  0  0  0  0  0  0
  192.4600  177.3240  148.8090 N   0  0  0  0  0  2  0  0  0  0  0  0
  190.8240  176.2350  145.6110 N   0  0  0  0  0  2  0  0  0  0  0  0
  191.3960  176.4500  143.2020 C   0  0  1  0  0  3  0  0  0  0  0  0
  191.6390  177.6790  142.3730 C   0  0  0  0  0  2  0  0  0  0  0  0
  191.2380  178.3320  144.6270 O   0  0  0  0  0  0  0  0  0  0  0  0
  191.6370  178.8210  143.3730 C   0  0  0  0  0  2  0  0  0  0  0  0
  191.5950  176.9780  144.6130 C   0  0  1  0  0  3  0  0  0  0  0  0
  189.9690  175.9580  142.9580 C   0  0  0  0  0  2  0  0  0  0  0  0
  188.0200  177.1110  142.1970 O   0  0  0  0  0  1  0  0  0  0  0  0
  189.3100  176.7290  141.8260 C   0  0  0  0  0  2  0  0  0  0  0  0
  189.5440  176.8010  147.5870 N   0  0  0  0  0  2  0  0  0  0  0  0
  186.3030  178.5610  147.4540 N   0  0  0  0  0  0  0  0  0  0  0  0
  187.4700  178.0470  147.9250 C   0  0  0  0  0  3  0  0  0  0  0  0
  185.9330  178.4130  146.1520 C   0  0  0  0  0  0  0  0  0  0  0  0
  188.3230  177.3410  147.0730 C   0  0  0  0  0  0  0  0  0  0  0  0
  186.7550  177.7110  145.2670 C   0  0  0  0  0  3  0  0  0  0  0  0
  187.9560  177.1750  145.7320 C   0  0  0  0  0  3  0  0  0  0  0  0
  184.6340  178.9670  145.6820 C   0  0  0  0  0  2  0  0  0  0  0  0
  184.7680  179.4600  144.2540 C   0  0  0  0  0  2  0  0  0  0  0  0
  183.7620  178.7470  143.3770 C   0  0  0  0  0  2  0  0  0  0  0  0
  184.4620  178.1920  142.1560 C   0  0  0  0  0  1  0  0  0  0  0  0
  1  6  1  6  0  0  0
  1 15  1  0  0  0  0
  1  2  1  0  0  0  0
  2  5  1  0  0  0  0
  3  2  2  0  0  0  0
  5  4  1  0  0  0  0
  7 12  1  1  0  0  0
  7 11  1  0  0  0  0
  8  7  1  0  0  0  0
  8 10  1  0  0  0  0
 10  9  1  0  0  0  0
 11  9  1  0  0  0  0
 11  6  1  1  0  0  0
 14 13  1  0  0  0  0
 14 12  1  0  0  0  0
 16 17  1  0  0  0  0
 18 16  2  0  0  0  0
 19 15  1  0  0  0  0
 19 17  2  0  0  0  0
 20 21  2  0  0  0  0
 20 18  1  0  0  0  0
 21 19  1  0  0  0  0
 22 18  1  0  0  0  0
 23 22  1  0  0  0  0
 24 23  1  0  0  0  0
 25 24  1  0  0  0  0
M  END
>  <MODEL>
4

>  <REMARK>
 VINA RESULT:      -6.9      3.212      7.393
  Name = 
  10 active torsions:
  status: ('A' for Active; 'I' for Inactive)
    1  A    between atoms: C_1  and  C_10
    2  A    between atoms: C_1  and  C_21
    3  A    between atoms: C_2  and  C_24
    4  A    between atoms: C_6  and  C_11
    5  A    between atoms: C_6  and  C_20
    6  A    between atoms: C_7  and  C_21
    7  A    between atoms: N_13  and  C_24
    8  A    between atoms: N_13  and  C_25
    9  A    between atoms: C_17  and  N_22
   10  A    between atoms: N_22  and  C_24
                            x       y       z     vdW  Elec       q    Type
                         _______ _______ _______ _____ _____    ______ ____

>  <TORSDO>
F 10

$$$$
=
 OpenBabel10232408493D

 25 26  0  0  1  0  0  0  0  0999 V2000
  185.8200  178.4860  145.0210 C   0  0  1  0  0  3  0  0  0  0  0  0
  185.5110  178.9510  146.4100 C   0  0  0  0  0  0  0  0  0  0  0  0
  184.5560  178.4230  147.0390 O   0  0  0  0  0  0  0  0  0  0  0  0
  185.9600  180.4640  148.2440 O   0  0  0  0  0  1  0  0  0  0  0  0
  186.2580  180.0120  147.0040 N   0  0  0  0  0  2  0  0  0  0  0  0
  186.5700  177.2250  145.0240 N   0  0  0  0  0  2  0  0  0  0  0  0
  189.0140  177.6420  145.1920 C   0  0  1  0  0  3  0  0  0  0  0  0
  190.1510  177.0520  144.4050 C   0  0  0  0  0  2  0  0  0  0  0  0
  188.0960  176.1960  143.5590 O   0  0  0  0  0  0  0  0  0  0  0  0
  189.4780  176.2380  143.3150 C   0  0  0  0  0  2  0  0  0  0  0  0
  187.8260  177.3620  144.2850 C   0  0  1  0  0  3  0  0  0  0  0  0
  188.9080  176.9170  146.5340 C   0  0  0  0  0  2  0  0  0  0  0  0
  188.0240  177.5620  148.6580 O   0  0  0  0  0  1  0  0  0  0  0  0
  188.9730  177.9000  147.6920 C   0  0  0  0  0  2  0  0  0  0  0  0
  184.6100  178.3890  144.2070 N   0  0  0  0  0  2  0  0  0  0  0  0
  185.6610  179.3500  140.8030 N   0  0  0  0  0  0  0  0  0  0  0  0
  185.6510  179.2080  142.1550 C   0  0  0  0  0  3  0  0  0  0  0  0
  184.6720  178.8320  140.0250 C   0  0  0  0  0  0  0  0  0  0  0  0
  184.6080  178.5240  142.7830 C   0  0  0  0  0  0  0  0  0  0  0  0
  183.6070  178.1440  140.6130 C   0  0  0  0  0  3  0  0  0  0  0  0
  183.5790  177.9890  141.9980 C   0  0  0  0  0  3  0  0  0  0  0  0
  184.7040  179.0330  138.5500 C   0  0  0  0  0  2  0  0  0  0  0  0
  185.2890  177.8080  137.8740 C   0  0  0  0  0  2  0  0  0  0  0  0
  186.6440  178.1490  137.2930 C   0  0  0  0  0  2  0  0  0  0  0  0
  187.7300  177.6630  138.2270 C   0  0  0  0  0  1  0  0  0  0  0  0
  1 15  1  6  0  0  0
  1  6  1  0  0  0  0
  1  2  1  0  0  0  0
  2  5  1  0  0  0  0
  2  3  2  0  0  0  0
  5  4  1  0  0  0  0
  7 12  1  1  0  0  0
  8  7  1  0  0  0  0
  9 11  1  0  0  0  0
 10  9  1  0  0  0  0
 10  8  1  0  0  0  0
 11  6  1  1  0  0  0
 11  7  1  0  0  0  0
 12 14  1  0  0  0  0
 14 13  1  0  0  0  0
 16 17  1  0  0  0  0
 17 19  2  0  0  0  0
 18 20  1  0  0  0  0
 18 16  2  0  0  0  0
 19 15  1  0  0  0  0
 20 21  2  0  0  0  0
 21 19  1  0  0  0  0
 22 18  1  0  0  0  0
 23 22  1  0  0  0  0
 24 23  1  0  0  0  0
 24 25  1  0  0  0  0
M  END
>  <MODEL>
5

>  <REMARK>
 VINA RESULT:      -6.5      2.630      7.039
  Name = 
  10 active torsions:
  status: ('A' for Active; 'I' for Inactive)
    1  A    between atoms: C_1  and  C_10
    2  A    between atoms: C_1  and  C_21
    3  A    between atoms: C_2  and  C_24
    4  A    between atoms: C_6  and  C_11
    5  A    between atoms: C_6  and  C_20
    6  A    between atoms: C_7  and  C_21
    7  A    between atoms: N_13  and  C_24
    8  A    between atoms: N_13  and  C_25
    9  A    between atoms: C_17  and  N_22
   10  A    between atoms: N_22  and  C_24
                            x       y       z     vdW  Elec       q    Type
                         _______ _______ _______ _____ _____    ______ ____

>  <TORSDO>
F 10

$$$$
=
 OpenBabel10232408493D

 25 26  0  0  1  0  0  0  0  0999 V2000
  189.6220  178.0500  145.3830 C   0  0  1  0  0  3  0  0  0  0  0  0
  190.7860  177.3300  145.9910 C   0  0  0  0  0  0  0  0  0  0  0  0
  191.9540  177.6250  145.6230 O   0  0  0  0  0  0  0  0  0  0  0  0
  191.6220  175.6080  147.4700 O   0  0  0  0  0  1  0  0  0  0  0  0
  190.5780  176.2890  146.9450 N   0  0  0  0  0  2  0  0  0  0  0  0
  189.9690  178.6460  144.0880 N   0  0  0  0  0  2  0  0  0  0  0  0
  189.4700  177.3730  142.0130 C   0  0  1  0  0  3  0  0  0  0  0  0
  190.3890  176.9180  140.9140 C   0  0  0  0  0  2  0  0  0  0  0  0
  191.6740  178.0020  142.6000 O   0  0  0  0  0  0  0  0  0  0  0  0
  191.7810  177.2510  141.4190 C   0  0  0  0  0  2  0  0  0  0  0  0
  190.4430  177.6250  143.1530 C   0  0  1  0  0  3  0  0  0  0  0  0
  188.7500  178.6460  141.5660 C   0  0  0  0  0  2  0  0  0  0  0  0
  188.5070  178.8060  139.1960 O   0  0  0  0  0  1  0  0  0  0  0  0
  187.8660  178.3790  140.3590 C   0  0  0  0  0  2  0  0  0  0  0  0
  188.4520  177.1820  145.2790 N   0  0  0  0  0  2  0  0  0  0  0  0
  185.1740  178.6500  146.1280 N   0  0  0  0  0  0  0  0  0  0  0  0
  186.4440  178.1800  146.2490 C   0  0  0  0  0  3  0  0  0  0  0  0
  184.5250  178.6510  144.9310 C   0  0  0  0  0  0  0  0  0  0  0  0
  187.1170  177.6770  145.1330 C   0  0  0  0  0  0  0  0  0  0  0  0
  185.1610  178.1530  143.7910 C   0  0  0  0  0  3  0  0  0  0  0  0
  186.4640  177.6670  143.8950 C   0  0  0  0  0  3  0  0  0  0  0  0
  183.1240  179.1480  144.8460 C   0  0  0  0  0  2  0  0  0  0  0  0
  182.5310  178.7920  143.4970 C   0  0  0  0  0  2  0  0  0  0  0  0
  181.0250  178.9330  143.5540 C   0  0  0  0  0  2  0  0  0  0  0  0
  180.5150  179.4380  142.2220 C   0  0  0  0  0  1  0  0  0  0  0  0
  1  6  1  6  0  0  0
  1  2  1  0  0  0  0
  2  5  1  0  0  0  0
  3  2  2  0  0  0  0
  5  4  1  0  0  0  0
  7 12  1  6  0  0  0
  7 11  1  0  0  0  0
  8 10  1  0  0  0  0
  8  7  1  0  0  0  0
  9 11  1  0  0  0  0
 10  9  1  0  0  0  0
 11  6  1  1  0  0  0
 13 14  1  0  0  0  0
 14 12  1  0  0  0  0
 15  1  1  0  0  0  0
 16 17  1  0  0  0  0
 18 16  2  0  0  0  0
 19 15  1  0  0  0  0
 19 17  2  0  0  0  0
 20 21  2  0  0  0  0
 20 18  1  0  0  0  0
 21 19  1  0  0  0  0
 22 18  1  0  0  0  0
 23 24  1  0  0  0  0
 23 22  1  0  0  0  0
 25 24  1  0  0  0  0
M  END
>  <MODEL>
6

>  <REMARK>
 VINA RESULT:      -6.4      2.876      7.129
  Name = 
  10 active torsions:
  status: ('A' for Active; 'I' for Inactive)
    1  A    between atoms: C_1  and  C_10
    2  A    between atoms: C_1  and  C_21
    3  A    between atoms: C_2  and  C_24
    4  A    between atoms: C_6  and  C_11
    5  A    between atoms: C_6  and  C_20
    6  A    between atoms: C_7  and  C_21
    7  A    between atoms: N_13  and  C_24
    8  A    between atoms: N_13  and  C_25
    9  A    between atoms: C_17  and  N_22
   10  A    between atoms: N_22  and  C_24
                            x       y       z     vdW  Elec       q    Type
                         _______ _______ _______ _____ _____    ______ ____

>  <TORSDO>
F 10

$$$$
=
 OpenBabel10232408493D

 25 26  0  0  1  0  0  0  0  0999 V2000
  189.9190  177.1680  144.3170 C   0  0  1  0  0  3  0  0  0  0  0  0
  191.0960  176.5580  145.0120 C   0  0  0  0  0  0  0  0  0  0  0  0
  191.8380  175.7580  144.3820 O   0  0  0  0  0  0  0  0  0  0  0  0
  192.3940  176.2620  147.0320 O   0  0  0  0  0  1  0  0  0  0  0  0
  191.3550  176.8400  146.3870 N   0  0  0  0  0  2  0  0  0  0  0  0
  189.0770  177.9320  145.2440 N   0  0  0  0  0  2  0  0  0  0  0  0
  186.9660  177.4650  146.4700 C   0  0  1  0  0  3  0  0  0  0  0  0
  185.5420  177.7540  146.0860 C   0  0  0  0  0  2  0  0  0  0  0  0
  186.9760  178.4330  144.3110 O   0  0  0  0  0  0  0  0  0  0  0  0
  185.6270  178.2590  144.6570 C   0  0  0  0  0  2  0  0  0  0  0  0
  187.6740  177.5330  145.1260 C   0  0  1  0  0  3  0  0  0  0  0  0
  187.4500  178.5430  147.4410 C   0  0  0  0  0  2  0  0  0  0  0  0
  189.4620  178.3160  148.7070 O   0  0  0  0  0  1  0  0  0  0  0  0
  188.1250  177.9220  148.6530 C   0  0  0  0  0  2  0  0  0  0  0  0
  190.3330  177.9800  143.1750 N   0  0  0  0  0  2  0  0  0  0  0  0
  188.2110  177.9050  140.1570 N   0  0  0  0  0  0  0  0  0  0  0  0
  188.6360  178.1440  141.4260 C   0  0  0  0  0  3  0  0  0  0  0  0
  188.9990  177.2650  139.2500 C   0  0  0  0  0  0  0  0  0  0  0  0
  189.9040  177.7260  141.8340 C   0  0  0  0  0  0  0  0  0  0  0  0
  190.2730  176.8260  139.6180 C   0  0  0  0  0  3  0  0  0  0  0  0
  190.7260  177.0610  140.9160 C   0  0  0  0  0  3  0  0  0  0  0  0
  188.4860  176.9970  137.8780 C   0  0  0  0  0  2  0  0  0  0  0  0
  187.7760  178.2250  137.3440 C   0  0  0  0  0  2  0  0  0  0  0  0
  186.3790  177.8470  136.8990 C   0  0  0  0  0  2  0  0  0  0  0  0
  185.3930  178.1790  137.9980 C   0  0  0  0  0  1  0  0  0  0  0  0
  1 15  1  6  0  0  0
  1  2  1  0  0  0  0
  1  6  1  0  0  0  0
  2  5  1  0  0  0  0
  3  2  2  0  0  0  0
  5  4  1  0  0  0  0
  7 12  1  1  0  0  0
  8  7  1  0  0  0  0
  9 10  1  0  0  0  0
  9 11  1  0  0  0  0
 10  8  1  0  0  0  0
 11  6  1  1  0  0  0
 11  7  1  0  0  0  0
 12 14  1  0  0  0  0
 14 13  1  0  0  0  0
 16 17  1  0  0  0  0
 17 19  2  0  0  0  0
 18 20  1  0  0  0  0
 18 16  2  0  0  0  0
 19 15  1  0  0  0  0
 20 21  2  0  0  0  0
 21 19  1  0  0  0  0
 22 18  1  0  0  0  0
 23 22  1  0  0  0  0
 24 23  1  0  0  0  0
 24 25  1  0  0  0  0
M  END
>  <MODEL>
7

>  <REMARK>
 VINA RESULT:      -6.3      2.940      6.541
  Name = 
  10 active torsions:
  status: ('A' for Active; 'I' for Inactive)
    1  A    between atoms: C_1  and  C_10
    2  A    between atoms: C_1  and  C_21
    3  A    between atoms: C_2  and  C_24
    4  A    between atoms: C_6  and  C_11
    5  A    between atoms: C_6  and  C_20
    6  A    between atoms: C_7  and  C_21
    7  A    between atoms: N_13  and  C_24
    8  A    between atoms: N_13  and  C_25
    9  A    between atoms: C_17  and  N_22
   10  A    between atoms: N_22  and  C_24
                            x       y       z     vdW  Elec       q    Type
                         _______ _______ _______ _____ _____    ______ ____

>  <TORSDO>
F 10

$$$$
=
 OpenBabel10232408493D

 25 26  0  0  1  0  0  0  0  0999 V2000
  185.4150  179.0810  141.5050 C   0  0  1  0  0  3  0  0  0  0  0  0
  186.6540  178.7850  140.7180 C   0  0  0  0  0  0  0  0  0  0  0  0
  187.7710  178.7890  141.3020 O   0  0  0  0  0  0  0  0  0  0  0  0
  187.7030  178.3160  138.5890 O   0  0  0  0  0  1  0  0  0  0  0  0
  186.5830  178.5460  139.3130 N   0  0  0  0  0  2  0  0  0  0  0  0
  184.2550  179.2910  140.6320 N   0  0  0  0  0  2  0  0  0  0  0  0
  181.8360  178.7350  140.7560 C   0  0  1  0  0  3  0  0  0  0  0  0
  181.0950  177.5280  140.2540 C   0  0  0  0  0  2  0  0  0  0  0  0
  183.4190  177.2470  139.8200 O   0  0  0  0  0  0  0  0  0  0  0  0
  182.1830  176.5820  139.7810 C   0  0  0  0  0  2  0  0  0  0  0  0
  183.2670  178.2260  140.8100 C   0  0  1  0  0  3  0  0  0  0  0  0
  181.6600  179.8800  139.7580 C   0  0  0  0  0  2  0  0  0  0  0  0
  179.9820  180.6860  141.2540 O   0  0  0  0  0  1  0  0  0  0  0  0
  180.2920  180.5270  139.9040 C   0  0  0  0  0  2  0  0  0  0  0  0
  185.1550  178.0470  142.5030 N   0  0  0  0  0  2  0  0  0  0  0  0
  185.4640  179.0610  146.0380 N   0  0  0  0  0  0  0  0  0  0  0  0
  185.0160  178.9790  144.7570 C   0  0  0  0  0  3  0  0  0  0  0  0
  186.5130  178.3120  146.4760 C   0  0  0  0  0  0  0  0  0  0  0  0
  185.6350  178.1170  143.8490 C   0  0  0  0  0  0  0  0  0  0  0  0
  187.1640  177.4400  145.5990 C   0  0  0  0  0  3  0  0  0  0  0  0
  186.7190  177.3420  144.2810 C   0  0  0  0  0  3  0  0  0  0  0  0
  186.9910  178.4510  147.8790 C   0  0  0  0  0  2  0  0  0  0  0  0
  188.0200  177.3800  148.1830 C   0  0  0  0  0  2  0  0  0  0  0  0
  189.3970  178.0050  148.2440 C   0  0  0  0  0  2  0  0  0  0  0  0
  190.3730  177.1530  147.4620 C   0  0  0  0  0  1  0  0  0  0  0  0
  1  6  1  6  0  0  0
  1 15  1  0  0  0  0
  2  3  2  0  0  0  0
  2  1  1  0  0  0  0
  4  5  1  0  0  0  0
  5  2  1  0  0  0  0
  7 12  1  6  0  0  0
  7 11  1  0  0  0  0
  8  7  1  0  0  0  0
  9 11  1  0  0  0  0
 10  9  1  0  0  0  0
 10  8  1  0  0  0  0
 11  6  1  6  0  0  0
 12 14  1  0  0  0  0
 14 13  1  0  0  0  0
 15 19  1  0  0  0  0
 16 18  1  0  0  0  0
 17 16  2  0  0  0  0
 18 22  1  0  0  0  0
 19 21  2  0  0  0  0
 19 17  1  0  0  0  0
 20 18  2  0  0  0  0
 21 20  1  0  0  0  0
 22 23  1  0  0  0  0
 23 24  1  0  0  0  0
 25 24  1  0  0  0  0
M  END
>  <MODEL>
8

>  <REMARK>
 VINA RESULT:      -6.3      2.534      4.317
  Name = 
  10 active torsions:
  status: ('A' for Active; 'I' for Inactive)
    1  A    between atoms: C_1  and  C_10
    2  A    between atoms: C_1  and  C_21
    3  A    between atoms: C_2  and  C_24
    4  A    between atoms: C_6  and  C_11
    5  A    between atoms: C_6  and  C_20
    6  A    between atoms: C_7  and  C_21
    7  A    between atoms: N_13  and  C_24
    8  A    between atoms: N_13  and  C_25
    9  A    between atoms: C_17  and  N_22
   10  A    between atoms: N_22  and  C_24
                            x       y       z     vdW  Elec       q    Type
                         _______ _______ _______ _____ _____    ______ ____

>  <TORSDO>
F 10

$$$$
=
 OpenBabel10232408493D

 25 26  0  0  1  0  0  0  0  0999 V2000
  189.5130  177.6930  143.3550 C   0  0  1  0  0  3  0  0  0  0  0  0
  190.7170  177.8000  144.2380 C   0  0  0  0  0  0  0  0  0  0  0  0
  191.6070  178.6490  143.9680 O   0  0  0  0  0  0  0  0  0  0  0  0
  191.9850  176.9850  146.1310 O   0  0  0  0  0  1  0  0  0  0  0  0
  190.8810  176.9210  145.3510 N   0  0  0  0  0  2  0  0  0  0  0  0
  189.8410  177.0860  142.0600 N   0  0  0  0  0  2  0  0  0  0  0  0
  190.3200  177.9060  139.7630 C   0  0  1  0  0  3  0  0  0  0  0  0
  189.3820  178.1840  138.6220 C   0  0  0  0  0  2  0  0  0  0  0  0
  188.1130  177.5130  140.5210 O   0  0  0  0  0  0  0  0  0  0  0  0
  187.9970  178.0240  139.2180 C   0  0  0  0  0  2  0  0  0  0  0  0
  189.3780  177.9280  140.9560 C   0  0  1  0  0  3  0  0  0  0  0  0
  190.9670  176.5360  139.5550 C   0  0  0  0  0  2  0  0  0  0  0  0
  190.8460  174.6800  138.0570 O   0  0  0  0  0  1  0  0  0  0  0  0
  190.8180  176.0740  138.1150 C   0  0  0  0  0  2  0  0  0  0  0  0
  188.4230  176.9820  144.0190 N   0  0  0  0  0  2  0  0  0  0  0  0
  185.0750  178.2630  143.1400 N   0  0  0  0  0  0  0  0  0  0  0  0
  186.3280  177.7460  143.0230 C   0  0  0  0  0  3  0  0  0  0  0  0
  184.5410  178.5680  144.3550 C   0  0  0  0  0  0  0  0  0  0  0  0
  187.1050  177.5200  144.1610 C   0  0  0  0  0  0  0  0  0  0  0  0
  185.2860  178.3620  145.5180 C   0  0  0  0  0  3  0  0  0  0  0  0
  186.5730  177.8330  145.4180 C   0  0  0  0  0  3  0  0  0  0  0  0
  183.1770  179.1580  144.4390 C   0  0  0  0  0  2  0  0  0  0  0  0
  182.5040  179.1010  143.0810 C   0  0  0  0  0  2  0  0  0  0  0  0
  181.0380  179.4460  143.2290 C   0  0  0  0  0  2  0  0  0  0  0  0
  180.3620  178.4100  144.0990 C   0  0  0  0  0  1  0  0  0  0  0  0
  1  6  1  6  0  0  0
  1 15  1  0  0  0  0
  1  2  1  0  0  0  0
  2  5  1  0  0  0  0
  3  2  2  0  0  0  0
  5  4  1  0  0  0  0
  7 12  1  6  0  0  0
  7 11  1  0  0  0  0
  8 10  1  0  0  0  0
  8  7  1  0  0  0  0
  9 11  1  0  0  0  0
 10  9  1  0  0  0  0
 11  6  1  1  0  0  0
 13 14  1  0  0  0  0
 14 12  1  0  0  0  0
 15 19  1  0  0  0  0
 16 18  1  0  0  0  0
 17 16  2  0  0  0  0
 17 19  1  0  0  0  0
 18 22  1  0  0  0  0
 18 20  2  0  0  0  0
 19 21  2  0  0  0  0
 21 20  1  0  0  0  0
 23 24  1  0  0  0  0
 23 22  1  0  0  0  0
 24 25  1  0  0  0  0
M  END
>  <MODEL>
9

>  <REMARK>
 VINA RESULT:      -6.3      2.786      7.329
  Name = 
  10 active torsions:
  status: ('A' for Active; 'I' for Inactive)
    1  A    between atoms: C_1  and  C_10
    2  A    between atoms: C_1  and  C_21
    3  A    between atoms: C_2  and  C_24
    4  A    between atoms: C_6  and  C_11
    5  A    between atoms: C_6  and  C_20
    6  A    between atoms: C_7  and  C_21
    7  A    between atoms: N_13  and  C_24
    8  A    between atoms: N_13  and  C_25
    9  A    between atoms: C_17  and  N_22
   10  A    between atoms: N_22  and  C_24
                            x       y       z     vdW  Elec       q    Type
                         _______ _______ _______ _____ _____    ______ ____

>  <TORSDO>
F 10

$$$$
