=
 OpenBabel10232410003D

 26 28  0  0  1  0  0  0  0  0999 V2000
  188.6470  177.8170  141.0540 N   0  0  0  0  0  2  0  0  0  0  0  0
  190.7570  177.6490  140.0630 O   0  0  0  0  0  0  0  0  0  0  0  0
  189.5290  177.8990  139.9310 C   0  0  0  0  0  0  0  0  0  0  0  0
  189.7510  177.2680  137.2590 S   0  0  0  0  0  0  0  0  0  0  0  0
  189.0040  178.3040  138.5930 C   0  0  1  0  0  3  0  0  0  0  0  0
  185.8510  177.1890  137.5640 N   0  0  0  0  0  0  0  0  0  0  0  0
  187.5620  178.0150  138.5040 C   0  0  0  0  0  0  0  0  0  0  0  0
  188.1380  176.4980  136.7580 C   0  0  2  0  0  3  0  0  0  0  0  0
  187.1640  177.1300  137.6220 N   0  0  0  0  0  0  0  0  0  0  0  0
  185.4570  178.0970  138.4530 N   0  0  0  0  0  0  0  0  0  0  0  0
  186.5130  178.6480  139.0540 N   0  0  0  0  0  0  0  0  0  0  0  0
  187.5840  174.3820  135.8380 C   0  0  0  0  0  1  0  0  0  0  0  0
  188.1660  175.0500  136.9930 N   0  0  0  0  0  0  0  0  0  0  0  0
  189.5570  174.6200  137.0210 C   0  0  0  0  0  1  0  0  0  0  0  0
  189.1240  177.5600  142.4070 C   0  0  1  0  0  3  0  0  0  0  0  0
  185.9590  178.1370  145.2640 C   0  0  0  0  0  3  0  0  0  0  0  0
  186.7260  177.9880  142.9710 C   0  0  0  0  0  3  0  0  0  0  0  0
  185.6900  178.1760  143.8920 C   0  0  0  0  0  0  0  0  0  0  0  0
  188.0310  177.7500  143.4160 C   0  0  0  0  0  0  0  0  0  0  0  0
  188.2960  177.7110  144.7940 C   0  0  0  0  0  3  0  0  0  0  0  0
  187.2620  177.9060  145.7160 C   0  0  0  0  0  3  0  0  0  0  0  0
  184.3060  178.4310  143.4140 C   0  0  0  0  0  1  0  0  0  0  0  0
  188.8990  175.2400  143.0070 O   0  0  0  0  0  1  0  0  0  0  0  0
  189.8030  176.1890  142.5250 C   0  0  2  0  0  3  0  0  0  0  0  0
  191.0820  176.1890  143.3680 C   0  0  0  0  0  2  0  0  0  0  0  0
  191.6890  177.4470  143.3580 O   0  0  0  0  0  1  0  0  0  0  0  0
  3  2  2  0  0  0  0
  3  1  1  0  0  0  0
  4  5  1  0  0  0  0
  5  3  1  1  0  0  0
  6  9  1  0  0  0  0
  6 10  2  0  0  0  0
  7  5  1  0  0  0  0
  7 11  2  0  0  0  0
  8 13  1  1  0  0  0
  8  4  1  0  0  0  0
  8  9  1  0  0  0  0
  9  7  1  0  0  0  0
 10 11  1  0  0  0  0
 12 13  1  0  0  0  0
 13 14  1  0  0  0  0
 15  1  1  6  0  0  0
 15 24  1  0  0  0  0
 15 19  1  0  0  0  0
 16 21  1  0  0  0  0
 17 19  2  0  0  0  0
 17 18  1  0  0  0  0
 18 16  2  0  0  0  0
 19 20  1  0  0  0  0
 20 21  2  0  0  0  0
 22 18  1  0  0  0  0
 24 23  1  1  0  0  0
 24 25  1  0  0  0  0
 26 25  1  0  0  0  0
M  END
>  <MODEL>
1

>  <REMARK>
 VINA RESULT:      -7.4      0.000      0.000
  Name = 
  6 active torsions:
  status: ('A' for Active; 'I' for Inactive)
    1  A    between atoms: C_5  and  C_26
    2  A    between atoms: C_6  and  C_16
    3  A    between atoms: C_6  and  C_18
    4  A    between atoms: N_8  and  C_10
    5  A    between atoms: N_12  and  C_16
    6  A    between atoms: C_15  and  C_16
                            x       y       z     vdW  Elec       q    Type
                         _______ _______ _______ _____ _____    ______ ____

>  <TORSDO>
F 6

$$$$
=
 OpenBabel10232410003D

 26 28  0  0  1  0  0  0  0  0999 V2000
  188.8920  178.1320  141.6150 N   0  0  0  0  0  2  0  0  0  0  0  0
  190.2920  176.7900  140.3120 O   0  0  0  0  0  0  0  0  0  0  0  0
  189.4320  177.7100  140.3600 C   0  0  0  0  0  0  0  0  0  0  0  0
  189.7640  177.5500  137.6300 S   0  0  0  0  0  0  0  0  0  0  0  0
  188.9970  178.3740  139.0950 C   0  0  1  0  0  3  0  0  0  0  0  0
  185.8540  177.6350  137.7470 N   0  0  0  0  0  0  0  0  0  0  0  0
  187.5500  178.1850  138.8940 C   0  0  0  0  0  0  0  0  0  0  0  0
  188.1460  176.9720  136.9300 C   0  0  2  0  0  3  0  0  0  0  0  0
  187.1590  177.4940  137.8500 N   0  0  0  0  0  0  0  0  0  0  0  0
  185.4570  178.3910  138.7670 N   0  0  0  0  0  0  0  0  0  0  0  0
  186.5050  178.7680  139.5020 N   0  0  0  0  0  0  0  0  0  0  0  0
  187.7830  175.0790  135.5460 C   0  0  0  0  0  1  0  0  0  0  0  0
  188.0940  175.5060  136.9030 N   0  0  0  0  0  0  0  0  0  0  0  0
  189.4330  174.9980  137.1640 C   0  0  0  0  0  1  0  0  0  0  0  0
  189.3770  177.6160  142.8890 C   0  0  1  0  0  3  0  0  0  0  0  0
  186.3850  177.8470  145.9730 C   0  0  0  0  0  3  0  0  0  0  0  0
  188.7060  177.7120  145.2970 C   0  0  0  0  0  3  0  0  0  0  0  0
  187.7410  177.7880  146.3060 C   0  0  0  0  0  0  0  0  0  0  0  0
  188.3210  177.7070  143.9520 C   0  0  0  0  0  0  0  0  0  0  0  0
  186.9580  177.7670  143.6220 C   0  0  0  0  0  3  0  0  0  0  0  0
  185.9920  177.8350  144.6310 C   0  0  0  0  0  3  0  0  0  0  0  0
  188.1560  177.7920  147.7340 C   0  0  0  0  0  1  0  0  0  0  0  0
  188.9690  175.2470  143.0180 O   0  0  0  0  0  1  0  0  0  0  0  0
  189.9540  176.2010  142.7530 C   0  0  2  0  0  3  0  0  0  0  0  0
  191.1970  175.9420  143.6100 C   0  0  0  0  0  2  0  0  0  0  0  0
  191.8970  177.1270  143.8490 O   0  0  0  0  0  1  0  0  0  0  0  0
  2  3  2  0  0  0  0
  3  1  1  0  0  0  0
  4  5  1  0  0  0  0
  5  3  1  1  0  0  0
  6  9  1  0  0  0  0
  6 10  2  0  0  0  0
  7  5  1  0  0  0  0
  7 11  2  0  0  0  0
  8 13  1  1  0  0  0
  8  4  1  0  0  0  0
  8  9  1  0  0  0  0
  9  7  1  0  0  0  0
 10 11  1  0  0  0  0
 12 13  1  0  0  0  0
 13 14  1  0  0  0  0
 15  1  1  6  0  0  0
 15 19  1  0  0  0  0
 16 18  1  0  0  0  0
 17 18  2  0  0  0  0
 18 22  1  0  0  0  0
 19 17  1  0  0  0  0
 20 19  2  0  0  0  0
 20 21  1  0  0  0  0
 21 16  2  0  0  0  0
 24 15  1  0  0  0  0
 24 23  1  1  0  0  0
 24 25  1  0  0  0  0
 25 26  1  0  0  0  0
M  END
>  <MODEL>
2

>  <REMARK>
 VINA RESULT:      -7.4      0.718      1.593
  Name = 
  6 active torsions:
  status: ('A' for Active; 'I' for Inactive)
    1  A    between atoms: C_5  and  C_26
    2  A    between atoms: C_6  and  C_16
    3  A    between atoms: C_6  and  C_18
    4  A    between atoms: N_8  and  C_10
    5  A    between atoms: N_12  and  C_16
    6  A    between atoms: C_15  and  C_16
                            x       y       z     vdW  Elec       q    Type
                         _______ _______ _______ _____ _____    ______ ____

>  <TORSDO>
F 6

$$$$
=
 OpenBabel10232410003D

 26 28  0  0  1  0  0  0  0  0999 V2000
  188.4600  177.5260  139.0890 N   0  0  0  0  0  2  0  0  0  0  0  0
  189.0400  179.5330  138.0420 O   0  0  0  0  0  0  0  0  0  0  0  0
  188.2950  178.5170  138.0710 C   0  0  0  0  0  0  0  0  0  0  0  0
  187.5560  176.9120  135.9590 S   0  0  0  0  0  0  0  0  0  0  0  0
  187.2200  178.3670  137.0460 C   0  0  1  0  0  3  0  0  0  0  0  0
  184.1790  176.8820  137.9330 N   0  0  0  0  0  0  0  0  0  0  0  0
  185.9400  178.0390  137.6960 C   0  0  0  0  0  0  0  0  0  0  0  0
  186.0470  175.9780  136.5020 C   0  0  2  0  0  3  0  0  0  0  0  0
  185.3950  176.8750  137.4310 N   0  0  0  0  0  0  0  0  0  0  0  0
  184.0090  178.0550  138.5400 N   0  0  0  0  0  0  0  0  0  0  0  0
  185.0960  178.8140  138.3960 N   0  0  0  0  0  0  0  0  0  0  0  0
  185.6070  173.6510  136.6530 C   0  0  0  0  0  1  0  0  0  0  0  0
  186.4300  174.7330  137.1760 N   0  0  0  0  0  0  0  0  0  0  0  0
  187.7910  174.4010  136.7810 C   0  0  0  0  0  1  0  0  0  0  0  0
  189.3990  177.6860  140.1920 C   0  0  1  0  0  3  0  0  0  0  0  0
  187.4840  176.9610  143.9770 C   0  0  0  0  0  3  0  0  0  0  0  0
  187.5170  178.0300  141.8040 C   0  0  0  0  0  3  0  0  0  0  0  0
  186.8870  177.8000  143.0310 C   0  0  0  0  0  0  0  0  0  0  0  0
  188.7400  177.4150  141.5130 C   0  0  0  0  0  0  0  0  0  0  0  0
  189.3350  176.5730  142.4650 C   0  0  0  0  0  3  0  0  0  0  0  0
  188.7090  176.3490  143.6960 C   0  0  0  0  0  3  0  0  0  0  0  0
  185.5880  178.4570  143.3360 C   0  0  0  0  0  1  0  0  0  0  0  0
  191.7900  177.5550  140.4400 O   0  0  0  0  0  1  0  0  0  0  0  0
  190.6710  176.8530  139.9880 C   0  0  2  0  0  3  0  0  0  0  0  0
  190.8840  176.3720  138.5490 C   0  0  0  0  0  2  0  0  0  0  0  0
  190.8400  174.9780  138.4740 O   0  0  0  0  0  1  0  0  0  0  0  0
  2  3  2  0  0  0  0
  3  1  1  0  0  0  0
  4  8  1  0  0  0  0
  4  5  1  0  0  0  0
  5  7  1  0  0  0  0
  5  3  1  1  0  0  0
  6 10  2  0  0  0  0
  7 11  2  0  0  0  0
  8 13  1  1  0  0  0
  8  9  1  0  0  0  0
  9  7  1  0  0  0  0
  9  6  1  0  0  0  0
 11 10  1  0  0  0  0
 12 13  1  0  0  0  0
 14 13  1  0  0  0  0
 15  1  1  6  0  0  0
 15 19  1  0  0  0  0
 17 18  1  0  0  0  0
 18 22  1  0  0  0  0
 18 16  2  0  0  0  0
 19 17  2  0  0  0  0
 19 20  1  0  0  0  0
 20 21  2  0  0  0  0
 21 16  1  0  0  0  0
 24 15  1  0  0  0  0
 24 23  1  6  0  0  0
 25 24  1  0  0  0  0
 26 25  1  0  0  0  0
M  END
>  <MODEL>
3

>  <REMARK>
 VINA RESULT:      -7.3      1.749      2.641
  Name = 
  6 active torsions:
  status: ('A' for Active; 'I' for Inactive)
    1  A    between atoms: C_5  and  C_26
    2  A    between atoms: C_6  and  C_16
    3  A    between atoms: C_6  and  C_18
    4  A    between atoms: N_8  and  C_10
    5  A    between atoms: N_12  and  C_16
    6  A    between atoms: C_15  and  C_16
                            x       y       z     vdW  Elec       q    Type
                         _______ _______ _______ _____ _____    ______ ____

>  <TORSDO>
F 6

$$$$
=
 OpenBabel10232410003D

 26 28  0  0  1  0  0  0  0  0999 V2000
  189.2970  176.8780  144.9850 N   0  0  0  0  0  2  0  0  0  0  0  0
  190.6190  178.4830  143.9180 O   0  0  0  0  0  0  0  0  0  0  0  0
  190.1090  177.3310  143.8980 C   0  0  0  0  0  0  0  0  0  0  0  0
  188.7950  176.2810  141.7160 S   0  0  0  0  0  0  0  0  0  0  0  0
  190.3400  176.4480  142.7160 C   0  0  1  0  0  3  0  0  0  0  0  0
  191.9250  177.7390  139.8770 N   0  0  0  0  0  0  0  0  0  0  0  0
  191.2970  177.0780  141.7900 C   0  0  0  0  0  0  0  0  0  0  0  0
  189.5080  177.1100  140.2160 C   0  0  2  0  0  3  0  0  0  0  0  0
  190.8740  177.4020  140.5920 N   0  0  0  0  0  0  0  0  0  0  0  0
  192.9890  177.6500  140.6720 N   0  0  0  0  0  0  0  0  0  0  0  0
  192.6290  177.2210  141.8820 N   0  0  0  0  0  0  0  0  0  0  0  0
  187.9570  178.1360  138.7420 C   0  0  0  0  0  1  0  0  0  0  0  0
  188.7810  178.3500  139.9230 N   0  0  0  0  0  0  0  0  0  0  0  0
  187.8380  178.5930  141.0050 C   0  0  0  0  0  1  0  0  0  0  0  0
  188.9270  177.7420  146.0980 C   0  0  1  0  0  3  0  0  0  0  0  0
  184.7170  178.6260  146.0190 C   0  0  0  0  0  3  0  0  0  0  0  0
  186.7730  178.0640  144.8690 C   0  0  0  0  0  3  0  0  0  0  0  0
  185.4040  178.3500  144.8340 C   0  0  0  0  0  0  0  0  0  0  0  0
  187.4570  178.0430  146.0900 C   0  0  0  0  0  0  0  0  0  0  0  0
  186.7630  178.3200  147.2780 C   0  0  0  0  0  3  0  0  0  0  0  0
  185.3950  178.6130  147.2410 C   0  0  0  0  0  3  0  0  0  0  0  0
  184.6820  178.3730  143.5340 C   0  0  0  0  0  1  0  0  0  0  0  0
  189.6230  178.2170  148.3530 O   0  0  0  0  0  1  0  0  0  0  0  0
  189.4050  177.1800  147.4440 C   0  0  2  0  0  3  0  0  0  0  0  0
  190.6410  176.2800  147.3480 C   0  0  0  0  0  2  0  0  0  0  0  0
  191.8150  177.0300  147.4470 O   0  0  0  0  0  1  0  0  0  0  0  0
  3  2  2  0  0  0  0
  3  1  1  0  0  0  0
  4  5  1  0  0  0  0
  5  3  1  1  0  0  0
  6  9  1  0  0  0  0
  6 10  2  0  0  0  0
  7 11  2  0  0  0  0
  7  5  1  0  0  0  0
  8 13  1  1  0  0  0
  8  9  1  0  0  0  0
  8  4  1  0  0  0  0
  9  7  1  0  0  0  0
 10 11  1  0  0  0  0
 12 13  1  0  0  0  0
 13 14  1  0  0  0  0
 15  1  1  6  0  0  0
 15 24  1  0  0  0  0
 16 21  1  0  0  0  0
 17 19  2  0  0  0  0
 18 17  1  0  0  0  0
 18 16  2  0  0  0  0
 19 15  1  0  0  0  0
 19 20  1  0  0  0  0
 21 20  2  0  0  0  0
 22 18  1  0  0  0  0
 24 23  1  1  0  0  0
 25 24  1  0  0  0  0
 25 26  1  0  0  0  0
M  END
>  <MODEL>
4

>  <REMARK>
 VINA RESULT:      -7.2      2.704      4.489
  Name = 
  6 active torsions:
  status: ('A' for Active; 'I' for Inactive)
    1  A    between atoms: C_5  and  C_26
    2  A    between atoms: C_6  and  C_16
    3  A    between atoms: C_6  and  C_18
    4  A    between atoms: N_8  and  C_10
    5  A    between atoms: N_12  and  C_16
    6  A    between atoms: C_15  and  C_16
                            x       y       z     vdW  Elec       q    Type
                         _______ _______ _______ _____ _____    ______ ____

>  <TORSDO>
F 6

$$$$
=
 OpenBabel10232410003D

 26 28  0  0  1  0  0  0  0  0999 V2000
  188.9910  177.9440  141.1100 N   0  0  0  0  0  2  0  0  0  0  0  0
  190.1330  175.9560  140.6600 O   0  0  0  0  0  0  0  0  0  0  0  0
  189.8780  177.1430  140.3250 C   0  0  0  0  0  0  0  0  0  0  0  0
  191.4820  176.4180  138.2060 S   0  0  0  0  0  0  0  0  0  0  0  0
  190.5290  177.7170  139.1100 C   0  0  1  0  0  3  0  0  0  0  0  0
  188.6390  178.2170  136.2080 N   0  0  0  0  0  0  0  0  0  0  0  0
  189.5070  178.1490  138.1410 C   0  0  0  0  0  0  0  0  0  0  0  0
  190.4220  176.4990  136.6840 C   0  0  2  0  0  3  0  0  0  0  0  0
  189.4620  177.5400  136.9800 N   0  0  0  0  0  0  0  0  0  0  0  0
  188.1570  179.2240  136.9320 N   0  0  0  0  0  0  0  0  0  0  0  0
  188.6960  179.2180  138.1520 N   0  0  0  0  0  0  0  0  0  0  0  0
  189.8170  174.8870  135.0520 C   0  0  0  0  0  1  0  0  0  0  0  0
  189.7390  175.2190  136.4670 N   0  0  0  0  0  0  0  0  0  0  0  0
  190.4960  174.1770  137.1450 C   0  0  0  0  0  1  0  0  0  0  0  0
  188.4340  177.4840  142.3760 C   0  0  1  0  0  3  0  0  0  0  0  0
  191.2330  177.9000  145.6180 C   0  0  0  0  0  3  0  0  0  0  0  0
  189.1090  177.1170  144.7560 C   0  0  0  0  0  3  0  0  0  0  0  0
  190.0130  177.2470  145.8160 C   0  0  0  0  0  0  0  0  0  0  0  0
  189.4250  177.6290  143.4930 C   0  0  0  0  0  0  0  0  0  0  0  0
  190.6520  178.2830  143.2980 C   0  0  0  0  0  3  0  0  0  0  0  0
  191.5530  178.4190  144.3600 C   0  0  0  0  0  3  0  0  0  0  0  0
  189.6710  176.7030  147.1570 C   0  0  0  0  0  1  0  0  0  0  0  0
  186.2490  177.2680  143.3640 O   0  0  0  0  0  1  0  0  0  0  0  0
  187.0910  178.1560  142.6900 C   0  0  2  0  0  3  0  0  0  0  0  0
  186.3810  178.7480  141.4690 C   0  0  0  0  0  2  0  0  0  0  0  0
  185.4760  179.7420  141.8470 O   0  0  0  0  0  1  0  0  0  0  0  0
  3  2  2  0  0  0  0
  3  1  1  0  0  0  0
  4  5  1  0  0  0  0
  5  3  1  1  0  0  0
  6 10  2  0  0  0  0
  6  9  1  0  0  0  0
  7 11  2  0  0  0  0
  7  5  1  0  0  0  0
  8 13  1  1  0  0  0
  8  9  1  0  0  0  0
  8  4  1  0  0  0  0
  9  7  1  0  0  0  0
 10 11  1  0  0  0  0
 12 13  1  0  0  0  0
 13 14  1  0  0  0  0
 15  1  1  6  0  0  0
 15 24  1  0  0  0  0
 15 19  1  0  0  0  0
 16 18  1  0  0  0  0
 17 18  2  0  0  0  0
 18 22  1  0  0  0  0
 19 17  1  0  0  0  0
 20 19  2  0  0  0  0
 20 21  1  0  0  0  0
 21 16  2  0  0  0  0
 24 23  1  6  0  0  0
 25 26  1  0  0  0  0
 25 24  1  0  0  0  0
M  END
>  <MODEL>
5

>  <REMARK>
 VINA RESULT:      -7.0      2.217      3.414
  Name = 
  6 active torsions:
  status: ('A' for Active; 'I' for Inactive)
    1  A    between atoms: C_5  and  C_26
    2  A    between atoms: C_6  and  C_16
    3  A    between atoms: C_6  and  C_18
    4  A    between atoms: N_8  and  C_10
    5  A    between atoms: N_12  and  C_16
    6  A    between atoms: C_15  and  C_16
                            x       y       z     vdW  Elec       q    Type
                         _______ _______ _______ _____ _____    ______ ____

>  <TORSDO>
F 6

$$$$
=
 OpenBabel10232410003D

 26 28  0  0  1  0  0  0  0  0999 V2000
  188.3260  178.0520  142.7450 N   0  0  0  0  0  2  0  0  0  0  0  0
  188.9700  176.0630  141.7010 O   0  0  0  0  0  0  0  0  0  0  0  0
  188.9900  177.3230  141.7080 C   0  0  0  0  0  0  0  0  0  0  0  0
  191.3090  177.1750  140.2290 S   0  0  0  0  0  0  0  0  0  0  0  0
  189.7340  178.0500  140.6380 C   0  0  1  0  0  3  0  0  0  0  0  0
  188.7660  177.6710  137.2970 N   0  0  0  0  0  0  0  0  0  0  0  0
  188.9710  178.0190  139.3780 C   0  0  0  0  0  0  0  0  0  0  0  0
  190.8040  176.7830  138.4860 C   0  0  2  0  0  3  0  0  0  0  0  0
  189.4980  177.3920  138.3540 N   0  0  0  0  0  0  0  0  0  0  0  0
  187.7650  178.4480  137.7040 N   0  0  0  0  0  0  0  0  0  0  0  0
  187.8730  178.6990  139.0100 N   0  0  0  0  0  0  0  0  0  0  0  0
  189.7260  175.0630  137.2590 C   0  0  0  0  0  1  0  0  0  0  0  0
  190.7140  175.3320  138.2930 N   0  0  0  0  0  0  0  0  0  0  0  0
  191.9790  174.8670  137.7410 C   0  0  0  0  0  1  0  0  0  0  0  0
  187.7020  177.3960  143.8860 C   0  0  1  0  0  3  0  0  0  0  0  0
  190.3300  177.3120  147.2920 C   0  0  0  0  0  3  0  0  0  0  0  0
  188.1430  177.7020  146.3290 C   0  0  0  0  0  3  0  0  0  0  0  0
  188.9890  177.6770  147.4420 C   0  0  0  0  0  0  0  0  0  0  0  0
  188.6290  177.3520  145.0650 C   0  0  0  0  0  0  0  0  0  0  0  0
  189.9760  176.9850  144.9190 C   0  0  0  0  0  3  0  0  0  0  0  0
  190.8250  176.9670  146.0310 C   0  0  0  0  0  3  0  0  0  0  0  0
  188.4680  178.0520  148.7830 C   0  0  0  0  0  1  0  0  0  0  0  0
  185.7030  177.2690  145.2220 O   0  0  0  0  0  1  0  0  0  0  0  0
  186.3420  178.0170  144.2310 C   0  0  2  0  0  3  0  0  0  0  0  0
  185.4160  178.2150  143.0270 C   0  0  0  0  0  2  0  0  0  0  0  0
  185.1710  179.5720  142.8010 O   0  0  0  0  0  1  0  0  0  0  0  0
  2  3  2  0  0  0  0
  3  1  1  0  0  0  0
  4  5  1  0  0  0  0
  5  3  1  1  0  0  0
  6 10  2  0  0  0  0
  6  9  1  0  0  0  0
  7  5  1  0  0  0  0
  8 13  1  1  0  0  0
  8  4  1  0  0  0  0
  9  8  1  0  0  0  0
  9  7  1  0  0  0  0
 10 11  1  0  0  0  0
 11  7  2  0  0  0  0
 12 13  1  0  0  0  0
 14 13  1  0  0  0  0
 15  1  1  6  0  0  0
 15 24  1  0  0  0  0
 15 19  1  0  0  0  0
 16 18  1  0  0  0  0
 17 18  2  0  0  0  0
 18 22  1  0  0  0  0
 19 17  1  0  0  0  0
 20 19  2  0  0  0  0
 20 21  1  0  0  0  0
 21 16  2  0  0  0  0
 24 23  1  1  0  0  0
 25 24  1  0  0  0  0
 26 25  1  0  0  0  0
M  END
>  <MODEL>
6

>  <REMARK>
 VINA RESULT:      -6.9      2.363      3.625
  Name = 
  6 active torsions:
  status: ('A' for Active; 'I' for Inactive)
    1  A    between atoms: C_5  and  C_26
    2  A    between atoms: C_6  and  C_16
    3  A    between atoms: C_6  and  C_18
    4  A    between atoms: N_8  and  C_10
    5  A    between atoms: N_12  and  C_16
    6  A    between atoms: C_15  and  C_16
                            x       y       z     vdW  Elec       q    Type
                         _______ _______ _______ _____ _____    ______ ____

>  <TORSDO>
F 6

$$$$
=
 OpenBabel10232410003D

 26 28  0  0  1  0  0  0  0  0999 V2000
  188.1170  178.3060  142.0840 N   0  0  0  0  0  2  0  0  0  0  0  0
  188.8170  176.2100  141.3220 O   0  0  0  0  0  0  0  0  0  0  0  0
  188.9460  177.4630  141.2790 C   0  0  0  0  0  0  0  0  0  0  0  0
  191.4820  176.9730  140.3200 S   0  0  0  0  0  0  0  0  0  0  0  0
  189.9910  178.0620  140.3960 C   0  0  1  0  0  3  0  0  0  0  0  0
  189.7040  177.7510  136.9220 N   0  0  0  0  0  0  0  0  0  0  0  0
  189.5130  178.1090  139.0030 C   0  0  0  0  0  0  0  0  0  0  0  0
  191.3060  176.6190  138.5070 C   0  0  2  0  0  3  0  0  0  0  0  0
  190.1520  177.3960  138.1080 N   0  0  0  0  0  0  0  0  0  0  0  0
  188.7560  178.6640  137.1160 N   0  0  0  0  0  0  0  0  0  0  0  0
  188.6210  178.9240  138.4180 N   0  0  0  0  0  0  0  0  0  0  0  0
  189.9450  175.0480  137.3610 C   0  0  0  0  0  1  0  0  0  0  0  0
  191.0610  175.1890  138.2860 N   0  0  0  0  0  0  0  0  0  0  0  0
  192.2090  174.6340  137.5830 C   0  0  0  0  0  1  0  0  0  0  0  0
  187.1770  177.7740  143.0620 C   0  0  1  0  0  3  0  0  0  0  0  0
  188.9890  177.5180  146.9570 C   0  0  0  0  0  3  0  0  0  0  0  0
  189.1530  177.3840  144.5440 C   0  0  0  0  0  3  0  0  0  0  0  0
  189.7510  177.2980  145.8060 C   0  0  0  0  0  0  0  0  0  0  0  0
  187.7950  177.6980  144.4270 C   0  0  0  0  0  0  0  0  0  0  0  0
  187.0330  177.9180  145.5860 C   0  0  0  0  0  3  0  0  0  0  0  0
  187.6290  177.8260  146.8480 C   0  0  0  0  0  3  0  0  0  0  0  0
  191.1940  176.9620  145.9240 C   0  0  0  0  0  1  0  0  0  0  0  0
  184.7760  177.6640  143.2130 O   0  0  0  0  0  1  0  0  0  0  0  0
  185.8500  178.5450  143.0590 C   0  0  2  0  0  3  0  0  0  0  0  0
  185.6410  179.4360  141.8310 C   0  0  0  0  0  2  0  0  0  0  0  0
  184.9350  178.7590  140.8340 O   0  0  0  0  0  1  0  0  0  0  0  0
  3  2  2  0  0  0  0
  3  1  1  0  0  0  0
  4  5  1  0  0  0  0
  5  3  1  1  0  0  0
  6 10  2  0  0  0  0
  6  9  1  0  0  0  0
  7  5  1  0  0  0  0
  8 13  1  1  0  0  0
  8  4  1  0  0  0  0
  9  8  1  0  0  0  0
  9  7  1  0  0  0  0
 10 11  1  0  0  0  0
 11  7  2  0  0  0  0
 12 13  1  0  0  0  0
 14 13  1  0  0  0  0
 15  1  1  6  0  0  0
 15 19  1  0  0  0  0
 17 18  1  0  0  0  0
 18 22  1  0  0  0  0
 18 16  2  0  0  0  0
 19 17  2  0  0  0  0
 19 20  1  0  0  0  0
 20 21  2  0  0  0  0
 21 16  1  0  0  0  0
 24 15  1  0  0  0  0
 24 23  1  6  0  0  0
 25 24  1  0  0  0  0
 26 25  1  0  0  0  0
M  END
>  <MODEL>
7

>  <REMARK>
 VINA RESULT:      -6.9      2.408      3.728
  Name = 
  6 active torsions:
  status: ('A' for Active; 'I' for Inactive)
    1  A    between atoms: C_5  and  C_26
    2  A    between atoms: C_6  and  C_16
    3  A    between atoms: C_6  and  C_18
    4  A    between atoms: N_8  and  C_10
    5  A    between atoms: N_12  and  C_16
    6  A    between atoms: C_15  and  C_16
                            x       y       z     vdW  Elec       q    Type
                         _______ _______ _______ _____ _____    ______ ____

>  <TORSDO>
F 6

$$$$
=
 OpenBabel10232410003D

 26 28  0  0  1  0  0  0  0  0999 V2000
  187.0370  178.3820  143.0330 N   0  0  0  0  0  2  0  0  0  0  0  0
  187.4710  178.4400  140.7380 O   0  0  0  0  0  0  0  0  0  0  0  0
  186.7010  178.7390  141.6890 C   0  0  0  0  0  0  0  0  0  0  0  0
  184.7930  179.0650  139.7300 S   0  0  0  0  0  0  0  0  0  0  0  0
  185.4430  179.4910  141.4060 C   0  0  1  0  0  3  0  0  0  0  0  0
  182.4170  178.3730  142.7600 N   0  0  0  0  0  0  0  0  0  0  0  0
  184.3740  179.0590  142.3230 C   0  0  0  0  0  0  0  0  0  0  0  0
  183.2310  178.2980  140.3750 C   0  0  2  0  0  3  0  0  0  0  0  0
  183.3200  178.4730  141.8080 N   0  0  0  0  0  0  0  0  0  0  0  0
  182.9550  178.8730  143.8690 N   0  0  0  0  0  0  0  0  0  0  0  0
  184.1850  179.3290  143.6250 N   0  0  0  0  0  0  0  0  0  0  0  0
  181.7880  176.4780  139.8920 C   0  0  0  0  0  1  0  0  0  0  0  0
  183.1820  176.8720  140.0350 N   0  0  0  0  0  0  0  0  0  0  0  0
  183.7650  176.6980  138.7130 C   0  0  0  0  0  1  0  0  0  0  0  0
  188.3110  177.7690  143.3850 C   0  0  1  0  0  3  0  0  0  0  0  0
  188.7220  177.2170  147.6330 C   0  0  0  0  0  3  0  0  0  0  0  0
  189.6810  177.2340  145.4080 C   0  0  0  0  0  3  0  0  0  0  0  0
  189.8240  177.0530  146.7880 C   0  0  0  0  0  0  0  0  0  0  0  0
  188.4390  177.5900  144.8690 C   0  0  0  0  0  0  0  0  0  0  0  0
  187.3360  177.7540  145.7210 C   0  0  0  0  0  3  0  0  0  0  0  0
  187.4780  177.5660  147.1000 C   0  0  0  0  0  3  0  0  0  0  0  0
  191.1450  176.6730  147.3550 C   0  0  0  0  0  1  0  0  0  0  0  0
  188.0030  175.3830  143.3000 O   0  0  0  0  0  1  0  0  0  0  0  0
  188.5540  176.4660  142.6120 C   0  0  2  0  0  3  0  0  0  0  0  0
  190.0240  176.1970  142.2760 C   0  0  0  0  0  2  0  0  0  0  0  0
  190.2640  176.3610  140.9100 O   0  0  0  0  0  1  0  0  0  0  0  0
  2  3  2  0  0  0  0
  3  1  1  0  0  0  0
  4  8  1  0  0  0  0
  4  5  1  0  0  0  0
  5  3  1  1  0  0  0
  5  7  1  0  0  0  0
  6 10  2  0  0  0  0
  7 11  2  0  0  0  0
  8 13  1  1  0  0  0
  8  9  1  0  0  0  0
  9  7  1  0  0  0  0
  9  6  1  0  0  0  0
 11 10  1  0  0  0  0
 12 13  1  0  0  0  0
 14 13  1  0  0  0  0
 15  1  1  1  0  0  0
 15 19  1  0  0  0  0
 17 18  1  0  0  0  0
 18 22  1  0  0  0  0
 18 16  2  0  0  0  0
 19 17  2  0  0  0  0
 19 20  1  0  0  0  0
 20 21  2  0  0  0  0
 21 16  1  0  0  0  0
 24 23  1  1  0  0  0
 24 15  1  0  0  0  0
 25 24  1  0  0  0  0
 26 25  1  0  0  0  0
M  END
>  <MODEL>
8

>  <REMARK>
 VINA RESULT:      -6.9      3.294      4.665
  Name = 
  6 active torsions:
  status: ('A' for Active; 'I' for Inactive)
    1  A    between atoms: C_5  and  C_26
    2  A    between atoms: C_6  and  C_16
    3  A    between atoms: C_6  and  C_18
    4  A    between atoms: N_8  and  C_10
    5  A    between atoms: N_12  and  C_16
    6  A    between atoms: C_15  and  C_16
                            x       y       z     vdW  Elec       q    Type
                         _______ _______ _______ _____ _____    ______ ____

>  <TORSDO>
F 6

$$$$
=
 OpenBabel10232410003D

 26 28  0  0  1  0  0  0  0  0999 V2000
  186.0750  177.9390  143.3330 N   0  0  0  0  0  2  0  0  0  0  0  0
  188.1080  178.5630  142.3640 O   0  0  0  0  0  0  0  0  0  0  0  0
  187.4710  177.7480  143.0840 C   0  0  0  0  0  0  0  0  0  0  0  0
  189.5800  176.0530  142.5660 S   0  0  0  0  0  0  0  0  0  0  0  0
  188.1800  176.5670  143.6580 C   0  0  1  0  0  3  0  0  0  0  0  0
  190.4920  177.0260  146.2440 N   0  0  0  0  0  0  0  0  0  0  0  0
  188.8340  176.9330  144.9260 C   0  0  0  0  0  0  0  0  0  0  0  0
  190.8880  176.4320  143.8260 C   0  0  2  0  0  3  0  0  0  0  0  0
  190.1430  176.8740  144.9840 N   0  0  0  0  0  0  0  0  0  0  0  0
  189.3760  177.2160  146.9430 N   0  0  0  0  0  0  0  0  0  0  0  0
  188.3100  177.1480  146.1430 N   0  0  0  0  0  0  0  0  0  0  0  0
  191.7220  177.5210  141.8890 C   0  0  0  0  0  1  0  0  0  0  0  0
  191.7690  177.5020  143.3450 N   0  0  0  0  0  0  0  0  0  0  0  0
  191.2050  178.7780  143.7600 C   0  0  0  0  0  1  0  0  0  0  0  0
  185.3030  178.9940  142.6910 C   0  0  1  0  0  3  0  0  0  0  0  0
  183.8350  177.7050  138.8570 C   0  0  0  0  0  3  0  0  0  0  0  0
  183.6230  177.8070  141.2670 C   0  0  0  0  0  3  0  0  0  0  0  0
  183.1380  177.3840  140.0260 C   0  0  0  0  0  0  0  0  0  0  0  0
  184.8000  178.5610  141.3450 C   0  0  0  0  0  0  0  0  0  0  0  0
  185.4950  178.8820  140.1690 C   0  0  0  0  0  3  0  0  0  0  0  0
  185.0140  178.4520  138.9270 C   0  0  0  0  0  3  0  0  0  0  0  0
  181.8890  176.5820  139.9490 C   0  0  0  0  0  1  0  0  0  0  0  0
  184.5660  180.7120  144.2090 O   0  0  0  0  0  1  0  0  0  0  0  0
  184.1800  179.5170  143.5980 C   0  0  2  0  0  3  0  0  0  0  0  0
  183.6970  178.5090  144.6460 C   0  0  0  0  0  2  0  0  0  0  0  0
  183.9770  178.9580  145.9390 O   0  0  0  0  0  1  0  0  0  0  0  0
  2  3  2  0  0  0  0
  3  1  1  0  0  0  0
  4  5  1  0  0  0  0
  4  8  1  0  0  0  0
  5  3  1  6  0  0  0
  5  7  1  0  0  0  0
  6 10  2  0  0  0  0
  7  9  1  0  0  0  0
  7 11  2  0  0  0  0
  8 13  1  6  0  0  0
  8  9  1  0  0  0  0
  9  6  1  0  0  0  0
 11 10  1  0  0  0  0
 12 13  1  0  0  0  0
 13 14  1  0  0  0  0
 15  1  1  1  0  0  0
 15 24  1  0  0  0  0
 16 21  2  0  0  0  0
 16 18  1  0  0  0  0
 17 19  1  0  0  0  0
 18 17  2  0  0  0  0
 19 15  1  0  0  0  0
 20 19  2  0  0  0  0
 21 20  1  0  0  0  0
 22 18  1  0  0  0  0
 24 23  1  1  0  0  0
 24 25  1  0  0  0  0
 25 26  1  0  0  0  0
M  END
>  <MODEL>
9

>  <REMARK>
 VINA RESULT:      -6.9      3.855      6.598
  Name = 
  6 active torsions:
  status: ('A' for Active; 'I' for Inactive)
    1  A    between atoms: C_5  and  C_26
    2  A    between atoms: C_6  and  C_16
    3  A    between atoms: C_6  and  C_18
    4  A    between atoms: N_8  and  C_10
    5  A    between atoms: N_12  and  C_16
    6  A    between atoms: C_15  and  C_16
                            x       y       z     vdW  Elec       q    Type
                         _______ _______ _______ _____ _____    ______ ____

>  <TORSDO>
F 6

$$$$
