=
 OpenBabel10222421373D

 43 45  0  0  1  0  0  0  0  0999 V2000
  192.9960  175.3150  137.9720 C   0  0  0  0  0  3  0  0  0  0  0  0
  188.4220  178.2370  136.6460 C   0  0  0  0  0  2  0  0  0  0  0  0
  188.5770  177.2340  139.0050 C   0  0  0  0  0  0  0  0  0  0  0  0
  186.2820  174.7780  137.1520 C   0  0  0  0  0  3  0  0  0  0  0  0
  185.2410  176.9880  137.4470 C   0  0  0  0  0  0  0  0  0  0  0  0
  192.6660  175.7300  135.4600 C   0  0  0  0  0  0  0  0  0  0  0  0
  193.2220  175.9240  134.3460 O   0  0  0  0  0  0  0  0  0  0  0  0
  193.4760  175.5540  136.6400 N   0  0  0  0  0  0  0  0  0  0  0  0
  189.2240  177.1890  135.8510 C   0  0  0  0  0  2  0  0  0  0  0  0
  190.6250  176.7760  136.4010 C   0  0  2  0  0  3  0  0  0  0  0  0
  188.3500  173.4890  136.2180 C   0  0  0  0  0  3  0  0  0  0  0  0
  191.1780  175.6890  135.4880 C   0  0  2  0  0  3  0  0  0  0  0  0
  189.2370  174.1310  135.2100 C   0  0  0  0  0  2  0  0  0  0  0  0
  185.9810  179.2590  137.6800 O   0  0  0  0  0  1  0  0  0  0  0  0
  187.3100  174.1310  136.6770 C   0  0  0  0  0  0  0  0  0  0  0  0
  186.2340  177.9450  138.0820 C   0  0  2  0  0  3  0  0  0  0  0  0
  190.6440  174.2810  135.7660 C   0  0  0  0  0  2  0  0  0  0  0  0
  187.6950  177.5660  137.8300 C   0  0  1  0  0  3  0  0  0  0  0  0
  189.6980  176.7290  138.6120 C   0  0  0  0  0  0  0  0  0  0  0  0
  191.8150  175.6590  138.4960 C   0  0  0  0  0  3  0  0  0  0  0  0
  190.6920  176.3720  137.8670 C   0  0  0  0  0  0  0  0  0  0  0  0
  183.9270  177.0090  137.8050 C   0  0  0  0  0  0  0  0  0  0  0  0
  194.9170  175.4550  136.4750 C   0  0  0  0  0  1  0  0  0  0  0  0
  185.7600  175.9860  136.4460 C   0  0  0  0  0  2  0  0  0  0  0  0
  182.3170  176.6120  135.9450 O   0  0  0  0  0  0  0  0  0  0  0  0
  182.5550  175.0520  137.5920 O   0  0  0  0  0  1  0  0  0  0  0  0
  182.9010  176.1700  137.1280 C   0  0  0  0  0  0  0  0  0  0  0  0
  188.4820  177.8400  140.3410 C   0  0  0  0  0  3  0  0  0  0  0  0
  189.4010  177.6650  141.2790 C   0  0  0  0  0  3  0  0  0  0  0  0
  189.2360  178.2800  142.6220 C   0  0  0  0  0  2  0  0  0  0  0  0
  190.5160  178.0880  143.4120 C   0  0  0  0  0  2  0  0  0  0  0  0
  190.2320  177.3600  144.6790 C   0  0  0  0  0  0  0  0  0  0  0  0
  191.4620  176.5790  145.4390 S   0  0  0  0  0  0  0  0  0  0  0  0
  188.8780  177.3160  145.1570 N   0  0  0  0  0  2  0  0  0  0  0  0
  189.1560  178.1840  147.3240 O   0  0  0  0  0  0  0  0  0  0  0  0
  188.4000  177.6560  146.4650 C   0  0  0  0  0  0  0  0  0  0  0  0
  186.9690  177.4190  146.8000 C   0  0  0  0  0  2  0  0  0  0  0  0
  186.0850  177.9710  145.7020 C   0  0  0  0  0  1  0  0  0  0  0  0
  183.4470  177.8720  138.9130 C   0  0  0  0  0  0  0  0  0  0  0  0
  182.8660  178.9660  138.6660 O   0  0  0  0  0  0  0  0  0  0  0  0
  183.6740  177.4840  140.2380 O   0  0  0  0  0  0  0  0  0  0  0  0
  185.1460  178.2940  141.9710 C   0  0  0  0  0  1  0  0  0  0  0  0
  183.7920  178.4230  141.3000 C   0  0  0  0  0  2  0  0  0  0  0  0
  1 20  2  0  0  0  0
  3 28  1  0  0  0  0
  5 22  2  0  0  0  0
  5 16  1  0  0  0  0
  6 12  1  0  0  0  0
  6  8  1  0  0  0  0
  7  6  2  0  0  0  0
  8  1  1  0  0  0  0
  9  2  1  0  0  0  0
 10  9  1  6  0  0  0
 10 21  1  0  0  0  0
 11 15  2  0  0  0  0
 12 17  1  1  0  0  0
 12 10  1  0  0  0  0
 13 17  1  0  0  0  0
 13 11  1  0  0  0  0
 15  4  2  0  0  0  0
 16 14  1  6  0  0  0
 18  2  1  1  0  0  0
 18 16  1  0  0  0  0
 18  3  1  0  0  0  0
 19  3  2  0  0  0  0
 21 20  1  0  0  0  0
 21 19  2  0  0  0  0
 22 39  1  0  0  0  0
 23  8  1  0  0  0  0
 24  4  1  0  0  0  0
 24  5  1  0  0  0  0
 25 27  2  0  0  0  0
 27 26  1  0  0  0  0
 27 22  1  0  0  0  0
 28 29  2  0  0  0  0
 29 30  1  0  0  0  0
 30 31  1  0  0  0  0
 31 32  1  0  0  0  0
 32 34  1  0  0  0  0
 32 33  2  0  0  0  0
 34 36  1  0  0  0  0
 36 37  1  0  0  0  0
 36 35  2  0  0  0  0
 38 37  1  0  0  0  0
 39 41  1  0  0  0  0
 40 39  2  0  0  0  0
 41 43  1  0  0  0  0
 43 42  1  0  0  0  0
M  END
>  <MODEL>
1

>  <REMARK>
 VINA RESULT:      -7.2      0.000      0.000
  Name = 
  10 active torsions:
  status: ('A' for Active; 'I' for Inactive)
    1  A    between atoms: C_1  and  C_6
    2  A    between atoms: C_5  and  C_15
    3  A    between atoms: N_10  and  C_24
    4  A    between atoms: C_13  and  O_40
    5  A    between atoms: C_14  and  C_15
    6  A    between atoms: C_14  and  C_24
    7  A    between atoms: C_19  and  C_34
    8  A    between atoms: C_23  and  C_38
    9  A    between atoms: C_23  and  O_40
   10  A    between atoms: C_27  and  C_38
                            x       y       z     vdW  Elec       q    Type
                         _______ _______ _______ _____ _____    ______ ____

>  <TORSDO>
F 10

$$$$
=
 OpenBabel10222421373D

 43 45  0  0  1  0  0  0  0  0999 V2000
  193.2470  175.2460  137.9230 C   0  0  0  0  0  3  0  0  0  0  0  0
  188.6850  178.2180  136.6680 C   0  0  0  0  0  2  0  0  0  0  0  0
  188.7920  177.0760  138.9650 C   0  0  0  0  0  0  0  0  0  0  0  0
  186.5570  174.7240  136.9150 C   0  0  0  0  0  3  0  0  0  0  0  0
  185.4950  176.9070  137.3170 C   0  0  0  0  0  0  0  0  0  0  0  0
  192.9720  175.8090  135.4330 C   0  0  0  0  0  0  0  0  0  0  0  0
  193.5520  176.0730  134.3460 O   0  0  0  0  0  0  0  0  0  0  0  0
  193.7550  175.5670  136.6190 N   0  0  0  0  0  0  0  0  0  0  0  0
  189.5120  177.2240  135.8310 C   0  0  0  0  0  2  0  0  0  0  0  0
  190.9030  176.7870  136.3870 C   0  0  2  0  0  3  0  0  0  0  0  0
  188.6540  173.5050  135.9540 C   0  0  0  0  0  3  0  0  0  0  0  0
  191.4840  175.7590  135.4240 C   0  0  2  0  0  3  0  0  0  0  0  0
  189.5600  174.2110  135.0080 C   0  0  0  0  0  2  0  0  0  0  0  0
  186.2140  179.1640  137.7040 O   0  0  0  0  0  1  0  0  0  0  0  0
  187.6000  174.1120  136.4270 C   0  0  0  0  0  0  0  0  0  0  0  0
  186.4660  177.8290  138.0320 C   0  0  2  0  0  3  0  0  0  0  0  0
  190.9520  174.3350  135.6050 C   0  0  0  0  0  2  0  0  0  0  0  0
  187.9350  177.4740  137.7920 C   0  0  1  0  0  3  0  0  0  0  0  0
  189.9250  176.6020  138.5690 C   0  0  0  0  0  0  0  0  0  0  0  0
  192.0510  175.5510  138.4380 C   0  0  0  0  0  3  0  0  0  0  0  0
  190.9390  176.2950  137.8280 C   0  0  0  0  0  0  0  0  0  0  0  0
  184.1730  176.9000  137.6460 C   0  0  0  0  0  0  0  0  0  0  0  0
  195.2000  175.4860  136.4820 C   0  0  0  0  0  1  0  0  0  0  0  0
  186.0440  175.9700  136.2710 C   0  0  0  0  0  2  0  0  0  0  0  0
  182.5520  176.6380  135.7720 O   0  0  0  0  0  0  0  0  0  0  0  0
  182.8690  174.9260  137.2440 O   0  0  0  0  0  1  0  0  0  0  0  0
  183.1680  176.0980  136.8960 C   0  0  0  0  0  0  0  0  0  0  0  0
  188.6620  177.6010  140.3330 C   0  0  0  0  0  3  0  0  0  0  0  0
  189.2200  177.0190  141.3840 C   0  0  0  0  0  3  0  0  0  0  0  0
  189.0300  177.5790  142.7480 C   0  0  0  0  0  2  0  0  0  0  0  0
  187.6610  178.2260  142.8280 C   0  0  0  0  0  2  0  0  0  0  0  0
  187.0260  177.9210  144.1390 C   0  0  0  0  0  0  0  0  0  0  0  0
  187.9590  177.3350  145.3580 S   0  0  0  0  0  0  0  0  0  0  0  0
  185.6050  178.0920  144.2690 N   0  0  0  0  0  2  0  0  0  0  0  0
  185.5130  179.5540  146.1070 O   0  0  0  0  0  0  0  0  0  0  0  0
  184.9010  178.8320  145.2750 C   0  0  0  0  0  0  0  0  0  0  0  0
  183.4140  178.7810  145.3070 C   0  0  0  0  0  2  0  0  0  0  0  0
  182.8630  178.9120  143.9030 C   0  0  0  0  0  1  0  0  0  0  0  0
  183.6610  177.6920  138.7920 C   0  0  0  0  0  0  0  0  0  0  0  0
  183.6480  177.1990  139.9550 O   0  0  0  0  0  0  0  0  0  0  0  0
  183.1570  178.9790  138.5710 O   0  0  0  0  0  0  0  0  0  0  0  0
  181.2130  180.4080  138.5520 C   0  0  0  0  0  1  0  0  0  0  0  0
  182.1440  179.5530  139.3890 C   0  0  0  0  0  2  0  0  0  0  0  0
  1 20  2  0  0  0  0
  3 28  1  0  0  0  0
  5 22  2  0  0  0  0
  5 16  1  0  0  0  0
  6  8  1  0  0  0  0
  7  6  2  0  0  0  0
  8  1  1  0  0  0  0
  9  2  1  0  0  0  0
 10  9  1  6  0  0  0
 10 21  1  0  0  0  0
 11 15  2  0  0  0  0
 12  6  1  0  0  0  0
 12 17  1  1  0  0  0
 12 10  1  0  0  0  0
 13 17  1  0  0  0  0
 13 11  1  0  0  0  0
 15  4  2  0  0  0  0
 16 14  1  6  0  0  0
 18  2  1  1  0  0  0
 18 16  1  0  0  0  0
 18  3  1  0  0  0  0
 19  3  2  0  0  0  0
 21 20  1  0  0  0  0
 21 19  2  0  0  0  0
 22 39  1  0  0  0  0
 23  8  1  0  0  0  0
 24  4  1  0  0  0  0
 24  5  1  0  0  0  0
 25 27  2  0  0  0  0
 27 26  1  0  0  0  0
 27 22  1  0  0  0  0
 28 29  2  0  0  0  0
 29 30  1  0  0  0  0
 30 31  1  0  0  0  0
 31 32  1  0  0  0  0
 32 34  1  0  0  0  0
 32 33  2  0  0  0  0
 34 36  1  0  0  0  0
 36 37  1  0  0  0  0
 36 35  2  0  0  0  0
 38 37  1  0  0  0  0
 39 40  2  0  0  0  0
 41 39  1  0  0  0  0
 41 43  1  0  0  0  0
 42 43  1  0  0  0  0
M  END
>  <MODEL>
2

>  <REMARK>
 VINA RESULT:      -6.5      1.415      1.936
  Name = 
  10 active torsions:
  status: ('A' for Active; 'I' for Inactive)
    1  A    between atoms: C_1  and  C_6
    2  A    between atoms: C_5  and  C_15
    3  A    between atoms: N_10  and  C_24
    4  A    between atoms: C_13  and  O_40
    5  A    between atoms: C_14  and  C_15
    6  A    between atoms: C_14  and  C_24
    7  A    between atoms: C_19  and  C_34
    8  A    between atoms: C_23  and  C_38
    9  A    between atoms: C_23  and  O_40
   10  A    between atoms: C_27  and  C_38
                            x       y       z     vdW  Elec       q    Type
                         _______ _______ _______ _____ _____    ______ ____

>  <TORSDO>
F 10

$$$$
=
 OpenBabel10222421373D

 43 45  0  0  1  0  0  0  0  0999 V2000
  192.3770  175.7000  138.0330 C   0  0  0  0  0  3  0  0  0  0  0  0
  187.7370  178.5560  136.7920 C   0  0  0  0  0  2  0  0  0  0  0  0
  187.9800  177.6150  139.1680 C   0  0  0  0  0  0  0  0  0  0  0  0
  185.6430  175.0970  137.4570 C   0  0  0  0  0  3  0  0  0  0  0  0
  184.5950  177.3060  137.7320 C   0  0  0  0  0  0  0  0  0  0  0  0
  191.9580  176.0490  135.5240 C   0  0  0  0  0  0  0  0  0  0  0  0
  192.4740  176.2180  134.3870 O   0  0  0  0  0  0  0  0  0  0  0  0
  192.8080  175.9090  136.6790 N   0  0  0  0  0  0  0  0  0  0  0  0
  188.5200  177.4940  135.9970 C   0  0  0  0  0  2  0  0  0  0  0  0
  189.9420  177.1050  136.5080 C   0  0  2  0  0  3  0  0  0  0  0  0
  187.6870  173.7980  136.4850 C   0  0  0  0  0  3  0  0  0  0  0  0
  190.4720  175.9980  135.6040 C   0  0  2  0  0  3  0  0  0  0  0  0
  188.5350  174.4210  135.4330 C   0  0  0  0  0  2  0  0  0  0  0  0
  185.3250  179.5880  137.8830 O   0  0  0  0  0  1  0  0  0  0  0  0
  186.6590  174.4450  136.9640 C   0  0  0  0  0  0  0  0  0  0  0  0
  185.6020  178.2860  138.3090 C   0  0  2  0  0  3  0  0  0  0  0  0
  189.9580  174.5950  135.9360 C   0  0  0  0  0  2  0  0  0  0  0  0
  187.0560  177.9110  138.0160 C   0  0  1  0  0  3  0  0  0  0  0  0
  189.0910  177.1080  138.7500 C   0  0  0  0  0  0  0  0  0  0  0  0
  191.2110  176.0490  138.5880 C   0  0  0  0  0  3  0  0  0  0  0  0
  190.0620  176.7380  137.9810 C   0  0  0  0  0  0  0  0  0  0  0  0
  183.2950  177.3270  138.1350 C   0  0  0  0  0  0  0  0  0  0  0  0
  194.2430  175.8150  136.4670 C   0  0  0  0  0  1  0  0  0  0  0  0
  185.0880  176.2830  136.7400 C   0  0  0  0  0  2  0  0  0  0  0  0
  181.6950  176.8230  136.2920 O   0  0  0  0  0  0  0  0  0  0  0  0
  181.8680  175.4000  138.0640 O   0  0  0  0  0  1  0  0  0  0  0  0
  182.2520  176.4650  137.5150 C   0  0  0  0  0  0  0  0  0  0  0  0
  187.9260  178.2540  140.4910 C   0  0  0  0  0  3  0  0  0  0  0  0
  186.9000  178.1160  141.3180 C   0  0  0  0  0  3  0  0  0  0  0  0
  186.8880  178.8110  142.6310 C   0  0  0  0  0  2  0  0  0  0  0  0
  186.5740  177.8040  143.7190 C   0  0  0  0  0  2  0  0  0  0  0  0
  187.7400  177.6540  144.6320 C   0  0  0  0  0  0  0  0  0  0  0  0
  187.4860  177.6680  146.2550 S   0  0  0  0  0  0  0  0  0  0  0  0
  189.0540  177.5650  144.0580 N   0  0  0  0  0  2  0  0  0  0  0  0
  188.9030  175.4970  142.9510 O   0  0  0  0  0  0  0  0  0  0  0  0
  189.6100  176.4770  143.3090 C   0  0  0  0  0  0  0  0  0  0  0  0
  191.0420  176.5280  142.9070 C   0  0  0  0  0  2  0  0  0  0  0  0
  191.6830  177.7900  143.4430 C   0  0  0  0  0  1  0  0  0  0  0  0
  182.8450  178.2150  139.2370 C   0  0  0  0  0  0  0  0  0  0  0  0
  182.5510  179.4220  139.0070 O   0  0  0  0  0  0  0  0  0  0  0  0
  182.7850  177.7170  140.5430 O   0  0  0  0  0  0  0  0  0  0  0  0
  183.1770  178.8420  142.6420 C   0  0  0  0  0  1  0  0  0  0  0  0
  182.1540  178.4250  141.6030 C   0  0  0  0  0  2  0  0  0  0  0  0
  1 20  2  0  0  0  0
  3 28  1  0  0  0  0
  5 22  2  0  0  0  0
  5 16  1  0  0  0  0
  6 12  1  0  0  0  0
  6  8  1  0  0  0  0
  7  6  2  0  0  0  0
  8  1  1  0  0  0  0
  9  2  1  0  0  0  0
 10  9  1  6  0  0  0
 10 21  1  0  0  0  0
 11 15  2  0  0  0  0
 12 17  1  1  0  0  0
 12 10  1  0  0  0  0
 13 17  1  0  0  0  0
 13 11  1  0  0  0  0
 15  4  2  0  0  0  0
 16 14  1  6  0  0  0
 18  2  1  1  0  0  0
 18 16  1  0  0  0  0
 18  3  1  0  0  0  0
 19  3  2  0  0  0  0
 21 20  1  0  0  0  0
 21 19  2  0  0  0  0
 22 39  1  0  0  0  0
 23  8  1  0  0  0  0
 24  4  1  0  0  0  0
 24  5  1  0  0  0  0
 25 27  2  0  0  0  0
 27 26  1  0  0  0  0
 27 22  1  0  0  0  0
 28 29  2  0  0  0  0
 29 30  1  0  0  0  0
 30 31  1  0  0  0  0
 31 32  1  0  0  0  0
 32 33  2  0  0  0  0
 34 32  1  0  0  0  0
 35 36  2  0  0  0  0
 36 34  1  0  0  0  0
 37 36  1  0  0  0  0
 37 38  1  0  0  0  0
 39 41  1  0  0  0  0
 40 39  2  0  0  0  0
 41 43  1  0  0  0  0
 43 42  1  0  0  0  0
M  END
>  <MODEL>
3

>  <REMARK>
 VINA RESULT:      -6.4      1.475      2.088
  Name = 
  10 active torsions:
  status: ('A' for Active; 'I' for Inactive)
    1  A    between atoms: C_1  and  C_6
    2  A    between atoms: C_5  and  C_15
    3  A    between atoms: N_10  and  C_24
    4  A    between atoms: C_13  and  O_40
    5  A    between atoms: C_14  and  C_15
    6  A    between atoms: C_14  and  C_24
    7  A    between atoms: C_19  and  C_34
    8  A    between atoms: C_23  and  C_38
    9  A    between atoms: C_23  and  O_40
   10  A    between atoms: C_27  and  C_38
                            x       y       z     vdW  Elec       q    Type
                         _______ _______ _______ _____ _____    ______ ____

>  <TORSDO>
F 10

$$$$
=
 OpenBabel10222421373D

 43 45  0  0  1  0  0  0  0  0999 V2000
  189.3540  178.3940  138.0630 C   0  0  0  0  0  3  0  0  0  0  0  0
  188.0940  175.8960  142.8990 C   0  0  0  0  0  2  0  0  0  0  0  0
  187.3430  178.3280  142.5610 C   0  0  0  0  0  0  0  0  0  0  0  0
  190.4770  178.6710  144.7490 C   0  0  0  0  0  3  0  0  0  0  0  0
  188.6240  177.5720  145.9370 C   0  0  0  0  0  0  0  0  0  0  0  0
  190.6590  176.2350  138.5390 C   0  0  0  0  0  0  0  0  0  0  0  0
  191.2110  175.2120  138.0520 O   0  0  0  0  0  0  0  0  0  0  0  0
  190.0140  177.1820  137.6650 N   0  0  0  0  0  0  0  0  0  0  0  0
  189.3850  175.8900  142.0590 C   0  0  0  0  0  2  0  0  0  0  0  0
  189.3100  176.4570  140.6070 C   0  0  2  0  0  3  0  0  0  0  0  0
  192.0080  178.6070  142.6360 C   0  0  0  0  0  3  0  0  0  0  0  0
  190.7140  176.4070  140.0170 C   0  0  2  0  0  3  0  0  0  0  0  0
  192.1380  177.3520  141.8470 C   0  0  0  0  0  2  0  0  0  0  0  0
  186.7140  176.2380  145.3590 O   0  0  0  0  0  1  0  0  0  0  0  0
  191.2500  178.6350  143.6980 C   0  0  0  0  0  0  0  0  0  0  0  0
  187.4550  177.3640  144.9900 C   0  0  2  0  0  3  0  0  0  0  0  0
  191.6270  177.5630  140.4310 C   0  0  0  0  0  2  0  0  0  0  0  0
  187.8670  177.2900  143.5190 C   0  0  1  0  0  3  0  0  0  0  0  0
  187.9510  178.2560  141.4240 C   0  0  0  0  0  0  0  0  0  0  0  0
  188.7870  178.6730  139.2410 C   0  0  0  0  0  3  0  0  0  0  0  0
  188.6760  177.8310  140.4410 C   0  0  0  0  0  0  0  0  0  0  0  0
  188.4140  177.9430  147.2310 C   0  0  0  0  0  0  0  0  0  0  0  0
  190.1560  176.9980  136.2300 C   0  0  0  0  0  1  0  0  0  0  0  0
  190.0200  177.4030  145.3910 C   0  0  0  0  0  2  0  0  0  0  0  0
  190.6770  177.2950  148.0480 O   0  0  0  0  0  0  0  0  0  0  0  0
  189.4430  178.8160  149.2150 O   0  0  0  0  0  1  0  0  0  0  0  0
  189.5190  178.0460  148.2220 C   0  0  0  0  0  0  0  0  0  0  0  0
  186.0220  178.9700  142.6380 C   0  0  0  0  0  3  0  0  0  0  0  0
  184.8860  178.2890  142.6090 C   0  0  0  0  0  3  0  0  0  0  0  0
  183.5800  178.9960  142.6610 C   0  0  0  0  0  2  0  0  0  0  0  0
  182.5360  178.1560  141.9520 C   0  0  0  0  0  2  0  0  0  0  0  0
  182.4480  178.5500  140.5190 C   0  0  0  0  0  0  0  0  0  0  0  0
  181.1930  179.4920  140.0300 S   0  0  0  0  0  0  0  0  0  0  0  0
  183.4300  178.0370  139.6050 N   0  0  0  0  0  2  0  0  0  0  0  0
  184.8240  179.9150  139.3710 O   0  0  0  0  0  0  0  0  0  0  0  0
  184.5280  178.7440  139.0130 C   0  0  0  0  0  0  0  0  0  0  0  0
  185.3620  178.0620  137.9860 C   0  0  0  0  0  2  0  0  0  0  0  0
  184.5180  177.0750  137.2080 C   0  0  0  0  0  1  0  0  0  0  0  0
  187.0540  178.2790  147.7230 C   0  0  0  0  0  0  0  0  0  0  0  0
  186.4410  177.4910  148.4970 O   0  0  0  0  0  0  0  0  0  0  0  0
  186.4380  179.4600  147.2930 O   0  0  0  0  0  0  0  0  0  0  0  0
  184.4130  178.5660  146.3330 C   0  0  0  0  0  1  0  0  0  0  0  0
  185.5870  179.5080  146.1540 C   0  0  0  0  0  2  0  0  0  0  0  0
  1 20  2  0  0  0  0
  3 28  1  0  0  0  0
  3 18  1  0  0  0  0
  4 24  1  0  0  0  0
  5 22  2  0  0  0  0
  6 12  1  0  0  0  0
  7  6  2  0  0  0  0
  8  1  1  0  0  0  0
  8  6  1  0  0  0  0
  9  2  1  0  0  0  0
 10  9  1  1  0  0  0
 11 15  2  0  0  0  0
 12 17  1  6  0  0  0
 12 10  1  0  0  0  0
 13 11  1  0  0  0  0
 15  4  2  0  0  0  0
 16 14  1  1  0  0  0
 16  5  1  0  0  0  0
 17 13  1  0  0  0  0
 18  2  1  6  0  0  0
 18 16  1  0  0  0  0
 19  3  2  0  0  0  0
 20 21  1  0  0  0  0
 21 10  1  0  0  0  0
 21 19  2  0  0  0  0
 22 39  1  0  0  0  0
 22 27  1  0  0  0  0
 23  8  1  0  0  0  0
 24  5  1  0  0  0  0
 25 27  2  0  0  0  0
 27 26  1  0  0  0  0
 29 28  2  0  0  0  0
 29 30  1  0  0  0  0
 31 30  1  0  0  0  0
 32 31  1  0  0  0  0
 33 32  2  0  0  0  0
 34 32  1  0  0  0  0
 36 35  2  0  0  0  0
 36 34  1  0  0  0  0
 37 36  1  0  0  0  0
 38 37  1  0  0  0  0
 39 40  2  0  0  0  0
 41 39  1  0  0  0  0
 43 42  1  0  0  0  0
 43 41  1  0  0  0  0
M  END
>  <MODEL>
4

>  <REMARK>
 VINA RESULT:      -6.1      3.249      7.930
  Name = 
  10 active torsions:
  status: ('A' for Active; 'I' for Inactive)
    1  A    between atoms: C_1  and  C_6
    2  A    between atoms: C_5  and  C_15
    3  A    between atoms: N_10  and  C_24
    4  A    between atoms: C_13  and  O_40
    5  A    between atoms: C_14  and  C_15
    6  A    between atoms: C_14  and  C_24
    7  A    between atoms: C_19  and  C_34
    8  A    between atoms: C_23  and  C_38
    9  A    between atoms: C_23  and  O_40
   10  A    between atoms: C_27  and  C_38
                            x       y       z     vdW  Elec       q    Type
                         _______ _______ _______ _____ _____    ______ ____

>  <TORSDO>
F 10

$$$$
=
 OpenBabel10222421373D

 43 45  0  0  1  0  0  0  0  0999 V2000
  183.9920  178.6980  138.2080 C   0  0  0  0  0  3  0  0  0  0  0  0
  188.1520  174.9870  137.8250 C   0  0  0  0  0  2  0  0  0  0  0  0
  188.6800  177.3020  138.8020 C   0  0  0  0  0  0  0  0  0  0  0  0
  189.9620  177.5540  135.1920 C   0  0  0  0  0  3  0  0  0  0  0  0
  191.2680  175.9610  136.5390 C   0  0  0  0  0  0  0  0  0  0  0  0
  183.5150  176.6900  136.6820 C   0  0  0  0  0  0  0  0  0  0  0  0
  182.6460  175.8960  136.2310 O   0  0  0  0  0  0  0  0  0  0  0  0
  183.1270  177.7160  137.6160 N   0  0  0  0  0  0  0  0  0  0  0  0
  187.0260  175.3570  136.8410 C   0  0  0  0  0  2  0  0  0  0  0  0
  185.8500  176.2320  137.3760 C   0  0  2  0  0  3  0  0  0  0  0  0
  187.5780  178.1990  134.3490 C   0  0  0  0  0  3  0  0  0  0  0  0
  184.9150  176.5160  136.2070 C   0  0  2  0  0  3  0  0  0  0  0  0
  186.4800  177.1940  134.3740 C   0  0  0  0  0  2  0  0  0  0  0  0
  190.8910  174.5490  138.4420 O   0  0  0  0  0  1  0  0  0  0  0  0
  188.7720  177.8730  134.7620 C   0  0  0  0  0  0  0  0  0  0  0  0
  190.6480  175.8210  137.9170 C   0  0  2  0  0  3  0  0  0  0  0  0
  185.3610  177.6590  135.2900 C   0  0  0  0  0  2  0  0  0  0  0  0
  189.1540  176.1520  137.9520 C   0  0  1  0  0  3  0  0  0  0  0  0
  187.4460  177.5830  138.5510 C   0  0  0  0  0  0  0  0  0  0  0  0
  185.3090  178.6120  138.4220 C   0  0  0  0  0  3  0  0  0  0  0  0
  186.2290  177.5050  138.1200 C   0  0  0  0  0  0  0  0  0  0  0  0
  192.6210  175.9860  136.3840 C   0  0  0  0  0  0  0  0  0  0  0  0
  181.7110  177.8950  137.8900 C   0  0  0  0  0  1  0  0  0  0  0  0
  190.3450  176.1210  135.3570 C   0  0  0  0  0  2  0  0  0  0  0  0
  193.8000  177.1950  134.5510 O   0  0  0  0  0  1  0  0  0  0  0  0
  193.3730  174.9640  134.3470 O   0  0  0  0  0  0  0  0  0  0  0  0
  193.2720  176.0070  135.0460 C   0  0  0  0  0  0  0  0  0  0  0  0
  189.2750  177.7190  140.0800 C   0  0  0  0  0  3  0  0  0  0  0  0
  189.2790  176.9490  141.1590 C   0  0  0  0  0  3  0  0  0  0  0  0
  189.8690  177.4360  142.4330 C   0  0  0  0  0  2  0  0  0  0  0  0
  189.4270  176.5250  143.5610 C   0  0  0  0  0  2  0  0  0  0  0  0
  189.4810  177.2510  144.8590 C   0  0  0  0  0  0  0  0  0  0  0  0
  190.8030  177.0650  145.8180 S   0  0  0  0  0  0  0  0  0  0  0  0
  188.3470  178.0390  145.2530 N   0  0  0  0  0  2  0  0  0  0  0  0
  187.7390  176.9540  147.2470 O   0  0  0  0  0  0  0  0  0  0  0  0
  187.4820  177.8270  146.3760 C   0  0  0  0  0  0  0  0  0  0  0  0
  186.2780  178.6880  146.5400 C   0  0  0  0  0  2  0  0  0  0  0  0
  185.3560  178.5140  145.3520 C   0  0  0  0  0  1  0  0  0  0  0  0
  193.5290  176.0070  137.5580 C   0  0  0  0  0  0  0  0  0  0  0  0
  193.5780  177.0200  138.3110 O   0  0  0  0  0  0  0  0  0  0  0  0
  194.3610  174.9090  137.8070 O   0  0  0  0  0  0  0  0  0  0  0  0
  195.6940  173.4940  136.3770 C   0  0  0  0  0  1  0  0  0  0  0  0
  195.6390  174.7660  137.2000 C   0  0  0  0  0  2  0  0  0  0  0  0
  1 20  2  0  0  0  0
  3 28  1  0  0  0  0
  4 24  1  0  0  0  0
  5 16  1  0  0  0  0
  6  8  1  0  0  0  0
  7  6  2  0  0  0  0
  8 23  1  0  0  0  0
  8  1  1  0  0  0  0
  9  2  1  0  0  0  0
 10  9  1  6  0  0  0
 10 21  1  0  0  0  0
 11 13  1  0  0  0  0
 11 15  2  0  0  0  0
 12 17  1  1  0  0  0
 12  6  1  0  0  0  0
 12 10  1  0  0  0  0
 13 17  1  0  0  0  0
 15  4  2  0  0  0  0
 16 18  1  0  0  0  0
 16 14  1  6  0  0  0
 18  2  1  1  0  0  0
 18  3  1  0  0  0  0
 19  3  2  0  0  0  0
 21 20  1  0  0  0  0
 21 19  2  0  0  0  0
 22  5  2  0  0  0  0
 22 39  1  0  0  0  0
 24  5  1  0  0  0  0
 25 27  1  0  0  0  0
 26 27  2  0  0  0  0
 27 22  1  0  0  0  0
 28 29  2  0  0  0  0
 29 30  1  0  0  0  0
 30 31  1  0  0  0  0
 31 32  1  0  0  0  0
 32 34  1  0  0  0  0
 32 33  2  0  0  0  0
 34 36  1  0  0  0  0
 36 37  1  0  0  0  0
 36 35  2  0  0  0  0
 38 37  1  0  0  0  0
 39 41  1  0  0  0  0
 39 40  2  0  0  0  0
 42 43  1  0  0  0  0
 43 41  1  0  0  0  0
M  END
>  <MODEL>
5

>  <REMARK>
 VINA RESULT:      -5.5      2.363      7.110
  Name = 
  10 active torsions:
  status: ('A' for Active; 'I' for Inactive)
    1  A    between atoms: C_1  and  C_6
    2  A    between atoms: C_5  and  C_15
    3  A    between atoms: N_10  and  C_24
    4  A    between atoms: C_13  and  O_40
    5  A    between atoms: C_14  and  C_15
    6  A    between atoms: C_14  and  C_24
    7  A    between atoms: C_19  and  C_34
    8  A    between atoms: C_23  and  C_38
    9  A    between atoms: C_23  and  O_40
   10  A    between atoms: C_27  and  C_38
                            x       y       z     vdW  Elec       q    Type
                         _______ _______ _______ _____ _____    ______ ____

>  <TORSDO>
F 10

$$$$
=
 OpenBabel10222421373D

 43 45  0  0  1  0  0  0  0  0999 V2000
  183.7330  178.6520  138.1570 C   0  0  0  0  0  3  0  0  0  0  0  0
  187.9580  175.0120  137.8080 C   0  0  0  0  0  2  0  0  0  0  0  0
  188.4350  177.3270  138.8110 C   0  0  0  0  0  0  0  0  0  0  0  0
  189.7660  177.6290  135.2240 C   0  0  0  0  0  3  0  0  0  0  0  0
  191.0770  176.0470  136.5770 C   0  0  0  0  0  0  0  0  0  0  0  0
  183.3120  176.6490  136.6070 C   0  0  0  0  0  0  0  0  0  0  0  0
  182.4630  175.8450  136.1370 O   0  0  0  0  0  0  0  0  0  0  0  0
  182.8940  177.6610  137.5440 N   0  0  0  0  0  0  0  0  0  0  0  0
  186.8420  175.3720  136.8090 C   0  0  0  0  0  2  0  0  0  0  0  0
  185.6440  176.2230  137.3340 C   0  0  2  0  0  3  0  0  0  0  0  0
  187.3850  178.2430  134.3490 C   0  0  0  0  0  3  0  0  0  0  0  0
  184.7220  176.5020  136.1530 C   0  0  2  0  0  3  0  0  0  0  0  0
  186.3030  177.2200  134.3490 C   0  0  0  0  0  2  0  0  0  0  0  0
  190.6940  174.6130  138.4620 O   0  0  0  0  0  1  0  0  0  0  0  0
  188.5780  177.9320  134.7780 C   0  0  0  0  0  0  0  0  0  0  0  0
  190.4390  175.8850  137.9450 C   0  0  2  0  0  3  0  0  0  0  0  0
  185.1630  177.6590  135.2520 C   0  0  0  0  0  2  0  0  0  0  0  0
  188.9400  176.1920  137.9590 C   0  0  1  0  0  3  0  0  0  0  0  0
  187.1990  177.5900  138.5440 C   0  0  0  0  0  0  0  0  0  0  0  0
  185.0490  178.5850  138.3900 C   0  0  0  0  0  3  0  0  0  0  0  0
  185.9910  177.4960  138.0940 C   0  0  0  0  0  0  0  0  0  0  0  0
  192.4320  176.0950  136.4430 C   0  0  0  0  0  0  0  0  0  0  0  0
  181.4710  177.8150  137.7980 C   0  0  0  0  0  1  0  0  0  0  0  0
  190.1700  176.2010  135.3820 C   0  0  0  0  0  2  0  0  0  0  0  0
  193.1980  174.9790  134.3500 O   0  0  0  0  0  0  0  0  0  0  0  0
  193.5760  177.2070  134.6510 O   0  0  0  0  0  1  0  0  0  0  0  0
  193.1020  176.1370  135.1150 C   0  0  0  0  0  0  0  0  0  0  0  0
  189.0030  177.7430  140.1010 C   0  0  0  0  0  3  0  0  0  0  0  0
  188.2590  178.0000  141.1680 C   0  0  0  0  0  3  0  0  0  0  0  0
  188.8870  178.4460  142.4380 C   0  0  0  0  0  2  0  0  0  0  0  0
  187.8490  178.4080  143.5420 C   0  0  0  0  0  2  0  0  0  0  0  0
  188.1140  177.2660  144.4580 C   0  0  0  0  0  0  0  0  0  0  0  0
  186.8680  176.6330  145.3210 S   0  0  0  0  0  0  0  0  0  0  0  0
  189.4660  176.8000  144.6000 N   0  0  0  0  0  2  0  0  0  0  0  0
  190.1640  178.0600  146.4560 O   0  0  0  0  0  0  0  0  0  0  0  0
  190.4550  177.2540  145.5320 C   0  0  0  0  0  0  0  0  0  0  0  0
  191.8440  176.7280  145.4330 C   0  0  0  0  0  2  0  0  0  0  0  0
  192.2610  176.1210  146.7550 C   0  0  0  0  0  1  0  0  0  0  0  0
  193.3220  176.1200  137.6310 C   0  0  0  0  0  0  0  0  0  0  0  0
  194.0720  175.1370  137.8890 O   0  0  0  0  0  0  0  0  0  0  0  0
  193.2970  177.2260  138.4880 O   0  0  0  0  0  0  0  0  0  0  0  0
  192.1550  177.8020  140.5340 C   0  0  0  0  0  1  0  0  0  0  0  0
  193.3400  177.0970  139.9040 C   0  0  0  0  0  2  0  0  0  0  0  0
  1 20  2  0  0  0  0
  3 28  1  0  0  0  0
  4 24  1  0  0  0  0
  5 16  1  0  0  0  0
  6  8  1  0  0  0  0
  7  6  2  0  0  0  0
  8 23  1  0  0  0  0
  8  1  1  0  0  0  0
  9  2  1  0  0  0  0
 10  9  1  6  0  0  0
 10 21  1  0  0  0  0
 11 15  2  0  0  0  0
 12 17  1  1  0  0  0
 12  6  1  0  0  0  0
 12 10  1  0  0  0  0
 13 11  1  0  0  0  0
 13 17  1  0  0  0  0
 15  4  2  0  0  0  0
 16 18  1  0  0  0  0
 16 14  1  6  0  0  0
 18  2  1  1  0  0  0
 18  3  1  0  0  0  0
 19  3  2  0  0  0  0
 21 20  1  0  0  0  0
 21 19  2  0  0  0  0
 22  5  2  0  0  0  0
 22 39  1  0  0  0  0
 24  5  1  0  0  0  0
 25 27  2  0  0  0  0
 26 27  1  0  0  0  0
 27 22  1  0  0  0  0
 28 29  2  0  0  0  0
 29 30  1  0  0  0  0
 30 31  1  0  0  0  0
 31 32  1  0  0  0  0
 32 34  1  0  0  0  0
 32 33  2  0  0  0  0
 34 36  1  0  0  0  0
 36 35  2  0  0  0  0
 37 36  1  0  0  0  0
 37 38  1  0  0  0  0
 39 40  2  0  0  0  0
 39 41  1  0  0  0  0
 41 43  1  0  0  0  0
 43 42  1  0  0  0  0
M  END
>  <MODEL>
6

>  <REMARK>
 VINA RESULT:      -4.2      2.449      6.958
  Name = 
  10 active torsions:
  status: ('A' for Active; 'I' for Inactive)
    1  A    between atoms: C_1  and  C_6
    2  A    between atoms: C_5  and  C_15
    3  A    between atoms: N_10  and  C_24
    4  A    between atoms: C_13  and  O_40
    5  A    between atoms: C_14  and  C_15
    6  A    between atoms: C_14  and  C_24
    7  A    between atoms: C_19  and  C_34
    8  A    between atoms: C_23  and  C_38
    9  A    between atoms: C_23  and  O_40
   10  A    between atoms: C_27  and  C_38
                            x       y       z     vdW  Elec       q    Type
                         _______ _______ _______ _____ _____    ______ ____

>  <TORSDO>
F 10

$$$$
=
 OpenBabel10222421373D

 43 45  0  0  1  0  0  0  0  0999 V2000
  187.2900  177.0980  147.5450 C   0  0  0  0  0  3  0  0  0  0  0  0
  189.3210  179.3880  142.8710 C   0  0  0  0  0  2  0  0  0  0  0  0
  187.4210  177.6750  142.6530 C   0  0  0  0  0  0  0  0  0  0  0  0
  190.5520  175.6350  141.7770 C   0  0  0  0  0  3  0  0  0  0  0  0
  190.0660  177.3680  140.0990 C   0  0  0  0  0  0  0  0  0  0  0  0
  189.5470  178.2920  147.8150 C   0  0  0  0  0  0  0  0  0  0  0  0
  190.2970  178.9620  148.5760 O   0  0  0  0  0  0  0  0  0  0  0  0
  188.2500  177.8710  148.2830 N   0  0  0  0  0  0  0  0  0  0  0  0
  190.0280  178.8520  144.1300 C   0  0  0  0  0  2  0  0  0  0  0  0
  189.1490  178.5440  145.3810 C   0  0  2  0  0  3  0  0  0  0  0  0
  190.9990  175.1620  144.3040 C   0  0  0  0  0  3  0  0  0  0  0  0
  190.0620  177.9660  146.4570 C   0  0  2  0  0  3  0  0  0  0  0  0
  191.4150  176.2690  145.2090 C   0  0  0  0  0  2  0  0  0  0  0  0
  188.9870  179.5110  140.0510 O   0  0  0  0  0  1  0  0  0  0  0  0
  190.7850  175.3980  143.0380 C   0  0  0  0  0  0  0  0  0  0  0  0
  188.8890  178.2110  140.5550 C   0  0  2  0  0  3  0  0  0  0  0  0
  190.3780  176.4760  146.3000 C   0  0  0  0  0  2  0  0  0  0  0  0
  188.6980  178.2250  142.0730 C   0  0  1  0  0  3  0  0  0  0  0  0
  187.5100  177.5580  143.9360 C   0  0  0  0  0  0  0  0  0  0  0  0
  187.1490  177.0110  146.2180 C   0  0  0  0  0  3  0  0  0  0  0  0
  187.9200  177.6750  145.1560 C   0  0  0  0  0  0  0  0  0  0  0  0
  190.2050  177.0170  138.7910 C   0  0  0  0  0  0  0  0  0  0  0  0
  187.9140  178.1070  149.6770 C   0  0  0  0  0  1  0  0  0  0  0  0
  191.0460  176.8920  141.1430 C   0  0  0  0  0  2  0  0  0  0  0  0
  191.3690  174.9040  138.1620 O   0  0  0  0  0  1  0  0  0  0  0  0
  192.4440  176.9020  137.9360 O   0  0  0  0  0  0  0  0  0  0  0  0
  191.4000  176.2900  138.2820 C   0  0  0  0  0  0  0  0  0  0  0  0
  186.0950  177.7500  142.0210 C   0  0  0  0  0  3  0  0  0  0  0  0
  185.0410  178.2890  142.6170 C   0  0  0  0  0  3  0  0  0  0  0  0
  183.7190  178.3090  141.9400 C   0  0  0  0  0  2  0  0  0  0  0  0
  183.8800  178.9210  140.5620 C   0  0  0  0  0  2  0  0  0  0  0  0
  182.6400  178.7220  139.7640 C   0  0  0  0  0  0  0  0  0  0  0  0
  181.2090  179.2550  140.3720 S   0  0  0  0  0  0  0  0  0  0  0  0
  182.7320  178.0140  138.5170 N   0  0  0  0  0  2  0  0  0  0  0  0
  182.7400  175.7920  139.2830 O   0  0  0  0  0  0  0  0  0  0  0  0
  182.8500  176.5980  138.3220 C   0  0  0  0  0  0  0  0  0  0  0  0
  183.0610  176.0700  136.9460 C   0  0  0  0  0  2  0  0  0  0  0  0
  183.1320  177.2160  135.9590 C   0  0  0  0  0  1  0  0  0  0  0  0
  189.1520  177.3340  137.7930 C   0  0  0  0  0  0  0  0  0  0  0  0
  189.2920  178.3110  137.0050 O   0  0  0  0  0  0  0  0  0  0  0  0
  187.9830  176.5660  137.7560 O   0  0  0  0  0  0  0  0  0  0  0  0
  186.1880  178.1620  137.9850 C   0  0  0  0  0  1  0  0  0  0  0  0
  186.7790  177.0350  137.1610 C   0  0  0  0  0  2  0  0  0  0  0  0
  1  8  1  0  0  0  0
  2  9  1  0  0  0  0
  3 19  2  0  0  0  0
  4 15  2  0  0  0  0
  5 16  1  0  0  0  0
  5 24  1  0  0  0  0
  6  8  1  0  0  0  0
  6  7  2  0  0  0  0
  8 23  1  0  0  0  0
 10  9  1  6  0  0  0
 10 12  1  0  0  0  0
 11 13  1  0  0  0  0
 12 17  1  6  0  0  0
 12  6  1  0  0  0  0
 13 17  1  0  0  0  0
 15 11  2  0  0  0  0
 16 14  1  1  0  0  0
 16 18  1  0  0  0  0
 18  3  1  0  0  0  0
 18  2  1  6  0  0  0
 19 21  2  0  0  0  0
 20  1  2  0  0  0  0
 21 10  1  0  0  0  0
 21 20  1  0  0  0  0
 22  5  2  0  0  0  0
 24  4  1  0  0  0  0
 25 27  1  0  0  0  0
 26 27  2  0  0  0  0
 27 22  1  0  0  0  0
 28 29  2  0  0  0  0
 28  3  1  0  0  0  0
 30 29  1  0  0  0  0
 31 30  1  0  0  0  0
 32 33  2  0  0  0  0
 32 31  1  0  0  0  0
 34 32  1  0  0  0  0
 36 34  1  0  0  0  0
 36 35  2  0  0  0  0
 37 36  1  0  0  0  0
 38 37  1  0  0  0  0
 39 22  1  0  0  0  0
 40 39  2  0  0  0  0
 41 39  1  0  0  0  0
 43 41  1  0  0  0  0
 43 42  1  0  0  0  0
M  END
>  <MODEL>
7

>  <REMARK>
 VINA RESULT:      -4.2      3.291      8.705
  Name = 
  10 active torsions:
  status: ('A' for Active; 'I' for Inactive)
    1  A    between atoms: C_1  and  C_6
    2  A    between atoms: C_5  and  C_15
    3  A    between atoms: N_10  and  C_24
    4  A    between atoms: C_13  and  O_40
    5  A    between atoms: C_14  and  C_15
    6  A    between atoms: C_14  and  C_24
    7  A    between atoms: C_19  and  C_34
    8  A    between atoms: C_23  and  C_38
    9  A    between atoms: C_23  and  O_40
   10  A    between atoms: C_27  and  C_38
                            x       y       z     vdW  Elec       q    Type
                         _______ _______ _______ _____ _____    ______ ____

>  <TORSDO>
F 10

$$$$
