=
 OpenBabel10232412273D

 55 61  0  0  1  0  0  0  0  0999 V2000
  182.9620  177.2650  136.9280 C   0  0  0  0  0  2  0  0  0  0  0  0
  186.3740  178.5580  140.1550 C   0  0  0  0  0  0  0  0  0  0  0  0
  186.0900  178.1460  138.8870 N   0  0  0  0  0  0  0  0  0  0  0  0
  185.2100  178.8170  140.8880 C   0  0  0  0  0  0  0  0  0  0  0  0
  184.1390  178.5070  140.0680 C   0  0  0  0  0  0  0  0  0  0  0  0
  184.7410  178.0910  138.8670 C   0  0  0  0  0  0  0  0  0  0  0  0
  182.1470  178.9920  141.6160 C   0  0  0  0  0  1  0  0  0  0  0  0
  180.3820  178.1040  139.4280 O   0  0  0  0  0  1  0  0  0  0  0  0
  183.8440  177.6910  137.9300 C   0  0  0  0  0  0  0  0  0  0  0  0
  182.3990  177.7010  138.1350 C   0  0  0  0  0  0  0  0  0  0  0  0
  182.6910  178.5320  140.3060 C   0  0  0  0  0  0  0  0  0  0  0  0
  181.7650  178.1090  139.2790 C   0  0  0  0  0  0  0  0  0  0  0  0
  185.1520  179.2410  142.3210 C   0  0  0  0  0  2  0  0  0  0  0  0
  184.9970  178.0280  143.2170 C   0  0  0  0  0  1  0  0  0  0  0  0
  187.0490  177.6240  137.8910 C   0  0  2  0  0  3  0  0  0  0  0  0
  187.9570  178.7130  137.3240 C   0  0  0  0  0  1  0  0  0  0  0  0
  186.4020  176.8030  136.7650 C   0  0  0  0  0  2  0  0  0  0  0  0
  185.8300  173.1160  137.4960 C   0  0  0  0  0  3  0  0  0  0  0  0
  186.6090  175.3130  136.8600 C   0  0  0  0  0  0  0  0  0  0  0  0
  187.0510  172.6000  137.1910 N   0  0  0  0  0  0  0  0  0  0  0  0
  185.5890  174.4810  137.3390 C   0  0  0  0  0  3  0  0  0  0  0  0
  187.8600  174.7570  136.5430 C   0  0  0  0  0  0  0  0  0  0  0  0
  188.0580  173.3830  136.7210 C   0  0  0  0  0  3  0  0  0  0  0  0
  188.9040  175.5770  136.0120 N   0  0  0  0  0  2  0  0  0  0  0  0
  189.9750  175.0500  135.3680 O   0  0  0  0  0  0  0  0  0  0  0  0
  191.0250  175.9350  135.6300 C   0  0  1  0  0  3  0  0  0  0  0  0
  192.3440  176.1270  137.5830 C   0  0  2  0  0  0  0  0  0  0  0  0
  192.8090  177.1650  138.3930 O   0  0  0  0  0  1  0  0  0  0  0  0
  193.1450  175.7320  136.3660 C   0  0  2  0  0  3  0  0  0  0  0  0
  190.9700  176.4150  137.0740 C   0  0  2  0  0  3  0  0  0  0  0  0
  192.2570  175.3060  135.3680 O   0  0  0  0  0  0  0  0  0  0  0  0
  191.1820  175.2760  138.0660 C   0  0  2  0  0  3  0  0  0  0  0  0
  190.7740  175.6830  139.3370 O   0  0  0  0  0  1  0  0  0  0  0  0
  194.1000  174.6010  136.6990 C   0  0  0  0  0  2  0  0  0  0  0  0
  195.3420  175.1150  137.1190 O   0  0  0  0  0  0  0  0  0  0  0  0
  196.0210  174.1550  137.9150 C   0  0  0  0  0  0  0  0  0  0  0  0
  195.8370  174.5380  139.3710 C   0  0  0  0  0  1  0  0  0  0  0  0
  195.4160  172.7680  137.7370 C   0  0  0  0  0  1  0  0  0  0  0  0
  198.0340  175.3680  137.3370 O   0  0  0  0  0  1  0  0  0  0  0  0
  197.5280  174.0960  137.6270 C   0  0  0  0  0  2  0  0  0  0  0  0
  187.7550  178.6750  140.7170 C   0  0  0  0  0  2  0  0  0  0  0  0
  188.0640  177.5260  141.4450 O   0  0  0  0  0  0  0  0  0  0  0  0
  189.3850  177.6410  141.7230 N   0  0  0  0  0  2  0  0  0  0  0  0
  189.4860  178.2990  143.0130 C   0  0  0  0  0  2  0  0  0  0  0  0
  188.6200  177.5650  144.0380 C   0  0  0  0  0  2  0  0  0  0  0  0
  188.9500  177.8940  145.4360 N   0  0  0  0  0  0  0  0  0  0  0  0
  189.0480  176.6700  147.8470 S   0  0  0  0  0  0  0  0  0  0  0  0
  188.1570  178.2290  147.6710 C   0  0  0  0  0  2  0  0  0  0  0  0
  187.7820  178.3240  146.2140 C   0  0  2  0  0  3  0  0  0  0  0  0
  189.6630  176.8020  146.1240 C   0  0  2  0  0  3  0  0  0  0  0  0
  191.6630  176.4120  147.3230 C   0  0  0  0  0  1  0  0  0  0  0  0
  191.1140  177.0460  146.1350 N   0  0  0  0  0  0  0  0  0  0  0  0
  191.7400  176.3570  145.0170 C   0  0  0  0  0  1  0  0  0  0  0  0
  186.6650  177.5090  145.9790 O   0  0  0  0  0  0  0  0  0  0  0  0
  185.6300  178.0980  146.7100 C   0  0  0  0  0  1  0  0  0  0  0  0
  1  9  1  0  0  0  0
  1 10  1  0  0  0  0
  2 41  1  0  0  0  0
  2  4  2  0  0  0  0
  3  2  1  0  0  0  0
  4 13  1  0  0  0  0
  5 11  1  0  0  0  0
  5  4  1  0  0  0  0
  6  3  1  0  0  0  0
  6  5  2  0  0  0  0
  9 10  2  0  0  0  0
  9  6  1  0  0  0  0
 10 12  1  0  0  0  0
 11  7  1  0  0  0  0
 12  8  1  0  0  0  0
 12 11  2  0  0  0  0
 13 14  1  0  0  0  0
 15 16  1  6  0  0  0
 15  3  1  0  0  0  0
 17 19  1  0  0  0  0
 17 15  1  0  0  0  0
 19 21  2  0  0  0  0
 20 18  2  0  0  0  0
 21 18  1  0  0  0  0
 22 23  2  0  0  0  0
 22 19  1  0  0  0  0
 23 20  1  0  0  0  0
 24 22  1  0  0  0  0
 25 24  1  0  0  0  0
 26 25  1  1  0  0  0
 26 30  1  0  0  0  0
 27 32  1  0  0  0  0
 27 28  1  1  0  0  0
 29 34  1  1  0  0  0
 29 27  1  0  0  0  0
 30 27  1  0  0  0  0
 30 32  1  0  0  0  0
 31 26  1  0  0  0  0
 31 29  1  0  0  0  0
 32 33  1  0  0  0  0
 34 35  1  0  0  0  0
 35 36  1  0  0  0  0
 36 37  1  0  0  0  0
 38 36  1  0  0  0  0
 39 40  1  0  0  0  0
 40 36  1  0  0  0  0
 41 42  1  0  0  0  0
 42 43  1  0  0  0  0
 43 44  1  0  0  0  0
 44 45  1  0  0  0  0
 45 46  1  0  0  0  0
 46 50  1  0  0  0  0
 46 49  1  0  0  0  0
 48 47  1  0  0  0  0
 49 48  1  0  0  0  0
 50 52  1  0  0  0  0
 50 47  1  0  0  0  0
 52 51  1  0  0  0  0
 53 52  1  0  0  0  0
 54 49  1  0  0  0  0
 54 55  1  0  0  0  0
M  END
>  <MODEL>
1

>  <REMARK>
 VINA RESULT:      -7.1      0.000      0.000
  Name = 
  19 active torsions:
  status: ('A' for Active; 'I' for Inactive)
    1  A    between atoms: C_2  and  O_46
    2  A    between atoms: O_4  and  C_23
    3  A    between atoms: C_5  and  N_10
    4  A    between atoms: C_5  and  C_50
    5  A    between atoms: C_7  and  O_35
    6  A    between atoms: C_7  and  C_49
    7  A    between atoms: C_9  and  C_54
    8  A    between atoms: N_11  and  C_32
    9  A    between atoms: C_13  and  C_50
   10  A    between atoms: C_15  and  C_21
   11  A    between atoms: N_18  and  C_39
   12  A    between atoms: N_18  and  O_46
   13  A    between atoms: O_20  and  N_48
   14  A    between atoms: O_20  and  C_54
   15  A    between atoms: C_26  and  C_51
   16  A    between atoms: C_32  and  C_34
   17  A    between atoms: N_33  and  C_45
   18  A    between atoms: C_34  and  N_48
   19  A    between atoms: O_35  and  C_51
                            x       y       z     vdW  Elec       q    Type
                         _______ _______ _______ _____ _____    ______ ____

>  <TORSDO>
F 19

$$$$
=
 OpenBabel10232412273D

 55 61  0  0  1  0  0  0  0  0999 V2000
  191.9130  177.3720  144.3820 C   0  0  0  0  0  2  0  0  0  0  0  0
  187.1680  177.6860  143.3250 C   0  0  0  0  0  0  0  0  0  0  0  0
  188.4480  177.6280  142.8580 N   0  0  0  0  0  0  0  0  0  0  0  0
  187.1150  177.5040  144.7130 C   0  0  0  0  0  0  0  0  0  0  0  0
  188.4210  177.3780  145.1530 C   0  0  0  0  0  0  0  0  0  0  0  0
  189.1870  177.4750  143.9780 C   0  0  0  0  0  0  0  0  0  0  0  0
  188.0870  177.1220  147.6870 C   0  0  0  0  0  1  0  0  0  0  0  0
  191.0220  177.0010  147.9420 O   0  0  0  0  0  1  0  0  0  0  0  0
  190.5240  177.4210  144.2040 C   0  0  0  0  0  0  0  0  0  0  0  0
  191.1150  177.2640  145.5300 C   0  0  0  0  0  0  0  0  0  0  0  0
  188.9830  177.2180  146.5000 C   0  0  0  0  0  0  0  0  0  0  0  0
  190.4140  177.1530  146.7010 C   0  0  0  0  0  0  0  0  0  0  0  0
  185.8820  177.5530  145.5570 C   0  0  0  0  0  2  0  0  0  0  0  0
  185.6280  178.9730  146.0260 C   0  0  0  0  0  1  0  0  0  0  0  0
  188.9030  177.9410  141.4870 C   0  0  2  0  0  3  0  0  0  0  0  0
  188.4300  179.3120  141.0100 C   0  0  0  0  0  1  0  0  0  0  0  0
  188.5770  176.8530  140.4520 C   0  0  0  0  0  2  0  0  0  0  0  0
  187.3730  178.3050  137.1510 C   0  0  0  0  0  3  0  0  0  0  0  0
  188.5470  177.3220  139.0200 C   0  0  0  0  0  0  0  0  0  0  0  0
  188.4340  178.0290  136.3450 N   0  0  0  0  0  0  0  0  0  0  0  0
  187.4100  177.9530  138.5000 C   0  0  0  0  0  3  0  0  0  0  0  0
  189.6350  177.0550  138.1720 C   0  0  0  0  0  0  0  0  0  0  0  0
  189.5520  177.4200  136.8230 C   0  0  0  0  0  3  0  0  0  0  0  0
  190.8240  176.4500  138.6870 N   0  0  0  0  0  2  0  0  0  0  0  0
  191.2840  175.2610  138.2230 O   0  0  0  0  0  0  0  0  0  0  0  0
  192.1130  175.5900  137.1460 C   0  0  1  0  0  3  0  0  0  0  0  0
  194.3950  175.0650  136.8230 C   0  0  2  0  0  0  0  0  0  0  0  0
  195.5420  175.7460  136.4090 O   0  0  0  0  0  1  0  0  0  0  0  0
  193.4940  174.4480  135.7810 C   0  0  2  0  0  3  0  0  0  0  0  0
  193.5080  175.9480  137.6380 C   0  0  2  0  0  3  0  0  0  0  0  0
  192.1720  174.5130  136.2420 O   0  0  0  0  0  0  0  0  0  0  0  0
  194.2050  174.7640  138.3000 C   0  0  2  0  0  3  0  0  0  0  0  0
  195.3000  175.2200  139.0350 O   0  0  0  0  0  1  0  0  0  0  0  0
  193.8680  172.9970  135.5420 C   0  0  0  0  0  2  0  0  0  0  0  0
  195.2540  172.8130  135.7110 O   0  0  0  0  0  0  0  0  0  0  0  0
  195.5160  171.4990  136.1790 C   0  0  0  0  0  0  0  0  0  0  0  0
  195.9350  171.5940  137.6340 C   0  0  0  0  0  1  0  0  0  0  0  0
  194.2600  170.6380  136.1290 C   0  0  0  0  0  1  0  0  0  0  0  0
  197.1020  169.6730  136.0950 O   0  0  0  0  0  1  0  0  0  0  0  0
  196.6450  170.8020  135.4060 C   0  0  0  0  0  2  0  0  0  0  0  0
  185.9680  177.9570  142.4750 C   0  0  0  0  0  2  0  0  0  0  0  0
  185.5450  179.2720  142.6670 O   0  0  0  0  0  0  0  0  0  0  0  0
  184.1940  179.2110  142.5920 N   0  0  0  0  0  2  0  0  0  0  0  0
  183.8740  178.4740  141.3820 C   0  0  0  0  0  2  0  0  0  0  0  0
  182.3720  178.5620  141.1040 C   0  0  0  0  0  2  0  0  0  0  0  0
  181.9900  178.0810  139.7640 N   0  0  0  0  0  0  0  0  0  0  0  0
  183.1370  177.6610  137.3490 S   0  0  0  0  0  0  0  0  0  0  0  0
  181.6120  178.6180  137.4610 C   0  0  0  0  0  2  0  0  0  0  0  0
  181.5720  179.1640  138.8650 C   0  0  2  0  0  3  0  0  0  0  0  0
  183.0400  177.2570  139.1360 C   0  0  2  0  0  3  0  0  0  0  0  0
  181.3080  175.6540  139.2830 C   0  0  0  0  0  1  0  0  0  0  0  0
  182.7520  175.8240  139.3020 N   0  0  0  0  0  0  0  0  0  0  0  0
  183.2340  175.0850  138.1460 C   0  0  0  0  0  1  0  0  0  0  0  0
  182.4270  180.2730  138.9450 O   0  0  0  0  0  0  0  0  0  0  0  0
  181.7060  181.3240  138.3720 C   0  0  0  0  0  1  0  0  0  0  0  0
  1 10  1  0  0  0  0
  2  4  2  0  0  0  0
  3  2  1  0  0  0  0
  3  6  1  0  0  0  0
  4  5  1  0  0  0  0
  4 13  1  0  0  0  0
  5 11  1  0  0  0  0
  6  9  1  0  0  0  0
  6  5  2  0  0  0  0
  9  1  1  0  0  0  0
  9 10  2  0  0  0  0
 10 12  1  0  0  0  0
 11 12  2  0  0  0  0
 11  7  1  0  0  0  0
 12  8  1  0  0  0  0
 13 14  1  0  0  0  0
 15 16  1  6  0  0  0
 15  3  1  0  0  0  0
 17 15  1  0  0  0  0
 18 21  1  0  0  0  0
 19 17  1  0  0  0  0
 20 23  1  0  0  0  0
 20 18  2  0  0  0  0
 21 19  2  0  0  0  0
 22 24  1  0  0  0  0
 22 19  1  0  0  0  0
 23 22  2  0  0  0  0
 25 24  1  0  0  0  0
 26 30  1  0  0  0  0
 26 25  1  1  0  0  0
 27 28  1  6  0  0  0
 27 30  1  0  0  0  0
 27 32  1  0  0  0  0
 29 34  1  1  0  0  0
 29 31  1  0  0  0  0
 29 27  1  0  0  0  0
 30 32  1  0  0  0  0
 31 26  1  0  0  0  0
 32 33  1  0  0  0  0
 34 35  1  0  0  0  0
 35 36  1  0  0  0  0
 36 37  1  0  0  0  0
 38 36  1  0  0  0  0
 40 39  1  0  0  0  0
 40 36  1  0  0  0  0
 41 42  1  0  0  0  0
 41  2  1  0  0  0  0
 43 42  1  0  0  0  0
 44 43  1  0  0  0  0
 45 44  1  0  0  0  0
 46 45  1  0  0  0  0
 47 48  1  0  0  0  0
 47 50  1  0  0  0  0
 48 49  1  0  0  0  0
 49 54  1  0  0  0  0
 49 46  1  0  0  0  0
 50 52  1  0  0  0  0
 50 46  1  0  0  0  0
 51 52  1  0  0  0  0
 53 52  1  0  0  0  0
 55 54  1  0  0  0  0
M  END
>  <MODEL>
2

>  <REMARK>
 VINA RESULT:      -7.0      2.750      6.892
  Name = 
  19 active torsions:
  status: ('A' for Active; 'I' for Inactive)
    1  A    between atoms: C_2  and  O_46
    2  A    between atoms: O_4  and  C_23
    3  A    between atoms: C_5  and  N_10
    4  A    between atoms: C_5  and  C_50
    5  A    between atoms: C_7  and  O_35
    6  A    between atoms: C_7  and  C_49
    7  A    between atoms: C_9  and  C_54
    8  A    between atoms: N_11  and  C_32
    9  A    between atoms: C_13  and  C_50
   10  A    between atoms: C_15  and  C_21
   11  A    between atoms: N_18  and  C_39
   12  A    between atoms: N_18  and  O_46
   13  A    between atoms: O_20  and  N_48
   14  A    between atoms: O_20  and  C_54
   15  A    between atoms: C_26  and  C_51
   16  A    between atoms: C_32  and  C_34
   17  A    between atoms: N_33  and  C_45
   18  A    between atoms: C_34  and  N_48
   19  A    between atoms: O_35  and  C_51
                            x       y       z     vdW  Elec       q    Type
                         _______ _______ _______ _____ _____    ______ ____

>  <TORSDO>
F 19

$$$$
=
 OpenBabel10232412273D

 55 61  0  0  1  0  0  0  0  0999 V2000
  188.1510  177.8040  147.8540 C   0  0  0  0  0  2  0  0  0  0  0  0
  188.2120  177.5770  142.9890 C   0  0  0  0  0  0  0  0  0  0  0  0
  187.5500  177.9760  144.1120 N   0  0  0  0  0  0  0  0  0  0  0  0
  189.4810  177.0660  143.2890 C   0  0  0  0  0  0  0  0  0  0  0  0
  189.6090  177.0910  144.6680 C   0  0  0  0  0  0  0  0  0  0  0  0
  188.3950  177.6440  145.1120 C   0  0  0  0  0  0  0  0  0  0  0  0
  191.9440  176.0680  144.9860 C   0  0  0  0  0  1  0  0  0  0  0  0
  191.5350  176.3360  147.8930 O   0  0  0  0  0  1  0  0  0  0  0  0
  188.3010  177.7120  146.4640 C   0  0  0  0  0  0  0  0  0  0  0  0
  189.3550  177.2710  147.3720 C   0  0  0  0  0  0  0  0  0  0  0  0
  190.6900  176.6400  145.5530 C   0  0  0  0  0  0  0  0  0  0  0  0
  190.5580  176.7390  146.9900 C   0  0  0  0  0  0  0  0  0  0  0  0
  190.4540  176.4990  142.3060 C   0  0  0  0  0  2  0  0  0  0  0  0
  191.3930  177.5850  141.8170 C   0  0  0  0  0  1  0  0  0  0  0  0
  186.1380  178.4030  144.2010 C   0  0  2  0  0  3  0  0  0  0  0  0
  185.4870  178.0070  145.5230 C   0  0  0  0  0  1  0  0  0  0  0  0
  185.2740  177.9680  143.0070 C   0  0  0  0  0  2  0  0  0  0  0  0
  181.9110  179.2520  144.2310 C   0  0  0  0  0  3  0  0  0  0  0  0
  183.8560  178.4810  143.0240 C   0  0  0  0  0  0  0  0  0  0  0  0
  181.2010  179.2630  143.0700 N   0  0  0  0  0  0  0  0  0  0  0  0
  183.2480  178.8580  144.2280 C   0  0  0  0  0  3  0  0  0  0  0  0
  183.1070  178.5100  141.8350 C   0  0  0  0  0  0  0  0  0  0  0  0
  181.7660  178.9060  141.8860 C   0  0  0  0  0  3  0  0  0  0  0  0
  183.7160  178.1700  140.5860 N   0  0  0  0  0  2  0  0  0  0  0  0
  183.1170  178.4390  139.3990 O   0  0  0  0  0  0  0  0  0  0  0  0
  182.4970  177.2420  139.0290 C   0  0  1  0  0  3  0  0  0  0  0  0
  182.3820  176.2350  136.8940 C   0  0  2  0  0  0  0  0  0  0  0  0
  181.3950  175.6350  136.1080 O   0  0  0  0  0  1  0  0  0  0  0  0
  183.1250  175.3940  137.9040 C   0  0  2  0  0  3  0  0  0  0  0  0
  181.8290  177.3860  137.6690 C   0  0  2  0  0  3  0  0  0  0  0  0
  183.4440  176.2000  139.0050 O   0  0  0  0  0  0  0  0  0  0  0  0
  182.8420  177.6430  136.5570 C   0  0  2  0  0  3  0  0  0  0  0  0
  182.1790  178.1140  135.4240 O   0  0  0  0  0  1  0  0  0  0  0  0
  184.4030  174.8420  137.3020 C   0  0  0  0  0  2  0  0  0  0  0  0
  184.1080  173.9500  136.2530 O   0  0  0  0  0  0  0  0  0  0  0  0
  184.6440  172.6670  136.5420 C   0  0  0  0  0  0  0  0  0  0  0  0
  185.1950  172.0880  135.2520 C   0  0  0  0  0  1  0  0  0  0  0  0
  185.8070  172.7650  137.5220 C   0  0  0  0  0  1  0  0  0  0  0  0
  183.6490  170.4650  136.4150 O   0  0  0  0  0  1  0  0  0  0  0  0
  183.5950  171.6890  137.0900 C   0  0  0  0  0  2  0  0  0  0  0  0
  187.6440  177.6320  141.6060 C   0  0  0  0  0  2  0  0  0  0  0  0
  188.1460  178.7470  140.9370 O   0  0  0  0  0  0  0  0  0  0  0  0
  187.8540  178.5240  139.6330 N   0  0  0  0  0  2  0  0  0  0  0  0
  188.5640  177.3180  139.2450 C   0  0  0  0  0  2  0  0  0  0  0  0
  189.2720  177.5420  137.9080 C   0  0  0  0  0  2  0  0  0  0  0  0
  189.3730  176.3260  137.0810 N   0  0  0  0  0  0  0  0  0  0  0  0
  190.1990  175.6100  134.6060 S   0  0  0  0  0  0  0  0  0  0  0  0
  188.5670  175.1030  135.1860 C   0  0  0  0  0  2  0  0  0  0  0  0
  188.1840  176.0980  136.2510 C   0  0  2  0  0  3  0  0  0  0  0  0
  190.5970  176.2980  136.2590 C   0  0  2  0  0  3  0  0  0  0  0  0
  191.5250  174.1260  136.3700 C   0  0  0  0  0  1  0  0  0  0  0  0
  191.6390  175.4780  136.8960 N   0  0  0  0  0  0  0  0  0  0  0  0
  192.9540  175.9360  136.4770 C   0  0  0  0  0  1  0  0  0  0  0  0
  187.7400  177.2760  135.6330 O   0  0  0  0  0  0  0  0  0  0  0  0
  186.5310  176.9300  135.0250 C   0  0  0  0  0  1  0  0  0  0  0  0
  2  4  2  0  0  0  0
  2  3  1  0  0  0  0
  3 15  1  0  0  0  0
  3  6  1  0  0  0  0
  4  5  1  0  0  0  0
  5  6  2  0  0  0  0
  5 11  1  0  0  0  0
  6  9  1  0  0  0  0
  7 11  1  0  0  0  0
  9 10  2  0  0  0  0
  9  1  1  0  0  0  0
 10  1  1  0  0  0  0
 11 12  2  0  0  0  0
 12 10  1  0  0  0  0
 12  8  1  0  0  0  0
 13  4  1  0  0  0  0
 14 13  1  0  0  0  0
 15 16  1  1  0  0  0
 17 19  1  0  0  0  0
 17 15  1  0  0  0  0
 19 21  2  0  0  0  0
 20 18  2  0  0  0  0
 21 18  1  0  0  0  0
 22 23  2  0  0  0  0
 22 19  1  0  0  0  0
 23 20  1  0  0  0  0
 24 22  1  0  0  0  0
 25 24  1  0  0  0  0
 26 25  1  6  0  0  0
 27 28  1  6  0  0  0
 27 30  1  0  0  0  0
 27 29  1  0  0  0  0
 29 34  1  6  0  0  0
 29 31  1  0  0  0  0
 30 26  1  0  0  0  0
 31 26  1  0  0  0  0
 32 27  1  0  0  0  0
 32 30  1  0  0  0  0
 33 32  1  0  0  0  0
 35 36  1  0  0  0  0
 35 34  1  0  0  0  0
 36 40  1  0  0  0  0
 36 38  1  0  0  0  0
 37 36  1  0  0  0  0
 39 40  1  0  0  0  0
 41  2  1  0  0  0  0
 42 41  1  0  0  0  0
 43 42  1  0  0  0  0
 44 43  1  0  0  0  0
 45 44  1  0  0  0  0
 46 45  1  0  0  0  0
 47 48  1  0  0  0  0
 47 50  1  0  0  0  0
 48 49  1  0  0  0  0
 49 46  1  0  0  0  0
 50 52  1  0  0  0  0
 50 46  1  0  0  0  0
 51 52  1  0  0  0  0
 53 52  1  0  0  0  0
 54 49  1  0  0  0  0
 55 54  1  0  0  0  0
M  END
>  <MODEL>
3

>  <REMARK>
 VINA RESULT:      -7.0      3.520      9.509
  Name = 
  19 active torsions:
  status: ('A' for Active; 'I' for Inactive)
    1  A    between atoms: C_2  and  O_46
    2  A    between atoms: O_4  and  C_23
    3  A    between atoms: C_5  and  N_10
    4  A    between atoms: C_5  and  C_50
    5  A    between atoms: C_7  and  O_35
    6  A    between atoms: C_7  and  C_49
    7  A    between atoms: C_9  and  C_54
    8  A    between atoms: N_11  and  C_32
    9  A    between atoms: C_13  and  C_50
   10  A    between atoms: C_15  and  C_21
   11  A    between atoms: N_18  and  C_39
   12  A    between atoms: N_18  and  O_46
   13  A    between atoms: O_20  and  N_48
   14  A    between atoms: O_20  and  C_54
   15  A    between atoms: C_26  and  C_51
   16  A    between atoms: C_32  and  C_34
   17  A    between atoms: N_33  and  C_45
   18  A    between atoms: C_34  and  N_48
   19  A    between atoms: O_35  and  C_51
                            x       y       z     vdW  Elec       q    Type
                         _______ _______ _______ _____ _____    ______ ____

>  <TORSDO>
F 19

$$$$
=
 OpenBabel10232412273D

 55 61  0  0  1  0  0  0  0  0999 V2000
  187.9020  178.1480  148.3660 C   0  0  0  0  0  2  0  0  0  0  0  0
  188.0770  177.7180  143.5170 C   0  0  0  0  0  0  0  0  0  0  0  0
  187.3550  178.0930  144.6120 N   0  0  0  0  0  0  0  0  0  0  0  0
  189.3860  177.3580  143.8580 C   0  0  0  0  0  0  0  0  0  0  0  0
  189.4860  177.4570  145.2350 C   0  0  0  0  0  0  0  0  0  0  0  0
  188.2120  177.8960  145.6370 C   0  0  0  0  0  0  0  0  0  0  0  0
  191.9090  176.7020  145.6310 C   0  0  0  0  0  1  0  0  0  0  0  0
  191.4210  177.0500  148.5170 O   0  0  0  0  0  1  0  0  0  0  0  0
  188.0870  178.0120  146.9830 C   0  0  0  0  0  0  0  0  0  0  0  0
  189.1640  177.7260  147.9250 C   0  0  0  0  0  0  0  0  0  0  0  0
  190.5910  177.1620  146.1550 C   0  0  0  0  0  0  0  0  0  0  0  0
  190.4240  177.3090  147.5840 C   0  0  0  0  0  0  0  0  0  0  0  0
  190.4310  176.8550  142.9140 C   0  0  0  0  0  2  0  0  0  0  0  0
  190.3300  175.3490  142.7780 C   0  0  0  0  0  1  0  0  0  0  0  0
  185.9050  178.3710  144.6620 C   0  0  2  0  0  3  0  0  0  0  0  0
  185.2660  177.9240  145.9750 C   0  0  0  0  0  1  0  0  0  0  0  0
  185.1200  177.8340  143.4550 C   0  0  0  0  0  2  0  0  0  0  0  0
  181.7110  179.3670  144.1540 C   0  0  0  0  0  3  0  0  0  0  0  0
  183.7560  178.4450  143.2560 C   0  0  0  0  0  0  0  0  0  0  0  0
  181.1860  179.4110  142.9000 N   0  0  0  0  0  0  0  0  0  0  0  0
  183.0030  178.8810  144.3540 C   0  0  0  0  0  3  0  0  0  0  0  0
  183.1970  178.5090  141.9690 C   0  0  0  0  0  0  0  0  0  0  0  0
  181.8950  179.0000  141.8160 C   0  0  0  0  0  3  0  0  0  0  0  0
  183.9610  178.1110  140.8260 N   0  0  0  0  0  2  0  0  0  0  0  0
  183.5260  178.3280  139.5600 O   0  0  0  0  0  0  0  0  0  0  0  0
  182.4790  177.4200  139.3780 C   0  0  1  0  0  3  0  0  0  0  0  0
  181.3760  176.8190  137.3750 C   0  0  2  0  0  0  0  0  0  0  0  0
  180.0530  176.6420  136.9620 O   0  0  0  0  0  1  0  0  0  0  0  0
  182.1020  175.6630  138.0180 C   0  0  2  0  0  3  0  0  0  0  0  0
  181.4890  177.9460  138.3480 C   0  0  2  0  0  3  0  0  0  0  0  0
  182.9940  176.1730  138.9720 O   0  0  0  0  0  0  0  0  0  0  0  0
  182.1170  178.0800  136.9640 C   0  0  2  0  0  3  0  0  0  0  0  0
  181.3060  178.8820  136.1600 O   0  0  0  0  0  1  0  0  0  0  0  0
  182.8810  174.8770  136.9800 C   0  0  0  0  0  2  0  0  0  0  0  0
  183.5250  173.7760  137.5770 O   0  0  0  0  0  0  0  0  0  0  0  0
  183.9730  172.8740  136.5780 C   0  0  0  0  0  0  0  0  0  0  0  0
  183.1020  171.6340  136.6390 C   0  0  0  0  0  1  0  0  0  0  0  0
  183.8060  173.4710  135.1850 C   0  0  0  0  0  1  0  0  0  0  0  0
  185.9390  172.9120  137.9900 O   0  0  0  0  0  1  0  0  0  0  0  0
  185.4330  172.4380  136.7750 C   0  0  0  0  0  2  0  0  0  0  0  0
  187.5310  177.6520  142.1260 C   0  0  0  0  0  2  0  0  0  0  0  0
  187.8060  178.8450  141.4570 O   0  0  0  0  0  0  0  0  0  0  0  0
  187.7980  178.5100  140.1450 N   0  0  0  0  0  2  0  0  0  0  0  0
  189.1760  178.2430  139.7710 C   0  0  0  0  0  2  0  0  0  0  0  0
  189.3090  176.7990  139.2850 C   0  0  0  0  0  2  0  0  0  0  0  0
  189.1940  176.6540  137.8230 N   0  0  0  0  0  0  0  0  0  0  0  0
  188.3290  174.8310  136.0200 S   0  0  0  0  0  0  0  0  0  0  0  0
  189.9680  175.5620  135.8370 C   0  0  0  0  0  2  0  0  0  0  0  0
  190.3700  176.0180  137.2160 C   0  0  2  0  0  3  0  0  0  0  0  0
  187.9570  175.9610  137.4170 C   0  0  2  0  0  3  0  0  0  0  0  0
  187.5950  178.0720  136.4160 C   0  0  0  0  0  1  0  0  0  0  0  0
  186.9240  176.9260  137.0090 N   0  0  0  0  0  0  0  0  0  0  0  0
  186.1180  176.3650  135.9360 C   0  0  0  0  0  1  0  0  0  0  0  0
  190.8050  174.9070  137.9530 O   0  0  0  0  0  0  0  0  0  0  0  0
  192.1590  174.7740  137.6360 C   0  0  0  0  0  1  0  0  0  0  0  0
  2  4  2  0  0  0  0
  2  3  1  0  0  0  0
  3 15  1  0  0  0  0
  3  6  1  0  0  0  0
  4  5  1  0  0  0  0
  5  6  2  0  0  0  0
  5 11  1  0  0  0  0
  6  9  1  0  0  0  0
  7 11  1  0  0  0  0
  9 10  2  0  0  0  0
  9  1  1  0  0  0  0
 10  1  1  0  0  0  0
 11 12  2  0  0  0  0
 12 10  1  0  0  0  0
 12  8  1  0  0  0  0
 13  4  1  0  0  0  0
 14 13  1  0  0  0  0
 15 16  1  1  0  0  0
 17 15  1  0  0  0  0
 18 21  1  0  0  0  0
 19 17  1  0  0  0  0
 19 21  2  0  0  0  0
 20 18  2  0  0  0  0
 22 19  1  0  0  0  0
 23 22  2  0  0  0  0
 23 20  1  0  0  0  0
 24 22  1  0  0  0  0
 25 24  1  0  0  0  0
 26 25  1  6  0  0  0
 27 28  1  6  0  0  0
 27 29  1  0  0  0  0
 27 30  1  0  0  0  0
 29 34  1  6  0  0  0
 29 31  1  0  0  0  0
 30 26  1  0  0  0  0
 31 26  1  0  0  0  0
 32 27  1  0  0  0  0
 32 30  1  0  0  0  0
 33 32  1  0  0  0  0
 34 35  1  0  0  0  0
 36 37  1  0  0  0  0
 36 40  1  0  0  0  0
 36 35  1  0  0  0  0
 38 36  1  0  0  0  0
 40 39  1  0  0  0  0
 41  2  1  0  0  0  0
 42 41  1  0  0  0  0
 43 42  1  0  0  0  0
 44 43  1  0  0  0  0
 45 44  1  0  0  0  0
 46 45  1  0  0  0  0
 47 50  1  0  0  0  0
 48 47  1  0  0  0  0
 48 49  1  0  0  0  0
 49 46  1  0  0  0  0
 49 54  1  0  0  0  0
 50 46  1  0  0  0  0
 51 52  1  0  0  0  0
 52 50  1  0  0  0  0
 53 52  1  0  0  0  0
 55 54  1  0  0  0  0
M  END
>  <MODEL>
4

>  <REMARK>
 VINA RESULT:      -7.0      2.989      9.645
  Name = 
  19 active torsions:
  status: ('A' for Active; 'I' for Inactive)
    1  A    between atoms: C_2  and  O_46
    2  A    between atoms: O_4  and  C_23
    3  A    between atoms: C_5  and  N_10
    4  A    between atoms: C_5  and  C_50
    5  A    between atoms: C_7  and  O_35
    6  A    between atoms: C_7  and  C_49
    7  A    between atoms: C_9  and  C_54
    8  A    between atoms: N_11  and  C_32
    9  A    between atoms: C_13  and  C_50
   10  A    between atoms: C_15  and  C_21
   11  A    between atoms: N_18  and  C_39
   12  A    between atoms: N_18  and  O_46
   13  A    between atoms: O_20  and  N_48
   14  A    between atoms: O_20  and  C_54
   15  A    between atoms: C_26  and  C_51
   16  A    between atoms: C_32  and  C_34
   17  A    between atoms: N_33  and  C_45
   18  A    between atoms: C_34  and  N_48
   19  A    between atoms: O_35  and  C_51
                            x       y       z     vdW  Elec       q    Type
                         _______ _______ _______ _____ _____    ______ ____

>  <TORSDO>
F 19

$$$$
=
 OpenBabel10232412273D

 55 61  0  0  1  0  0  0  0  0999 V2000
  185.3540  178.3920  137.7400 C   0  0  0  0  0  2  0  0  0  0  0  0
  189.3890  177.5600  140.3390 C   0  0  0  0  0  0  0  0  0  0  0  0
  188.0600  177.8650  140.3470 N   0  0  0  0  0  0  0  0  0  0  0  0
  189.8460  177.2690  139.0480 C   0  0  0  0  0  0  0  0  0  0  0  0
  188.7740  177.4490  138.1910 C   0  0  0  0  0  0  0  0  0  0  0  0
  187.7180  177.8240  139.0410 C   0  0  0  0  0  0  0  0  0  0  0  0
  189.8430  176.9310  135.9130 C   0  0  0  0  0  1  0  0  0  0  0  0
  187.2360  177.5460  134.6820 O   0  0  0  0  0  1  0  0  0  0  0  0
  186.5670  178.0970  138.3760 C   0  0  0  0  0  0  0  0  0  0  0  0
  186.4260  178.0000  136.9270 C   0  0  0  0  0  0  0  0  0  0  0  0
  188.6650  177.3400  136.7310 C   0  0  0  0  0  0  0  0  0  0  0  0
  187.4180  177.6270  136.0580 C   0  0  0  0  0  0  0  0  0  0  0  0
  191.2540  176.9390  138.6690 C   0  0  0  0  0  2  0  0  0  0  0  0
  191.3930  175.4490  138.4250 C   0  0  0  0  0  1  0  0  0  0  0  0
  187.2790  178.3840  141.4890 C   0  0  2  0  0  3  0  0  0  0  0  0
  186.9660  177.3060  142.5240 C   0  0  0  0  0  1  0  0  0  0  0  0
  186.0090  179.1480  141.0860 C   0  0  0  0  0  2  0  0  0  0  0  0
  184.1280  179.7050  144.3430 C   0  0  0  0  0  3  0  0  0  0  0  0
  184.9160  179.1640  142.1240 C   0  0  0  0  0  0  0  0  0  0  0  0
  182.9670  179.0460  144.0870 N   0  0  0  0  0  0  0  0  0  0  0  0
  185.1230  179.7730  143.3680 C   0  0  0  0  0  3  0  0  0  0  0  0
  183.7040  178.4970  141.8770 C   0  0  0  0  0  0  0  0  0  0  0  0
  182.7360  178.4490  142.8870 C   0  0  0  0  0  3  0  0  0  0  0  0
  183.4500  177.9040  140.6010 N   0  0  0  0  0  2  0  0  0  0  0  0
  182.3030  178.1380  139.9150 O   0  0  0  0  0  0  0  0  0  0  0  0
  181.8740  176.8770  139.4910 C   0  0  1  0  0  3  0  0  0  0  0  0
  181.7640  176.0160  137.2920 C   0  0  2  0  0  0  0  0  0  0  0  0
  180.8360  175.3030  136.5290 O   0  0  0  0  0  1  0  0  0  0  0  0
  182.7220  175.2550  138.1770 C   0  0  2  0  0  3  0  0  0  0  0  0
  181.0830  176.9910  138.1950 C   0  0  2  0  0  3  0  0  0  0  0  0
  182.9840  176.0280  139.3160 O   0  0  0  0  0  0  0  0  0  0  0  0
  181.9410  177.5040  137.0430 C   0  0  2  0  0  3  0  0  0  0  0  0
  181.1150  177.9250  136.0000 O   0  0  0  0  0  1  0  0  0  0  0  0
  184.0250  174.9870  137.4470 C   0  0  0  0  0  2  0  0  0  0  0  0
  184.5860  173.7680  137.8750 O   0  0  0  0  0  0  0  0  0  0  0  0
  185.3810  173.2100  136.8410 C   0  0  0  0  0  0  0  0  0  0  0  0
  185.6140  174.2840  135.7950 C   0  0  0  0  0  1  0  0  0  0  0  0
  186.7500  172.7910  137.3660 C   0  0  0  0  0  1  0  0  0  0  0  0
  183.4070  172.3270  135.7550 O   0  0  0  0  0  1  0  0  0  0  0  0
  184.7120  172.0130  136.1490 C   0  0  0  0  0  2  0  0  0  0  0  0
  190.2680  177.5770  141.5490 C   0  0  0  0  0  2  0  0  0  0  0  0
  190.3440  176.2940  142.0910 O   0  0  0  0  0  0  0  0  0  0  0  0
  189.8660  176.4270  143.3520 N   0  0  0  0  0  2  0  0  0  0  0  0
  190.8070  177.2700  144.0690 C   0  0  0  0  0  2  0  0  0  0  0  0
  190.0490  178.1940  145.0240 C   0  0  0  0  0  2  0  0  0  0  0  0
  189.1680  177.4790  145.9640 N   0  0  0  0  0  0  0  0  0  0  0  0
  188.1850  177.7860  148.4670 S   0  0  0  0  0  0  0  0  0  0  0  0
  188.9790  176.2350  148.0020 C   0  0  0  0  0  2  0  0  0  0  0  0
  189.8990  176.5720  146.8570 C   0  0  2  0  0  3  0  0  0  0  0  0
  188.3050  178.3910  146.7390 C   0  0  2  0  0  3  0  0  0  0  0  0
  186.5560  177.1210  145.7810 C   0  0  0  0  0  1  0  0  0  0  0  0
  186.9590  178.4690  146.1490 N   0  0  0  0  0  0  0  0  0  0  0  0
  186.0000  178.8860  147.1590 C   0  0  0  0  0  1  0  0  0  0  0  0
  191.0630  177.1640  147.3690 O   0  0  0  0  0  0  0  0  0  0  0  0
  191.9800  176.1150  147.4800 C   0  0  0  0  0  1  0  0  0  0  0  0
  1  9  1  0  0  0  0
  2  3  1  0  0  0  0
  2 41  1  0  0  0  0
  3 15  1  0  0  0  0
  4  2  2  0  0  0  0
  5  6  1  0  0  0  0
  5  4  1  0  0  0  0
  6  3  1  0  0  0  0
  7 11  1  0  0  0  0
  8 12  1  0  0  0  0
  9  6  2  0  0  0  0
 10  1  1  0  0  0  0
 10  9  1  0  0  0  0
 11  5  2  0  0  0  0
 12 11  1  0  0  0  0
 12 10  2  0  0  0  0
 13  4  1  0  0  0  0
 14 13  1  0  0  0  0
 15 16  1  1  0  0  0
 17 15  1  0  0  0  0
 17 19  1  0  0  0  0
 19 21  1  0  0  0  0
 20 18  1  0  0  0  0
 21 18  2  0  0  0  0
 22 19  2  0  0  0  0
 22 23  1  0  0  0  0
 23 20  2  0  0  0  0
 24 22  1  0  0  0  0
 25 24  1  0  0  0  0
 26 25  1  6  0  0  0
 27 28  1  6  0  0  0
 27 29  1  0  0  0  0
 27 30  1  0  0  0  0
 29 34  1  6  0  0  0
 29 31  1  0  0  0  0
 30 26  1  0  0  0  0
 31 26  1  0  0  0  0
 32 27  1  0  0  0  0
 32 30  1  0  0  0  0
 33 32  1  0  0  0  0
 34 35  1  0  0  0  0
 36 38  1  0  0  0  0
 36 35  1  0  0  0  0
 37 36  1  0  0  0  0
 39 40  1  0  0  0  0
 40 36  1  0  0  0  0
 41 42  1  0  0  0  0
 42 43  1  0  0  0  0
 43 44  1  0  0  0  0
 44 45  1  0  0  0  0
 45 46  1  0  0  0  0
 46 50  1  0  0  0  0
 46 49  1  0  0  0  0
 48 47  1  0  0  0  0
 49 54  1  0  0  0  0
 49 48  1  0  0  0  0
 50 47  1  0  0  0  0
 51 52  1  0  0  0  0
 52 50  1  0  0  0  0
 52 53  1  0  0  0  0
 54 55  1  0  0  0  0
M  END
>  <MODEL>
5

>  <REMARK>
 VINA RESULT:      -6.8      3.044      7.600
  Name = 
  19 active torsions:
  status: ('A' for Active; 'I' for Inactive)
    1  A    between atoms: C_2  and  O_46
    2  A    between atoms: O_4  and  C_23
    3  A    between atoms: C_5  and  N_10
    4  A    between atoms: C_5  and  C_50
    5  A    between atoms: C_7  and  O_35
    6  A    between atoms: C_7  and  C_49
    7  A    between atoms: C_9  and  C_54
    8  A    between atoms: N_11  and  C_32
    9  A    between atoms: C_13  and  C_50
   10  A    between atoms: C_15  and  C_21
   11  A    between atoms: N_18  and  C_39
   12  A    between atoms: N_18  and  O_46
   13  A    between atoms: O_20  and  N_48
   14  A    between atoms: O_20  and  C_54
   15  A    between atoms: C_26  and  C_51
   16  A    between atoms: C_32  and  C_34
   17  A    between atoms: N_33  and  C_45
   18  A    between atoms: C_34  and  N_48
   19  A    between atoms: O_35  and  C_51
                            x       y       z     vdW  Elec       q    Type
                         _______ _______ _______ _____ _____    ______ ____

>  <TORSDO>
F 19

$$$$
=
 OpenBabel10232412273D

 55 61  0  0  1  0  0  0  0  0999 V2000
  182.1440  178.6110  140.7050 C   0  0  0  0  0  2  0  0  0  0  0  0
  186.6810  178.1880  138.9810 C   0  0  0  0  0  0  0  0  0  0  0  0
  185.8770  178.3760  140.0670 N   0  0  0  0  0  0  0  0  0  0  0  0
  185.9370  177.9140  137.8280 C   0  0  0  0  0  0  0  0  0  0  0  0
  184.6010  177.9810  138.1840 C   0  0  0  0  0  0  0  0  0  0  0  0
  184.6300  178.2790  139.5580 C   0  0  0  0  0  0  0  0  0  0  0  0
  183.4450  177.5140  135.9370 C   0  0  0  0  0  1  0  0  0  0  0  0
  180.8680  177.8730  137.3230 O   0  0  0  0  0  1  0  0  0  0  0  0
  183.3950  178.4370  140.0970 C   0  0  0  0  0  0  0  0  0  0  0  0
  182.1560  178.2990  139.3380 C   0  0  0  0  0  0  0  0  0  0  0  0
  183.3730  177.8340  137.3920 C   0  0  0  0  0  0  0  0  0  0  0  0
  182.0740  177.9980  138.0040 C   0  0  0  0  0  0  0  0  0  0  0  0
  186.4920  177.7010  136.4560 C   0  0  0  0  0  2  0  0  0  0  0  0
  186.8190  176.2360  136.2470 C   0  0  0  0  0  1  0  0  0  0  0  0
  186.2930  178.8470  141.4050 C   0  0  2  0  0  3  0  0  0  0  0  0
  187.6670  179.5120  141.3910 C   0  0  0  0  0  1  0  0  0  0  0  0
  186.2100  177.7750  142.5020 C   0  0  0  0  0  2  0  0  0  0  0  0
  183.4430  179.1550  144.7150 C   0  0  0  0  0  3  0  0  0  0  0  0
  185.4090  178.1660  143.7180 C   0  0  0  0  0  0  0  0  0  0  0  0
  184.0130  179.0370  145.9450 N   0  0  0  0  0  0  0  0  0  0  0  0
  184.1320  178.7240  143.5820 C   0  0  0  0  0  3  0  0  0  0  0  0
  185.9750  178.0460  144.9990 C   0  0  0  0  0  0  0  0  0  0  0  0
  185.2500  178.4960  146.1080 C   0  0  0  0  0  3  0  0  0  0  0  0
  187.2590  177.4400  145.1700 N   0  0  0  0  0  2  0  0  0  0  0  0
  187.6540  176.9140  146.3570 O   0  0  0  0  0  0  0  0  0  0  0  0
  188.7150  177.7230  146.7740 C   0  0  1  0  0  3  0  0  0  0  0  0
  190.9950  177.1550  147.0310 C   0  0  2  0  0  0  0  0  0  0  0  0
  191.9880  177.3590  147.9910 O   0  0  0  0  0  1  0  0  0  0  0  0
  190.7650  178.2120  145.9780 C   0  0  2  0  0  3  0  0  0  0  0  0
  189.6630  176.9380  147.6700 C   0  0  2  0  0  3  0  0  0  0  0  0
  189.4020  178.2270  145.6530 O   0  0  0  0  0  0  0  0  0  0  0  0
  190.3360  175.7900  146.9260 C   0  0  2  0  0  3  0  0  0  0  0  0
  190.8990  174.9050  147.8470 O   0  0  0  0  0  1  0  0  0  0  0  0
  191.5720  177.9090  144.7300 C   0  0  0  0  0  2  0  0  0  0  0  0
  190.7890  178.1130  143.5770 O   0  0  0  0  0  0  0  0  0  0  0  0
  190.8390  176.9640  142.7460 C   0  0  0  0  0  0  0  0  0  0  0  0
  191.6610  177.3080  141.5180 C   0  0  0  0  0  1  0  0  0  0  0  0
  191.5440  175.8090  143.4480 C   0  0  0  0  0  1  0  0  0  0  0  0
  189.0370  175.3640  142.9690 O   0  0  0  0  0  1  0  0  0  0  0  0
  189.4510  176.5050  142.2740 C   0  0  0  0  0  2  0  0  0  0  0  0
  188.1720  178.3070  139.0020 C   0  0  0  0  0  2  0  0  0  0  0  0
  188.7430  177.0340  138.9770 O   0  0  0  0  0  0  0  0  0  0  0  0
  189.9780  177.2240  138.4530 N   0  0  0  0  0  2  0  0  0  0  0  0
  190.4830  175.9140  138.0840 C   0  0  0  0  0  2  0  0  0  0  0  0
  191.5900  176.0620  137.0390 C   0  0  0  0  0  2  0  0  0  0  0  0
  192.4550  174.8740  136.9230 N   0  0  0  0  0  0  0  0  0  0  0  0
  194.0080  173.6610  135.0680 S   0  0  0  0  0  0  0  0  0  0  0  0
  192.7790  172.6990  135.9720 C   0  0  0  0  0  2  0  0  0  0  0  0
  191.7390  173.6900  136.4310 C   0  0  2  0  0  3  0  0  0  0  0  0
  193.6620  175.1280  136.1130 C   0  0  2  0  0  3  0  0  0  0  0  0
  194.7540  174.5080  138.1170 C   0  0  0  0  0  1  0  0  0  0  0  0
  194.8230  175.4050  136.9740 N   0  0  0  0  0  0  0  0  0  0  0  0
  196.0490  175.0400  136.2830 C   0  0  0  0  0  1  0  0  0  0  0  0
  190.8960  173.9960  135.3530 O   0  0  0  0  0  0  0  0  0  0  0  0
  190.0940  172.8630  135.1920 C   0  0  0  0  0  1  0  0  0  0  0  0
  2 41  1  0  0  0  0
  2  3  1  0  0  0  0
  3 15  1  0  0  0  0
  4  5  1  0  0  0  0
  4  2  2  0  0  0  0
  5  6  1  0  0  0  0
  6  3  1  0  0  0  0
  6  9  2  0  0  0  0
  7 11  1  0  0  0  0
  8 12  1  0  0  0  0
  9  1  1  0  0  0  0
 10  9  1  0  0  0  0
 10  1  1  0  0  0  0
 11 12  1  0  0  0  0
 11  5  2  0  0  0  0
 12 10  2  0  0  0  0
 13  4  1  0  0  0  0
 14 13  1  0  0  0  0
 15 16  1  6  0  0  0
 15 17  1  0  0  0  0
 17 19  1  0  0  0  0
 18 20  1  0  0  0  0
 19 22  2  0  0  0  0
 20 23  2  0  0  0  0
 21 19  1  0  0  0  0
 21 18  2  0  0  0  0
 22 24  1  0  0  0  0
 22 23  1  0  0  0  0
 24 25  1  0  0  0  0
 26 25  1  6  0  0  0
 26 30  1  0  0  0  0
 27 30  1  0  0  0  0
 27 28  1  1  0  0  0
 29 34  1  6  0  0  0
 29 27  1  0  0  0  0
 31 29  1  0  0  0  0
 31 26  1  0  0  0  0
 32 27  1  0  0  0  0
 32 30  1  0  0  0  0
 32 33  1  0  0  0  0
 35 34  1  0  0  0  0
 36 38  1  0  0  0  0
 36 35  1  0  0  0  0
 37 36  1  0  0  0  0
 40 36  1  0  0  0  0
 40 39  1  0  0  0  0
 42 41  1  0  0  0  0
 43 42  1  0  0  0  0
 44 43  1  0  0  0  0
 45 44  1  0  0  0  0
 46 45  1  0  0  0  0
 47 48  1  0  0  0  0
 47 50  1  0  0  0  0
 48 49  1  0  0  0  0
 49 46  1  0  0  0  0
 50 46  1  0  0  0  0
 50 52  1  0  0  0  0
 52 51  1  0  0  0  0
 53 52  1  0  0  0  0
 54 49  1  0  0  0  0
 55 54  1  0  0  0  0
M  END
>  <MODEL>
6

>  <REMARK>
 VINA RESULT:      -6.5      2.939      8.307
  Name = 
  19 active torsions:
  status: ('A' for Active; 'I' for Inactive)
    1  A    between atoms: C_2  and  O_46
    2  A    between atoms: O_4  and  C_23
    3  A    between atoms: C_5  and  N_10
    4  A    between atoms: C_5  and  C_50
    5  A    between atoms: C_7  and  O_35
    6  A    between atoms: C_7  and  C_49
    7  A    between atoms: C_9  and  C_54
    8  A    between atoms: N_11  and  C_32
    9  A    between atoms: C_13  and  C_50
   10  A    between atoms: C_15  and  C_21
   11  A    between atoms: N_18  and  C_39
   12  A    between atoms: N_18  and  O_46
   13  A    between atoms: O_20  and  N_48
   14  A    between atoms: O_20  and  C_54
   15  A    between atoms: C_26  and  C_51
   16  A    between atoms: C_32  and  C_34
   17  A    between atoms: N_33  and  C_45
   18  A    between atoms: C_34  and  N_48
   19  A    between atoms: O_35  and  C_51
                            x       y       z     vdW  Elec       q    Type
                         _______ _______ _______ _____ _____    ______ ____

>  <TORSDO>
F 19

$$$$
=
 OpenBabel10232412273D

 55 61  0  0  1  0  0  0  0  0999 V2000
  191.9380  177.6710  142.8950 C   0  0  0  0  0  2  0  0  0  0  0  0
  187.0710  177.7580  143.0820 C   0  0  0  0  0  0  0  0  0  0  0  0
  188.1930  177.8260  142.3090 N   0  0  0  0  0  0  0  0  0  0  0  0
  187.3780  177.4540  144.4140 C   0  0  0  0  0  0  0  0  0  0  0  0
  188.7580  177.3770  144.5020 C   0  0  0  0  0  0  0  0  0  0  0  0
  189.1970  177.6260  143.1900 C   0  0  0  0  0  0  0  0  0  0  0  0
  189.0850  176.8810  147.0010 C   0  0  0  0  0  1  0  0  0  0  0  0
  191.9910  176.9340  146.5100 O   0  0  0  0  0  1  0  0  0  0  0  0
  190.5480  177.6420  143.0720 C   0  0  0  0  0  0  0  0  0  0  0  0
  191.4610  177.4110  144.1880 C   0  0  0  0  0  0  0  0  0  0  0  0
  189.6480  177.1390  145.6450 C   0  0  0  0  0  0  0  0  0  0  0  0
  191.0840  177.1520  145.4790 C   0  0  0  0  0  0  0  0  0  0  0  0
  186.3970  177.3470  145.5370 C   0  0  0  0  0  2  0  0  0  0  0  0
  186.1950  178.7040  146.1830 C   0  0  0  0  0  1  0  0  0  0  0  0
  188.2740  178.2870  140.9070 C   0  0  2  0  0  3  0  0  0  0  0  0
  186.9030  178.3940  140.2440 C   0  0  0  0  0  1  0  0  0  0  0  0
  189.2470  177.4780  140.0350 C   0  0  0  0  0  2  0  0  0  0  0  0
  187.9330  178.6080  136.6510 C   0  0  0  0  0  3  0  0  0  0  0  0
  189.1350  177.7270  138.5530 C   0  0  0  0  0  0  0  0  0  0  0  0
  188.8450  178.0380  135.8170 N   0  0  0  0  0  0  0  0  0  0  0  0
  188.0610  178.4590  138.0320 C   0  0  0  0  0  3  0  0  0  0  0  0
  190.0700  177.1560  137.6730 C   0  0  0  0  0  0  0  0  0  0  0  0
  189.9000  177.3260  136.2940 C   0  0  0  0  0  3  0  0  0  0  0  0
  191.1990  176.4400  138.1810 N   0  0  0  0  0  2  0  0  0  0  0  0
  192.4610  176.6840  137.7450 O   0  0  0  0  0  0  0  0  0  0  0  0
  193.2160  175.6000  138.2030 C   0  0  1  0  0  3  0  0  0  0  0  0
  194.1050  173.7920  136.9660 C   0  0  2  0  0  0  0  0  0  0  0  0
  194.1730  172.4040  137.1080 O   0  0  0  0  0  1  0  0  0  0  0  0
  195.1700  174.6470  137.6100 C   0  0  2  0  0  3  0  0  0  0  0  0
  192.8080  174.3240  137.4810 C   0  0  2  0  0  3  0  0  0  0  0  0
  194.5870  175.8580  138.0090 O   0  0  0  0  0  0  0  0  0  0  0  0
  193.1090  174.3880  135.9870 C   0  0  2  0  0  3  0  0  0  0  0  0
  192.4090  173.3770  135.3270 O   0  0  0  0  0  1  0  0  0  0  0  0
  196.2910  174.9330  136.6300 C   0  0  0  0  0  2  0  0  0  0  0  0
  197.5370  174.9050  137.2860 O   0  0  0  0  0  0  0  0  0  0  0  0
  198.3500  173.8760  136.7430 C   0  0  0  0  0  0  0  0  0  0  0  0
  198.1160  172.6150  137.5540 C   0  0  0  0  0  1  0  0  0  0  0  0
  197.9520  173.5630  135.3050 C   0  0  0  0  0  1  0  0  0  0  0  0
  200.2140  174.6710  138.0660 O   0  0  0  0  0  1  0  0  0  0  0  0
  199.8490  174.2030  136.7990 C   0  0  0  0  0  2  0  0  0  0  0  0
  185.6850  178.0210  142.5860 C   0  0  0  0  0  2  0  0  0  0  0  0
  185.3000  179.3150  142.9370 O   0  0  0  0  0  0  0  0  0  0  0  0
  183.9570  179.3320  142.7580 N   0  0  0  0  0  2  0  0  0  0  0  0
  183.6640  178.3910  141.6920 C   0  0  0  0  0  2  0  0  0  0  0  0
  183.2490  179.1500  140.4310 C   0  0  0  0  0  2  0  0  0  0  0  0
  181.9250  178.7600  139.9150 N   0  0  0  0  0  0  0  0  0  0  0  0
  180.7480  178.2000  137.5430 S   0  0  0  0  0  0  0  0  0  0  0  0
  179.9820  179.3880  138.6630 C   0  0  0  0  0  2  0  0  0  0  0  0
  181.0970  179.9100  139.5330 C   0  0  2  0  0  3  0  0  0  0  0  0
  182.0100  177.7870  138.8090 C   0  0  2  0  0  3  0  0  0  0  0  0
  180.6470  175.8690  138.5820 C   0  0  0  0  0  1  0  0  0  0  0  0
  181.7900  176.4170  139.2960 N   0  0  0  0  0  0  0  0  0  0  0  0
  182.9110  175.5710  138.9190 C   0  0  0  0  0  1  0  0  0  0  0  0
  181.8270  180.8660  138.8100 O   0  0  0  0  0  0  0  0  0  0  0  0
  180.8800  181.8100  138.4060 C   0  0  0  0  0  1  0  0  0  0  0  0
  1  9  1  0  0  0  0
  1 10  1  0  0  0  0
  2  4  2  0  0  0  0
  3  2  1  0  0  0  0
  3  6  1  0  0  0  0
  4  5  1  0  0  0  0
  4 13  1  0  0  0  0
  5 11  1  0  0  0  0
  6  5  2  0  0  0  0
  9  6  1  0  0  0  0
  9 10  2  0  0  0  0
 10 12  1  0  0  0  0
 11  7  1  0  0  0  0
 12 11  2  0  0  0  0
 12  8  1  0  0  0  0
 13 14  1  0  0  0  0
 15 16  1  6  0  0  0
 15  3  1  0  0  0  0
 17 15  1  0  0  0  0
 18 21  1  0  0  0  0
 19 17  1  0  0  0  0
 20 23  1  0  0  0  0
 20 18  2  0  0  0  0
 21 19  2  0  0  0  0
 22 24  1  0  0  0  0
 22 19  1  0  0  0  0
 23 22  2  0  0  0  0
 25 24  1  0  0  0  0
 26 25  1  6  0  0  0
 27 28  1  6  0  0  0
 27 30  1  0  0  0  0
 27 29  1  0  0  0  0
 29 34  1  6  0  0  0
 29 31  1  0  0  0  0
 30 26  1  0  0  0  0
 31 26  1  0  0  0  0
 32 27  1  0  0  0  0
 32 30  1  0  0  0  0
 33 32  1  0  0  0  0
 34 35  1  0  0  0  0
 36 40  1  0  0  0  0
 36 35  1  0  0  0  0
 36 37  1  0  0  0  0
 38 36  1  0  0  0  0
 40 39  1  0  0  0  0
 41 42  1  0  0  0  0
 41  2  1  0  0  0  0
 43 42  1  0  0  0  0
 44 43  1  0  0  0  0
 45 44  1  0  0  0  0
 46 45  1  0  0  0  0
 47 48  1  0  0  0  0
 47 50  1  0  0  0  0
 48 49  1  0  0  0  0
 49 46  1  0  0  0  0
 50 52  1  0  0  0  0
 50 46  1  0  0  0  0
 51 52  1  0  0  0  0
 53 52  1  0  0  0  0
 54 49  1  0  0  0  0
 55 54  1  0  0  0  0
M  END
>  <MODEL>
7

>  <REMARK>
 VINA RESULT:      -6.5      2.921      6.983
  Name = 
  19 active torsions:
  status: ('A' for Active; 'I' for Inactive)
    1  A    between atoms: C_2  and  O_46
    2  A    between atoms: O_4  and  C_23
    3  A    between atoms: C_5  and  N_10
    4  A    between atoms: C_5  and  C_50
    5  A    between atoms: C_7  and  O_35
    6  A    between atoms: C_7  and  C_49
    7  A    between atoms: C_9  and  C_54
    8  A    between atoms: N_11  and  C_32
    9  A    between atoms: C_13  and  C_50
   10  A    between atoms: C_15  and  C_21
   11  A    between atoms: N_18  and  C_39
   12  A    between atoms: N_18  and  O_46
   13  A    between atoms: O_20  and  N_48
   14  A    between atoms: O_20  and  C_54
   15  A    between atoms: C_26  and  C_51
   16  A    between atoms: C_32  and  C_34
   17  A    between atoms: N_33  and  C_45
   18  A    between atoms: C_34  and  N_48
   19  A    between atoms: O_35  and  C_51
                            x       y       z     vdW  Elec       q    Type
                         _______ _______ _______ _____ _____    ______ ____

>  <TORSDO>
F 19

$$$$
=
 OpenBabel10232412273D

 55 61  0  0  1  0  0  0  0  0999 V2000
  186.2040  178.8160  142.8520 C   0  0  0  0  0  2  0  0  0  0  0  0
  182.6890  178.3400  139.5130 C   0  0  0  0  0  0  0  0  0  0  0  0
  184.0260  178.3270  139.7840 N   0  0  0  0  0  0  0  0  0  0  0  0
  181.9250  178.4660  140.6800 C   0  0  0  0  0  0  0  0  0  0  0  0
  182.8150  178.5910  141.7330 C   0  0  0  0  0  0  0  0  0  0  0  0
  184.0790  178.5120  141.1210 C   0  0  0  0  0  0  0  0  0  0  0  0
  181.2180  178.8670  143.7250 C   0  0  0  0  0  1  0  0  0  0  0  0
  183.5980  179.1440  145.4430 O   0  0  0  0  0  1  0  0  0  0  0  0
  185.1060  178.6640  141.9940 C   0  0  0  0  0  0  0  0  0  0  0  0
  184.9270  178.8740  143.4280 C   0  0  0  0  0  0  0  0  0  0  0  0
  182.6000  178.8000  143.1700 C   0  0  0  0  0  0  0  0  0  0  0  0
  183.7200  178.9450  144.0720 C   0  0  0  0  0  0  0  0  0  0  0  0
  180.4350  178.5590  140.7460 C   0  0  0  0  0  2  0  0  0  0  0  0
  180.0000  180.0100  140.6960 C   0  0  0  0  0  1  0  0  0  0  0  0
  185.1280  178.3780  138.8010 C   0  0  2  0  0  3  0  0  0  0  0  0
  185.0220  177.2830  137.7430 C   0  0  0  0  0  1  0  0  0  0  0  0
  186.5300  178.4060  139.4290 C   0  0  0  0  0  2  0  0  0  0  0  0
  188.5460  178.1150  136.2200 C   0  0  0  0  0  3  0  0  0  0  0  0
  187.6660  178.1640  138.4690 C   0  0  0  0  0  0  0  0  0  0  0  0
  189.6970  177.5600  136.6870 N   0  0  0  0  0  0  0  0  0  0  0  0
  187.5110  178.4230  137.1010 C   0  0  0  0  0  3  0  0  0  0  0  0
  188.8670  177.6000  138.9310 C   0  0  0  0  0  0  0  0  0  0  0  0
  189.8770  177.3020  138.0100 C   0  0  0  0  0  3  0  0  0  0  0  0
  189.0670  177.3650  140.3280 N   0  0  0  0  0  2  0  0  0  0  0  0
  190.2680  177.5670  140.9260 O   0  0  0  0  0  0  0  0  0  0  0  0
  190.2450  176.7540  142.0630 C   0  0  1  0  0  3  0  0  0  0  0  0
  190.4450  177.3830  144.3330 C   0  0  2  0  0  0  0  0  0  0  0  0
  191.1530  176.9330  145.4500 O   0  0  0  0  0  1  0  0  0  0  0  0
  189.1110  176.7550  144.0100 C   0  0  2  0  0  3  0  0  0  0  0  0
  191.2580  177.2440  143.0880 C   0  0  2  0  0  3  0  0  0  0  0  0
  188.9510  176.7440  142.6170 O   0  0  0  0  0  0  0  0  0  0  0  0
  190.9170  178.6350  143.6130 C   0  0  2  0  0  3  0  0  0  0  0  0
  192.0310  179.1760  144.2560 O   0  0  0  0  0  1  0  0  0  0  0  0
  187.9810  177.5520  144.6350 C   0  0  0  0  0  2  0  0  0  0  0  0
  188.3820  178.0830  145.8760 O   0  0  0  0  0  0  0  0  0  0  0  0
  187.3660  177.8750  146.8450 C   0  0  0  0  0  0  0  0  0  0  0  0
  186.6960  179.2090  147.1170 C   0  0  0  0  0  1  0  0  0  0  0  0
  186.2900  176.9320  146.3180 C   0  0  0  0  0  1  0  0  0  0  0  0
  189.2070  176.8360  148.0240 O   0  0  0  0  0  1  0  0  0  0  0  0
  187.9100  177.3370  148.1770 C   0  0  0  0  0  2  0  0  0  0  0  0
  182.1040  178.2760  138.1380 C   0  0  0  0  0  2  0  0  0  0  0  0
  181.8990  176.9440  137.7780 O   0  0  0  0  0  0  0  0  0  0  0  0
  182.4890  176.8220  136.5650 N   0  0  0  0  0  2  0  0  0  0  0  0
  181.6880  175.8820  135.8010 C   0  0  0  0  0  2  0  0  0  0  0  0
  182.6020  174.8720  135.1030 C   0  0  0  0  0  2  0  0  0  0  0  0
  183.6670  174.3400  135.9720 N   0  0  0  0  0  0  0  0  0  0  0  0
  185.6040  172.4520  135.8940 S   0  0  0  0  0  0  0  0  0  0  0  0
  184.4670  172.5090  137.2930 C   0  0  0  0  0  2  0  0  0  0  0  0
  183.2270  173.2000  136.7850 C   0  0  2  0  0  3  0  0  0  0  0  0
  184.8940  174.0060  135.2260 C   0  0  2  0  0  3  0  0  0  0  0  0
  187.1720  174.5560  134.9100 C   0  0  0  0  0  1  0  0  0  0  0  0
  185.8860  175.0870  135.3340 N   0  0  0  0  0  0  0  0  0  0  0  0
  185.5790  176.1390  134.3770 C   0  0  0  0  0  1  0  0  0  0  0  0
  182.4690  172.2840  136.0400 O   0  0  0  0  0  0  0  0  0  0  0  0
  182.2260  171.2230  136.9160 C   0  0  0  0  0  1  0  0  0  0  0  0
  1 10  1  0  0  0  0
  2  3  1  0  0  0  0
  2  4  2  0  0  0  0
  3  6  1  0  0  0  0
  4 13  1  0  0  0  0
  4  5  1  0  0  0  0
  5 11  1  0  0  0  0
  6  5  2  0  0  0  0
  6  9  1  0  0  0  0
  9  1  1  0  0  0  0
  9 10  2  0  0  0  0
 10 12  1  0  0  0  0
 11  7  1  0  0  0  0
 11 12  2  0  0  0  0
 12  8  1  0  0  0  0
 14 13  1  0  0  0  0
 15 16  1  6  0  0  0
 15 17  1  0  0  0  0
 15  3  1  0  0  0  0
 18 20  2  0  0  0  0
 18 21  1  0  0  0  0
 19 22  1  0  0  0  0
 19 17  1  0  0  0  0
 20 23  1  0  0  0  0
 21 19  2  0  0  0  0
 22 24  1  0  0  0  0
 23 22  2  0  0  0  0
 24 25  1  0  0  0  0
 26 25  1  6  0  0  0
 26 31  1  0  0  0  0
 26 30  1  0  0  0  0
 27 28  1  1  0  0  0
 29 27  1  0  0  0  0
 29 34  1  1  0  0  0
 30 32  1  0  0  0  0
 30 27  1  0  0  0  0
 31 29  1  0  0  0  0
 32 33  1  0  0  0  0
 32 27  1  0  0  0  0
 34 35  1  0  0  0  0
 35 36  1  0  0  0  0
 36 37  1  0  0  0  0
 36 40  1  0  0  0  0
 38 36  1  0  0  0  0
 39 40  1  0  0  0  0
 41  2  1  0  0  0  0
 42 41  1  0  0  0  0
 43 42  1  0  0  0  0
 44 43  1  0  0  0  0
 45 44  1  0  0  0  0
 45 46  1  0  0  0  0
 46 49  1  0  0  0  0
 47 48  1  0  0  0  0
 49 48  1  0  0  0  0
 50 52  1  0  0  0  0
 50 47  1  0  0  0  0
 50 46  1  0  0  0  0
 51 52  1  0  0  0  0
 53 52  1  0  0  0  0
 54 49  1  0  0  0  0
 54 55  1  0  0  0  0
M  END
>  <MODEL>
8

>  <REMARK>
 VINA RESULT:      -6.3      3.902      8.526
  Name = 
  19 active torsions:
  status: ('A' for Active; 'I' for Inactive)
    1  A    between atoms: C_2  and  O_46
    2  A    between atoms: O_4  and  C_23
    3  A    between atoms: C_5  and  N_10
    4  A    between atoms: C_5  and  C_50
    5  A    between atoms: C_7  and  O_35
    6  A    between atoms: C_7  and  C_49
    7  A    between atoms: C_9  and  C_54
    8  A    between atoms: N_11  and  C_32
    9  A    between atoms: C_13  and  C_50
   10  A    between atoms: C_15  and  C_21
   11  A    between atoms: N_18  and  C_39
   12  A    between atoms: N_18  and  O_46
   13  A    between atoms: O_20  and  N_48
   14  A    between atoms: O_20  and  C_54
   15  A    between atoms: C_26  and  C_51
   16  A    between atoms: C_32  and  C_34
   17  A    between atoms: N_33  and  C_45
   18  A    between atoms: C_34  and  N_48
   19  A    between atoms: O_35  and  C_51
                            x       y       z     vdW  Elec       q    Type
                         _______ _______ _______ _____ _____    ______ ____

>  <TORSDO>
F 19

$$$$
=
 OpenBabel10232412273D

 55 61  0  0  1  0  0  0  0  0999 V2000
  191.9070  177.6340  142.5720 C   0  0  0  0  0  2  0  0  0  0  0  0
  187.0390  177.7130  142.7380 C   0  0  0  0  0  0  0  0  0  0  0  0
  188.1630  177.7430  141.9660 N   0  0  0  0  0  0  0  0  0  0  0  0
  187.3420  177.4820  144.0850 C   0  0  0  0  0  0  0  0  0  0  0  0
  188.7220  177.4160  144.1820 C   0  0  0  0  0  0  0  0  0  0  0  0
  189.1650  177.5950  142.8600 C   0  0  0  0  0  0  0  0  0  0  0  0
  189.0430  177.0560  146.7060 C   0  0  0  0  0  1  0  0  0  0  0  0
  191.9510  177.0940  146.2210 O   0  0  0  0  0  1  0  0  0  0  0  0
  190.5170  177.6100  142.7460 C   0  0  0  0  0  0  0  0  0  0  0  0
  191.4270  177.4430  143.8750 C   0  0  0  0  0  0  0  0  0  0  0  0
  189.6090  177.2430  145.3390 C   0  0  0  0  0  0  0  0  0  0  0  0
  191.0460  177.2520  145.1770 C   0  0  0  0  0  0  0  0  0  0  0  0
  186.3590  177.4320  145.2100 C   0  0  0  0  0  2  0  0  0  0  0  0
  186.2420  178.7970  145.8610 C   0  0  0  0  0  1  0  0  0  0  0  0
  188.2470  178.1280  140.5420 C   0  0  2  0  0  3  0  0  0  0  0  0
  186.8790  178.4170  139.9300 C   0  0  0  0  0  1  0  0  0  0  0  0
  189.0450  177.1440  139.6710 C   0  0  0  0  0  2  0  0  0  0  0  0
  188.4500  178.7920  136.2970 C   0  0  0  0  0  3  0  0  0  0  0  0
  188.9190  177.3590  138.1850 C   0  0  0  0  0  0  0  0  0  0  0  0
  188.5230  177.7160  135.4680 N   0  0  0  0  0  0  0  0  0  0  0  0
  188.6440  178.6320  137.6690 C   0  0  0  0  0  3  0  0  0  0  0  0
  188.9990  176.2630  137.3090 C   0  0  0  0  0  0  0  0  0  0  0  0
  188.7920  176.4700  135.9400 C   0  0  0  0  0  3  0  0  0  0  0  0
  189.3200  174.9610  137.8040 N   0  0  0  0  0  2  0  0  0  0  0  0
  190.5780  174.6290  138.1910 O   0  0  0  0  0  0  0  0  0  0  0  0
  191.3970  175.0230  137.1290 C   0  0  1  0  0  3  0  0  0  0  0  0
  193.5720  175.9470  137.2040 C   0  0  2  0  0  0  0  0  0  0  0  0
  194.2430  177.0060  136.5890 O   0  0  0  0  0  1  0  0  0  0  0  0
  193.5230  174.6090  136.5080 C   0  0  2  0  0  3  0  0  0  0  0  0
  192.1470  176.3000  137.4790 C   0  0  2  0  0  3  0  0  0  0  0  0
  192.3030  173.9910  136.8170 O   0  0  0  0  0  0  0  0  0  0  0  0
  193.1110  176.0990  138.6440 C   0  0  2  0  0  3  0  0  0  0  0  0
  193.4960  177.3410  139.1500 O   0  0  0  0  0  1  0  0  0  0  0  0
  194.6620  173.7230  136.9750 C   0  0  0  0  0  2  0  0  0  0  0  0
  195.8330  174.0010  136.2420 O   0  0  0  0  0  0  0  0  0  0  0  0
  196.9760  173.8070  137.0610 C   0  0  0  0  0  0  0  0  0  0  0  0
  196.5390  173.9150  138.5100 C   0  0  0  0  0  1  0  0  0  0  0  0
  197.5570  172.4100  136.8710 C   0  0  0  0  0  1  0  0  0  0  0  0
  198.3340  175.5860  137.9800 O   0  0  0  0  0  1  0  0  0  0  0  0
  198.0730  174.8540  136.8170 C   0  0  0  0  0  2  0  0  0  0  0  0
  185.6540  177.9440  142.2240 C   0  0  0  0  0  2  0  0  0  0  0  0
  184.7960  178.2090  143.2920 O   0  0  0  0  0  0  0  0  0  0  0  0
  183.7410  178.8470  142.7320 N   0  0  0  0  0  2  0  0  0  0  0  0
  183.8810  178.7070  141.2930 C   0  0  0  0  0  2  0  0  0  0  0  0
  182.6570  177.9910  140.7210 C   0  0  0  0  0  2  0  0  0  0  0  0
  182.2780  178.4520  139.3740 N   0  0  0  0  0  0  0  0  0  0  0  0
  180.0650  178.6150  137.8250 S   0  0  0  0  0  0  0  0  0  0  0  0
  181.5650  177.8600  137.1650 C   0  0  0  0  0  2  0  0  0  0  0  0
  182.3480  177.3890  138.3640 C   0  0  2  0  0  3  0  0  0  0  0  0
  180.9580  179.1100  139.3480 C   0  0  2  0  0  3  0  0  0  0  0  0
  182.2720  180.9260  138.5970 C   0  0  0  0  0  1  0  0  0  0  0  0
  181.1000  180.5740  139.3830 N   0  0  0  0  0  0  0  0  0  0  0  0
  179.9820  181.1960  138.6910 C   0  0  0  0  0  1  0  0  0  0  0  0
  181.7920  176.1870  138.8260 O   0  0  0  0  0  0  0  0  0  0  0  0
  181.8080  175.3350  137.7200 C   0  0  0  0  0  1  0  0  0  0  0  0
  1  9  1  0  0  0  0
  1 10  1  0  0  0  0
  2  4  2  0  0  0  0
  3  2  1  0  0  0  0
  3  6  1  0  0  0  0
  4  5  1  0  0  0  0
  4 13  1  0  0  0  0
  5 11  1  0  0  0  0
  6  5  2  0  0  0  0
  9  6  1  0  0  0  0
  9 10  2  0  0  0  0
 10 12  1  0  0  0  0
 11  7  1  0  0  0  0
 12 11  2  0  0  0  0
 12  8  1  0  0  0  0
 13 14  1  0  0  0  0
 15 16  1  6  0  0  0
 15  3  1  0  0  0  0
 17 15  1  0  0  0  0
 18 21  1  0  0  0  0
 19 17  1  0  0  0  0
 20 23  1  0  0  0  0
 20 18  2  0  0  0  0
 21 19  2  0  0  0  0
 22 24  1  0  0  0  0
 22 19  1  0  0  0  0
 23 22  2  0  0  0  0
 24 25  1  0  0  0  0
 26 30  1  0  0  0  0
 26 25  1  1  0  0  0
 27 28  1  6  0  0  0
 27 30  1  0  0  0  0
 27 32  1  0  0  0  0
 29 31  1  0  0  0  0
 29 34  1  1  0  0  0
 29 27  1  0  0  0  0
 30 32  1  0  0  0  0
 31 26  1  0  0  0  0
 32 33  1  0  0  0  0
 35 34  1  0  0  0  0
 35 36  1  0  0  0  0
 36 37  1  0  0  0  0
 38 36  1  0  0  0  0
 40 36  1  0  0  0  0
 40 39  1  0  0  0  0
 41  2  1  0  0  0  0
 41 42  1  0  0  0  0
 43 42  1  0  0  0  0
 44 43  1  0  0  0  0
 45 44  1  0  0  0  0
 46 45  1  0  0  0  0
 47 50  1  0  0  0  0
 48 47  1  0  0  0  0
 48 49  1  0  0  0  0
 49 54  1  0  0  0  0
 49 46  1  0  0  0  0
 50 46  1  0  0  0  0
 50 52  1  0  0  0  0
 51 52  1  0  0  0  0
 53 52  1  0  0  0  0
 55 54  1  0  0  0  0
M  END
>  <MODEL>
9

>  <REMARK>
 VINA RESULT:      -6.1      2.770      6.877
  Name = 
  19 active torsions:
  status: ('A' for Active; 'I' for Inactive)
    1  A    between atoms: C_2  and  O_46
    2  A    between atoms: O_4  and  C_23
    3  A    between atoms: C_5  and  N_10
    4  A    between atoms: C_5  and  C_50
    5  A    between atoms: C_7  and  O_35
    6  A    between atoms: C_7  and  C_49
    7  A    between atoms: C_9  and  C_54
    8  A    between atoms: N_11  and  C_32
    9  A    between atoms: C_13  and  C_50
   10  A    between atoms: C_15  and  C_21
   11  A    between atoms: N_18  and  C_39
   12  A    between atoms: N_18  and  O_46
   13  A    between atoms: O_20  and  N_48
   14  A    between atoms: O_20  and  C_54
   15  A    between atoms: C_26  and  C_51
   16  A    between atoms: C_32  and  C_34
   17  A    between atoms: N_33  and  C_45
   18  A    between atoms: C_34  and  N_48
   19  A    between atoms: O_35  and  C_51
                            x       y       z     vdW  Elec       q    Type
                         _______ _______ _______ _____ _____    ______ ____

>  <TORSDO>
F 19

$$$$
