=
 OpenBabel10232408413D

 40 41  0  0  1  0  0  0  0  0999 V2000
  189.6810  177.8870  143.2610 C   0  0  0  0  0  0  0  0  0  0  0  0
  191.0390  177.7150  139.8120 O   0  0  0  0  0  0  0  0  0  0  0  0
  188.7250  178.1200  140.2430 C   0  0  0  0  0  0  0  0  0  0  0  0
  188.3420  178.1460  138.7970 C   0  0  0  0  0  2  0  0  0  0  0  0
  187.3010  178.0430  142.3380 C   0  0  0  0  0  0  0  0  0  0  0  0
  190.4300  177.9030  142.1180 C   0  0  0  0  0  3  0  0  0  0  0  0
  188.1400  175.9070  143.3120 C   0  0  0  0  0  1  0  0  0  0  0  0
  189.2110  176.0710  137.8080 N   0  0  0  0  0  0  0  0  0  0  0  0
  188.2100  176.7520  138.2530 C   0  0  0  0  0  3  0  0  0  0  0  0
  190.0040  177.4680  140.7170 C   0  0  2  0  0  3  0  0  0  0  0  0
  191.2310  176.5080  139.1340 C   0  0  0  0  0  2  0  0  0  0  0  0
  190.5700  176.5690  137.7590 C   0  0  1  0  0  3  0  0  0  0  0  0
  188.2240  177.4250  143.3620 C   0  0  1  0  0  3  0  0  0  0  0  0
  187.8200  178.1570  141.1580 C   0  0  0  0  0  0  0  0  0  0  0  0
  183.0150  178.7680  142.7670 O   0  0  0  0  0  0  0  0  0  0  0  0
  185.4750  178.4210  143.8010 O   0  0  0  0  0  0  0  0  0  0  0  0
  183.5610  178.6820  141.6330 C   0  0  0  0  0  0  0  0  0  0  0  0
  184.9660  178.4400  141.5150 N   0  0  0  0  0  2  0  0  0  0  0  0
  182.7810  178.8250  140.4410 N   0  0  0  0  0  2  0  0  0  0  0  0
  185.8800  178.3090  142.6110 C   0  0  0  0  0  0  0  0  0  0  0  0
  180.9580  179.6440  141.6340 O   0  0  0  0  0  1  0  0  0  0  0  0
  180.6310  177.7260  140.2860 C   0  0  0  0  0  1  0  0  0  0  0  0
  181.3390  179.0670  140.4220 C   0  0  2  0  0  0  0  0  0  0  0  0
  182.1950  180.5670  138.5490 C   0  0  0  0  0  1  0  0  0  0  0  0
  180.9690  180.0100  139.2590 C   0  0  0  0  0  3  0  0  0  0  0  0
  180.0750  181.1570  139.7050 C   0  0  0  0  0  1  0  0  0  0  0  0
  190.3020  178.3760  144.5370 C   0  0  2  0  0  3  0  0  0  0  0  0
  191.1290  179.4740  144.2840 O   0  0  0  0  0  1  0  0  0  0  0  0
  191.0850  177.2630  145.2210 C   0  0  0  0  0  2  0  0  0  0  0  0
  190.6460  177.0950  146.6660 C   0  0  0  0  0  2  0  0  0  0  0  0
  189.1340  177.0040  146.7550 C   0  0  0  0  0  2  0  0  0  0  0  0
  189.4830  178.3640  148.6720 O   0  0  0  0  0  0  0  0  0  0  0  0
  188.6460  177.8050  147.9180 C   0  0  0  0  0  0  0  0  0  0  0  0
  187.2830  177.9770  148.1680 O   0  0  0  0  0  0  0  0  0  0  0  0
  186.3890  178.4870  147.1900 C   0  0  0  0  0  1  0  0  0  0  0  0
  191.3830  175.7860  136.7310 C   0  0  0  0  0  2  0  0  0  0  0  0
  192.5310  175.0110  137.3670 C   0  0  0  0  0  2  0  0  0  0  0  0
  193.8270  175.4940  136.8180 C   0  0  0  0  0  0  0  0  0  0  0  0
  194.7430  174.5860  136.3040 O   0  0  0  0  0  0  0  0  0  0  0  0
  194.0790  176.7270  136.7880 O   0  0  0  0  0  1  0  0  0  0  0  0
  1 13  1  0  0  0  0
  1 27  1  0  0  0  0
  2 10  1  0  0  0  0
  3 10  1  0  0  0  0
  3 14  2  0  0  0  0
  4  3  1  0  0  0  0
  5 20  1  0  0  0  0
  5 13  1  0  0  0  0
  6  1  2  0  0  0  0
  8  9  2  0  0  0  0
  9  4  1  0  0  0  0
 10  6  1  1  0  0  0
 11  2  1  0  0  0  0
 12 36  1  6  0  0  0
 12  8  1  0  0  0  0
 12 11  1  0  0  0  0
 13  7  1  6  0  0  0
 14  5  2  0  0  0  0
 17 15  2  0  0  0  0
 18 17  1  0  0  0  0
 18 20  1  0  0  0  0
 19 17  1  0  0  0  0
 20 16  2  0  0  0  0
 23 22  1  6  0  0  0
 23 19  1  0  0  0  0
 23 21  1  0  0  0  0
 24 25  1  0  0  0  0
 25 26  1  0  0  0  0
 25 23  1  0  0  0  0
 27 28  1  6  0  0  0
 27 29  1  0  0  0  0
 29 30  1  0  0  0  0
 30 31  1  0  0  0  0
 31 33  1  0  0  0  0
 33 34  1  0  0  0  0
 33 32  2  0  0  0  0
 35 34  1  0  0  0  0
 36 37  1  0  0  0  0
 38 37  1  0  0  0  0
 39 38  2  0  0  0  0
 40 38  1  0  0  0  0
M  END
>  <MODEL>
1

>  <REMARK>
 VINA RESULT:      -8.2      0.000      0.000
  Name = 
  12 active torsions:
  status: ('A' for Active; 'I' for Inactive)
    1  A    between atoms: C_1  and  C_25
    2  A    between atoms: C_2  and  C_12
    3  A    between atoms: C_2  and  C_38
    4  A    between atoms: C_4  and  C_12
    5  A    between atoms: C_8  and  C_37
    6  A    between atoms: O_11  and  C_33
    7  A    between atoms: C_15  and  C_23
    8  A    between atoms: C_15  and  C_33
    9  A    between atoms: C_20  and  C_29
   10  A    between atoms: C_22  and  C_23
   11  A    between atoms: C_22  and  C_25
   12  A    between atoms: C_29  and  N_35
                            x       y       z     vdW  Elec       q    Type
                         _______ _______ _______ _____ _____    ______ ____

>  <TORSDO>
F 12

$$$$
=
 OpenBabel10232408413D

 40 41  0  0  1  0  0  0  0  0999 V2000
  188.8740  177.9060  137.8840 C   0  0  0  0  0  0  0  0  0  0  0  0
  188.4820  178.6790  141.4920 O   0  0  0  0  0  0  0  0  0  0  0  0
  190.1790  177.2020  140.6920 C   0  0  0  0  0  0  0  0  0  0  0  0
  190.6920  176.8650  142.0560 C   0  0  0  0  0  2  0  0  0  0  0  0
  190.6590  176.1590  138.4320 C   0  0  0  0  0  0  0  0  0  0  0  0
  188.6100  178.4370  139.1160 C   0  0  0  0  0  3  0  0  0  0  0  0
  188.3490  175.4530  137.8190 C   0  0  0  0  0  1  0  0  0  0  0  0
  188.7470  176.1380  143.3720 N   0  0  0  0  0  0  0  0  0  0  0  0
  189.8190  175.8380  142.7190 C   0  0  0  0  0  3  0  0  0  0  0  0
  188.7940  177.7700  140.4780 C   0  0  2  0  0  3  0  0  0  0  0  0
  187.5680  178.0130  142.3150 C   0  0  0  0  0  2  0  0  0  0  0  0
  188.2710  177.4920  143.5650 C   0  0  1  0  0  3  0  0  0  0  0  0
  189.4310  176.5030  137.6230 C   0  0  1  0  0  3  0  0  0  0  0  0
  190.6220  176.5760  139.6560 C   0  0  0  0  0  0  0  0  0  0  0  0
  194.0370  173.8020  136.9790 O   0  0  0  0  0  0  0  0  0  0  0  0
  191.4840  174.0300  137.7970 O   0  0  0  0  0  0  0  0  0  0  0  0
  194.1150  175.0530  137.1150 C   0  0  0  0  0  0  0  0  0  0  0  0
  192.9970  175.8060  137.5960 N   0  0  0  0  0  2  0  0  0  0  0  0
  195.3250  175.7440  136.7880 N   0  0  0  0  0  2  0  0  0  0  0  0
  191.7130  175.2630  137.9300 C   0  0  0  0  0  0  0  0  0  0  0  0
  197.5370  176.0590  136.1340 O   0  0  0  0  0  1  0  0  0  0  0  0
  196.2360  174.4880  134.9320 C   0  0  0  0  0  1  0  0  0  0  0  0
  196.5390  175.0960  136.2950 C   0  0  2  0  0  0  0  0  0  0  0  0
  197.8320  174.6020  138.4340 C   0  0  0  0  0  1  0  0  0  0  0  0
  197.0140  174.0180  137.2900 C   0  0  0  0  0  3  0  0  0  0  0  0
  197.8080  172.9110  136.6110 C   0  0  0  0  0  1  0  0  0  0  0  0
  188.6280  178.7490  136.6680 C   0  0  2  0  0  3  0  0  0  0  0  0
  187.5940  179.6580  136.9090 O   0  0  0  0  0  1  0  0  0  0  0  0
  188.3050  177.8790  135.4600 C   0  0  0  0  0  2  0  0  0  0  0  0
  186.8740  178.0950  134.9990 C   0  0  0  0  0  2  0  0  0  0  0  0
  186.0660  176.8200  135.1570 C   0  0  0  0  0  2  0  0  0  0  0  0
  183.7920  177.1400  135.7690 O   0  0  0  0  0  0  0  0  0  0  0  0
  184.9820  177.0300  136.1630 C   0  0  0  0  0  0  0  0  0  0  0  0
  185.2510  177.0720  137.5330 O   0  0  0  0  0  0  0  0  0  0  0  0
  184.9280  178.1970  138.3370 C   0  0  0  0  0  1  0  0  0  0  0  0
  187.3440  177.5580  144.7760 C   0  0  0  0  0  2  0  0  0  0  0  0
  185.9590  178.0830  144.4190 C   0  0  0  0  0  2  0  0  0  0  0  0
  185.3070  178.6450  145.6330 C   0  0  0  0  0  0  0  0  0  0  0  0
  185.9850  178.6500  146.8440 O   0  0  0  0  0  1  0  0  0  0  0  0
  184.1550  179.1470  145.5560 O   0  0  0  0  0  0  0  0  0  0  0  0
  1  6  2  0  0  0  0
  2 11  1  0  0  0  0
  3  4  1  0  0  0  0
  4  9  1  0  0  0  0
  5 14  2  0  0  0  0
  8 12  1  0  0  0  0
  9  8  2  0  0  0  0
 10  6  1  6  0  0  0
 10  3  1  0  0  0  0
 10  2  1  0  0  0  0
 11 12  1  0  0  0  0
 12 36  1  1  0  0  0
 13  7  1  1  0  0  0
 13  1  1  0  0  0  0
 13  5  1  0  0  0  0
 14  3  2  0  0  0  0
 15 17  2  0  0  0  0
 16 20  2  0  0  0  0
 17 18  1  0  0  0  0
 18 20  1  0  0  0  0
 19 17  1  0  0  0  0
 20  5  1  0  0  0  0
 21 23  1  0  0  0  0
 23 22  1  6  0  0  0
 23 19  1  0  0  0  0
 23 25  1  0  0  0  0
 25 24  1  0  0  0  0
 26 25  1  0  0  0  0
 27 28  1  1  0  0  0
 27  1  1  0  0  0  0
 29 27  1  0  0  0  0
 30 31  1  0  0  0  0
 30 29  1  0  0  0  0
 31 33  1  0  0  0  0
 32 33  2  0  0  0  0
 33 34  1  0  0  0  0
 34 35  1  0  0  0  0
 37 36  1  0  0  0  0
 37 38  1  0  0  0  0
 38 39  1  0  0  0  0
 40 38  2  0  0  0  0
M  END
>  <MODEL>
2

>  <REMARK>
 VINA RESULT:      -7.9      3.131     10.839
  Name = 
  12 active torsions:
  status: ('A' for Active; 'I' for Inactive)
    1  A    between atoms: C_1  and  C_25
    2  A    between atoms: C_2  and  C_12
    3  A    between atoms: C_2  and  C_38
    4  A    between atoms: C_4  and  C_12
    5  A    between atoms: C_8  and  C_37
    6  A    between atoms: O_11  and  C_33
    7  A    between atoms: C_15  and  C_23
    8  A    between atoms: C_15  and  C_33
    9  A    between atoms: C_20  and  C_29
   10  A    between atoms: C_22  and  C_23
   11  A    between atoms: C_22  and  C_25
   12  A    between atoms: C_29  and  N_35
                            x       y       z     vdW  Elec       q    Type
                         _______ _______ _______ _____ _____    ______ ____

>  <TORSDO>
F 12

$$$$
=
 OpenBabel10232408413D

 40 41  0  0  1  0  0  0  0  0999 V2000
  189.3720  177.9770  138.0430 C   0  0  0  0  0  0  0  0  0  0  0  0
  188.2250  178.5270  141.5290 O   0  0  0  0  0  0  0  0  0  0  0  0
  190.3790  177.6210  141.0340 C   0  0  0  0  0  0  0  0  0  0  0  0
  190.7510  177.4190  142.4680 C   0  0  0  0  0  2  0  0  0  0  0  0
  191.4810  176.8100  138.9000 C   0  0  0  0  0  0  0  0  0  0  0  0
  188.7810  178.3830  139.2060 C   0  0  0  0  0  3  0  0  0  0  0  0
  189.5960  175.4790  137.9580 C   0  0  0  0  0  1  0  0  0  0  0  0
  188.9220  176.1320  143.4880 N   0  0  0  0  0  0  0  0  0  0  0  0
  190.1220  176.1690  143.0140 C   0  0  0  0  0  3  0  0  0  0  0  0
  188.9390  177.7690  140.5970 C   0  0  2  0  0  3  0  0  0  0  0  0
  187.4270  177.6080  142.2180 C   0  0  0  0  0  2  0  0  0  0  0  0
  188.0510  177.2860  143.5730 C   0  0  1  0  0  3  0  0  0  0  0  0
  190.3440  176.8010  137.9040 C   0  0  1  0  0  3  0  0  0  0  0  0
  191.1370  177.1730  140.0940 C   0  0  0  0  0  0  0  0  0  0  0  0
  195.2510  174.9140  137.7750 O   0  0  0  0  0  0  0  0  0  0  0  0
  193.8460  176.9410  138.8510 O   0  0  0  0  0  0  0  0  0  0  0  0
  194.1450  174.3330  137.6090 C   0  0  0  0  0  0  0  0  0  0  0  0
  192.9200  174.9740  137.9820 N   0  0  0  0  0  2  0  0  0  0  0  0
  194.0940  173.0180  137.0450 N   0  0  0  0  0  2  0  0  0  0  0  0
  192.8120  176.2680  138.5870 C   0  0  0  0  0  0  0  0  0  0  0  0
  196.2660  172.3790  137.5850 O   0  0  0  0  0  1  0  0  0  0  0  0
  195.7810  172.8610  135.3190 C   0  0  0  0  0  1  0  0  0  0  0  0
  195.2660  172.2570  136.6180 C   0  0  2  0  0  0  0  0  0  0  0  0
  193.5070  170.5800  135.8530 C   0  0  0  0  0  1  0  0  0  0  0  0
  194.9020  170.7700  136.4330 C   0  0  0  0  0  3  0  0  0  0  0  0
  195.0280  169.9760  137.7250 C   0  0  0  0  0  1  0  0  0  0  0  0
  189.0830  178.7390  136.7840 C   0  0  2  0  0  3  0  0  0  0  0  0
  188.3420  179.8880  137.0710 O   0  0  0  0  0  1  0  0  0  0  0  0
  188.3450  177.8640  135.7780 C   0  0  0  0  0  2  0  0  0  0  0  0
  186.8450  178.0870  135.8580 C   0  0  0  0  0  2  0  0  0  0  0  0
  186.1990  177.0450  136.7510 C   0  0  0  0  0  2  0  0  0  0  0  0
  183.9940  177.2810  137.6060 O   0  0  0  0  0  0  0  0  0  0  0  0
  185.1830  177.6930  137.6340 C   0  0  0  0  0  0  0  0  0  0  0  0
  185.5260  178.7230  138.5120 O   0  0  0  0  0  0  0  0  0  0  0  0
  184.8770  178.9030  139.7620 C   0  0  0  0  0  1  0  0  0  0  0  0
  186.9700  177.0550  144.6260 C   0  0  0  0  0  2  0  0  0  0  0  0
  186.9400  178.1560  145.6800 C   0  0  0  0  0  2  0  0  0  0  0  0
  185.5830  178.7640  145.7330 C   0  0  0  0  0  0  0  0  0  0  0  0
  184.8740  178.7710  146.9260 O   0  0  0  0  0  1  0  0  0  0  0  0
  185.0920  179.3010  144.7070 O   0  0  0  0  0  0  0  0  0  0  0  0
  1  6  2  0  0  0  0
  2 11  1  0  0  0  0
  3  4  1  0  0  0  0
  4  9  1  0  0  0  0
  5 14  2  0  0  0  0
  8 12  1  0  0  0  0
  9  8  2  0  0  0  0
 10  6  1  6  0  0  0
 10  3  1  0  0  0  0
 10  2  1  0  0  0  0
 11 12  1  0  0  0  0
 12 36  1  1  0  0  0
 13  7  1  1  0  0  0
 13  1  1  0  0  0  0
 13  5  1  0  0  0  0
 14  3  2  0  0  0  0
 17 15  2  0  0  0  0
 17 18  1  0  0  0  0
 18 20  1  0  0  0  0
 19 17  1  0  0  0  0
 20 16  2  0  0  0  0
 20  5  1  0  0  0  0
 23 22  1  6  0  0  0
 23 19  1  0  0  0  0
 23 21  1  0  0  0  0
 24 25  1  0  0  0  0
 25 23  1  0  0  0  0
 25 26  1  0  0  0  0
 27 28  1  1  0  0  0
 27  1  1  0  0  0  0
 29 30  1  0  0  0  0
 29 27  1  0  0  0  0
 30 31  1  0  0  0  0
 31 33  1  0  0  0  0
 32 33  2  0  0  0  0
 33 34  1  0  0  0  0
 34 35  1  0  0  0  0
 36 37  1  0  0  0  0
 37 38  1  0  0  0  0
 38 39  1  0  0  0  0
 40 38  2  0  0  0  0
M  END
>  <MODEL>
3

>  <REMARK>
 VINA RESULT:      -7.9      2.991     10.486
  Name = 
  12 active torsions:
  status: ('A' for Active; 'I' for Inactive)
    1  A    between atoms: C_1  and  C_25
    2  A    between atoms: C_2  and  C_12
    3  A    between atoms: C_2  and  C_38
    4  A    between atoms: C_4  and  C_12
    5  A    between atoms: C_8  and  C_37
    6  A    between atoms: O_11  and  C_33
    7  A    between atoms: C_15  and  C_23
    8  A    between atoms: C_15  and  C_33
    9  A    between atoms: C_20  and  C_29
   10  A    between atoms: C_22  and  C_23
   11  A    between atoms: C_22  and  C_25
   12  A    between atoms: C_29  and  N_35
                            x       y       z     vdW  Elec       q    Type
                         _______ _______ _______ _____ _____    ______ ____

>  <TORSDO>
F 12

$$$$
=
 OpenBabel10232408413D

 40 41  0  0  1  0  0  0  0  0999 V2000
  186.7790  178.2590  145.4900 C   0  0  0  0  0  0  0  0  0  0  0  0
  190.1030  177.7710  147.0650 O   0  0  0  0  0  0  0  0  0  0  0  0
  189.8520  178.0850  144.7110 C   0  0  0  0  0  0  0  0  0  0  0  0
  191.3090  177.9200  144.4170 C   0  0  0  0  0  2  0  0  0  0  0  0
  187.8440  178.1650  143.1670 C   0  0  0  0  0  0  0  0  0  0  0  0
  187.8730  178.1880  146.3060 C   0  0  0  0  0  3  0  0  0  0  0  0
  186.5790  176.2100  144.0550 C   0  0  0  0  0  1  0  0  0  0  0  0
  191.9960  175.8000  145.4540 N   0  0  0  0  0  0  0  0  0  0  0  0
  191.6910  176.4680  144.3920 C   0  0  0  0  0  3  0  0  0  0  0  0
  189.2340  177.5680  145.9910 C   0  0  2  0  0  3  0  0  0  0  0  0
  190.6230  176.5070  147.3620 C   0  0  0  0  0  2  0  0  0  0  0  0
  192.0290  176.3700  146.7850 C   0  0  1  0  0  3  0  0  0  0  0  0
  186.7050  177.7250  144.0560 C   0  0  1  0  0  3  0  0  0  0  0  0
  188.9990  178.1730  143.7500 C   0  0  0  0  0  0  0  0  0  0  0  0
  187.6100  178.4870  138.8170 O   0  0  0  0  0  0  0  0  0  0  0  0
  186.8120  179.1810  141.2910 O   0  0  0  0  0  0  0  0  0  0  0  0
  188.4670  177.7520  139.3800 C   0  0  0  0  0  0  0  0  0  0  0  0
  188.5240  177.6580  140.8070 N   0  0  0  0  0  2  0  0  0  0  0  0
  189.4000  176.9980  138.5990 N   0  0  0  0  0  2  0  0  0  0  0  0
  187.6830  178.3760  141.7200 C   0  0  0  0  0  0  0  0  0  0  0  0
  189.4540  178.3190  136.6830 O   0  0  0  0  0  1  0  0  0  0  0  0
  188.1830  176.3240  136.6200 C   0  0  0  0  0  1  0  0  0  0  0  0
  189.4450  176.9990  137.1380 C   0  0  2  0  0  0  0  0  0  0  0  0
  190.7920  176.2220  135.1200 C   0  0  0  0  0  1  0  0  0  0  0  0
  190.7090  176.2710  136.6400 C   0  0  0  0  0  3  0  0  0  0  0  0
  190.8270  174.8610  137.2010 C   0  0  0  0  0  1  0  0  0  0  0  0
  185.5390  178.9280  146.0040 C   0  0  2  0  0  3  0  0  0  0  0  0
  184.7690  178.0230  146.7410 O   0  0  0  0  0  1  0  0  0  0  0  0
  184.7240  179.5140  144.8590 C   0  0  0  0  0  2  0  0  0  0  0  0
  183.3100  178.9590  144.8540 C   0  0  0  0  0  2  0  0  0  0  0  0
  182.7750  178.8800  143.4360 C   0  0  0  0  0  2  0  0  0  0  0  0
  180.5750  178.3920  144.1940 O   0  0  0  0  0  0  0  0  0  0  0  0
  181.2970  179.0960  143.4400 C   0  0  0  0  0  0  0  0  0  0  0  0
  180.6990  180.0840  142.6550 O   0  0  0  0  0  0  0  0  0  0  0  0
  180.3230  179.8580  141.3050 C   0  0  0  0  0  1  0  0  0  0  0  0
  192.9100  175.5230  147.6990 C   0  0  0  0  0  2  0  0  0  0  0  0
  192.6630  175.8120  149.1750 C   0  0  0  0  0  2  0  0  0  0  0  0
  193.4420  177.0090  149.5900 C   0  0  0  0  0  0  0  0  0  0  0  0
  192.8240  178.2510  149.6540 O   0  0  0  0  0  0  0  0  0  0  0  0
  194.6520  176.8930  149.9170 O   0  0  0  0  0  1  0  0  0  0  0  0
  1 27  1  0  0  0  0
  1  6  2  0  0  0  0
  2 11  1  0  0  0  0
  3 10  1  0  0  0  0
  4  3  1  0  0  0  0
  5 14  2  0  0  0  0
  5 13  1  0  0  0  0
  8 12  1  0  0  0  0
  9  4  1  0  0  0  0
  9  8  2  0  0  0  0
 10  6  1  1  0  0  0
 10  2  1  0  0  0  0
 12 11  1  0  0  0  0
 12 36  1  1  0  0  0
 13  7  1  1  0  0  0
 13  1  1  0  0  0  0
 14  3  2  0  0  0  0
 15 17  2  0  0  0  0
 16 20  2  0  0  0  0
 17 18  1  0  0  0  0
 18 20  1  0  0  0  0
 19 17  1  0  0  0  0
 20  5  1  0  0  0  0
 21 23  1  0  0  0  0
 23 22  1  6  0  0  0
 23 19  1  0  0  0  0
 24 25  1  0  0  0  0
 25 23  1  0  0  0  0
 25 26  1  0  0  0  0
 27 28  1  6  0  0  0
 29 27  1  0  0  0  0
 30 29  1  0  0  0  0
 31 33  1  0  0  0  0
 31 30  1  0  0  0  0
 33 32  2  0  0  0  0
 34 33  1  0  0  0  0
 35 34  1  0  0  0  0
 36 37  1  0  0  0  0
 37 38  1  0  0  0  0
 38 39  2  0  0  0  0
 38 40  1  0  0  0  0
M  END
>  <MODEL>
4

>  <REMARK>
 VINA RESULT:      -7.7      2.658      8.061
  Name = 
  12 active torsions:
  status: ('A' for Active; 'I' for Inactive)
    1  A    between atoms: C_1  and  C_25
    2  A    between atoms: C_2  and  C_12
    3  A    between atoms: C_2  and  C_38
    4  A    between atoms: C_4  and  C_12
    5  A    between atoms: C_8  and  C_37
    6  A    between atoms: O_11  and  C_33
    7  A    between atoms: C_15  and  C_23
    8  A    between atoms: C_15  and  C_33
    9  A    between atoms: C_20  and  C_29
   10  A    between atoms: C_22  and  C_23
   11  A    between atoms: C_22  and  C_25
   12  A    between atoms: C_29  and  N_35
                            x       y       z     vdW  Elec       q    Type
                         _______ _______ _______ _____ _____    ______ ____

>  <TORSDO>
F 12

$$$$
=
 OpenBabel10232408413D

 40 41  0  0  1  0  0  0  0  0999 V2000
  189.2120  178.0110  137.9980 C   0  0  0  0  0  0  0  0  0  0  0  0
  188.1720  178.5570  141.5180 O   0  0  0  0  0  0  0  0  0  0  0  0
  190.3130  177.6600  140.9560 C   0  0  0  0  0  0  0  0  0  0  0  0
  190.7310  177.4590  142.3770 C   0  0  0  0  0  2  0  0  0  0  0  0
  191.3510  176.8540  138.7890 C   0  0  0  0  0  0  0  0  0  0  0  0
  188.6550  178.4140  139.1800 C   0  0  0  0  0  3  0  0  0  0  0  0
  189.4430  175.5140  137.9060 C   0  0  0  0  0  1  0  0  0  0  0  0
  188.9410  176.1650  143.4550 N   0  0  0  0  0  0  0  0  0  0  0  0
  190.1250  176.2070  142.9430 C   0  0  0  0  0  3  0  0  0  0  0  0
  188.8590  177.8020  140.5640 C   0  0  2  0  0  3  0  0  0  0  0  0
  187.4000  177.6340  142.2320 C   0  0  0  0  0  2  0  0  0  0  0  0
  188.0670  177.3150  143.5670 C   0  0  1  0  0  3  0  0  0  0  0  0
  190.1840  176.8400  137.8290 C   0  0  1  0  0  3  0  0  0  0  0  0
  191.0430  177.2150  139.9920 C   0  0  0  0  0  0  0  0  0  0  0  0
  195.0930  174.9840  137.5320 O   0  0  0  0  0  0  0  0  0  0  0  0
  193.7160  176.9770  138.7040 O   0  0  0  0  0  0  0  0  0  0  0  0
  193.9810  174.4140  137.3650 C   0  0  0  0  0  0  0  0  0  0  0  0
  192.7660  175.0460  137.7800 N   0  0  0  0  0  2  0  0  0  0  0  0
  193.9140  173.1210  136.7550 N   0  0  0  0  0  2  0  0  0  0  0  0
  192.6750  176.3180  138.4340 C   0  0  0  0  0  0  0  0  0  0  0  0
  195.8400  173.1920  135.4490 O   0  0  0  0  0  1  0  0  0  0  0  0
  194.5790  171.1890  135.4590 C   0  0  0  0  0  1  0  0  0  0  0  0
  195.0750  172.3700  136.2800 C   0  0  2  0  0  0  0  0  0  0  0  0
  197.4260  171.9990  137.1920 C   0  0  0  0  0  1  0  0  0  0  0  0
  195.9320  171.8970  137.4710 C   0  0  0  0  0  3  0  0  0  0  0  0
  195.5920  170.4790  137.9040 C   0  0  0  0  0  1  0  0  0  0  0  0
  188.8800  178.7720  136.7490 C   0  0  2  0  0  3  0  0  0  0  0  0
  187.8200  179.6530  136.9830 O   0  0  0  0  0  1  0  0  0  0  0  0
  188.5410  177.8200  135.6080 C   0  0  0  0  0  2  0  0  0  0  0  0
  187.1240  178.0470  135.1100 C   0  0  0  0  0  2  0  0  0  0  0  0
  186.4360  176.7210  134.8410 C   0  0  0  0  0  2  0  0  0  0  0  0
  185.8180  176.5910  137.1320 O   0  0  0  0  0  0  0  0  0  0  0  0
  186.2530  175.9770  136.1230 C   0  0  0  0  0  0  0  0  0  0  0  0
  186.5190  174.6100  136.2210 O   0  0  0  0  0  0  0  0  0  0  0  0
  186.0940  173.8300  137.3290 C   0  0  0  0  0  1  0  0  0  0  0  0
  187.0210  177.0790  144.6530 C   0  0  0  0  0  2  0  0  0  0  0  0
  186.1950  178.3260  144.9450 C   0  0  0  0  0  2  0  0  0  0  0  0
  185.8390  178.3660  146.3890 C   0  0  0  0  0  0  0  0  0  0  0  0
  184.5080  178.4650  146.7720 O   0  0  0  0  0  0  0  0  0  0  0  0
  186.7390  178.2760  147.2640 O   0  0  0  0  0  1  0  0  0  0  0  0
  1  6  2  0  0  0  0
  2 11  1  0  0  0  0
  3  4  1  0  0  0  0
  4  9  1  0  0  0  0
  5 14  2  0  0  0  0
  8 12  1  0  0  0  0
  9  8  2  0  0  0  0
 10  6  1  6  0  0  0
 10  3  1  0  0  0  0
 10  2  1  0  0  0  0
 11 12  1  0  0  0  0
 12 36  1  1  0  0  0
 13  7  1  1  0  0  0
 13  1  1  0  0  0  0
 13  5  1  0  0  0  0
 14  3  2  0  0  0  0
 17 15  2  0  0  0  0
 17 18  1  0  0  0  0
 18 20  1  0  0  0  0
 19 17  1  0  0  0  0
 20 16  2  0  0  0  0
 20  5  1  0  0  0  0
 21 23  1  0  0  0  0
 23 22  1  6  0  0  0
 23 19  1  0  0  0  0
 23 25  1  0  0  0  0
 24 25  1  0  0  0  0
 25 26  1  0  0  0  0
 27 28  1  1  0  0  0
 27  1  1  0  0  0  0
 29 27  1  0  0  0  0
 30 29  1  0  0  0  0
 31 30  1  0  0  0  0
 31 33  1  0  0  0  0
 33 34  1  0  0  0  0
 33 32  2  0  0  0  0
 34 35  1  0  0  0  0
 36 37  1  0  0  0  0
 37 38  1  0  0  0  0
 38 39  2  0  0  0  0
 38 40  1  0  0  0  0
M  END
>  <MODEL>
5

>  <REMARK>
 VINA RESULT:      -7.5      3.706     10.813
  Name = 
  12 active torsions:
  status: ('A' for Active; 'I' for Inactive)
    1  A    between atoms: C_1  and  C_25
    2  A    between atoms: C_2  and  C_12
    3  A    between atoms: C_2  and  C_38
    4  A    between atoms: C_4  and  C_12
    5  A    between atoms: C_8  and  C_37
    6  A    between atoms: O_11  and  C_33
    7  A    between atoms: C_15  and  C_23
    8  A    between atoms: C_15  and  C_33
    9  A    between atoms: C_20  and  C_29
   10  A    between atoms: C_22  and  C_23
   11  A    between atoms: C_22  and  C_25
   12  A    between atoms: C_29  and  N_35
                            x       y       z     vdW  Elec       q    Type
                         _______ _______ _______ _____ _____    ______ ____

>  <TORSDO>
F 12

$$$$
=
 OpenBabel10232408413D

 40 41  0  0  1  0  0  0  0  0999 V2000
  188.4910  177.6260  137.7400 C   0  0  0  0  0  0  0  0  0  0  0  0
  188.4840  178.4270  141.3630 O   0  0  0  0  0  0  0  0  0  0  0  0
  190.3860  177.4690  140.2820 C   0  0  0  0  0  0  0  0  0  0  0  0
  191.1910  177.3620  141.5380 C   0  0  0  0  0  2  0  0  0  0  0  0
  190.7770  176.5020  137.9730 C   0  0  0  0  0  0  0  0  0  0  0  0
  188.2880  178.1170  138.9990 C   0  0  0  0  0  3  0  0  0  0  0  0
  188.7090  175.1260  137.7610 C   0  0  0  0  0  1  0  0  0  0  0  0
  189.7900  176.1670  143.1660 N   0  0  0  0  0  0  0  0  0  0  0  0
  190.7800  176.1600  142.3390 C   0  0  0  0  0  3  0  0  0  0  0  0
  188.8800  177.6000  140.3090 C   0  0  2  0  0  3  0  0  0  0  0  0
  187.9540  177.5650  142.3280 C   0  0  0  0  0  2  0  0  0  0  0  0
  188.9740  177.3320  143.4390 C   0  0  1  0  0  3  0  0  0  0  0  0
  189.3860  176.4340  137.3850 C   0  0  1  0  0  3  0  0  0  0  0  0
  190.8180  176.9490  139.1860 C   0  0  0  0  0  0  0  0  0  0  0  0
  194.4280  174.7640  136.3210 O   0  0  0  0  0  0  0  0  0  0  0  0
  191.8900  175.6240  136.0740 O   0  0  0  0  0  0  0  0  0  0  0  0
  194.3650  175.1540  137.5180 C   0  0  0  0  0  0  0  0  0  0  0  0
  193.1570  175.7170  138.0410 N   0  0  0  0  0  2  0  0  0  0  0  0
  195.5030  175.0400  138.3780 N   0  0  0  0  0  2  0  0  0  0  0  0
  191.9500  175.9270  137.2970 C   0  0  0  0  0  0  0  0  0  0  0  0
  197.0340  174.8100  136.6390 O   0  0  0  0  0  1  0  0  0  0  0  0
  196.7080  172.9630  138.0820 C   0  0  0  0  0  1  0  0  0  0  0  0
  196.7910  174.4790  137.9740 C   0  0  2  0  0  0  0  0  0  0  0  0
  199.2350  174.2890  138.6700 C   0  0  0  0  0  1  0  0  0  0  0  0
  197.9220  175.0370  138.8600 C   0  0  0  0  0  3  0  0  0  0  0  0
  197.5520  175.0480  140.3360 C   0  0  0  0  0  1  0  0  0  0  0  0
  187.8130  178.3010  136.5850 C   0  0  2  0  0  3  0  0  0  0  0  0
  187.5220  179.6310  136.9020 O   0  0  0  0  0  1  0  0  0  0  0  0
  186.5440  177.5560  136.1890 C   0  0  0  0  0  2  0  0  0  0  0  0
  185.7230  177.1880  137.4130 C   0  0  0  0  0  2  0  0  0  0  0  0
  184.2900  177.6590  137.2530 C   0  0  0  0  0  2  0  0  0  0  0  0
  182.7240  178.8250  138.6090 O   0  0  0  0  0  0  0  0  0  0  0  0
  183.9370  178.5940  138.3630 C   0  0  0  0  0  0  0  0  0  0  0  0
  184.9180  179.1930  139.1550 O   0  0  0  0  0  0  0  0  0  0  0  0
  184.9780  179.0050  140.5610 C   0  0  0  0  0  1  0  0  0  0  0  0
  188.2790  177.1850  144.7900 C   0  0  0  0  0  2  0  0  0  0  0  0
  189.2250  177.4290  145.9600 C   0  0  0  0  0  2  0  0  0  0  0  0
  188.4390  177.7030  147.1930 C   0  0  0  0  0  0  0  0  0  0  0  0
  189.0800  177.7670  148.4230 O   0  0  0  0  0  1  0  0  0  0  0  0
  187.2000  177.9110  147.1190 O   0  0  0  0  0  0  0  0  0  0  0  0
  1  6  2  0  0  0  0
  2 11  1  0  0  0  0
  3 10  1  0  0  0  0
  3  4  1  0  0  0  0
  4  9  1  0  0  0  0
  5 14  2  0  0  0  0
  8 12  1  0  0  0  0
  9  8  2  0  0  0  0
 10  6  1  6  0  0  0
 10  2  1  0  0  0  0
 11 12  1  0  0  0  0
 12 36  1  1  0  0  0
 13  1  1  0  0  0  0
 13  7  1  1  0  0  0
 13  5  1  0  0  0  0
 14  3  2  0  0  0  0
 15 17  2  0  0  0  0
 16 20  2  0  0  0  0
 17 18  1  0  0  0  0
 17 19  1  0  0  0  0
 20  5  1  0  0  0  0
 20 18  1  0  0  0  0
 21 23  1  0  0  0  0
 23 22  1  1  0  0  0
 23 19  1  0  0  0  0
 23 25  1  0  0  0  0
 24 25  1  0  0  0  0
 25 26  1  0  0  0  0
 27 28  1  1  0  0  0
 27  1  1  0  0  0  0
 29 27  1  0  0  0  0
 29 30  1  0  0  0  0
 31 30  1  0  0  0  0
 31 33  1  0  0  0  0
 33 32  2  0  0  0  0
 33 34  1  0  0  0  0
 34 35  1  0  0  0  0
 36 37  1  0  0  0  0
 37 38  1  0  0  0  0
 38 39  1  0  0  0  0
 40 38  2  0  0  0  0
M  END
>  <MODEL>
6

>  <REMARK>
 VINA RESULT:      -7.2      2.893     10.537
  Name = 
  12 active torsions:
  status: ('A' for Active; 'I' for Inactive)
    1  A    between atoms: C_1  and  C_25
    2  A    between atoms: C_2  and  C_12
    3  A    between atoms: C_2  and  C_38
    4  A    between atoms: C_4  and  C_12
    5  A    between atoms: C_8  and  C_37
    6  A    between atoms: O_11  and  C_33
    7  A    between atoms: C_15  and  C_23
    8  A    between atoms: C_15  and  C_33
    9  A    between atoms: C_20  and  C_29
   10  A    between atoms: C_22  and  C_23
   11  A    between atoms: C_22  and  C_25
   12  A    between atoms: C_29  and  N_35
                            x       y       z     vdW  Elec       q    Type
                         _______ _______ _______ _____ _____    ______ ____

>  <TORSDO>
F 12

$$$$
=
 OpenBabel10232408413D

 40 41  0  0  1  0  0  0  0  0999 V2000
  188.2130  176.7820  136.2640 C   0  0  0  0  0  0  0  0  0  0  0  0
  191.4330  175.2040  135.3090 O   0  0  0  0  0  0  0  0  0  0  0  0
  190.9520  175.8360  137.5610 C   0  0  0  0  0  0  0  0  0  0  0  0
  192.2940  175.4310  138.0840 C   0  0  0  0  0  2  0  0  0  0  0  0
  189.0820  177.1650  138.6390 C   0  0  0  0  0  0  0  0  0  0  0  0
  189.2440  176.0890  135.6940 C   0  0  0  0  0  3  0  0  0  0  0  0
  188.9540  179.0570  137.0220 C   0  0  0  0  0  1  0  0  0  0  0  0
  193.9610  176.5540  136.6690 N   0  0  0  0  0  0  0  0  0  0  0  0
  193.3240  176.4830  137.7900 C   0  0  0  0  0  3  0  0  0  0  0  0
  190.7180  176.1130  136.0940 C   0  0  2  0  0  3  0  0  0  0  0  0
  192.5090  175.9320  134.7900 C   0  0  0  0  0  2  0  0  0  0  0  0
  193.7800  175.6210  135.5760 C   0  0  1  0  0  3  0  0  0  0  0  0
  188.3370  177.7370  137.4550 C   0  0  1  0  0  3  0  0  0  0  0  0
  190.1170  176.4570  138.3210 C   0  0  0  0  0  0  0  0  0  0  0  0
  188.5230  178.1570  142.8560 O   0  0  0  0  0  0  0  0  0  0  0  0
  187.7240  178.1930  140.2860 O   0  0  0  0  0  0  0  0  0  0  0  0
  189.5040  177.4700  142.4630 C   0  0  0  0  0  0  0  0  0  0  0  0
  189.6710  177.1590  141.0770 N   0  0  0  0  0  2  0  0  0  0  0  0
  190.4720  176.9860  143.4010 N   0  0  0  0  0  2  0  0  0  0  0  0
  188.7720  177.5400  140.0270 C   0  0  0  0  0  0  0  0  0  0  0  0
  189.2260  176.7320  145.3510 O   0  0  0  0  0  1  0  0  0  0  0  0
  190.4420  178.7420  145.0650 C   0  0  0  0  0  1  0  0  0  0  0  0
  190.4230  177.2370  144.8410 C   0  0  2  0  0  0  0  0  0  0  0  0
  191.9630  175.2080  144.9270 C   0  0  0  0  0  1  0  0  0  0  0  0
  191.6150  176.5560  145.5440 C   0  0  0  0  0  3  0  0  0  0  0  0
  191.3870  176.3870  147.0390 C   0  0  0  0  0  1  0  0  0  0  0  0
  186.8300  176.5980  135.7140 C   0  0  2  0  0  3  0  0  0  0  0  0
  186.4340  177.7350  135.0050 O   0  0  0  0  0  1  0  0  0  0  0  0
  185.8390  176.2920  136.8300 C   0  0  0  0  0  2  0  0  0  0  0  0
  184.7240  177.3230  136.8690 C   0  0  0  0  0  2  0  0  0  0  0  0
  183.9610  177.2330  138.1770 C   0  0  0  0  0  2  0  0  0  0  0  0
  185.1280  179.2540  138.6280 O   0  0  0  0  0  0  0  0  0  0  0  0
  184.2970  178.4040  139.0420 C   0  0  0  0  0  0  0  0  0  0  0  0
  183.6860  178.5980  140.2820 O   0  0  0  0  0  0  0  0  0  0  0  0
  184.4220  178.6280  141.4960 C   0  0  0  0  0  1  0  0  0  0  0  0
  195.0010  175.6360  134.6610 C   0  0  0  0  0  2  0  0  0  0  0  0
  196.1510  174.8020  135.2120 C   0  0  0  0  0  2  0  0  0  0  0  0
  197.2150  175.6990  135.7370 C   0  0  0  0  0  0  0  0  0  0  0  0
  198.3580  175.1560  136.3100 O   0  0  0  0  0  1  0  0  0  0  0  0
  197.0980  176.9470  135.6320 O   0  0  0  0  0  0  0  0  0  0  0  0
  1 13  1  0  0  0  0
  2 10  1  0  0  0  0
  3  4  1  0  0  0  0
  3 14  2  0  0  0  0
  5 20  1  0  0  0  0
  6  1  2  0  0  0  0
  8  9  2  0  0  0  0
  9  4  1  0  0  0  0
 10  6  1  1  0  0  0
 10  3  1  0  0  0  0
 11  2  1  0  0  0  0
 11 12  1  0  0  0  0
 12 36  1  6  0  0  0
 12  8  1  0  0  0  0
 13  7  1  6  0  0  0
 13  5  1  0  0  0  0
 14  5  2  0  0  0  0
 17 15  2  0  0  0  0
 17 19  1  0  0  0  0
 18 17  1  0  0  0  0
 19 23  1  0  0  0  0
 20 16  2  0  0  0  0
 20 18  1  0  0  0  0
 23 22  1  1  0  0  0
 23 21  1  0  0  0  0
 23 25  1  0  0  0  0
 24 25  1  0  0  0  0
 25 26  1  0  0  0  0
 27 28  1  1  0  0  0
 27  1  1  0  0  0  0
 27 29  1  0  0  0  0
 29 30  1  0  0  0  0
 30 31  1  0  0  0  0
 31 33  1  0  0  0  0
 32 33  2  0  0  0  0
 33 34  1  0  0  0  0
 34 35  1  0  0  0  0
 36 37  1  0  0  0  0
 37 38  1  0  0  0  0
 38 39  1  0  0  0  0
 40 38  2  0  0  0  0
M  END
>  <MODEL>
7

>  <REMARK>
 VINA RESULT:      -7.1      2.878      7.713
  Name = 
  12 active torsions:
  status: ('A' for Active; 'I' for Inactive)
    1  A    between atoms: C_1  and  C_25
    2  A    between atoms: C_2  and  C_12
    3  A    between atoms: C_2  and  C_38
    4  A    between atoms: C_4  and  C_12
    5  A    between atoms: C_8  and  C_37
    6  A    between atoms: O_11  and  C_33
    7  A    between atoms: C_15  and  C_23
    8  A    between atoms: C_15  and  C_33
    9  A    between atoms: C_20  and  C_29
   10  A    between atoms: C_22  and  C_23
   11  A    between atoms: C_22  and  C_25
   12  A    between atoms: C_29  and  N_35
                            x       y       z     vdW  Elec       q    Type
                         _______ _______ _______ _____ _____    ______ ____

>  <TORSDO>
F 12

$$$$
=
 OpenBabel10232408413D

 40 41  0  0  1  0  0  0  0  0999 V2000
  191.6270  175.9550  135.9520 C   0  0  0  0  0  0  0  0  0  0  0  0
  188.5050  177.3990  134.5610 O   0  0  0  0  0  0  0  0  0  0  0  0
  189.2000  177.8150  136.8070 C   0  0  0  0  0  0  0  0  0  0  0  0
  187.9900  178.6230  137.1550 C   0  0  0  0  0  2  0  0  0  0  0  0
  191.0350  176.8580  138.2700 C   0  0  0  0  0  0  0  0  0  0  0  0
  190.6140  176.4590  135.1850 C   0  0  0  0  0  3  0  0  0  0  0  0
  190.7440  174.4390  137.7460 C   0  0  0  0  0  1  0  0  0  0  0  0
  186.0400  177.2530  136.5530 N   0  0  0  0  0  0  0  0  0  0  0  0
  186.8200  177.7320  137.4620 C   0  0  0  0  0  3  0  0  0  0  0  0
  189.2100  176.8570  135.6380 C   0  0  2  0  0  3  0  0  0  0  0  0
  187.2970  176.6950  134.5190 C   0  0  0  0  0  2  0  0  0  0  0  0
  186.1810  177.5320  135.1380 C   0  0  1  0  0  3  0  0  0  0  0  0
  191.5530  175.6930  137.4590 C   0  0  1  0  0  3  0  0  0  0  0  0
  190.0520  177.4930  137.7180 C   0  0  0  0  0  0  0  0  0  0  0  0
  191.9970  177.5230  142.4790 O   0  0  0  0  0  0  0  0  0  0  0  0
  192.6880  177.3960  139.8810 O   0  0  0  0  0  0  0  0  0  0  0  0
  190.8180  177.2870  142.1000 C   0  0  0  0  0  0  0  0  0  0  0  0
  190.5250  177.0680  140.7170 N   0  0  0  0  0  2  0  0  0  0  0  0
  189.7490  177.2340  143.0500 N   0  0  0  0  0  2  0  0  0  0  0  0
  191.4790  177.1230  139.6480 C   0  0  0  0  0  0  0  0  0  0  0  0
  190.2370  178.7690  144.7310 O   0  0  0  0  0  1  0  0  0  0  0  0
  191.0700  176.5650  144.9630 C   0  0  0  0  0  1  0  0  0  0  0  0
  189.9120  177.4320  144.4890 C   0  0  2  0  0  0  0  0  0  0  0  0
  187.3710  177.6140  144.5310 C   0  0  0  0  0  1  0  0  0  0  0  0
  188.6100  177.0730  145.2320 C   0  0  0  0  0  3  0  0  0  0  0  0
  188.6190  177.5390  146.6800 C   0  0  0  0  0  1  0  0  0  0  0  0
  192.9390  175.6420  135.2970 C   0  0  2  0  0  3  0  0  0  0  0  0
  192.9270  174.3430  134.7810 O   0  0  0  0  0  1  0  0  0  0  0  0
  194.0910  175.8170  136.2780 C   0  0  0  0  0  2  0  0  0  0  0  0
  194.7850  174.4930  136.5480 C   0  0  0  0  0  2  0  0  0  0  0  0
  194.6050  174.0850  137.9990 C   0  0  0  0  0  2  0  0  0  0  0  0
  196.9240  173.7010  138.3510 O   0  0  0  0  0  0  0  0  0  0  0  0
  195.8830  174.2900  138.7450 C   0  0  0  0  0  0  0  0  0  0  0  0
  195.9590  175.1440  139.8460 O   0  0  0  0  0  0  0  0  0  0  0  0
  197.1200  175.2350  140.6580 C   0  0  0  0  0  1  0  0  0  0  0  0
  184.8570  177.2880  134.4180 C   0  0  0  0  0  2  0  0  0  0  0  0
  183.9800  176.2740  135.1420 C   0  0  0  0  0  2  0  0  0  0  0  0
  182.6580  176.8820  135.4510 C   0  0  0  0  0  0  0  0  0  0  0  0
  182.5740  177.9330  136.3550 O   0  0  0  0  0  1  0  0  0  0  0  0
  181.6220  176.4700  134.8690 O   0  0  0  0  0  0  0  0  0  0  0  0
  1 13  1  0  0  0  0
  2 10  1  0  0  0  0
  3  4  1  0  0  0  0
  3 14  2  0  0  0  0
  4  9  1  0  0  0  0
  5 20  1  0  0  0  0
  6  1  2  0  0  0  0
  8  9  2  0  0  0  0
 10  6  1  6  0  0  0
 10  3  1  0  0  0  0
 11  2  1  0  0  0  0
 11 12  1  0  0  0  0
 12 36  1  6  0  0  0
 12  8  1  0  0  0  0
 13  7  1  6  0  0  0
 13  5  1  0  0  0  0
 14  5  2  0  0  0  0
 17 15  2  0  0  0  0
 17 19  1  0  0  0  0
 18 17  1  0  0  0  0
 19 23  1  0  0  0  0
 20 16  2  0  0  0  0
 20 18  1  0  0  0  0
 23 21  1  0  0  0  0
 23 22  1  1  0  0  0
 23 25  1  0  0  0  0
 24 25  1  0  0  0  0
 25 26  1  0  0  0  0
 27 28  1  1  0  0  0
 27  1  1  0  0  0  0
 27 29  1  0  0  0  0
 29 30  1  0  0  0  0
 30 31  1  0  0  0  0
 31 33  1  0  0  0  0
 32 33  2  0  0  0  0
 33 34  1  0  0  0  0
 34 35  1  0  0  0  0
 36 37  1  0  0  0  0
 37 38  1  0  0  0  0
 38 39  1  0  0  0  0
 40 38  2  0  0  0  0
M  END
>  <MODEL>
8

>  <REMARK>
 VINA RESULT:      -6.9      3.416      8.883
  Name = 
  12 active torsions:
  status: ('A' for Active; 'I' for Inactive)
    1  A    between atoms: C_1  and  C_25
    2  A    between atoms: C_2  and  C_12
    3  A    between atoms: C_2  and  C_38
    4  A    between atoms: C_4  and  C_12
    5  A    between atoms: C_8  and  C_37
    6  A    between atoms: O_11  and  C_33
    7  A    between atoms: C_15  and  C_23
    8  A    between atoms: C_15  and  C_33
    9  A    between atoms: C_20  and  C_29
   10  A    between atoms: C_22  and  C_23
   11  A    between atoms: C_22  and  C_25
   12  A    between atoms: C_29  and  N_35
                            x       y       z     vdW  Elec       q    Type
                         _______ _______ _______ _____ _____    ______ ____

>  <TORSDO>
F 12

$$$$
=
 OpenBabel10232408413D

 40 41  0  0  1  0  0  0  0  0999 V2000
  188.1790  176.9370  136.4740 C   0  0  0  0  0  0  0  0  0  0  0  0
  191.3100  175.2660  135.3910 O   0  0  0  0  0  0  0  0  0  0  0  0
  190.9250  175.8800  137.6670 C   0  0  0  0  0  0  0  0  0  0  0  0
  192.2680  175.4220  138.1390 C   0  0  0  0  0  2  0  0  0  0  0  0
  189.1380  177.2540  138.8240 C   0  0  0  0  0  0  0  0  0  0  0  0
  189.1660  176.2190  135.8600 C   0  0  0  0  0  3  0  0  0  0  0  0
  189.0210  179.1740  137.2380 C   0  0  0  0  0  1  0  0  0  0  0  0
  193.9260  176.5090  136.6850 N   0  0  0  0  0  0  0  0  0  0  0  0
  193.3240  176.4430  137.8250 C   0  0  0  0  0  3  0  0  0  0  0  0
  190.6530  176.1870  136.2110 C   0  0  2  0  0  3  0  0  0  0  0  0
  192.3920  175.9650  134.8470 C   0  0  0  0  0  2  0  0  0  0  0  0
  193.6770  175.5990  135.5860 C   0  0  1  0  0  3  0  0  0  0  0  0
  188.3740  177.8690  137.6740 C   0  0  1  0  0  3  0  0  0  0  0  0
  190.1370  176.5170  138.4620 C   0  0  0  0  0  0  0  0  0  0  0  0
  188.0080  178.2900  142.9140 O   0  0  0  0  0  0  0  0  0  0  0  0
  189.8490  177.7250  141.0350 O   0  0  0  0  0  0  0  0  0  0  0  0
  187.1490  178.1970  141.9950 C   0  0  0  0  0  0  0  0  0  0  0  0
  187.5410  177.8520  140.6620 N   0  0  0  0  0  2  0  0  0  0  0  0
  185.7650  178.4350  142.2700 N   0  0  0  0  0  2  0  0  0  0  0  0
  188.8860  177.6200  140.2270 C   0  0  0  0  0  0  0  0  0  0  0  0
  185.4090  180.1550  143.7970 O   0  0  0  0  0  1  0  0  0  0  0  0
  186.0280  178.0320  144.6410 C   0  0  0  0  0  1  0  0  0  0  0  0
  185.2320  178.7860  143.5850 C   0  0  2  0  0  0  0  0  0  0  0  0
  182.9860  178.7740  142.3830 C   0  0  0  0  0  1  0  0  0  0  0  0
  183.7330  178.4380  143.6670 C   0  0  0  0  0  3  0  0  0  0  0  0
  183.0440  179.1110  144.8460 C   0  0  0  0  0  1  0  0  0  0  0  0
  186.7730  176.8080  135.9680 C   0  0  2  0  0  3  0  0  0  0  0  0
  186.4500  177.8940  135.1490 O   0  0  0  0  0  1  0  0  0  0  0  0
  185.7880  176.6990  137.1250 C   0  0  0  0  0  2  0  0  0  0  0  0
  185.4790  178.0660  137.7100 C   0  0  0  0  0  2  0  0  0  0  0  0
  184.3890  177.9610  138.7610 C   0  0  0  0  0  2  0  0  0  0  0  0
  184.2430  180.2880  139.2220 O   0  0  0  0  0  0  0  0  0  0  0  0
  183.6390  179.2500  138.8440 C   0  0  0  0  0  0  0  0  0  0  0  0
  182.2940  179.3400  138.4790 O   0  0  0  0  0  0  0  0  0  0  0  0
  181.5430  178.2110  138.0590 C   0  0  0  0  0  1  0  0  0  0  0  0
  194.8670  175.5870  134.6310 C   0  0  0  0  0  2  0  0  0  0  0  0
  196.0110  176.4680  135.1170 C   0  0  0  0  0  2  0  0  0  0  0  0
  197.1610  175.6180  135.5290 C   0  0  0  0  0  0  0  0  0  0  0  0
  197.7290  175.7820  136.7850 O   0  0  0  0  0  1  0  0  0  0  0  0
  197.5960  174.7270  134.7550 O   0  0  0  0  0  0  0  0  0  0  0  0
  1 13  1  0  0  0  0
  2 10  1  0  0  0  0
  3  4  1  0  0  0  0
  3 14  2  0  0  0  0
  5 20  1  0  0  0  0
  6  1  2  0  0  0  0
  8  9  2  0  0  0  0
  9  4  1  0  0  0  0
 10  6  1  1  0  0  0
 10  3  1  0  0  0  0
 11  2  1  0  0  0  0
 11 12  1  0  0  0  0
 12 36  1  6  0  0  0
 12  8  1  0  0  0  0
 13  7  1  6  0  0  0
 13  5  1  0  0  0  0
 14  5  2  0  0  0  0
 17 19  1  0  0  0  0
 17 15  2  0  0  0  0
 18 17  1  0  0  0  0
 19 23  1  0  0  0  0
 20 18  1  0  0  0  0
 20 16  2  0  0  0  0
 23 25  1  0  0  0  0
 23 21  1  0  0  0  0
 23 22  1  1  0  0  0
 24 25  1  0  0  0  0
 25 26  1  0  0  0  0
 27 28  1  1  0  0  0
 27  1  1  0  0  0  0
 27 29  1  0  0  0  0
 29 30  1  0  0  0  0
 30 31  1  0  0  0  0
 31 33  1  0  0  0  0
 33 32  2  0  0  0  0
 34 33  1  0  0  0  0
 35 34  1  0  0  0  0
 36 37  1  0  0  0  0
 37 38  1  0  0  0  0
 38 39  1  0  0  0  0
 40 38  2  0  0  0  0
M  END
>  <MODEL>
9

>  <REMARK>
 VINA RESULT:      -6.6      2.897      6.496
  Name = 
  12 active torsions:
  status: ('A' for Active; 'I' for Inactive)
    1  A    between atoms: C_1  and  C_25
    2  A    between atoms: C_2  and  C_12
    3  A    between atoms: C_2  and  C_38
    4  A    between atoms: C_4  and  C_12
    5  A    between atoms: C_8  and  C_37
    6  A    between atoms: O_11  and  C_33
    7  A    between atoms: C_15  and  C_23
    8  A    between atoms: C_15  and  C_33
    9  A    between atoms: C_20  and  C_29
   10  A    between atoms: C_22  and  C_23
   11  A    between atoms: C_22  and  C_25
   12  A    between atoms: C_29  and  N_35
                            x       y       z     vdW  Elec       q    Type
                         _______ _______ _______ _____ _____    ______ ____

>  <TORSDO>
F 12

$$$$
