=
 OpenBabel10232409463D

 25 28  0  0  1  0  0  0  0  0999 V2000
  191.6670  176.1770  144.7420 C   0  0  0  0  0  2  0  0  0  0  0  0
  191.5310  178.6520  144.5500 C   0  0  0  0  0  1  0  0  0  0  0  0
  191.9120  175.9010  146.2290 C   0  0  0  0  0  2  0  0  0  0  0  0
  188.0420  177.9370  147.3930 N   0  0  0  0  0  0  0  0  0  0  0  0
  190.7250  177.3740  144.7190 C   0  0  2  0  0  0  0  0  0  0  0  0
  190.1260  177.3360  146.0880 C   0  0  2  0  0  3  0  0  0  0  0  0
  189.6570  177.2960  143.6230 C   0  0  0  0  0  0  0  0  0  0  0  0
  190.0500  176.9390  142.2970 N   0  0  0  0  0  2  0  0  0  0  0  0
  187.9940  178.0210  145.1770 C   0  0  0  0  0  0  0  0  0  0  0  0
  190.7350  176.5050  146.9090 C   0  0  0  0  0  2  0  0  0  0  0  0
  188.7760  177.8460  146.2700 C   0  0  0  0  0  0  0  0  0  0  0  0
  188.4160  177.6570  143.8570 N   0  0  0  0  0  0  0  0  0  0  0  0
  186.7900  178.1990  147.0240 N   0  0  0  0  0  2  0  0  0  0  0  0
  186.7310  178.2390  145.6710 C   0  0  0  0  0  0  0  0  0  0  0  0
  183.3880  178.7960  144.3990 N   0  0  0  0  0  0  0  0  0  0  0  0
  185.4940  178.4020  144.8980 C   0  0  0  0  0  0  0  0  0  0  0  0
  183.5340  178.4210  141.9390 C   0  0  0  0  0  1  0  0  0  0  0  0
  184.1140  178.4830  143.3080 C   0  0  0  0  0  0  0  0  0  0  0  0
  184.2660  178.7450  145.4190 C   0  0  0  0  0  2  0  0  0  0  0  0
  185.4110  178.2350  143.5660 N   0  0  0  0  0  0  0  0  0  0  0  0
  189.1200  176.9010  141.2490 N   0  0  0  0  0  2  0  0  0  0  0  0
  189.7270  177.5940  140.1270 C   0  0  0  0  0  2  0  0  0  0  0  0
  189.0480  179.1990  138.5050 O   0  0  0  0  0  0  0  0  0  0  0  0
  188.7120  178.4520  139.4610 C   0  0  0  0  0  0  0  0  0  0  0  0
  187.3690  178.4600  139.9290 N   0  0  0  0  0  1  0  0  0  0  0  0
  1  3  1  0  0  0  0
  3 10  1  0  0  0  0
  5  2  1  6  0  0  0
  5  1  1  0  0  0  0
  5  6  1  0  0  0  0
  6 11  1  0  0  0  0
  6 10  1  6  0  0  0
  7 12  2  0  0  0  0
  7  5  1  0  0  0  0
  8  7  1  0  0  0  0
  9 14  2  0  0  0  0
  9 11  1  0  0  0  0
 11  4  2  0  0  0  0
 12  9  1  0  0  0  0
 13  4  1  0  0  0  0
 14 13  1  0  0  0  0
 15 19  1  0  0  0  0
 16 19  1  0  0  0  0
 16 14  1  0  0  0  0
 17 18  1  0  0  0  0
 18 20  1  0  0  0  0
 18 15  2  0  0  0  0
 20 16  2  0  0  0  0
 21  8  1  0  0  0  0
 22 21  1  0  0  0  0
 23 24  2  0  0  0  0
 24 25  1  0  0  0  0
 24 22  1  0  0  0  0
M  END
>  <MODEL>
1

>  <REMARK>
 VINA RESULT:      -9.0      0.000      0.000
  Name = 
  4 active torsions:
  status: ('A' for Active; 'I' for Inactive)
    1  A    between atoms: C_3  and  C_23
    2  A    between atoms: N_8  and  N_13
    3  A    between atoms: N_8  and  C_16
    4  A    between atoms: C_16  and  C_19
                            x       y       z     vdW  Elec       q    Type
                         _______ _______ _______ _____ _____    ______ ____

>  <TORSDO>
F 4

$$$$
=
 OpenBabel10232409463D

 25 28  0  0  1  0  0  0  0  0999 V2000
  186.3840  177.0280  137.0580 C   0  0  0  0  0  2  0  0  0  0  0  0
  187.9190  178.9840  137.0310 C   0  0  0  0  0  1  0  0  0  0  0  0
  187.1590  175.8980  136.3720 C   0  0  0  0  0  2  0  0  0  0  0  0
  190.4570  176.0840  139.4650 N   0  0  0  0  0  0  0  0  0  0  0  0
  187.4360  177.7960  137.8480 C   0  0  2  0  0  0  0  0  0  0  0  0
  188.5370  176.7930  137.9740 C   0  0  2  0  0  3  0  0  0  0  0  0
  186.9450  178.2840  139.2150 C   0  0  0  0  0  0  0  0  0  0  0  0
  185.6750  178.9330  139.3050 N   0  0  0  0  0  2  0  0  0  0  0  0
  188.9930  177.5700  140.2170 C   0  0  0  0  0  0  0  0  0  0  0  0
  188.3770  175.7320  137.2090 C   0  0  0  0  0  2  0  0  0  0  0  0
  189.4010  176.8520  139.1430 C   0  0  0  0  0  0  0  0  0  0  0  0
  187.7140  178.2140  140.2780 N   0  0  0  0  0  0  0  0  0  0  0  0
  190.7470  176.3290  140.7410 N   0  0  0  0  0  2  0  0  0  0  0  0
  189.8540  177.2230  141.2300 C   0  0  0  0  0  0  0  0  0  0  0  0
  190.2860  178.6800  144.5150 N   0  0  0  0  0  0  0  0  0  0  0  0
  189.7950  177.6570  142.6310 C   0  0  0  0  0  0  0  0  0  0  0  0
  188.4450  177.7450  145.9110 C   0  0  0  0  0  1  0  0  0  0  0  0
  189.2010  177.8890  144.6390 C   0  0  0  0  0  0  0  0  0  0  0  0
  190.6690  178.5350  143.2320 C   0  0  0  0  0  2  0  0  0  0  0  0
  188.8630  177.2430  143.5080 N   0  0  0  0  0  0  0  0  0  0  0  0
  185.2020  179.4400  140.5220 N   0  0  0  0  0  2  0  0  0  0  0  0
  184.2930  178.4470  141.0630 C   0  0  0  0  0  2  0  0  0  0  0  0
  185.5670  177.9660  143.0160 O   0  0  0  0  0  0  0  0  0  0  0  0
  184.4700  178.3550  142.5360 C   0  0  0  0  0  0  0  0  0  0  0  0
  183.3880  178.6690  143.4040 N   0  0  0  0  0  1  0  0  0  0  0  0
  1  5  1  0  0  0  0
  3  1  1  0  0  0  0
  3 10  1  0  0  0  0
  4 13  1  0  0  0  0
  5  2  1  6  0  0  0
  5  6  1  0  0  0  0
  5  7  1  0  0  0  0
  6 10  1  1  0  0  0
  6 11  1  0  0  0  0
  7  8  1  0  0  0  0
  7 12  2  0  0  0  0
  8 21  1  0  0  0  0
  9 12  1  0  0  0  0
  9 14  2  0  0  0  0
 11  4  2  0  0  0  0
 11  9  1  0  0  0  0
 13 14  1  0  0  0  0
 14 16  1  0  0  0  0
 15 18  2  0  0  0  0
 16 19  1  0  0  0  0
 16 20  2  0  0  0  0
 18 17  1  0  0  0  0
 19 15  1  0  0  0  0
 20 18  1  0  0  0  0
 21 22  1  0  0  0  0
 22 24  1  0  0  0  0
 24 23  2  0  0  0  0
 24 25  1  0  0  0  0
M  END
>  <MODEL>
2

>  <REMARK>
 VINA RESULT:      -7.7      2.373      6.808
  Name = 
  4 active torsions:
  status: ('A' for Active; 'I' for Inactive)
    1  A    between atoms: C_3  and  C_23
    2  A    between atoms: N_8  and  N_13
    3  A    between atoms: N_8  and  C_16
    4  A    between atoms: C_16  and  C_19
                            x       y       z     vdW  Elec       q    Type
                         _______ _______ _______ _____ _____    ______ ____

>  <TORSDO>
F 4

$$$$
=
 OpenBabel10232409463D

 25 28  0  0  1  0  0  0  0  0999 V2000
  183.4430  178.4130  144.5650 C   0  0  0  0  0  2  0  0  0  0  0  0
  184.9100  180.4210  144.5330 C   0  0  0  0  0  1  0  0  0  0  0  0
  182.3130  178.7250  143.5800 C   0  0  0  0  0  2  0  0  0  0  0  0
  185.2320  179.1990  140.1550 N   0  0  0  0  0  0  0  0  0  0  0  0
  184.6850  179.0380  143.9420 C   0  0  2  0  0  0  0  0  0  0  0  0
  184.2920  179.1650  142.5050 C   0  0  2  0  0  3  0  0  0  0  0  0
  185.9530  178.1960  144.1180 C   0  0  0  0  0  0  0  0  0  0  0  0
  186.2530  177.6570  145.4070 N   0  0  0  0  0  2  0  0  0  0  0  0
  186.5420  178.5870  141.8370 C   0  0  0  0  0  0  0  0  0  0  0  0
  183.0100  178.9530  142.2860 C   0  0  0  0  0  2  0  0  0  0  0  0
  185.3330  179.0920  141.4920 C   0  0  1  0  0  3  0  0  0  0  0  0
  186.8160  178.0550  143.1390 N   0  0  0  0  0  0  0  0  0  0  0  0
  186.3890  178.7880  139.6390 N   0  0  0  0  0  0  0  0  0  0  0  0
  187.2020  178.3930  140.6470 C   0  0  0  0  0  0  0  0  0  0  0  0
  190.5460  177.0260  140.8760 N   0  0  0  0  0  0  0  0  0  0  0  0
  188.5240  177.7830  140.4570 C   0  0  0  0  0  0  0  0  0  0  0  0
  191.0970  176.2120  138.5850 C   0  0  0  0  0  1  0  0  0  0  0  0
  190.1990  176.8480  139.5860 C   0  0  0  0  0  0  0  0  0  0  0  0
  189.4780  177.6230  141.4380 C   0  0  0  0  0  2  0  0  0  0  0  0
  188.9670  177.2970  139.2840 N   0  0  0  0  0  0  0  0  0  0  0  0
  187.4240  176.9210  145.6320 N   0  0  0  0  0  2  0  0  0  0  0  0
  188.2760  177.7410  146.4730 C   0  0  0  0  0  2  0  0  0  0  0  0
  190.0080  178.2440  144.9170 O   0  0  0  0  0  0  0  0  0  0  0  0
  189.6790  177.6670  145.9870 C   0  0  0  0  0  0  0  0  0  0  0  0
  190.6430  176.9080  146.7070 N   0  0  0  0  0  1  0  0  0  0  0  0
  3  1  1  0  0  0  0
  5  7  1  0  0  0  0
  5  2  1  1  0  0  0
  5  1  1  0  0  0  0
  6 10  1  6  0  0  0
  6  5  1  0  0  0  0
  7  8  1  0  0  0  0
  8 21  1  0  0  0  0
  9 12  1  0  0  0  0
 10  3  1  0  0  0  0
 11  4  1  6  0  0  0
 11  9  1  0  0  0  0
 11  6  1  0  0  0  0
 12  7  2  0  0  0  0
 13  4  2  0  0  0  0
 13 14  1  0  0  0  0
 14  9  2  0  0  0  0
 15 19  1  0  0  0  0
 16 14  1  0  0  0  0
 16 19  1  0  0  0  0
 17 18  1  0  0  0  0
 18 15  2  0  0  0  0
 20 18  1  0  0  0  0
 20 16  2  0  0  0  0
 21 22  1  0  0  0  0
 23 24  2  0  0  0  0
 24 22  1  0  0  0  0
 24 25  1  0  0  0  0
M  END
>  <MODEL>
3

>  <REMARK>
 VINA RESULT:      -7.6      2.170      6.778
  Name = 
  4 active torsions:
  status: ('A' for Active; 'I' for Inactive)
    1  A    between atoms: C_3  and  C_23
    2  A    between atoms: N_8  and  N_13
    3  A    between atoms: N_8  and  C_16
    4  A    between atoms: C_16  and  C_19
                            x       y       z     vdW  Elec       q    Type
                         _______ _______ _______ _____ _____    ______ ____

>  <TORSDO>
F 4

$$$$
=
 OpenBabel10232409463D

 25 28  0  0  1  0  0  0  0  0999 V2000
  183.1880  178.4980  144.4910 C   0  0  0  0  0  2  0  0  0  0  0  0
  184.5530  180.5770  144.4720 C   0  0  0  0  0  1  0  0  0  0  0  0
  182.1660  178.6770  143.3640 C   0  0  0  0  0  2  0  0  0  0  0  0
  185.4370  179.0730  140.2610 N   0  0  0  0  0  0  0  0  0  0  0  0
  184.4630  179.1460  143.9650 C   0  0  2  0  0  0  0  0  0  0  0  0
  184.2330  179.1510  142.4880 C   0  0  2  0  0  3  0  0  0  0  0  0
  185.7410  178.3900  144.3450 C   0  0  0  0  0  0  0  0  0  0  0  0
  185.9150  177.9590  145.6960 N   0  0  0  0  0  2  0  0  0  0  0  0
  186.5710  178.6540  142.1210 C   0  0  0  0  0  0  0  0  0  0  0  0
  182.9970  178.8540  142.1430 C   0  0  0  0  0  2  0  0  0  0  0  0
  185.3870  179.0650  141.6050 C   0  0  1  0  0  3  0  0  0  0  0  0
  186.7180  178.2300  143.4820 N   0  0  0  0  0  0  0  0  0  0  0  0
  186.6630  178.6930  139.9110 N   0  0  0  0  0  0  0  0  0  0  0  0
  187.3730  178.4140  141.0310 C   0  0  0  0  0  0  0  0  0  0  0  0
  190.5970  176.9140  140.3590 N   0  0  0  0  0  0  0  0  0  0  0  0
  188.7340  177.8670  141.0360 C   0  0  0  0  0  0  0  0  0  0  0  0
  191.8620  177.0530  142.5020 C   0  0  0  0  0  1  0  0  0  0  0  0
  190.6610  177.2790  141.6540 C   0  0  0  0  0  0  0  0  0  0  0  0
  189.3670  177.2870  139.9590 C   0  0  0  0  0  3  0  0  0  0  0  0
  189.5420  177.8680  142.1130 N   0  0  0  0  0  2  0  0  0  0  0  0
  187.0860  177.3080  146.1050 N   0  0  0  0  0  2  0  0  0  0  0  0
  187.3840  177.7860  147.4430 C   0  0  0  0  0  2  0  0  0  0  0  0
  189.3700  178.4130  148.5960 O   0  0  0  0  0  0  0  0  0  0  0  0
  188.8500  177.7220  147.6810 C   0  0  0  0  0  0  0  0  0  0  0  0
  189.6720  176.9130  146.8500 N   0  0  0  0  0  1  0  0  0  0  0  0
  3  1  1  0  0  0  0
  5  7  1  0  0  0  0
  5  2  1  1  0  0  0
  5  1  1  0  0  0  0
  6 10  1  1  0  0  0
  6  5  1  0  0  0  0
  7  8  1  0  0  0  0
  8 21  1  0  0  0  0
  9 12  1  0  0  0  0
 10  3  1  0  0  0  0
 11  4  1  6  0  0  0
 11  9  1  0  0  0  0
 11  6  1  0  0  0  0
 12  7  2  0  0  0  0
 13  4  2  0  0  0  0
 13 14  1  0  0  0  0
 14 16  1  0  0  0  0
 14  9  2  0  0  0  0
 15 18  2  0  0  0  0
 16 20  1  0  0  0  0
 18 20  1  0  0  0  0
 18 17  1  0  0  0  0
 19 15  1  0  0  0  0
 19 16  2  0  0  0  0
 21 22  1  0  0  0  0
 22 24  1  0  0  0  0
 24 23  2  0  0  0  0
 25 24  1  0  0  0  0
M  END
>  <MODEL>
4

>  <REMARK>
 VINA RESULT:      -7.5      2.756      7.093
  Name = 
  4 active torsions:
  status: ('A' for Active; 'I' for Inactive)
    1  A    between atoms: C_3  and  C_23
    2  A    between atoms: N_8  and  N_13
    3  A    between atoms: N_8  and  C_16
    4  A    between atoms: C_16  and  C_19
                            x       y       z     vdW  Elec       q    Type
                         _______ _______ _______ _____ _____    ______ ____

>  <TORSDO>
F 4

$$$$
=
 OpenBabel10232409463D

 25 28  0  0  1  0  0  0  0  0999 V2000
  190.5510  176.6180  144.3650 C   0  0  0  0  0  2  0  0  0  0  0  0
  190.4800  179.0560  143.8800 C   0  0  0  0  0  1  0  0  0  0  0  0
  190.2120  176.4930  145.8530 C   0  0  0  0  0  2  0  0  0  0  0  0
  186.1760  178.4490  145.2500 N   0  0  0  0  0  0  0  0  0  0  0  0
  189.6800  177.7630  143.8630 C   0  0  2  0  0  0  0  0  0  0  0  0
  188.6050  177.8250  144.9000 C   0  0  2  0  0  3  0  0  0  0  0  0
  189.1100  177.5350  142.4590 C   0  0  0  0  0  0  0  0  0  0  0  0
  189.9810  177.0740  141.4240 N   0  0  0  0  0  2  0  0  0  0  0  0
  186.9760  178.3240  143.1850 C   0  0  0  0  0  0  0  0  0  0  0  0
  188.8610  177.1030  145.9720 C   0  0  0  0  0  2  0  0  0  0  0  0
  187.2840  178.2880  144.5050 C   0  0  1  0  0  3  0  0  0  0  0  0
  187.8710  177.8580  142.1680 N   0  0  0  0  0  0  0  0  0  0  0  0
  185.1570  178.6170  144.4100 N   0  0  0  0  0  0  0  0  0  0  0  0
  185.6180  178.5290  143.1390 C   0  0  0  0  0  0  0  0  0  0  0  0
  183.2180  178.0280  140.4760 N   0  0  0  0  0  0  0  0  0  0  0  0
  184.7670  178.5620  141.9440 C   0  0  0  0  0  0  0  0  0  0  0  0
  183.6280  179.8710  138.8480 C   0  0  0  0  0  1  0  0  0  0  0  0
  183.9050  179.1270  140.1050 C   0  0  0  0  0  0  0  0  0  0  0  0
  183.7650  177.6630  141.6510 C   0  0  0  0  0  2  0  0  0  0  0  0
  184.8650  179.4910  140.9760 N   0  0  0  0  0  0  0  0  0  0  0  0
  189.5210  176.8960  140.1130 N   0  0  0  0  0  2  0  0  0  0  0  0
  189.9730  178.0470  139.3520 C   0  0  0  0  0  2  0  0  0  0  0  0
  189.0710  179.2730  137.5210 O   0  0  0  0  0  0  0  0  0  0  0  0
  188.8430  178.5980  138.5590 C   0  0  0  0  0  0  0  0  0  0  0  0
  187.5040  178.3980  138.9950 N   0  0  0  0  0  1  0  0  0  0  0  0
  1  3  1  0  0  0  0
  3 10  1  0  0  0  0
  5  2  1  1  0  0  0
  5  1  1  0  0  0  0
  5  6  1  0  0  0  0
  6 10  1  6  0  0  0
  7  5  1  0  0  0  0
  8  7  1  0  0  0  0
 11  9  1  6  0  0  0
 11  6  1  0  0  0  0
 11  4  1  0  0  0  0
 12  7  2  0  0  0  0
 12  9  1  0  0  0  0
 13  4  2  0  0  0  0
 14  9  2  0  0  0  0
 14 13  1  0  0  0  0
 15 19  1  0  0  0  0
 16 14  1  0  0  0  0
 17 18  1  0  0  0  0
 18 15  2  0  0  0  0
 18 20  1  0  0  0  0
 19 16  1  0  0  0  0
 20 16  2  0  0  0  0
 21  8  1  0  0  0  0
 22 21  1  0  0  0  0
 23 24  2  0  0  0  0
 24 25  1  0  0  0  0
 24 22  1  0  0  0  0
M  END
>  <MODEL>
5

>  <REMARK>
 VINA RESULT:      -7.4      1.660      2.335
  Name = 
  4 active torsions:
  status: ('A' for Active; 'I' for Inactive)
    1  A    between atoms: C_3  and  C_23
    2  A    between atoms: N_8  and  N_13
    3  A    between atoms: N_8  and  C_16
    4  A    between atoms: C_16  and  C_19
                            x       y       z     vdW  Elec       q    Type
                         _______ _______ _______ _____ _____    ______ ____

>  <TORSDO>
F 4

$$$$
=
 OpenBabel10232409463D

 25 28  0  0  1  0  0  0  0  0999 V2000
  187.5990  177.1550  136.7690 C   0  0  0  0  0  2  0  0  0  0  0  0
  188.9150  179.1710  137.3900 C   0  0  0  0  0  1  0  0  0  0  0  0
  188.6330  176.1280  136.3000 C   0  0  0  0  0  2  0  0  0  0  0  0
  190.7220  176.1780  140.3140 N   0  0  0  0  0  0  0  0  0  0  0  0
  188.2780  177.8950  137.9150 C   0  0  2  0  0  0  0  0  0  0  0  0
  189.3470  176.9330  138.3260 C   0  0  2  0  0  3  0  0  0  0  0  0
  187.3350  178.2350  139.0740 C   0  0  0  0  0  0  0  0  0  0  0  0
  186.0630  178.8160  138.7840 N   0  0  0  0  0  2  0  0  0  0  0  0
  188.9900  177.5250  140.6430 C   0  0  0  0  0  0  0  0  0  0  0  0
  189.5210  175.9410  137.4780 C   0  0  0  0  0  2  0  0  0  0  0  0
  189.7760  176.9250  139.7160 C   0  0  0  0  0  0  0  0  0  0  0  0
  187.7190  178.1030  140.3230 N   0  0  0  0  0  0  0  0  0  0  0  0
  190.5620  176.3190  141.6280 N   0  0  0  0  0  2  0  0  0  0  0  0
  189.4980  177.1260  141.8560 C   0  0  0  0  0  0  0  0  0  0  0  0
  188.8290  178.0700  145.2860 N   0  0  0  0  0  0  0  0  0  0  0  0
  188.9550  177.4280  143.1860 C   0  0  0  0  0  0  0  0  0  0  0  0
  186.3990  177.6430  145.6390 C   0  0  0  0  0  1  0  0  0  0  0  0
  187.6370  177.6550  144.8150 C   0  0  0  0  0  0  0  0  0  0  0  0
  189.6760  177.9270  144.2480 C   0  0  0  0  0  2  0  0  0  0  0  0
  187.6660  177.2520  143.5310 N   0  0  0  0  0  0  0  0  0  0  0  0
  185.1840  179.1900  139.8090 N   0  0  0  0  0  2  0  0  0  0  0  0
  184.0270  178.3190  139.7060 C   0  0  0  0  0  2  0  0  0  0  0  0
  182.1670  178.1000  141.1760 O   0  0  0  0  0  0  0  0  0  0  0  0
  183.4190  178.1340  141.0500 C   0  0  0  0  0  0  0  0  0  0  0  0
  184.2500  178.0370  142.2000 N   0  0  0  0  0  1  0  0  0  0  0  0
  1  5  1  0  0  0  0
  3  1  1  0  0  0  0
  3 10  1  0  0  0  0
  4 13  1  0  0  0  0
  5  2  1  6  0  0  0
  5  6  1  0  0  0  0
  5  7  1  0  0  0  0
  6 10  1  1  0  0  0
  6 11  1  0  0  0  0
  7 12  2  0  0  0  0
  8  7  1  0  0  0  0
  8 21  1  0  0  0  0
  9 14  2  0  0  0  0
 11  4  2  0  0  0  0
 11  9  1  0  0  0  0
 12  9  1  0  0  0  0
 13 14  1  0  0  0  0
 14 16  1  0  0  0  0
 16 20  2  0  0  0  0
 16 19  1  0  0  0  0
 18 15  2  0  0  0  0
 18 17  1  0  0  0  0
 19 15  1  0  0  0  0
 20 18  1  0  0  0  0
 22 21  1  0  0  0  0
 22 24  1  0  0  0  0
 24 23  2  0  0  0  0
 24 25  1  0  0  0  0
M  END
>  <MODEL>
6

>  <REMARK>
 VINA RESULT:      -7.3      2.404      6.330
  Name = 
  4 active torsions:
  status: ('A' for Active; 'I' for Inactive)
    1  A    between atoms: C_3  and  C_23
    2  A    between atoms: N_8  and  N_13
    3  A    between atoms: N_8  and  C_16
    4  A    between atoms: C_16  and  C_19
                            x       y       z     vdW  Elec       q    Type
                         _______ _______ _______ _____ _____    ______ ____

>  <TORSDO>
F 4

$$$$
=
 OpenBabel10232409463D

 25 28  0  0  1  0  0  0  0  0999 V2000
  191.0810  177.6940  144.6390 C   0  0  0  0  0  2  0  0  0  0  0  0
  190.1560  175.5950  143.6800 C   0  0  0  0  0  1  0  0  0  0  0  0
  191.9650  178.2850  143.5370 C   0  0  0  0  0  2  0  0  0  0  0  0
  188.4640  178.5850  140.6860 N   0  0  0  0  0  0  0  0  0  0  0  0
  189.9000  177.0770  143.9000 C   0  0  2  0  0  0  0  0  0  0  0  0
  189.9350  177.7930  142.5880 C   0  0  2  0  0  3  0  0  0  0  0  0
  188.5590  177.2610  144.6190 C   0  0  0  0  0  0  0  0  0  0  0  0
  188.4790  176.9830  146.0180 N   0  0  0  0  0  2  0  0  0  0  0  0
  187.5180  177.8450  142.5500 C   0  0  0  0  0  0  0  0  0  0  0  0
  191.0350  178.4910  142.3950 C   0  0  0  0  0  2  0  0  0  0  0  0
  188.6830  177.9970  141.8750 C   0  0  1  0  0  3  0  0  0  0  0  0
  187.4670  177.5620  143.9540 N   0  0  0  0  0  0  0  0  0  0  0  0
  187.1520  178.7860  140.5820 N   0  0  0  0  0  0  0  0  0  0  0  0
  186.5520  178.3570  141.7180 C   0  0  0  0  0  0  0  0  0  0  0  0
  182.9440  178.6560  141.7330 N   0  0  0  0  0  0  0  0  0  0  0  0
  185.1220  178.5100  142.0110 C   0  0  0  0  0  0  0  0  0  0  0  0
  182.3080  178.9910  144.1200 C   0  0  0  0  0  1  0  0  0  0  0  0
  183.2960  178.7810  143.0280 C   0  0  0  0  0  0  0  0  0  0  0  0
  184.1080  178.4830  141.0780 C   0  0  0  0  0  2  0  0  0  0  0  0
  184.6220  178.6980  143.2460 N   0  0  0  0  0  0  0  0  0  0  0  0
  187.2660  177.0880  146.7120 N   0  0  0  0  0  2  0  0  0  0  0  0
  187.3400  178.3070  147.4970 C   0  0  0  0  0  2  0  0  0  0  0  0
  185.9790  180.2320  147.8330 O   0  0  0  0  0  0  0  0  0  0  0  0
  186.0730  179.0710  147.3540 C   0  0  0  0  0  0  0  0  0  0  0  0
  184.9510  178.4760  146.7130 N   0  0  0  0  0  1  0  0  0  0  0  0
  3  1  1  0  0  0  0
  5  2  1  6  0  0  0
  5  7  1  0  0  0  0
  5  1  1  0  0  0  0
  6 10  1  1  0  0  0
  6  5  1  0  0  0  0
  7  8  1  0  0  0  0
  8 21  1  0  0  0  0
  9 12  1  0  0  0  0
 10  3  1  0  0  0  0
 11  4  1  1  0  0  0
 11  9  1  0  0  0  0
 11  6  1  0  0  0  0
 12  7  2  0  0  0  0
 13  4  2  0  0  0  0
 13 14  1  0  0  0  0
 14 16  1  0  0  0  0
 14  9  2  0  0  0  0
 15 18  2  0  0  0  0
 16 20  2  0  0  0  0
 18 20  1  0  0  0  0
 18 17  1  0  0  0  0
 19 15  1  0  0  0  0
 19 16  1  0  0  0  0
 21 22  1  0  0  0  0
 24 22  1  0  0  0  0
 24 23  2  0  0  0  0
 25 24  1  0  0  0  0
M  END
>  <MODEL>
7

>  <REMARK>
 VINA RESULT:      -7.3      2.613      4.779
  Name = 
  4 active torsions:
  status: ('A' for Active; 'I' for Inactive)
    1  A    between atoms: C_3  and  C_23
    2  A    between atoms: N_8  and  N_13
    3  A    between atoms: N_8  and  C_16
    4  A    between atoms: C_16  and  C_19
                            x       y       z     vdW  Elec       q    Type
                         _______ _______ _______ _____ _____    ______ ____

>  <TORSDO>
F 4

$$$$
=
 OpenBabel10232409463D

 25 28  0  0  1  0  0  0  0  0999 V2000
  189.8210  176.5190  146.2080 C   0  0  0  0  0  2  0  0  0  0  0  0
  189.8940  178.9090  145.5270 C   0  0  0  0  0  1  0  0  0  0  0  0
  189.5370  176.5370  147.7120 C   0  0  0  0  0  2  0  0  0  0  0  0
  185.6190  178.7170  147.0960 N   0  0  0  0  0  0  0  0  0  0  0  0
  189.0080  177.6790  145.6450 C   0  0  2  0  0  0  0  0  0  0  0  0
  187.9840  177.8980  146.7110 C   0  0  2  0  0  3  0  0  0  0  0  0
  188.3670  177.3800  144.2860 C   0  0  0  0  0  0  0  0  0  0  0  0
  189.1610  176.7780  143.2620 N   0  0  0  0  0  2  0  0  0  0  0  0
  186.3220  178.3720  145.0210 C   0  0  0  0  0  0  0  0  0  0  0  0
  188.2350  177.2480  147.8290 C   0  0  0  0  0  2  0  0  0  0  0  0
  186.6820  178.4200  146.3270 C   0  0  1  0  0  3  0  0  0  0  0  0
  187.1410  177.7650  144.0130 N   0  0  0  0  0  0  0  0  0  0  0  0
  184.5800  178.8890  146.2820 N   0  0  0  0  0  0  0  0  0  0  0  0
  184.9800  178.6670  145.0070 C   0  0  0  0  0  0  0  0  0  0  0  0
  183.3680  178.5160  141.7700 N   0  0  0  0  0  0  0  0  0  0  0  0
  184.0850  178.6650  143.8440 C   0  0  0  0  0  0  0  0  0  0  0  0
  180.9530  178.9610  142.2010 C   0  0  0  0  0  1  0  0  0  0  0  0
  182.3670  178.7880  142.6300 C   0  0  0  0  0  0  0  0  0  0  0  0
  184.4690  178.4360  142.5410 C   0  0  0  0  0  2  0  0  0  0  0  0
  182.7600  178.8870  143.9130 N   0  0  0  0  0  0  0  0  0  0  0  0
  188.6360  176.5290  141.9870 N   0  0  0  0  0  2  0  0  0  0  0  0
  188.9710  177.6790  141.1660 C   0  0  0  0  0  2  0  0  0  0  0  0
  191.1370  177.2590  140.2710 O   0  0  0  0  0  0  0  0  0  0  0  0
  189.8930  177.2640  140.0770 C   0  0  0  0  0  0  0  0  0  0  0  0
  189.3740  176.9110  138.8000 N   0  0  0  0  0  1  0  0  0  0  0  0
  1  3  1  0  0  0  0
  3 10  1  0  0  0  0
  5  2  1  6  0  0  0
  5  1  1  0  0  0  0
  5  6  1  0  0  0  0
  6 10  1  6  0  0  0
  7  5  1  0  0  0  0
  8  7  1  0  0  0  0
 11  9  1  6  0  0  0
 11  6  1  0  0  0  0
 11  4  1  0  0  0  0
 12  7  2  0  0  0  0
 12  9  1  0  0  0  0
 13  4  2  0  0  0  0
 14  9  2  0  0  0  0
 14 13  1  0  0  0  0
 15 19  1  0  0  0  0
 15 18  2  0  0  0  0
 16 20  2  0  0  0  0
 16 14  1  0  0  0  0
 17 18  1  0  0  0  0
 18 20  1  0  0  0  0
 19 16  1  0  0  0  0
 21  8  1  0  0  0  0
 22 21  1  0  0  0  0
 24 23  2  0  0  0  0
 24 22  1  0  0  0  0
 25 24  1  0  0  0  0
M  END
>  <MODEL>
8

>  <REMARK>
 VINA RESULT:      -7.3      1.622      2.239
  Name = 
  4 active torsions:
  status: ('A' for Active; 'I' for Inactive)
    1  A    between atoms: C_3  and  C_23
    2  A    between atoms: N_8  and  N_13
    3  A    between atoms: N_8  and  C_16
    4  A    between atoms: C_16  and  C_19
                            x       y       z     vdW  Elec       q    Type
                         _______ _______ _______ _____ _____    ______ ____

>  <TORSDO>
F 4

$$$$
=
 OpenBabel10232409463D

 25 28  0  0  1  0  0  0  0  0999 V2000
  189.5650  178.1440  144.3060 C   0  0  0  0  0  2  0  0  0  0  0  0
  189.0090  175.8350  143.5690 C   0  0  0  0  0  1  0  0  0  0  0  0
  191.0950  178.2130  144.2950 C   0  0  0  0  0  2  0  0  0  0  0  0
  191.2510  177.2730  139.8710 N   0  0  0  0  0  0  0  0  0  0  0  0
  189.2060  177.2710  143.1100 C   0  0  2  0  0  0  0  0  0  0  0  0
  190.4380  177.3630  142.2670 C   0  0  2  0  0  3  0  0  0  0  0  0
  187.9580  177.7410  142.3550 C   0  0  0  0  0  0  0  0  0  0  0  0
  186.7870  178.0820  143.0990 N   0  0  0  0  0  2  0  0  0  0  0  0
  189.0730  177.3920  140.2720 C   0  0  0  0  0  0  0  0  0  0  0  0
  191.4620  177.9140  142.8840 C   0  0  0  0  0  2  0  0  0  0  0  0
  190.3020  177.2440  140.8230 C   0  0  1  0  0  3  0  0  0  0  0  0
  187.9130  177.7310  141.0430 N   0  0  0  0  0  0  0  0  0  0  0  0
  190.6300  177.4100  138.7010 N   0  0  0  0  0  0  0  0  0  0  0  0
  189.2970  177.5020  138.9200 C   0  0  0  0  0  0  0  0  0  0  0  0
  187.2650  178.6930  136.1720 N   0  0  0  0  0  0  0  0  0  0  0  0
  188.2990  177.7630  137.8760 C   0  0  0  0  0  0  0  0  0  0  0  0
  185.3150  177.1450  136.0580 C   0  0  0  0  0  1  0  0  0  0  0  0
  186.5970  177.6210  136.6420 C   0  0  0  0  0  0  0  0  0  0  0  0
  188.3540  178.7890  136.9580 C   0  0  0  0  0  2  0  0  0  0  0  0
  187.1950  177.0190  137.6860 N   0  0  0  0  0  0  0  0  0  0  0  0
  185.6050  178.4700  142.4550 N   0  0  0  0  0  2  0  0  0  0  0  0
  185.0350  179.5480  143.2430 C   0  0  0  0  0  2  0  0  0  0  0  0
  182.7830  178.7810  143.1310 O   0  0  0  0  0  0  0  0  0  0  0  0
  183.7600  179.0960  143.8600 C   0  0  0  0  0  0  0  0  0  0  0  0
  183.6290  179.0580  145.2760 N   0  0  0  0  0  1  0  0  0  0  0  0
  3  1  1  0  0  0  0
  5  2  1  1  0  0  0
  5  1  1  0  0  0  0
  6 10  1  6  0  0  0
  6  5  1  0  0  0  0
  7  8  1  0  0  0  0
  7  5  1  0  0  0  0
  9 11  1  0  0  0  0
  9 12  1  0  0  0  0
 10  3  1  0  0  0  0
 11  4  1  6  0  0  0
 11  6  1  0  0  0  0
 12  7  2  0  0  0  0
 13 14  1  0  0  0  0
 13  4  2  0  0  0  0
 14  9  2  0  0  0  0
 15 18  2  0  0  0  0
 15 19  1  0  0  0  0
 16 14  1  0  0  0  0
 17 18  1  0  0  0  0
 18 20  1  0  0  0  0
 19 16  1  0  0  0  0
 20 16  2  0  0  0  0
 21  8  1  0  0  0  0
 21 22  1  0  0  0  0
 22 24  1  0  0  0  0
 23 24  2  0  0  0  0
 24 25  1  0  0  0  0
M  END
>  <MODEL>
9

>  <REMARK>
 VINA RESULT:      -7.1      2.634      6.061
  Name = 
  4 active torsions:
  status: ('A' for Active; 'I' for Inactive)
    1  A    between atoms: C_3  and  C_23
    2  A    between atoms: N_8  and  N_13
    3  A    between atoms: N_8  and  C_16
    4  A    between atoms: C_16  and  C_19
                            x       y       z     vdW  Elec       q    Type
                         _______ _______ _______ _____ _____    ______ ____

>  <TORSDO>
F 4

$$$$
