=
 OpenBabel10232411013D

 42 43  0  0  1  0  0  0  0  0999 V2000
  188.1770  177.7620  147.4760 C   0  0  0  0  0  0  0  0  0  0  0  0
  186.9760  177.8790  146.7700 C   0  0  0  0  0  3  0  0  0  0  0  0
  189.4100  177.7780  145.3850 C   0  0  0  0  0  0  0  0  0  0  0  0
  189.3920  177.7120  146.7870 C   0  0  0  0  0  3  0  0  0  0  0  0
  186.9890  177.9400  145.3720 C   0  0  0  0  0  0  0  0  0  0  0  0
  188.2060  177.8950  144.6830 C   0  0  0  0  0  3  0  0  0  0  0  0
  188.1630  177.6970  148.8630 O   0  0  0  0  0  1  0  0  0  0  0  0
  190.9580  179.0970  143.9720 C   0  0  0  0  0  1  0  0  0  0  0  0
  190.7000  177.7430  144.6220 C   0  0  2  0  0  3  0  0  0  0  0  0
  190.7230  176.6100  143.5840 C   0  0  1  0  0  3  0  0  0  0  0  0
  189.5080  177.3830  141.5100 N   0  0  0  0  0  2  0  0  0  0  0  0
  190.7410  177.1560  142.1890 C   0  0  0  0  0  0  0  0  0  0  0  0
  191.8370  177.4230  141.6250 O   0  0  0  0  0  0  0  0  0  0  0  0
  189.4860  177.8910  140.2070 N   0  0  0  0  0  0  0  0  0  0  0  0
  188.5620  177.5210  139.3850 C   0  0  0  0  0  3  0  0  0  0  0  0
  188.5350  178.1660  137.7210 P   0  0  1  0  0  0  0  0  0  0  0  0
  186.9680  178.0360  137.0970 O   0  0  0  0  0  0  0  0  0  0  0  0
  188.9510  179.6190  137.7340 O   0  0  0  0  0  1  0  0  0  0  0  0
  189.6580  177.2210  136.7030 C   0  0  0  0  0  0  0  0  0  0  0  0
  189.6330  177.3560  135.4500 O   0  0  0  0  0  0  0  0  0  0  0  0
  190.5970  176.3390  137.3210 N   0  0  0  0  0  2  0  0  0  0  0  0
  191.5800  175.5810  136.5610 C   0  0  0  0  0  2  0  0  0  0  0  0
  192.4770  174.7980  137.5040 C   0  0  0  0  0  2  0  0  0  0  0  0
  194.7950  175.3310  137.4290 O   0  0  0  0  0  0  0  0  0  0  0  0
  193.6570  175.6230  137.8770 C   0  0  0  0  0  0  0  0  0  0  0  0
  193.4970  176.7350  138.6930 O   0  0  0  0  0  1  0  0  0  0  0  0
  191.9040  175.5850  145.1550 C   0  0  0  0  0  1  0  0  0  0  0  0
  191.8420  175.7920  143.7760 O   0  0  0  0  0  0  0  0  0  0  0  0
  185.7110  178.0830  144.6240 C   0  0  0  0  0  2  0  0  0  0  0  0
  185.9910  178.2830  143.1440 C   0  0  0  0  0  2  0  0  0  0  0  0
  184.4410  178.6440  141.1730 C   0  0  0  0  0  0  0  0  0  0  0  0
  185.1780  179.5760  140.7480 O   0  0  0  0  0  0  0  0  0  0  0  0
  184.8120  177.9420  142.3640 N   0  0  0  0  0  2  0  0  0  0  0  0
  181.7150  178.9800  142.2420 O   0  0  0  0  0  1  0  0  0  0  0  0
  182.2060  177.4090  138.3790 C   0  0  0  0  0  0  0  0  0  0  0  0
  183.2070  178.2900  140.4300 C   0  0  0  0  0  0  0  0  0  0  0  0
  183.3340  177.7630  139.1340 C   0  0  0  0  0  3  0  0  0  0  0  0
  181.9110  178.4610  140.9670 C   0  0  0  0  0  0  0  0  0  0  0  0
  180.9350  177.5840  138.9280 C   0  0  0  0  0  3  0  0  0  0  0  0
  180.7880  178.1060  140.2130 C   0  0  0  0  0  3  0  0  0  0  0  0
  182.3210  176.8830  137.0910 O   0  0  0  0  0  0  0  0  0  0  0  0
  182.7010  175.5370  136.8410 C   0  0  0  0  0  1  0  0  0  0  0  0
  1  7  1  0  0  0  0
  2  1  2  0  0  0  0
  3  4  2  0  0  0  0
  4  1  1  0  0  0  0
  5  2  1  0  0  0  0
  6  5  2  0  0  0  0
  6  3  1  0  0  0  0
  9  8  1  6  0  0  0
  9  3  1  0  0  0  0
 10 12  1  6  0  0  0
 10 28  1  0  0  0  0
 10  9  1  0  0  0  0
 11 12  1  0  0  0  0
 13 12  2  0  0  0  0
 14 11  1  0  0  0  0
 15 14  2  0  0  0  0
 16 17  2  6  0  0  0
 16 18  1  0  0  0  0
 16 15  1  0  0  0  0
 19 21  1  0  0  0  0
 19 16  1  0  0  0  0
 20 19  2  0  0  0  0
 22 21  1  0  0  0  0
 22 23  1  0  0  0  0
 23 25  1  0  0  0  0
 24 25  2  0  0  0  0
 25 26  1  0  0  0  0
 28 27  1  0  0  0  0
 29  5  1  0  0  0  0
 30 29  1  0  0  0  0
 31 33  1  0  0  0  0
 32 31  2  0  0  0  0
 33 30  1  0  0  0  0
 35 39  2  0  0  0  0
 35 37  1  0  0  0  0
 36 38  1  0  0  0  0
 36 31  1  0  0  0  0
 37 36  2  0  0  0  0
 38 34  1  0  0  0  0
 39 40  1  0  0  0  0
 40 38  2  0  0  0  0
 41 35  1  0  0  0  0
 42 41  1  0  0  0  0
M  END
>  <MODEL>
1

>  <REMARK>
 VINA RESULT:      -8.4      0.000      0.000
  Name = 
  15 active torsions:
  status: ('A' for Active; 'I' for Inactive)
    1  A    between atoms: C_1  and  P_20
    2  A    between atoms: C_4  and  C_32
    3  A    between atoms: C_4  and  N_42
    4  A    between atoms: C_5  and  C_32
    5  A    between atoms: C_6  and  O_21
    6  A    between atoms: C_9  and  C_12
    7  A    between atoms: C_10  and  C_19
    8  A    between atoms: C_10  and  C_23
    9  A    between atoms: C_10  and  O_38
   10  A    between atoms: N_11  and  N_37
   11  A    between atoms: C_14  and  C_25
   12  A    between atoms: C_14  and  C_26
   13  A    between atoms: C_16  and  C_19
   14  A    between atoms: P_20  and  C_41
   15  A    between atoms: C_26  and  N_29
                            x       y       z     vdW  Elec       q    Type
                         _______ _______ _______ _____ _____    ______ ____

>  <TORSDO>
F 15

$$$$
=
 OpenBabel10232411013D

 42 43  0  0  1  0  0  0  0  0999 V2000
  187.9100  177.8280  147.4570 C   0  0  0  0  0  0  0  0  0  0  0  0
  186.7450  177.8030  146.6860 C   0  0  0  0  0  3  0  0  0  0  0  0
  189.2520  177.7530  145.4350 C   0  0  0  0  0  0  0  0  0  0  0  0
  189.1610  177.8030  146.8350 C   0  0  0  0  0  3  0  0  0  0  0  0
  186.8300  177.7480  145.2900 C   0  0  0  0  0  0  0  0  0  0  0  0
  188.0830  177.7290  144.6680 C   0  0  0  0  0  3  0  0  0  0  0  0
  187.8240  177.8790  148.8420 O   0  0  0  0  0  1  0  0  0  0  0  0
  190.7610  179.0250  143.9400 C   0  0  0  0  0  1  0  0  0  0  0  0
  190.5820  177.7430  144.7420 C   0  0  2  0  0  3  0  0  0  0  0  0
  190.7590  176.4990  143.8590 C   0  0  1  0  0  3  0  0  0  0  0  0
  189.7670  176.8230  141.5590 N   0  0  0  0  0  2  0  0  0  0  0  0
  190.9050  176.8780  142.4170 C   0  0  0  0  0  0  0  0  0  0  0  0
  192.0230  177.2510  141.9670 O   0  0  0  0  0  0  0  0  0  0  0  0
  189.8650  177.1680  140.2070 N   0  0  0  0  0  0  0  0  0  0  0  0
  188.8060  177.4890  139.5450 C   0  0  0  0  0  3  0  0  0  0  0  0
  188.9290  177.9260  137.8180 P   0  0  1  0  0  0  0  0  0  0  0  0
  188.9080  179.6100  137.6650 O   0  0  0  0  0  1  0  0  0  0  0  0
  190.2230  177.3870  137.2510 O   0  0  0  0  0  0  0  0  0  0  0  0
  187.5410  177.2320  136.9320 C   0  0  0  0  0  0  0  0  0  0  0  0
  187.0390  177.8620  135.9630 O   0  0  0  0  0  0  0  0  0  0  0  0
  187.0310  175.9540  137.3140 N   0  0  0  0  0  2  0  0  0  0  0  0
  185.9410  175.3010  136.6030 C   0  0  0  0  0  2  0  0  0  0  0  0
  185.5650  174.0060  137.3030 C   0  0  0  0  0  2  0  0  0  0  0  0
  184.5160  171.9590  136.6940 O   0  0  0  0  0  1  0  0  0  0  0  0
  184.7620  173.1530  136.3860 C   0  0  0  0  0  0  0  0  0  0  0  0
  184.2560  173.6840  135.2080 O   0  0  0  0  0  0  0  0  0  0  0  0
  191.9270  175.9130  145.6490 C   0  0  0  0  0  1  0  0  0  0  0  0
  191.8810  175.7670  144.2620 O   0  0  0  0  0  0  0  0  0  0  0  0
  185.5880  177.7410  144.4700 C   0  0  0  0  0  2  0  0  0  0  0  0
  185.5690  178.9410  143.5390 C   0  0  0  0  0  2  0  0  0  0  0  0
  183.8830  178.4870  141.7040 C   0  0  0  0  0  0  0  0  0  0  0  0
  182.9440  178.8750  142.4530 O   0  0  0  0  0  0  0  0  0  0  0  0
  185.2290  178.5190  142.1900 N   0  0  0  0  0  2  0  0  0  0  0  0
  184.7970  179.8330  139.2470 O   0  0  0  0  0  1  0  0  0  0  0  0
  182.4830  176.3460  138.9140 C   0  0  0  0  0  0  0  0  0  0  0  0
  183.5760  178.0120  140.3330 C   0  0  0  0  0  0  0  0  0  0  0  0
  182.8060  176.8470  140.1840 C   0  0  0  0  0  3  0  0  0  0  0  0
  184.0280  178.6770  139.1700 C   0  0  0  0  0  0  0  0  0  0  0  0
  182.9370  177.0180  137.7790 C   0  0  0  0  0  3  0  0  0  0  0  0
  183.7040  178.1750  137.9060 C   0  0  0  0  0  3  0  0  0  0  0  0
  181.7160  175.1890  138.7560 O   0  0  0  0  0  0  0  0  0  0  0  0
  181.5340  174.5540  137.4980 C   0  0  0  0  0  1  0  0  0  0  0  0
  1  7  1  0  0  0  0
  2  1  2  0  0  0  0
  3  4  2  0  0  0  0
  4  1  1  0  0  0  0
  5  2  1  0  0  0  0
  6  5  2  0  0  0  0
  6  3  1  0  0  0  0
  9  8  1  6  0  0  0
  9  3  1  0  0  0  0
 10 12  1  6  0  0  0
 10 28  1  0  0  0  0
 10  9  1  0  0  0  0
 11 12  1  0  0  0  0
 13 12  2  0  0  0  0
 14 11  1  0  0  0  0
 15 14  2  0  0  0  0
 16 18  2  6  0  0  0
 16 15  1  0  0  0  0
 17 16  1  0  0  0  0
 19 21  1  0  0  0  0
 19 16  1  0  0  0  0
 20 19  2  0  0  0  0
 22 23  1  0  0  0  0
 22 21  1  0  0  0  0
 25 24  1  0  0  0  0
 25 23  1  0  0  0  0
 26 25  2  0  0  0  0
 28 27  1  0  0  0  0
 29  5  1  0  0  0  0
 30 29  1  0  0  0  0
 31 33  1  0  0  0  0
 31 32  2  0  0  0  0
 33 30  1  0  0  0  0
 35 37  1  0  0  0  0
 36 31  1  0  0  0  0
 37 36  2  0  0  0  0
 38 34  1  0  0  0  0
 38 36  1  0  0  0  0
 39 40  1  0  0  0  0
 39 35  2  0  0  0  0
 40 38  2  0  0  0  0
 41 35  1  0  0  0  0
 42 41  1  0  0  0  0
M  END
>  <MODEL>
2

>  <REMARK>
 VINA RESULT:      -8.3      1.979      3.460
  Name = 
  15 active torsions:
  status: ('A' for Active; 'I' for Inactive)
    1  A    between atoms: C_1  and  P_20
    2  A    between atoms: C_4  and  C_32
    3  A    between atoms: C_4  and  N_42
    4  A    between atoms: C_5  and  C_32
    5  A    between atoms: C_6  and  O_21
    6  A    between atoms: C_9  and  C_12
    7  A    between atoms: C_10  and  C_19
    8  A    between atoms: C_10  and  C_23
    9  A    between atoms: C_10  and  O_38
   10  A    between atoms: N_11  and  N_37
   11  A    between atoms: C_14  and  C_25
   12  A    between atoms: C_14  and  C_26
   13  A    between atoms: C_16  and  C_19
   14  A    between atoms: P_20  and  C_41
   15  A    between atoms: C_26  and  N_29
                            x       y       z     vdW  Elec       q    Type
                         _______ _______ _______ _____ _____    ______ ____

>  <TORSDO>
F 15

$$$$
=
 OpenBabel10232411013D

 42 43  0  0  1  0  0  0  0  0999 V2000
  190.5350  177.1870  146.7060 C   0  0  0  0  0  0  0  0  0  0  0  0
  191.3380  177.6820  145.6750 C   0  0  0  0  0  3  0  0  0  0  0  0
  188.6000  177.2680  145.2410 C   0  0  0  0  0  0  0  0  0  0  0  0
  189.1690  176.9800  146.4920 C   0  0  0  0  0  3  0  0  0  0  0  0
  190.7740  177.9760  144.4280 C   0  0  0  0  0  0  0  0  0  0  0  0
  189.4080  177.7630  144.2120 C   0  0  0  0  0  3  0  0  0  0  0  0
  191.0950  176.9000  147.9440 O   0  0  0  0  0  1  0  0  0  0  0  0
  186.9380  176.5650  143.5470 C   0  0  0  0  0  1  0  0  0  0  0  0
  187.1420  177.0400  144.9800 C   0  0  2  0  0  3  0  0  0  0  0  0
  186.3010  178.2910  145.2800 C   0  0  1  0  0  3  0  0  0  0  0  0
  185.8940  179.2180  142.9680 N   0  0  0  0  0  2  0  0  0  0  0  0
  185.3750  178.6040  144.1460 C   0  0  0  0  0  0  0  0  0  0  0  0
  184.1490  178.3190  144.2280 O   0  0  0  0  0  0  0  0  0  0  0  0
  185.0590  179.5260  141.8880 N   0  0  0  0  0  0  0  0  0  0  0  0
  185.0020  178.7360  140.8700 C   0  0  0  0  0  3  0  0  0  0  0  0
  183.9420  179.1310  139.4890 P   0  0  1  0  0  0  0  0  0  0  0  0
  182.3380  179.2030  140.0200 O   0  0  0  0  0  1  0  0  0  0  0  0
  184.3390  180.4710  138.9120 O   0  0  0  0  0  0  0  0  0  0  0  0
  184.0980  177.8620  138.2420 C   0  0  0  0  0  0  0  0  0  0  0  0
  183.1230  177.1020  137.9960 O   0  0  0  0  0  0  0  0  0  0  0  0
  185.3200  177.7360  137.5140 N   0  0  0  0  0  2  0  0  0  0  0  0
  185.5000  176.7650  136.4450 C   0  0  0  0  0  2  0  0  0  0  0  0
  186.2890  175.5710  136.9550 C   0  0  0  0  0  2  0  0  0  0  0  0
  185.6560  173.5190  135.9290 O   0  0  0  0  0  0  0  0  0  0  0  0
  185.4580  174.3410  136.8600 C   0  0  0  0  0  0  0  0  0  0  0  0
  184.4870  174.0820  137.8180 O   0  0  0  0  0  1  0  0  0  0  0  0
  186.0810  179.0340  147.3580 C   0  0  0  0  0  1  0  0  0  0  0  0
  185.5560  178.1110  146.4510 O   0  0  0  0  0  0  0  0  0  0  0  0
  191.6340  178.4840  143.3250 C   0  0  0  0  0  2  0  0  0  0  0  0
  192.0560  177.3390  142.4200 C   0  0  0  0  0  2  0  0  0  0  0  0
  190.4880  176.9430  140.4700 C   0  0  0  0  0  0  0  0  0  0  0  0
  189.8090  176.1370  141.1630 O   0  0  0  0  0  0  0  0  0  0  0  0
  191.6190  177.5960  141.0570 N   0  0  0  0  0  2  0  0  0  0  0  0
  188.4660  178.9250  139.6550 O   0  0  0  0  0  1  0  0  0  0  0  0
  190.4110  176.6710  136.6950 C   0  0  0  0  0  0  0  0  0  0  0  0
  190.1010  177.2040  139.0620 C   0  0  0  0  0  0  0  0  0  0  0  0
  190.7330  176.4700  138.0460 C   0  0  0  0  0  3  0  0  0  0  0  0
  189.1260  178.1620  138.6990 C   0  0  0  0  0  0  0  0  0  0  0  0
  189.4450  177.6200  136.3570 C   0  0  0  0  0  3  0  0  0  0  0  0
  188.8070  178.3600  137.3520 C   0  0  0  0  0  3  0  0  0  0  0  0
  191.0330  175.9440  135.6780 O   0  0  0  0  0  0  0  0  0  0  0  0
  192.2840  175.2940  135.8520 C   0  0  0  0  0  1  0  0  0  0  0  0
  1  7  1  0  0  0  0
  2  1  2  0  0  0  0
  3  4  2  0  0  0  0
  4  1  1  0  0  0  0
  5  2  1  0  0  0  0
  6  5  2  0  0  0  0
  6  3  1  0  0  0  0
  9  8  1  6  0  0  0
  9  3  1  0  0  0  0
  9 10  1  0  0  0  0
 10 12  1  6  0  0  0
 10 28  1  0  0  0  0
 11 12  1  0  0  0  0
 12 13  2  0  0  0  0
 14 11  1  0  0  0  0
 15 14  2  0  0  0  0
 16 18  2  6  0  0  0
 16 17  1  0  0  0  0
 16 15  1  0  0  0  0
 19 16  1  0  0  0  0
 20 19  2  0  0  0  0
 21 19  1  0  0  0  0
 22 23  1  0  0  0  0
 22 21  1  0  0  0  0
 24 25  2  0  0  0  0
 25 23  1  0  0  0  0
 25 26  1  0  0  0  0
 28 27  1  0  0  0  0
 29  5  1  0  0  0  0
 30 29  1  0  0  0  0
 31 33  1  0  0  0  0
 31 32  2  0  0  0  0
 33 30  1  0  0  0  0
 35 37  1  0  0  0  0
 36 31  1  0  0  0  0
 37 36  2  0  0  0  0
 38 36  1  0  0  0  0
 38 34  1  0  0  0  0
 39 35  2  0  0  0  0
 39 40  1  0  0  0  0
 40 38  2  0  0  0  0
 41 42  1  0  0  0  0
 41 35  1  0  0  0  0
M  END
>  <MODEL>
3

>  <REMARK>
 VINA RESULT:      -8.1      2.345      6.375
  Name = 
  15 active torsions:
  status: ('A' for Active; 'I' for Inactive)
    1  A    between atoms: C_1  and  P_20
    2  A    between atoms: C_4  and  C_32
    3  A    between atoms: C_4  and  N_42
    4  A    between atoms: C_5  and  C_32
    5  A    between atoms: C_6  and  O_21
    6  A    between atoms: C_9  and  C_12
    7  A    between atoms: C_10  and  C_19
    8  A    between atoms: C_10  and  C_23
    9  A    between atoms: C_10  and  O_38
   10  A    between atoms: N_11  and  N_37
   11  A    between atoms: C_14  and  C_25
   12  A    between atoms: C_14  and  C_26
   13  A    between atoms: C_16  and  C_19
   14  A    between atoms: P_20  and  C_41
   15  A    between atoms: C_26  and  N_29
                            x       y       z     vdW  Elec       q    Type
                         _______ _______ _______ _____ _____    ______ ____

>  <TORSDO>
F 15

$$$$
=
 OpenBabel10232411013D

 42 43  0  0  1  0  0  0  0  0999 V2000
  189.0600  177.4800  146.6940 C   0  0  0  0  0  0  0  0  0  0  0  0
  187.7030  177.8120  146.7250 C   0  0  0  0  0  3  0  0  0  0  0  0
  188.8430  176.8020  144.3720 C   0  0  0  0  0  0  0  0  0  0  0  0
  189.6300  176.9760  145.5220 C   0  0  0  0  0  3  0  0  0  0  0  0
  186.9120  177.6360  145.5830 C   0  0  0  0  0  0  0  0  0  0  0  0
  187.4850  177.1370  144.4090 C   0  0  0  0  0  3  0  0  0  0  0  0
  189.8420  177.6520  147.8280 O   0  0  0  0  0  1  0  0  0  0  0  0
  190.8100  175.6860  143.3660 C   0  0  0  0  0  1  0  0  0  0  0  0
  189.4330  176.2800  143.0970 C   0  0  2  0  0  3  0  0  0  0  0  0
  189.4910  177.3590  142.0060 C   0  0  1  0  0  3  0  0  0  0  0  0
  190.1280  176.1090  139.9060 N   0  0  0  0  0  2  0  0  0  0  0  0
  190.4950  177.0070  140.9520 C   0  0  0  0  0  0  0  0  0  0  0  0
  191.6520  177.5080  140.9830 O   0  0  0  0  0  0  0  0  0  0  0  0
  191.0390  175.7570  138.9050 N   0  0  0  0  0  0  0  0  0  0  0  0
  190.6600  175.7180  137.6720 C   0  0  0  0  0  3  0  0  0  0  0  0
  191.8210  175.2640  136.3940 P   0  0  1  0  0  0  0  0  0  0  0  0
  191.5790  173.6450  135.9700 O   0  0  0  0  0  1  0  0  0  0  0  0
  191.6050  176.1380  135.1800 O   0  0  0  0  0  0  0  0  0  0  0  0
  193.4860  175.4740  137.0060 C   0  0  0  0  0  0  0  0  0  0  0  0
  193.9600  176.6330  137.1450 O   0  0  0  0  0  0  0  0  0  0  0  0
  194.2570  174.3250  137.3600 N   0  0  0  0  0  2  0  0  0  0  0  0
  195.5980  174.4210  137.9180 C   0  0  0  0  0  2  0  0  0  0  0  0
  196.6290  174.3830  136.8040 C   0  0  0  0  0  2  0  0  0  0  0  0
  198.9610  174.8030  136.5830 O   0  0  0  0  0  0  0  0  0  0  0  0
  197.9400  174.8670  137.3140 C   0  0  0  0  0  0  0  0  0  0  0  0
  198.0300  175.4210  138.5840 O   0  0  0  0  0  1  0  0  0  0  0  0
  188.1800  178.8710  141.0510 C   0  0  0  0  0  1  0  0  0  0  0  0
  188.2340  177.5240  141.4120 O   0  0  0  0  0  0  0  0  0  0  0  0
  185.4720  178.0080  145.6130 C   0  0  0  0  0  2  0  0  0  0  0  0
  185.1680  179.0100  144.5120 C   0  0  0  0  0  2  0  0  0  0  0  0
  184.0880  178.7860  142.2320 C   0  0  0  0  0  0  0  0  0  0  0  0
  184.9860  179.5100  141.7210 O   0  0  0  0  0  0  0  0  0  0  0  0
  184.1390  178.4820  143.6300 N   0  0  0  0  0  2  0  0  0  0  0  0
  181.2400  179.4560  142.5860 O   0  0  0  0  0  1  0  0  0  0  0  0
  182.3460  176.8570  139.4790 C   0  0  0  0  0  0  0  0  0  0  0  0
  182.9970  178.2590  141.3750 C   0  0  0  0  0  0  0  0  0  0  0  0
  183.3320  177.3890  140.3250 C   0  0  0  0  0  3  0  0  0  0  0  0
  181.6380  178.5970  141.5680 C   0  0  0  0  0  0  0  0  0  0  0  0
  181.0100  177.2010  139.6870 C   0  0  0  0  0  3  0  0  0  0  0  0
  180.6590  178.0650  140.7240 C   0  0  0  0  0  3  0  0  0  0  0  0
  182.6690  175.9900  138.4330 O   0  0  0  0  0  0  0  0  0  0  0  0
  183.8370  176.1450  137.6390 C   0  0  0  0  0  1  0  0  0  0  0  0
  1  2  1  0  0  0  0
  1  7  1  0  0  0  0
  3  6  2  0  0  0  0
  3  4  1  0  0  0  0
  4  1  2  0  0  0  0
  5 29  1  0  0  0  0
  5  2  2  0  0  0  0
  6  5  1  0  0  0  0
  9  8  1  1  0  0  0
  9  3  1  0  0  0  0
 10 12  1  6  0  0  0
 10  9  1  0  0  0  0
 11 12  1  0  0  0  0
 12 13  2  0  0  0  0
 14 11  1  0  0  0  0
 15 14  2  0  0  0  0
 16 18  2  6  0  0  0
 16 19  1  0  0  0  0
 16 15  1  0  0  0  0
 17 16  1  0  0  0  0
 19 20  2  0  0  0  0
 19 21  1  0  0  0  0
 21 22  1  0  0  0  0
 23 25  1  0  0  0  0
 23 22  1  0  0  0  0
 24 25  2  0  0  0  0
 25 26  1  0  0  0  0
 27 28  1  0  0  0  0
 28 10  1  0  0  0  0
 30 29  1  0  0  0  0
 31 33  1  0  0  0  0
 32 31  2  0  0  0  0
 33 30  1  0  0  0  0
 35 39  2  0  0  0  0
 35 37  1  0  0  0  0
 36 38  1  0  0  0  0
 36 31  1  0  0  0  0
 37 36  2  0  0  0  0
 38 34  1  0  0  0  0
 39 40  1  0  0  0  0
 40 38  2  0  0  0  0
 41 35  1  0  0  0  0
 42 41  1  0  0  0  0
M  END
>  <MODEL>
4

>  <REMARK>
 VINA RESULT:      -8.1      2.112      3.032
  Name = 
  15 active torsions:
  status: ('A' for Active; 'I' for Inactive)
    1  A    between atoms: C_1  and  P_20
    2  A    between atoms: C_4  and  C_32
    3  A    between atoms: C_4  and  N_42
    4  A    between atoms: C_5  and  C_32
    5  A    between atoms: C_6  and  O_21
    6  A    between atoms: C_9  and  C_12
    7  A    between atoms: C_10  and  C_19
    8  A    between atoms: C_10  and  C_23
    9  A    between atoms: C_10  and  O_38
   10  A    between atoms: N_11  and  N_37
   11  A    between atoms: C_14  and  C_25
   12  A    between atoms: C_14  and  C_26
   13  A    between atoms: C_16  and  C_19
   14  A    between atoms: P_20  and  C_41
   15  A    between atoms: C_26  and  N_29
                            x       y       z     vdW  Elec       q    Type
                         _______ _______ _______ _____ _____    ______ ____

>  <TORSDO>
F 15

$$$$
=
 OpenBabel10232411013D

 42 43  0  0  1  0  0  0  0  0999 V2000
  187.7170  177.9240  147.2230 C   0  0  0  0  0  0  0  0  0  0  0  0
  186.3680  178.2640  147.0950 C   0  0  0  0  0  3  0  0  0  0  0  0
  187.8870  177.6790  144.8140 C   0  0  0  0  0  0  0  0  0  0  0  0
  188.4760  177.6310  146.0870 C   0  0  0  0  0  3  0  0  0  0  0  0
  185.7740  178.3080  145.8280 C   0  0  0  0  0  0  0  0  0  0  0  0
  186.5360  178.0200  144.6910 C   0  0  0  0  0  3  0  0  0  0  0  0
  188.3040  177.8770  148.4810 O   0  0  0  0  0  1  0  0  0  0  0  0
  188.5390  175.9160  143.2020 C   0  0  0  0  0  1  0  0  0  0  0  0
  188.6820  177.3860  143.5770 C   0  0  2  0  0  3  0  0  0  0  0  0
  190.1580  177.7820  143.7360 C   0  0  1  0  0  3  0  0  0  0  0  0
  190.7540  177.6120  141.2880 N   0  0  0  0  0  2  0  0  0  0  0  0
  190.9930  177.2060  142.6340 C   0  0  0  0  0  0  0  0  0  0  0  0
  191.9060  176.3750  142.8950 O   0  0  0  0  0  0  0  0  0  0  0  0
  191.5130  177.0950  140.2330 N   0  0  0  0  0  0  0  0  0  0  0  0
  190.9290  176.6810  139.1600 C   0  0  0  0  0  3  0  0  0  0  0  0
  191.8960  176.0160  137.8150 P   0  0  1  0  0  0  0  0  0  0  0  0
  193.3880  176.8100  137.7540 O   0  0  0  0  0  0  0  0  0  0  0  0
  192.1230  174.5380  138.0360 O   0  0  0  0  0  1  0  0  0  0  0  0
  191.0240  176.2730  136.2770 C   0  0  0  0  0  0  0  0  0  0  0  0
  191.4620  175.7560  135.2150 O   0  0  0  0  0  0  0  0  0  0  0  0
  189.8200  177.0410  136.2700 N   0  0  0  0  0  2  0  0  0  0  0  0
  189.0260  177.2450  135.0670 C   0  0  0  0  0  2  0  0  0  0  0  0
  187.8430  176.2930  135.0560 C   0  0  0  0  0  2  0  0  0  0  0  0
  186.4820  177.8820  136.1910 O   0  0  0  0  0  0  0  0  0  0  0  0
  186.8690  176.6880  136.1090 C   0  0  0  0  0  0  0  0  0  0  0  0
  186.3600  175.7320  136.9780 O   0  0  0  0  0  1  0  0  0  0  0  0
  191.5660  179.4120  144.2620 C   0  0  0  0  0  1  0  0  0  0  0  0
  190.2930  179.1750  143.7400 O   0  0  0  0  0  0  0  0  0  0  0  0
  184.3420  178.6900  145.6920 C   0  0  0  0  0  2  0  0  0  0  0  0
  184.1590  179.6130  144.5000 C   0  0  0  0  0  2  0  0  0  0  0  0
  183.7150  178.8300  142.1320 C   0  0  0  0  0  0  0  0  0  0  0  0
  184.8540  179.2350  141.7710 O   0  0  0  0  0  0  0  0  0  0  0  0
  183.3180  178.9740  143.5000 N   0  0  0  0  0  2  0  0  0  0  0  0
  180.8340  179.4120  141.9280 O   0  0  0  0  0  1  0  0  0  0  0  0
  182.5460  176.6610  139.2590 C   0  0  0  0  0  0  0  0  0  0  0  0
  182.8100  178.2070  141.1360 C   0  0  0  0  0  0  0  0  0  0  0  0
  183.3500  177.2840  140.2260 C   0  0  0  0  0  3  0  0  0  0  0  0
  181.4300  178.5050  141.0600 C   0  0  0  0  0  0  0  0  0  0  0  0
  181.1860  176.9660  139.2010 C   0  0  0  0  0  3  0  0  0  0  0  0
  180.6320  177.8820  140.0960 C   0  0  0  0  0  3  0  0  0  0  0  0
  183.0730  175.7400  138.3510 O   0  0  0  0  0  0  0  0  0  0  0  0
  182.2800  174.7440  137.7190 C   0  0  0  0  0  1  0  0  0  0  0  0
  1  7  1  0  0  0  0
  2  1  1  0  0  0  0
  3  4  1  0  0  0  0
  4  1  2  0  0  0  0
  5  2  2  0  0  0  0
  6  3  2  0  0  0  0
  6  5  1  0  0  0  0
  9  8  1  1  0  0  0
  9 10  1  0  0  0  0
  9  3  1  0  0  0  0
 10 12  1  6  0  0  0
 10 28  1  0  0  0  0
 11 12  1  0  0  0  0
 12 13  2  0  0  0  0
 14 11  1  0  0  0  0
 15 14  2  0  0  0  0
 16 17  2  6  0  0  0
 16 18  1  0  0  0  0
 16 15  1  0  0  0  0
 19 16  1  0  0  0  0
 20 19  2  0  0  0  0
 21 19  1  0  0  0  0
 22 21  1  0  0  0  0
 23 22  1  0  0  0  0
 23 25  1  0  0  0  0
 25 24  2  0  0  0  0
 25 26  1  0  0  0  0
 28 27  1  0  0  0  0
 29  5  1  0  0  0  0
 30 29  1  0  0  0  0
 31 33  1  0  0  0  0
 32 31  2  0  0  0  0
 33 30  1  0  0  0  0
 35 37  1  0  0  0  0
 36 31  1  0  0  0  0
 37 36  2  0  0  0  0
 38 36  1  0  0  0  0
 38 34  1  0  0  0  0
 39 35  2  0  0  0  0
 39 40  1  0  0  0  0
 40 38  2  0  0  0  0
 41 35  1  0  0  0  0
 42 41  1  0  0  0  0
M  END
>  <MODEL>
5

>  <REMARK>
 VINA RESULT:      -7.9      1.700      3.223
  Name = 
  15 active torsions:
  status: ('A' for Active; 'I' for Inactive)
    1  A    between atoms: C_1  and  P_20
    2  A    between atoms: C_4  and  C_32
    3  A    between atoms: C_4  and  N_42
    4  A    between atoms: C_5  and  C_32
    5  A    between atoms: C_6  and  O_21
    6  A    between atoms: C_9  and  C_12
    7  A    between atoms: C_10  and  C_19
    8  A    between atoms: C_10  and  C_23
    9  A    between atoms: C_10  and  O_38
   10  A    between atoms: N_11  and  N_37
   11  A    between atoms: C_14  and  C_25
   12  A    between atoms: C_14  and  C_26
   13  A    between atoms: C_16  and  C_19
   14  A    between atoms: P_20  and  C_41
   15  A    between atoms: C_26  and  N_29
                            x       y       z     vdW  Elec       q    Type
                         _______ _______ _______ _____ _____    ______ ____

>  <TORSDO>
F 15

$$$$
=
 OpenBabel10232411013D

 42 43  0  0  1  0  0  0  0  0999 V2000
  182.9390  178.7890  142.7690 C   0  0  0  0  0  0  0  0  0  0  0  0
  184.3200  178.9110  142.9450 C   0  0  0  0  0  3  0  0  0  0  0  0
  183.2560  178.6390  140.3660 C   0  0  0  0  0  0  0  0  0  0  0  0
  182.4070  178.6530  141.4840 C   0  0  0  0  0  3  0  0  0  0  0  0
  185.1710  178.9030  141.8330 C   0  0  0  0  0  0  0  0  0  0  0  0
  184.6370  178.7620  140.5480 C   0  0  0  0  0  3  0  0  0  0  0  0
  182.0960  178.8010  143.8720 O   0  0  0  0  0  1  0  0  0  0  0  0
  181.3320  179.1160  138.8820 C   0  0  0  0  0  1  0  0  0  0  0  0
  182.7120  178.4780  138.9790 C   0  0  2  0  0  3  0  0  0  0  0  0
  182.6800  177.0060  138.5410 C   0  0  1  0  0  3  0  0  0  0  0  0
  184.2340  175.2640  137.5780 N   0  0  0  0  0  2  0  0  0  0  0  0
  183.9210  176.6400  137.7870 C   0  0  0  0  0  0  0  0  0  0  0  0
  184.6780  177.5400  137.3320 O   0  0  0  0  0  0  0  0  0  0  0  0
  185.3840  174.8840  136.8790 N   0  0  0  0  0  0  0  0  0  0  0  0
  186.0320  173.8250  137.2300 C   0  0  0  0  0  3  0  0  0  0  0  0
  187.5030  173.3410  136.3410 P   0  0  1  0  0  0  0  0  0  0  0  0
  187.8260  171.7090  136.6430 O   0  0  0  0  0  1  0  0  0  0  0  0
  187.2890  173.5440  134.8580 O   0  0  0  0  0  0  0  0  0  0  0  0
  188.8820  174.3320  136.8970 C   0  0  0  0  0  0  0  0  0  0  0  0
  189.9190  173.7690  137.3410 O   0  0  0  0  0  0  0  0  0  0  0  0
  188.8080  175.7550  136.8070 N   0  0  0  0  0  2  0  0  0  0  0  0
  189.9120  176.6240  137.1870 C   0  0  0  0  0  2  0  0  0  0  0  0
  189.4280  178.0580  137.3110 C   0  0  0  0  0  2  0  0  0  0  0  0
  187.6630  178.7890  138.7300 O   0  0  0  0  0  0  0  0  0  0  0  0
  188.8030  178.2660  138.6450 C   0  0  0  0  0  0  0  0  0  0  0  0
  189.4640  177.8510  139.7930 O   0  0  0  0  0  1  0  0  0  0  0  0
  181.3190  175.5300  139.4820 C   0  0  0  0  0  1  0  0  0  0  0  0
  182.5490  176.1670  139.6540 O   0  0  0  0  0  0  0  0  0  0  0  0
  186.6420  179.0140  142.0240 C   0  0  0  0  0  2  0  0  0  0  0  0
  187.2170  177.6750  142.4510 C   0  0  0  0  0  2  0  0  0  0  0  0
  187.2830  177.4500  144.9740 C   0  0  0  0  0  0  0  0  0  0  0  0
  186.1210  176.9580  144.9730 O   0  0  0  0  0  0  0  0  0  0  0  0
  187.8950  177.8100  143.7310 N   0  0  0  0  0  2  0  0  0  0  0  0
  186.0950  178.7390  147.3430 O   0  0  0  0  0  1  0  0  0  0  0  0
  190.0450  177.3320  147.5590 C   0  0  0  0  0  0  0  0  0  0  0  0
  187.9950  177.6420  146.2600 C   0  0  0  0  0  0  0  0  0  0  0  0
  189.3180  177.1810  146.3690 C   0  0  0  0  0  3  0  0  0  0  0  0
  187.4010  178.2640  147.3820 C   0  0  0  0  0  0  0  0  0  0  0  0
  189.4420  177.9510  148.6550 C   0  0  0  0  0  3  0  0  0  0  0  0
  188.1290  178.4140  148.5660 C   0  0  0  0  0  3  0  0  0  0  0  0
  191.3610  176.8790  147.6760 O   0  0  0  0  0  0  0  0  0  0  0  0
  191.9870  176.0740  146.6860 C   0  0  0  0  0  1  0  0  0  0  0  0
  1  2  1  0  0  0  0
  1  7  1  0  0  0  0
  3  6  2  0  0  0  0
  3  4  1  0  0  0  0
  4  1  2  0  0  0  0
  5 29  1  0  0  0  0
  5  2  2  0  0  0  0
  6  5  1  0  0  0  0
  9  8  1  1  0  0  0
  9  3  1  0  0  0  0
 10 12  1  1  0  0  0
 10  9  1  0  0  0  0
 10 28  1  0  0  0  0
 11 12  1  0  0  0  0
 13 12  2  0  0  0  0
 14 15  2  0  0  0  0
 14 11  1  0  0  0  0
 16 18  2  6  0  0  0
 16 17  1  0  0  0  0
 16 19  1  0  0  0  0
 16 15  1  0  0  0  0
 19 20  2  0  0  0  0
 21 19  1  0  0  0  0
 21 22  1  0  0  0  0
 22 23  1  0  0  0  0
 23 25  1  0  0  0  0
 25 24  2  0  0  0  0
 25 26  1  0  0  0  0
 27 28  1  0  0  0  0
 29 30  1  0  0  0  0
 30 33  1  0  0  0  0
 31 36  1  0  0  0  0
 32 31  2  0  0  0  0
 33 31  1  0  0  0  0
 34 38  1  0  0  0  0
 35 41  1  0  0  0  0
 35 39  1  0  0  0  0
 36 37  1  0  0  0  0
 36 38  2  0  0  0  0
 37 35  2  0  0  0  0
 38 40  1  0  0  0  0
 40 39  2  0  0  0  0
 42 41  1  0  0  0  0
M  END
>  <MODEL>
6

>  <REMARK>
 VINA RESULT:      -7.7      2.678      7.799
  Name = 
  15 active torsions:
  status: ('A' for Active; 'I' for Inactive)
    1  A    between atoms: C_1  and  P_20
    2  A    between atoms: C_4  and  C_32
    3  A    between atoms: C_4  and  N_42
    4  A    between atoms: C_5  and  C_32
    5  A    between atoms: C_6  and  O_21
    6  A    between atoms: C_9  and  C_12
    7  A    between atoms: C_10  and  C_19
    8  A    between atoms: C_10  and  C_23
    9  A    between atoms: C_10  and  O_38
   10  A    between atoms: N_11  and  N_37
   11  A    between atoms: C_14  and  C_25
   12  A    between atoms: C_14  and  C_26
   13  A    between atoms: C_16  and  C_19
   14  A    between atoms: P_20  and  C_41
   15  A    between atoms: C_26  and  N_29
                            x       y       z     vdW  Elec       q    Type
                         _______ _______ _______ _____ _____    ______ ____

>  <TORSDO>
F 15

$$$$
=
 OpenBabel10232411013D

 42 43  0  0  1  0  0  0  0  0999 V2000
  188.0640  177.8360  139.2370 C   0  0  0  0  0  0  0  0  0  0  0  0
  188.8950  177.9310  140.3570 C   0  0  0  0  0  3  0  0  0  0  0  0
  189.6710  176.3630  138.1670 C   0  0  0  0  0  0  0  0  0  0  0  0
  188.4490  177.0550  138.1440 C   0  0  0  0  0  3  0  0  0  0  0  0
  190.1160  177.2470  140.3830 C   0  0  0  0  0  0  0  0  0  0  0  0
  190.4980  176.4610  139.2900 C   0  0  0  0  0  3  0  0  0  0  0  0
  186.8550  178.5180  139.2110 O   0  0  0  0  0  1  0  0  0  0  0  0
  190.7800  174.2430  137.5310 C   0  0  0  0  0  1  0  0  0  0  0  0
  190.1000  175.5050  137.0150 C   0  0  2  0  0  3  0  0  0  0  0  0
  191.0040  176.2690  136.0360 C   0  0  1  0  0  3  0  0  0  0  0  0
  193.2670  176.3240  137.1550 N   0  0  0  0  0  2  0  0  0  0  0  0
  192.4230  175.7980  136.1330 C   0  0  0  0  0  0  0  0  0  0  0  0
  192.8650  174.9380  135.3230 O   0  0  0  0  0  0  0  0  0  0  0  0
  194.5970  175.9100  137.2760 N   0  0  0  0  0  0  0  0  0  0  0  0
  194.8740  174.7880  137.8510 C   0  0  0  0  0  3  0  0  0  0  0  0
  196.5720  174.2610  138.0110 P   0  0  1  0  0  0  0  0  0  0  0  0
  197.5940  175.4920  137.4630 O   0  0  0  0  0  0  0  0  0  0  0  0
  196.8770  173.9650  139.4620 O   0  0  0  0  0  1  0  0  0  0  0  0
  196.8300  172.7930  137.0250 C   0  0  0  0  0  0  0  0  0  0  0  0
  197.1030  172.9020  135.7990 O   0  0  0  0  0  0  0  0  0  0  0  0
  196.7530  171.5070  137.6420 N   0  0  0  0  0  2  0  0  0  0  0  0
  197.0070  170.2720  136.9160 C   0  0  0  0  0  2  0  0  0  0  0  0
  195.8320  169.3230  137.0750 C   0  0  0  0  0  2  0  0  0  0  0  0
  193.5180  169.6720  136.6390 O   0  0  0  0  0  1  0  0  0  0  0  0
  194.7000  169.7750  136.2220 C   0  0  0  0  0  0  0  0  0  0  0  0
  194.9500  170.3410  134.9790 O   0  0  0  0  0  0  0  0  0  0  0  0
  189.4980  177.0140  134.5900 C   0  0  0  0  0  1  0  0  0  0  0  0
  190.5500  176.1070  134.7220 O   0  0  0  0  0  0  0  0  0  0  0  0
  190.9900  177.3340  141.5840 C   0  0  0  0  0  2  0  0  0  0  0  0
  190.6090  176.2580  142.5860 C   0  0  0  0  0  2  0  0  0  0  0  0
  188.5530  176.6190  144.0210 C   0  0  0  0  0  0  0  0  0  0  0  0
  187.8910  175.8290  143.2940 O   0  0  0  0  0  0  0  0  0  0  0  0
  189.9340  176.8570  143.7260 N   0  0  0  0  0  2  0  0  0  0  0  0
  189.6830  176.7190  146.7410 O   0  0  0  0  0  1  0  0  0  0  0  0
  185.9780  178.5540  146.0110 C   0  0  0  0  0  0  0  0  0  0  0  0
  187.8930  177.2830  145.1720 C   0  0  0  0  0  0  0  0  0  0  0  0
  186.6530  177.9090  144.9630 C   0  0  0  0  0  3  0  0  0  0  0  0
  188.4580  177.3160  146.4680 C   0  0  0  0  0  0  0  0  0  0  0  0
  186.5520  178.5730  147.2830 C   0  0  0  0  0  3  0  0  0  0  0  0
  187.7830  177.9580  147.5090 C   0  0  0  0  0  3  0  0  0  0  0  0
  184.7450  179.1770  145.8140 O   0  0  0  0  0  0  0  0  0  0  0  0
  184.1130  179.2470  144.5420 C   0  0  0  0  0  1  0  0  0  0  0  0
  1  2  1  0  0  0  0
  2  5  2  0  0  0  0
  3  6  2  0  0  0  0
  4  3  1  0  0  0  0
  4  1  2  0  0  0  0
  5 29  1  0  0  0  0
  6  5  1  0  0  0  0
  7  1  1  0  0  0  0
  9  8  1  1  0  0  0
  9  3  1  0  0  0  0
 10 28  1  6  0  0  0
 10 12  1  0  0  0  0
 10  9  1  0  0  0  0
 11 14  1  0  0  0  0
 12 11  1  0  0  0  0
 13 12  2  0  0  0  0
 14 15  2  0  0  0  0
 15 16  1  0  0  0  0
 16 17  2  6  0  0  0
 16 18  1  0  0  0  0
 19 21  1  0  0  0  0
 19 16  1  0  0  0  0
 20 19  2  0  0  0  0
 22 23  1  0  0  0  0
 22 21  1  0  0  0  0
 25 24  1  0  0  0  0
 25 23  1  0  0  0  0
 26 25  2  0  0  0  0
 27 28  1  0  0  0  0
 29 30  1  0  0  0  0
 30 33  1  0  0  0  0
 31 36  1  0  0  0  0
 32 31  2  0  0  0  0
 33 31  1  0  0  0  0
 35 39  1  0  0  0  0
 36 38  2  0  0  0  0
 37 36  1  0  0  0  0
 37 35  2  0  0  0  0
 38 34  1  0  0  0  0
 38 40  1  0  0  0  0
 39 40  2  0  0  0  0
 41 35  1  0  0  0  0
 42 41  1  0  0  0  0
M  END
>  <MODEL>
7

>  <REMARK>
 VINA RESULT:      -7.5      3.574      7.849
  Name = 
  15 active torsions:
  status: ('A' for Active; 'I' for Inactive)
    1  A    between atoms: C_1  and  P_20
    2  A    between atoms: C_4  and  C_32
    3  A    between atoms: C_4  and  N_42
    4  A    between atoms: C_5  and  C_32
    5  A    between atoms: C_6  and  O_21
    6  A    between atoms: C_9  and  C_12
    7  A    between atoms: C_10  and  C_19
    8  A    between atoms: C_10  and  C_23
    9  A    between atoms: C_10  and  O_38
   10  A    between atoms: N_11  and  N_37
   11  A    between atoms: C_14  and  C_25
   12  A    between atoms: C_14  and  C_26
   13  A    between atoms: C_16  and  C_19
   14  A    between atoms: P_20  and  C_41
   15  A    between atoms: C_26  and  N_29
                            x       y       z     vdW  Elec       q    Type
                         _______ _______ _______ _____ _____    ______ ____

>  <TORSDO>
F 15

$$$$
=
 OpenBabel10232411013D

 42 43  0  0  1  0  0  0  0  0999 V2000
  187.9690  178.2470  139.7180 C   0  0  0  0  0  0  0  0  0  0  0  0
  188.8400  178.1110  140.8020 C   0  0  0  0  0  3  0  0  0  0  0  0
  189.6650  177.3350  138.2380 C   0  0  0  0  0  0  0  0  0  0  0  0
  188.3790  177.8610  138.4390 C   0  0  0  0  0  3  0  0  0  0  0  0
  190.1260  177.5920  140.6070 C   0  0  0  0  0  0  0  0  0  0  0  0
  190.5330  177.2000  139.3270 C   0  0  0  0  0  3  0  0  0  0  0  0
  186.6960  178.7650  139.9120 O   0  0  0  0  0  1  0  0  0  0  0  0
  189.2490  177.5320  135.8060 C   0  0  0  0  0  1  0  0  0  0  0  0
  190.1240  176.8980  136.8800 C   0  0  2  0  0  3  0  0  0  0  0  0
  190.1520  175.3680  136.7480 C   0  0  1  0  0  3  0  0  0  0  0  0
  187.7740  174.5730  137.0400 N   0  0  0  0  0  2  0  0  0  0  0  0
  188.8700  174.8520  136.1710 C   0  0  0  0  0  0  0  0  0  0  0  0
  188.7580  174.6740  134.9280 O   0  0  0  0  0  0  0  0  0  0  0  0
  186.5610  174.0890  136.5380 N   0  0  0  0  0  0  0  0  0  0  0  0
  185.5640  173.8950  137.3340 C   0  0  0  0  0  3  0  0  0  0  0  0
  184.0180  173.2730  136.6950 P   0  0  1  0  0  0  0  0  0  0  0  0
  184.1360  173.1000  135.0170 O   0  0  0  0  0  0  0  0  0  0  0  0
  183.7160  171.9290  137.3180 O   0  0  0  0  0  1  0  0  0  0  0  0
  182.7110  174.4290  137.0820 C   0  0  0  0  0  0  0  0  0  0  0  0
  182.8350  175.6430  136.7670 O   0  0  0  0  0  0  0  0  0  0  0  0
  181.5230  173.9600  137.7220 N   0  0  0  0  0  2  0  0  0  0  0  0
  180.3950  174.8320  138.0160 C   0  0  0  0  0  2  0  0  0  0  0  0
  180.4940  175.3480  139.4400 C   0  0  0  0  0  2  0  0  0  0  0  0
  181.4470  177.3320  140.3460 O   0  0  0  0  0  1  0  0  0  0  0  0
  180.7630  176.8110  139.4280 C   0  0  0  0  0  0  0  0  0  0  0  0
  180.2880  177.5960  138.3860 O   0  0  0  0  0  0  0  0  0  0  0  0
  192.3520  175.0920  136.7450 C   0  0  0  0  0  1  0  0  0  0  0  0
  191.2210  174.9660  135.9380 O   0  0  0  0  0  0  0  0  0  0  0  0
  191.0440  177.4290  141.7660 C   0  0  0  0  0  2  0  0  0  0  0  0
  190.5470  176.3190  142.6760 C   0  0  0  0  0  2  0  0  0  0  0  0
  188.4820  176.6560  144.1040 C   0  0  0  0  0  0  0  0  0  0  0  0
  187.8180  175.8970  143.3460 O   0  0  0  0  0  0  0  0  0  0  0  0
  189.8670  176.8880  143.8290 N   0  0  0  0  0  2  0  0  0  0  0  0
  189.7160  176.9130  146.7680 O   0  0  0  0  0  1  0  0  0  0  0  0
  185.8410  178.4140  146.1690 C   0  0  0  0  0  0  0  0  0  0  0  0
  187.8180  177.2880  145.2700 C   0  0  0  0  0  0  0  0  0  0  0  0
  186.5220  177.8030  145.1050 C   0  0  0  0  0  3  0  0  0  0  0  0
  188.4340  177.3980  146.5380 C   0  0  0  0  0  0  0  0  0  0  0  0
  186.4650  178.5110  147.4140 C   0  0  0  0  0  3  0  0  0  0  0  0
  187.7520  178.0070  147.5970 C   0  0  0  0  0  3  0  0  0  0  0  0
  184.5520  178.9280  146.0150 O   0  0  0  0  0  0  0  0  0  0  0  0
  183.9610  179.1520  144.7420 C   0  0  0  0  0  1  0  0  0  0  0  0
  1  7  1  0  0  0  0
  1  2  1  0  0  0  0
  3  4  1  0  0  0  0
  3  6  2  0  0  0  0
  4  1  2  0  0  0  0
  5  2  2  0  0  0  0
  5 29  1  0  0  0  0
  6  5  1  0  0  0  0
  9  8  1  6  0  0  0
  9  3  1  0  0  0  0
 10 28  1  6  0  0  0
 10  9  1  0  0  0  0
 12 10  1  0  0  0  0
 12 11  1  0  0  0  0
 13 12  2  0  0  0  0
 14 11  1  0  0  0  0
 14 15  2  0  0  0  0
 16 17  2  6  0  0  0
 16 19  1  0  0  0  0
 16 18  1  0  0  0  0
 16 15  1  0  0  0  0
 19 21  1  0  0  0  0
 20 19  2  0  0  0  0
 21 22  1  0  0  0  0
 22 23  1  0  0  0  0
 25 23  1  0  0  0  0
 25 24  1  0  0  0  0
 26 25  2  0  0  0  0
 28 27  1  0  0  0  0
 29 30  1  0  0  0  0
 30 33  1  0  0  0  0
 31 36  1  0  0  0  0
 32 31  2  0  0  0  0
 33 31  1  0  0  0  0
 35 39  1  0  0  0  0
 36 38  2  0  0  0  0
 37 36  1  0  0  0  0
 37 35  2  0  0  0  0
 38 34  1  0  0  0  0
 38 40  1  0  0  0  0
 39 40  2  0  0  0  0
 41 35  1  0  0  0  0
 42 41  1  0  0  0  0
M  END
>  <MODEL>
8

>  <REMARK>
 VINA RESULT:      -7.2      2.784      8.328
  Name = 
  15 active torsions:
  status: ('A' for Active; 'I' for Inactive)
    1  A    between atoms: C_1  and  P_20
    2  A    between atoms: C_4  and  C_32
    3  A    between atoms: C_4  and  N_42
    4  A    between atoms: C_5  and  C_32
    5  A    between atoms: C_6  and  O_21
    6  A    between atoms: C_9  and  C_12
    7  A    between atoms: C_10  and  C_19
    8  A    between atoms: C_10  and  C_23
    9  A    between atoms: C_10  and  O_38
   10  A    between atoms: N_11  and  N_37
   11  A    between atoms: C_14  and  C_25
   12  A    between atoms: C_14  and  C_26
   13  A    between atoms: C_16  and  C_19
   14  A    between atoms: P_20  and  C_41
   15  A    between atoms: C_26  and  N_29
                            x       y       z     vdW  Elec       q    Type
                         _______ _______ _______ _____ _____    ______ ____

>  <TORSDO>
F 15

$$$$
=
 OpenBabel10232411013D

 42 43  0  0  1  0  0  0  0  0999 V2000
  184.0250  178.5560  141.9420 C   0  0  0  0  0  0  0  0  0  0  0  0
  185.4080  178.7160  142.0530 C   0  0  0  0  0  3  0  0  0  0  0  0
  184.2200  178.5290  139.5210 C   0  0  0  0  0  0  0  0  0  0  0  0
  183.4300  178.4630  140.6800 C   0  0  0  0  0  3  0  0  0  0  0  0
  186.2000  178.7880  140.9000 C   0  0  0  0  0  0  0  0  0  0  0  0
  185.6050  178.6890  139.6380 C   0  0  0  0  0  3  0  0  0  0  0  0
  183.2400  178.4880  143.0850 O   0  0  0  0  0  1  0  0  0  0  0  0
  182.1320  178.7810  138.2150 C   0  0  0  0  0  1  0  0  0  0  0  0
  183.6100  178.4150  138.1570 C   0  0  2  0  0  3  0  0  0  0  0  0
  183.8180  177.0200  137.5490 C   0  0  1  0  0  3  0  0  0  0  0  0
  186.1780  176.1410  137.3600 N   0  0  0  0  0  2  0  0  0  0  0  0
  185.1250  176.9380  136.8210 C   0  0  0  0  0  0  0  0  0  0  0  0
  185.2900  177.5610  135.7380 O   0  0  0  0  0  0  0  0  0  0  0  0
  187.4120  176.0400  136.7090 N   0  0  0  0  0  0  0  0  0  0  0  0
  188.0790  174.9370  136.7560 C   0  0  0  0  0  3  0  0  0  0  0  0
  189.6560  174.8100  135.9300 P   0  0  1  0  0  0  0  0  0  0  0  0
  189.7190  173.3570  135.0670 O   0  0  0  0  0  1  0  0  0  0  0  0
  189.8220  175.9690  134.9740 O   0  0  0  0  0  0  0  0  0  0  0  0
  190.9640  174.8340  137.1470 C   0  0  0  0  0  0  0  0  0  0  0  0
  190.7250  175.2430  138.3150 O   0  0  0  0  0  0  0  0  0  0  0  0
  192.2650  174.3620  136.7930 N   0  0  0  0  0  2  0  0  0  0  0  0
  193.3630  174.2980  137.7460 C   0  0  0  0  0  2  0  0  0  0  0  0
  194.6880  174.2190  137.0090 C   0  0  0  0  0  2  0  0  0  0  0  0
  195.7730  173.1650  138.8460 O   0  0  0  0  0  1  0  0  0  0  0  0
  195.8010  174.0830  137.9860 C   0  0  0  0  0  0  0  0  0  0  0  0
  196.8870  174.9460  137.9280 O   0  0  0  0  0  0  0  0  0  0  0  0
  182.9230  175.0560  138.0540 C   0  0  0  0  0  1  0  0  0  0  0  0
  183.7810  176.0400  138.5470 O   0  0  0  0  0  0  0  0  0  0  0  0
  187.6750  178.9400  141.0210 C   0  0  0  0  0  2  0  0  0  0  0  0
  188.2970  177.6370  141.4940 C   0  0  0  0  0  2  0  0  0  0  0  0
  188.2190  177.0280  143.9510 C   0  0  0  0  0  0  0  0  0  0  0  0
  187.3160  176.1770  143.7250 O   0  0  0  0  0  0  0  0  0  0  0  0
  188.7680  177.7780  142.8630 N   0  0  0  0  0  2  0  0  0  0  0  0
  186.5090  177.9260  146.1770 O   0  0  0  0  0  1  0  0  0  0  0  0
  190.5700  177.1560  146.9150 C   0  0  0  0  0  0  0  0  0  0  0  0
  188.7010  177.2320  145.3390 C   0  0  0  0  0  0  0  0  0  0  0  0
  190.0540  176.9820  145.6230 C   0  0  0  0  0  3  0  0  0  0  0  0
  187.8580  177.6640  146.3890 C   0  0  0  0  0  0  0  0  0  0  0  0
  189.7230  177.5850  147.9380 C   0  0  0  0  0  3  0  0  0  0  0  0
  188.3760  177.8370  147.6760 C   0  0  0  0  0  3  0  0  0  0  0  0
  191.9140  176.9110  147.2070 O   0  0  0  0  0  0  0  0  0  0  0  0
  192.3580  175.7200  147.8420 C   0  0  0  0  0  1  0  0  0  0  0  0
  1  2  1  0  0  0  0
  1  7  1  0  0  0  0
  3  6  2  0  0  0  0
  3  4  1  0  0  0  0
  4  1  2  0  0  0  0
  5 29  1  0  0  0  0
  5  2  2  0  0  0  0
  6  5  1  0  0  0  0
  9  8  1  1  0  0  0
  9  3  1  0  0  0  0
 10 12  1  1  0  0  0
 10  9  1  0  0  0  0
 10 28  1  0  0  0  0
 12 11  1  0  0  0  0
 13 12  2  0  0  0  0
 14 15  2  0  0  0  0
 14 11  1  0  0  0  0
 16 18  2  6  0  0  0
 16 15  1  0  0  0  0
 16 19  1  0  0  0  0
 17 16  1  0  0  0  0
 19 20  2  0  0  0  0
 21 19  1  0  0  0  0
 21 22  1  0  0  0  0
 23 22  1  0  0  0  0
 23 25  1  0  0  0  0
 25 24  1  0  0  0  0
 26 25  2  0  0  0  0
 27 28  1  0  0  0  0
 29 30  1  0  0  0  0
 30 33  1  0  0  0  0
 31 36  1  0  0  0  0
 32 31  2  0  0  0  0
 33 31  1  0  0  0  0
 34 38  1  0  0  0  0
 35 41  1  0  0  0  0
 35 39  1  0  0  0  0
 36 37  1  0  0  0  0
 36 38  2  0  0  0  0
 37 35  2  0  0  0  0
 38 40  1  0  0  0  0
 40 39  2  0  0  0  0
 41 42  1  0  0  0  0
M  END
>  <MODEL>
9

>  <REMARK>
 VINA RESULT:      -7.2      2.327      7.463
  Name = 
  15 active torsions:
  status: ('A' for Active; 'I' for Inactive)
    1  A    between atoms: C_1  and  P_20
    2  A    between atoms: C_4  and  C_32
    3  A    between atoms: C_4  and  N_42
    4  A    between atoms: C_5  and  C_32
    5  A    between atoms: C_6  and  O_21
    6  A    between atoms: C_9  and  C_12
    7  A    between atoms: C_10  and  C_19
    8  A    between atoms: C_10  and  C_23
    9  A    between atoms: C_10  and  O_38
   10  A    between atoms: N_11  and  N_37
   11  A    between atoms: C_14  and  C_25
   12  A    between atoms: C_14  and  C_26
   13  A    between atoms: C_16  and  C_19
   14  A    between atoms: P_20  and  C_41
   15  A    between atoms: C_26  and  N_29
                            x       y       z     vdW  Elec       q    Type
                         _______ _______ _______ _____ _____    ______ ____

>  <TORSDO>
F 15

$$$$
