=
 OpenBabel10232412263D

 38 43  0  0  1  0  0  0  0  0999 V2000
  186.6460  177.6490  137.5520 C   0  0  1  0  0  3  0  0  0  0  0  0
  187.2620  176.3410  137.7430 N   0  0  0  0  0  0  0  0  0  0  0  0
  186.5580  178.6560  140.8550 C   0  0  2  0  0  3  0  0  0  0  0  0
  184.3780  177.6860  138.6360 N   0  0  0  0  0  2  0  0  0  0  0  0
  188.6380  177.5220  140.1510 C   0  0  0  0  0  2  0  0  0  0  0  0
  183.0650  178.4760  141.2880 C   0  0  0  0  0  2  0  0  0  0  0  0
  187.4690  177.7190  142.8810 N   0  0  0  0  0  0  0  0  0  0  0  0
  180.8530  179.9950  138.6800 N   0  0  0  0  0  0  0  0  0  0  0  0
  184.5350  178.6550  141.5080 C   0  0  0  0  0  0  0  0  0  0  0  0
  180.7880  180.0600  136.2160 C   0  0  0  0  0  1  0  0  0  0  0  0
  185.3400  179.1050  140.5350 N   0  0  0  0  0  0  0  0  0  0  0  0
  181.4120  179.6340  137.4970 C   0  0  0  0  0  0  0  0  0  0  0  0
  186.4110  175.4300  136.9870 C   0  0  0  0  0  2  0  0  0  0  0  0
  185.0020  175.9950  136.9400 C   0  0  2  0  0  3  0  0  0  0  0  0
  185.1950  178.0400  142.5120 N   0  0  0  0  0  2  0  0  0  0  0  0
  187.4650  178.4140  139.9010 C   0  0  1  0  0  3  0  0  0  0  0  0
  185.1330  177.4450  137.4060 C   0  0  2  0  0  3  0  0  0  0  0  0
  183.1680  178.4620  138.6780 C   0  0  0  0  0  0  0  0  0  0  0  0
  188.8740  177.8670  142.6070 C   0  0  0  0  0  3  0  0  0  0  0  0
  182.5760  178.8680  137.4770 C   0  0  0  0  0  3  0  0  0  0  0  0
  181.4040  179.6300  139.8700 C   0  0  0  0  0  3  0  0  0  0  0  0
  186.4820  178.0870  142.1150 C   0  0  0  0  0  0  0  0  0  0  0  0
  189.4090  177.8500  141.3870 C   0  0  0  0  0  3  0  0  0  0  0  0
  182.5750  178.8680  139.9110 C   0  0  0  0  0  0  0  0  0  0  0  0
  187.0830  178.6600  138.5360 N   0  0  0  0  0  2  0  0  0  0  0  0
  184.1360  175.1870  137.7900 N   0  0  0  0  0  2  0  0  0  0  0  0
  183.5420  174.1510  136.9650 C   0  0  2  0  0  3  0  0  0  0  0  0
  182.3970  174.7550  136.1730 C   0  0  0  0  0  2  0  0  0  0  0  0
  182.1060  173.9180  137.4030 C   0  0  1  0  0  3  0  0  0  0  0  0
  181.1440  172.2920  135.2550 O   0  0  0  0  0  0  0  0  0  0  0  0
  180.3740  171.8280  137.7100 O   0  0  0  0  0  1  0  0  0  0  0  0
  182.8240  171.1260  137.1110 O   0  0  0  0  0  1  0  0  0  0  0  0
  181.5760  172.2520  136.8940 P   0  0  0  0  0  0  0  0  0  0  0  0
  188.5640  176.3690  137.0760 C   0  0  0  0  0  2  0  0  0  0  0  0
  189.3330  175.2870  135.0430 N   0  0  0  0  0  1  0  0  0  0  0  0
  188.8870  175.0330  136.3970 C   0  0  1  0  0  3  0  0  0  0  0  0
  190.4960  175.0230  138.1760 O   0  0  0  0  0  1  0  0  0  0  0  0
  189.9670  174.2520  137.1340 C   0  0  0  0  0  2  0  0  0  0  0  0
  1  2  1  0  0  0  0
  1 25  1  1  0  0  0
  3 11  1  6  0  0  0
  3 22  1  0  0  0  0
  4 18  1  0  0  0  0
  5 23  1  0  0  0  0
  6  9  1  0  0  0  0
  8 21  1  0  0  0  0
  9 15  1  0  0  0  0
 10 12  1  0  0  0  0
 11  9  2  0  0  0  0
 12  8  2  0  0  0  0
 13  2  1  0  0  0  0
 14 13  1  0  0  0  0
 14 17  1  0  0  0  0
 14 26  1  1  0  0  0
 16  5  1  6  0  0  0
 16  3  1  0  0  0  0
 17  1  1  0  0  0  0
 17  4  1  1  0  0  0
 18 24  1  0  0  0  0
 19  7  1  0  0  0  0
 20 12  1  0  0  0  0
 20 18  2  0  0  0  0
 21 24  2  0  0  0  0
 22 15  1  0  0  0  0
 22  7  2  0  0  0  0
 23 19  2  0  0  0  0
 24  6  1  0  0  0  0
 25 16  1  0  0  0  0
 27 29  1  0  0  0  0
 27 26  1  1  0  0  0
 28 27  1  0  0  0  0
 28 29  1  0  0  0  0
 29 33  1  6  0  0  0
 30 33  2  0  0  0  0
 33 32  1  0  0  0  0
 33 31  1  0  0  0  0
 34  2  1  0  0  0  0
 36 35  1  6  0  0  0
 36 34  1  0  0  0  0
 36 38  1  0  0  0  0
 38 37  1  0  0  0  0
M  END
>  <MODEL>
1

>  <REMARK>
 VINA RESULT:      -6.8      0.000      0.000
  Name = 
  6 active torsions:
  status: ('A' for Active; 'I' for Inactive)
    1  A    between atoms: N_2  and  C_38
    2  A    between atoms: C_8  and  N_29
    3  A    between atoms: CA_13  and  C_17
    4  A    between atoms: CA_13  and  C_38
    5  A    between atoms: C_23  and  N_29
    6  A    between atoms: P_24  and  C_37
                            x       y       z     vdW  Elec       q    Type
                         _______ _______ _______ _____ _____    ______ ____

>  <TORSDO>
F 6

$$$$
=
 OpenBabel10232412263D

 38 43  0  0  1  0  0  0  0  0999 V2000
  187.5910  177.6090  137.2360 C   0  0  1  0  0  3  0  0  0  0  0  0
  186.9080  177.7870  138.5120 N   0  0  0  0  0  0  0  0  0  0  0  0
  186.5120  174.4070  136.5210 C   0  0  2  0  0  3  0  0  0  0  0  0
  189.3150  175.7910  137.4390 N   0  0  0  0  0  2  0  0  0  0  0  0
  184.7920  175.9180  137.4520 C   0  0  0  0  0  2  0  0  0  0  0  0
  189.6050  172.7790  136.9650 C   0  0  0  0  0  2  0  0  0  0  0  0
  184.9030  172.9470  137.5650 N   0  0  0  0  0  0  0  0  0  0  0  0
  192.6550  174.2580  135.3770 N   0  0  0  0  0  0  0  0  0  0  0  0
  188.1610  173.0800  136.7100 C   0  0  0  0  0  0  0  0  0  0  0  0
  193.6070  176.5160  135.1080 C   0  0  0  0  0  1  0  0  0  0  0  0
  187.7760  174.2250  136.1260 N   0  0  0  0  0  0  0  0  0  0  0  0
  192.5500  175.5930  135.6000 C   0  0  0  0  0  0  0  0  0  0  0  0
  187.9470  178.2780  139.4090 C   0  0  0  0  0  2  0  0  0  0  0  0
  189.2940  177.7630  138.9350 C   0  0  2  0  0  3  0  0  0  0  0  0
  187.1650  172.4460  137.3630 N   0  0  0  0  0  2  0  0  0  0  0  0
  186.0030  175.6410  136.6210 C   0  0  1  0  0  3  0  0  0  0  0  0
  189.0480  177.2270  137.5240 C   0  0  2  0  0  3  0  0  0  0  0  0
  190.4510  175.2410  136.7510 C   0  0  0  0  0  0  0  0  0  0  0  0
  183.6960  173.6870  137.3020 C   0  0  0  0  0  3  0  0  0  0  0  0
  191.4490  176.1040  136.2830 C   0  0  0  0  0  3  0  0  0  0  0  0
  191.7010  173.3860  135.8050 C   0  0  0  0  0  3  0  0  0  0  0  0
  186.1100  173.2690  137.1990 C   0  0  0  0  0  0  0  0  0  0  0  0
  183.6380  175.0110  137.1810 C   0  0  0  0  0  3  0  0  0  0  0  0
  190.5710  173.8430  136.4900 C   0  0  0  0  0  0  0  0  0  0  0  0
  186.8590  176.7480  136.2850 N   0  0  0  0  0  2  0  0  0  0  0  0
  189.7700  176.7470  139.8670 N   0  0  0  0  0  2  0  0  0  0  0  0
  190.0420  177.3990  141.1360 C   0  0  2  0  0  3  0  0  0  0  0  0
  191.5350  177.3380  141.4050 C   0  0  0  0  0  2  0  0  0  0  0  0
  190.5980  176.3820  142.1170 C   0  0  1  0  0  3  0  0  0  0  0  0
  191.4740  176.2490  144.8370 O   0  0  0  0  0  1  0  0  0  0  0  0
  188.9380  176.5460  144.2790 O   0  0  0  0  0  1  0  0  0  0  0  0
  190.4570  178.6470  143.9190 O   0  0  0  0  0  0  0  0  0  0  0  0
  190.3180  176.9600  143.8210 P   0  0  0  0  0  0  0  0  0  0  0  0
  185.9360  178.8670  138.3420 C   0  0  0  0  0  2  0  0  0  0  0  0
  185.1380  179.5190  140.5410 N   0  0  0  0  0  1  0  0  0  0  0  0
  184.7880  178.7670  139.3540 C   0  0  1  0  0  3  0  0  0  0  0  0
  183.4380  180.7000  138.9110 O   0  0  0  0  0  1  0  0  0  0  0  0
  183.4760  179.3040  138.7990 C   0  0  0  0  0  2  0  0  0  0  0  0
  1 25  1  6  0  0  0
  1 17  1  0  0  0  0
  1  2  1  0  0  0  0
  2 13  1  0  0  0  0
  3 11  1  1  0  0  0
  3 16  1  0  0  0  0
  3 22  1  0  0  0  0
  8 12  2  0  0  0  0
  8 21  1  0  0  0  0
  9  6  1  0  0  0  0
  9 15  1  0  0  0  0
 10 12  1  0  0  0  0
 11  9  2  0  0  0  0
 12 20  1  0  0  0  0
 14 13  1  0  0  0  0
 14 26  1  1  0  0  0
 16  5  1  1  0  0  0
 17  4  1  1  0  0  0
 17 14  1  0  0  0  0
 18  4  1  0  0  0  0
 19  7  1  0  0  0  0
 20 18  2  0  0  0  0
 21 24  2  0  0  0  0
 22 15  1  0  0  0  0
 22  7  2  0  0  0  0
 23 19  2  0  0  0  0
 23  5  1  0  0  0  0
 24 18  1  0  0  0  0
 24  6  1  0  0  0  0
 25 16  1  0  0  0  0
 27 26  1  6  0  0  0
 27 28  1  0  0  0  0
 27 29  1  0  0  0  0
 28 29  1  0  0  0  0
 29 33  1  1  0  0  0
 33 32  2  0  0  0  0
 33 31  1  0  0  0  0
 33 30  1  0  0  0  0
 34  2  1  0  0  0  0
 34 36  1  0  0  0  0
 36 35  1  1  0  0  0
 38 37  1  0  0  0  0
 38 36  1  0  0  0  0
M  END
>  <MODEL>
2

>  <REMARK>
 VINA RESULT:      -6.3      3.984      8.695
  Name = 
  6 active torsions:
  status: ('A' for Active; 'I' for Inactive)
    1  A    between atoms: N_2  and  C_38
    2  A    between atoms: C_8  and  N_29
    3  A    between atoms: CA_13  and  C_17
    4  A    between atoms: CA_13  and  C_38
    5  A    between atoms: C_23  and  N_29
    6  A    between atoms: P_24  and  C_37
                            x       y       z     vdW  Elec       q    Type
                         _______ _______ _______ _____ _____    ______ ____

>  <TORSDO>
F 6

$$$$
=
 OpenBabel10232412263D

 38 43  0  0  1  0  0  0  0  0999 V2000
  187.2870  177.9780  137.3570 C   0  0  1  0  0  3  0  0  0  0  0  0
  187.9470  176.6840  137.2200 N   0  0  0  0  0  0  0  0  0  0  0  0
  187.7480  178.4270  140.7500 C   0  0  2  0  0  3  0  0  0  0  0  0
  185.2370  177.7390  138.7910 N   0  0  0  0  0  2  0  0  0  0  0  0
  189.6950  177.5150  139.5320 C   0  0  0  0  0  2  0  0  0  0  0  0
  184.3830  178.0280  141.7180 C   0  0  0  0  0  2  0  0  0  0  0  0
  189.0050  177.2120  142.4100 N   0  0  0  0  0  0  0  0  0  0  0  0
  181.7360  179.8550  139.8040 N   0  0  0  0  0  0  0  0  0  0  0  0
  185.8660  178.2320  141.7190 C   0  0  0  0  0  0  0  0  0  0  0  0
  181.2520  180.3190  137.4320 C   0  0  0  0  0  1  0  0  0  0  0  0
  186.4870  178.8700  140.7160 N   0  0  0  0  0  0  0  0  0  0  0  0
  182.0920  179.7160  138.5020 C   0  0  0  0  0  0  0  0  0  0  0  0
  186.9930  175.8720  136.4730 C   0  0  0  0  0  2  0  0  0  0  0  0
  185.5890  176.3760  136.7550 C   0  0  2  0  0  3  0  0  0  0  0  0
  186.6970  177.4910  142.4820 N   0  0  0  0  0  2  0  0  0  0  0  0
  188.4830  178.3840  139.6320 C   0  0  1  0  0  3  0  0  0  0  0  0
  185.7750  177.7350  137.4300 C   0  0  2  0  0  3  0  0  0  0  0  0
  184.0410  178.4440  139.1620 C   0  0  0  0  0  0  0  0  0  0  0  0
  190.3400  177.4650  141.9370 C   0  0  0  0  0  3  0  0  0  0  0  0
  183.2470  179.0150  138.1620 C   0  0  0  0  0  3  0  0  0  0  0  0
  182.4880  179.3260  140.8080 C   0  0  0  0  0  3  0  0  0  0  0  0
  187.8960  177.6580  141.8910 C   0  0  0  0  0  0  0  0  0  0  0  0
  190.6600  177.6700  140.6600 C   0  0  0  0  0  3  0  0  0  0  0  0
  183.6600  178.6180  140.5270 C   0  0  0  0  0  0  0  0  0  0  0  0
  187.8700  178.8330  138.4100 N   0  0  0  0  0  2  0  0  0  0  0  0
  184.8920  175.4040  137.5890 N   0  0  0  0  0  2  0  0  0  0  0  0
  184.1800  174.4930  136.7110 C   0  0  2  0  0  3  0  0  0  0  0  0
  182.9280  174.0110  137.4220 C   0  0  0  0  0  2  0  0  0  0  0  0
  184.1450  173.1100  137.3390 C   0  0  1  0  0  3  0  0  0  0  0  0
  182.6110  172.3550  135.0460 O   0  0  0  0  0  0  0  0  0  0  0  0
  183.5300  170.5320  136.6780 O   0  0  0  0  0  1  0  0  0  0  0  0
  185.2850  171.6660  135.1000 O   0  0  0  0  0  1  0  0  0  0  0  0
  183.8890  171.8570  136.0430 P   0  0  0  0  0  0  0  0  0  0  0  0
  189.1160  176.8770  136.3610 C   0  0  0  0  0  2  0  0  0  0  0  0
  190.8200  175.7710  135.0310 N   0  0  0  0  0  1  0  0  0  0  0  0
  189.8370  175.5550  136.0720 C   0  0  1  0  0  3  0  0  0  0  0  0
  190.1350  173.6700  137.5260 O   0  0  0  0  0  1  0  0  0  0  0  0
  190.5370  174.9930  137.3020 C   0  0  0  0  0  2  0  0  0  0  0  0
  1 17  1  0  0  0  0
  1 25  1  1  0  0  0
  2  1  1  0  0  0  0
  3 11  1  6  0  0  0
  3 22  1  0  0  0  0
  4 18  1  0  0  0  0
  5 23  1  0  0  0  0
  6  9  1  0  0  0  0
  8 21  1  0  0  0  0
  9 15  1  0  0  0  0
 10 12  1  0  0  0  0
 11  9  2  0  0  0  0
 12  8  2  0  0  0  0
 13 14  1  0  0  0  0
 13  2  1  0  0  0  0
 14 17  1  0  0  0  0
 14 26  1  1  0  0  0
 16  5  1  6  0  0  0
 16  3  1  0  0  0  0
 17  4  1  1  0  0  0
 18 24  1  0  0  0  0
 19  7  1  0  0  0  0
 20 12  1  0  0  0  0
 20 18  2  0  0  0  0
 22  7  2  0  0  0  0
 22 15  1  0  0  0  0
 23 19  2  0  0  0  0
 24 21  2  0  0  0  0
 24  6  1  0  0  0  0
 25 16  1  0  0  0  0
 27 29  1  0  0  0  0
 27 28  1  0  0  0  0
 27 26  1  1  0  0  0
 29 33  1  6  0  0  0
 29 28  1  0  0  0  0
 30 33  2  0  0  0  0
 32 33  1  0  0  0  0
 33 31  1  0  0  0  0
 34  2  1  0  0  0  0
 36 35  1  6  0  0  0
 36 34  1  0  0  0  0
 36 38  1  0  0  0  0
 38 37  1  0  0  0  0
M  END
>  <MODEL>
3

>  <REMARK>
 VINA RESULT:      -6.2      1.264      1.503
  Name = 
  6 active torsions:
  status: ('A' for Active; 'I' for Inactive)
    1  A    between atoms: N_2  and  C_38
    2  A    between atoms: C_8  and  N_29
    3  A    between atoms: CA_13  and  C_17
    4  A    between atoms: CA_13  and  C_38
    5  A    between atoms: C_23  and  N_29
    6  A    between atoms: P_24  and  C_37
                            x       y       z     vdW  Elec       q    Type
                         _______ _______ _______ _____ _____    ______ ____

>  <TORSDO>
F 6

$$$$
=
 OpenBabel10232412263D

 38 43  0  0  1  0  0  0  0  0999 V2000
  187.9460  177.0560  136.0150 C   0  0  1  0  0  3  0  0  0  0  0  0
  187.1490  177.1150  137.2350 N   0  0  0  0  0  0  0  0  0  0  0  0
  187.3780  173.7500  135.1940 C   0  0  2  0  0  3  0  0  0  0  0  0
  189.8840  175.4890  136.3400 N   0  0  0  0  0  2  0  0  0  0  0  0
  185.3990  174.9940  135.9990 C   0  0  0  0  0  2  0  0  0  0  0  0
  190.6230  172.5540  135.8680 C   0  0  0  0  0  2  0  0  0  0  0  0
  185.9100  172.0640  136.0990 N   0  0  0  0  0  0  0  0  0  0  0  0
  193.5520  174.4660  134.5350 N   0  0  0  0  0  0  0  0  0  0  0  0
  189.1750  172.6590  135.5020 C   0  0  0  0  0  0  0  0  0  0  0  0
  194.2010  176.8370  134.3580 C   0  0  0  0  0  1  0  0  0  0  0  0
  188.6810  173.7500  134.8990 N   0  0  0  0  0  0  0  0  0  0  0  0
  193.2460  175.7690  134.7590 C   0  0  0  0  0  0  0  0  0  0  0  0
  188.0380  177.7280  138.2150 C   0  0  0  0  0  2  0  0  0  0  0  0
  189.4760  177.4110  137.8440 C   0  0  2  0  0  3  0  0  0  0  0  0
  188.2290  171.8820  136.0710 N   0  0  0  0  0  2  0  0  0  0  0  0
  186.6970  174.9010  135.2630 C   0  0  1  0  0  3  0  0  0  0  0  0
  189.4150  176.8730  136.4150 C   0  0  2  0  0  3  0  0  0  0  0  0
  191.1340  175.1130  135.7390 C   0  0  0  0  0  0  0  0  0  0  0  0
  184.6370  172.6360  135.7470 C   0  0  0  0  0  3  0  0  0  0  0  0
  192.0360  176.1120  135.3580 C   0  0  0  0  0  3  0  0  0  0  0  0
  192.6970  173.4640  134.8810 C   0  0  0  0  0  3  0  0  0  0  0  0
  187.0870  172.5550  135.8300 C   0  0  0  0  0  0  0  0  0  0  0  0
  184.4060  173.9420  135.6320 C   0  0  0  0  0  3  0  0  0  0  0  0
  191.4660  173.7490  135.4780 C   0  0  0  0  0  0  0  0  0  0  0  0
  187.4150  176.1200  135.0040 N   0  0  0  0  0  2  0  0  0  0  0  0
  190.0140  176.4540  138.8040 N   0  0  0  0  0  2  0  0  0  0  0  0
  190.0320  177.0910  140.1080 C   0  0  2  0  0  3  0  0  0  0  0  0
  191.4740  177.3520  140.5040 C   0  0  0  0  0  2  0  0  0  0  0  0
  190.7240  176.1800  141.1060 C   0  0  1  0  0  3  0  0  0  0  0  0
  188.6110  176.0210  143.0280 O   0  0  0  0  0  1  0  0  0  0  0  0
  190.1880  178.1050  142.9680 O   0  0  0  0  0  0  0  0  0  0  0  0
  191.2120  175.9050  143.9490 O   0  0  0  0  0  1  0  0  0  0  0  0
  190.1860  176.6030  142.7940 P   0  0  0  0  0  0  0  0  0  0  0  0
  186.0530  178.0550  136.9980 C   0  0  0  0  0  2  0  0  0  0  0  0
  184.9190  179.3410  138.7170 N   0  0  0  0  0  1  0  0  0  0  0  0
  185.0170  178.0220  138.1280 C   0  0  1  0  0  3  0  0  0  0  0  0
  182.9140  177.0130  138.6890 O   0  0  0  0  0  1  0  0  0  0  0  0
  183.6390  177.5960  137.6410 C   0  0  0  0  0  2  0  0  0  0  0  0
  1 25  1  6  0  0  0
  1 17  1  0  0  0  0
  1  2  1  0  0  0  0
  2 13  1  0  0  0  0
  3 11  1  1  0  0  0
  3 16  1  0  0  0  0
  3 22  1  0  0  0  0
  8 12  2  0  0  0  0
  8 21  1  0  0  0  0
  9  6  1  0  0  0  0
  9 15  1  0  0  0  0
 10 12  1  0  0  0  0
 11  9  2  0  0  0  0
 12 20  1  0  0  0  0
 14 13  1  0  0  0  0
 14 26  1  1  0  0  0
 16  5  1  1  0  0  0
 17  4  1  1  0  0  0
 17 14  1  0  0  0  0
 18  4  1  0  0  0  0
 19  7  1  0  0  0  0
 20 18  2  0  0  0  0
 21 24  2  0  0  0  0
 22 15  1  0  0  0  0
 22  7  2  0  0  0  0
 23 19  2  0  0  0  0
 23  5  1  0  0  0  0
 24 18  1  0  0  0  0
 24  6  1  0  0  0  0
 25 16  1  0  0  0  0
 27 26  1  6  0  0  0
 27 28  1  0  0  0  0
 27 29  1  0  0  0  0
 28 29  1  0  0  0  0
 29 33  1  1  0  0  0
 33 31  2  0  0  0  0
 33 30  1  0  0  0  0
 33 32  1  0  0  0  0
 34  2  1  0  0  0  0
 34 36  1  0  0  0  0
 36 35  1  6  0  0  0
 38 36  1  0  0  0  0
 38 37  1  0  0  0  0
M  END
>  <MODEL>
4

>  <REMARK>
 VINA RESULT:      -5.0      3.637      8.971
  Name = 
  6 active torsions:
  status: ('A' for Active; 'I' for Inactive)
    1  A    between atoms: N_2  and  C_38
    2  A    between atoms: C_8  and  N_29
    3  A    between atoms: CA_13  and  C_17
    4  A    between atoms: CA_13  and  C_38
    5  A    between atoms: C_23  and  N_29
    6  A    between atoms: P_24  and  C_37
                            x       y       z     vdW  Elec       q    Type
                         _______ _______ _______ _____ _____    ______ ____

>  <TORSDO>
F 6

$$$$
=
 OpenBabel10232412263D

 38 43  0  0  1  0  0  0  0  0999 V2000
  191.6320  173.8020  134.9010 C   0  0  1  0  0  3  0  0  0  0  0  0
  190.6020  173.3790  135.8430 N   0  0  0  0  0  0  0  0  0  0  0  0
  193.9700  171.3480  135.5690 C   0  0  2  0  0  3  0  0  0  0  0  0
  193.6800  174.5400  136.1570 N   0  0  0  0  0  2  0  0  0  0  0  0
  191.6260  170.5710  135.4510 C   0  0  0  0  0  2  0  0  0  0  0  0
  196.3490  173.4110  137.1500 C   0  0  0  0  0  2  0  0  0  0  0  0
  193.9100  169.3490  136.9150 N   0  0  0  0  0  0  0  0  0  0  0  0
  197.2700  176.6560  135.5280 N   0  0  0  0  0  0  0  0  0  0  0  0
  195.6140  172.2390  136.5780 C   0  0  0  0  0  0  0  0  0  0  0  0
  196.0670  178.4920  134.4040 C   0  0  0  0  0  1  0  0  0  0  0  0
  194.8400  172.3590  135.4890 N   0  0  0  0  0  0  0  0  0  0  0  0
  196.0910  177.1780  135.1020 C   0  0  0  0  0  0  0  0  0  0  0  0
  190.2490  174.5990  136.5590 C   0  0  0  0  0  2  0  0  0  0  0  0
  191.4500  175.5280  136.5730 C   0  0  2  0  0  3  0  0  0  0  0  0
  195.3670  171.1220  137.2950 N   0  0  0  0  0  2  0  0  0  0  0  0
  192.7520  171.4560  135.0220 C   0  0  1  0  0  3  0  0  0  0  0  0
  192.4190  174.9510  135.5410 C   0  0  2  0  0  3  0  0  0  0  0  0
  194.9170  175.2480  135.9670 C   0  0  0  0  0  0  0  0  0  0  0  0
  192.9440  168.5840  136.1720 C   0  0  0  0  0  3  0  0  0  0  0  0
  194.9020  176.4830  135.3100 C   0  0  0  0  0  3  0  0  0  0  0  0
  197.3290  175.4520  136.1600 C   0  0  0  0  0  3  0  0  0  0  0  0
  194.3550  170.5380  136.6230 C   0  0  0  0  0  0  0  0  0  0  0  0
  191.9550  169.1140  135.4560 C   0  0  0  0  0  3  0  0  0  0  0  0
  196.1690  174.7070  136.3900 C   0  0  0  0  0  0  0  0  0  0  0  0
  192.4260  172.6850  134.3500 N   0  0  0  0  0  2  0  0  0  0  0  0
  191.9990  175.5750  137.9230 N   0  0  0  0  0  2  0  0  0  0  0  0
  190.9510  176.0360  138.8160 C   0  0  2  0  0  3  0  0  0  0  0  0
  190.7250  177.5180  138.5770 C   0  0  0  0  0  2  0  0  0  0  0  0
  191.5240  177.0600  139.7810 C   0  0  1  0  0  3  0  0  0  0  0  0
  191.2770  178.0750  142.4430 O   0  0  0  0  0  1  0  0  0  0  0  0
  190.2600  175.7500  141.8180 O   0  0  0  0  0  1  0  0  0  0  0  0
  188.9820  177.8520  140.9240 O   0  0  0  0  0  0  0  0  0  0  0  0
  190.4820  177.1430  141.2720 P   0  0  0  0  0  0  0  0  0  0  0  0
  189.4300  172.9830  135.0610 C   0  0  0  0  0  2  0  0  0  0  0  0
  187.6210  174.4380  134.3480 N   0  0  0  0  0  1  0  0  0  0  0  0
  188.1710  173.7430  135.4940 C   0  0  1  0  0  3  0  0  0  0  0  0
  187.5240  172.3040  137.3010 O   0  0  0  0  0  1  0  0  0  0  0  0
  187.1040  172.8210  136.0690 C   0  0  0  0  0  2  0  0  0  0  0  0
  1 25  1  1  0  0  0
  1 17  1  0  0  0  0
  1  2  1  0  0  0  0
  2 13  1  0  0  0  0
  3 11  1  1  0  0  0
  3 22  1  0  0  0  0
  5 23  1  0  0  0  0
  8 21  1  0  0  0  0
  9  6  1  0  0  0  0
  9 15  1  0  0  0  0
 10 12  1  0  0  0  0
 11  9  2  0  0  0  0
 12 20  1  0  0  0  0
 12  8  2  0  0  0  0
 13 14  1  0  0  0  0
 14 26  1  1  0  0  0
 16  5  1  1  0  0  0
 16  3  1  0  0  0  0
 17  4  1  1  0  0  0
 17 14  1  0  0  0  0
 18  4  1  0  0  0  0
 18 24  1  0  0  0  0
 19  7  1  0  0  0  0
 20 18  2  0  0  0  0
 21 24  2  0  0  0  0
 22  7  2  0  0  0  0
 22 15  1  0  0  0  0
 23 19  2  0  0  0  0
 24  6  1  0  0  0  0
 25 16  1  0  0  0  0
 27 26  1  6  0  0  0
 27 29  1  0  0  0  0
 28 27  1  0  0  0  0
 28 29  1  0  0  0  0
 29 33  1  1  0  0  0
 32 33  2  0  0  0  0
 33 31  1  0  0  0  0
 33 30  1  0  0  0  0
 34 36  1  0  0  0  0
 34  2  1  0  0  0  0
 36 35  1  6  0  0  0
 36 38  1  0  0  0  0
 38 37  1  0  0  0  0
M  END
>  <MODEL>
5

>  <REMARK>
 VINA RESULT:      -4.7      6.207     10.847
  Name = 
  6 active torsions:
  status: ('A' for Active; 'I' for Inactive)
    1  A    between atoms: N_2  and  C_38
    2  A    between atoms: C_8  and  N_29
    3  A    between atoms: CA_13  and  C_17
    4  A    between atoms: CA_13  and  C_38
    5  A    between atoms: C_23  and  N_29
    6  A    between atoms: P_24  and  C_37
                            x       y       z     vdW  Elec       q    Type
                         _______ _______ _______ _____ _____    ______ ____

>  <TORSDO>
F 6

$$$$
=
 OpenBabel10232412263D

 38 43  0  0  1  0  0  0  0  0999 V2000
  187.1160  176.3970  136.1190 C   0  0  1  0  0  3  0  0  0  0  0  0
  187.7400  175.1270  136.4740 N   0  0  0  0  0  0  0  0  0  0  0  0
  187.9120  178.1720  138.9730 C   0  0  2  0  0  3  0  0  0  0  0  0
  185.2130  176.8770  137.6880 N   0  0  0  0  0  2  0  0  0  0  0  0
  189.7170  176.7360  138.0830 C   0  0  0  0  0  2  0  0  0  0  0  0
  184.6530  178.3850  140.2940 C   0  0  0  0  0  2  0  0  0  0  0  0
  189.3070  177.6780  140.8770 N   0  0  0  0  0  0  0  0  0  0  0  0
  181.8590  179.4080  138.0230 N   0  0  0  0  0  0  0  0  0  0  0  0
  186.1320  178.4920  140.0880 C   0  0  0  0  0  0  0  0  0  0  0  0
  181.1520  178.8840  135.7200 C   0  0  0  0  0  1  0  0  0  0  0  0
  186.6610  178.6280  138.8640 N   0  0  0  0  0  0  0  0  0  0  0  0
  182.0840  178.7280  136.8700 C   0  0  0  0  0  0  0  0  0  0  0  0
  186.7060  174.1330  136.2110 C   0  0  0  0  0  2  0  0  0  0  0  0
  185.3440  174.7830  136.3750 C   0  0  2  0  0  3  0  0  0  0  0  0
  187.0210  178.0850  141.0180 N   0  0  0  0  0  2  0  0  0  0  0  0
  188.5340  177.6350  137.9160 C   0  0  1  0  0  3  0  0  0  0  0  0
  185.6150  176.2870  136.4110 C   0  0  2  0  0  3  0  0  0  0  0  0
  184.0690  177.7360  137.8330 C   0  0  0  0  0  0  0  0  0  0  0  0
  190.5940  177.6420  140.2320 C   0  0  0  0  0  3  0  0  0  0  0  0
  183.1890  177.8880  136.7550 C   0  0  0  0  0  3  0  0  0  0  0  0
  182.6970  179.2960  139.0900 C   0  0  0  0  0  3  0  0  0  0  0  0
  188.1600  177.9300  140.3130 C   0  0  0  0  0  0  0  0  0  0  0  0
  190.7900  177.2880  138.9640 C   0  0  0  0  0  3  0  0  0  0  0  0
  183.8260  178.4740  139.0300 C   0  0  0  0  0  0  0  0  0  0  0  0
  187.8120  177.5760  136.6730 N   0  0  0  0  0  2  0  0  0  0  0  0
  184.7180  174.2760  137.5900 N   0  0  0  0  0  2  0  0  0  0  0  0
  183.5980  173.4390  137.2000 C   0  0  2  0  0  3  0  0  0  0  0  0
  183.1090  173.8850  135.8330 C   0  0  0  0  0  2  0  0  0  0  0  0
  182.3470  174.2930  137.0780 C   0  0  1  0  0  3  0  0  0  0  0  0
  181.3630  171.6250  137.3810 O   0  0  0  0  0  1  0  0  0  0  0  0
  179.9820  173.3970  136.0470 O   0  0  0  0  0  0  0  0  0  0  0  0
  179.9960  173.6610  138.6510 O   0  0  0  0  0  1  0  0  0  0  0  0
  180.8710  173.2420  137.2600 P   0  0  0  0  0  0  0  0  0  0  0  0
  188.8220  174.8880  135.5190 C   0  0  0  0  0  2  0  0  0  0  0  0
  189.4140  173.4150  137.3560 N   0  0  0  0  0  1  0  0  0  0  0  0
  189.8550  173.8930  136.0620 C   0  0  1  0  0  3  0  0  0  0  0  0
  188.9610  171.8310  135.2230 O   0  0  0  0  0  1  0  0  0  0  0  0
  190.0560  172.7000  135.1370 C   0  0  0  0  0  2  0  0  0  0  0  0
  1 17  1  0  0  0  0
  1  2  1  0  0  0  0
  1 25  1  1  0  0  0
  3 11  1  6  0  0  0
  3 22  1  0  0  0  0
  4 18  1  0  0  0  0
  5 23  1  0  0  0  0
  8 21  1  0  0  0  0
  9  6  1  0  0  0  0
  9 15  1  0  0  0  0
 10 12  1  0  0  0  0
 11  9  2  0  0  0  0
 12  8  2  0  0  0  0
 13 14  1  0  0  0  0
 13  2  1  0  0  0  0
 14 17  1  0  0  0  0
 14 26  1  1  0  0  0
 16  5  1  1  0  0  0
 16  3  1  0  0  0  0
 17  4  1  1  0  0  0
 18 24  1  0  0  0  0
 19  7  1  0  0  0  0
 20 12  1  0  0  0  0
 20 18  2  0  0  0  0
 22  7  2  0  0  0  0
 22 15  1  0  0  0  0
 23 19  2  0  0  0  0
 24 21  2  0  0  0  0
 24  6  1  0  0  0  0
 25 16  1  0  0  0  0
 27 26  1  1  0  0  0
 28 29  1  0  0  0  0
 28 27  1  0  0  0  0
 29 27  1  0  0  0  0
 29 33  1  6  0  0  0
 31 33  2  0  0  0  0
 33 30  1  0  0  0  0
 33 32  1  0  0  0  0
 34 36  1  0  0  0  0
 34  2  1  0  0  0  0
 36 35  1  1  0  0  0
 38 37  1  0  0  0  0
 38 36  1  0  0  0  0
M  END
>  <MODEL>
6

>  <REMARK>
 VINA RESULT:      -4.6      1.671      2.160
  Name = 
  6 active torsions:
  status: ('A' for Active; 'I' for Inactive)
    1  A    between atoms: N_2  and  C_38
    2  A    between atoms: C_8  and  N_29
    3  A    between atoms: CA_13  and  C_17
    4  A    between atoms: CA_13  and  C_38
    5  A    between atoms: C_23  and  N_29
    6  A    between atoms: P_24  and  C_37
                            x       y       z     vdW  Elec       q    Type
                         _______ _______ _______ _____ _____    ______ ____

>  <TORSDO>
F 6

$$$$
=
 OpenBabel10232412263D

 38 43  0  0  1  0  0  0  0  0999 V2000
  188.6730  176.2820  138.3190 C   0  0  1  0  0  3  0  0  0  0  0  0
  189.0630  177.6130  137.8670 N   0  0  0  0  0  0  0  0  0  0  0  0
  191.1290  174.4580  136.7140 C   0  0  2  0  0  3  0  0  0  0  0  0
  187.9210  174.9040  136.3570 N   0  0  0  0  0  2  0  0  0  0  0  0
  191.8890  176.5670  137.7550 C   0  0  0  0  0  2  0  0  0  0  0  0
  189.0470  172.8850  134.3470 C   0  0  0  0  0  2  0  0  0  0  0  0
  193.0930  175.0920  135.4690 N   0  0  0  0  0  0  0  0  0  0  0  0
  185.8510  171.3290  135.5200 N   0  0  0  0  0  0  0  0  0  0  0  0
  190.2270  173.3460  135.1440 C   0  0  0  0  0  0  0  0  0  0  0  0
  184.0350  171.9420  137.0700 C   0  0  0  0  0  1  0  0  0  0  0  0
  190.1280  173.6120  136.4550 N   0  0  0  0  0  0  0  0  0  0  0  0
  185.3300  172.2250  136.3970 C   0  0  0  0  0  0  0  0  0  0  0  0
  187.8230  178.2030  137.3780 C   0  0  0  0  0  2  0  0  0  0  0  0
  186.9040  177.0940  136.8970 C   0  0  2  0  0  3  0  0  0  0  0  0
  191.3230  173.8830  134.5670 N   0  0  0  0  0  2  0  0  0  0  0  0
  191.0250  175.3480  137.7090 C   0  0  1  0  0  3  0  0  0  0  0  0
  187.5140  175.8010  137.4380 C   0  0  2  0  0  3  0  0  0  0  0  0
  187.2280  173.6830  136.0440 C   0  0  0  0  0  0  0  0  0  0  0  0
  193.8680  175.6890  136.5240 C   0  0  0  0  0  3  0  0  0  0  0  0
  186.0100  173.4090  136.6740 C   0  0  0  0  0  3  0  0  0  0  0  0
  187.0400  171.5520  134.8950 C   0  0  0  0  0  3  0  0  0  0  0  0
  191.9160  174.5460  135.5790 C   0  0  0  0  0  0  0  0  0  0  0  0
  193.3480  176.2950  137.5900 C   0  0  0  0  0  3  0  0  0  0  0  0
  187.7690  172.7190  135.1400 C   0  0  0  0  0  0  0  0  0  0  0  0
  189.8100  175.3520  138.4800 N   0  0  0  0  0  2  0  0  0  0  0  0
  186.8280  177.1360  135.4420 N   0  0  0  0  0  2  0  0  0  0  0  0
  185.5520  176.5680  135.0450 C   0  0  2  0  0  3  0  0  0  0  0  0
  184.7360  177.6410  134.3470 C   0  0  0  0  0  2  0  0  0  0  0  0
  184.4310  177.2760  135.7860 C   0  0  1  0  0  3  0  0  0  0  0  0
  181.5950  177.1220  135.4540 O   0  0  0  0  0  1  0  0  0  0  0  0
  182.7970  175.6390  137.2390 O   0  0  0  0  0  1  0  0  0  0  0  0
  183.1040  174.9220  134.7400 O   0  0  0  0  0  0  0  0  0  0  0  0
  182.9630  176.2010  135.8440 P   0  0  0  0  0  0  0  0  0  0  0  0
  189.4690  178.3750  139.0480 C   0  0  0  0  0  2  0  0  0  0  0  0
  189.9620  177.3710  141.2020 N   0  0  0  0  0  1  0  0  0  0  0  0
  188.8800  177.7900  140.3360 C   0  0  1  0  0  3  0  0  0  0  0  0
  186.6920  178.7340  140.6120 O   0  0  0  0  0  1  0  0  0  0  0  0
  188.0090  178.7900  141.0850 C   0  0  0  0  0  2  0  0  0  0  0  0
  1 25  1  6  0  0  0
  2  1  1  0  0  0  0
  2 34  1  0  0  0  0
  3 22  1  6  0  0  0
  3 16  1  0  0  0  0
  6 24  1  0  0  0  0
  6  9  1  0  0  0  0
  7 22  2  0  0  0  0
  7 19  1  0  0  0  0
  8 12  1  0  0  0  0
  9 11  2  0  0  0  0
 11  3  1  0  0  0  0
 12 20  2  0  0  0  0
 12 10  1  0  0  0  0
 13  2  1  0  0  0  0
 14 26  1  6  0  0  0
 14 13  1  0  0  0  0
 14 17  1  0  0  0  0
 15  9  1  0  0  0  0
 15 22  1  0  0  0  0
 16  5  1  6  0  0  0
 16 25  1  0  0  0  0
 17  4  1  6  0  0  0
 17  1  1  0  0  0  0
 18  4  1  0  0  0  0
 18 20  1  0  0  0  0
 19 23  2  0  0  0  0
 21 24  1  0  0  0  0
 21  8  2  0  0  0  0
 23  5  1  0  0  0  0
 24 18  2  0  0  0  0
 27 26  1  1  0  0  0
 27 29  1  0  0  0  0
 28 27  1  0  0  0  0
 28 29  1  0  0  0  0
 29 33  1  6  0  0  0
 30 33  1  0  0  0  0
 32 33  2  0  0  0  0
 33 31  1  0  0  0  0
 34 36  1  0  0  0  0
 36 38  1  0  0  0  0
 36 35  1  1  0  0  0
 37 38  1  0  0  0  0
M  END
>  <MODEL>
7

>  <REMARK>
 VINA RESULT:      -4.4      3.500      6.716
  Name = 
  6 active torsions:
  status: ('A' for Active; 'I' for Inactive)
    1  A    between atoms: N_2  and  C_38
    2  A    between atoms: C_8  and  N_29
    3  A    between atoms: CA_13  and  C_17
    4  A    between atoms: CA_13  and  C_38
    5  A    between atoms: C_23  and  N_29
    6  A    between atoms: P_24  and  C_37
                            x       y       z     vdW  Elec       q    Type
                         _______ _______ _______ _____ _____    ______ ____

>  <TORSDO>
F 6

$$$$
=
 OpenBabel10232412263D

 38 43  0  0  1  0  0  0  0  0999 V2000
  189.4890  176.1590  138.8520 C   0  0  1  0  0  3  0  0  0  0  0  0
  189.9320  177.5220  138.5830 N   0  0  0  0  0  0  0  0  0  0  0  0
  191.5600  174.5040  136.6370 C   0  0  2  0  0  3  0  0  0  0  0  0
  188.3830  175.2060  136.8070 N   0  0  0  0  0  2  0  0  0  0  0  0
  192.6220  176.3400  137.9060 C   0  0  0  0  0  2  0  0  0  0  0  0
  189.0720  173.5150  134.3470 C   0  0  0  0  0  2  0  0  0  0  0  0
  193.4010  175.2290  135.2580 N   0  0  0  0  0  0  0  0  0  0  0  0
  185.9270  171.9750  135.6680 N   0  0  0  0  0  0  0  0  0  0  0  0
  190.3780  173.7510  135.0400 C   0  0  0  0  0  0  0  0  0  0  0  0
  184.3770  172.4110  137.5350 C   0  0  0  0  0  1  0  0  0  0  0  0
  190.4660  173.7820  136.3780 N   0  0  0  0  0  0  0  0  0  0  0  0
  185.5980  172.7300  136.7480 C   0  0  0  0  0  0  0  0  0  0  0  0
  188.6960  178.2670  138.3770 C   0  0  0  0  0  2  0  0  0  0  0  0
  187.6330  177.3220  137.8470 C   0  0  2  0  0  3  0  0  0  0  0  0
  191.4350  174.3140  134.4170 N   0  0  0  0  0  2  0  0  0  0  0  0
  191.6580  175.2060  137.7730 C   0  0  1  0  0  3  0  0  0  0  0  0
  188.1930  175.9170  138.0710 C   0  0  2  0  0  3  0  0  0  0  0  0
  187.5550  174.1070  136.3890 C   0  0  0  0  0  0  0  0  0  0  0  0
  194.3500  175.5770  136.2830 C   0  0  0  0  0  3  0  0  0  0  0  0
  186.4060  173.8000  137.1260 C   0  0  0  0  0  3  0  0  0  0  0  0
  187.0430  172.2330  134.9320 C   0  0  0  0  0  3  0  0  0  0  0  0
  192.2040  174.7460  135.4360 C   0  0  0  0  0  0  0  0  0  0  0  0
  194.0200  176.0120  137.4970 C   0  0  0  0  0  3  0  0  0  0  0  0
  187.8940  173.2890  135.2690 C   0  0  0  0  0  0  0  0  0  0  0  0
  190.5530  175.1470  138.6940 N   0  0  0  0  0  2  0  0  0  0  0  0
  187.3790  177.6300  136.4440 N   0  0  0  0  0  2  0  0  0  0  0  0
  185.9780  177.9880  136.3130 C   0  0  2  0  0  3  0  0  0  0  0  0
  185.2980  177.8000  137.6570 C   0  0  0  0  0  2  0  0  0  0  0  0
  185.1170  176.7630  136.5660 C   0  0  1  0  0  3  0  0  0  0  0  0
  182.7210  175.4780  135.6800 O   0  0  0  0  0  1  0  0  0  0  0  0
  183.6720  177.5380  134.3820 O   0  0  0  0  0  0  0  0  0  0  0  0
  182.5210  178.0460  136.6770 O   0  0  0  0  0  1  0  0  0  0  0  0
  183.4910  176.9850  135.7780 P   0  0  0  0  0  0  0  0  0  0  0  0
  190.5460  178.0330  139.8090 C   0  0  0  0  0  2  0  0  0  0  0  0
  191.1190  176.9000  141.8780 N   0  0  0  0  0  1  0  0  0  0  0  0
  190.0050  177.3260  141.0570 C   0  0  1  0  0  3  0  0  0  0  0  0
  187.7540  177.8890  141.6660 O   0  0  0  0  0  1  0  0  0  0  0  0
  189.0960  178.2240  141.8860 C   0  0  0  0  0  2  0  0  0  0  0  0
  1 25  1  6  0  0  0
  2  1  1  0  0  0  0
  2 34  1  0  0  0  0
  3 22  1  6  0  0  0
  3 16  1  0  0  0  0
  6  9  1  0  0  0  0
  6 24  1  0  0  0  0
  7 22  2  0  0  0  0
  7 19  1  0  0  0  0
  8 12  1  0  0  0  0
  9 11  2  0  0  0  0
 11  3  1  0  0  0  0
 12 20  2  0  0  0  0
 12 10  1  0  0  0  0
 13  2  1  0  0  0  0
 14 26  1  6  0  0  0
 14 17  1  0  0  0  0
 14 13  1  0  0  0  0
 15  9  1  0  0  0  0
 15 22  1  0  0  0  0
 16  5  1  6  0  0  0
 16 25  1  0  0  0  0
 17  4  1  6  0  0  0
 17  1  1  0  0  0  0
 18  4  1  0  0  0  0
 18 20  1  0  0  0  0
 19 23  2  0  0  0  0
 21 24  1  0  0  0  0
 21  8  2  0  0  0  0
 23  5  1  0  0  0  0
 24 18  2  0  0  0  0
 27 26  1  1  0  0  0
 27 29  1  0  0  0  0
 27 28  1  0  0  0  0
 29 33  1  6  0  0  0
 29 28  1  0  0  0  0
 30 33  1  0  0  0  0
 31 33  2  0  0  0  0
 33 32  1  0  0  0  0
 34 36  1  0  0  0  0
 36 35  1  1  0  0  0
 36 38  1  0  0  0  0
 37 38  1  0  0  0  0
M  END
>  <MODEL>
8

>  <REMARK>
 VINA RESULT:      -4.0      3.532      6.922
  Name = 
  6 active torsions:
  status: ('A' for Active; 'I' for Inactive)
    1  A    between atoms: N_2  and  C_38
    2  A    between atoms: C_8  and  N_29
    3  A    between atoms: CA_13  and  C_17
    4  A    between atoms: CA_13  and  C_38
    5  A    between atoms: C_23  and  N_29
    6  A    between atoms: P_24  and  C_37
                            x       y       z     vdW  Elec       q    Type
                         _______ _______ _______ _____ _____    ______ ____

>  <TORSDO>
F 6

$$$$
=
 OpenBabel10232412263D

 38 43  0  0  1  0  0  0  0  0999 V2000
  187.2510  178.4310  138.1700 C   0  0  1  0  0  3  0  0  0  0  0  0
  186.1830  178.3620  139.1620 N   0  0  0  0  0  0  0  0  0  0  0  0
  186.4190  175.6290  136.3300 C   0  0  2  0  0  3  0  0  0  0  0  0
  188.7760  176.4500  138.4240 N   0  0  0  0  0  2  0  0  0  0  0  0
  184.5120  177.0380  137.0300 C   0  0  0  0  0  2  0  0  0  0  0  0
  189.1580  173.6310  137.2900 C   0  0  0  0  0  2  0  0  0  0  0  0
  184.5290  174.1330  136.3840 N   0  0  0  0  0  0  0  0  0  0  0  0
  192.5880  175.1280  137.2050 N   0  0  0  0  0  0  0  0  0  0  0  0
  187.8880  174.1330  136.6770 C   0  0  0  0  0  0  0  0  0  0  0  0
  193.6130  177.2720  137.8590 C   0  0  0  0  0  1  0  0  0  0  0  0
  187.7390  175.4180  136.3250 N   0  0  0  0  0  0  0  0  0  0  0  0
  192.4360  176.3720  137.7270 C   0  0  0  0  0  0  0  0  0  0  0  0
  186.8700  178.5110  140.4390 C   0  0  0  0  0  2  0  0  0  0  0  0
  188.2900  177.9900  140.3000 C   0  0  2  0  0  3  0  0  0  0  0  0
  186.7200  173.4650  136.7880 N   0  0  0  0  0  2  0  0  0  0  0  0
  185.9270  176.8480  136.5850 C   0  0  1  0  0  3  0  0  0  0  0  0
  188.5200  177.8420  138.7960 C   0  0  2  0  0  3  0  0  0  0  0  0
  190.0680  175.9700  138.0130 C   0  0  0  0  0  0  0  0  0  0  0  0
  183.4930  175.0350  135.9550 C   0  0  0  0  0  3  0  0  0  0  0  0
  191.1790  176.8120  138.1330 C   0  0  0  0  0  3  0  0  0  0  0  0
  191.5310  174.2820  137.0610 C   0  0  0  0  0  3  0  0  0  0  0  0
  185.7950  174.4080  136.5190 C   0  0  0  0  0  0  0  0  0  0  0  0
  183.5000  176.3480  136.1760 C   0  0  0  0  0  3  0  0  0  0  0  0
  190.2450  174.6730  137.4450 C   0  0  0  0  0  0  0  0  0  0  0  0
  186.8640  177.9080  136.8440 N   0  0  0  0  0  2  0  0  0  0  0  0
  188.4090  176.7340  141.0320 N   0  0  0  0  0  2  0  0  0  0  0  0
  188.8520  177.0440  142.3800 C   0  0  2  0  0  3  0  0  0  0  0  0
  189.3390  178.4820  142.4140 C   0  0  0  0  0  2  0  0  0  0  0  0
  190.3410  177.3450  142.3660 C   0  0  1  0  0  3  0  0  0  0  0  0
  189.7670  177.0580  145.1520 O   0  0  0  0  0  1  0  0  0  0  0  0
  191.9870  178.1960  144.3720 O   0  0  0  0  0  1  0  0  0  0  0  0
  191.8620  175.5950  144.1040 O   0  0  0  0  0  0  0  0  0  0  0  0
  191.0340  177.0730  144.0270 P   0  0  0  0  0  0  0  0  0  0  0  0
  185.3420  179.5460  138.9830 C   0  0  0  0  0  2  0  0  0  0  0  0
  182.9540  179.9820  139.0440 N   0  0  0  0  0  1  0  0  0  0  0  0
  184.0620  179.4700  139.8240 C   0  0  1  0  0  3  0  0  0  0  0  0
  182.4500  177.6940  139.8510 O   0  0  0  0  0  1  0  0  0  0  0  0
  183.7400  178.0490  140.2650 C   0  0  0  0  0  2  0  0  0  0  0  0
  1 25  1  6  0  0  0
  1 17  1  0  0  0  0
  1  2  1  0  0  0  0
  2 13  1  0  0  0  0
  3 11  1  1  0  0  0
  3 22  1  0  0  0  0
  3 16  1  0  0  0  0
  6 24  1  0  0  0  0
  7 22  2  0  0  0  0
  8 12  1  0  0  0  0
  9 15  1  0  0  0  0
  9  6  1  0  0  0  0
 11  9  2  0  0  0  0
 12 10  1  0  0  0  0
 12 20  2  0  0  0  0
 14 13  1  0  0  0  0
 14 26  1  1  0  0  0
 16 25  1  0  0  0  0
 16  5  1  1  0  0  0
 17  4  1  1  0  0  0
 17 14  1  0  0  0  0
 18 20  1  0  0  0  0
 18  4  1  0  0  0  0
 19 23  2  0  0  0  0
 19  7  1  0  0  0  0
 21  8  2  0  0  0  0
 21 24  1  0  0  0  0
 22 15  1  0  0  0  0
 23  5  1  0  0  0  0
 24 18  2  0  0  0  0
 27 26  1  6  0  0  0
 27 28  1  0  0  0  0
 29 27  1  0  0  0  0
 29 28  1  0  0  0  0
 29 33  1  1  0  0  0
 33 32  2  0  0  0  0
 33 31  1  0  0  0  0
 33 30  1  0  0  0  0
 34  2  1  0  0  0  0
 34 36  1  0  0  0  0
 36 35  1  6  0  0  0
 36 38  1  0  0  0  0
 37 38  1  0  0  0  0
M  END
>  <MODEL>
9

>  <REMARK>
 VINA RESULT:      -3.9      3.531      8.580
  Name = 
  6 active torsions:
  status: ('A' for Active; 'I' for Inactive)
    1  A    between atoms: N_2  and  C_38
    2  A    between atoms: C_8  and  N_29
    3  A    between atoms: CA_13  and  C_17
    4  A    between atoms: CA_13  and  C_38
    5  A    between atoms: C_23  and  N_29
    6  A    between atoms: P_24  and  C_37
                            x       y       z     vdW  Elec       q    Type
                         _______ _______ _______ _____ _____    ______ ____

>  <TORSDO>
F 6

$$$$
