=
 OpenBabel10232411293D

 54 57  0  0  1  0  0  0  0  0999 V2000
  189.5240  177.5230  141.1570 C   0  0  0  0  0  0  0  0  0  0  0  0
  189.0490  177.9510  137.4260 C   0  0  0  0  0  0  0  0  0  0  0  0
  189.4050  177.3600  136.3250 N   0  0  0  0  0  0  0  0  0  0  0  0
  190.5210  175.6570  135.2060 O   0  0  0  0  0  0  0  0  0  0  0  0
  190.3210  176.2600  136.2930 C   0  0  0  0  0  0  0  0  0  0  0  0
  190.4800  176.4180  138.7830 C   0  0  0  0  0  0  0  0  0  0  0  0
  190.4480  176.4720  141.1620 C   0  0  0  0  0  3  0  0  0  0  0  0
  191.0660  175.8290  137.5290 C   0  0  2  0  0  3  0  0  0  0  0  0
  189.0710  178.0090  139.9310 C   0  0  0  0  0  3  0  0  0  0  0  0
  190.9040  175.9540  139.9900 N   0  0  0  0  0  0  0  0  0  0  0  0
  189.5450  177.4650  138.7320 C   0  0  0  0  0  0  0  0  0  0  0  0
  194.8510  175.7470  137.0130 N   0  0  0  0  0  2  0  0  0  0  0  0
  192.4680  176.2110  137.4270 N   0  0  0  0  0  2  0  0  0  0  0  0
  193.5050  175.2780  137.1190 C   0  0  0  0  0  0  0  0  0  0  0  0
  193.2320  174.0580  136.9550 O   0  0  0  0  0  0  0  0  0  0  0  0
  196.6070  174.1450  137.5300 C   0  0  0  0  0  0  0  0  0  0  0  0
  196.6870  174.9090  135.3620 C   0  0  0  0  0  2  0  0  0  0  0  0
  195.9860  174.9390  136.6790 C   0  0  0  0  0  0  0  0  0  0  0  0
  197.7990  173.9960  135.6020 N   0  0  0  0  0  0  0  0  0  0  0  0
  197.7440  173.5720  136.8170 C   0  0  0  0  0  0  0  0  0  0  0  0
  198.5890  171.2720  137.1630 C   0  0  0  0  0  1  0  0  0  0  0  0
  198.6910  172.6770  137.3210 O   0  0  0  0  0  0  0  0  0  0  0  0
  197.1430  174.8680  139.8280 C   0  0  0  0  0  1  0  0  0  0  0  0
  196.2560  173.9820  138.9730 C   0  0  0  0  0  2  0  0  0  0  0  0
  188.9690  178.1170  142.4190 C   0  0  0  0  0  2  0  0  0  0  0  0
  189.6780  177.6480  143.6030 N   0  0  0  0  0  0  0  0  0  0  0  0
  191.5390  179.0400  143.7430 O   0  0  0  0  0  1  0  0  0  0  0  0
  190.2530  178.8200  144.2420 C   0  0  0  0  0  2  0  0  0  0  0  0
  188.6640  177.1280  144.5030 C   0  0  0  0  0  2  0  0  0  0  0  0
  187.3160  177.7350  144.1740 C   0  0  0  0  0  2  0  0  0  0  0  0
  186.3760  177.3580  145.1340 O   0  0  0  0  0  0  0  0  0  0  0  0
  186.1550  178.7780  146.1090 P   0  0  1  0  0  0  0  0  0  0  0  0
  184.6010  178.2990  146.7190 O   0  0  0  0  0  1  0  0  0  0  0  0
  187.1160  178.1410  147.5660 C   0  0  0  0  0  1  0  0  0  0  0  0
  188.0630  179.0690  137.3540 C   0  0  0  0  0  2  0  0  0  0  0  0
  186.8710  178.6530  136.5170 C   0  0  0  0  0  2  0  0  0  0  0  0
  186.1150  177.5830  137.2180 C   0  0  0  0  0  3  0  0  0  0  0  0
  184.8360  177.3900  136.9310 C   0  0  0  0  0  3  0  0  0  0  0  0
  184.1100  176.3520  137.5810 N   0  0  0  0  0  2  0  0  0  0  0  0
  183.2550  177.0740  139.6320 O   0  0  0  0  0  0  0  0  0  0  0  0
  180.2050  176.6270  139.8630 C   0  0  0  0  0  2  0  0  0  0  0  0
  182.9590  179.1640  140.8310 C   0  0  2  0  0  3  0  0  0  0  0  0
  181.6140  178.6910  141.3770 C   0  0  0  0  0  2  0  0  0  0  0  0
  181.9640  175.4720  138.3950 C   0  0  0  0  0  0  0  0  0  0  0  0
  182.3100  174.3710  137.8840 O   0  0  0  0  0  0  0  0  0  0  0  0
  180.6470  175.5790  138.9540 N   0  0  0  0  0  2  0  0  0  0  0  0
  180.1540  178.2460  139.0250 S   0  0  0  0  0  0  0  0  0  0  0  0
  183.3480  178.4700  139.5290 C   0  0  0  0  0  2  0  0  0  0  0  0
  182.9050  176.6540  138.3450 C   0  0  2  0  0  3  0  0  0  0  0  0
  180.4240  179.1970  140.5630 C   0  0  0  0  0  2  0  0  0  0  0  0
  184.2500  178.9290  142.0880 P   0  0  0  0  0  0  0  0  0  0  0  0
  184.4950  177.4540  142.3090 O   0  0  0  0  0  1  0  0  0  0  0  0
  185.6830  179.6650  141.5730 O   0  0  0  0  0  0  0  0  0  0  0  0
  183.7520  179.6360  143.5400 O   0  0  0  0  0  1  0  0  0  0  0  0
  1  7  1  0  0  0  0
  1 25  1  0  0  0  0
  2 11  1  0  0  0  0
  3  2  2  0  0  0  0
  4  5  2  0  0  0  0
  5  3  1  0  0  0  0
  5  8  1  0  0  0  0
  6 10  1  0  0  0  0
  8 13  1  6  0  0  0
  8  6  1  0  0  0  0
  9  1  2  0  0  0  0
 10  7  2  0  0  0  0
 11  6  2  0  0  0  0
 11  9  1  0  0  0  0
 12 14  1  0  0  0  0
 14 13  1  0  0  0  0
 15 14  2  0  0  0  0
 16 24  1  0  0  0  0
 17 19  1  0  0  0  0
 17 18  1  0  0  0  0
 18 12  1  0  0  0  0
 18 16  2  0  0  0  0
 19 20  2  0  0  0  0
 20 22  1  0  0  0  0
 20 16  1  0  0  0  0
 21 22  1  0  0  0  0
 24 23  1  0  0  0  0
 25 26  1  0  0  0  0
 26 28  1  0  0  0  0
 26 29  1  0  0  0  0
 27 28  1  0  0  0  0
 30 29  1  0  0  0  0
 30 31  1  0  0  0  0
 31 32  1  0  0  0  0
 32 33  1  0  0  0  0
 32 34  1  1  0  0  0
 35  2  1  0  0  0  0
 36 37  1  0  0  0  0
 36 35  1  0  0  0  0
 38 37  2  0  0  0  0
 38 39  1  0  0  0  0
 42 43  1  0  0  0  0
 42 51  1  1  0  0  0
 44 46  1  0  0  0  0
 45 44  2  0  0  0  0
 46 41  1  0  0  0  0
 47 41  1  0  0  0  0
 47 50  1  0  0  0  0
 48 40  1  0  0  0  0
 48 42  1  0  0  0  0
 49 39  1  6  0  0  0
 49 44  1  0  0  0  0
 49 40  1  0  0  0  0
 50 43  1  0  0  0  0
 51 52  1  0  0  0  0
 51 54  1  0  0  0  0
 53 51  2  0  0  0  0
M  END
>  <MODEL>
1

>  <REMARK>
 VINA RESULT:      -6.9      0.000      0.000
  Name = 
  17 active torsions:
  status: ('A' for Active; 'I' for Inactive)
    1  A    between atoms: C_1  and  C_13
    2  A    between atoms: C_2  and  C_9
    3  A    between atoms: P_3  and  C_35
    4  A    between atoms: C_4  and  C_27
    5  A    between atoms: C_4  and  N_36
    6  A    between atoms: C_9  and  C_49
    7  A    between atoms: N_10  and  C_25
    8  A    between atoms: C_11  and  C_14
    9  A    between atoms: C_13  and  N_36
   10  A    between atoms: N_15  and  C_30
   11  A    between atoms: C_20  and  C_49
   12  A    between atoms: C_21  and  N_24
   13  A    between atoms: N_24  and  C_50
   14  A    between atoms: C_27  and  O_54
   15  A    between atoms: P_28  and  O_54
   16  A    between atoms: O_33  and  C_51
   17  A    between atoms: N_36  and  C_42
                            x       y       z     vdW  Elec       q    Type
                         _______ _______ _______ _____ _____    ______ ____

>  <TORSDO>
F 17

$$$$
=
 OpenBabel10232411293D

 54 57  0  0  1  0  0  0  0  0999 V2000
  190.4060  177.6330  143.8060 C   0  0  0  0  0  0  0  0  0  0  0  0
  188.2480  178.1600  140.7410 C   0  0  0  0  0  0  0  0  0  0  0  0
  188.1060  177.6560  139.5520 N   0  0  0  0  0  0  0  0  0  0  0  0
  188.7160  176.1310  137.9090 O   0  0  0  0  0  0  0  0  0  0  0  0
  188.9880  176.6630  139.0160 C   0  0  0  0  0  0  0  0  0  0  0  0
  190.2540  176.7360  141.1710 C   0  0  0  0  0  0  0  0  0  0  0  0
  191.3090  176.6890  143.3040 C   0  0  0  0  0  3  0  0  0  0  0  0
  190.2460  176.2650  139.7420 C   0  0  2  0  0  3  0  0  0  0  0  0
  189.4070  178.1170  142.9620 C   0  0  0  0  0  3  0  0  0  0  0  0
  191.2180  176.2710  142.0130 N   0  0  0  0  0  0  0  0  0  0  0  0
  189.3210  177.6770  141.6370 C   0  0  0  0  0  0  0  0  0  0  0  0
  193.3150  176.6400  137.4970 N   0  0  0  0  0  2  0  0  0  0  0  0
  191.4120  176.8010  139.0520 N   0  0  0  0  0  2  0  0  0  0  0  0
  192.2030  176.0250  138.1500 C   0  0  0  0  0  0  0  0  0  0  0  0
  191.9250  174.8120  137.9460 O   0  0  0  0  0  0  0  0  0  0  0  0
  195.0890  175.1020  136.8590 C   0  0  0  0  0  0  0  0  0  0  0  0
  194.2320  176.2850  135.0820 C   0  0  0  0  0  2  0  0  0  0  0  0
  194.1750  176.0010  136.5460 C   0  0  0  0  0  0  0  0  0  0  0  0
  195.3190  175.4280  134.6230 N   0  0  0  0  0  0  0  0  0  0  0  0
  195.7900  174.7680  135.6240 C   0  0  0  0  0  0  0  0  0  0  0  0
  198.2070  174.2530  135.4950 C   0  0  0  0  0  1  0  0  0  0  0  0
  196.8440  173.8640  135.4710 O   0  0  0  0  0  0  0  0  0  0  0  0
  195.1230  173.1420  138.3590 C   0  0  0  0  0  1  0  0  0  0  0  0
  195.3980  174.6300  138.2430 C   0  0  0  0  0  2  0  0  0  0  0  0
  190.4450  178.1120  145.2280 C   0  0  0  0  0  2  0  0  0  0  0  0
  190.0750  177.0620  146.1690 N   0  0  0  0  0  0  0  0  0  0  0  0
  192.0050  175.8620  146.6750 O   0  0  0  0  0  1  0  0  0  0  0  0
  191.1870  176.9140  147.0940 C   0  0  0  0  0  2  0  0  0  0  0  0
  188.9530  177.5780  146.9330 C   0  0  0  0  0  2  0  0  0  0  0  0
  187.6490  177.1950  146.2630 C   0  0  0  0  0  2  0  0  0  0  0  0
  187.0250  178.3330  145.7490 O   0  0  0  0  0  0  0  0  0  0  0  0
  185.4510  178.3350  146.4820 P   0  0  1  0  0  0  0  0  0  0  0  0
  185.7130  179.7910  147.3930 O   0  0  0  0  0  1  0  0  0  0  0  0
  184.5960  179.1720  145.0600 C   0  0  0  0  0  1  0  0  0  0  0  0
  187.2530  179.1670  141.2180 C   0  0  0  0  0  2  0  0  0  0  0  0
  186.0220  178.4630  141.7490 C   0  0  0  0  0  2  0  0  0  0  0  0
  184.8020  179.1880  141.3070 C   0  0  0  0  0  3  0  0  0  0  0  0
  183.9750  178.6120  140.4460 C   0  0  0  0  0  3  0  0  0  0  0  0
  182.7910  179.2880  140.0350 N   0  0  0  0  0  2  0  0  0  0  0  0
  183.1100  178.3110  137.9370 O   0  0  0  0  0  0  0  0  0  0  0  0
  180.9660  179.1860  135.8890 C   0  0  0  0  0  2  0  0  0  0  0  0
  183.0380  176.0970  136.9450 C   0  0  2  0  0  3  0  0  0  0  0  0
  182.4160  176.6580  135.6710 C   0  0  0  0  0  2  0  0  0  0  0  0
  181.7950  180.3180  138.0370 C   0  0  0  0  0  0  0  0  0  0  0  0
  182.0510  181.4290  138.5780 O   0  0  0  0  0  0  0  0  0  0  0  0
  181.0570  180.3120  136.8080 N   0  0  0  0  0  2  0  0  0  0  0  0
  180.0440  177.8010  136.6350 S   0  0  0  0  0  0  0  0  0  0  0  0
  182.7750  176.9690  138.1690 C   0  0  0  0  0  2  0  0  0  0  0  0
  182.2080  179.0350  138.7230 C   0  0  2  0  0  3  0  0  0  0  0  0
  180.8940  176.5260  135.6370 C   0  0  0  0  0  2  0  0  0  0  0  0
  184.8240  175.8600  136.7060 P   0  0  0  0  0  0  0  0  0  0  0  0
  185.2630  174.5580  137.3360 O   0  0  0  0  0  1  0  0  0  0  0  0
  185.1760  175.8300  135.0520 O   0  0  0  0  0  0  0  0  0  0  0  0
  185.6590  177.1400  137.4300 O   0  0  0  0  0  1  0  0  0  0  0  0
  1 25  1  0  0  0  0
  2 35  1  0  0  0  0
  2 11  1  0  0  0  0
  3  2  2  0  0  0  0
  4  5  2  0  0  0  0
  5  3  1  0  0  0  0
  5  8  1  0  0  0  0
  6 11  2  0  0  0  0
  6 10  1  0  0  0  0
  7  1  1  0  0  0  0
  8 13  1  6  0  0  0
  8  6  1  0  0  0  0
  9  1  2  0  0  0  0
 10  7  2  0  0  0  0
 11  9  1  0  0  0  0
 12 14  1  0  0  0  0
 14 13  1  0  0  0  0
 15 14  2  0  0  0  0
 16 24  1  0  0  0  0
 17 18  1  0  0  0  0
 18 16  2  0  0  0  0
 18 12  1  0  0  0  0
 19 17  1  0  0  0  0
 19 20  2  0  0  0  0
 20 16  1  0  0  0  0
 22 21  1  0  0  0  0
 22 20  1  0  0  0  0
 24 23  1  0  0  0  0
 25 26  1  0  0  0  0
 26 29  1  0  0  0  0
 26 28  1  0  0  0  0
 27 28  1  0  0  0  0
 30 29  1  0  0  0  0
 31 30  1  0  0  0  0
 31 32  1  0  0  0  0
 32 34  1  6  0  0  0
 32 33  1  0  0  0  0
 35 36  1  0  0  0  0
 37 36  1  0  0  0  0
 38 37  2  0  0  0  0
 39 38  1  0  0  0  0
 40 48  1  0  0  0  0
 40 49  1  0  0  0  0
 41 47  1  0  0  0  0
 41 46  1  0  0  0  0
 42 51  1  6  0  0  0
 42 48  1  0  0  0  0
 43 42  1  0  0  0  0
 44 45  2  0  0  0  0
 44 49  1  0  0  0  0
 46 44  1  0  0  0  0
 49 39  1  1  0  0  0
 50 43  1  0  0  0  0
 50 47  1  0  0  0  0
 51 52  1  0  0  0  0
 51 54  1  0  0  0  0
 53 51  2  0  0  0  0
M  END
>  <MODEL>
2

>  <REMARK>
 VINA RESULT:      -6.8      2.559      3.750
  Name = 
  17 active torsions:
  status: ('A' for Active; 'I' for Inactive)
    1  A    between atoms: C_1  and  C_13
    2  A    between atoms: C_2  and  C_9
    3  A    between atoms: P_3  and  C_35
    4  A    between atoms: C_4  and  C_27
    5  A    between atoms: C_4  and  N_36
    6  A    between atoms: C_9  and  C_49
    7  A    between atoms: N_10  and  C_25
    8  A    between atoms: C_11  and  C_14
    9  A    between atoms: C_13  and  N_36
   10  A    between atoms: N_15  and  C_30
   11  A    between atoms: C_20  and  C_49
   12  A    between atoms: C_21  and  N_24
   13  A    between atoms: N_24  and  C_50
   14  A    between atoms: C_27  and  O_54
   15  A    between atoms: P_28  and  O_54
   16  A    between atoms: O_33  and  C_51
   17  A    between atoms: N_36  and  C_42
                            x       y       z     vdW  Elec       q    Type
                         _______ _______ _______ _____ _____    ______ ____

>  <TORSDO>
F 17

$$$$
=
 OpenBabel10232411293D

 54 57  0  0  1  0  0  0  0  0999 V2000
  190.0040  177.6180  140.9230 C   0  0  0  0  0  0  0  0  0  0  0  0
  190.3190  176.3100  137.3850 C   0  0  0  0  0  0  0  0  0  0  0  0
  189.7750  176.5080  136.2220 N   0  0  0  0  0  0  0  0  0  0  0  0
  188.2500  177.6060  134.8560 O   0  0  0  0  0  0  0  0  0  0  0  0
  188.6440  177.3650  136.0260 C   0  0  0  0  0  0  0  0  0  0  0  0
  188.6830  177.8480  138.4790 C   0  0  0  0  0  0  0  0  0  0  0  0
  188.8780  178.4360  140.7770 C   0  0  0  0  0  3  0  0  0  0  0  0
  187.9050  177.9590  137.1970 C   0  0  2  0  0  3  0  0  0  0  0  0
  190.4710  176.9190  139.8110 C   0  0  0  0  0  3  0  0  0  0  0  0
  188.2470  178.5270  139.5760 N   0  0  0  0  0  0  0  0  0  0  0  0
  189.8160  177.0230  138.5790 C   0  0  0  0  0  0  0  0  0  0  0  0
  184.1960  177.2890  137.8280 N   0  0  0  0  0  2  0  0  0  0  0  0
  186.6140  177.3030  137.3580 N   0  0  0  0  0  2  0  0  0  0  0  0
  185.4260  178.0090  137.7180 C   0  0  0  0  0  0  0  0  0  0  0  0
  185.4700  179.2490  137.9460 O   0  0  0  0  0  0  0  0  0  0  0  0
  182.4500  177.9820  139.3740 C   0  0  0  0  0  0  0  0  0  0  0  0
  181.9110  178.3560  137.1690 C   0  0  0  0  0  2  0  0  0  0  0  0
  182.9240  177.8640  138.1480 C   0  0  0  0  0  0  0  0  0  0  0  0
  180.7950  178.7500  138.0210 N   0  0  0  0  0  0  0  0  0  0  0  0
  181.1070  178.5400  139.2530 C   0  0  0  0  0  0  0  0  0  0  0  0
  179.9830  177.9520  141.3770 C   0  0  0  0  0  1  0  0  0  0  0  0
  180.2190  178.8320  140.2910 O   0  0  0  0  0  0  0  0  0  0  0  0
  184.0360  178.6050  141.1590 C   0  0  0  0  0  1  0  0  0  0  0  0
  183.1360  177.5110  140.6150 C   0  0  0  0  0  2  0  0  0  0  0  0
  190.7530  177.4980  142.2180 C   0  0  0  0  0  2  0  0  0  0  0  0
  189.8700  177.1840  143.3340 N   0  0  0  0  0  0  0  0  0  0  0  0
  190.4010  174.9310  143.0880 O   0  0  0  0  0  1  0  0  0  0  0  0
  189.3470  175.8490  143.0960 C   0  0  0  0  0  2  0  0  0  0  0  0
  190.7170  177.1050  144.5120 C   0  0  0  0  0  2  0  0  0  0  0  0
  190.0130  177.7260  145.7010 C   0  0  0  0  0  2  0  0  0  0  0  0
  190.1440  176.9010  146.8180 O   0  0  0  0  0  0  0  0  0  0  0  0
  188.6220  177.0400  147.6430 P   0  0  1  0  0  0  0  0  0  0  0  0
  189.0110  178.5450  148.4190 O   0  0  0  0  0  1  0  0  0  0  0  0
  187.7170  177.8110  146.2150 C   0  0  0  0  0  1  0  0  0  0  0  0
  191.5160  175.4230  137.4760 C   0  0  0  0  0  2  0  0  0  0  0  0
  191.8150  174.8190  136.1200 C   0  0  0  0  0  2  0  0  0  0  0  0
  193.1500  175.2750  135.6520 C   0  0  0  0  0  3  0  0  0  0  0  0
  193.8810  174.4800  134.8830 C   0  0  0  0  0  3  0  0  0  0  0  0
  195.1510  174.9180  134.4100 N   0  0  0  0  0  2  0  0  0  0  0  0
  196.0790  173.5050  136.0230 O   0  0  0  0  0  0  0  0  0  0  0  0
  199.0390  174.1700  136.6120 C   0  0  0  0  0  2  0  0  0  0  0  0
  196.6430  171.1550  136.2570 C   0  0  2  0  0  3  0  0  0  0  0  0
  197.9080  171.5090  137.0340 C   0  0  0  0  0  2  0  0  0  0  0  0
  197.1530  175.6200  135.6520 C   0  0  0  0  0  0  0  0  0  0  0  0
  196.6660  176.7830  135.6260 O   0  0  0  0  0  0  0  0  0  0  0  0
  198.4670  175.4430  136.1980 N   0  0  0  0  0  2  0  0  0  0  0  0
  199.3130  173.0740  135.1810 S   0  0  0  0  0  0  0  0  0  0  0  0
  196.1740  172.2820  135.3410 C   0  0  0  0  0  2  0  0  0  0  0  0
  196.3790  174.4670  135.0530 C   0  0  2  0  0  3  0  0  0  0  0  0
  199.1610  171.5380  136.1610 C   0  0  0  0  0  2  0  0  0  0  0  0
  195.3220  170.6830  137.4120 P   0  0  0  0  0  0  0  0  0  0  0  0
  193.9990  170.6090  136.6830 O   0  0  0  0  0  0  0  0  0  0  0  0
  195.6740  169.1750  138.0910 O   0  0  0  0  0  1  0  0  0  0  0  0
  195.2170  171.8370  138.6430 O   0  0  0  0  0  1  0  0  0  0  0  0
  1 25  1  0  0  0  0
  2 35  1  0  0  0  0
  2 11  1  0  0  0  0
  3  2  2  0  0  0  0
  4  5  2  0  0  0  0
  5  3  1  0  0  0  0
  5  8  1  0  0  0  0
  6 11  2  0  0  0  0
  6 10  1  0  0  0  0
  7  1  1  0  0  0  0
  8 13  1  1  0  0  0
  8  6  1  0  0  0  0
  9  1  2  0  0  0  0
 10  7  2  0  0  0  0
 11  9  1  0  0  0  0
 12 18  1  0  0  0  0
 13 14  1  0  0  0  0
 14 12  1  0  0  0  0
 14 15  2  0  0  0  0
 16 24  1  0  0  0  0
 17 19  1  0  0  0  0
 17 18  1  0  0  0  0
 18 16  2  0  0  0  0
 19 20  2  0  0  0  0
 20 16  1  0  0  0  0
 20 22  1  0  0  0  0
 22 21  1  0  0  0  0
 24 23  1  0  0  0  0
 25 26  1  0  0  0  0
 26 29  1  0  0  0  0
 27 28  1  0  0  0  0
 28 26  1  0  0  0  0
 29 30  1  0  0  0  0
 30 31  1  0  0  0  0
 31 32  1  0  0  0  0
 32 34  1  6  0  0  0
 32 33  1  0  0  0  0
 36 35  1  0  0  0  0
 37 36  1  0  0  0  0
 38 37  2  0  0  0  0
 39 38  1  0  0  0  0
 42 43  1  0  0  0  0
 42 51  1  1  0  0  0
 44 46  1  0  0  0  0
 45 44  2  0  0  0  0
 46 41  1  0  0  0  0
 47 50  1  0  0  0  0
 47 41  1  0  0  0  0
 48 40  1  0  0  0  0
 48 42  1  0  0  0  0
 49 39  1  1  0  0  0
 49 44  1  0  0  0  0
 49 40  1  0  0  0  0
 50 43  1  0  0  0  0
 51 53  1  0  0  0  0
 51 54  1  0  0  0  0
 52 51  2  0  0  0  0
M  END
>  <MODEL>
3

>  <REMARK>
 VINA RESULT:      -6.6      4.105     11.612
  Name = 
  17 active torsions:
  status: ('A' for Active; 'I' for Inactive)
    1  A    between atoms: C_1  and  C_13
    2  A    between atoms: C_2  and  C_9
    3  A    between atoms: P_3  and  C_35
    4  A    between atoms: C_4  and  C_27
    5  A    between atoms: C_4  and  N_36
    6  A    between atoms: C_9  and  C_49
    7  A    between atoms: N_10  and  C_25
    8  A    between atoms: C_11  and  C_14
    9  A    between atoms: C_13  and  N_36
   10  A    between atoms: N_15  and  C_30
   11  A    between atoms: C_20  and  C_49
   12  A    between atoms: C_21  and  N_24
   13  A    between atoms: N_24  and  C_50
   14  A    between atoms: C_27  and  O_54
   15  A    between atoms: P_28  and  O_54
   16  A    between atoms: O_33  and  C_51
   17  A    between atoms: N_36  and  C_42
                            x       y       z     vdW  Elec       q    Type
                         _______ _______ _______ _____ _____    ______ ____

>  <TORSDO>
F 17

$$$$
=
 OpenBabel10232411293D

 54 57  0  0  1  0  0  0  0  0999 V2000
  189.2800  177.5970  140.6400 C   0  0  0  0  0  0  0  0  0  0  0  0
  188.8850  177.6930  136.8760 C   0  0  0  0  0  0  0  0  0  0  0  0
  189.3200  177.0480  135.8350 N   0  0  0  0  0  0  0  0  0  0  0  0
  190.6000  175.3590  134.8830 O   0  0  0  0  0  0  0  0  0  0  0  0
  190.3200  176.0260  135.9130 C   0  0  0  0  0  0  0  0  0  0  0  0
  190.3910  176.3910  138.3860 C   0  0  0  0  0  0  0  0  0  0  0  0
  190.2840  176.6290  140.7510 C   0  0  0  0  0  3  0  0  0  0  0  0
  191.0590  175.7560  137.1980 C   0  0  2  0  0  3  0  0  0  0  0  0
  188.8270  177.9480  139.3680 C   0  0  0  0  0  3  0  0  0  0  0  0
  190.8140  176.0590  139.6360 N   0  0  0  0  0  0  0  0  0  0  0  0
  189.3780  177.3520  138.2290 C   0  0  0  0  0  0  0  0  0  0  0  0
  194.8200  175.9910  136.5620 N   0  0  0  0  0  2  0  0  0  0  0  0
  192.4290  176.2410  137.0980 N   0  0  0  0  0  2  0  0  0  0  0  0
  193.5110  175.4230  136.6530 C   0  0  0  0  0  0  0  0  0  0  0  0
  193.3110  174.2130  136.3570 O   0  0  0  0  0  0  0  0  0  0  0  0
  196.7640  174.5620  136.8710 C   0  0  0  0  0  0  0  0  0  0  0  0
  196.5630  175.3660  134.7260 C   0  0  0  0  0  2  0  0  0  0  0  0
  195.9910  175.3050  136.1030 C   0  0  0  0  0  0  0  0  0  0  0  0
  197.7760  174.5640  134.8380 N   0  0  0  0  0  0  0  0  0  0  0  0
  197.8780  174.1160  136.0410 C   0  0  0  0  0  0  0  0  0  0  0  0
  198.8250  171.9220  136.6840 C   0  0  0  0  0  1  0  0  0  0  0  0
  198.9520  173.3120  136.4300 O   0  0  0  0  0  0  0  0  0  0  0  0
  195.7420  173.0900  138.5680 C   0  0  0  0  0  1  0  0  0  0  0  0
  196.5700  174.3400  138.3360 C   0  0  0  0  0  2  0  0  0  0  0  0
  188.6420  178.2420  141.8360 C   0  0  0  0  0  2  0  0  0  0  0  0
  187.7570  177.3250  142.5440 N   0  0  0  0  0  0  0  0  0  0  0  0
  189.3490  178.0490  144.0800 O   0  0  0  0  0  1  0  0  0  0  0  0
  188.3340  177.1140  143.8610 C   0  0  0  0  0  2  0  0  0  0  0  0
  186.5060  178.0370  142.7380 C   0  0  0  0  0  2  0  0  0  0  0  0
  186.2730  179.0010  141.5920 C   0  0  0  0  0  2  0  0  0  0  0  0
  184.9740  179.5070  141.6500 O   0  0  0  0  0  0  0  0  0  0  0  0
  184.0270  178.3810  140.7280 P   0  0  1  0  0  0  0  0  0  0  0  0
  182.5240  178.7850  141.5000 O   0  0  0  0  0  1  0  0  0  0  0  0
  183.7820  179.5090  139.2710 C   0  0  0  0  0  1  0  0  0  0  0  0
  187.8160  178.7180  136.6910 C   0  0  0  0  0  2  0  0  0  0  0  0
  186.7770  178.2090  135.7130 C   0  0  0  0  0  2  0  0  0  0  0  0
  185.6450  177.6000  136.4570 C   0  0  0  0  0  3  0  0  0  0  0  0
  184.5140  177.3280  135.8200 C   0  0  0  0  0  3  0  0  0  0  0  0
  183.4320  176.7220  136.5190 N   0  0  0  0  0  2  0  0  0  0  0  0
  184.2050  174.5750  136.0140 O   0  0  0  0  0  0  0  0  0  0  0  0
  181.9280  172.6730  135.1480 C   0  0  0  0  0  2  0  0  0  0  0  0
  185.2220  172.7010  137.1740 C   0  0  2  0  0  3  0  0  0  0  0  0
  184.4190  171.7110  136.3350 C   0  0  0  0  0  2  0  0  0  0  0  0
  182.0850  175.2340  135.1000 C   0  0  0  0  0  0  0  0  0  0  0  0
  181.7680  176.2680  134.4510 O   0  0  0  0  0  0  0  0  0  0  0  0
  181.4550  173.9930  134.7540 N   0  0  0  0  0  2  0  0  0  0  0  0
  181.7800  172.4310  136.9490 S   0  0  0  0  0  0  0  0  0  0  0  0
  184.5570  174.0710  137.2750 C   0  0  0  0  0  2  0  0  0  0  0  0
  183.0580  175.3380  136.2520 C   0  0  2  0  0  3  0  0  0  0  0  0
  183.1500  171.2230  137.0310 C   0  0  0  0  0  2  0  0  0  0  0  0
  186.9030  172.8580  136.5020 P   0  0  0  0  0  0  0  0  0  0  0  0
  187.3160  174.3120  136.4740 O   0  0  0  0  0  1  0  0  0  0  0  0
  187.9840  171.9860  137.4670 O   0  0  0  0  0  1  0  0  0  0  0  0
  186.9360  172.2380  134.9290 O   0  0  0  0  0  0  0  0  0  0  0  0
  1  7  1  0  0  0  0
  1 25  1  0  0  0  0
  2 11  1  0  0  0  0
  3  5  1  0  0  0  0
  3  2  2  0  0  0  0
  4  5  2  0  0  0  0
  5  8  1  0  0  0  0
  6 10  1  0  0  0  0
  8 13  1  6  0  0  0
  8  6  1  0  0  0  0
  9  1  2  0  0  0  0
 10  7  2  0  0  0  0
 11  6  2  0  0  0  0
 11  9  1  0  0  0  0
 12 14  1  0  0  0  0
 14 13  1  0  0  0  0
 15 14  2  0  0  0  0
 16 24  1  0  0  0  0
 17 19  1  0  0  0  0
 17 18  1  0  0  0  0
 18 12  1  0  0  0  0
 18 16  2  0  0  0  0
 19 20  2  0  0  0  0
 20 22  1  0  0  0  0
 20 16  1  0  0  0  0
 22 21  1  0  0  0  0
 24 23  1  0  0  0  0
 25 26  1  0  0  0  0
 26 29  1  0  0  0  0
 26 28  1  0  0  0  0
 28 27  1  0  0  0  0
 30 31  1  0  0  0  0
 30 29  1  0  0  0  0
 32 34  1  6  0  0  0
 32 33  1  0  0  0  0
 32 31  1  0  0  0  0
 35  2  1  0  0  0  0
 36 37  1  0  0  0  0
 36 35  1  0  0  0  0
 38 37  2  0  0  0  0
 38 39  1  0  0  0  0
 40 49  1  0  0  0  0
 40 48  1  0  0  0  0
 41 47  1  0  0  0  0
 42 51  1  6  0  0  0
 42 48  1  0  0  0  0
 43 50  1  0  0  0  0
 43 42  1  0  0  0  0
 44 49  1  0  0  0  0
 45 44  2  0  0  0  0
 46 44  1  0  0  0  0
 46 41  1  0  0  0  0
 47 50  1  0  0  0  0
 49 39  1  6  0  0  0
 51 53  1  0  0  0  0
 52 51  1  0  0  0  0
 54 51  2  0  0  0  0
M  END
>  <MODEL>
4

>  <REMARK>
 VINA RESULT:      -6.6      2.665      4.256
  Name = 
  17 active torsions:
  status: ('A' for Active; 'I' for Inactive)
    1  A    between atoms: C_1  and  C_13
    2  A    between atoms: C_2  and  C_9
    3  A    between atoms: P_3  and  C_35
    4  A    between atoms: C_4  and  C_27
    5  A    between atoms: C_4  and  N_36
    6  A    between atoms: C_9  and  C_49
    7  A    between atoms: N_10  and  C_25
    8  A    between atoms: C_11  and  C_14
    9  A    between atoms: C_13  and  N_36
   10  A    between atoms: N_15  and  C_30
   11  A    between atoms: C_20  and  C_49
   12  A    between atoms: C_21  and  N_24
   13  A    between atoms: N_24  and  C_50
   14  A    between atoms: C_27  and  O_54
   15  A    between atoms: P_28  and  O_54
   16  A    between atoms: O_33  and  C_51
   17  A    between atoms: N_36  and  C_42
                            x       y       z     vdW  Elec       q    Type
                         _______ _______ _______ _____ _____    ______ ____

>  <TORSDO>
F 17

$$$$
=
 OpenBabel10232411293D

 54 57  0  0  1  0  0  0  0  0999 V2000
  189.4590  177.5500  140.9170 C   0  0  0  0  0  0  0  0  0  0  0  0
  188.9460  177.8620  137.1790 C   0  0  0  0  0  0  0  0  0  0  0  0
  189.3370  177.2710  136.0910 N   0  0  0  0  0  0  0  0  0  0  0  0
  190.5610  175.6210  135.0050 O   0  0  0  0  0  0  0  0  0  0  0  0
  190.3240  176.2330  136.0790 C   0  0  0  0  0  0  0  0  0  0  0  0
  190.4790  176.4580  138.5640 C   0  0  0  0  0  0  0  0  0  0  0  0
  190.4510  176.5630  140.9420 C   0  0  0  0  0  3  0  0  0  0  0  0
  191.1000  175.8810  137.3220 C   0  0  2  0  0  3  0  0  0  0  0  0
  188.9710  177.9770  139.6830 C   0  0  0  0  0  3  0  0  0  0  0  0
  190.9370  176.0500  139.7800 N   0  0  0  0  0  0  0  0  0  0  0  0
  189.4760  177.4390  138.4940 C   0  0  0  0  0  0  0  0  0  0  0  0
  194.8510  176.0840  136.6210 N   0  0  0  0  0  2  0  0  0  0  0  0
  192.4730  176.3530  137.2050 N   0  0  0  0  0  2  0  0  0  0  0  0
  193.5370  175.5290  136.7270 C   0  0  0  0  0  0  0  0  0  0  0  0
  193.3180  174.3270  136.4160 O   0  0  0  0  0  0  0  0  0  0  0  0
  196.7580  174.5940  136.8610 C   0  0  0  0  0  0  0  0  0  0  0  0
  196.5810  175.5080  134.7580 C   0  0  0  0  0  2  0  0  0  0  0  0
  196.0050  175.3930  136.1300 C   0  0  0  0  0  0  0  0  0  0  0  0
  197.7740  174.6720  134.8320 N   0  0  0  0  0  0  0  0  0  0  0  0
  197.8620  174.1620  136.0110 C   0  0  0  0  0  0  0  0  0  0  0  0
  199.4710  172.3610  135.4700 C   0  0  0  0  0  1  0  0  0  0  0  0
  198.9140  173.3130  136.3620 O   0  0  0  0  0  0  0  0  0  0  0  0
  195.7320  173.0410  138.4820 C   0  0  0  0  0  1  0  0  0  0  0  0
  196.5540  174.3050  138.3130 C   0  0  0  0  0  2  0  0  0  0  0  0
  188.8690  178.1350  142.1670 C   0  0  0  0  0  2  0  0  0  0  0  0
  189.2260  177.3650  143.3530 N   0  0  0  0  0  0  0  0  0  0  0  0
  190.7320  179.0360  143.9550 O   0  0  0  0  0  1  0  0  0  0  0  0
  189.6070  178.3230  144.3780 C   0  0  0  0  0  2  0  0  0  0  0  0
  188.0040  176.7240  143.8040 C   0  0  0  0  0  2  0  0  0  0  0  0
  187.5100  177.3840  145.0760 C   0  0  0  0  0  2  0  0  0  0  0  0
  186.1900  177.8050  144.9130 O   0  0  0  0  0  0  0  0  0  0  0  0
  185.9490  178.9810  146.1680 P   0  0  1  0  0  0  0  0  0  0  0  0
  184.4160  178.3430  146.6770 O   0  0  0  0  0  1  0  0  0  0  0  0
  186.9460  178.0760  147.4490 C   0  0  0  0  0  1  0  0  0  0  0  0
  187.8870  178.9100  137.0870 C   0  0  0  0  0  2  0  0  0  0  0  0
  186.7360  178.4070  136.2400 C   0  0  0  0  0  2  0  0  0  0  0  0
  185.9070  177.4620  137.0320 C   0  0  0  0  0  3  0  0  0  0  0  0
  184.6390  177.2660  136.6980 C   0  0  0  0  0  3  0  0  0  0  0  0
  183.8430  176.3450  137.4360 N   0  0  0  0  0  2  0  0  0  0  0  0
  184.5720  174.4970  136.2050 O   0  0  0  0  0  0  0  0  0  0  0  0
  182.2340  172.7040  135.2720 C   0  0  0  0  0  2  0  0  0  0  0  0
  185.8680  172.4780  136.5730 C   0  0  2  0  0  3  0  0  0  0  0  0
  184.9470  171.6860  135.6510 C   0  0  0  0  0  2  0  0  0  0  0  0
  182.2880  175.1840  135.9280 C   0  0  0  0  0  0  0  0  0  0  0  0
  181.8090  176.3230  135.6720 O   0  0  0  0  0  0  0  0  0  0  0  0
  181.6440  174.0320  135.3660 N   0  0  0  0  0  2  0  0  0  0  0  0
  182.4650  171.9680  136.9240 S   0  0  0  0  0  0  0  0  0  0  0  0
  185.1900  173.7020  137.1820 C   0  0  0  0  0  2  0  0  0  0  0  0
  183.4710  175.0580  136.8600 C   0  0  2  0  0  3  0  0  0  0  0  0
  183.8640  170.9130  136.4020 C   0  0  0  0  0  2  0  0  0  0  0  0
  187.3700  172.9640  135.6730 P   0  0  0  0  0  0  0  0  0  0  0  0
  187.2440  174.3900  135.1860 O   0  0  0  0  0  1  0  0  0  0  0  0
  188.7110  172.8380  136.6970 O   0  0  0  0  0  1  0  0  0  0  0  0
  187.5840  171.9380  134.3470 O   0  0  0  0  0  0  0  0  0  0  0  0
  1  7  1  0  0  0  0
  1 25  1  0  0  0  0
  2 11  1  0  0  0  0
  3  2  2  0  0  0  0
  4  5  2  0  0  0  0
  5  3  1  0  0  0  0
  5  8  1  0  0  0  0
  6 10  1  0  0  0  0
  8 13  1  6  0  0  0
  8  6  1  0  0  0  0
  9  1  2  0  0  0  0
 10  7  2  0  0  0  0
 11  6  2  0  0  0  0
 11  9  1  0  0  0  0
 12 14  1  0  0  0  0
 14 13  1  0  0  0  0
 15 14  2  0  0  0  0
 16 24  1  0  0  0  0
 17 19  1  0  0  0  0
 17 18  1  0  0  0  0
 18 12  1  0  0  0  0
 18 16  2  0  0  0  0
 19 20  2  0  0  0  0
 20 22  1  0  0  0  0
 20 16  1  0  0  0  0
 21 22  1  0  0  0  0
 24 23  1  0  0  0  0
 25 26  1  0  0  0  0
 26 29  1  0  0  0  0
 26 28  1  0  0  0  0
 27 28  1  0  0  0  0
 29 30  1  0  0  0  0
 31 30  1  0  0  0  0
 31 32  1  0  0  0  0
 32 33  1  0  0  0  0
 32 34  1  1  0  0  0
 35  2  1  0  0  0  0
 36 37  1  0  0  0  0
 36 35  1  0  0  0  0
 38 37  2  0  0  0  0
 38 39  1  0  0  0  0
 40 49  1  0  0  0  0
 40 48  1  0  0  0  0
 41 46  1  0  0  0  0
 41 47  1  0  0  0  0
 42 51  1  6  0  0  0
 42 48  1  0  0  0  0
 43 50  1  0  0  0  0
 43 42  1  0  0  0  0
 44 49  1  0  0  0  0
 45 44  2  0  0  0  0
 46 44  1  0  0  0  0
 49 39  1  6  0  0  0
 50 47  1  0  0  0  0
 51 53  1  0  0  0  0
 52 51  1  0  0  0  0
 54 51  2  0  0  0  0
M  END
>  <MODEL>
5

>  <REMARK>
 VINA RESULT:      -6.5      2.594      3.983
  Name = 
  17 active torsions:
  status: ('A' for Active; 'I' for Inactive)
    1  A    between atoms: C_1  and  C_13
    2  A    between atoms: C_2  and  C_9
    3  A    between atoms: P_3  and  C_35
    4  A    between atoms: C_4  and  C_27
    5  A    between atoms: C_4  and  N_36
    6  A    between atoms: C_9  and  C_49
    7  A    between atoms: N_10  and  C_25
    8  A    between atoms: C_11  and  C_14
    9  A    between atoms: C_13  and  N_36
   10  A    between atoms: N_15  and  C_30
   11  A    between atoms: C_20  and  C_49
   12  A    between atoms: C_21  and  N_24
   13  A    between atoms: N_24  and  C_50
   14  A    between atoms: C_27  and  O_54
   15  A    between atoms: P_28  and  O_54
   16  A    between atoms: O_33  and  C_51
   17  A    between atoms: N_36  and  C_42
                            x       y       z     vdW  Elec       q    Type
                         _______ _______ _______ _____ _____    ______ ____

>  <TORSDO>
F 17

$$$$
=
 OpenBabel10232411293D

 54 57  0  0  1  0  0  0  0  0999 V2000
  189.4480  177.5810  140.9410 C   0  0  0  0  0  0  0  0  0  0  0  0
  189.1610  177.8010  137.1720 C   0  0  0  0  0  0  0  0  0  0  0  0
  189.6010  177.1730  136.1240 N   0  0  0  0  0  0  0  0  0  0  0  0
  190.8480  175.4680  135.1550 O   0  0  0  0  0  0  0  0  0  0  0  0
  190.5630  176.1150  136.1970 C   0  0  0  0  0  0  0  0  0  0  0  0
  190.5790  176.4040  138.6810 C   0  0  0  0  0  0  0  0  0  0  0  0
  190.4150  176.5750  141.0490 C   0  0  0  0  0  3  0  0  0  0  0  0
  191.2570  175.7800  137.4920 C   0  0  2  0  0  3  0  0  0  0  0  0
  189.0430  177.9850  139.6690 C   0  0  0  0  0  3  0  0  0  0  0  0
  190.9560  176.0200  139.9310 N   0  0  0  0  0  0  0  0  0  0  0  0
  189.6040  177.4040  138.5260 C   0  0  0  0  0  0  0  0  0  0  0  0
  195.0480  175.8810  137.0210 N   0  0  0  0  0  2  0  0  0  0  0  0
  192.6450  176.2200  137.4440 N   0  0  0  0  0  2  0  0  0  0  0  0
  193.7190  175.3570  137.0660 C   0  0  0  0  0  0  0  0  0  0  0  0
  193.4920  174.1480  136.7890 O   0  0  0  0  0  0  0  0  0  0  0  0
  196.7760  174.2020  137.3610 C   0  0  0  0  0  0  0  0  0  0  0  0
  197.0190  175.3680  135.3930 C   0  0  0  0  0  2  0  0  0  0  0  0
  196.2150  175.1480  136.6310 C   0  0  0  0  0  0  0  0  0  0  0  0
  198.1180  174.4220  135.5420 N   0  0  0  0  0  0  0  0  0  0  0  0
  197.9720  173.7730  136.6450 C   0  0  0  0  0  0  0  0  0  0  0  0
  199.6990  172.0780  136.1270 C   0  0  0  0  0  1  0  0  0  0  0  0
  198.8870  172.7940  137.0420 O   0  0  0  0  0  0  0  0  0  0  0  0
  196.9140  174.6600  139.7820 C   0  0  0  0  0  1  0  0  0  0  0  0
  196.3130  173.7660  138.7130 C   0  0  0  0  0  2  0  0  0  0  0  0
  188.8000  178.2120  142.1380 C   0  0  0  0  0  2  0  0  0  0  0  0
  188.9490  177.3940  143.3350 N   0  0  0  0  0  0  0  0  0  0  0  0
  190.9880  177.4830  144.4560 O   0  0  0  0  0  1  0  0  0  0  0  0
  189.7750  178.1490  144.2630 C   0  0  0  0  0  2  0  0  0  0  0  0
  187.6260  177.2960  143.9280 C   0  0  0  0  0  2  0  0  0  0  0  0
  186.6280  178.0820  143.1020 C   0  0  0  0  0  2  0  0  0  0  0  0
  185.3290  177.6880  143.4220 O   0  0  0  0  0  0  0  0  0  0  0  0
  184.5230  179.1600  143.8660 P   0  0  1  0  0  0  0  0  0  0  0  0
  182.9970  178.4000  144.2000 O   0  0  0  0  0  1  0  0  0  0  0  0
  185.1090  179.1560  145.6300 C   0  0  0  0  0  1  0  0  0  0  0  0
  188.1330  178.8690  136.9910 C   0  0  0  0  0  2  0  0  0  0  0  0
  186.9510  178.3200  136.2180 C   0  0  0  0  0  2  0  0  0  0  0  0
  186.3760  177.1570  136.9420 C   0  0  0  0  0  3  0  0  0  0  0  0
  185.9610  176.1000  136.2570 C   0  0  0  0  0  3  0  0  0  0  0  0
  185.4310  174.9710  136.9440 N   0  0  0  0  0  2  0  0  0  0  0  0
  183.2590  175.3290  137.7260 O   0  0  0  0  0  0  0  0  0  0  0  0
  181.2630  173.2110  136.6820 C   0  0  0  0  0  2  0  0  0  0  0  0
  181.5010  176.9860  137.4860 C   0  0  2  0  0  3  0  0  0  0  0  0
  180.4350  175.8960  137.4870 C   0  0  0  0  0  2  0  0  0  0  0  0
  183.8120  173.1210  136.9630 C   0  0  0  0  0  0  0  0  0  0  0  0
  184.7840  172.3770  137.2690 O   0  0  0  0  0  0  0  0  0  0  0  0
  182.5400  172.5100  136.7120 N   0  0  0  0  0  2  0  0  0  0  0  0
  181.1740  174.3550  135.2650 S   0  0  0  0  0  0  0  0  0  0  0  0
  182.8670  176.4820  137.0290 C   0  0  0  0  0  2  0  0  0  0  0  0
  184.0250  174.6090  136.8040 C   0  0  2  0  0  3  0  0  0  0  0  0
  179.9930  175.4850  136.0840 C   0  0  0  0  0  2  0  0  0  0  0  0
  181.6200  177.7340  139.1390 P   0  0  0  0  0  0  0  0  0  0  0  0
  181.4690  176.6690  140.2010 O   0  0  0  0  0  1  0  0  0  0  0  0
  183.1220  178.4910  139.3120 O   0  0  0  0  0  0  0  0  0  0  0  0
  180.3930  178.8830  139.3210 O   0  0  0  0  0  1  0  0  0  0  0  0
  1  7  1  0  0  0  0
  1 25  1  0  0  0  0
  2 11  1  0  0  0  0
  3  5  1  0  0  0  0
  3  2  2  0  0  0  0
  4  5  2  0  0  0  0
  5  8  1  0  0  0  0
  6 10  1  0  0  0  0
  8 13  1  6  0  0  0
  8  6  1  0  0  0  0
  9  1  2  0  0  0  0
 10  7  2  0  0  0  0
 11  6  2  0  0  0  0
 11  9  1  0  0  0  0
 12 14  1  0  0  0  0
 14 13  1  0  0  0  0
 15 14  2  0  0  0  0
 16 24  1  0  0  0  0
 17 19  1  0  0  0  0
 17 18  1  0  0  0  0
 18 12  1  0  0  0  0
 18 16  2  0  0  0  0
 19 20  2  0  0  0  0
 20 22  1  0  0  0  0
 20 16  1  0  0  0  0
 21 22  1  0  0  0  0
 24 23  1  0  0  0  0
 25 26  1  0  0  0  0
 26 29  1  0  0  0  0
 26 28  1  0  0  0  0
 28 27  1  0  0  0  0
 30 31  1  0  0  0  0
 30 29  1  0  0  0  0
 31 32  1  0  0  0  0
 32 33  1  0  0  0  0
 32 34  1  1  0  0  0
 35  2  1  0  0  0  0
 36 37  1  0  0  0  0
 36 35  1  0  0  0  0
 38 37  2  0  0  0  0
 38 39  1  0  0  0  0
 41 46  1  0  0  0  0
 42 43  1  0  0  0  0
 42 51  1  1  0  0  0
 44 45  2  0  0  0  0
 46 44  1  0  0  0  0
 47 50  1  0  0  0  0
 47 41  1  0  0  0  0
 48 42  1  0  0  0  0
 48 40  1  0  0  0  0
 49 39  1  1  0  0  0
 49 44  1  0  0  0  0
 49 40  1  0  0  0  0
 50 43  1  0  0  0  0
 51 53  2  0  0  0  0
 51 54  1  0  0  0  0
 51 52  1  0  0  0  0
M  END
>  <MODEL>
6

>  <REMARK>
 VINA RESULT:      -6.0      1.870      2.430
  Name = 
  17 active torsions:
  status: ('A' for Active; 'I' for Inactive)
    1  A    between atoms: C_1  and  C_13
    2  A    between atoms: C_2  and  C_9
    3  A    between atoms: P_3  and  C_35
    4  A    between atoms: C_4  and  C_27
    5  A    between atoms: C_4  and  N_36
    6  A    between atoms: C_9  and  C_49
    7  A    between atoms: N_10  and  C_25
    8  A    between atoms: C_11  and  C_14
    9  A    between atoms: C_13  and  N_36
   10  A    between atoms: N_15  and  C_30
   11  A    between atoms: C_20  and  C_49
   12  A    between atoms: C_21  and  N_24
   13  A    between atoms: N_24  and  C_50
   14  A    between atoms: C_27  and  O_54
   15  A    between atoms: P_28  and  O_54
   16  A    between atoms: O_33  and  C_51
   17  A    between atoms: N_36  and  C_42
                            x       y       z     vdW  Elec       q    Type
                         _______ _______ _______ _____ _____    ______ ____

>  <TORSDO>
F 17

$$$$
=
 OpenBabel10232411293D

 54 57  0  0  1  0  0  0  0  0999 V2000
  189.4510  177.6690  141.1640 C   0  0  0  0  0  0  0  0  0  0  0  0
  190.0710  176.3930  137.6530 C   0  0  0  0  0  0  0  0  0  0  0  0
  189.6860  176.6550  136.4410 N   0  0  0  0  0  0  0  0  0  0  0  0
  188.4300  177.9010  134.9350 O   0  0  0  0  0  0  0  0  0  0  0  0
  188.6620  177.6090  136.1370 C   0  0  0  0  0  0  0  0  0  0  0  0
  188.4510  178.0490  138.5890 C   0  0  0  0  0  0  0  0  0  0  0  0
  188.4230  178.5820  140.9080 C   0  0  0  0  0  3  0  0  0  0  0  0
  187.8420  178.2460  137.2290 C   0  0  2  0  0  3  0  0  0  0  0  0
  189.9860  176.9490  140.0960 C   0  0  0  0  0  3  0  0  0  0  0  0
  187.9480  178.7460  139.6450 N   0  0  0  0  0  0  0  0  0  0  0  0
  189.4920  177.1280  138.7990 C   0  0  0  0  0  0  0  0  0  0  0  0
  184.8620  175.8550  137.1560 N   0  0  0  0  0  2  0  0  0  0  0  0
  186.4910  177.7010  137.2220 N   0  0  0  0  0  2  0  0  0  0  0  0
  186.2190  176.3020  137.1290 C   0  0  0  0  0  0  0  0  0  0  0  0
  187.1670  175.4790  137.0130 O   0  0  0  0  0  0  0  0  0  0  0  0
  183.2380  174.0960  136.7230 C   0  0  0  0  0  0  0  0  0  0  0  0
  185.2400  173.3030  137.5290 C   0  0  0  0  0  2  0  0  0  0  0  0
  184.4390  174.4870  137.1050 C   0  0  0  0  0  0  0  0  0  0  0  0
  184.3110  172.1940  137.3460 N   0  0  0  0  0  0  0  0  0  0  0  0
  183.1940  172.6480  136.8920 C   0  0  0  0  0  0  0  0  0  0  0  0
  180.8920  171.8530  137.3300 C   0  0  0  0  0  1  0  0  0  0  0  0
  182.1180  171.7990  136.6200 O   0  0  0  0  0  0  0  0  0  0  0  0
  182.0070  175.0440  134.8050 C   0  0  0  0  0  1  0  0  0  0  0  0
  182.1220  175.0040  136.3180 C   0  0  0  0  0  2  0  0  0  0  0  0
  190.0300  177.4640  142.5330 C   0  0  0  0  0  2  0  0  0  0  0  0
  189.4460  176.3120  143.2080 N   0  0  0  0  0  0  0  0  0  0  0  0
  191.6450  175.7700  143.7480 O   0  0  0  0  0  1  0  0  0  0  0  0
  190.4570  175.2680  143.2110 C   0  0  0  0  0  2  0  0  0  0  0  0
  189.2440  176.7100  144.5900 C   0  0  0  0  0  2  0  0  0  0  0  0
  189.6950  178.1430  144.7890 C   0  0  0  0  0  2  0  0  0  0  0  0
  189.2600  178.6120  146.0290 O   0  0  0  0  0  0  0  0  0  0  0  0
  188.3640  177.2880  146.7060 P   0  0  1  0  0  0  0  0  0  0  0  0
  188.7420  177.6800  148.3560 O   0  0  0  0  0  1  0  0  0  0  0  0
  186.7230  178.1600  146.6930 C   0  0  0  0  0  1  0  0  0  0  0  0
  191.1710  175.4050  137.8610 C   0  0  0  0  0  2  0  0  0  0  0  0
  192.4740  175.9650  137.3280 C   0  0  0  0  0  2  0  0  0  0  0  0
  193.6180  175.3090  138.0140 C   0  0  0  0  0  3  0  0  0  0  0  0
  193.9170  174.0500  137.7300 C   0  0  0  0  0  3  0  0  0  0  0  0
  195.0260  173.4210  138.3640 N   0  0  0  0  0  2  0  0  0  0  0  0
  196.9460  172.2370  137.7560 O   0  0  0  0  0  0  0  0  0  0  0  0
  199.3190  174.1000  137.0840 C   0  0  0  0  0  2  0  0  0  0  0  0
  197.6800  170.7860  135.9530 C   0  0  2  0  0  3  0  0  0  0  0  0
  199.0750  171.4030  135.9880 C   0  0  0  0  0  2  0  0  0  0  0  0
  197.2320  174.4940  138.5240 C   0  0  0  0  0  0  0  0  0  0  0  0
  196.7960  175.0570  139.5650 O   0  0  0  0  0  0  0  0  0  0  0  0
  198.5310  174.8630  138.0420 N   0  0  0  0  0  2  0  0  0  0  0  0
  198.5340  174.0980  135.4390 S   0  0  0  0  0  0  0  0  0  0  0  0
  196.6030  171.7200  136.4980 C   0  0  0  0  0  2  0  0  0  0  0  0
  196.3600  173.5060  137.7820 C   0  0  2  0  0  3  0  0  0  0  0  0
  199.2720  172.5000  134.9440 C   0  0  0  0  0  2  0  0  0  0  0  0
  197.6780  169.2140  136.8660 P   0  0  0  0  0  0  0  0  0  0  0  0
  196.7360  169.3010  138.0450 O   0  0  0  0  0  1  0  0  0  0  0  0
  197.1810  167.9630  135.8420 O   0  0  0  0  0  0  0  0  0  0  0  0
  199.2410  168.8900  137.4220 O   0  0  0  0  0  1  0  0  0  0  0  0
  1 25  1  0  0  0  0
  2 35  1  0  0  0  0
  2 11  1  0  0  0  0
  3  2  2  0  0  0  0
  4  5  2  0  0  0  0
  5  3  1  0  0  0  0
  5  8  1  0  0  0  0
  6 11  2  0  0  0  0
  6 10  1  0  0  0  0
  7  1  1  0  0  0  0
  8 13  1  1  0  0  0
  8  6  1  0  0  0  0
  9  1  2  0  0  0  0
 10  7  2  0  0  0  0
 11  9  1  0  0  0  0
 14 12  1  0  0  0  0
 14 13  1  0  0  0  0
 15 14  2  0  0  0  0
 16 20  1  0  0  0  0
 16 18  2  0  0  0  0
 18 12  1  0  0  0  0
 18 17  1  0  0  0  0
 19 17  1  0  0  0  0
 20 19  2  0  0  0  0
 22 20  1  0  0  0  0
 22 21  1  0  0  0  0
 23 24  1  0  0  0  0
 24 16  1  0  0  0  0
 25 26  1  0  0  0  0
 26 28  1  0  0  0  0
 26 29  1  0  0  0  0
 28 27  1  0  0  0  0
 29 30  1  0  0  0  0
 30 31  1  0  0  0  0
 31 32  1  0  0  0  0
 32 34  1  1  0  0  0
 32 33  1  0  0  0  0
 36 35  1  0  0  0  0
 36 37  1  0  0  0  0
 38 37  2  0  0  0  0
 38 39  1  0  0  0  0
 40 49  1  0  0  0  0
 41 46  1  0  0  0  0
 42 43  1  0  0  0  0
 42 48  1  0  0  0  0
 42 51  1  1  0  0  0
 44 45  2  0  0  0  0
 46 44  1  0  0  0  0
 47 41  1  0  0  0  0
 48 40  1  0  0  0  0
 49 39  1  1  0  0  0
 49 44  1  0  0  0  0
 50 47  1  0  0  0  0
 50 43  1  0  0  0  0
 51 54  1  0  0  0  0
 51 52  1  0  0  0  0
 53 51  2  0  0  0  0
M  END
>  <MODEL>
7

>  <REMARK>
 VINA RESULT:      -5.7      4.306     11.496
  Name = 
  17 active torsions:
  status: ('A' for Active; 'I' for Inactive)
    1  A    between atoms: C_1  and  C_13
    2  A    between atoms: C_2  and  C_9
    3  A    between atoms: P_3  and  C_35
    4  A    between atoms: C_4  and  C_27
    5  A    between atoms: C_4  and  N_36
    6  A    between atoms: C_9  and  C_49
    7  A    between atoms: N_10  and  C_25
    8  A    between atoms: C_11  and  C_14
    9  A    between atoms: C_13  and  N_36
   10  A    between atoms: N_15  and  C_30
   11  A    between atoms: C_20  and  C_49
   12  A    between atoms: C_21  and  N_24
   13  A    between atoms: N_24  and  C_50
   14  A    between atoms: C_27  and  O_54
   15  A    between atoms: P_28  and  O_54
   16  A    between atoms: O_33  and  C_51
   17  A    between atoms: N_36  and  C_42
                            x       y       z     vdW  Elec       q    Type
                         _______ _______ _______ _____ _____    ______ ____

>  <TORSDO>
F 17

$$$$
=
 OpenBabel10232411293D

 54 57  0  0  1  0  0  0  0  0999 V2000
  189.4340  177.8010  141.0490 C   0  0  0  0  0  0  0  0  0  0  0  0
  191.0510  176.6740  137.8170 C   0  0  0  0  0  0  0  0  0  0  0  0
  190.7280  176.5210  136.5690 N   0  0  0  0  0  0  0  0  0  0  0  0
  189.1730  176.6430  134.8460 O   0  0  0  0  0  0  0  0  0  0  0  0
  189.3890  176.6840  136.0850 C   0  0  0  0  0  0  0  0  0  0  0  0
  188.6930  177.2280  138.4240 C   0  0  0  0  0  0  0  0  0  0  0  0
  188.1090  177.9350  140.6200 C   0  0  0  0  0  3  0  0  0  0  0  0
  188.2360  176.8770  137.0350 C   0  0  2  0  0  3  0  0  0  0  0  0
  190.3960  177.3820  140.1300 C   0  0  0  0  0  3  0  0  0  0  0  0
  187.7710  177.6440  139.3360 N   0  0  0  0  0  0  0  0  0  0  0  0
  190.0360  177.0900  138.8090 C   0  0  0  0  0  0  0  0  0  0  0  0
  185.2820  174.4520  137.0100 N   0  0  0  0  0  2  0  0  0  0  0  0
  187.4220  175.6700  137.0860 N   0  0  0  0  0  2  0  0  0  0  0  0
  185.9990  175.6890  136.9750 C   0  0  0  0  0  0  0  0  0  0  0  0
  185.3860  176.7860  136.8620 O   0  0  0  0  0  0  0  0  0  0  0  0
  183.2520  173.1770  136.6020 C   0  0  0  0  0  0  0  0  0  0  0  0
  182.8600  175.4140  136.9620 C   0  0  0  0  0  2  0  0  0  0  0  0
  183.8630  174.3130  136.8790 C   0  0  0  0  0  0  0  0  0  0  0  0
  181.6010  174.7350  136.6770 N   0  0  0  0  0  0  0  0  0  0  0  0
  181.8300  173.4830  136.4800 C   0  0  0  0  0  0  0  0  0  0  0  0
  180.5770  172.0590  134.8910 C   0  0  0  0  0  1  0  0  0  0  0  0
  180.7970  172.5900  136.1880 O   0  0  0  0  0  0  0  0  0  0  0  0
  184.6010  171.8840  134.9900 C   0  0  0  0  0  1  0  0  0  0  0  0
  183.9300  171.8690  136.3510 C   0  0  0  0  0  2  0  0  0  0  0  0
  189.8690  178.1300  142.4480 C   0  0  0  0  0  2  0  0  0  0  0  0
  189.4690  177.1030  143.4010 N   0  0  0  0  0  0  0  0  0  0  0  0
  191.5600  176.0990  143.6010 O   0  0  0  0  0  1  0  0  0  0  0  0
  190.2640  175.9220  143.1090 C   0  0  0  0  0  2  0  0  0  0  0  0
  189.8820  177.5800  144.7090 C   0  0  0  0  0  2  0  0  0  0  0  0
  188.7780  177.3470  145.7210 C   0  0  0  0  0  2  0  0  0  0  0  0
  188.0640  178.5270  145.9280 O   0  0  0  0  0  0  0  0  0  0  0  0
  186.4590  177.9990  146.3300 P   0  0  1  0  0  0  0  0  0  0  0  0
  186.0560  179.4260  147.2350 O   0  0  0  0  0  1  0  0  0  0  0  0
  185.6820  178.5760  144.7430 C   0  0  0  0  0  1  0  0  0  0  0  0
  192.4820  176.5130  138.2130 C   0  0  0  0  0  2  0  0  0  0  0  0
  193.2220  175.7170  137.1590 C   0  0  0  0  0  2  0  0  0  0  0  0
  193.3940  174.3140  137.6200 C   0  0  0  0  0  3  0  0  0  0  0  0
  194.6090  173.7870  137.6710 C   0  0  0  0  0  3  0  0  0  0  0  0
  194.7860  172.4520  138.1350 N   0  0  0  0  0  2  0  0  0  0  0  0
  196.5840  172.2240  136.6600 O   0  0  0  0  0  0  0  0  0  0  0  0
  196.8400  169.3530  135.5440 C   0  0  0  0  0  2  0  0  0  0  0  0
  199.0080  172.3250  136.7360 C   0  0  2  0  0  3  0  0  0  0  0  0
  199.1140  171.1780  135.7350 C   0  0  0  0  0  2  0  0  0  0  0  0
  194.8200  170.6020  136.5170 C   0  0  0  0  0  0  0  0  0  0  0  0
  193.5730  170.7660  136.4220 O   0  0  0  0  0  0  0  0  0  0  0  0
  195.4180  169.4990  135.8220 N   0  0  0  0  0  2  0  0  0  0  0  0
  197.7890  169.1060  137.0810 S   0  0  0  0  0  0  0  0  0  0  0  0
  197.6940  172.3170  137.5120 C   0  0  0  0  0  2  0  0  0  0  0  0
  195.6330  171.5180  137.4030 C   0  0  2  0  0  3  0  0  0  0  0  0
  199.3280  169.8190  136.4000 C   0  0  0  0  0  2  0  0  0  0  0  0
  199.2300  173.9120  135.8790 P   0  0  0  0  0  0  0  0  0  0  0  0
  197.8890  174.5730  135.6560 O   0  0  0  0  0  1  0  0  0  0  0  0
  200.2090  174.9290  136.8110 O   0  0  0  0  0  1  0  0  0  0  0  0
  199.9740  173.6410  134.3850 O   0  0  0  0  0  0  0  0  0  0  0  0
  1 25  1  0  0  0  0
  2 35  1  0  0  0  0
  2 11  1  0  0  0  0
  3  2  2  0  0  0  0
  4  5  2  0  0  0  0
  5  3  1  0  0  0  0
  5  8  1  0  0  0  0
  6 11  2  0  0  0  0
  6 10  1  0  0  0  0
  7  1  1  0  0  0  0
  8 13  1  1  0  0  0
  8  6  1  0  0  0  0
  9  1  2  0  0  0  0
 10  7  2  0  0  0  0
 11  9  1  0  0  0  0
 14 12  1  0  0  0  0
 14 13  1  0  0  0  0
 15 14  2  0  0  0  0
 16 18  2  0  0  0  0
 18 17  1  0  0  0  0
 18 12  1  0  0  0  0
 19 17  1  0  0  0  0
 20 16  1  0  0  0  0
 20 19  2  0  0  0  0
 21 22  1  0  0  0  0
 22 20  1  0  0  0  0
 23 24  1  0  0  0  0
 24 16  1  0  0  0  0
 25 26  1  0  0  0  0
 26 29  1  0  0  0  0
 28 26  1  0  0  0  0
 28 27  1  0  0  0  0
 29 30  1  0  0  0  0
 30 31  1  0  0  0  0
 31 32  1  0  0  0  0
 32 34  1  6  0  0  0
 32 33  1  0  0  0  0
 36 37  1  0  0  0  0
 36 35  1  0  0  0  0
 37 38  2  0  0  0  0
 38 39  1  0  0  0  0
 40 49  1  0  0  0  0
 40 48  1  0  0  0  0
 41 46  1  0  0  0  0
 41 47  1  0  0  0  0
 42 51  1  6  0  0  0
 42 48  1  0  0  0  0
 43 50  1  0  0  0  0
 43 42  1  0  0  0  0
 44 49  1  0  0  0  0
 45 44  2  0  0  0  0
 46 44  1  0  0  0  0
 49 39  1  6  0  0  0
 50 47  1  0  0  0  0
 51 53  1  0  0  0  0
 52 51  1  0  0  0  0
 54 51  2  0  0  0  0
M  END
>  <MODEL>
8

>  <REMARK>
 VINA RESULT:      -5.4      4.350     11.460
  Name = 
  17 active torsions:
  status: ('A' for Active; 'I' for Inactive)
    1  A    between atoms: C_1  and  C_13
    2  A    between atoms: C_2  and  C_9
    3  A    between atoms: P_3  and  C_35
    4  A    between atoms: C_4  and  C_27
    5  A    between atoms: C_4  and  N_36
    6  A    between atoms: C_9  and  C_49
    7  A    between atoms: N_10  and  C_25
    8  A    between atoms: C_11  and  C_14
    9  A    between atoms: C_13  and  N_36
   10  A    between atoms: N_15  and  C_30
   11  A    between atoms: C_20  and  C_49
   12  A    between atoms: C_21  and  N_24
   13  A    between atoms: N_24  and  C_50
   14  A    between atoms: C_27  and  O_54
   15  A    between atoms: P_28  and  O_54
   16  A    between atoms: O_33  and  C_51
   17  A    between atoms: N_36  and  C_42
                            x       y       z     vdW  Elec       q    Type
                         _______ _______ _______ _____ _____    ______ ____

>  <TORSDO>
F 17

$$$$
=
 OpenBabel10232411293D

 54 57  0  0  1  0  0  0  0  0999 V2000
  188.6500  177.6330  141.7330 C   0  0  0  0  0  0  0  0  0  0  0  0
  190.3000  176.8340  138.4210 C   0  0  0  0  0  0  0  0  0  0  0  0
  190.1850  177.1670  137.1710 N   0  0  0  0  0  0  0  0  0  0  0  0
  189.1490  178.3810  135.4820 O   0  0  0  0  0  0  0  0  0  0  0  0
  189.1260  177.9970  136.6800 C   0  0  0  0  0  0  0  0  0  0  0  0
  188.2580  178.1420  139.0210 C   0  0  0  0  0  0  0  0  0  0  0  0
  187.5820  178.4180  141.2860 C   0  0  0  0  0  3  0  0  0  0  0  0
  187.9740  178.3960  137.5660 C   0  0  2  0  0  3  0  0  0  0  0  0
  189.5370  177.1110  140.7920 C   0  0  0  0  0  3  0  0  0  0  0  0
  187.4080  178.6470  139.9570 N   0  0  0  0  0  0  0  0  0  0  0  0
  189.3500  177.3570  139.4270 C   0  0  0  0  0  0  0  0  0  0  0  0
  185.4880  175.6250  136.7040 N   0  0  0  0  0  2  0  0  0  0  0  0
  186.7700  177.6740  137.1770 N   0  0  0  0  0  2  0  0  0  0  0  0
  186.7210  176.2510  137.0670 C   0  0  0  0  0  0  0  0  0  0  0  0
  187.7570  175.5630  137.2770 O   0  0  0  0  0  0  0  0  0  0  0  0
  184.1610  173.5980  136.9220 C   0  0  0  0  0  0  0  0  0  0  0  0
  186.2890  173.2080  136.1410 C   0  0  0  0  0  2  0  0  0  0  0  0
  185.2790  174.2120  136.5870 C   0  0  0  0  0  0  0  0  0  0  0  0
  185.5810  171.9420  136.2900 N   0  0  0  0  0  0  0  0  0  0  0  0
  184.3910  172.1710  136.7250 C   0  0  0  0  0  0  0  0  0  0  0  0
  183.1870  170.1350  135.9940 C   0  0  0  0  0  1  0  0  0  0  0  0
  183.4870  171.1310  136.9580 O   0  0  0  0  0  0  0  0  0  0  0  0
  181.9370  174.5390  136.4110 C   0  0  0  0  0  1  0  0  0  0  0  0
  182.9530  174.2580  137.5030 C   0  0  0  0  0  2  0  0  0  0  0  0
  188.9040  177.3670  143.1890 C   0  0  0  0  0  2  0  0  0  0  0  0
  187.8840  177.9650  144.0400 N   0  0  0  0  0  0  0  0  0  0  0  0
  185.5680  177.8500  144.2520 O   0  0  0  0  0  1  0  0  0  0  0  0
  186.7150  177.1040  143.9650 C   0  0  0  0  0  2  0  0  0  0  0  0
  188.3880  177.8780  145.4000 C   0  0  0  0  0  2  0  0  0  0  0  0
  189.7130  177.1450  145.4170 C   0  0  0  0  0  2  0  0  0  0  0  0
  190.0360  176.7730  146.7220 O   0  0  0  0  0  0  0  0  0  0  0  0
  191.7600  176.5670  146.7030 P   0  0  1  0  0  0  0  0  0  0  0  0
  192.0240  177.3780  148.2160 O   0  0  0  0  0  1  0  0  0  0  0  0
  191.7410  174.8550  147.4250 C   0  0  0  0  0  1  0  0  0  0  0  0
  191.4610  175.9910  138.8360 C   0  0  0  0  0  2  0  0  0  0  0  0
  191.7780  174.9820  137.7520 C   0  0  0  0  0  2  0  0  0  0  0  0
  193.0620  175.3400  137.0940 C   0  0  0  0  0  3  0  0  0  0  0  0
  194.2060  175.0930  137.7150 C   0  0  0  0  0  3  0  0  0  0  0  0
  195.4420  175.4110  137.0830 N   0  0  0  0  0  2  0  0  0  0  0  0
  195.8050  173.1220  136.7850 O   0  0  0  0  0  0  0  0  0  0  0  0
  198.8050  172.3820  136.8640 C   0  0  0  0  0  2  0  0  0  0  0  0
  195.5230  171.4600  135.0380 C   0  0  2  0  0  3  0  0  0  0  0  0
  196.8210  170.7700  135.4470 C   0  0  0  0  0  2  0  0  0  0  0  0
  197.5460  174.3920  137.8430 C   0  0  0  0  0  0  0  0  0  0  0  0
  197.4890  175.1900  138.8190 O   0  0  0  0  0  0  0  0  0  0  0  0
  198.7110  173.5680  137.7040 N   0  0  0  0  0  2  0  0  0  0  0  0
  198.7050  172.8170  135.0960 S   0  0  0  0  0  0  0  0  0  0  0  0
  195.4840  172.9330  135.4320 C   0  0  0  0  0  2  0  0  0  0  0  0
  196.4310  174.3710  136.8220 C   0  0  2  0  0  3  0  0  0  0  0  0
  198.0200  171.1950  134.6010 C   0  0  0  0  0  2  0  0  0  0  0  0
  194.1040  170.5730  135.7470 P   0  0  0  0  0  0  0  0  0  0  0  0
  193.6760  169.4570  134.8220 O   0  0  0  0  0  0  0  0  0  0  0  0
  194.5340  169.9240  137.2490 O   0  0  0  0  0  1  0  0  0  0  0  0
  192.8180  171.6510  135.9540 O   0  0  0  0  0  1  0  0  0  0  0  0
  1 25  1  0  0  0  0
  2 35  1  0  0  0  0
  2 11  1  0  0  0  0
  3  2  2  0  0  0  0
  4  5  2  0  0  0  0
  5  3  1  0  0  0  0
  5  8  1  0  0  0  0
  6 11  2  0  0  0  0
  6 10  1  0  0  0  0
  7  1  1  0  0  0  0
  8 13  1  6  0  0  0
  8  6  1  0  0  0  0
  9  1  2  0  0  0  0
 10  7  2  0  0  0  0
 11  9  1  0  0  0  0
 12 14  1  0  0  0  0
 14 13  1  0  0  0  0
 14 15  2  0  0  0  0
 16 24  1  0  0  0  0
 17 19  1  0  0  0  0
 17 18  1  0  0  0  0
 18 12  1  0  0  0  0
 18 16  2  0  0  0  0
 19 20  2  0  0  0  0
 20 16  1  0  0  0  0
 20 22  1  0  0  0  0
 21 22  1  0  0  0  0
 23 24  1  0  0  0  0
 25 26  1  0  0  0  0
 26 29  1  0  0  0  0
 28 26  1  0  0  0  0
 28 27  1  0  0  0  0
 29 30  1  0  0  0  0
 30 31  1  0  0  0  0
 32 31  1  0  0  0  0
 32 34  1  1  0  0  0
 32 33  1  0  0  0  0
 36 35  1  0  0  0  0
 37 38  2  0  0  0  0
 37 36  1  0  0  0  0
 39 38  1  0  0  0  0
 40 49  1  0  0  0  0
 41 46  1  0  0  0  0
 42 48  1  0  0  0  0
 42 43  1  0  0  0  0
 42 51  1  1  0  0  0
 44 45  2  0  0  0  0
 46 44  1  0  0  0  0
 47 41  1  0  0  0  0
 48 40  1  0  0  0  0
 49 39  1  1  0  0  0
 49 44  1  0  0  0  0
 50 47  1  0  0  0  0
 50 43  1  0  0  0  0
 51 54  1  0  0  0  0
 51 53  1  0  0  0  0
 52 51  2  0  0  0  0
M  END
>  <MODEL>
9

>  <REMARK>
 VINA RESULT:      -5.2      4.350     10.864
  Name = 
  17 active torsions:
  status: ('A' for Active; 'I' for Inactive)
    1  A    between atoms: C_1  and  C_13
    2  A    between atoms: C_2  and  C_9
    3  A    between atoms: P_3  and  C_35
    4  A    between atoms: C_4  and  C_27
    5  A    between atoms: C_4  and  N_36
    6  A    between atoms: C_9  and  C_49
    7  A    between atoms: N_10  and  C_25
    8  A    between atoms: C_11  and  C_14
    9  A    between atoms: C_13  and  N_36
   10  A    between atoms: N_15  and  C_30
   11  A    between atoms: C_20  and  C_49
   12  A    between atoms: C_21  and  N_24
   13  A    between atoms: N_24  and  C_50
   14  A    between atoms: C_27  and  O_54
   15  A    between atoms: P_28  and  O_54
   16  A    between atoms: O_33  and  C_51
   17  A    between atoms: N_36  and  C_42
                            x       y       z     vdW  Elec       q    Type
                         _______ _______ _______ _____ _____    ______ ____

>  <TORSDO>
F 17

$$$$
