=
 OpenBabel10222422083D

 47 52  0  0  1  0  0  0  0  0999 V2000
  186.9350  174.1400  135.9800 C   0  0  0  0  0  0  0  0  0  0  0  0
  185.6680  173.7490  136.0550 C   0  0  0  0  0  0  0  0  0  0  0  0
  183.3700  174.9070  135.6160 C   0  0  0  0  0  1  0  0  0  0  0  0
  190.6870  176.5700  138.7630 C   0  0  1  0  0  3  0  0  0  0  0  0
  188.0940  173.3210  136.1850 N   0  0  0  0  0  0  0  0  0  0  0  0
  186.9940  175.5700  135.5570 C   0  0  2  0  0  3  0  0  0  0  0  0
  190.4590  177.2860  140.0910 C   0  0  1  0  0  3  0  0  0  0  0  0
  189.6870  177.2010  137.8180 C   0  0  2  0  0  3  0  0  0  0  0  0
  187.9550  172.0030  136.4690 O   0  0  0  0  0  1  0  0  0  0  0  0
  189.4070  173.8490  135.9420 C   0  0  0  0  0  0  0  0  0  0  0  0
  189.7700  175.1920  136.2960 N   0  0  0  0  0  2  0  0  0  0  0  0
  192.2750  170.0230  134.5580 C   0  0  0  0  0  2  0  0  0  0  0  0
  191.3060  172.2710  135.0980 C   0  0  0  0  0  0  0  0  0  0  0  0
  187.6650  176.3940  136.6270 C   0  0  0  0  0  0  0  0  0  0  0  0
  188.7700  177.8900  138.7020 N   0  0  0  0  0  0  0  0  0  0  0  0
  186.8870  177.4510  137.3220 C   0  0  0  0  0  3  0  0  0  0  0  0
  193.7230  172.4250  135.6970 C   0  0  0  0  0  3  0  0  0  0  0  0
  184.8570  174.8910  135.6860 C   0  0  0  0  0  0  0  0  0  0  0  0
  189.1810  177.9930  140.0340 N   0  0  0  0  0  2  0  0  0  0  0  0
  188.9690  176.1960  136.9410 C   0  0  0  0  0  0  0  0  0  0  0  0
  185.5810  175.9210  135.3990 N   0  0  0  0  0  0  0  0  0  0  0  0
  191.0150  170.8180  134.8770 C   0  0  0  0  0  2  0  0  0  0  0  0
  187.4170  178.1410  138.3280 C   0  0  0  0  0  3  0  0  0  0  0  0
  185.1580  172.3920  136.4060 C   0  0  0  0  0  1  0  0  0  0  0  0
  192.6380  172.8550  134.7490 C   0  0  0  0  0  2  0  0  0  0  0  0
  193.1570  169.9270  135.7970 C   0  0  0  0  0  2  0  0  0  0  0  0
  193.9640  171.1660  136.1070 C   0  0  0  0  0  3  0  0  0  0  0  0
  190.3550  173.0560  135.5180 C   0  0  0  0  0  0  0  0  0  0  0  0
  192.1090  176.8400  138.2950 C   0  0  0  0  0  2  0  0  0  0  0  0
  192.7200  175.5850  137.7000 C   0  0  0  0  0  2  0  0  0  0  0  0
  194.1920  175.5930  137.9050 C   0  0  0  0  0  0  0  0  0  0  0  0
  194.9640  175.4420  136.9240 O   0  0  0  0  0  0  0  0  0  0  0  0
  194.7150  175.7370  139.1830 O   0  0  0  0  0  1  0  0  0  0  0  0
  190.4530  176.2740  141.2280 C   0  0  0  0  0  2  0  0  0  0  0  0
  190.9610  176.8940  142.5240 C   0  0  0  0  0  2  0  0  0  0  0  0
  187.5310  176.8160  144.1360 C   0  0  0  0  0  3  0  0  0  0  0  0
  189.0540  177.9780  145.6100 C   0  0  0  0  0  3  0  0  0  0  0  0
  189.8460  177.1130  143.4920 C   0  0  0  0  0  0  0  0  0  0  0  0
  190.0910  177.7870  144.6930 C   0  0  0  0  0  3  0  0  0  0  0  0
  188.5660  176.6240  143.2160 C   0  0  0  0  0  3  0  0  0  0  0  0
  187.7650  177.4970  145.3350 C   0  0  0  0  0  0  0  0  0  0  0  0
  186.6830  177.6580  146.2610 N   0  0  0  0  0  2  0  0  0  0  0  0
  185.4780  178.4000  146.0430 C   0  0  0  0  0  0  0  0  0  0  0  0
  184.6670  178.5300  146.9980 O   0  0  0  0  0  0  0  0  0  0  0  0
  185.1990  178.9500  144.7800 O   0  0  0  0  0  0  0  0  0  0  0  0
  184.1100  178.6290  143.9550 C   0  0  0  0  0  3  0  0  0  0  0  0
  184.1460  178.6760  142.6290 C   0  0  0  0  0  2  0  0  0  0  0  0
  1  2  2  0  0  0  0
  1  5  1  0  0  0  0
  2 24  1  0  0  0  0
  3 18  1  0  0  0  0
  4 29  1  6  0  0  0
  4  7  1  0  0  0  0
  5  9  1  0  0  0  0
  6 21  1  1  0  0  0
  6  1  1  0  0  0  0
  6 14  1  0  0  0  0
  7 34  1  1  0  0  0
  8 20  1  1  0  0  0
  8 15  1  0  0  0  0
  8  4  1  0  0  0  0
 10  5  1  0  0  0  0
 10 11  1  0  0  0  0
 11 20  1  0  0  0  0
 12 22  1  0  0  0  0
 12 26  1  0  0  0  0
 13 28  2  0  0  0  0
 14 20  2  0  0  0  0
 14 16  1  0  0  0  0
 15 19  1  0  0  0  0
 16 23  2  0  0  0  0
 17 27  2  0  0  0  0
 18  2  1  0  0  0  0
 19  7  1  0  0  0  0
 21 18  2  0  0  0  0
 22 13  1  0  0  0  0
 23 15  1  0  0  0  0
 25 13  1  0  0  0  0
 25 17  1  0  0  0  0
 26 27  1  0  0  0  0
 28 10  2  0  0  0  0
 30 31  1  0  0  0  0
 30 29  1  0  0  0  0
 31 33  1  0  0  0  0
 32 31  2  0  0  0  0
 34 35  1  0  0  0  0
 35 38  1  0  0  0  0
 36 41  1  0  0  0  0
 38 39  2  0  0  0  0
 39 37  1  0  0  0  0
 40 38  1  0  0  0  0
 40 36  2  0  0  0  0
 41 37  2  0  0  0  0
 41 42  1  0  0  0  0
 43 42  1  0  0  0  0
 43 44  2  0  0  0  0
 45 43  1  0  0  0  0
 46 45  1  0  0  0  0
 47 46  2  0  0  0  0
M  END
>  <MODEL>
1

>  <REMARK>
 VINA RESULT:      -8.5      0.000      0.000
  Name = 
  9 active torsions:
  status: ('A' for Active; 'I' for Inactive)
    1  A    between atoms: C_2  and  O_47
    2  A    between atoms: C_4  and  C_46
    3  A    between atoms: C_6  and  C_18
    4  A    between atoms: N_9  and  C_40
    5  A    between atoms: C_10  and  O_47
    6  A    between atoms: C_12  and  C_45
    7  A    between atoms: C_18  and  C_46
    8  A    between atoms: C_29  and  C_31
    9  A    between atoms: C_29  and  C_45
                            x       y       z     vdW  Elec       q    Type
                         _______ _______ _______ _____ _____    ______ ____

>  <TORSDO>
F 9

$$$$
=
 OpenBabel10222422083D

 47 52  0  0  1  0  0  0  0  0999 V2000
  183.2790  173.7170  136.8050 C   0  0  0  0  0  0  0  0  0  0  0  0
  182.4900  172.6500  136.8660 C   0  0  0  0  0  0  0  0  0  0  0  0
  180.0120  172.1700  136.2000 C   0  0  0  0  0  1  0  0  0  0  0  0
  184.5540  178.0760  139.4700 C   0  0  1  0  0  3  0  0  0  0  0  0
  184.6690  173.7710  137.1510 N   0  0  0  0  0  0  0  0  0  0  0  0
  182.5210  174.8680  136.2310 C   0  0  2  0  0  3  0  0  0  0  0  0
  183.8120  178.5910  140.7010 C   0  0  1  0  0  3  0  0  0  0  0  0
  183.4760  177.9220  138.4190 C   0  0  2  0  0  3  0  0  0  0  0  0
  185.3100  172.6530  137.5720 O   0  0  0  0  0  1  0  0  0  0  0  0
  185.4300  174.9650  136.9110 C   0  0  0  0  0  0  0  0  0  0  0  0
  184.8880  176.2750  137.1310 N   0  0  0  0  0  2  0  0  0  0  0  0
  190.1300  173.5460  136.0850 C   0  0  0  0  0  2  0  0  0  0  0  0
  187.9680  174.7930  136.3310 C   0  0  0  0  0  0  0  0  0  0  0  0
  182.4600  175.9930  137.2330 C   0  0  0  0  0  0  0  0  0  0  0  0
  182.2450  177.9760  139.1790 N   0  0  0  0  0  0  0  0  0  0  0  0
  181.1410  176.4120  137.7720 C   0  0  0  0  0  3  0  0  0  0  0  0
  189.7470  176.4010  137.0180 C   0  0  0  0  0  3  0  0  0  0  0  0
  181.2020  173.0530  136.3380 C   0  0  0  0  0  0  0  0  0  0  0  0
  182.3770  178.3860  140.5090 N   0  0  0  0  0  2  0  0  0  0  0  0
  183.5880  176.6360  137.6250 C   0  0  0  0  0  0  0  0  0  0  0  0
  181.2000  174.2920  135.9720 N   0  0  0  0  0  0  0  0  0  0  0  0
  188.6190  173.4440  136.2580 C   0  0  0  0  0  2  0  0  0  0  0  0
  181.0540  177.3420  138.7190 C   0  0  0  0  0  3  0  0  0  0  0  0
  182.8500  171.2830  137.3400 C   0  0  0  0  0  1  0  0  0  0  0  0
  188.7220  176.0350  135.9800 C   0  0  0  0  0  2  0  0  0  0  0  0
  190.7650  174.0740  137.3650 C   0  0  0  0  0  2  0  0  0  0  0  0
  190.6440  175.5660  137.5730 C   0  0  0  0  0  3  0  0  0  0  0  0
  186.7000  174.8740  136.6190 C   0  0  0  0  0  0  0  0  0  0  0  0
  185.5770  179.1150  139.0400 C   0  0  0  0  0  2  0  0  0  0  0  0
  186.9200  178.4600  138.7740 C   0  0  0  0  0  2  0  0  0  0  0  0
  187.6750  178.3190  140.0470 C   0  0  0  0  0  0  0  0  0  0  0  0
  187.4930  179.1420  140.9800 O   0  0  0  0  0  1  0  0  0  0  0  0
  188.6020  177.2970  140.1940 O   0  0  0  0  0  0  0  0  0  0  0  0
  184.2910  177.8490  141.9410 C   0  0  0  0  0  2  0  0  0  0  0  0
  184.3040  178.7610  143.1610 C   0  0  0  0  0  2  0  0  0  0  0  0
  186.3290  178.3830  146.3440 C   0  0  0  0  0  3  0  0  0  0  0  0
  187.4700  177.2230  144.5560 C   0  0  0  0  0  3  0  0  0  0  0  0
  185.3880  178.3760  144.1130 C   0  0  0  0  0  0  0  0  0  0  0  0
  186.4630  177.6010  143.6650 C   0  0  0  0  0  3  0  0  0  0  0  0
  185.3210  178.7640  145.4540 C   0  0  0  0  0  3  0  0  0  0  0  0
  187.4120  177.6150  145.9020 C   0  0  0  0  0  0  0  0  0  0  0  0
  188.4170  177.2300  146.8480 N   0  0  0  0  0  2  0  0  0  0  0  0
  189.8330  177.2210  146.6310 C   0  0  0  0  0  0  0  0  0  0  0  0
  190.5780  176.7560  147.5340 O   0  0  0  0  0  0  0  0  0  0  0  0
  190.3750  177.7440  145.4450 O   0  0  0  0  0  0  0  0  0  0  0  0
  191.3210  177.1210  144.6180 C   0  0  0  0  0  3  0  0  0  0  0  0
  191.0310  176.5680  143.4460 C   0  0  0  0  0  2  0  0  0  0  0  0
  1  2  2  0  0  0  0
  1  5  1  0  0  0  0
  2 24  1  0  0  0  0
  3 18  1  0  0  0  0
  4 29  1  6  0  0  0
  4  7  1  0  0  0  0
  5  9  1  0  0  0  0
  6 21  1  1  0  0  0
  6  1  1  0  0  0  0
  6 14  1  0  0  0  0
  7 34  1  1  0  0  0
  8 20  1  1  0  0  0
  8 15  1  0  0  0  0
  8  4  1  0  0  0  0
 10 11  1  0  0  0  0
 10  5  1  0  0  0  0
 11 20  1  0  0  0  0
 12 22  1  0  0  0  0
 12 26  1  0  0  0  0
 13 28  2  0  0  0  0
 14 20  2  0  0  0  0
 14 16  1  0  0  0  0
 15 19  1  0  0  0  0
 16 23  2  0  0  0  0
 17 27  2  0  0  0  0
 18  2  1  0  0  0  0
 19  7  1  0  0  0  0
 21 18  2  0  0  0  0
 22 13  1  0  0  0  0
 23 15  1  0  0  0  0
 25 13  1  0  0  0  0
 25 17  1  0  0  0  0
 26 27  1  0  0  0  0
 28 10  2  0  0  0  0
 30 29  1  0  0  0  0
 30 31  1  0  0  0  0
 31 33  2  0  0  0  0
 31 32  1  0  0  0  0
 34 35  1  0  0  0  0
 35 38  1  0  0  0  0
 37 41  2  0  0  0  0
 38 40  1  0  0  0  0
 39 38  2  0  0  0  0
 39 37  1  0  0  0  0
 40 36  2  0  0  0  0
 41 36  1  0  0  0  0
 41 42  1  0  0  0  0
 43 42  1  0  0  0  0
 43 44  2  0  0  0  0
 45 43  1  0  0  0  0
 46 45  1  0  0  0  0
 47 46  2  0  0  0  0
M  END
>  <MODEL>
2

>  <REMARK>
 VINA RESULT:      -8.4      3.010      5.351
  Name = 
  9 active torsions:
  status: ('A' for Active; 'I' for Inactive)
    1  A    between atoms: C_2  and  O_47
    2  A    between atoms: C_4  and  C_46
    3  A    between atoms: C_6  and  C_18
    4  A    between atoms: N_9  and  C_40
    5  A    between atoms: C_10  and  O_47
    6  A    between atoms: C_12  and  C_45
    7  A    between atoms: C_18  and  C_46
    8  A    between atoms: C_29  and  C_31
    9  A    between atoms: C_29  and  C_45
                            x       y       z     vdW  Elec       q    Type
                         _______ _______ _______ _____ _____    ______ ____

>  <TORSDO>
F 9

$$$$
=
 OpenBabel10222422083D

 47 52  0  0  1  0  0  0  0  0999 V2000
  184.5630  174.9680  136.7850 C   0  0  0  0  0  0  0  0  0  0  0  0
  183.4670  174.2210  136.8600 C   0  0  0  0  0  0  0  0  0  0  0  0
  180.9100  174.7040  136.6540 C   0  0  0  0  0  1  0  0  0  0  0  0
  187.6640  178.0710  139.6960 C   0  0  1  0  0  3  0  0  0  0  0  0
  185.9180  174.5020  136.8430 N   0  0  0  0  0  0  0  0  0  0  0  0
  184.1840  176.3900  136.5370 C   0  0  2  0  0  3  0  0  0  0  0  0
  187.3390  178.5460  141.1100 C   0  0  1  0  0  3  0  0  0  0  0  0
  186.4600  178.4820  138.8750 C   0  0  2  0  0  3  0  0  0  0  0  0
  186.1780  173.1780  136.9700 O   0  0  0  0  0  1  0  0  0  0  0  0
  187.0070  175.4110  136.6170 C   0  0  0  0  0  0  0  0  0  0  0  0
  186.9990  176.7550  137.1170 N   0  0  0  0  0  2  0  0  0  0  0  0
  190.7340  172.7470  134.6680 C   0  0  0  0  0  2  0  0  0  0  0  0
  189.2090  174.5480  135.5140 C   0  0  0  0  0  0  0  0  0  0  0  0
  184.6700  177.2550  137.6730 C   0  0  0  0  0  0  0  0  0  0  0  0
  185.4520  178.7790  139.8700 N   0  0  0  0  0  0  0  0  0  0  0  0
  183.6760  177.9610  138.5210 C   0  0  0  0  0  3  0  0  0  0  0  0
  191.5200  175.3300  136.0340 C   0  0  0  0  0  3  0  0  0  0  0  0
  182.3420  175.1120  136.6650 C   0  0  0  0  0  0  0  0  0  0  0  0
  185.9120  178.8550  141.1890 N   0  0  0  0  0  2  0  0  0  0  0  0
  185.9950  177.4110  137.9090 C   0  0  0  0  0  0  0  0  0  0  0  0
  182.7230  176.3320  136.4770 N   0  0  0  0  0  0  0  0  0  0  0  0
  189.3260  173.1040  135.1290 C   0  0  0  0  0  2  0  0  0  0  0  0
  184.0600  178.6650  139.5820 C   0  0  0  0  0  3  0  0  0  0  0  0
  183.3880  172.7460  137.0630 C   0  0  0  0  0  1  0  0  0  0  0  0
  190.2920  175.5260  135.1880 C   0  0  0  0  0  2  0  0  0  0  0  0
  191.6930  172.7800  135.8510 C   0  0  0  0  0  2  0  0  0  0  0  0
  192.1360  174.1600  136.2780 C   0  0  0  0  0  3  0  0  0  0  0  0
  188.1070  174.9750  136.0630 C   0  0  0  0  0  0  0  0  0  0  0  0
  188.9130  178.7890  139.2110 C   0  0  0  0  0  2  0  0  0  0  0  0
  189.8010  177.8400  138.4280 C   0  0  0  0  0  2  0  0  0  0  0  0
  190.5800  176.9880  139.3640 C   0  0  0  0  0  0  0  0  0  0  0  0
  190.5880  175.7390  139.2200 O   0  0  0  0  0  0  0  0  0  0  0  0
  191.2760  177.5680  140.4160 O   0  0  0  0  0  1  0  0  0  0  0  0
  187.7010  177.4610  142.1150 C   0  0  0  0  0  2  0  0  0  0  0  0
  187.2700  177.8470  143.5250 C   0  0  0  0  0  2  0  0  0  0  0  0
  189.2340  177.0490  146.6680 C   0  0  0  0  0  3  0  0  0  0  0  0
  190.7570  177.9110  145.0000 C   0  0  0  0  0  3  0  0  0  0  0  0
  188.3990  177.7050  144.4920 C   0  0  0  0  0  0  0  0  0  0  0  0
  189.6950  178.0590  144.1040 C   0  0  0  0  0  3  0  0  0  0  0  0
  188.1690  177.1970  145.7740 C   0  0  0  0  0  3  0  0  0  0  0  0
  190.5320  177.4080  146.2910 C   0  0  0  0  0  0  0  0  0  0  0  0
  191.6000  177.2260  147.2290 N   0  0  0  0  0  2  0  0  0  0  0  0
  192.2860  176.0010  147.5120 C   0  0  0  0  0  0  0  0  0  0  0  0
  193.1360  175.9870  148.4410 O   0  0  0  0  0  0  0  0  0  0  0  0
  192.0310  174.8490  146.7490 O   0  0  0  0  0  0  0  0  0  0  0  0
  192.5880  174.5390  145.4990 C   0  0  0  0  0  3  0  0  0  0  0  0
  192.0700  174.9280  144.3400 C   0  0  0  0  0  2  0  0  0  0  0  0
  1  5  1  0  0  0  0
  1  2  2  0  0  0  0
  2 24  1  0  0  0  0
  3 18  1  0  0  0  0
  4 29  1  6  0  0  0
  4  7  1  0  0  0  0
  5  9  1  0  0  0  0
  6 21  1  1  0  0  0
  6  1  1  0  0  0  0
  6 14  1  0  0  0  0
  7 19  1  0  0  0  0
  7 34  1  1  0  0  0
  8 20  1  6  0  0  0
  8  4  1  0  0  0  0
  8 15  1  0  0  0  0
 10  5  1  0  0  0  0
 10 11  1  0  0  0  0
 11 20  1  0  0  0  0
 12 22  1  0  0  0  0
 12 26  1  0  0  0  0
 13 28  2  0  0  0  0
 14 20  2  0  0  0  0
 14 16  1  0  0  0  0
 15 19  1  0  0  0  0
 16 23  2  0  0  0  0
 17 27  2  0  0  0  0
 18  2  1  0  0  0  0
 21 18  2  0  0  0  0
 22 13  1  0  0  0  0
 23 15  1  0  0  0  0
 25 13  1  0  0  0  0
 25 17  1  0  0  0  0
 26 27  1  0  0  0  0
 28 10  2  0  0  0  0
 30 29  1  0  0  0  0
 30 31  1  0  0  0  0
 31 33  1  0  0  0  0
 32 31  2  0  0  0  0
 34 35  1  0  0  0  0
 35 38  1  0  0  0  0
 37 41  2  0  0  0  0
 38 40  1  0  0  0  0
 39 38  2  0  0  0  0
 39 37  1  0  0  0  0
 40 36  2  0  0  0  0
 41 36  1  0  0  0  0
 41 42  1  0  0  0  0
 42 43  1  0  0  0  0
 43 44  2  0  0  0  0
 45 43  1  0  0  0  0
 46 45  1  0  0  0  0
 47 46  2  0  0  0  0
M  END
>  <MODEL>
3

>  <REMARK>
 VINA RESULT:      -8.2      2.882      4.177
  Name = 
  9 active torsions:
  status: ('A' for Active; 'I' for Inactive)
    1  A    between atoms: C_2  and  O_47
    2  A    between atoms: C_4  and  C_46
    3  A    between atoms: C_6  and  C_18
    4  A    between atoms: N_9  and  C_40
    5  A    between atoms: C_10  and  O_47
    6  A    between atoms: C_12  and  C_45
    7  A    between atoms: C_18  and  C_46
    8  A    between atoms: C_29  and  C_31
    9  A    between atoms: C_29  and  C_45
                            x       y       z     vdW  Elec       q    Type
                         _______ _______ _______ _____ _____    ______ ____

>  <TORSDO>
F 9

$$$$
=
 OpenBabel10222422083D

 47 52  0  0  1  0  0  0  0  0999 V2000
  185.1290  173.9680  136.4800 C   0  0  0  0  0  0  0  0  0  0  0  0
  184.0780  173.2150  136.7810 C   0  0  0  0  0  0  0  0  0  0  0  0
  181.4930  173.5650  136.6880 C   0  0  0  0  0  1  0  0  0  0  0  0
  188.2780  177.6750  138.4970 C   0  0  1  0  0  3  0  0  0  0  0  0
  186.5050  173.5670  136.5190 N   0  0  0  0  0  0  0  0  0  0  0  0
  184.6670  175.3030  135.9970 C   0  0  2  0  0  3  0  0  0  0  0  0
  188.0310  178.4020  139.8170 C   0  0  1  0  0  3  0  0  0  0  0  0
  187.0010  177.8800  137.7100 C   0  0  2  0  0  3  0  0  0  0  0  0
  186.8360  172.3020  136.8750 O   0  0  0  0  0  1  0  0  0  0  0  0
  187.5310  174.4500  136.0400 C   0  0  0  0  0  0  0  0  0  0  0  0
  187.4960  175.8650  136.2750 N   0  0  0  0  0  2  0  0  0  0  0  0
  191.2320  171.5840  134.3460 C   0  0  0  0  0  2  0  0  0  0  0  0
  189.6890  173.4640  134.9520 C   0  0  0  0  0  0  0  0  0  0  0  0
  185.1900  176.3860  136.9070 C   0  0  0  0  0  0  0  0  0  0  0  0
  186.0520  178.3300  138.7070 N   0  0  0  0  0  0  0  0  0  0  0  0
  184.2270  177.2100  137.6800 C   0  0  0  0  0  3  0  0  0  0  0  0
  191.9910  174.4070  135.1320 C   0  0  0  0  0  3  0  0  0  0  0  0
  182.9000  174.0140  136.5090 C   0  0  0  0  0  0  0  0  0  0  0  0
  186.6000  178.6740  139.9470 N   0  0  0  0  0  2  0  0  0  0  0  0
  186.5200  176.6280  137.0050 C   0  0  0  0  0  0  0  0  0  0  0  0
  183.2090  175.1870  136.0640 N   0  0  0  0  0  0  0  0  0  0  0  0
  189.8450  171.9780  134.8400 C   0  0  0  0  0  2  0  0  0  0  0  0
  184.6510  178.1170  138.5550 C   0  0  0  0  0  3  0  0  0  0  0  0
  184.0820  171.8040  137.2660 C   0  0  0  0  0  1  0  0  0  0  0  0
  190.6980  174.3950  134.3620 C   0  0  0  0  0  2  0  0  0  0  0  0
  192.2700  171.8760  135.4220 C   0  0  0  0  0  2  0  0  0  0  0  0
  192.6770  173.3260  135.5440 C   0  0  0  0  0  3  0  0  0  0  0  0
  188.6090  173.9520  135.4950 C   0  0  0  0  0  0  0  0  0  0  0  0
  189.4550  178.3260  137.7880 C   0  0  0  0  0  2  0  0  0  0  0  0
  190.2280  177.2960  136.9870 C   0  0  0  0  0  2  0  0  0  0  0  0
  190.9460  176.3750  137.9060 C   0  0  0  0  0  0  0  0  0  0  0  0
  191.9370  176.7870  138.5620 O   0  0  0  0  0  1  0  0  0  0  0  0
  190.5420  175.0520  138.0200 O   0  0  0  0  0  0  0  0  0  0  0  0
  188.5140  177.5440  140.9780 C   0  0  0  0  0  2  0  0  0  0  0  0
  190.0250  177.3530  140.9340 C   0  0  0  0  0  2  0  0  0  0  0  0
  191.4000  178.0000  144.4070 C   0  0  0  0  0  3  0  0  0  0  0  0
  191.2660  175.6120  144.0580 C   0  0  0  0  0  3  0  0  0  0  0  0
  190.5810  177.1290  142.3010 C   0  0  0  0  0  0  0  0  0  0  0  0
  190.7630  175.8250  142.7720 C   0  0  0  0  0  3  0  0  0  0  0  0
  190.8980  178.2170  143.1210 C   0  0  0  0  0  3  0  0  0  0  0  0
  191.5920  176.6990  144.8830 C   0  0  0  0  0  0  0  0  0  0  0  0
  192.0930  176.5170  146.2140 N   0  0  0  0  0  2  0  0  0  0  0  0
  191.3230  176.5160  147.4220 C   0  0  0  0  0  0  0  0  0  0  0  0
  191.9290  176.4440  148.5230 O   0  0  0  0  0  0  0  0  0  0  0  0
  189.9190  176.5690  147.3720 O   0  0  0  0  0  0  0  0  0  0  0  0
  189.1260  177.7180  147.5010 C   0  0  0  0  0  3  0  0  0  0  0  0
  188.3010  177.9390  148.5180 C   0  0  0  0  0  2  0  0  0  0  0  0
  1  5  1  0  0  0  0
  1  2  2  0  0  0  0
  2 24  1  0  0  0  0
  4 29  1  6  0  0  0
  4  7  1  0  0  0  0
  5  9  1  0  0  0  0
  6 21  1  1  0  0  0
  6  1  1  0  0  0  0
  6 14  1  0  0  0  0
  7 19  1  0  0  0  0
  7 34  1  1  0  0  0
  8 20  1  1  0  0  0
  8  4  1  0  0  0  0
  8 15  1  0  0  0  0
 10 11  1  0  0  0  0
 10  5  1  0  0  0  0
 11 20  1  0  0  0  0
 12 22  1  0  0  0  0
 12 26  1  0  0  0  0
 13 28  2  0  0  0  0
 14 20  2  0  0  0  0
 14 16  1  0  0  0  0
 15 19  1  0  0  0  0
 16 23  2  0  0  0  0
 17 27  2  0  0  0  0
 18  3  1  0  0  0  0
 18  2  1  0  0  0  0
 21 18  2  0  0  0  0
 22 13  1  0  0  0  0
 23 15  1  0  0  0  0
 25 13  1  0  0  0  0
 25 17  1  0  0  0  0
 26 27  1  0  0  0  0
 28 10  2  0  0  0  0
 30 29  1  0  0  0  0
 30 31  1  0  0  0  0
 31 33  2  0  0  0  0
 31 32  1  0  0  0  0
 35 34  1  0  0  0  0
 35 38  1  0  0  0  0
 36 41  1  0  0  0  0
 37 41  2  0  0  0  0
 38 39  2  0  0  0  0
 38 40  1  0  0  0  0
 39 37  1  0  0  0  0
 40 36  2  0  0  0  0
 41 42  1  0  0  0  0
 42 43  1  0  0  0  0
 43 44  2  0  0  0  0
 45 43  1  0  0  0  0
 45 46  1  0  0  0  0
 46 47  2  0  0  0  0
M  END
>  <MODEL>
4

>  <REMARK>
 VINA RESULT:      -8.2      2.490      3.391
  Name = 
  9 active torsions:
  status: ('A' for Active; 'I' for Inactive)
    1  A    between atoms: C_2  and  O_47
    2  A    between atoms: C_4  and  C_46
    3  A    between atoms: C_6  and  C_18
    4  A    between atoms: N_9  and  C_40
    5  A    between atoms: C_10  and  O_47
    6  A    between atoms: C_12  and  C_45
    7  A    between atoms: C_18  and  C_46
    8  A    between atoms: C_29  and  C_31
    9  A    between atoms: C_29  and  C_45
                            x       y       z     vdW  Elec       q    Type
                         _______ _______ _______ _____ _____    ______ ____

>  <TORSDO>
F 9

$$$$
=
 OpenBabel10222422083D

 47 52  0  0  1  0  0  0  0  0999 V2000
  188.3310  178.0070  142.7420 C   0  0  0  0  0  0  0  0  0  0  0  0
  188.7730  177.6360  143.9380 C   0  0  0  0  0  0  0  0  0  0  0  0
  191.0020  177.9860  145.2510 C   0  0  0  0  0  1  0  0  0  0  0  0
  188.3860  176.5580  137.6800 C   0  0  1  0  0  3  0  0  0  0  0  0
  187.0170  177.7870  142.2120 N   0  0  0  0  0  0  0  0  0  0  0  0
  189.3930  178.7820  142.0340 C   0  0  2  0  0  3  0  0  0  0  0  0
  189.2460  175.4360  137.1050 C   0  0  1  0  0  3  0  0  0  0  0  0
  189.3720  177.4610  138.3900 C   0  0  2  0  0  3  0  0  0  0  0  0
  186.0770  177.1600  142.9610 O   0  0  0  0  0  1  0  0  0  0  0  0
  186.6390  178.3600  140.9500 C   0  0  0  0  0  0  0  0  0  0  0  0
  187.5400  178.4190  139.8350 N   0  0  0  0  0  2  0  0  0  0  0  0
  181.7300  179.1650  141.1380 C   0  0  0  0  0  2  0  0  0  0  0  0
  184.1610  179.0650  140.5350 C   0  0  0  0  0  0  0  0  0  0  0  0
  189.7800  178.0750  140.7590 C   0  0  0  0  0  0  0  0  0  0  0  0
  190.5650  176.6480  138.4990 N   0  0  0  0  0  0  0  0  0  0  0  0
  191.1630  177.5560  140.6100 C   0  0  0  0  0  3  0  0  0  0  0  0
  182.9310  178.9140  138.3710 C   0  0  0  0  0  3  0  0  0  0  0  0
  190.1220  178.1500  144.0610 C   0  0  0  0  0  0  0  0  0  0  0  0
  190.5580  175.4670  137.7500 N   0  0  0  0  0  2  0  0  0  0  0  0
  188.8900  177.9320  139.7470 C   0  0  0  0  0  0  0  0  0  0  0  0
  190.4870  178.7990  143.0060 N   0  0  0  0  0  0  0  0  0  0  0  0
  183.1450  178.8630  141.6180 C   0  0  0  0  0  2  0  0  0  0  0  0
  191.5190  176.8550  139.5380 C   0  0  0  0  0  3  0  0  0  0  0  0
  188.0280  176.8770  144.9840 C   0  0  0  0  0  1  0  0  0  0  0  0
  183.8050  179.7570  139.2590 C   0  0  0  0  0  2  0  0  0  0  0  0
  181.2770  178.0970  140.1500 C   0  0  0  0  0  2  0  0  0  0  0  0
  181.8290  178.2430  138.7510 C   0  0  0  0  0  3  0  0  0  0  0  0
  185.3980  178.7130  140.7470 C   0  0  0  0  0  0  0  0  0  0  0  0
  187.7120  177.2980  136.5340 C   0  0  0  0  0  2  0  0  0  0  0  0
  186.2350  177.4870  136.8220 C   0  0  0  0  0  2  0  0  0  0  0  0
  185.4300  176.5950  135.9480 C   0  0  0  0  0  0  0  0  0  0  0  0
  185.8790  176.2380  134.8280 O   0  0  0  0  0  0  0  0  0  0  0  0
  184.1700  176.1760  136.3530 O   0  0  0  0  0  1  0  0  0  0  0  0
  188.5710  174.0930  137.3480 C   0  0  0  0  0  2  0  0  0  0  0  0
  187.9660  173.5380  136.0640 C   0  0  0  0  0  2  0  0  0  0  0  0
  184.6720  171.7310  135.5610 C   0  0  0  0  0  3  0  0  0  0  0  0
  184.6510  172.7900  137.7330 C   0  0  0  0  0  3  0  0  0  0  0  0
  186.5870  173.0160  136.2970 C   0  0  0  0  0  0  0  0  0  0  0  0
  185.9350  173.2920  137.5030 C   0  0  0  0  0  3  0  0  0  0  0  0
  185.9550  172.2320  135.3270 C   0  0  0  0  0  3  0  0  0  0  0  0
  184.0090  172.0090  136.7610 C   0  0  0  0  0  0  0  0  0  0  0  0
  182.7010  171.4620  136.9700 N   0  0  0  0  0  2  0  0  0  0  0  0
  181.4580  172.1700  136.8890 C   0  0  0  0  0  0  0  0  0  0  0  0
  180.3980  171.5660  137.2020 O   0  0  0  0  0  0  0  0  0  0  0  0
  181.4260  173.5030  136.4440 O   0  0  0  0  0  0  0  0  0  0  0  0
  181.0040  174.6160  137.1850 C   0  0  0  0  0  3  0  0  0  0  0  0
  180.9710  174.6540  138.5120 C   0  0  0  0  0  2  0  0  0  0  0  0
  1  2  2  0  0  0  0
  2 18  1  0  0  0  0
  2 24  1  0  0  0  0
  4 29  1  6  0  0  0
  4  8  1  0  0  0  0
  5  1  1  0  0  0  0
  5  9  1  0  0  0  0
  6 14  1  6  0  0  0
  6  1  1  0  0  0  0
  6 21  1  0  0  0  0
  7 34  1  1  0  0  0
  7  4  1  0  0  0  0
  7 19  1  0  0  0  0
  8 15  1  0  0  0  0
  8 20  1  1  0  0  0
 10  5  1  0  0  0  0
 11 10  1  0  0  0  0
 12 22  1  0  0  0  0
 13 28  2  0  0  0  0
 13 22  1  0  0  0  0
 15 23  1  0  0  0  0
 16 14  1  0  0  0  0
 17 27  2  0  0  0  0
 17 25  1  0  0  0  0
 18  3  1  0  0  0  0
 19 15  1  0  0  0  0
 20 11  1  0  0  0  0
 20 14  2  0  0  0  0
 21 18  2  0  0  0  0
 23 16  2  0  0  0  0
 25 13  1  0  0  0  0
 26 12  1  0  0  0  0
 27 26  1  0  0  0  0
 28 10  2  0  0  0  0
 29 30  1  0  0  0  0
 31 33  1  0  0  0  0
 31 30  1  0  0  0  0
 32 31  2  0  0  0  0
 35 38  1  0  0  0  0
 35 34  1  0  0  0  0
 36 41  1  0  0  0  0
 38 39  2  0  0  0  0
 39 37  1  0  0  0  0
 40 36  2  0  0  0  0
 40 38  1  0  0  0  0
 41 42  1  0  0  0  0
 41 37  2  0  0  0  0
 43 42  1  0  0  0  0
 43 44  2  0  0  0  0
 45 43  1  0  0  0  0
 45 46  1  0  0  0  0
 46 47  2  0  0  0  0
M  END
>  <MODEL>
5

>  <REMARK>
 VINA RESULT:      -7.9      3.532      9.306
  Name = 
  9 active torsions:
  status: ('A' for Active; 'I' for Inactive)
    1  A    between atoms: C_2  and  O_47
    2  A    between atoms: C_4  and  C_46
    3  A    between atoms: C_6  and  C_18
    4  A    between atoms: N_9  and  C_40
    5  A    between atoms: C_10  and  O_47
    6  A    between atoms: C_12  and  C_45
    7  A    between atoms: C_18  and  C_46
    8  A    between atoms: C_29  and  C_31
    9  A    between atoms: C_29  and  C_45
                            x       y       z     vdW  Elec       q    Type
                         _______ _______ _______ _____ _____    ______ ____

>  <TORSDO>
F 9

$$$$
=
 OpenBabel10222422083D

 47 52  0  0  1  0  0  0  0  0999 V2000
  187.0350  174.2020  135.5680 C   0  0  0  0  0  0  0  0  0  0  0  0
  185.7490  173.8800  135.6480 C   0  0  0  0  0  0  0  0  0  0  0  0
  183.5220  175.0880  135.0220 C   0  0  0  0  0  1  0  0  0  0  0  0
  190.8350  176.7460  138.1790 C   0  0  1  0  0  3  0  0  0  0  0  0
  188.1480  173.3580  135.8920 N   0  0  0  0  0  0  0  0  0  0  0  0
  187.1740  175.5740  134.9950 C   0  0  2  0  0  3  0  0  0  0  0  0
  190.6110  177.6120  139.4150 C   0  0  1  0  0  3  0  0  0  0  0  0
  189.8890  177.3160  137.1440 C   0  0  2  0  0  3  0  0  0  0  0  0
  187.9380  172.0870  136.3130 O   0  0  0  0  0  1  0  0  0  0  0  0
  189.4910  173.7960  135.6320 C   0  0  0  0  0  0  0  0  0  0  0  0
  189.9100  175.1510  135.8500 N   0  0  0  0  0  2  0  0  0  0  0  0
  192.2000  169.7140  134.7500 C   0  0  0  0  0  2  0  0  0  0  0  0
  191.3300  172.0500  135.0170 C   0  0  0  0  0  0  0  0  0  0  0  0
  187.8590  176.4780  135.9890 C   0  0  0  0  0  0  0  0  0  0  0  0
  188.9860  178.1380  137.9210 N   0  0  0  0  0  0  0  0  0  0  0  0
  187.1170  177.6380  136.5440 C   0  0  0  0  0  3  0  0  0  0  0  0
  193.7360  172.1570  135.6650 C   0  0  0  0  0  3  0  0  0  0  0  0
  185.0040  175.0120  135.1350 C   0  0  0  0  0  0  0  0  0  0  0  0
  189.3710  178.3670  139.2460 N   0  0  0  0  0  2  0  0  0  0  0  0
  189.1440  176.2550  136.3590 C   0  0  0  0  0  0  0  0  0  0  0  0
  185.7840  175.9700  134.7590 N   0  0  0  0  0  0  0  0  0  0  0  0
  190.9730  170.5960  134.9450 C   0  0  0  0  0  2  0  0  0  0  0  0
  187.6560  178.4090  137.4840 C   0  0  0  0  0  3  0  0  0  0  0  0
  185.1650  172.5950  136.1280 C   0  0  0  0  0  1  0  0  0  0  0  0
  192.6950  172.5310  134.6450 C   0  0  0  0  0  2  0  0  0  0  0  0
  193.0470  169.7140  136.0160 C   0  0  0  0  0  2  0  0  0  0  0  0
  193.9060  170.9410  136.2140 C   0  0  0  0  0  3  0  0  0  0  0  0
  190.4080  172.9190  135.3230 C   0  0  0  0  0  0  0  0  0  0  0  0
  192.2790  176.8980  137.7250 C   0  0  0  0  0  2  0  0  0  0  0  0
  192.8260  175.5690  137.2400 C   0  0  0  0  0  2  0  0  0  0  0  0
  194.0010  175.7960  136.3600 C   0  0  0  0  0  0  0  0  0  0  0  0
  193.8380  175.9750  135.1260 O   0  0  0  0  0  0  0  0  0  0  0  0
  195.2820  175.7830  136.8950 O   0  0  0  0  0  1  0  0  0  0  0  0
  190.5290  176.7310  140.6540 C   0  0  0  0  0  2  0  0  0  0  0  0
  189.0890  176.5740  141.1280 C   0  0  0  0  0  2  0  0  0  0  0  0
  187.7360  176.9290  144.6520 C   0  0  0  0  0  3  0  0  0  0  0  0
  189.7700  178.2220  144.4680 C   0  0  0  0  0  3  0  0  0  0  0  0
  188.9390  176.9990  142.5510 C   0  0  0  0  0  0  0  0  0  0  0  0
  189.8970  177.8370  143.1310 C   0  0  0  0  0  3  0  0  0  0  0  0
  187.8600  176.5430  143.3140 C   0  0  0  0  0  3  0  0  0  0  0  0
  188.6860  177.7730  145.2370 C   0  0  0  0  0  0  0  0  0  0  0  0
  188.5340  178.1330  146.6160 N   0  0  0  0  0  2  0  0  0  0  0  0
  189.1220  177.4680  147.7400 C   0  0  0  0  0  0  0  0  0  0  0  0
  188.8070  177.8490  148.8980 O   0  0  0  0  0  0  0  0  0  0  0  0
  190.0490  176.4300  147.5480 O   0  0  0  0  0  0  0  0  0  0  0  0
  191.3320  176.5530  146.9930 C   0  0  0  0  0  3  0  0  0  0  0  0
  191.9770  175.5600  146.3920 C   0  0  0  0  0  2  0  0  0  0  0  0
  1  2  2  0  0  0  0
  1  5  1  0  0  0  0
  2 24  1  0  0  0  0
  3 18  1  0  0  0  0
  4 29  1  6  0  0  0
  4  7  1  0  0  0  0
  5  9  1  0  0  0  0
  6 21  1  1  0  0  0
  6  1  1  0  0  0  0
  6 14  1  0  0  0  0
  7 34  1  1  0  0  0
  8 20  1  1  0  0  0
  8 15  1  0  0  0  0
  8  4  1  0  0  0  0
 10 11  1  0  0  0  0
 10  5  1  0  0  0  0
 11 20  1  0  0  0  0
 12 22  1  0  0  0  0
 12 26  1  0  0  0  0
 13 28  2  0  0  0  0
 14 20  2  0  0  0  0
 14 16  1  0  0  0  0
 15 19  1  0  0  0  0
 16 23  2  0  0  0  0
 17 27  2  0  0  0  0
 18  2  1  0  0  0  0
 19  7  1  0  0  0  0
 21 18  2  0  0  0  0
 22 13  1  0  0  0  0
 23 15  1  0  0  0  0
 25 13  1  0  0  0  0
 25 17  1  0  0  0  0
 26 27  1  0  0  0  0
 28 10  2  0  0  0  0
 30 29  1  0  0  0  0
 31 33  1  0  0  0  0
 31 30  1  0  0  0  0
 32 31  2  0  0  0  0
 34 35  1  0  0  0  0
 35 38  1  0  0  0  0
 36 41  1  0  0  0  0
 37 41  2  0  0  0  0
 38 39  2  0  0  0  0
 38 40  1  0  0  0  0
 39 37  1  0  0  0  0
 40 36  2  0  0  0  0
 41 42  1  0  0  0  0
 42 43  1  0  0  0  0
 43 44  2  0  0  0  0
 45 43  1  0  0  0  0
 46 45  1  0  0  0  0
 47 46  2  0  0  0  0
M  END
>  <MODEL>
6

>  <REMARK>
 VINA RESULT:      -7.5      1.623      2.380
  Name = 
  9 active torsions:
  status: ('A' for Active; 'I' for Inactive)
    1  A    between atoms: C_2  and  O_47
    2  A    between atoms: C_4  and  C_46
    3  A    between atoms: C_6  and  C_18
    4  A    between atoms: N_9  and  C_40
    5  A    between atoms: C_10  and  O_47
    6  A    between atoms: C_12  and  C_45
    7  A    between atoms: C_18  and  C_46
    8  A    between atoms: C_29  and  C_31
    9  A    between atoms: C_29  and  C_45
                            x       y       z     vdW  Elec       q    Type
                         _______ _______ _______ _____ _____    ______ ____

>  <TORSDO>
F 9

$$$$
=
 OpenBabel10222422083D

 47 52  0  0  1  0  0  0  0  0999 V2000
  187.6370  178.0320  142.4890 C   0  0  0  0  0  0  0  0  0  0  0  0
  188.1270  177.6670  143.6680 C   0  0  0  0  0  0  0  0  0  0  0  0
  190.4380  177.9460  144.8500 C   0  0  0  0  0  1  0  0  0  0  0  0
  187.3500  176.4750  137.4670 C   0  0  1  0  0  3  0  0  0  0  0  0
  186.2870  177.8590  142.0360 N   0  0  0  0  0  0  0  0  0  0  0  0
  188.6900  178.7440  141.7060 C   0  0  2  0  0  3  0  0  0  0  0  0
  188.1280  175.3030  136.8740 C   0  0  1  0  0  3  0  0  0  0  0  0
  188.4120  177.3480  138.1010 C   0  0  2  0  0  3  0  0  0  0  0  0
  185.3640  177.2900  142.8490 O   0  0  0  0  0  1  0  0  0  0  0  0
  185.8650  178.4210  140.7840 C   0  0  0  0  0  0  0  0  0  0  0  0
  186.7060  178.4160  139.6210 N   0  0  0  0  0  2  0  0  0  0  0  0
  181.0130  179.4470  141.2170 C   0  0  0  0  0  2  0  0  0  0  0  0
  183.4010  179.2270  140.4860 C   0  0  0  0  0  0  0  0  0  0  0  0
  188.9750  177.9930  140.4300 C   0  0  0  0  0  0  0  0  0  0  0  0
  189.5730  176.4850  138.1650 N   0  0  0  0  0  0  0  0  0  0  0  0
  190.3250  177.4110  140.2190 C   0  0  0  0  0  3  0  0  0  0  0  0
  182.0480  179.0840  138.3960 C   0  0  0  0  0  3  0  0  0  0  0  0
  189.5020  178.1230  143.7060 C   0  0  0  0  0  0  0  0  0  0  0  0
  189.4740  175.2900  137.4450 N   0  0  0  0  0  2  0  0  0  0  0  0
  188.0260  177.8680  139.4710 C   0  0  0  0  0  0  0  0  0  0  0  0
  189.8360  178.7330  142.6180 N   0  0  0  0  0  0  0  0  0  0  0  0
  182.4380  179.0930  141.6270 C   0  0  0  0  0  2  0  0  0  0  0  0
  190.5910  176.6720  139.1450 C   0  0  0  0  0  3  0  0  0  0  0  0
  187.4090  176.9650  144.7700 C   0  0  0  0  0  1  0  0  0  0  0  0
  183.0050  179.9060  139.2150 C   0  0  0  0  0  2  0  0  0  0  0  0
  180.4610  178.3800  140.2810 C   0  0  0  0  0  2  0  0  0  0  0  0
  180.9410  178.4710  138.8510 C   0  0  0  0  0  3  0  0  0  0  0  0
  184.6310  178.8250  140.6390 C   0  0  0  0  0  0  0  0  0  0  0  0
  186.6470  177.2180  136.3420 C   0  0  0  0  0  2  0  0  0  0  0  0
  185.6160  176.3250  135.6790 C   0  0  0  0  0  2  0  0  0  0  0  0
  184.2910  176.5140  136.3270 C   0  0  0  0  0  0  0  0  0  0  0  0
  183.4620  177.3240  135.8390 O   0  0  0  0  0  0  0  0  0  0  0  0
  183.9800  175.8180  137.4870 O   0  0  0  0  0  1  0  0  0  0  0  0
  187.4100  173.9970  137.1840 C   0  0  0  0  0  2  0  0  0  0  0  0
  187.1260  173.2060  135.9130 C   0  0  0  0  0  2  0  0  0  0  0  0
  183.7060  172.2530  134.5830 C   0  0  0  0  0  3  0  0  0  0  0  0
  183.7070  171.9820  136.9850 C   0  0  0  0  0  3  0  0  0  0  0  0
  185.7010  172.7660  135.8570 C   0  0  0  0  0  0  0  0  0  0  0  0
  185.0360  172.4110  137.0350 C   0  0  0  0  0  3  0  0  0  0  0  0
  185.0350  172.6850  134.6300 C   0  0  0  0  0  3  0  0  0  0  0  0
  183.0320  171.9040  135.7570 C   0  0  0  0  0  0  0  0  0  0  0  0
  181.6750  171.4500  135.6670 N   0  0  0  0  0  2  0  0  0  0  0  0
  181.2250  170.2190  135.0900 C   0  0  0  0  0  0  0  0  0  0  0  0
  179.9860  170.0140  134.9970 O   0  0  0  0  0  0  0  0  0  0  0  0
  182.1510  169.2520  134.6620 O   0  0  0  0  0  0  0  0  0  0  0  0
  182.7930  168.3010  135.4690 C   0  0  0  0  0  3  0  0  0  0  0  0
  184.0830  168.3440  135.7810 C   0  0  0  0  0  2  0  0  0  0  0  0
  1  2  2  0  0  0  0
  2 18  1  0  0  0  0
  2 24  1  0  0  0  0
  4 29  1  6  0  0  0
  4  8  1  0  0  0  0
  5  1  1  0  0  0  0
  5  9  1  0  0  0  0
  6 14  1  6  0  0  0
  6  1  1  0  0  0  0
  6 21  1  0  0  0  0
  7 34  1  1  0  0  0
  7 19  1  0  0  0  0
  7  4  1  0  0  0  0
  8 15  1  0  0  0  0
  8 20  1  1  0  0  0
 10  5  1  0  0  0  0
 11 10  1  0  0  0  0
 12 22  1  0  0  0  0
 13 28  2  0  0  0  0
 13 22  1  0  0  0  0
 15 23  1  0  0  0  0
 16 14  1  0  0  0  0
 17 27  2  0  0  0  0
 17 25  1  0  0  0  0
 18  3  1  0  0  0  0
 19 15  1  0  0  0  0
 20 11  1  0  0  0  0
 20 14  2  0  0  0  0
 21 18  2  0  0  0  0
 23 16  2  0  0  0  0
 25 13  1  0  0  0  0
 26 12  1  0  0  0  0
 27 26  1  0  0  0  0
 28 10  2  0  0  0  0
 30 31  1  0  0  0  0
 30 29  1  0  0  0  0
 31 33  1  0  0  0  0
 32 31  2  0  0  0  0
 35 34  1  0  0  0  0
 36 40  2  0  0  0  0
 36 41  1  0  0  0  0
 37 39  1  0  0  0  0
 38 35  1  0  0  0  0
 38 39  2  0  0  0  0
 40 38  1  0  0  0  0
 41 37  2  0  0  0  0
 42 41  1  0  0  0  0
 43 42  1  0  0  0  0
 44 43  2  0  0  0  0
 45 43  1  0  0  0  0
 45 46  1  0  0  0  0
 46 47  2  0  0  0  0
M  END
>  <MODEL>
7

>  <REMARK>
 VINA RESULT:      -7.0      3.801     10.188
  Name = 
  9 active torsions:
  status: ('A' for Active; 'I' for Inactive)
    1  A    between atoms: C_2  and  O_47
    2  A    between atoms: C_4  and  C_46
    3  A    between atoms: C_6  and  C_18
    4  A    between atoms: N_9  and  C_40
    5  A    between atoms: C_10  and  O_47
    6  A    between atoms: C_12  and  C_45
    7  A    between atoms: C_18  and  C_46
    8  A    between atoms: C_29  and  C_31
    9  A    between atoms: C_29  and  C_45
                            x       y       z     vdW  Elec       q    Type
                         _______ _______ _______ _____ _____    ______ ____

>  <TORSDO>
F 9

$$$$
=
 OpenBabel10222422083D

 47 52  0  0  1  0  0  0  0  0999 V2000
  184.6540  172.8770  135.5950 C   0  0  0  0  0  0  0  0  0  0  0  0
  183.9620  171.7530  135.7430 C   0  0  0  0  0  0  0  0  0  0  0  0
  181.6930  170.8670  134.8060 C   0  0  0  0  0  1  0  0  0  0  0  0
  185.0540  177.7700  137.4990 C   0  0  1  0  0  3  0  0  0  0  0  0
  185.9510  173.1590  136.1360 N   0  0  0  0  0  0  0  0  0  0  0  0
  183.9130  173.8050  134.6900 C   0  0  2  0  0  3  0  0  0  0  0  0
  184.0640  178.4090  138.4700 C   0  0  1  0  0  3  0  0  0  0  0  0
  184.1970  177.2990  136.3440 C   0  0  2  0  0  3  0  0  0  0  0  0
  186.6010  172.2210  136.8680 O   0  0  0  0  0  1  0  0  0  0  0  0
  186.6360  174.3710  135.7850 C   0  0  0  0  0  0  0  0  0  0  0  0
  185.9520  175.6250  135.6500 N   0  0  0  0  0  2  0  0  0  0  0  0
  191.5130  173.3970  136.0090 C   0  0  0  0  0  2  0  0  0  0  0  0
  189.2420  174.4000  135.6580 C   0  0  0  0  0  0  0  0  0  0  0  0
  183.5780  175.0790  135.4240 C   0  0  0  0  0  0  0  0  0  0  0  0
  182.8510  177.3440  136.8750 N   0  0  0  0  0  0  0  0  0  0  0  0
  182.1530  175.4290  135.6550 C   0  0  0  0  0  3  0  0  0  0  0  0
  190.7250  176.3070  136.2790 C   0  0  0  0  0  3  0  0  0  0  0  0
  182.7590  171.8960  134.9490 C   0  0  0  0  0  0  0  0  0  0  0  0
  182.7090  178.0030  138.1000 N   0  0  0  0  0  2  0  0  0  0  0  0
  184.5580  175.9120  135.8510 C   0  0  0  0  0  0  0  0  0  0  0  0
  182.7140  173.0380  134.3470 N   0  0  0  0  0  0  0  0  0  0  0  0
  190.0100  173.1480  135.9580 C   0  0  0  0  0  2  0  0  0  0  0  0
  181.8190  176.4990  136.3700 C   0  0  0  0  0  3  0  0  0  0  0  0
  184.3500  170.5480  136.5320 C   0  0  0  0  0  1  0  0  0  0  0  0
  189.9350  175.6380  135.1870 C   0  0  0  0  0  2  0  0  0  0  0  0
  191.8620  174.2220  137.2410 C   0  0  0  0  0  2  0  0  0  0  0  0
  191.5780  175.7010  137.1240 C   0  0  0  0  0  3  0  0  0  0  0  0
  187.9410  174.3810  135.7210 C   0  0  0  0  0  0  0  0  0  0  0  0
  186.0430  178.8280  137.0360 C   0  0  0  0  0  2  0  0  0  0  0  0
  187.4220  178.2220  136.8550 C   0  0  0  0  0  2  0  0  0  0  0  0
  188.3290  178.6980  137.9320 C   0  0  0  0  0  0  0  0  0  0  0  0
  189.3060  179.4380  137.6510 O   0  0  0  0  0  0  0  0  0  0  0  0
  188.1150  178.3030  139.2460 O   0  0  0  0  0  1  0  0  0  0  0  0
  184.3780  177.9690  139.8930 C   0  0  0  0  0  2  0  0  0  0  0  0
  184.7760  179.1540  140.7640 C   0  0  0  0  0  2  0  0  0  0  0  0
  185.2740  178.2180  144.4040 C   0  0  0  0  0  3  0  0  0  0  0  0
  187.3470  177.8450  143.2170 C   0  0  0  0  0  3  0  0  0  0  0  0
  185.4140  178.7000  142.0350 C   0  0  0  0  0  0  0  0  0  0  0  0
  186.7510  178.2880  142.0330 C   0  0  0  0  0  3  0  0  0  0  0  0
  184.6760  178.6630  143.2210 C   0  0  0  0  0  3  0  0  0  0  0  0
  186.6120  177.8120  144.4120 C   0  0  0  0  0  0  0  0  0  0  0  0
  187.1860  177.3460  145.6400 N   0  0  0  0  0  2  0  0  0  0  0  0
  188.5810  177.2460  145.9460 C   0  0  0  0  0  0  0  0  0  0  0  0
  188.9240  176.7200  147.0370 O   0  0  0  0  0  0  0  0  0  0  0  0
  189.5430  177.7500  145.0530 O   0  0  0  0  0  0  0  0  0  0  0  0
  190.8060  177.1960  144.7930 C   0  0  0  0  0  3  0  0  0  0  0  0
  191.6320  176.7590  145.7350 C   0  0  0  0  0  2  0  0  0  0  0  0
  1  2  2  0  0  0  0
  1  5  1  0  0  0  0
  2 24  1  0  0  0  0
  3 18  1  0  0  0  0
  4 29  1  6  0  0  0
  4  7  1  0  0  0  0
  5  9  1  0  0  0  0
  6 21  1  1  0  0  0
  6 14  1  0  0  0  0
  6  1  1  0  0  0  0
  7 34  1  1  0  0  0
  8 20  1  1  0  0  0
  8 15  1  0  0  0  0
  8  4  1  0  0  0  0
 10  5  1  0  0  0  0
 11 10  1  0  0  0  0
 11 20  1  0  0  0  0
 12 26  1  0  0  0  0
 13 28  2  0  0  0  0
 13 22  1  0  0  0  0
 14 16  1  0  0  0  0
 14 20  2  0  0  0  0
 15 19  1  0  0  0  0
 16 23  2  0  0  0  0
 17 27  2  0  0  0  0
 18  2  1  0  0  0  0
 19  7  1  0  0  0  0
 21 18  2  0  0  0  0
 22 12  1  0  0  0  0
 23 15  1  0  0  0  0
 25 13  1  0  0  0  0
 25 17  1  0  0  0  0
 27 26  1  0  0  0  0
 28 10  2  0  0  0  0
 30 29  1  0  0  0  0
 30 31  1  0  0  0  0
 31 33  1  0  0  0  0
 32 31  2  0  0  0  0
 34 35  1  0  0  0  0
 35 38  1  0  0  0  0
 36 41  1  0  0  0  0
 37 41  2  0  0  0  0
 38 40  1  0  0  0  0
 39 38  2  0  0  0  0
 39 37  1  0  0  0  0
 40 36  2  0  0  0  0
 41 42  1  0  0  0  0
 42 43  1  0  0  0  0
 43 44  2  0  0  0  0
 45 43  1  0  0  0  0
 46 45  1  0  0  0  0
 46 47  2  0  0  0  0
M  END
>  <MODEL>
8

>  <REMARK>
 VINA RESULT:      -6.5      2.751      4.845
  Name = 
  9 active torsions:
  status: ('A' for Active; 'I' for Inactive)
    1  A    between atoms: C_2  and  O_47
    2  A    between atoms: C_4  and  C_46
    3  A    between atoms: C_6  and  C_18
    4  A    between atoms: N_9  and  C_40
    5  A    between atoms: C_10  and  O_47
    6  A    between atoms: C_12  and  C_45
    7  A    between atoms: C_18  and  C_46
    8  A    between atoms: C_29  and  C_31
    9  A    between atoms: C_29  and  C_45
                            x       y       z     vdW  Elec       q    Type
                         _______ _______ _______ _____ _____    ______ ____

>  <TORSDO>
F 9

$$$$
=
 OpenBabel10222422083D

 47 52  0  0  1  0  0  0  0  0999 V2000
  183.3940  175.4330  137.4680 C   0  0  0  0  0  0  0  0  0  0  0  0
  182.2250  175.4720  138.0970 C   0  0  0  0  0  0  0  0  0  0  0  0
  180.3740  177.2870  138.4000 C   0  0  0  0  0  1  0  0  0  0  0  0
  188.4790  176.6400  138.1080 C   0  0  1  0  0  3  0  0  0  0  0  0
  184.2560  174.2940  137.3400 N   0  0  0  0  0  0  0  0  0  0  0  0
  183.6580  176.7510  136.8190 C   0  0  2  0  0  3  0  0  0  0  0  0
  189.0420  177.4440  139.2780 C   0  0  1  0  0  3  0  0  0  0  0  0
  187.3880  177.5210  137.5370 C   0  0  2  0  0  3  0  0  0  0  0  0
  183.8950  173.1030  137.8760 O   0  0  0  0  0  1  0  0  0  0  0  0
  185.4320  174.3640  136.5180 C   0  0  0  0  0  0  0  0  0  0  0  0
  186.2630  175.5320  136.4690 N   0  0  0  0  0  2  0  0  0  0  0  0
  186.2700  169.7690  134.7960 C   0  0  0  0  0  2  0  0  0  0  0  0
  186.2800  172.2290  135.2810 C   0  0  0  0  0  0  0  0  0  0  0  0
  184.9170  177.3580  137.3850 C   0  0  0  0  0  0  0  0  0  0  0  0
  187.1610  178.5020  138.5770 N   0  0  0  0  0  0  0  0  0  0  0  0
  184.8300  178.6350  138.1390 C   0  0  0  0  0  3  0  0  0  0  0  0
  188.6620  171.6240  134.8540 C   0  0  0  0  0  3  0  0  0  0  0  0
  181.6820  176.7980  137.8860 C   0  0  0  0  0  0  0  0  0  0  0  0
  188.1090  178.5200  139.6050 N   0  0  0  0  0  2  0  0  0  0  0  0
  186.1210  176.7650  137.1940 C   0  0  0  0  0  0  0  0  0  0  0  0
  182.4680  177.5300  137.1670 N   0  0  0  0  0  0  0  0  0  0  0  0
  185.5350  170.9380  135.4410 C   0  0  0  0  0  2  0  0  0  0  0  0
  185.9030  179.1580  138.7240 C   0  0  0  0  0  3  0  0  0  0  0  0
  181.5610  174.3650  138.8440 C   0  0  0  0  0  1  0  0  0  0  0  0
  187.4410  172.3410  134.3460 C   0  0  0  0  0  2  0  0  0  0  0  0
  187.5300  169.4450  135.5890 C   0  0  0  0  0  2  0  0  0  0  0  0
  188.6980  170.3720  135.3440 C   0  0  0  0  0  3  0  0  0  0  0  0
  185.8520  173.2930  135.8990 C   0  0  0  0  0  0  0  0  0  0  0  0
  189.5820  176.4220  137.0840 C   0  0  0  0  0  2  0  0  0  0  0  0
  190.2890  175.1040  137.3380 C   0  0  0  0  0  2  0  0  0  0  0  0
  191.7550  175.2750  137.1700 C   0  0  0  0  0  0  0  0  0  0  0  0
  192.5500  174.7300  137.9780 O   0  0  0  0  0  1  0  0  0  0  0  0
  192.2490  176.0620  136.1380 O   0  0  0  0  0  0  0  0  0  0  0  0
  189.2410  176.5330  140.4810 C   0  0  0  0  0  2  0  0  0  0  0  0
  190.5190  176.8800  141.2340 C   0  0  0  0  0  2  0  0  0  0  0  0
  191.1140  177.2030  144.9640 C   0  0  0  0  0  3  0  0  0  0  0  0
  188.7400  176.9600  144.5750 C   0  0  0  0  0  3  0  0  0  0  0  0
  190.2780  176.9510  142.7050 C   0  0  0  0  0  0  0  0  0  0  0  0
  188.9720  176.8760  143.2000 C   0  0  0  0  0  3  0  0  0  0  0  0
  191.3490  177.1180  143.5890 C   0  0  0  0  0  3  0  0  0  0  0  0
  189.8110  177.1210  145.4670 C   0  0  0  0  0  0  0  0  0  0  0  0
  189.6090  177.2300  146.8820 N   0  0  0  0  0  2  0  0  0  0  0  0
  188.3940  177.6000  147.5430 C   0  0  0  0  0  0  0  0  0  0  0  0
  188.4090  177.7480  148.7940 O   0  0  0  0  0  0  0  0  0  0  0  0
  187.2070  177.7680  146.8100 O   0  0  0  0  0  0  0  0  0  0  0  0
  186.0920  178.5280  147.1950 C   0  0  0  0  0  3  0  0  0  0  0  0
  184.9820  178.6320  146.4750 C   0  0  0  0  0  2  0  0  0  0  0  0
  1  2  2  0  0  0  0
  2 24  1  0  0  0  0
  4 29  1  6  0  0  0
  4  7  1  0  0  0  0
  5  1  1  0  0  0  0
  5  9  1  0  0  0  0
  6 21  1  1  0  0  0
  6 14  1  0  0  0  0
  6  1  1  0  0  0  0
  7 19  1  0  0  0  0
  7 34  1  1  0  0  0
  8 20  1  1  0  0  0
  8  4  1  0  0  0  0
  8 15  1  0  0  0  0
 10  5  1  0  0  0  0
 11 10  1  0  0  0  0
 11 20  1  0  0  0  0
 12 22  1  0  0  0  0
 12 26  1  0  0  0  0
 13 22  1  0  0  0  0
 13 28  2  0  0  0  0
 14 16  1  0  0  0  0
 15 23  1  0  0  0  0
 15 19  1  0  0  0  0
 16 23  2  0  0  0  0
 17 27  2  0  0  0  0
 18  2  1  0  0  0  0
 18  3  1  0  0  0  0
 20 14  2  0  0  0  0
 21 18  2  0  0  0  0
 25 17  1  0  0  0  0
 25 13  1  0  0  0  0
 27 26  1  0  0  0  0
 28 10  2  0  0  0  0
 29 30  1  0  0  0  0
 31 30  1  0  0  0  0
 31 32  1  0  0  0  0
 33 31  2  0  0  0  0
 34 35  1  0  0  0  0
 35 38  1  0  0  0  0
 36 41  1  0  0  0  0
 37 41  2  0  0  0  0
 38 39  2  0  0  0  0
 38 40  1  0  0  0  0
 39 37  1  0  0  0  0
 40 36  2  0  0  0  0
 41 42  1  0  0  0  0
 42 43  1  0  0  0  0
 43 44  2  0  0  0  0
 45 46  1  0  0  0  0
 45 43  1  0  0  0  0
 47 46  2  0  0  0  0
M  END
>  <MODEL>
9

>  <REMARK>
 VINA RESULT:      -6.4      2.346      3.650
  Name = 
  9 active torsions:
  status: ('A' for Active; 'I' for Inactive)
    1  A    between atoms: C_2  and  O_47
    2  A    between atoms: C_4  and  C_46
    3  A    between atoms: C_6  and  C_18
    4  A    between atoms: N_9  and  C_40
    5  A    between atoms: C_10  and  O_47
    6  A    between atoms: C_12  and  C_45
    7  A    between atoms: C_18  and  C_46
    8  A    between atoms: C_29  and  C_31
    9  A    between atoms: C_29  and  C_45
                            x       y       z     vdW  Elec       q    Type
                         _______ _______ _______ _____ _____    ______ ____

>  <TORSDO>
F 9

$$$$
