=
 OpenBabel10232410073D

 65 68  0  0  1  0  0  0  0  0999 V2000
  190.6830  174.3650  135.5940 C   0  0  0  0  0  0  0  0  0  0  0  0
  189.6110  174.6330  136.3630 C   0  0  0  0  0  0  0  0  0  0  0  0
  191.2900  175.3950  134.8790 O   0  0  0  0  0  1  0  0  0  0  0  0
  192.4740  172.6210  135.8910 C   0  0  0  0  0  3  0  0  0  0  0  0
  191.2560  173.0140  135.4980 C   0  0  0  0  0  3  0  0  0  0  0  0
  193.3940  174.0900  137.4780 O   0  0  0  0  0  0  0  0  0  0  0  0
  194.8450  173.5000  135.7500 N   0  0  0  0  0  2  0  0  0  0  0  0
  193.5710  173.4610  136.3990 C   0  0  0  0  0  0  0  0  0  0  0  0
  195.9720  174.2340  136.3070 C   0  0  0  0  0  2  0  0  0  0  0  0
  196.7150  173.3470  137.2900 C   0  0  0  0  0  2  0  0  0  0  0  0
  198.2030  173.6410  137.2270 C   0  0  0  0  0  2  0  0  0  0  0  0
  199.3280  174.5590  135.5730 C   0  0  0  0  0  1  0  0  0  0  0  0
  198.6890  173.3800  135.9490 O   0  0  0  0  0  0  0  0  0  0  0  0
  188.9020  173.6600  137.0830 O   0  0  0  0  0  0  0  0  0  0  0  0
  188.2900  172.5180  136.5050 C   0  0  0  0  0  2  0  0  0  0  0  0
  186.8030  172.5260  136.8000 C   0  0  0  0  0  2  0  0  0  0  0  0
  186.6170  172.1000  134.3690 C   0  0  0  0  0  1  0  0  0  0  0  0
  186.0590  171.7540  135.7320 C   0  0  2  0  0  3  0  0  0  0  0  0
  184.5830  172.0880  135.7730 C   0  0  0  0  0  2  0  0  0  0  0  0
  183.7560  171.0140  135.0860 C   0  0  1  0  0  3  0  0  0  0  0  0
  183.8410  169.7350  135.9000 C   0  0  0  0  0  1  0  0  0  0  0  0
  182.1320  172.6710  135.0980 N   0  0  0  0  0  0  0  0  0  0  0  0
  182.3890  171.4580  135.0300 N   0  0  0  0  0  0  0  0  0  0  0  0
  180.7650  173.1300  135.1390 C   0  0  0  0  0  2  0  0  0  0  0  0
  181.6180  173.8060  137.2290 C   0  0  0  0  0  2  0  0  0  0  0  0
  182.4320  175.0090  137.3490 N   0  0  0  0  0  0  0  0  0  0  0  0
  180.8900  175.3730  135.7750 N   0  0  0  0  0  2  0  0  0  0  0  0
  181.9940  175.8610  136.4980 C   0  0  0  0  0  0  0  0  0  0  0  0
  180.5680  174.0850  136.2300 N   0  0  0  0  0  0  0  0  0  0  0  0
  183.3060  179.0420  138.6770 C   0  0  2  0  0  3  0  0  0  0  0  0
  181.8730  178.4820  138.5570 C   0  0  2  0  0  0  0  0  0  0  0  0
  184.8660  176.8940  136.1010 N   0  0  0  0  0  2  0  0  0  0  0  0
  181.7450  177.2900  139.2770 O   0  0  0  0  0  1  0  0  0  0  0  0
  183.9260  177.4440  136.7990 C   0  0  0  0  0  0  0  0  0  0  0  0
  181.5430  178.2460  137.0800 C   0  0  0  0  0  2  0  0  0  0  0  0
  184.2650  178.1950  137.9720 N   0  0  0  0  0  2  0  0  0  0  0  0
  182.4900  177.2730  136.3770 C   0  0  2  0  0  3  0  0  0  0  0  0
  180.8670  179.4870  139.0880 C   0  0  0  0  0  1  0  0  0  0  0  0
  183.7370  179.2110  140.1280 C   0  0  0  0  0  2  0  0  0  0  0  0
  185.0770  179.5970  140.2020 O   0  0  0  0  0  1  0  0  0  0  0  0
  189.0010  176.3200  136.4850 S   0  0  0  0  0  0  0  0  0  0  0  0
  189.1650  176.6870  139.2150 C   0  0  0  0  0  3  0  0  0  0  0  0
  191.2180  177.1690  140.4230 C   0  0  0  0  0  0  0  0  0  0  0  0
  191.9230  177.1280  139.2110 C   0  0  0  0  0  3  0  0  0  0  0  0
  189.8780  176.6230  138.0180 C   0  0  0  0  0  0  0  0  0  0  0  0
  189.8240  176.9550  140.4240 C   0  0  0  0  0  0  0  0  0  0  0  0
  191.2570  176.8540  138.0140 C   0  0  0  0  0  3  0  0  0  0  0  0
  191.9500  176.4240  142.6180 N   0  0  0  0  0  1  0  0  0  0  0  0
  191.9370  177.5420  141.6830 C   0  0  0  0  0  2  0  0  0  0  0  0
  189.0110  177.0620  141.6780 C   0  0  0  0  0  2  0  0  0  0  0  0
  187.6840  177.7310  141.3890 C   0  0  0  0  0  2  0  0  0  0  0  0
  186.7970  177.6530  142.6150 C   0  0  0  0  0  2  0  0  0  0  0  0
  187.0590  178.7450  143.4570 O   0  0  0  0  0  0  0  0  0  0  0  0
  185.2220  178.2420  146.7310 C   0  0  0  0  0  1  0  0  0  0  0  0
  185.5990  178.7560  145.3790 C   0  0  0  0  0  0  0  0  0  0  0  0
  184.8610  179.6150  144.8240 O   0  0  0  0  0  0  0  0  0  0  0  0
  186.7910  178.3010  144.7120 N   0  0  0  0  0  0  0  0  0  0  0  0
  187.7610  177.4720  145.4390 C   0  0  0  0  0  2  0  0  0  0  0  0
  189.9920  178.3980  144.7050 C   0  0  0  0  0  1  0  0  0  0  0  0
  189.0250  178.2260  145.8710 C   0  0  2  0  0  3  0  0  0  0  0  0
  187.8840  176.5230  148.4080 C   0  0  0  0  0  2  0  0  0  0  0  0
  189.0540  176.2810  147.4600 C   0  0  0  0  0  2  0  0  0  0  0  0
  187.8470  177.9920  148.8000 C   0  0  0  0  0  2  0  0  0  0  0  0
  189.7010  177.6090  147.1010 C   0  0  2  0  0  3  0  0  0  0  0  0
  189.5040  178.6810  148.5580 S   0  0  0  0  0  0  0  0  0  0  0  0
  1  2  2  0  0  0  0
  2 41  1  0  0  0  0
  2 14  1  0  0  0  0
  3  1  1  0  0  0  0
  4  8  1  0  0  0  0
  5  1  1  0  0  0  0
  5  4  2  0  0  0  0
  7  9  1  0  0  0  0
  7  8  1  0  0  0  0
  8  6  2  0  0  0  0
  9 10  1  0  0  0  0
 11 10  1  0  0  0  0
 12 13  1  0  0  0  0
 13 11  1  0  0  0  0
 15 16  1  0  0  0  0
 15 14  1  0  0  0  0
 18 17  1  6  0  0  0
 18 19  1  0  0  0  0
 18 16  1  0  0  0  0
 20 19  1  0  0  0  0
 20 21  1  1  0  0  0
 22 24  1  0  0  0  0
 23 20  1  0  0  0  0
 23 22  2  0  0  0  0
 24 29  1  0  0  0  0
 25 26  1  0  0  0  0
 27 29  1  0  0  0  0
 27 28  1  0  0  0  0
 28 26  2  0  0  0  0
 29 25  1  0  0  0  0
 30 39  1  1  0  0  0
 31 30  1  0  0  0  0
 31 38  1  1  0  0  0
 31 33  1  0  0  0  0
 32 34  2  0  0  0  0
 34 36  1  0  0  0  0
 35 31  1  0  0  0  0
 36 30  1  0  0  0  0
 37 28  1  1  0  0  0
 37 34  1  0  0  0  0
 37 35  1  0  0  0  0
 39 40  1  0  0  0  0
 41 45  1  0  0  0  0
 42 46  1  0  0  0  0
 43 46  2  0  0  0  0
 43 49  1  0  0  0  0
 44 43  1  0  0  0  0
 45 42  2  0  0  0  0
 46 50  1  0  0  0  0
 47 45  1  0  0  0  0
 47 44  2  0  0  0  0
 49 48  1  0  0  0  0
 51 50  1  0  0  0  0
 51 52  1  0  0  0  0
 52 53  1  0  0  0  0
 53 57  1  0  0  0  0
 55 54  1  0  0  0  0
 56 55  2  0  0  0  0
 57 55  1  0  0  0  0
 57 58  1  0  0  0  0
 58 60  1  0  0  0  0
 60 59  1  6  0  0  0
 61 63  1  0  0  0  0
 62 61  1  0  0  0  0
 64 60  1  6  0  0  0
 64 62  1  0  0  0  0
 64 65  1  0  0  0  0
 65 63  1  0  0  0  0
M  END
>  <MODEL>
1

>  <REMARK>
 VINA RESULT:      -5.0      0.000      0.000
  Name = 
  28 active torsions:
  status: ('A' for Active; 'I' for Inactive)
    1  A    between atoms: C_3  and  CA_18
    2  A    between atoms: N_6  and  C_13
    3  A    between atoms: C_7  and  N_57
    4  A    between atoms: C_7  and  C_65
    5  A    between atoms: C_10  and  C_46
    6  A    between atoms: C_13  and  N_53
    7  A    between atoms: C_14  and  C_56
    8  A    between atoms: C_15  and  C_19
    9  A    between atoms: C_20  and  S_23
   10  A    between atoms: C_21  and  C_33
   11  A    between atoms: C_21  and  C_52
   12  A    between atoms: S_23  and  C_61
   13  A    between atoms: O_24  and  C_47
   14  A    between atoms: O_24  and  C_61
   15  A    between atoms: N_27  and  C_33
   16  A    between atoms: C_30  and  C_32
   17  A    between atoms: C_30  and  C_35
   18  A    between atoms: C_32  and  C_40
   19  A    between atoms: C_34  and  C_37
   20  A    between atoms: C_34  and  C_42
   21  A    between atoms: C_35  and  C_47
   22  A    between atoms: C_37  and  C_51
   23  A    between atoms: C_38  and  C_58
   24  A    between atoms: C_40  and  N_49
   25  A    between atoms: O_48  and  C_52
   26  A    between atoms: C_50  and  C_65
   27  A    between atoms: C_51  and  O_60
   28  A    between atoms: N_57  and  O_60
                            x       y       z     vdW  Elec       q    Type
                         _______ _______ _______ _____ _____    ______ ____

>  <TORSDO>
F 28

$$$$
=
 OpenBabel10232410073D

 65 68  0  0  1  0  0  0  0  0999 V2000
  191.0840  176.7820  137.7010 C   0  0  0  0  0  0  0  0  0  0  0  0
  190.0360  176.7300  138.5450 C   0  0  0  0  0  0  0  0  0  0  0  0
  190.8870  177.2060  136.3890 O   0  0  0  0  0  1  0  0  0  0  0  0
  193.3010  175.6070  137.5010 C   0  0  0  0  0  3  0  0  0  0  0  0
  192.4460  176.4250  138.1250 C   0  0  0  0  0  3  0  0  0  0  0  0
  193.5150  175.1550  135.2050 O   0  0  0  0  0  0  0  0  0  0  0  0
  192.3700  173.5190  136.4090 N   0  0  0  0  0  2  0  0  0  0  0  0
  193.0460  174.7760  136.3120 C   0  0  0  0  0  0  0  0  0  0  0  0
  192.2160  172.6360  135.2630 C   0  0  0  0  0  2  0  0  0  0  0  0
  193.1590  171.4540  135.4070 C   0  0  0  0  0  2  0  0  0  0  0  0
  193.9280  171.5660  136.7120 C   0  0  0  0  0  2  0  0  0  0  0  0
  195.7340  170.5770  137.4870 C   0  0  0  0  0  1  0  0  0  0  0  0
  194.4260  170.3210  137.0820 O   0  0  0  0  0  0  0  0  0  0  0  0
  190.1200  176.2730  139.8700 O   0  0  0  0  0  0  0  0  0  0  0  0
  189.5050  176.9060  140.9800 C   0  0  0  0  0  2  0  0  0  0  0  0
  190.2580  176.5630  142.2500 C   0  0  0  0  0  2  0  0  0  0  0  0
  192.3980  177.6930  141.7280 C   0  0  0  0  0  1  0  0  0  0  0  0
  191.1820  177.7020  142.6270 C   0  0  2  0  0  3  0  0  0  0  0  0
  191.6190  177.5680  144.0700 C   0  0  0  0  0  2  0  0  0  0  0  0
  191.1250  176.2640  144.6760 C   0  0  1  0  0  3  0  0  0  0  0  0
  192.2520  175.2490  144.6390 C   0  0  0  0  0  1  0  0  0  0  0  0
  190.2290  177.5980  146.3500 N   0  0  0  0  0  0  0  0  0  0  0  0
  190.7450  176.5120  146.0410 N   0  0  0  0  0  0  0  0  0  0  0  0
  189.9300  177.9020  147.7280 C   0  0  0  0  0  2  0  0  0  0  0  0
  187.7840  178.8270  148.0330 C   0  0  0  0  0  2  0  0  0  0  0  0
  186.7660  178.7110  146.9960 N   0  0  0  0  0  0  0  0  0  0  0  0
  187.9890  176.8430  146.9760 N   0  0  0  0  0  2  0  0  0  0  0  0
  186.9310  177.5810  146.4150 C   0  0  0  0  0  0  0  0  0  0  0  0
  188.5420  177.5620  148.0470 N   0  0  0  0  0  0  0  0  0  0  0  0
  184.9990  178.5390  142.9600 C   0  0  2  0  0  3  0  0  0  0  0  0
  184.6840  179.0000  144.4000 C   0  0  2  0  0  0  0  0  0  0  0  0
  187.6310  176.0860  143.8180 N   0  0  0  0  0  2  0  0  0  0  0  0
  185.6180  179.9470  144.8320 O   0  0  0  0  0  1  0  0  0  0  0  0
  186.6620  176.9230  144.0020 C   0  0  0  0  0  0  0  0  0  0  0  0
  184.6910  177.7860  145.3330 C   0  0  0  0  0  2  0  0  0  0  0  0
  186.2260  177.7490  142.9150 N   0  0  0  0  0  2  0  0  0  0  0  0
  186.0180  177.0270  145.3600 C   0  0  2  0  0  3  0  0  0  0  0  0
  183.2970  179.6120  144.4660 C   0  0  0  0  0  1  0  0  0  0  0  0
  185.1030  179.7110  141.9920 C   0  0  0  0  0  2  0  0  0  0  0  0
  185.7680  179.3270  140.8250 O   0  0  0  0  0  1  0  0  0  0  0  0
  188.4080  177.2420  137.9790 S   0  0  0  0  0  0  0  0  0  0  0  0
  186.9050  175.4840  136.4740 C   0  0  0  0  0  3  0  0  0  0  0  0
  187.5220  173.1780  136.0180 C   0  0  0  0  0  0  0  0  0  0  0  0
  188.6950  173.3600  136.7650 C   0  0  0  0  0  3  0  0  0  0  0  0
  188.0860  175.6630  137.1940 C   0  0  0  0  0  0  0  0  0  0  0  0
  186.6140  174.2480  135.8780 C   0  0  0  0  0  0  0  0  0  0  0  0
  188.9770  174.5980  137.3490 C   0  0  0  0  0  3  0  0  0  0  0  0
  188.3470  170.9320  135.5890 N   0  0  0  0  0  1  0  0  0  0  0  0
  187.1990  171.8230  135.4680 C   0  0  0  0  0  2  0  0  0  0  0  0
  185.3110  174.0870  135.1550 C   0  0  0  0  0  2  0  0  0  0  0  0
  184.1580  174.1090  136.1360 C   0  0  0  0  0  2  0  0  0  0  0  0
  182.8770  174.4600  135.4080 C   0  0  0  0  0  2  0  0  0  0  0  0
  182.3680  175.6700  135.9030 O   0  0  0  0  0  0  0  0  0  0  0  0
  180.2690  174.3240  138.7540 C   0  0  0  0  0  1  0  0  0  0  0  0
  180.7200  174.7110  137.3830 C   0  0  0  0  0  0  0  0  0  0  0  0
  179.9820  174.4370  136.3980 O   0  0  0  0  0  0  0  0  0  0  0  0
  181.9670  175.3980  137.1720 N   0  0  0  0  0  0  0  0  0  0  0  0
  182.7220  175.9090  138.3230 C   0  0  0  0  0  2  0  0  0  0  0  0
  184.4770  177.6660  137.8750 C   0  0  0  0  0  1  0  0  0  0  0  0
  183.0230  177.4110  138.2540 C   0  0  2  0  0  3  0  0  0  0  0  0
  180.1250  178.1060  139.5810 C   0  0  0  0  0  2  0  0  0  0  0  0
  181.4000  177.5100  140.1690 C   0  0  0  0  0  2  0  0  0  0  0  0
  180.4860  179.2610  138.6600 C   0  0  0  0  0  2  0  0  0  0  0  0
  182.6110  178.1650  139.5250 C   0  0  2  0  0  3  0  0  0  0  0  0
  182.1210  179.8730  139.1380 S   0  0  0  0  0  0  0  0  0  0  0  0
  1  5  1  0  0  0  0
  1  2  2  0  0  0  0
  2 14  1  0  0  0  0
  3  1  1  0  0  0  0
  4  5  2  0  0  0  0
  6  8  2  0  0  0  0
  8  7  1  0  0  0  0
  8  4  1  0  0  0  0
  9 10  1  0  0  0  0
  9  7  1  0  0  0  0
 10 11  1  0  0  0  0
 11 13  1  0  0  0  0
 13 12  1  0  0  0  0
 14 15  1  0  0  0  0
 15 16  1  0  0  0  0
 16 18  1  0  0  0  0
 18 17  1  6  0  0  0
 18 19  1  0  0  0  0
 19 20  1  0  0  0  0
 20 21  1  1  0  0  0
 20 23  1  0  0  0  0
 22 24  1  0  0  0  0
 23 22  2  0  0  0  0
 24 29  1  0  0  0  0
 25 29  1  0  0  0  0
 26 25  1  0  0  0  0
 27 29  1  0  0  0  0
 28 27  1  0  0  0  0
 28 26  2  0  0  0  0
 30 39  1  6  0  0  0
 30 31  1  0  0  0  0
 31 38  1  1  0  0  0
 31 33  1  0  0  0  0
 31 35  1  0  0  0  0
 32 34  2  0  0  0  0
 34 37  1  0  0  0  0
 35 37  1  0  0  0  0
 36 30  1  0  0  0  0
 36 34  1  0  0  0  0
 37 28  1  1  0  0  0
 40 39  1  0  0  0  0
 41  2  1  0  0  0  0
 42 45  1  0  0  0  0
 43 44  2  0  0  0  0
 44 47  1  0  0  0  0
 45 47  2  0  0  0  0
 45 41  1  0  0  0  0
 46 43  1  0  0  0  0
 46 42  2  0  0  0  0
 49 48  1  0  0  0  0
 49 43  1  0  0  0  0
 50 46  1  0  0  0  0
 50 51  1  0  0  0  0
 52 53  1  0  0  0  0
 52 51  1  0  0  0  0
 53 57  1  0  0  0  0
 55 54  1  0  0  0  0
 56 55  2  0  0  0  0
 57 55  1  0  0  0  0
 57 58  1  0  0  0  0
 60 59  1  1  0  0  0
 60 58  1  0  0  0  0
 61 62  1  0  0  0  0
 63 65  1  0  0  0  0
 63 61  1  0  0  0  0
 64 60  1  6  0  0  0
 64 62  1  0  0  0  0
 65 64  1  0  0  0  0
M  END
>  <MODEL>
2

>  <REMARK>
 VINA RESULT:      -4.7      2.677      8.771
  Name = 
  28 active torsions:
  status: ('A' for Active; 'I' for Inactive)
    1  A    between atoms: C_3  and  CA_18
    2  A    between atoms: N_6  and  C_13
    3  A    between atoms: C_7  and  N_57
    4  A    between atoms: C_7  and  C_65
    5  A    between atoms: C_10  and  C_46
    6  A    between atoms: C_13  and  N_53
    7  A    between atoms: C_14  and  C_56
    8  A    between atoms: C_15  and  C_19
    9  A    between atoms: C_20  and  S_23
   10  A    between atoms: C_21  and  C_33
   11  A    between atoms: C_21  and  C_52
   12  A    between atoms: S_23  and  C_61
   13  A    between atoms: O_24  and  C_47
   14  A    between atoms: O_24  and  C_61
   15  A    between atoms: N_27  and  C_33
   16  A    between atoms: C_30  and  C_32
   17  A    between atoms: C_30  and  C_35
   18  A    between atoms: C_32  and  C_40
   19  A    between atoms: C_34  and  C_37
   20  A    between atoms: C_34  and  C_42
   21  A    between atoms: C_35  and  C_47
   22  A    between atoms: C_37  and  C_51
   23  A    between atoms: C_38  and  C_58
   24  A    between atoms: C_40  and  N_49
   25  A    between atoms: O_48  and  C_52
   26  A    between atoms: C_50  and  C_65
   27  A    between atoms: C_51  and  O_60
   28  A    between atoms: N_57  and  O_60
                            x       y       z     vdW  Elec       q    Type
                         _______ _______ _______ _____ _____    ______ ____

>  <TORSDO>
F 28

$$$$
=
 OpenBabel10232410073D

 65 68  0  0  1  0  0  0  0  0999 V2000
  189.1880  178.5600  137.8130 C   0  0  0  0  0  0  0  0  0  0  0  0
  189.2480  177.5900  138.7450 C   0  0  0  0  0  0  0  0  0  0  0  0
  189.0040  179.8820  138.2100 O   0  0  0  0  0  1  0  0  0  0  0  0
  188.3840  177.8530  135.5350 C   0  0  0  0  0  3  0  0  0  0  0  0
  189.3340  178.2730  136.3780 C   0  0  0  0  0  3  0  0  0  0  0  0
  186.0780  178.2910  135.6430 O   0  0  0  0  0  0  0  0  0  0  0  0
  186.6860  176.1430  136.3170 N   0  0  0  0  0  2  0  0  0  0  0  0
  187.0020  177.4610  135.8600 C   0  0  0  0  0  0  0  0  0  0  0  0
  185.3130  175.7080  136.5290 C   0  0  0  0  0  2  0  0  0  0  0  0
  184.7760  175.0960  135.2480 C   0  0  0  0  0  2  0  0  0  0  0  0
  184.5810  173.6010  135.4340 C   0  0  0  0  0  2  0  0  0  0  0  0
  184.4440  171.9460  136.8760 C   0  0  0  0  0  1  0  0  0  0  0  0
  184.9760  173.2220  136.7130 O   0  0  0  0  0  0  0  0  0  0  0  0
  189.3830  176.2250  138.4470 O   0  0  0  0  0  0  0  0  0  0  0  0
  190.5310  175.4460  138.7440 C   0  0  0  0  0  2  0  0  0  0  0  0
  191.4610  175.4240  137.5470 C   0  0  0  0  0  2  0  0  0  0  0  0
  189.8450  173.6890  136.8390 C   0  0  0  0  0  1  0  0  0  0  0  0
  190.7650  174.7900  136.3610 C   0  0  2  0  0  3  0  0  0  0  0  0
  191.7840  174.2180  135.3990 C   0  0  0  0  0  2  0  0  0  0  0  0
  192.1820  175.2400  134.3470 C   0  0  1  0  0  3  0  0  0  0  0  0
  191.1630  176.3650  134.3470 C   0  0  0  0  0  1  0  0  0  0  0  0
  194.3530  175.0030  135.1300 N   0  0  0  0  0  0  0  0  0  0  0  0
  193.4770  175.7640  134.6880 N   0  0  0  0  0  0  0  0  0  0  0  0
  195.6250  175.5240  135.5670 C   0  0  0  0  0  2  0  0  0  0  0  0
  196.4380  174.0480  137.2140 C   0  0  0  0  0  2  0  0  0  0  0  0
  196.0210  172.6520  137.2380 N   0  0  0  0  0  0  0  0  0  0  0  0
  196.1550  173.2970  135.1040 N   0  0  0  0  0  2  0  0  0  0  0  0
  195.8580  172.2750  136.0240 C   0  0  0  0  0  0  0  0  0  0  0  0
  196.5810  174.4390  135.7990 N   0  0  0  0  0  0  0  0  0  0  0  0
  195.3310  168.5000  137.4590 C   0  0  2  0  0  3  0  0  0  0  0  0
  196.6430  169.3010  137.3120 C   0  0  2  0  0  0  0  0  0  0  0  0
  193.1170  170.9060  135.7310 N   0  0  0  0  0  2  0  0  0  0  0  0
  196.7300  170.2940  138.2920 O   0  0  0  0  0  1  0  0  0  0  0  0
  194.2190  170.3700  136.1440 C   0  0  0  0  0  0  0  0  0  0  0  0
  196.7000  169.9280  135.9160 C   0  0  0  0  0  2  0  0  0  0  0  0
  194.1720  169.3190  137.1170 N   0  0  0  0  0  2  0  0  0  0  0  0
  195.5360  170.8690  135.6070 C   0  0  2  0  0  3  0  0  0  0  0  0
  197.8420  168.3780  137.4400 C   0  0  0  0  0  1  0  0  0  0  0  0
  195.1630  167.9260  138.8600 C   0  0  0  0  0  2  0  0  0  0  0  0
  193.9470  168.3300  139.4150 O   0  0  0  0  0  1  0  0  0  0  0  0
  189.1270  178.0180  140.4870 S   0  0  0  0  0  0  0  0  0  0  0  0
  186.6780  178.7740  141.5100 C   0  0  0  0  0  3  0  0  0  0  0  0
  184.5950  178.7640  140.2570 C   0  0  0  0  0  0  0  0  0  0  0  0
  185.2910  178.2970  139.1330 C   0  0  0  0  0  3  0  0  0  0  0  0
  187.3650  178.3340  140.3800 C   0  0  0  0  0  0  0  0  0  0  0  0
  185.2940  178.9970  141.4600 C   0  0  0  0  0  0  0  0  0  0  0  0
  186.6710  178.0850  139.1920 C   0  0  0  0  0  3  0  0  0  0  0  0
  182.4570  177.6080  140.2950 N   0  0  0  0  0  1  0  0  0  0  0  0
  183.1060  178.9090  140.1960 C   0  0  0  0  0  2  0  0  0  0  0  0
  184.5880  179.4230  142.7120 C   0  0  0  0  0  2  0  0  0  0  0  0
  184.6390  178.3190  143.7470 C   0  0  0  0  0  2  0  0  0  0  0  0
  186.0750  178.0840  144.1680 C   0  0  0  0  0  2  0  0  0  0  0  0
  186.1240  177.0610  145.1270 O   0  0  0  0  0  0  0  0  0  0  0  0
  187.0510  178.9770  148.2600 C   0  0  0  0  0  1  0  0  0  0  0  0
  186.2830  178.4620  147.0860 C   0  0  0  0  0  0  0  0  0  0  0  0
  185.0930  178.8440  146.9200 O   0  0  0  0  0  0  0  0  0  0  0  0
  186.8800  177.5560  146.1410 N   0  0  0  0  0  0  0  0  0  0  0  0
  188.3210  177.2800  146.2070 C   0  0  0  0  0  2  0  0  0  0  0  0
  188.9040  176.5360  143.8660 C   0  0  0  0  0  1  0  0  0  0  0  0
  189.0800  177.6240  144.9200 C   0  0  2  0  0  3  0  0  0  0  0  0
  191.6600  177.8660  142.9380 C   0  0  0  0  0  2  0  0  0  0  0  0
  191.1150  178.7920  144.0210 C   0  0  0  0  0  2  0  0  0  0  0  0
  191.6040  176.4280  143.4280 C   0  0  0  0  0  2  0  0  0  0  0  0
  190.5560  177.9620  145.1650 C   0  0  2  0  0  3  0  0  0  0  0  0
  191.5660  176.4500  145.2380 S   0  0  0  0  0  0  0  0  0  0  0  0
  1  3  1  0  0  0  0
  1  2  2  0  0  0  0
  2 41  1  0  0  0  0
  4  8  1  0  0  0  0
  4  5  2  0  0  0  0
  5  1  1  0  0  0  0
  6  8  2  0  0  0  0
  7  9  1  0  0  0  0
  8  7  1  0  0  0  0
 10 11  1  0  0  0  0
 10  9  1  0  0  0  0
 11 13  1  0  0  0  0
 13 12  1  0  0  0  0
 14 15  1  0  0  0  0
 14  2  1  0  0  0  0
 16 15  1  0  0  0  0
 18 17  1  1  0  0  0
 18 16  1  0  0  0  0
 19 18  1  0  0  0  0
 20 21  1  1  0  0  0
 20 23  1  0  0  0  0
 20 19  1  0  0  0  0
 22 24  1  0  0  0  0
 23 22  2  0  0  0  0
 24 29  1  0  0  0  0
 25 26  1  0  0  0  0
 27 29  1  0  0  0  0
 27 28  1  0  0  0  0
 28 26  2  0  0  0  0
 29 25  1  0  0  0  0
 30 39  1  1  0  0  0
 31 38  1  1  0  0  0
 31 30  1  0  0  0  0
 31 33  1  0  0  0  0
 32 34  2  0  0  0  0
 34 36  1  0  0  0  0
 35 31  1  0  0  0  0
 36 30  1  0  0  0  0
 37 35  1  0  0  0  0
 37 28  1  1  0  0  0
 37 34  1  0  0  0  0
 39 40  1  0  0  0  0
 43 46  2  0  0  0  0
 44 47  2  0  0  0  0
 44 43  1  0  0  0  0
 45 41  1  0  0  0  0
 45 42  2  0  0  0  0
 46 42  1  0  0  0  0
 46 50  1  0  0  0  0
 47 45  1  0  0  0  0
 49 43  1  0  0  0  0
 49 48  1  0  0  0  0
 50 51  1  0  0  0  0
 51 52  1  0  0  0  0
 52 53  1  0  0  0  0
 53 57  1  0  0  0  0
 55 54  1  0  0  0  0
 56 55  2  0  0  0  0
 57 58  1  0  0  0  0
 57 55  1  0  0  0  0
 60 59  1  6  0  0  0
 60 58  1  0  0  0  0
 61 63  1  0  0  0  0
 61 62  1  0  0  0  0
 62 64  1  0  0  0  0
 63 65  1  0  0  0  0
 64 60  1  6  0  0  0
 64 65  1  0  0  0  0
M  END
>  <MODEL>
3

>  <REMARK>
 VINA RESULT:      -4.6      2.958      9.978
  Name = 
  28 active torsions:
  status: ('A' for Active; 'I' for Inactive)
    1  A    between atoms: C_3  and  CA_18
    2  A    between atoms: N_6  and  C_13
    3  A    between atoms: C_7  and  N_57
    4  A    between atoms: C_7  and  C_65
    5  A    between atoms: C_10  and  C_46
    6  A    between atoms: C_13  and  N_53
    7  A    between atoms: C_14  and  C_56
    8  A    between atoms: C_15  and  C_19
    9  A    between atoms: C_20  and  S_23
   10  A    between atoms: C_21  and  C_33
   11  A    between atoms: C_21  and  C_52
   12  A    between atoms: S_23  and  C_61
   13  A    between atoms: O_24  and  C_47
   14  A    between atoms: O_24  and  C_61
   15  A    between atoms: N_27  and  C_33
   16  A    between atoms: C_30  and  C_32
   17  A    between atoms: C_30  and  C_35
   18  A    between atoms: C_32  and  C_40
   19  A    between atoms: C_34  and  C_37
   20  A    between atoms: C_34  and  C_42
   21  A    between atoms: C_35  and  C_47
   22  A    between atoms: C_37  and  C_51
   23  A    between atoms: C_38  and  C_58
   24  A    between atoms: C_40  and  N_49
   25  A    between atoms: O_48  and  C_52
   26  A    between atoms: C_50  and  C_65
   27  A    between atoms: C_51  and  O_60
   28  A    between atoms: N_57  and  O_60
                            x       y       z     vdW  Elec       q    Type
                         _______ _______ _______ _____ _____    ______ ____

>  <TORSDO>
F 28

$$$$
=
 OpenBabel10232410073D

 65 68  0  0  1  0  0  0  0  0999 V2000
  191.7060  176.8970  138.7160 C   0  0  0  0  0  0  0  0  0  0  0  0
  190.5270  176.8630  139.3660 C   0  0  0  0  0  0  0  0  0  0  0  0
  191.7840  177.5120  137.4690 O   0  0  0  0  0  1  0  0  0  0  0  0
  193.9140  175.6910  138.6400 C   0  0  0  0  0  3  0  0  0  0  0  0
  192.9310  176.3230  139.2920 C   0  0  0  0  0  3  0  0  0  0  0  0
  193.3110  174.2880  136.8540 O   0  0  0  0  0  0  0  0  0  0  0  0
  194.6110  176.1250  136.2430 N   0  0  0  0  0  2  0  0  0  0  0  0
  193.9520  175.3110  137.2170 C   0  0  0  0  0  0  0  0  0  0  0  0
  194.5550  175.8220  134.8200 C   0  0  0  0  0  2  0  0  0  0  0  0
  195.8370  175.1250  134.4030 C   0  0  0  0  0  2  0  0  0  0  0  0
  196.9820  175.5780  135.2920 C   0  0  0  0  0  2  0  0  0  0  0  0
  198.6210  174.1250  135.5010 C   0  0  0  0  0  1  0  0  0  0  0  0
  198.2000  175.2070  134.7320 O   0  0  0  0  0  0  0  0  0  0  0  0
  190.3340  176.2270  140.6030 O   0  0  0  0  0  0  0  0  0  0  0  0
  189.4820  176.7090  141.6300 C   0  0  0  0  0  2  0  0  0  0  0  0
  190.1860  176.6110  142.9690 C   0  0  0  0  0  2  0  0  0  0  0  0
  192.2550  177.9020  142.5470 C   0  0  0  0  0  1  0  0  0  0  0  0
  190.9230  177.9010  143.2630 C   0  0  2  0  0  3  0  0  0  0  0  0
  191.1480  178.0490  144.7530 C   0  0  0  0  0  2  0  0  0  0  0  0
  190.7760  176.7760  145.4950 C   0  0  1  0  0  3  0  0  0  0  0  0
  192.0390  175.9780  145.7610 C   0  0  0  0  0  1  0  0  0  0  0  0
  189.5170  178.1960  146.8300 N   0  0  0  0  0  0  0  0  0  0  0  0
  190.1650  177.1400  146.7460 N   0  0  0  0  0  0  0  0  0  0  0  0
  188.9770  178.6260  148.0970 C   0  0  0  0  0  2  0  0  0  0  0  0
  186.7890  179.4800  147.9060 C   0  0  0  0  0  2  0  0  0  0  0  0
  185.9750  179.1900  146.7320 N   0  0  0  0  0  0  0  0  0  0  0  0
  187.2280  177.3930  147.1640 N   0  0  0  0  0  2  0  0  0  0  0  0
  186.2680  178.0070  146.3380 C   0  0  0  0  0  0  0  0  0  0  0  0
  187.5640  178.2620  148.2130 N   0  0  0  0  0  0  0  0  0  0  0  0
  184.9080  178.4610  142.5270 C   0  0  2  0  0  3  0  0  0  0  0  0
  184.3360  179.0570  143.8310 C   0  0  2  0  0  0  0  0  0  0  0  0
  187.4590  176.2830  144.0840 N   0  0  0  0  0  2  0  0  0  0  0  0
  185.1420  180.1010  144.2950 O   0  0  0  0  0  1  0  0  0  0  0  0
  186.4380  177.0740  144.0090 C   0  0  0  0  0  0  0  0  0  0  0  0
  184.2360  177.9540  144.8900 C   0  0  0  0  0  2  0  0  0  0  0  0
  186.1570  177.7480  142.7750 N   0  0  0  0  0  2  0  0  0  0  0  0
  185.5700  177.2860  145.2220 C   0  0  2  0  0  3  0  0  0  0  0  0
  182.9320  179.5860  143.5990 C   0  0  0  0  0  1  0  0  0  0  0  0
  185.1240  179.5250  141.4570 C   0  0  0  0  0  2  0  0  0  0  0  0
  185.8810  179.0130  140.4000 O   0  0  0  0  0  1  0  0  0  0  0  0
  189.0820  177.6410  138.6330 S   0  0  0  0  0  0  0  0  0  0  0  0
  187.5000  176.1480  136.9360 C   0  0  0  0  0  3  0  0  0  0  0  0
  188.0820  173.9480  136.0830 C   0  0  0  0  0  0  0  0  0  0  0  0
  189.2890  174.0080  136.7940 C   0  0  0  0  0  3  0  0  0  0  0  0
  188.7140  176.2100  137.6180 C   0  0  0  0  0  0  0  0  0  0  0  0
  187.1740  175.0250  136.1610 C   0  0  0  0  0  0  0  0  0  0  0  0
  189.6060  175.1350  137.5570 C   0  0  0  0  0  3  0  0  0  0  0  0
  188.4360  171.5510  135.8860 N   0  0  0  0  0  1  0  0  0  0  0  0
  187.7270  172.7000  135.3350 C   0  0  0  0  0  2  0  0  0  0  0  0
  185.8380  174.9800  135.4830 C   0  0  0  0  0  2  0  0  0  0  0  0
  184.7290  174.9220  136.5120 C   0  0  0  0  0  2  0  0  0  0  0  0
  183.6980  173.8940  136.0900 C   0  0  0  0  0  2  0  0  0  0  0  0
  182.4780  174.5320  135.8200 O   0  0  0  0  0  0  0  0  0  0  0  0
  180.6400  171.7630  137.6370 C   0  0  0  0  0  1  0  0  0  0  0  0
  181.5720  172.4820  136.7170 C   0  0  0  0  0  0  0  0  0  0  0  0
  182.3670  171.8100  136.0040 O   0  0  0  0  0  0  0  0  0  0  0  0
  181.5680  173.9180  136.6200 N   0  0  0  0  0  0  0  0  0  0  0  0
  180.5060  174.6900  137.2790 C   0  0  0  0  0  2  0  0  0  0  0  0
  180.3710  175.3580  139.7090 C   0  0  0  0  0  1  0  0  0  0  0  0
  181.0150  175.6520  138.3590 C   0  0  2  0  0  3  0  0  0  0  0  0
  183.1250  178.1390  138.3190 C   0  0  0  0  0  2  0  0  0  0  0  0
  182.1470  177.6140  137.2730 C   0  0  0  0  0  2  0  0  0  0  0  0
  182.4510  178.1430  139.6820 C   0  0  0  0  0  2  0  0  0  0  0  0
  180.8810  177.1270  137.9590 C   0  0  2  0  0  3  0  0  0  0  0  0
  180.6600  178.1810  139.4260 S   0  0  0  0  0  0  0  0  0  0  0  0
  1  5  1  0  0  0  0
  1  2  2  0  0  0  0
  2 14  1  0  0  0  0
  3  1  1  0  0  0  0
  4  5  2  0  0  0  0
  6  8  2  0  0  0  0
  7  8  1  0  0  0  0
  8  4  1  0  0  0  0
  9  7  1  0  0  0  0
 10  9  1  0  0  0  0
 10 11  1  0  0  0  0
 13 11  1  0  0  0  0
 13 12  1  0  0  0  0
 14 15  1  0  0  0  0
 15 16  1  0  0  0  0
 16 18  1  0  0  0  0
 18 17  1  6  0  0  0
 18 19  1  0  0  0  0
 19 20  1  0  0  0  0
 20 21  1  1  0  0  0
 20 23  1  0  0  0  0
 22 24  1  0  0  0  0
 23 22  2  0  0  0  0
 24 29  1  0  0  0  0
 25 29  1  0  0  0  0
 26 25  1  0  0  0  0
 27 29  1  0  0  0  0
 28 26  2  0  0  0  0
 28 27  1  0  0  0  0
 30 39  1  6  0  0  0
 30 36  1  0  0  0  0
 30 31  1  0  0  0  0
 31 38  1  6  0  0  0
 31 33  1  0  0  0  0
 31 35  1  0  0  0  0
 34 32  2  0  0  0  0
 34 37  1  0  0  0  0
 35 37  1  0  0  0  0
 36 34  1  0  0  0  0
 37 28  1  1  0  0  0
 40 39  1  0  0  0  0
 41  2  1  0  0  0  0
 42 45  1  0  0  0  0
 43 46  1  0  0  0  0
 43 44  2  0  0  0  0
 44 47  1  0  0  0  0
 45 41  1  0  0  0  0
 46 42  2  0  0  0  0
 47 45  2  0  0  0  0
 49 48  1  0  0  0  0
 49 43  1  0  0  0  0
 50 46  1  0  0  0  0
 50 51  1  0  0  0  0
 52 51  1  0  0  0  0
 53 52  1  0  0  0  0
 53 57  1  0  0  0  0
 55 54  1  0  0  0  0
 56 55  2  0  0  0  0
 57 55  1  0  0  0  0
 57 58  1  0  0  0  0
 58 60  1  0  0  0  0
 60 59  1  1  0  0  0
 61 63  1  0  0  0  0
 62 64  1  0  0  0  0
 62 61  1  0  0  0  0
 64 60  1  1  0  0  0
 64 65  1  0  0  0  0
 65 63  1  0  0  0  0
M  END
>  <MODEL>
4

>  <REMARK>
 VINA RESULT:      -3.9      2.661      8.932
  Name = 
  28 active torsions:
  status: ('A' for Active; 'I' for Inactive)
    1  A    between atoms: C_3  and  CA_18
    2  A    between atoms: N_6  and  C_13
    3  A    between atoms: C_7  and  N_57
    4  A    between atoms: C_7  and  C_65
    5  A    between atoms: C_10  and  C_46
    6  A    between atoms: C_13  and  N_53
    7  A    between atoms: C_14  and  C_56
    8  A    between atoms: C_15  and  C_19
    9  A    between atoms: C_20  and  S_23
   10  A    between atoms: C_21  and  C_33
   11  A    between atoms: C_21  and  C_52
   12  A    between atoms: S_23  and  C_61
   13  A    between atoms: O_24  and  C_47
   14  A    between atoms: O_24  and  C_61
   15  A    between atoms: N_27  and  C_33
   16  A    between atoms: C_30  and  C_32
   17  A    between atoms: C_30  and  C_35
   18  A    between atoms: C_32  and  C_40
   19  A    between atoms: C_34  and  C_37
   20  A    between atoms: C_34  and  C_42
   21  A    between atoms: C_35  and  C_47
   22  A    between atoms: C_37  and  C_51
   23  A    between atoms: C_38  and  C_58
   24  A    between atoms: C_40  and  N_49
   25  A    between atoms: O_48  and  C_52
   26  A    between atoms: C_50  and  C_65
   27  A    between atoms: C_51  and  O_60
   28  A    between atoms: N_57  and  O_60
                            x       y       z     vdW  Elec       q    Type
                         _______ _______ _______ _____ _____    ______ ____

>  <TORSDO>
F 28

$$$$
=
 OpenBabel10232410073D

 65 68  0  0  1  0  0  0  0  0999 V2000
  188.9200  177.6620  140.4200 C   0  0  0  0  0  0  0  0  0  0  0  0
  189.6100  177.5070  141.5660 C   0  0  0  0  0  0  0  0  0  0  0  0
  187.9330  176.7380  140.0830 O   0  0  0  0  0  1  0  0  0  0  0  0
  188.7680  178.9080  138.2380 C   0  0  0  0  0  3  0  0  0  0  0  0
  189.1570  178.7950  139.5140 C   0  0  0  0  0  3  0  0  0  0  0  0
  188.6250  176.7290  137.3690 O   0  0  0  0  0  0  0  0  0  0  0  0
  186.8930  178.1460  136.7130 N   0  0  0  0  0  2  0  0  0  0  0  0
  188.1190  177.8840  137.4010 C   0  0  0  0  0  0  0  0  0  0  0  0
  186.1830  177.1090  135.9800 C   0  0  0  0  0  2  0  0  0  0  0  0
  185.6120  176.1000  136.9600 C   0  0  0  0  0  2  0  0  0  0  0  0
  185.5540  174.7280  136.3120 C   0  0  0  0  0  2  0  0  0  0  0  0
  186.5410  173.5780  134.7170 C   0  0  0  0  0  1  0  0  0  0  0  0
  186.8090  174.3720  135.8300 O   0  0  0  0  0  0  0  0  0  0  0  0
  190.6530  178.3540  141.9720 O   0  0  0  0  0  0  0  0  0  0  0  0
  191.9910  177.9350  142.1870 C   0  0  0  0  0  2  0  0  0  0  0  0
  192.2370  176.6160  141.4810 C   0  0  0  0  0  2  0  0  0  0  0  0
  193.2120  178.3300  139.9850 C   0  0  0  0  0  1  0  0  0  0  0  0
  192.8710  176.8640  140.1280 C   0  0  2  0  0  3  0  0  0  0  0  0
  191.9230  176.4540  139.0210 C   0  0  0  0  0  2  0  0  0  0  0  0
  192.5420  176.6870  137.6520 C   0  0  1  0  0  3  0  0  0  0  0  0
  193.9930  176.2440  137.6900 C   0  0  0  0  0  1  0  0  0  0  0  0
  192.2830  174.8050  136.3210 N   0  0  0  0  0  0  0  0  0  0  0  0
  191.8230  175.8990  136.6880 N   0  0  0  0  0  0  0  0  0  0  0  0
  191.6270  174.0440  135.2860 C   0  0  0  0  0  2  0  0  0  0  0  0
  190.0390  172.3470  134.8940 C   0  0  0  0  0  2  0  0  0  0  0  0
  190.4430  171.0580  134.3470 N   0  0  0  0  0  0  0  0  0  0  0  0
  192.0800  171.7870  135.6780 N   0  0  0  0  0  2  0  0  0  0  0  0
  191.6080  170.7900  134.8050 C   0  0  0  0  0  0  0  0  0  0  0  0
  191.1030  172.7840  135.8170 N   0  0  0  0  0  0  0  0  0  0  0  0
  194.3050  168.2320  136.4700 C   0  0  2  0  0  3  0  0  0  0  0  0
  194.5500  169.6320  135.8660 C   0  0  2  0  0  0  0  0  0  0  0  0
  190.7520  167.9140  135.4910 N   0  0  0  0  0  2  0  0  0  0  0  0
  194.0820  170.6310  136.7240 O   0  0  0  0  0  1  0  0  0  0  0  0
  191.9480  168.4060  135.5330 C   0  0  0  0  0  0  0  0  0  0  0  0
  193.8470  169.7270  134.5080 C   0  0  0  0  0  2  0  0  0  0  0  0
  192.8800  167.9140  136.5050 N   0  0  0  0  0  2  0  0  0  0  0  0
  192.3370  169.4990  134.5710 C   0  0  2  0  0  3  0  0  0  0  0  0
  196.0320  169.8480  135.6220 C   0  0  0  0  0  1  0  0  0  0  0  0
  194.8970  168.0980  137.8670 C   0  0  0  0  0  2  0  0  0  0  0  0
  193.8910  168.1400  138.8350 O   0  0  0  0  0  1  0  0  0  0  0  0
  189.2240  176.1330  142.6610 S   0  0  0  0  0  0  0  0  0  0  0  0
  186.9600  177.7020  142.5060 C   0  0  0  0  0  3  0  0  0  0  0  0
  185.5840  178.3350  144.4060 C   0  0  0  0  0  0  0  0  0  0  0  0
  186.4400  177.6110  145.2480 C   0  0  0  0  0  3  0  0  0  0  0  0
  187.7910  176.9640  143.3460 C   0  0  0  0  0  0  0  0  0  0  0  0
  185.8510  178.3880  143.0220 C   0  0  0  0  0  0  0  0  0  0  0  0
  187.5390  176.9260  144.7210 C   0  0  0  0  0  3  0  0  0  0  0  0
  184.3520  178.8710  146.4320 N   0  0  0  0  0  1  0  0  0  0  0  0
  184.4600  179.1260  145.0010 C   0  0  0  0  0  2  0  0  0  0  0  0
  185.0120  179.2080  142.0890 C   0  0  0  0  0  2  0  0  0  0  0  0
  184.8850  178.5140  140.7490 C   0  0  0  0  0  2  0  0  0  0  0  0
  183.5690  178.8960  140.1020 C   0  0  0  0  0  2  0  0  0  0  0  0
  183.7410  180.0550  139.3310 O   0  0  0  0  0  0  0  0  0  0  0  0
  180.9120  182.0990  137.8600 C   0  0  0  0  0  1  0  0  0  0  0  0
  182.2390  181.7160  138.4290 C   0  0  0  0  0  0  0  0  0  0  0  0
  183.1400  182.5930  138.5220 O   0  0  0  0  0  0  0  0  0  0  0  0
  182.4990  180.3750  138.8830 N   0  0  0  0  0  0  0  0  0  0  0  0
  181.3950  179.4110  138.9780 C   0  0  0  0  0  2  0  0  0  0  0  0
  181.3300  178.7880  136.5330 C   0  0  0  0  0  1  0  0  0  0  0  0
  181.4770  178.2680  137.9590 C   0  0  2  0  0  3  0  0  0  0  0  0
  181.8550  175.3620  139.3910 C   0  0  0  0  0  2  0  0  0  0  0  0
  180.8370  176.4780  139.6010 C   0  0  0  0  0  2  0  0  0  0  0  0
  182.0850  175.1620  137.9010 C   0  0  0  0  0  2  0  0  0  0  0  0
  180.5050  177.1220  138.2640 C   0  0  2  0  0  3  0  0  0  0  0  0
  180.6420  175.8040  137.0170 S   0  0  0  0  0  0  0  0  0  0  0  0
  1  2  2  0  0  0  0
  2 14  1  0  0  0  0
  2 41  1  0  0  0  0
  3  1  1  0  0  0  0
  4  5  2  0  0  0  0
  5  1  1  0  0  0  0
  6  8  2  0  0  0  0
  7  8  1  0  0  0  0
  8  4  1  0  0  0  0
  9  7  1  0  0  0  0
  9 10  1  0  0  0  0
 11 10  1  0  0  0  0
 12 13  1  0  0  0  0
 13 11  1  0  0  0  0
 14 15  1  0  0  0  0
 16 15  1  0  0  0  0
 18 17  1  6  0  0  0
 18 16  1  0  0  0  0
 19 18  1  0  0  0  0
 20 21  1  1  0  0  0
 20 19  1  0  0  0  0
 22 23  2  0  0  0  0
 23 20  1  0  0  0  0
 24 29  1  0  0  0  0
 24 22  1  0  0  0  0
 25 29  1  0  0  0  0
 26 28  2  0  0  0  0
 26 25  1  0  0  0  0
 27 29  1  0  0  0  0
 28 27  1  0  0  0  0
 30 36  1  0  0  0  0
 30 39  1  1  0  0  0
 31 38  1  6  0  0  0
 31 30  1  0  0  0  0
 31 33  1  0  0  0  0
 32 34  2  0  0  0  0
 34 36  1  0  0  0  0
 35 37  1  0  0  0  0
 35 31  1  0  0  0  0
 37 28  1  1  0  0  0
 37 34  1  0  0  0  0
 39 40  1  0  0  0  0
 41 45  1  0  0  0  0
 42 46  2  0  0  0  0
 42 45  1  0  0  0  0
 43 49  1  0  0  0  0
 43 44  2  0  0  0  0
 45 47  2  0  0  0  0
 46 43  1  0  0  0  0
 47 44  1  0  0  0  0
 49 48  1  0  0  0  0
 50 46  1  0  0  0  0
 51 50  1  0  0  0  0
 52 51  1  0  0  0  0
 53 52  1  0  0  0  0
 54 55  1  0  0  0  0
 55 56  2  0  0  0  0
 55 57  1  0  0  0  0
 57 58  1  0  0  0  0
 57 53  1  0  0  0  0
 60 59  1  6  0  0  0
 60 58  1  0  0  0  0
 61 62  1  0  0  0  0
 63 61  1  0  0  0  0
 64 60  1  6  0  0  0
 64 62  1  0  0  0  0
 65 63  1  0  0  0  0
 65 64  1  0  0  0  0
M  END
>  <MODEL>
5

>  <REMARK>
 VINA RESULT:      -3.3      3.477     10.369
  Name = 
  28 active torsions:
  status: ('A' for Active; 'I' for Inactive)
    1  A    between atoms: C_3  and  CA_18
    2  A    between atoms: N_6  and  C_13
    3  A    between atoms: C_7  and  N_57
    4  A    between atoms: C_7  and  C_65
    5  A    between atoms: C_10  and  C_46
    6  A    between atoms: C_13  and  N_53
    7  A    between atoms: C_14  and  C_56
    8  A    between atoms: C_15  and  C_19
    9  A    between atoms: C_20  and  S_23
   10  A    between atoms: C_21  and  C_33
   11  A    between atoms: C_21  and  C_52
   12  A    between atoms: S_23  and  C_61
   13  A    between atoms: O_24  and  C_47
   14  A    between atoms: O_24  and  C_61
   15  A    between atoms: N_27  and  C_33
   16  A    between atoms: C_30  and  C_32
   17  A    between atoms: C_30  and  C_35
   18  A    between atoms: C_32  and  C_40
   19  A    between atoms: C_34  and  C_37
   20  A    between atoms: C_34  and  C_42
   21  A    between atoms: C_35  and  C_47
   22  A    between atoms: C_37  and  C_51
   23  A    between atoms: C_38  and  C_58
   24  A    between atoms: C_40  and  N_49
   25  A    between atoms: O_48  and  C_52
   26  A    between atoms: C_50  and  C_65
   27  A    between atoms: C_51  and  O_60
   28  A    between atoms: N_57  and  O_60
                            x       y       z     vdW  Elec       q    Type
                         _______ _______ _______ _____ _____    ______ ____

>  <TORSDO>
F 28

$$$$
=
 OpenBabel10232410073D

 65 68  0  0  1  0  0  0  0  0999 V2000
  189.6470  176.8330  139.2780 C   0  0  0  0  0  0  0  0  0  0  0  0
  188.8480  176.3350  138.3150 C   0  0  0  0  0  0  0  0  0  0  0  0
  190.6770  176.0470  139.7890 O   0  0  0  0  0  1  0  0  0  0  0  0
  189.2450  178.5600  141.0640 C   0  0  0  0  0  3  0  0  0  0  0  0
  189.4830  178.1980  139.7980 C   0  0  0  0  0  3  0  0  0  0  0  0
  188.3430  176.6070  142.0090 O   0  0  0  0  0  0  0  0  0  0  0  0
  189.4730  177.9780  143.5190 N   0  0  0  0  0  2  0  0  0  0  0  0
  188.9680  177.6820  142.2140 C   0  0  0  0  0  0  0  0  0  0  0  0
  189.3060  177.0600  144.6370 C   0  0  0  0  0  2  0  0  0  0  0  0
  189.8060  177.7200  145.9090 C   0  0  0  0  0  2  0  0  0  0  0  0
  189.0100  177.2120  147.0990 C   0  0  0  0  0  2  0  0  0  0  0  0
  188.0960  178.1180  148.8830 C   0  0  0  0  0  1  0  0  0  0  0  0
  189.3180  177.9560  148.2340 O   0  0  0  0  0  0  0  0  0  0  0  0
  187.7560  177.0270  137.7690 O   0  0  0  0  0  0  0  0  0  0  0  0
  187.2750  176.8550  136.4450 C   0  0  0  0  0  2  0  0  0  0  0  0
  186.1300  175.8600  136.4390 C   0  0  0  0  0  2  0  0  0  0  0  0
  187.2560  175.1680  134.3470 C   0  0  0  0  0  1  0  0  0  0  0  0
  186.4690  174.6860  135.5450 C   0  0  2  0  0  3  0  0  0  0  0  0
  185.2040  174.0000  135.0770 C   0  0  0  0  0  2  0  0  0  0  0  0
  184.0450  174.2800  136.0200 C   0  0  1  0  0  3  0  0  0  0  0  0
  184.5740  174.3410  137.4410 C   0  0  0  0  0  1  0  0  0  0  0  0
  182.2390  175.6480  135.5200 N   0  0  0  0  0  0  0  0  0  0  0  0
  183.4680  175.5490  135.6680 N   0  0  0  0  0  0  0  0  0  0  0  0
  181.6510  176.8880  135.0750 C   0  0  0  0  0  2  0  0  0  0  0  0
  180.8900  176.5710  137.2820 C   0  0  0  0  0  2  0  0  0  0  0  0
  181.5520  177.2280  138.4020 N   0  0  0  0  0  0  0  0  0  0  0  0
  181.6240  178.6110  136.6500 N   0  0  0  0  0  2  0  0  0  0  0  0
  181.9640  178.3700  137.9940 C   0  0  0  0  0  0  0  0  0  0  0  0
  180.8910  177.5220  136.1540 N   0  0  0  0  0  0  0  0  0  0  0  0
  183.6420  178.9330  141.6620 C   0  0  2  0  0  3  0  0  0  0  0  0
  182.1560  178.7170  141.3060 C   0  0  2  0  0  0  0  0  0  0  0  0
  184.9210  179.1980  138.2020 N   0  0  0  0  0  2  0  0  0  0  0  0
  181.9160  177.3810  140.9690 O   0  0  0  0  0  1  0  0  0  0  0  0
  184.0570  179.1350  139.1620 C   0  0  0  0  0  0  0  0  0  0  0  0
  181.7770  179.6340  140.1390 C   0  0  0  0  0  2  0  0  0  0  0  0
  184.4940  178.7940  140.4840 N   0  0  0  0  0  2  0  0  0  0  0  0
  182.6030  179.4060  138.8730 C   0  0  2  0  0  3  0  0  0  0  0  0
  181.2710  179.0940  142.4800 C   0  0  0  0  0  1  0  0  0  0  0  0
  184.1140  177.9820  142.7550 C   0  0  0  0  0  2  0  0  0  0  0  0
  185.4320  178.2670  143.1200 O   0  0  0  0  0  1  0  0  0  0  0  0
  189.1440  174.6790  137.6780 S   0  0  0  0  0  0  0  0  0  0  0  0
  191.7650  174.4450  136.8490 C   0  0  0  0  0  3  0  0  0  0  0  0
  192.8980  176.0200  135.3870 C   0  0  0  0  0  0  0  0  0  0  0  0
  191.7220  176.7820  135.3210 C   0  0  0  0  0  3  0  0  0  0  0  0
  190.5930  175.1940  136.7580 C   0  0  0  0  0  0  0  0  0  0  0  0
  192.9230  174.8440  136.1650 C   0  0  0  0  0  0  0  0  0  0  0  0
  190.5740  176.3700  136.0020 C   0  0  0  0  0  3  0  0  0  0  0  0
  195.3230  176.1530  135.4820 N   0  0  0  0  0  1  0  0  0  0  0  0
  194.1400  176.5200  134.7150 C   0  0  0  0  0  2  0  0  0  0  0  0
  194.1730  174.0340  136.3310 C   0  0  0  0  0  2  0  0  0  0  0  0
  194.1470  173.2910  137.6490 C   0  0  0  0  0  2  0  0  0  0  0  0
  195.5300  173.3020  138.2670 C   0  0  0  0  0  2  0  0  0  0  0  0
  195.8660  174.6090  138.6510 O   0  0  0  0  0  0  0  0  0  0  0  0
  199.5070  175.0650  139.5880 C   0  0  0  0  0  1  0  0  0  0  0  0
  198.0150  175.0370  139.6630 C   0  0  0  0  0  0  0  0  0  0  0  0
  197.4520  175.3400  140.7490 O   0  0  0  0  0  0  0  0  0  0  0  0
  197.2150  174.6860  138.5190 N   0  0  0  0  0  0  0  0  0  0  0  0
  197.8490  174.5450  137.2010 C   0  0  0  0  0  2  0  0  0  0  0  0
  200.1880  173.8020  136.6090 C   0  0  0  0  0  1  0  0  0  0  0  0
  198.8150  173.3580  137.1000 C   0  0  2  0  0  3  0  0  0  0  0  0
  198.7730  170.1280  137.5580 C   0  0  0  0  0  2  0  0  0  0  0  0
  197.6760  171.1200  137.1840 C   0  0  0  0  0  2  0  0  0  0  0  0
  200.0360  170.4550  136.7780 C   0  0  0  0  0  2  0  0  0  0  0  0
  198.2500  172.1940  136.2750 C   0  0  2  0  0  3  0  0  0  0  0  0
  199.5610  171.3910  135.3020 S   0  0  0  0  0  0  0  0  0  0  0  0
  1  3  1  0  0  0  0
  1  5  1  0  0  0  0
  2  1  2  0  0  0  0
  4  8  1  0  0  0  0
  5  4  2  0  0  0  0
  6  8  2  0  0  0  0
  7  9  1  0  0  0  0
  8  7  1  0  0  0  0
  9 10  1  0  0  0  0
 10 11  1  0  0  0  0
 11 13  1  0  0  0  0
 13 12  1  0  0  0  0
 14  2  1  0  0  0  0
 15 14  1  0  0  0  0
 16 15  1  0  0  0  0
 18 17  1  6  0  0  0
 18 16  1  0  0  0  0
 19 18  1  0  0  0  0
 19 20  1  0  0  0  0
 20 21  1  1  0  0  0
 22 23  2  0  0  0  0
 23 20  1  0  0  0  0
 24 22  1  0  0  0  0
 24 29  1  0  0  0  0
 25 26  1  0  0  0  0
 27 28  1  0  0  0  0
 28 26  2  0  0  0  0
 29 27  1  0  0  0  0
 29 25  1  0  0  0  0
 30 39  1  1  0  0  0
 31 30  1  0  0  0  0
 31 38  1  1  0  0  0
 32 34  2  0  0  0  0
 33 31  1  0  0  0  0
 34 36  1  0  0  0  0
 35 31  1  0  0  0  0
 36 30  1  0  0  0  0
 37 28  1  1  0  0  0
 37 34  1  0  0  0  0
 37 35  1  0  0  0  0
 39 40  1  0  0  0  0
 41  2  1  0  0  0  0
 43 46  1  0  0  0  0
 44 43  2  0  0  0  0
 44 47  1  0  0  0  0
 45 42  1  0  0  0  0
 45 41  1  0  0  0  0
 46 50  1  0  0  0  0
 46 42  2  0  0  0  0
 47 45  2  0  0  0  0
 49 43  1  0  0  0  0
 49 48  1  0  0  0  0
 50 51  1  0  0  0  0
 51 52  1  0  0  0  0
 52 53  1  0  0  0  0
 54 55  1  0  0  0  0
 55 56  2  0  0  0  0
 57 53  1  0  0  0  0
 57 55  1  0  0  0  0
 58 57  1  0  0  0  0
 60 59  1  6  0  0  0
 60 58  1  0  0  0  0
 62 61  1  0  0  0  0
 63 61  1  0  0  0  0
 64 60  1  1  0  0  0
 64 62  1  0  0  0  0
 65 64  1  0  0  0  0
 65 63  1  0  0  0  0
M  END
>  <MODEL>
6

>  <REMARK>
 VINA RESULT:      -3.2      2.795      8.855
  Name = 
  28 active torsions:
  status: ('A' for Active; 'I' for Inactive)
    1  A    between atoms: C_3  and  CA_18
    2  A    between atoms: N_6  and  C_13
    3  A    between atoms: C_7  and  N_57
    4  A    between atoms: C_7  and  C_65
    5  A    between atoms: C_10  and  C_46
    6  A    between atoms: C_13  and  N_53
    7  A    between atoms: C_14  and  C_56
    8  A    between atoms: C_15  and  C_19
    9  A    between atoms: C_20  and  S_23
   10  A    between atoms: C_21  and  C_33
   11  A    between atoms: C_21  and  C_52
   12  A    between atoms: S_23  and  C_61
   13  A    between atoms: O_24  and  C_47
   14  A    between atoms: O_24  and  C_61
   15  A    between atoms: N_27  and  C_33
   16  A    between atoms: C_30  and  C_32
   17  A    between atoms: C_30  and  C_35
   18  A    between atoms: C_32  and  C_40
   19  A    between atoms: C_34  and  C_37
   20  A    between atoms: C_34  and  C_42
   21  A    between atoms: C_35  and  C_47
   22  A    between atoms: C_37  and  C_51
   23  A    between atoms: C_38  and  C_58
   24  A    between atoms: C_40  and  N_49
   25  A    between atoms: O_48  and  C_52
   26  A    between atoms: C_50  and  C_65
   27  A    between atoms: C_51  and  O_60
   28  A    between atoms: N_57  and  O_60
                            x       y       z     vdW  Elec       q    Type
                         _______ _______ _______ _____ _____    ______ ____

>  <TORSDO>
F 28

$$$$
=
 OpenBabel10232410073D

 65 68  0  0  1  0  0  0  0  0999 V2000
  189.7590  176.0600  142.7000 C   0  0  0  0  0  0  0  0  0  0  0  0
  189.7880  177.1240  141.8760 C   0  0  0  0  0  0  0  0  0  0  0  0
  188.5620  175.6980  143.3120 O   0  0  0  0  0  1  0  0  0  0  0  0
  191.7210  175.2570  144.0580 C   0  0  0  0  0  3  0  0  0  0  0  0
  190.9540  175.2430  142.9610 C   0  0  0  0  0  3  0  0  0  0  0  0
  191.9970  177.3680  145.0530 O   0  0  0  0  0  0  0  0  0  0  0  0
  191.0510  175.7570  146.4490 N   0  0  0  0  0  2  0  0  0  0  0  0
  191.6300  176.1710  145.2090 C   0  0  0  0  0  0  0  0  0  0  0  0
  190.8490  176.6840  147.5540 C   0  0  0  0  0  2  0  0  0  0  0  0
  192.1900  177.0210  148.1800 C   0  0  0  0  0  2  0  0  0  0  0  0
  193.0300  175.7620  148.3060 C   0  0  0  0  0  2  0  0  0  0  0  0
  193.6620  176.9670  150.0350 C   0  0  0  0  0  1  0  0  0  0  0  0
  194.1120  175.9910  149.1500 O   0  0  0  0  0  0  0  0  0  0  0  0
  190.9510  177.5980  141.2500 O   0  0  0  0  0  0  0  0  0  0  0  0
  192.0830  176.8000  140.9450 C   0  0  0  0  0  2  0  0  0  0  0  0
  192.7890  177.3530  139.7230 C   0  0  0  0  0  2  0  0  0  0  0  0
  194.4490  175.8220  138.7100 C   0  0  0  0  0  1  0  0  0  0  0  0
  192.9990  176.2520  138.7040 C   0  0  2  0  0  3  0  0  0  0  0  0
  192.6200  176.7370  137.3210 C   0  0  0  0  0  2  0  0  0  0  0  0
  191.5450  175.8570  136.7040 C   0  0  1  0  0  3  0  0  0  0  0  0
  191.5880  174.4940  137.3700 C   0  0  0  0  0  1  0  0  0  0  0  0
  190.2070  177.6380  137.3530 N   0  0  0  0  0  0  0  0  0  0  0  0
  190.2650  176.4670  136.9420 N   0  0  0  0  0  0  0  0  0  0  0  0
  188.9380  178.2360  137.6870 C   0  0  0  0  0  2  0  0  0  0  0  0
  186.6190  177.8230  137.7610 C   0  0  0  0  0  2  0  0  0  0  0  0
  185.9610  177.0630  136.7050 N   0  0  0  0  0  0  0  0  0  0  0  0
  188.0030  176.2090  137.0030 N   0  0  0  0  0  2  0  0  0  0  0  0
  186.7860  176.1720  136.2970 C   0  0  0  0  0  0  0  0  0  0  0  0
  187.9400  177.2070  137.9870 N   0  0  0  0  0  0  0  0  0  0  0  0
  185.1950  172.4430  135.9120 C   0  0  2  0  0  3  0  0  0  0  0  0
  186.5570  172.8520  136.5120 C   0  0  2  0  0  0  0  0  0  0  0  0
  184.2220  175.7780  134.6410 N   0  0  0  0  0  2  0  0  0  0  0  0
  186.3890  173.4350  137.7720 O   0  0  0  0  0  1  0  0  0  0  0  0
  184.9800  174.8570  135.1420 C   0  0  0  0  0  0  0  0  0  0  0  0
  187.2540  173.8330  135.5640 C   0  0  0  0  0  2  0  0  0  0  0  0
  184.3980  173.6160  135.5630 N   0  0  0  0  0  2  0  0  0  0  0  0
  186.4580  175.1080  135.2900 C   0  0  2  0  0  3  0  0  0  0  0  0
  187.4590  171.6390  136.6490 C   0  0  0  0  0  1  0  0  0  0  0  0
  184.4020  171.5410  136.8490 C   0  0  0  0  0  2  0  0  0  0  0  0
  183.3820  172.2580  137.4770 O   0  0  0  0  0  1  0  0  0  0  0  0
  188.2750  178.0400  141.5500 S   0  0  0  0  0  0  0  0  0  0  0  0
  186.4650  178.0410  143.6320 C   0  0  0  0  0  3  0  0  0  0  0  0
  187.0620  178.1930  145.9830 C   0  0  0  0  0  0  0  0  0  0  0  0
  188.4160  178.2480  145.6200 C   0  0  0  0  0  3  0  0  0  0  0  0
  187.8140  178.0710  143.2820 C   0  0  0  0  0  0  0  0  0  0  0  0
  186.0760  178.0960  144.9790 C   0  0  0  0  0  0  0  0  0  0  0  0
  188.7910  178.1850  144.2750 C   0  0  0  0  0  3  0  0  0  0  0  0
  187.8040  178.8280  148.2090 N   0  0  0  0  0  1  0  0  0  0  0  0
  186.6770  178.3410  147.4230 C   0  0  0  0  0  2  0  0  0  0  0  0
  184.6130  178.1100  145.3070 C   0  0  0  0  0  2  0  0  0  0  0  0
  183.8970  179.1500  144.4710 C   0  0  0  0  0  2  0  0  0  0  0  0
  183.2990  178.4910  143.2440 C   0  0  0  0  0  2  0  0  0  0  0  0
  183.3080  179.3960  142.1710 O   0  0  0  0  0  0  0  0  0  0  0  0
  184.0860  177.7130  138.8690 C   0  0  0  0  0  1  0  0  0  0  0  0
  184.1890  178.5910  140.0730 C   0  0  0  0  0  0  0  0  0  0  0  0
  185.2120  179.3150  140.2150 O   0  0  0  0  0  0  0  0  0  0  0  0
  183.1420  178.6340  141.0590 N   0  0  0  0  0  0  0  0  0  0  0  0
  181.8620  177.9640  140.7930 C   0  0  0  0  0  2  0  0  0  0  0  0
  180.6050  179.8420  139.6670 C   0  0  0  0  0  1  0  0  0  0  0  0
  181.1690  178.4340  139.5090 C   0  0  2  0  0  3  0  0  0  0  0  0
  181.2910  175.2590  138.7700 C   0  0  0  0  0  2  0  0  0  0  0  0
  180.3230  176.0710  139.6240 C   0  0  0  0  0  2  0  0  0  0  0  0
  181.6100  176.0290  137.4980 C   0  0  0  0  0  2  0  0  0  0  0  0
  180.1180  177.4410  138.9970 C   0  0  2  0  0  3  0  0  0  0  0  0
  180.2670  177.2050  137.1990 S   0  0  0  0  0  0  0  0  0  0  0  0
  1  5  1  0  0  0  0
  1  3  1  0  0  0  0
  2  1  2  0  0  0  0
  4  8  1  0  0  0  0
  5  4  2  0  0  0  0
  6  8  2  0  0  0  0
  7  9  1  0  0  0  0
  8  7  1  0  0  0  0
  9 10  1  0  0  0  0
 10 11  1  0  0  0  0
 11 13  1  0  0  0  0
 13 12  1  0  0  0  0
 14  2  1  0  0  0  0
 15 14  1  0  0  0  0
 16 15  1  0  0  0  0
 18 17  1  6  0  0  0
 18 16  1  0  0  0  0
 19 18  1  0  0  0  0
 20 23  1  0  0  0  0
 20 19  1  0  0  0  0
 20 21  1  1  0  0  0
 22 24  1  0  0  0  0
 23 22  2  0  0  0  0
 24 29  1  0  0  0  0
 25 29  1  0  0  0  0
 26 25  1  0  0  0  0
 27 29  1  0  0  0  0
 28 26  2  0  0  0  0
 28 27  1  0  0  0  0
 30 31  1  0  0  0  0
 30 39  1  1  0  0  0
 31 38  1  1  0  0  0
 31 33  1  0  0  0  0
 32 34  2  0  0  0  0
 34 37  1  0  0  0  0
 34 36  1  0  0  0  0
 35 31  1  0  0  0  0
 36 30  1  0  0  0  0
 37 35  1  0  0  0  0
 37 28  1  1  0  0  0
 39 40  1  0  0  0  0
 41  2  1  0  0  0  0
 41 45  1  0  0  0  0
 42 46  1  0  0  0  0
 43 49  1  0  0  0  0
 44 43  1  0  0  0  0
 45 42  2  0  0  0  0
 45 47  1  0  0  0  0
 46 50  1  0  0  0  0
 46 43  2  0  0  0  0
 47 44  2  0  0  0  0
 49 48  1  0  0  0  0
 51 50  1  0  0  0  0
 52 51  1  0  0  0  0
 53 52  1  0  0  0  0
 54 55  1  0  0  0  0
 55 56  2  0  0  0  0
 55 57  1  0  0  0  0
 57 53  1  0  0  0  0
 58 57  1  0  0  0  0
 60 59  1  1  0  0  0
 60 58  1  0  0  0  0
 61 62  1  0  0  0  0
 63 61  1  0  0  0  0
 64 60  1  1  0  0  0
 64 62  1  0  0  0  0
 65 63  1  0  0  0  0
 65 64  1  0  0  0  0
M  END
>  <MODEL>
7

>  <REMARK>
 VINA RESULT:      -3.0      3.147      8.611
  Name = 
  28 active torsions:
  status: ('A' for Active; 'I' for Inactive)
    1  A    between atoms: C_3  and  CA_18
    2  A    between atoms: N_6  and  C_13
    3  A    between atoms: C_7  and  N_57
    4  A    between atoms: C_7  and  C_65
    5  A    between atoms: C_10  and  C_46
    6  A    between atoms: C_13  and  N_53
    7  A    between atoms: C_14  and  C_56
    8  A    between atoms: C_15  and  C_19
    9  A    between atoms: C_20  and  S_23
   10  A    between atoms: C_21  and  C_33
   11  A    between atoms: C_21  and  C_52
   12  A    between atoms: S_23  and  C_61
   13  A    between atoms: O_24  and  C_47
   14  A    between atoms: O_24  and  C_61
   15  A    between atoms: N_27  and  C_33
   16  A    between atoms: C_30  and  C_32
   17  A    between atoms: C_30  and  C_35
   18  A    between atoms: C_32  and  C_40
   19  A    between atoms: C_34  and  C_37
   20  A    between atoms: C_34  and  C_42
   21  A    between atoms: C_35  and  C_47
   22  A    between atoms: C_37  and  C_51
   23  A    between atoms: C_38  and  C_58
   24  A    between atoms: C_40  and  N_49
   25  A    between atoms: O_48  and  C_52
   26  A    between atoms: C_50  and  C_65
   27  A    between atoms: C_51  and  O_60
   28  A    between atoms: N_57  and  O_60
                            x       y       z     vdW  Elec       q    Type
                         _______ _______ _______ _____ _____    ______ ____

>  <TORSDO>
F 28

$$$$
=
 OpenBabel10232410073D

 65 69  0  0  1  0  0  0  0  0999 V2000
  189.8220  175.9780  142.8320 C   0  0  0  0  0  0  0  0  0  0  0  0
  189.7460  177.1010  142.0940 C   0  0  0  0  0  0  0  0  0  0  0  0
  188.6850  175.5050  143.4810 O   0  0  0  0  0  1  0  0  0  0  0  0
  191.9270  175.2220  143.9890 C   0  0  0  0  0  3  0  0  0  0  0  0
  191.0710  175.2120  142.9600 C   0  0  0  0  0  3  0  0  0  0  0  0
  192.0630  177.3260  145.0260 O   0  0  0  0  0  0  0  0  0  0  0  0
  191.5730  175.5650  146.4740 N   0  0  0  0  0  2  0  0  0  0  0  0
  191.8910  176.0860  145.1800 C   0  0  0  0  0  0  0  0  0  0  0  0
  191.4190  176.4270  147.6370 C   0  0  0  0  0  2  0  0  0  0  0  0
  192.5290  176.1350  148.6300 C   0  0  0  0  0  2  0  0  0  0  0  0
  193.5370  177.2710  148.6250 C   0  0  0  0  0  2  0  0  0  0  0  0
  193.9380  176.4330  150.6200 C   0  0  0  0  0  1  0  0  0  0  0  0
  193.8490  177.6400  149.9300 O   0  0  0  0  0  0  0  0  0  0  0  0
  190.8430  177.6850  141.4410 O   0  0  0  0  0  0  0  0  0  0  0  0
  191.8930  176.9570  140.8260 C   0  0  0  0  0  2  0  0  0  0  0  0
  192.0820  177.4340  139.3990 C   0  0  0  0  0  2  0  0  0  0  0  0
  192.8790  175.4070  138.2250 C   0  0  0  0  0  1  0  0  0  0  0  0
  191.7020  176.3340  138.4310 C   0  0  2  0  0  3  0  0  0  0  0  0
  191.2850  176.9250  137.1010 C   0  0  0  0  0  2  0  0  0  0  0  0
  190.2570  176.0460  136.4070 C   0  0  1  0  0  3  0  0  0  0  0  0
  189.9520  174.8540  137.2960 C   0  0  0  0  0  1  0  0  0  0  0  0
  188.8290  177.7960  136.9370 N   0  0  0  0  0  2  0  0  0  0  0  0
  189.0590  176.8160  136.2090 N   0  0  0  0  0  0  0  0  0  0  0  0
  187.5890  178.5240  136.8180 C   0  0  0  0  0  2  0  0  0  0  0  0
  187.2460  176.4690  135.7150 C   0  0  1  0  0  3  0  0  0  0  0  0
  186.4900  175.3970  136.3510 N   0  0  0  0  0  0  0  0  0  0  0  0
  185.5800  177.3420  136.9640 N   0  0  0  0  0  2  0  0  0  0  0  0
  185.5700  175.9380  137.0580 C   0  0  0  0  0  0  0  0  0  0  0  0
  186.5950  177.7410  136.0810 N   0  0  1  0  0  0  0  0  0  0  0  0
  182.2720  173.6160  136.4930 C   0  0  2  0  0  3  0  0  0  0  0  0
  182.4300  175.1360  136.2720 C   0  0  2  0  0  0  0  0  0  0  0  0
  185.5780  173.0210  138.0410 N   0  0  0  0  0  2  0  0  0  0  0  0
  183.1710  175.3940  135.1140 O   0  0  0  0  0  1  0  0  0  0  0  0
  184.5720  173.6870  137.5730 C   0  0  0  0  0  0  0  0  0  0  0  0
  183.1180  175.7560  137.4910 C   0  0  0  0  0  2  0  0  0  0  0  0
  183.5470  172.9980  136.8440 N   0  0  0  0  0  2  0  0  0  0  0  0
  184.5010  175.1770  137.7880 C   0  0  2  0  0  3  0  0  0  0  0  0
  181.0680  175.7940  136.1400 C   0  0  0  0  0  1  0  0  0  0  0  0
  181.6790  172.9180  135.2750 C   0  0  0  0  0  2  0  0  0  0  0  0
  180.7890  171.9150  135.6670 O   0  0  0  0  0  1  0  0  0  0  0  0
  188.1710  177.9540  141.9290 S   0  0  0  0  0  0  0  0  0  0  0  0
  186.5760  177.8940  144.1790 C   0  0  0  0  0  3  0  0  0  0  0  0
  187.4000  178.0300  146.4610 C   0  0  0  0  0  0  0  0  0  0  0  0
  188.7100  178.1170  145.9670 C   0  0  0  0  0  3  0  0  0  0  0  0
  187.8830  177.9550  143.6980 C   0  0  0  0  0  0  0  0  0  0  0  0
  186.3220  177.9260  145.5580 C   0  0  0  0  0  0  0  0  0  0  0  0
  188.9510  178.0770  144.5910 C   0  0  0  0  0  3  0  0  0  0  0  0
  188.4190  178.2420  148.6580 N   0  0  0  0  0  1  0  0  0  0  0  0
  187.1570  178.1540  147.9340 C   0  0  0  0  0  2  0  0  0  0  0  0
  184.8990  177.9060  146.0290 C   0  0  0  0  0  2  0  0  0  0  0  0
  184.1490  179.1050  145.4870 C   0  0  0  0  0  2  0  0  0  0  0  0
  183.2550  178.6720  144.3440 C   0  0  0  0  0  2  0  0  0  0  0  0
  183.2370  179.6670  143.3550 O   0  0  0  0  0  0  0  0  0  0  0  0
  184.6960  178.2920  140.1420 C   0  0  0  0  0  1  0  0  0  0  0  0
  184.5330  179.0660  141.4100 C   0  0  0  0  0  0  0  0  0  0  0  0
  185.4820  179.7970  141.8050 O   0  0  0  0  0  0  0  0  0  0  0  0
  183.3160  179.0010  142.1740 N   0  0  0  0  0  0  0  0  0  0  0  0
  182.1370  178.3280  141.6120 C   0  0  0  0  0  2  0  0  0  0  0  0
  180.0140  178.7790  142.9010 C   0  0  0  0  0  1  0  0  0  0  0  0
  180.8520  179.1600  141.6850 C   0  0  2  0  0  3  0  0  0  0  0  0
  181.6900  178.7900  138.5540 C   0  0  0  0  0  2  0  0  0  0  0  0
  180.6270  178.1130  139.4120 C   0  0  0  0  0  2  0  0  0  0  0  0
  181.7030  180.2820  138.8490 C   0  0  0  0  0  2  0  0  0  0  0  0
  180.0390  179.1230  140.3840 C   0  0  2  0  0  3  0  0  0  0  0  0
  180.0910  180.7340  139.5390 S   0  0  0  0  0  0  0  0  0  0  0  0
  1  5  1  0  0  0  0
  1  3  1  0  0  0  0
  2  1  2  0  0  0  0
  4  8  1  0  0  0  0
  5  4  2  0  0  0  0
  6  8  2  0  0  0  0
  7  9  1  0  0  0  0
  8  7  1  0  0  0  0
  9 10  1  0  0  0  0
 11 10  1  0  0  0  0
 11 13  1  0  0  0  0
 13 12  1  0  0  0  0
 14  2  1  0  0  0  0
 15 14  1  0  0  0  0
 16 15  1  0  0  0  0
 18 17  1  6  0  0  0
 18 16  1  0  0  0  0
 19 18  1  0  0  0  0
 20 19  1  0  0  0  0
 20 21  1  1  0  0  0
 23 20  1  0  0  0  0
 23 22  1  0  0  0  0
 24 22  1  0  0  0  0
 25 29  1  0  0  0  0
 25 23  1  0  0  0  0
 25 26  1  1  0  0  0
 26 28  2  0  0  0  0
 27 28  1  0  0  0  0
 29 24  1  1  0  0  0
 29 27  1  0  0  0  0
 30 39  1  6  0  0  0
 30 36  1  0  0  0  0
 31 38  1  6  0  0  0
 31 30  1  0  0  0  0
 31 35  1  0  0  0  0
 33 31  1  0  0  0  0
 34 37  1  0  0  0  0
 34 32  2  0  0  0  0
 35 37  1  0  0  0  0
 36 34  1  0  0  0  0
 37 28  1  6  0  0  0
 39 40  1  0  0  0  0
 41  2  1  0  0  0  0
 41 45  1  0  0  0  0
 42 46  1  0  0  0  0
 43 49  1  0  0  0  0
 44 43  1  0  0  0  0
 45 42  2  0  0  0  0
 45 47  1  0  0  0  0
 46 50  1  0  0  0  0
 46 43  2  0  0  0  0
 47 44  2  0  0  0  0
 49 48  1  0  0  0  0
 51 50  1  0  0  0  0
 52 51  1  0  0  0  0
 53 52  1  0  0  0  0
 54 55  1  0  0  0  0
 55 56  2  0  0  0  0
 55 57  1  0  0  0  0
 57 53  1  0  0  0  0
 58 60  1  0  0  0  0
 58 57  1  0  0  0  0
 60 59  1  1  0  0  0
 61 63  1  0  0  0  0
 61 62  1  0  0  0  0
 62 64  1  0  0  0  0
 63 65  1  0  0  0  0
 64 60  1  1  0  0  0
 65 64  1  0  0  0  0
M  END
>  <MODEL>
8

>  <REMARK>
 VINA RESULT:      -3.0      3.411      8.173
  Name = 
  28 active torsions:
  status: ('A' for Active; 'I' for Inactive)
    1  A    between atoms: C_3  and  CA_18
    2  A    between atoms: N_6  and  C_13
    3  A    between atoms: C_7  and  N_57
    4  A    between atoms: C_7  and  C_65
    5  A    between atoms: C_10  and  C_46
    6  A    between atoms: C_13  and  N_53
    7  A    between atoms: C_14  and  C_56
    8  A    between atoms: C_15  and  C_19
    9  A    between atoms: C_20  and  S_23
   10  A    between atoms: C_21  and  C_33
   11  A    between atoms: C_21  and  C_52
   12  A    between atoms: S_23  and  C_61
   13  A    between atoms: O_24  and  C_47
   14  A    between atoms: O_24  and  C_61
   15  A    between atoms: N_27  and  C_33
   16  A    between atoms: C_30  and  C_32
   17  A    between atoms: C_30  and  C_35
   18  A    between atoms: C_32  and  C_40
   19  A    between atoms: C_34  and  C_37
   20  A    between atoms: C_34  and  C_42
   21  A    between atoms: C_35  and  C_47
   22  A    between atoms: C_37  and  C_51
   23  A    between atoms: C_38  and  C_58
   24  A    between atoms: C_40  and  N_49
   25  A    between atoms: O_48  and  C_52
   26  A    between atoms: C_50  and  C_65
   27  A    between atoms: C_51  and  O_60
   28  A    between atoms: N_57  and  O_60
                            x       y       z     vdW  Elec       q    Type
                         _______ _______ _______ _____ _____    ______ ____

>  <TORSDO>
F 28

$$$$
=
 OpenBabel10232410073D

 65 68  0  0  1  0  0  0  0  0999 V2000
  191.9110  175.1490  135.9110 C   0  0  0  0  0  0  0  0  0  0  0  0
  190.8820  175.4500  136.7260 C   0  0  0  0  0  0  0  0  0  0  0  0
  192.4760  176.1490  135.1230 O   0  0  0  0  0  1  0  0  0  0  0  0
  193.7740  173.4570  135.8660 C   0  0  0  0  0  3  0  0  0  0  0  0
  192.4790  173.7950  135.8390 C   0  0  0  0  0  3  0  0  0  0  0  0
  194.8010  175.5080  135.3540 O   0  0  0  0  0  0  0  0  0  0  0  0
  196.1760  173.9900  136.4700 N   0  0  0  0  0  2  0  0  0  0  0  0
  194.9390  174.3570  135.8520 C   0  0  0  0  0  0  0  0  0  0  0  0
  197.2960  174.9150  136.5640 C   0  0  0  0  0  2  0  0  0  0  0  0
  198.5650  174.1410  136.8720 C   0  0  0  0  0  2  0  0  0  0  0  0
  198.7580  174.0460  138.3750 C   0  0  0  0  0  2  0  0  0  0  0  0
  198.7880  175.5120  140.0160 C   0  0  0  0  0  1  0  0  0  0  0  0
  199.4480  175.1610  138.8410 O   0  0  0  0  0  0  0  0  0  0  0  0
  190.2140  174.5070  137.5230 O   0  0  0  0  0  0  0  0  0  0  0  0
  189.4450  173.4270  137.0170 C   0  0  0  0  0  2  0  0  0  0  0  0
  187.9680  173.7550  137.1190 C   0  0  0  0  0  2  0  0  0  0  0  0
  187.6340  173.5510  134.6750 C   0  0  0  0  0  1  0  0  0  0  0  0
  187.2020  173.0350  136.0290 C   0  0  2  0  0  3  0  0  0  0  0  0
  185.7140  173.2520  136.2030 C   0  0  0  0  0  2  0  0  0  0  0  0
  184.9150  172.3500  135.2760 C   0  0  1  0  0  3  0  0  0  0  0  0
  185.1070  170.9080  135.7100 C   0  0  0  0  0  1  0  0  0  0  0  0
  183.2060  173.8620  135.6970 N   0  0  0  0  0  0  0  0  0  0  0  0
  183.5250  172.7030  135.3840 N   0  0  0  0  0  0  0  0  0  0  0  0
  181.8220  174.2120  135.9030 C   0  0  0  0  0  2  0  0  0  0  0  0
  182.7680  174.3960  138.0530 C   0  0  0  0  0  2  0  0  0  0  0  0
  183.4900  175.5980  138.4510 N   0  0  0  0  0  0  0  0  0  0  0  0
  181.8150  176.2110  137.1080 N   0  0  0  0  0  2  0  0  0  0  0  0
  182.9260  176.5970  137.8810 C   0  0  0  0  0  0  0  0  0  0  0  0
  181.6290  174.8250  137.2180 N   0  0  0  0  0  0  0  0  0  0  0  0
  181.5960  180.0660  139.5500 C   0  0  2  0  0  3  0  0  0  0  0  0
  181.1100  179.3680  138.2610 C   0  0  2  0  0  0  0  0  0  0  0  0
  184.4790  177.8490  140.2250 N   0  0  0  0  0  2  0  0  0  0  0  0
  180.3450  178.2380  138.5670 O   0  0  0  0  0  1  0  0  0  0  0  0
  183.4910  178.3700  139.5730 C   0  0  0  0  0  0  0  0  0  0  0  0
  182.3210  178.9730  137.4110 C   0  0  0  0  0  2  0  0  0  0  0  0
  182.5840  179.2510  140.2510 N   0  0  0  0  0  2  0  0  0  0  0  0
  183.2980  178.0320  138.1170 C   0  0  2  0  0  3  0  0  0  0  0  0
  180.2690  180.3200  137.4300 C   0  0  0  0  0  1  0  0  0  0  0  0
  180.4440  180.4020  140.4890 C   0  0  0  0  0  2  0  0  0  0  0  0
  180.4670  179.5720  141.6120 O   0  0  0  0  0  1  0  0  0  0  0  0
  190.2780  177.1410  136.8130 S   0  0  0  0  0  0  0  0  0  0  0  0
  189.1630  177.3140  139.3300 C   0  0  0  0  0  3  0  0  0  0  0  0
  190.4260  177.2890  141.4060 C   0  0  0  0  0  0  0  0  0  0  0  0
  191.6110  177.1680  140.6660 C   0  0  0  0  0  3  0  0  0  0  0  0
  190.3430  177.1690  138.6040 C   0  0  0  0  0  0  0  0  0  0  0  0
  189.1900  177.3710  140.7320 C   0  0  0  0  0  0  0  0  0  0  0  0
  191.5700  177.1060  139.2700 C   0  0  0  0  0  3  0  0  0  0  0  0
  191.4870  176.5200  143.4540 N   0  0  0  0  0  1  0  0  0  0  0  0
  190.4980  177.4340  142.8950 C   0  0  0  0  0  2  0  0  0  0  0  0
  187.9020  177.5770  141.4700 C   0  0  0  0  0  2  0  0  0  0  0  0
  187.3030  178.9220  141.1160 C   0  0  0  0  0  2  0  0  0  0  0  0
  186.0720  179.1690  141.9650 C   0  0  0  0  0  2  0  0  0  0  0  0
  186.4390  179.8290  143.1480 O   0  0  0  0  0  0  0  0  0  0  0  0
  183.5220  178.2380  144.9650 C   0  0  0  0  0  1  0  0  0  0  0  0
  184.3280  178.9710  143.9420 C   0  0  0  0  0  0  0  0  0  0  0  0
  183.7560  179.3900  142.8990 O   0  0  0  0  0  0  0  0  0  0  0  0
  185.7320  179.2180  144.1330 N   0  0  0  0  0  0  0  0  0  0  0  0
  186.3530  178.9260  145.4320 C   0  0  0  0  0  2  0  0  0  0  0  0
  186.8710  176.4590  145.5590 C   0  0  0  0  0  1  0  0  0  0  0  0
  187.4500  177.8570  145.3720 C   0  0  2  0  0  3  0  0  0  0  0  0
  189.1120  175.9740  147.4540 C   0  0  0  0  0  2  0  0  0  0  0  0
  189.5680  176.9530  146.3770 C   0  0  0  0  0  2  0  0  0  0  0  0
  187.9480  176.5770  148.2240 C   0  0  0  0  0  2  0  0  0  0  0  0
  188.6150  178.1370  146.3300 C   0  0  2  0  0  3  0  0  0  0  0  0
  188.0150  178.3750  148.0310 S   0  0  0  0  0  0  0  0  0  0  0  0
  1  2  2  0  0  0  0
  2 41  1  0  0  0  0
  2 14  1  0  0  0  0
  3  1  1  0  0  0  0
  5  4  2  0  0  0  0
  5  1  1  0  0  0  0
  6  8  2  0  0  0  0
  7  9  1  0  0  0  0
  8  4  1  0  0  0  0
  8  7  1  0  0  0  0
  9 10  1  0  0  0  0
 10 11  1  0  0  0  0
 11 13  1  0  0  0  0
 13 12  1  0  0  0  0
 15 16  1  0  0  0  0
 15 14  1  0  0  0  0
 18 17  1  6  0  0  0
 18 19  1  0  0  0  0
 18 16  1  0  0  0  0
 20 23  1  0  0  0  0
 20 21  1  1  0  0  0
 20 19  1  0  0  0  0
 22 24  1  0  0  0  0
 23 22  2  0  0  0  0
 24 29  1  0  0  0  0
 25 26  1  0  0  0  0
 27 29  1  0  0  0  0
 27 28  1  0  0  0  0
 28 26  2  0  0  0  0
 29 25  1  0  0  0  0
 30 36  1  0  0  0  0
 30 39  1  1  0  0  0
 31 38  1  6  0  0  0
 31 33  1  0  0  0  0
 31 30  1  0  0  0  0
 34 32  2  0  0  0  0
 34 36  1  0  0  0  0
 35 37  1  0  0  0  0
 35 31  1  0  0  0  0
 37 28  1  1  0  0  0
 37 34  1  0  0  0  0
 39 40  1  0  0  0  0
 41 45  1  0  0  0  0
 42 46  1  0  0  0  0
 43 49  1  0  0  0  0
 44 43  1  0  0  0  0
 45 47  1  0  0  0  0
 45 42  2  0  0  0  0
 46 43  2  0  0  0  0
 46 50  1  0  0  0  0
 47 44  2  0  0  0  0
 49 48  1  0  0  0  0
 51 50  1  0  0  0  0
 51 52  1  0  0  0  0
 52 53  1  0  0  0  0
 53 57  1  0  0  0  0
 55 57  1  0  0  0  0
 55 54  1  0  0  0  0
 56 55  2  0  0  0  0
 57 58  1  0  0  0  0
 60 58  1  0  0  0  0
 60 59  1  1  0  0  0
 61 63  1  0  0  0  0
 62 61  1  0  0  0  0
 64 60  1  6  0  0  0
 64 62  1  0  0  0  0
 64 65  1  0  0  0  0
 65 63  1  0  0  0  0
M  END
>  <MODEL>
9

>  <REMARK>
 VINA RESULT:      -2.2      1.585      2.060
  Name = 
  28 active torsions:
  status: ('A' for Active; 'I' for Inactive)
    1  A    between atoms: C_3  and  CA_18
    2  A    between atoms: N_6  and  C_13
    3  A    between atoms: C_7  and  N_57
    4  A    between atoms: C_7  and  C_65
    5  A    between atoms: C_10  and  C_46
    6  A    between atoms: C_13  and  N_53
    7  A    between atoms: C_14  and  C_56
    8  A    between atoms: C_15  and  C_19
    9  A    between atoms: C_20  and  S_23
   10  A    between atoms: C_21  and  C_33
   11  A    between atoms: C_21  and  C_52
   12  A    between atoms: S_23  and  C_61
   13  A    between atoms: O_24  and  C_47
   14  A    between atoms: O_24  and  C_61
   15  A    between atoms: N_27  and  C_33
   16  A    between atoms: C_30  and  C_32
   17  A    between atoms: C_30  and  C_35
   18  A    between atoms: C_32  and  C_40
   19  A    between atoms: C_34  and  C_37
   20  A    between atoms: C_34  and  C_42
   21  A    between atoms: C_35  and  C_47
   22  A    between atoms: C_37  and  C_51
   23  A    between atoms: C_38  and  C_58
   24  A    between atoms: C_40  and  N_49
   25  A    between atoms: O_48  and  C_52
   26  A    between atoms: C_50  and  C_65
   27  A    between atoms: C_51  and  O_60
   28  A    between atoms: N_57  and  O_60
                            x       y       z     vdW  Elec       q    Type
                         _______ _______ _______ _____ _____    ______ ____

>  <TORSDO>
F 28

$$$$
