=
 OpenBabel10232410403D

 48 50  0  0  1  0  0  0  0  0999 V2000
  188.1960  176.3750  137.7850 C   0  0  0  0  0  3  0  0  0  0  0  0
  188.4580  177.5570  138.3650 C   0  0  0  0  0  0  0  0  0  0  0  0
  190.4020  177.6690  142.1980 C   0  0  0  0  0  0  0  0  0  0  0  0
  190.4810  177.2180  139.8140 C   0  0  0  0  0  3  0  0  0  0  0  0
  189.1310  177.5810  139.6830 C   0  0  0  0  0  0  0  0  0  0  0  0
  188.4270  177.9960  140.8230 C   0  0  0  0  0  3  0  0  0  0  0  0
  189.0570  178.0350  142.0700 C   0  0  0  0  0  3  0  0  0  0  0  0
  191.1100  177.2630  141.0600 C   0  0  0  0  0  3  0  0  0  0  0  0
  190.9510  176.6150  144.4150 N   0  0  0  0  0  2  0  0  0  0  0  0
  191.0700  177.7170  143.5090 C   0  0  0  0  0  0  0  0  0  0  0  0
  191.7560  178.7260  143.8320 O   0  0  0  0  0  0  0  0  0  0  0  0
  191.5620  176.6130  145.7370 C   0  0  0  0  0  2  0  0  0  0  0  0
  190.5090  176.8420  146.8110 C   0  0  0  0  0  2  0  0  0  0  0  0
  189.1530  177.1510  146.1890 C   0  0  0  0  0  2  0  0  0  0  0  0
  188.2350  177.8560  147.1790 C   0  0  2  0  0  3  0  0  0  0  0  0
  188.0520  177.0510  148.3010 O   0  0  0  0  0  1  0  0  0  0  0  0
  185.5430  178.2800  144.3980 C   0  0  0  0  0  0  0  0  0  0  0  0
  186.9110  178.1630  146.5580 C   0  0  0  0  0  0  0  0  0  0  0  0
  186.7230  177.9700  145.1490 N   0  0  0  0  0  2  0  0  0  0  0  0
  184.3640  178.9520  145.0140 C   0  0  0  0  0  1  0  0  0  0  0  0
  185.5050  177.9950  143.1720 O   0  0  0  0  0  0  0  0  0  0  0  0
  185.9760  178.5820  147.2880 O   0  0  0  0  0  0  0  0  0  0  0  0
  188.0770  178.8060  137.7670 N   0  0  0  0  0  2  0  0  0  0  0  0
  188.9550  179.8080  137.5260 O   0  0  0  0  0  1  0  0  0  0  0  0
  187.6990  176.2170  136.4490 N   0  0  0  0  0  0  0  0  0  0  0  0
  185.5330  177.3350  136.0790 C   0  0  0  0  0  1  0  0  0  0  0  0
  186.2620  176.0110  136.2840 C   0  0  1  0  0  3  0  0  0  0  0  0
  185.9830  175.0120  135.1490 C   0  0  0  0  0  2  0  0  0  0  0  0
  184.1440  171.4630  135.9390 N   0  0  0  0  0  2  0  0  0  0  0  0
  183.9360  173.6830  135.2110 C   0  0  2  0  0  3  0  0  0  0  0  0
  183.4710  172.2990  135.0270 N   0  0  0  0  0  2  0  0  0  0  0  0
  186.1090  172.6340  135.0070 C   0  0  0  0  0  2  0  0  0  0  0  0
  185.5250  171.3000  135.4830 C   0  0  0  0  0  2  0  0  0  0  0  0
  185.3640  173.7500  135.5880 N   0  0  0  0  0  0  0  0  0  0  0  0
  183.0750  174.3900  136.2470 C   0  0  0  0  0  2  0  0  0  0  0  0
  181.7530  174.4210  135.7980 O   0  0  0  0  0  0  0  0  0  0  0  0
  181.0830  175.2480  136.6980 C   0  0  0  0  0  2  0  0  0  0  0  0
  181.2650  174.7590  138.1380 C   0  0  2  0  0  3  0  0  0  0  0  0
  180.3970  172.7520  137.9420 O   0  0  0  0  0  1  0  0  0  0  0  0
  180.2470  173.8940  138.5840 O   0  0  0  0  0  0  0  0  0  0  0  0
  181.6710  175.8320  139.1550 C   0  0  0  0  0  2  0  0  0  0  0  0
  183.3550  177.4550  139.0330 C   0  0  0  0  0  2  0  0  0  0  0  0
  182.1870  178.2200  139.4510 C   0  0  1  0  0  3  0  0  0  0  0  0
  182.0350  177.0880  138.4990 N   0  0  0  0  0  0  0  0  0  0  0  0
  181.1260  178.9860  141.2340 C   0  0  0  0  0  1  0  0  0  0  0  0
  181.8280  177.8760  140.7620 O   0  0  0  0  0  0  0  0  0  0  0  0
  188.6200  175.9090  135.3530 C   0  0  0  0  0  2  0  0  0  0  0  0
  189.2370  177.1780  134.7910 C   0  0  0  0  0  1  0  0  0  0  0  0
  1  2  2  0  0  0  0
  2  5  1  0  0  0  0
  3 10  1  0  0  0  0
  4  8  1  0  0  0  0
  5  4  2  0  0  0  0
  5  6  1  0  0  0  0
  6  7  2  0  0  0  0
  7  3  1  0  0  0  0
  8  3  2  0  0  0  0
  9 12  1  0  0  0  0
 10 11  2  0  0  0  0
 10  9  1  0  0  0  0
 12 13  1  0  0  0  0
 14 13  1  0  0  0  0
 14 15  1  0  0  0  0
 15 16  1  1  0  0  0
 17 20  1  0  0  0  0
 17 19  1  0  0  0  0
 18 15  1  0  0  0  0
 18 22  2  0  0  0  0
 19 18  1  0  0  0  0
 21 17  2  0  0  0  0
 23  2  1  0  0  0  0
 24 23  1  0  0  0  0
 25  1  1  0  0  0  0
 27 26  1  6  0  0  0
 27 25  1  0  0  0  0
 28 34  1  0  0  0  0
 28 27  1  0  0  0  0
 30 34  1  0  0  0  0
 30 35  1  1  0  0  0
 31 30  1  0  0  0  0
 31 29  1  0  0  0  0
 32 33  1  0  0  0  0
 32 34  1  0  0  0  0
 33 29  1  0  0  0  0
 36 35  1  0  0  0  0
 36 37  1  0  0  0  0
 38 37  1  6  0  0  0
 38 40  1  0  0  0  0
 38 41  1  0  0  0  0
 39 40  1  0  0  0  0
 42 43  1  0  0  0  0
 43 46  1  1  0  0  0
 44 42  1  0  0  0  0
 44 41  1  0  0  0  0
 44 43  1  0  0  0  0
 46 45  1  0  0  0  0
 47 25  1  0  0  0  0
 48 47  1  0  0  0  0
M  END
>  <MODEL>
1

>  <REMARK>
 VINA RESULT:      -6.6      0.000      0.000
  Name = 
  21 active torsions:
  status: ('A' for Active; 'I' for Inactive)
    1  A    between atoms: C_1  and  C_23
    2  A    between atoms: C_1  and  C_35
    3  A    between atoms: C_2  and  N_22
    4  A    between atoms: C_2  and  C_23
    5  A    between atoms: C_3  and  N_15
    6  A    between atoms: C_5  and  N_15
    7  A    between atoms: C_6  and  C_25
    8  A    between atoms: C_7  and  N_15
    9  A    between atoms: C_7  and  C_36
   10  A    between atoms: C_8  and  C_16
   11  A    between atoms: C_8  and  N_29
   12  A    between atoms: O_12  and  C_16
   13  A    between atoms: C_13  and  C_38
   14  A    between atoms: C_16  and  C_19
   15  A    between atoms: N_18  and  C_32
   16  A    between atoms: C_19  and  O_31
   17  A    between atoms: C_24  and  C_35
   18  A    between atoms: C_26  and  C_32
   19  A    between atoms: C_27  and  O_41
   20  A    between atoms: O_31  and  C_38
   21  A    between atoms: C_36  and  N_48
                            x       y       z     vdW  Elec       q    Type
                         _______ _______ _______ _____ _____    ______ ____

>  <TORSDO>
F 21

$$$$
=
 OpenBabel10232410403D

 48 50  0  0  1  0  0  0  0  0999 V2000
  182.9070  178.2540  140.8130 C   0  0  0  0  0  3  0  0  0  0  0  0
  182.4330  178.6440  142.0070 C   0  0  0  0  0  0  0  0  0  0  0  0
  185.0790  178.8300  145.3900 C   0  0  0  0  0  0  0  0  0  0  0  0
  184.7420  178.7140  142.9890 C   0  0  0  0  0  3  0  0  0  0  0  0
  183.3500  178.6960  143.1670 C   0  0  0  0  0  0  0  0  0  0  0  0
  182.8330  178.7540  144.4700 C   0  0  0  0  0  3  0  0  0  0  0  0
  183.6900  178.8160  145.5710 C   0  0  0  0  0  3  0  0  0  0  0  0
  185.5980  178.7810  144.0900 C   0  0  0  0  0  3  0  0  0  0  0  0
  187.0680  177.9770  146.6710 N   0  0  0  0  0  2  0  0  0  0  0  0
  185.9850  178.9040  146.5490 C   0  0  0  0  0  0  0  0  0  0  0  0
  185.8120  179.7900  147.4300 O   0  0  0  0  0  0  0  0  0  0  0  0
  187.9810  177.9780  147.8060 C   0  0  0  0  0  2  0  0  0  0  0  0
  189.3970  177.6550  147.3510 C   0  0  0  0  0  2  0  0  0  0  0  0
  189.3830  176.7760  146.1070 C   0  0  0  0  0  2  0  0  0  0  0  0
  190.7890  176.5660  145.5590 C   0  0  2  0  0  3  0  0  0  0  0  0
  191.6830  177.3900  146.2380 O   0  0  0  0  0  1  0  0  0  0  0  0
  189.6120  177.8040  142.0600 C   0  0  0  0  0  0  0  0  0  0  0  0
  190.8450  176.8590  144.0960 C   0  0  0  0  0  0  0  0  0  0  0  0
  189.7380  177.5140  143.4580 N   0  0  0  0  0  2  0  0  0  0  0  0
  190.6220  177.3510  141.0620 C   0  0  0  0  0  1  0  0  0  0  0  0
  188.6060  178.4430  141.6560 O   0  0  0  0  0  0  0  0  0  0  0  0
  191.8700  176.5320  143.4450 O   0  0  0  0  0  0  0  0  0  0  0  0
  181.0520  178.9810  142.2100 N   0  0  0  0  0  2  0  0  0  0  0  0
  180.6330  180.2350  142.5060 O   0  0  0  0  0  1  0  0  0  0  0  0
  182.1690  178.3140  139.5860 N   0  0  0  0  0  0  0  0  0  0  0  0
  180.5620  176.4510  139.7520 C   0  0  0  0  0  1  0  0  0  0  0  0
  181.7420  177.0490  138.9920 C   0  0  1  0  0  3  0  0  0  0  0  0
  181.4400  177.2240  137.4950 C   0  0  0  0  0  2  0  0  0  0  0  0
  183.8570  175.4500  134.7360 N   0  0  0  0  0  2  0  0  0  0  0  0
  182.0720  175.2270  136.2440 C   0  0  2  0  0  3  0  0  0  0  0  0
  182.6090  174.8260  134.9320 N   0  0  0  0  0  2  0  0  0  0  0  0
  182.5580  177.4440  135.3990 C   0  0  0  0  0  2  0  0  0  0  0  0
  183.6250  176.8690  134.4620 C   0  0  0  0  0  2  0  0  0  0  0  0
  182.4360  176.6150  136.5980 N   0  0  0  0  0  0  0  0  0  0  0  0
  182.5450  174.2590  137.3180 C   0  0  0  0  0  2  0  0  0  0  0  0
  183.8500  174.5870  137.6870 O   0  0  0  0  0  0  0  0  0  0  0  0
  184.5500  173.3810  137.6620 C   0  0  0  0  0  2  0  0  0  0  0  0
  185.8790  173.5300  136.9150 C   0  0  2  0  0  3  0  0  0  0  0  0
  187.8230  172.5640  137.2460 O   0  0  0  0  0  1  0  0  0  0  0  0
  186.6070  172.3310  136.7930 O   0  0  0  0  0  0  0  0  0  0  0  0
  186.7260  174.7460  137.3090 C   0  0  0  0  0  2  0  0  0  0  0  0
  188.0870  175.9660  135.8450 C   0  0  0  0  0  2  0  0  0  0  0  0
  187.4580  177.0030  136.6540 C   0  0  1  0  0  3  0  0  0  0  0  0
  186.6940  175.7830  136.2780 N   0  0  0  0  0  0  0  0  0  0  0  0
  188.3360  178.2620  138.2460 C   0  0  0  0  0  1  0  0  0  0  0  0
  187.9440  176.9520  137.9680 O   0  0  0  0  0  0  0  0  0  0  0  0
  182.1680  179.5410  138.7870 C   0  0  0  0  0  2  0  0  0  0  0  0
  180.8940  180.3370  139.0180 C   0  0  0  0  0  1  0  0  0  0  0  0
  1  2  2  0  0  0  0
  2 23  1  0  0  0  0
  2  5  1  0  0  0  0
  3  7  1  0  0  0  0
  3 10  1  0  0  0  0
  4  5  2  0  0  0  0
  4  8  1  0  0  0  0
  5  6  1  0  0  0  0
  6  7  2  0  0  0  0
  8  3  2  0  0  0  0
  9 12  1  0  0  0  0
 10  9  1  0  0  0  0
 10 11  2  0  0  0  0
 13 12  1  0  0  0  0
 14 13  1  0  0  0  0
 15 14  1  0  0  0  0
 15 16  1  1  0  0  0
 17 19  1  0  0  0  0
 18 15  1  0  0  0  0
 19 18  1  0  0  0  0
 20 17  1  0  0  0  0
 21 17  2  0  0  0  0
 22 18  2  0  0  0  0
 23 24  1  0  0  0  0
 25  1  1  0  0  0  0
 27 25  1  0  0  0  0
 27 26  1  1  0  0  0
 28 27  1  0  0  0  0
 29 31  1  0  0  0  0
 30 34  1  0  0  0  0
 30 35  1  1  0  0  0
 31 30  1  0  0  0  0
 32 34  1  0  0  0  0
 33 29  1  0  0  0  0
 33 32  1  0  0  0  0
 34 28  1  0  0  0  0
 35 36  1  0  0  0  0
 37 36  1  0  0  0  0
 38 41  1  1  0  0  0
 38 37  1  0  0  0  0
 40 38  1  0  0  0  0
 40 39  1  0  0  0  0
 42 44  1  0  0  0  0
 42 43  1  0  0  0  0
 43 46  1  1  0  0  0
 44 43  1  0  0  0  0
 44 41  1  0  0  0  0
 46 45  1  0  0  0  0
 47 48  1  0  0  0  0
 47 25  1  0  0  0  0
M  END
>  <MODEL>
2

>  <REMARK>
 VINA RESULT:      -6.6      2.248      5.902
  Name = 
  21 active torsions:
  status: ('A' for Active; 'I' for Inactive)
    1  A    between atoms: C_1  and  C_23
    2  A    between atoms: C_1  and  C_35
    3  A    between atoms: C_2  and  N_22
    4  A    between atoms: C_2  and  C_23
    5  A    between atoms: C_3  and  N_15
    6  A    between atoms: C_5  and  N_15
    7  A    between atoms: C_6  and  C_25
    8  A    between atoms: C_7  and  N_15
    9  A    between atoms: C_7  and  C_36
   10  A    between atoms: C_8  and  C_16
   11  A    between atoms: C_8  and  N_29
   12  A    between atoms: O_12  and  C_16
   13  A    between atoms: C_13  and  C_38
   14  A    between atoms: C_16  and  C_19
   15  A    between atoms: N_18  and  C_32
   16  A    between atoms: C_19  and  O_31
   17  A    between atoms: C_24  and  C_35
   18  A    between atoms: C_26  and  C_32
   19  A    between atoms: C_27  and  O_41
   20  A    between atoms: O_31  and  C_38
   21  A    between atoms: C_36  and  N_48
                            x       y       z     vdW  Elec       q    Type
                         _______ _______ _______ _____ _____    ______ ____

>  <TORSDO>
F 21

$$$$
=
 OpenBabel10232410403D

 48 50  0  0  1  0  0  0  0  0999 V2000
  190.0500  176.4720  142.1600 C   0  0  0  0  0  3  0  0  0  0  0  0
  190.6720  177.0010  141.0930 C   0  0  0  0  0  0  0  0  0  0  0  0
  188.6100  177.0480  137.3210 C   0  0  0  0  0  0  0  0  0  0  0  0
  190.3370  176.1330  138.7610 C   0  0  0  0  0  3  0  0  0  0  0  0
  189.9750  177.0190  139.7880 C   0  0  0  0  0  0  0  0  0  0  0  0
  188.9170  177.9150  139.5690 C   0  0  0  0  0  3  0  0  0  0  0  0
  188.2440  177.9310  138.3440 C   0  0  0  0  0  3  0  0  0  0  0  0
  189.6600  176.1470  137.5400 C   0  0  0  0  0  3  0  0  0  0  0  0
  186.4930  176.7840  135.9890 N   0  0  0  0  0  2  0  0  0  0  0  0
  187.8970  177.0580  136.0320 C   0  0  0  0  0  0  0  0  0  0  0  0
  188.5210  177.3160  134.9670 O   0  0  0  0  0  0  0  0  0  0  0  0
  185.7360  176.7490  134.7460 C   0  0  0  0  0  2  0  0  0  0  0  0
  184.2840  177.1320  134.9950 C   0  0  0  0  0  2  0  0  0  0  0  0
  183.9590  177.1030  136.4830 C   0  0  0  0  0  2  0  0  0  0  0  0
  182.6930  176.3030  136.7600 C   0  0  2  0  0  3  0  0  0  0  0  0
  182.0970  176.7640  137.9320 O   0  0  0  0  0  1  0  0  0  0  0  0
  184.7190  173.0740  137.5540 C   0  0  0  0  0  0  0  0  0  0  0  0
  182.9950  174.8460  136.8880 C   0  0  0  0  0  0  0  0  0  0  0  0
  184.2560  174.4240  137.4290 N   0  0  0  0  0  2  0  0  0  0  0  0
  183.9420  171.9170  137.0240 C   0  0  0  0  0  1  0  0  0  0  0  0
  185.8270  172.8560  138.1090 O   0  0  0  0  0  0  0  0  0  0  0  0
  182.1310  174.0080  136.5230 O   0  0  0  0  0  0  0  0  0  0  0  0
  192.0080  177.5200  141.1640 N   0  0  0  0  0  2  0  0  0  0  0  0
  192.8980  177.4100  140.1490 O   0  0  0  0  0  1  0  0  0  0  0  0
  190.5460  176.5370  143.5040 N   0  0  0  0  0  0  0  0  0  0  0  0
  190.4540  178.9880  143.7420 C   0  0  0  0  0  1  0  0  0  0  0  0
  190.0810  177.6380  144.3430 C   0  0  1  0  0  3  0  0  0  0  0  0
  188.5720  177.5180  144.6130 C   0  0  0  0  0  2  0  0  0  0  0  0
  187.1830  178.6670  148.2660 N   0  0  0  0  0  2  0  0  0  0  0  0
  186.6790  177.9350  146.0950 C   0  0  2  0  0  3  0  0  0  0  0  0
  186.3070  177.8580  147.5170 N   0  0  0  0  0  2  0  0  0  0  0  0
  188.8710  177.4070  146.9770 C   0  0  0  0  0  2  0  0  0  0  0  0
  188.4830  177.9980  148.3360 C   0  0  0  0  0  2  0  0  0  0  0  0
  188.1380  178.0760  145.9040 N   0  0  0  0  0  0  0  0  0  0  0  0
  185.9370  179.0810  145.4230 C   0  0  0  0  0  2  0  0  0  0  0  0
  184.6250  179.1170  145.8980 O   0  0  0  0  0  0  0  0  0  0  0  0
  183.8940  178.3300  145.0100 C   0  0  0  0  0  2  0  0  0  0  0  0
  183.2010  179.1920  143.9500 C   0  0  2  0  0  3  0  0  0  0  0  0
  181.2610  179.8800  143.1870 O   0  0  0  0  0  1  0  0  0  0  0  0
  181.8670  178.8240  143.6930 O   0  0  0  0  0  0  0  0  0  0  0  0
  184.0280  179.4870  142.6930 C   0  0  0  0  0  2  0  0  0  0  0  0
  185.9690  178.5010  141.8310 C   0  0  0  0  0  2  0  0  0  0  0  0
  185.0490  178.4660  140.7000 C   0  0  1  0  0  3  0  0  0  0  0  0
  184.5410  178.2610  142.0830 N   0  0  0  0  0  0  0  0  0  0  0  0
  183.9430  179.5920  139.1510 C   0  0  0  0  0  1  0  0  0  0  0  0
  184.8160  179.7640  140.2260 O   0  0  0  0  0  0  0  0  0  0  0  0
  191.7290  175.7640  143.8880 C   0  0  0  0  0  2  0  0  0  0  0  0
  191.9500  175.8230  145.3910 C   0  0  0  0  0  1  0  0  0  0  0  0
  1 25  1  0  0  0  0
  2 23  1  0  0  0  0
  2  1  2  0  0  0  0
  3  8  2  0  0  0  0
  3  7  1  0  0  0  0
  4  5  2  0  0  0  0
  5  2  1  0  0  0  0
  6  5  1  0  0  0  0
  7  6  2  0  0  0  0
  8  4  1  0  0  0  0
  9 10  1  0  0  0  0
 10  3  1  0  0  0  0
 11 10  2  0  0  0  0
 12 13  1  0  0  0  0
 12  9  1  0  0  0  0
 13 14  1  0  0  0  0
 14 15  1  0  0  0  0
 15 18  1  0  0  0  0
 15 16  1  1  0  0  0
 17 21  2  0  0  0  0
 18 19  1  0  0  0  0
 19 17  1  0  0  0  0
 20 17  1  0  0  0  0
 22 18  2  0  0  0  0
 24 23  1  0  0  0  0
 25 47  1  0  0  0  0
 25 27  1  0  0  0  0
 27 26  1  6  0  0  0
 27 28  1  0  0  0  0
 28 34  1  0  0  0  0
 29 33  1  0  0  0  0
 30 35  1  1  0  0  0
 30 31  1  0  0  0  0
 31 29  1  0  0  0  0
 32 33  1  0  0  0  0
 34 30  1  0  0  0  0
 34 32  1  0  0  0  0
 35 36  1  0  0  0  0
 37 36  1  0  0  0  0
 38 41  1  6  0  0  0
 38 37  1  0  0  0  0
 39 40  1  0  0  0  0
 40 38  1  0  0  0  0
 42 44  1  0  0  0  0
 43 46  1  1  0  0  0
 43 42  1  0  0  0  0
 43 44  1  0  0  0  0
 44 41  1  0  0  0  0
 45 46  1  0  0  0  0
 47 48  1  0  0  0  0
M  END
>  <MODEL>
3

>  <REMARK>
 VINA RESULT:      -6.5      2.204      9.092
  Name = 
  21 active torsions:
  status: ('A' for Active; 'I' for Inactive)
    1  A    between atoms: C_1  and  C_23
    2  A    between atoms: C_1  and  C_35
    3  A    between atoms: C_2  and  N_22
    4  A    between atoms: C_2  and  C_23
    5  A    between atoms: C_3  and  N_15
    6  A    between atoms: C_5  and  N_15
    7  A    between atoms: C_6  and  C_25
    8  A    between atoms: C_7  and  N_15
    9  A    between atoms: C_7  and  C_36
   10  A    between atoms: C_8  and  C_16
   11  A    between atoms: C_8  and  N_29
   12  A    between atoms: O_12  and  C_16
   13  A    between atoms: C_13  and  C_38
   14  A    between atoms: C_16  and  C_19
   15  A    between atoms: N_18  and  C_32
   16  A    between atoms: C_19  and  O_31
   17  A    between atoms: C_24  and  C_35
   18  A    between atoms: C_26  and  C_32
   19  A    between atoms: C_27  and  O_41
   20  A    between atoms: O_31  and  C_38
   21  A    between atoms: C_36  and  N_48
                            x       y       z     vdW  Elec       q    Type
                         _______ _______ _______ _____ _____    ______ ____

>  <TORSDO>
F 21

$$$$
=
 OpenBabel10232410403D

 48 50  0  0  1  0  0  0  0  0999 V2000
  189.4480  176.2060  137.8990 C   0  0  0  0  0  3  0  0  0  0  0  0
  189.4750  177.4040  138.5060 C   0  0  0  0  0  0  0  0  0  0  0  0
  189.8410  177.6210  142.7840 C   0  0  0  0  0  0  0  0  0  0  0  0
  190.8280  177.1840  140.6090 C   0  0  0  0  0  3  0  0  0  0  0  0
  189.6060  177.4650  139.9790 C   0  0  0  0  0  0  0  0  0  0  0  0
  188.5050  177.8330  140.7670 C   0  0  0  0  0  3  0  0  0  0  0  0
  188.6210  177.9060  142.1580 C   0  0  0  0  0  3  0  0  0  0  0  0
  190.9440  177.2620  141.9990 C   0  0  0  0  0  3  0  0  0  0  0  0
  188.9500  177.1550  145.0890 N   0  0  0  0  0  2  0  0  0  0  0  0
  189.9690  177.7050  144.2490 C   0  0  0  0  0  0  0  0  0  0  0  0
  190.9820  178.2540  144.7640 O   0  0  0  0  0  0  0  0  0  0  0  0
  189.0020  177.2320  146.5430 C   0  0  0  0  0  2  0  0  0  0  0  0
  187.6730  177.7220  147.0980 C   0  0  0  0  0  2  0  0  0  0  0  0
  186.5870  177.6830  146.0310 C   0  0  0  0  0  2  0  0  0  0  0  0
  185.8440  179.0100  145.9450 C   0  0  2  0  0  3  0  0  0  0  0  0
  185.4210  179.3910  147.2170 O   0  0  0  0  0  1  0  0  0  0  0  0
  183.8440  178.4450  142.6520 C   0  0  0  0  0  0  0  0  0  0  0  0
  184.6660  178.9070  145.0330 C   0  0  0  0  0  0  0  0  0  0  0  0
  184.8560  178.5250  143.6630 N   0  0  0  0  0  2  0  0  0  0  0  0
  182.4350  178.8610  142.9080 C   0  0  0  0  0  1  0  0  0  0  0  0
  184.1550  178.0320  141.5050 O   0  0  0  0  0  0  0  0  0  0  0  0
  183.5180  179.1520  145.4860 O   0  0  0  0  0  0  0  0  0  0  0  0
  189.3450  178.6350  137.7780 N   0  0  0  0  0  2  0  0  0  0  0  0
  188.1510  179.2280  137.5360 O   0  0  0  0  0  1  0  0  0  0  0  0
  189.4860  176.0140  136.4790 N   0  0  0  0  0  0  0  0  0  0  0  0
  188.4310  177.0540  134.5100 C   0  0  0  0  0  1  0  0  0  0  0  0
  188.2360  176.1770  135.7420 C   0  0  1  0  0  3  0  0  0  0  0  0
  187.6270  174.8100  135.3930 C   0  0  0  0  0  2  0  0  0  0  0  0
  184.2300  173.5140  137.2330 N   0  0  0  0  0  2  0  0  0  0  0  0
  185.2610  174.2250  135.2490 C   0  0  2  0  0  3  0  0  0  0  0  0
  184.2780  173.3040  135.8410 N   0  0  0  0  0  2  0  0  0  0  0  0
  186.6790  173.3050  136.9830 C   0  0  0  0  0  2  0  0  0  0  0  0
  185.4470  172.9560  137.8250 C   0  0  0  0  0  2  0  0  0  0  0  0
  186.4080  174.4740  136.1480 N   0  0  0  0  0  0  0  0  0  0  0  0
  184.5860  175.5340  134.8670 C   0  0  0  0  0  2  0  0  0  0  0  0
  183.2010  175.3580  134.8890 O   0  0  0  0  0  0  0  0  0  0  0  0
  182.6930  176.5330  135.4400 C   0  0  0  0  0  2  0  0  0  0  0  0
  182.1460  176.2900  136.8490 C   0  0  2  0  0  3  0  0  0  0  0  0
  181.0480  174.7350  137.9430 O   0  0  0  0  0  1  0  0  0  0  0  0
  180.9700  175.5160  136.8840 O   0  0  0  0  0  0  0  0  0  0  0  0
  182.1230  177.5160  137.7700 C   0  0  0  0  0  2  0  0  0  0  0  0
  180.6000  179.2310  137.2980 C   0  0  0  0  0  2  0  0  0  0  0  0
  180.7020  179.2690  138.7520 C   0  0  1  0  0  3  0  0  0  0  0  0
  180.7560  177.9680  138.0340 N   0  0  0  0  0  0  0  0  0  0  0  0
  182.0740  180.9920  138.5530 C   0  0  0  0  0  1  0  0  0  0  0  0
  181.9690  179.7290  139.1360 O   0  0  0  0  0  0  0  0  0  0  0  0
  190.6240  175.3310  135.8600 C   0  0  0  0  0  2  0  0  0  0  0  0
  191.0830  174.1600  136.7140 C   0  0  0  0  0  1  0  0  0  0  0  0
  1  2  2  0  0  0  0
  2  5  1  0  0  0  0
  3 10  1  0  0  0  0
  4  8  1  0  0  0  0
  5  4  2  0  0  0  0
  5  6  1  0  0  0  0
  6  7  2  0  0  0  0
  7  3  1  0  0  0  0
  8  3  2  0  0  0  0
  9 12  1  0  0  0  0
 10 11  2  0  0  0  0
 10  9  1  0  0  0  0
 12 13  1  0  0  0  0
 14 13  1  0  0  0  0
 15 14  1  0  0  0  0
 15 16  1  1  0  0  0
 17 20  1  0  0  0  0
 17 19  1  0  0  0  0
 18 22  2  0  0  0  0
 18 15  1  0  0  0  0
 19 18  1  0  0  0  0
 21 17  2  0  0  0  0
 23  2  1  0  0  0  0
 24 23  1  0  0  0  0
 25  1  1  0  0  0  0
 27 26  1  6  0  0  0
 27 25  1  0  0  0  0
 28 27  1  0  0  0  0
 28 34  1  0  0  0  0
 29 33  1  0  0  0  0
 30 35  1  1  0  0  0
 30 31  1  0  0  0  0
 30 34  1  0  0  0  0
 31 29  1  0  0  0  0
 32 33  1  0  0  0  0
 34 32  1  0  0  0  0
 35 36  1  0  0  0  0
 36 37  1  0  0  0  0
 38 37  1  6  0  0  0
 38 40  1  0  0  0  0
 38 41  1  0  0  0  0
 40 39  1  0  0  0  0
 41 44  1  0  0  0  0
 42 44  1  0  0  0  0
 42 43  1  0  0  0  0
 43 46  1  6  0  0  0
 44 43  1  0  0  0  0
 45 46  1  0  0  0  0
 47 25  1  0  0  0  0
 47 48  1  0  0  0  0
M  END
>  <MODEL>
4

>  <REMARK>
 VINA RESULT:      -6.5      1.738      2.259
  Name = 
  21 active torsions:
  status: ('A' for Active; 'I' for Inactive)
    1  A    between atoms: C_1  and  C_23
    2  A    between atoms: C_1  and  C_35
    3  A    between atoms: C_2  and  N_22
    4  A    between atoms: C_2  and  C_23
    5  A    between atoms: C_3  and  N_15
    6  A    between atoms: C_5  and  N_15
    7  A    between atoms: C_6  and  C_25
    8  A    between atoms: C_7  and  N_15
    9  A    between atoms: C_7  and  C_36
   10  A    between atoms: C_8  and  C_16
   11  A    between atoms: C_8  and  N_29
   12  A    between atoms: O_12  and  C_16
   13  A    between atoms: C_13  and  C_38
   14  A    between atoms: C_16  and  C_19
   15  A    between atoms: N_18  and  C_32
   16  A    between atoms: C_19  and  O_31
   17  A    between atoms: C_24  and  C_35
   18  A    between atoms: C_26  and  C_32
   19  A    between atoms: C_27  and  O_41
   20  A    between atoms: O_31  and  C_38
   21  A    between atoms: C_36  and  N_48
                            x       y       z     vdW  Elec       q    Type
                         _______ _______ _______ _____ _____    ______ ____

>  <TORSDO>
F 21

$$$$
=
 OpenBabel10232410403D

 48 50  0  0  1  0  0  0  0  0999 V2000
  185.6160  178.4470  142.9800 C   0  0  0  0  0  3  0  0  0  0  0  0
  184.3170  178.4400  142.6390 C   0  0  0  0  0  0  0  0  0  0  0  0
  183.2230  177.9400  138.5110 C   0  0  0  0  0  0  0  0  0  0  0  0
  183.0460  177.2480  140.8310 C   0  0  0  0  0  3  0  0  0  0  0  0
  183.9450  178.2540  141.2180 C   0  0  0  0  0  0  0  0  0  0  0  0
  184.4730  179.1060  140.2360 C   0  0  0  0  0  3  0  0  0  0  0  0
  184.1180  178.9470  138.8940 C   0  0  0  0  0  3  0  0  0  0  0  0
  182.6880  177.0930  139.4900 C   0  0  0  0  0  3  0  0  0  0  0  0
  183.5030  176.8000  136.2860 N   0  0  0  0  0  2  0  0  0  0  0  0
  182.8410  177.7750  137.0980 C   0  0  0  0  0  0  0  0  0  0  0  0
  181.9230  178.4870  136.6060 O   0  0  0  0  0  0  0  0  0  0  0  0
  183.1920  176.6090  134.8770 C   0  0  0  0  0  2  0  0  0  0  0  0
  182.2190  175.4530  134.6980 C   0  0  0  0  0  2  0  0  0  0  0  0
  182.9610  174.1480  134.4410 C   0  0  0  0  0  2  0  0  0  0  0  0
  182.8680  173.2090  135.6370 C   0  0  2  0  0  3  0  0  0  0  0  0
  181.9670  173.7250  136.5670 O   0  0  0  0  0  1  0  0  0  0  0  0
  186.6840  173.6580  136.2680 C   0  0  0  0  0  0  0  0  0  0  0  0
  184.2030  173.0240  136.2800 C   0  0  0  0  0  0  0  0  0  0  0  0
  185.3330  173.7700  135.8040 N   0  0  0  0  0  2  0  0  0  0  0  0
  187.0940  172.6390  137.2760 C   0  0  0  0  0  1  0  0  0  0  0  0
  187.5600  174.4280  135.7950 O   0  0  0  0  0  0  0  0  0  0  0  0
  184.3140  172.2170  137.2390 O   0  0  0  0  0  0  0  0  0  0  0  0
  183.2710  178.6440  143.6000 N   0  0  0  0  0  2  0  0  0  0  0  0
  182.0690  179.1820  143.2820 O   0  0  0  0  0  1  0  0  0  0  0  0
  186.1020  178.4570  144.3290 N   0  0  0  0  0  0  0  0  0  0  0  0
  187.3240  176.4540  143.5750 C   0  0  0  0  0  1  0  0  0  0  0  0
  187.1270  177.4810  144.6860 C   0  0  1  0  0  3  0  0  0  0  0  0
  188.4400  178.1840  145.0680 C   0  0  0  0  0  2  0  0  0  0  0  0
  191.6540  176.0350  146.3510 N   0  0  0  0  0  2  0  0  0  0  0  0
  190.7510  177.4750  144.7340 C   0  0  2  0  0  3  0  0  0  0  0  0
  191.9550  177.1170  145.5020 N   0  0  0  0  0  2  0  0  0  0  0  0
  189.7490  177.4930  146.9390 C   0  0  0  0  0  2  0  0  0  0  0  0
  190.8230  176.5280  147.4510 C   0  0  0  0  0  2  0  0  0  0  0  0
  189.5100  177.2760  145.5130 N   0  0  0  0  0  0  0  0  0  0  0  0
  190.7040  176.6780  143.4380 C   0  0  0  0  0  2  0  0  0  0  0  0
  190.7990  177.5570  142.3580 O   0  0  0  0  0  0  0  0  0  0  0  0
  190.5330  176.7800  141.2320 C   0  0  0  0  0  2  0  0  0  0  0  0
  189.7690  177.5840  140.1750 C   0  0  2  0  0  3  0  0  0  0  0  0
  187.8900  178.5780  139.6260 O   0  0  0  0  0  1  0  0  0  0  0  0
  188.6240  178.2370  140.6670 O   0  0  0  0  0  0  0  0  0  0  0  0
  189.5650  176.8790  138.8280 C   0  0  0  0  0  2  0  0  0  0  0  0
  190.2740  176.5350  136.6230 C   0  0  0  0  0  2  0  0  0  0  0  0
  191.3580  175.9640  137.4130 C   0  0  1  0  0  3  0  0  0  0  0  0
  190.6470  177.1800  137.8910 N   0  0  0  0  0  0  0  0  0  0  0  0
  190.7730  173.8670  137.0260 C   0  0  0  0  0  1  0  0  0  0  0  0
  190.9260  174.7970  138.0560 O   0  0  0  0  0  0  0  0  0  0  0  0
  185.3490  179.1530  145.3750 C   0  0  0  0  0  2  0  0  0  0  0  0
  185.2400  178.2960  146.6250 C   0  0  0  0  0  1  0  0  0  0  0  0
  1 25  1  0  0  0  0
  2  1  2  0  0  0  0
  2 23  1  0  0  0  0
  3  7  2  0  0  0  0
  3  8  1  0  0  0  0
  4  5  1  0  0  0  0
  5  2  1  0  0  0  0
  6  5  2  0  0  0  0
  7  6  1  0  0  0  0
  8  4  2  0  0  0  0
  9 10  1  0  0  0  0
 10  3  1  0  0  0  0
 11 10  2  0  0  0  0
 12  9  1  0  0  0  0
 13 12  1  0  0  0  0
 14 13  1  0  0  0  0
 14 15  1  0  0  0  0
 15 18  1  0  0  0  0
 15 16  1  1  0  0  0
 17 20  1  0  0  0  0
 18 22  2  0  0  0  0
 19 17  1  0  0  0  0
 19 18  1  0  0  0  0
 21 17  2  0  0  0  0
 24 23  1  0  0  0  0
 25 27  1  0  0  0  0
 25 47  1  0  0  0  0
 27 26  1  6  0  0  0
 27 28  1  0  0  0  0
 28 34  1  0  0  0  0
 29 33  1  0  0  0  0
 30 35  1  6  0  0  0
 30 31  1  0  0  0  0
 30 34  1  0  0  0  0
 31 29  1  0  0  0  0
 32 33  1  0  0  0  0
 34 32  1  0  0  0  0
 36 35  1  0  0  0  0
 37 36  1  0  0  0  0
 38 41  1  6  0  0  0
 38 40  1  0  0  0  0
 38 37  1  0  0  0  0
 39 40  1  0  0  0  0
 42 43  1  0  0  0  0
 42 44  1  0  0  0  0
 43 44  1  0  0  0  0
 43 46  1  1  0  0  0
 44 41  1  0  0  0  0
 45 46  1  0  0  0  0
 47 48  1  0  0  0  0
M  END
>  <MODEL>
5

>  <REMARK>
 VINA RESULT:      -6.2      2.387     10.495
  Name = 
  21 active torsions:
  status: ('A' for Active; 'I' for Inactive)
    1  A    between atoms: C_1  and  C_23
    2  A    between atoms: C_1  and  C_35
    3  A    between atoms: C_2  and  N_22
    4  A    between atoms: C_2  and  C_23
    5  A    between atoms: C_3  and  N_15
    6  A    between atoms: C_5  and  N_15
    7  A    between atoms: C_6  and  C_25
    8  A    between atoms: C_7  and  N_15
    9  A    between atoms: C_7  and  C_36
   10  A    between atoms: C_8  and  C_16
   11  A    between atoms: C_8  and  N_29
   12  A    between atoms: O_12  and  C_16
   13  A    between atoms: C_13  and  C_38
   14  A    between atoms: C_16  and  C_19
   15  A    between atoms: N_18  and  C_32
   16  A    between atoms: C_19  and  O_31
   17  A    between atoms: C_24  and  C_35
   18  A    between atoms: C_26  and  C_32
   19  A    between atoms: C_27  and  O_41
   20  A    between atoms: O_31  and  C_38
   21  A    between atoms: C_36  and  N_48
                            x       y       z     vdW  Elec       q    Type
                         _______ _______ _______ _____ _____    ______ ____

>  <TORSDO>
F 21

$$$$
=
 OpenBabel10232410403D

 48 50  0  0  1  0  0  0  0  0999 V2000
  185.2220  178.0360  143.2840 C   0  0  0  0  0  3  0  0  0  0  0  0
  185.3380  178.7220  142.1350 C   0  0  0  0  0  0  0  0  0  0  0  0
  182.2940  178.3570  139.1210 C   0  0  0  0  0  0  0  0  0  0  0  0
  182.9840  178.1900  141.4430 C   0  0  0  0  0  3  0  0  0  0  0  0
  184.2880  178.5820  141.1010 C   0  0  0  0  0  0  0  0  0  0  0  0
  184.5810  178.8680  139.7600 C   0  0  0  0  0  3  0  0  0  0  0  0
  183.5930  178.7530  138.7780 C   0  0  0  0  0  3  0  0  0  0  0  0
  181.9970  178.0800  140.4610 C   0  0  0  0  0  3  0  0  0  0  0  0
  181.5550  177.6500  136.8240 N   0  0  0  0  0  2  0  0  0  0  0  0
  181.2490  178.2420  138.0900 C   0  0  0  0  0  0  0  0  0  0  0  0
  180.0810  178.6580  138.3250 O   0  0  0  0  0  0  0  0  0  0  0  0
  180.5750  177.5330  135.7520 C   0  0  0  0  0  2  0  0  0  0  0  0
  180.6180  176.1410  135.1410 C   0  0  0  0  0  2  0  0  0  0  0  0
  181.1600  175.1240  136.1360 C   0  0  0  0  0  2  0  0  0  0  0  0
  182.1650  174.1850  135.4800 C   0  0  2  0  0  3  0  0  0  0  0  0
  181.8800  172.8700  135.8390 O   0  0  0  0  0  1  0  0  0  0  0  0
  185.6730  173.7630  137.1170 C   0  0  0  0  0  0  0  0  0  0  0  0
  183.5620  174.5260  135.8860 C   0  0  0  0  0  0  0  0  0  0  0  0
  184.3510  173.5650  136.6040 N   0  0  0  0  0  2  0  0  0  0  0  0
  186.3660  175.0800  137.0380 C   0  0  0  0  0  1  0  0  0  0  0  0
  186.2640  172.8000  137.6730 O   0  0  0  0  0  0  0  0  0  0  0  0
  184.0290  175.6540  135.5840 O   0  0  0  0  0  0  0  0  0  0  0  0
  186.4670  179.5630  141.8550 N   0  0  0  0  0  2  0  0  0  0  0  0
  187.6720  179.0790  141.4710 O   0  0  0  0  0  1  0  0  0  0  0  0
  186.0800  178.2030  144.4200 N   0  0  0  0  0  0  0  0  0  0  0  0
  187.2720  176.3070  143.3930 C   0  0  0  0  0  1  0  0  0  0  0  0
  187.1830  177.2600  144.5790 C   0  0  1  0  0  3  0  0  0  0  0  0
  188.5050  178.0040  144.8280 C   0  0  0  0  0  2  0  0  0  0  0  0
  191.5990  176.1640  146.7360 N   0  0  0  0  0  2  0  0  0  0  0  0
  190.8540  177.3440  144.8490 C   0  0  2  0  0  3  0  0  0  0  0  0
  191.9700  177.1350  145.7860 N   0  0  0  0  0  2  0  0  0  0  0  0
  189.6070  177.6150  146.9080 C   0  0  0  0  0  2  0  0  0  0  0  0
  190.6370  176.7670  147.6600 C   0  0  0  0  0  2  0  0  0  0  0  0
  189.5370  177.2030  145.5060 N   0  0  0  0  0  0  0  0  0  0  0  0
  190.9720  176.3820  143.6760 C   0  0  0  0  0  2  0  0  0  0  0  0
  191.6920  176.9990  142.6510 O   0  0  0  0  0  0  0  0  0  0  0  0
  190.7280  177.4450  141.7470 C   0  0  0  0  0  2  0  0  0  0  0  0
  191.0180  176.9310  140.3340 C   0  0  2  0  0  3  0  0  0  0  0  0
  192.6240  176.5640  138.8820 O   0  0  0  0  0  1  0  0  0  0  0  0
  192.1990  177.4450  139.7660 O   0  0  0  0  0  0  0  0  0  0  0  0
  189.8170  176.9080  139.3800 C   0  0  0  0  0  2  0  0  0  0  0  0
  188.2610  178.1890  138.1880 C   0  0  0  0  0  2  0  0  0  0  0  0
  189.3670  178.0520  137.2480 C   0  0  1  0  0  3  0  0  0  0  0  0
  189.6380  178.1930  138.7040 N   0  0  0  0  0  0  0  0  0  0  0  0
  189.9750  176.8250  135.5110 C   0  0  0  0  0  1  0  0  0  0  0  0
  189.4640  176.7260  136.8060 O   0  0  0  0  0  0  0  0  0  0  0  0
  185.6520  179.0350  145.5470 C   0  0  0  0  0  2  0  0  0  0  0  0
  184.1700  178.8470  145.8280 C   0  0  0  0  0  1  0  0  0  0  0  0
  1 25  1  0  0  0  0
  2  1  2  0  0  0  0
  3  8  1  0  0  0  0
  5  4  1  0  0  0  0
  5  2  1  0  0  0  0
  6  5  2  0  0  0  0
  7  3  2  0  0  0  0
  7  6  1  0  0  0  0
  8  4  2  0  0  0  0
  9 10  1  0  0  0  0
 10 11  2  0  0  0  0
 10  3  1  0  0  0  0
 12  9  1  0  0  0  0
 13 12  1  0  0  0  0
 13 14  1  0  0  0  0
 15 16  1  1  0  0  0
 15 18  1  0  0  0  0
 15 14  1  0  0  0  0
 17 21  2  0  0  0  0
 18 19  1  0  0  0  0
 19 17  1  0  0  0  0
 20 17  1  0  0  0  0
 22 18  2  0  0  0  0
 23  2  1  0  0  0  0
 24 23  1  0  0  0  0
 25 27  1  0  0  0  0
 25 47  1  0  0  0  0
 27 26  1  6  0  0  0
 27 28  1  0  0  0  0
 28 34  1  0  0  0  0
 29 33  1  0  0  0  0
 30 35  1  6  0  0  0
 30 34  1  0  0  0  0
 30 31  1  0  0  0  0
 31 29  1  0  0  0  0
 32 33  1  0  0  0  0
 34 32  1  0  0  0  0
 36 35  1  0  0  0  0
 37 36  1  0  0  0  0
 38 41  1  6  0  0  0
 38 37  1  0  0  0  0
 39 40  1  0  0  0  0
 40 38  1  0  0  0  0
 42 44  1  0  0  0  0
 43 46  1  1  0  0  0
 43 42  1  0  0  0  0
 43 44  1  0  0  0  0
 44 41  1  0  0  0  0
 45 46  1  0  0  0  0
 47 48  1  0  0  0  0
M  END
>  <MODEL>
6

>  <REMARK>
 VINA RESULT:      -6.1      2.267     10.553
  Name = 
  21 active torsions:
  status: ('A' for Active; 'I' for Inactive)
    1  A    between atoms: C_1  and  C_23
    2  A    between atoms: C_1  and  C_35
    3  A    between atoms: C_2  and  N_22
    4  A    between atoms: C_2  and  C_23
    5  A    between atoms: C_3  and  N_15
    6  A    between atoms: C_5  and  N_15
    7  A    between atoms: C_6  and  C_25
    8  A    between atoms: C_7  and  N_15
    9  A    between atoms: C_7  and  C_36
   10  A    between atoms: C_8  and  C_16
   11  A    between atoms: C_8  and  N_29
   12  A    between atoms: O_12  and  C_16
   13  A    between atoms: C_13  and  C_38
   14  A    between atoms: C_16  and  C_19
   15  A    between atoms: N_18  and  C_32
   16  A    between atoms: C_19  and  O_31
   17  A    between atoms: C_24  and  C_35
   18  A    between atoms: C_26  and  C_32
   19  A    between atoms: C_27  and  O_41
   20  A    between atoms: O_31  and  C_38
   21  A    between atoms: C_36  and  N_48
                            x       y       z     vdW  Elec       q    Type
                         _______ _______ _______ _____ _____    ______ ____

>  <TORSDO>
F 21

$$$$
=
 OpenBabel10232410403D

 48 50  0  0  1  0  0  0  0  0999 V2000
  190.1000  176.7340  144.1150 C   0  0  0  0  0  3  0  0  0  0  0  0
  190.4430  177.7550  143.3130 C   0  0  0  0  0  0  0  0  0  0  0  0
  190.2100  177.2850  139.0460 C   0  0  0  0  0  0  0  0  0  0  0  0
  189.1290  177.7260  141.1750 C   0  0  0  0  0  3  0  0  0  0  0  0
  190.3530  177.5830  141.8460 C   0  0  0  0  0  0  0  0  0  0  0  0
  191.5060  177.2970  141.1000 C   0  0  0  0  0  3  0  0  0  0  0  0
  191.4340  177.1450  139.7130 C   0  0  0  0  0  3  0  0  0  0  0  0
  189.0590  177.5800  139.7870 C   0  0  0  0  0  3  0  0  0  0  0  0
  189.0600  177.7440  136.8570 N   0  0  0  0  0  2  0  0  0  0  0  0
  190.1330  177.1350  137.5830 C   0  0  0  0  0  0  0  0  0  0  0  0
  191.0160  176.4770  136.9690 O   0  0  0  0  0  0  0  0  0  0  0  0
  188.9110  177.6080  135.4140 C   0  0  0  0  0  2  0  0  0  0  0  0
  187.7120  176.7320  135.0830 C   0  0  0  0  0  2  0  0  0  0  0  0
  186.4390  177.5630  134.9870 C   0  0  0  0  0  2  0  0  0  0  0  0
  185.4080  177.1240  136.0200 C   0  0  2  0  0  3  0  0  0  0  0  0
  185.8380  177.4910  137.2930 O   0  0  0  0  0  1  0  0  0  0  0  0
  185.6370  173.3830  137.0770 C   0  0  0  0  0  0  0  0  0  0  0  0
  185.1900  175.6480  135.9670 C   0  0  0  0  0  0  0  0  0  0  0  0
  185.7050  174.8130  137.0160 N   0  0  0  0  0  2  0  0  0  0  0  0
  185.0800  172.5680  135.9600 C   0  0  0  0  0  1  0  0  0  0  0  0
  186.0800  172.7930  138.0960 O   0  0  0  0  0  0  0  0  0  0  0  0
  184.5480  175.1580  135.0030 O   0  0  0  0  0  0  0  0  0  0  0  0
  190.9310  179.0030  143.8280 N   0  0  0  0  0  2  0  0  0  0  0  0
  192.2260  179.2060  144.1690 O   0  0  0  0  0  1  0  0  0  0  0  0
  189.9900  176.8220  145.5420 N   0  0  0  0  0  0  0  0  0  0  0  0
  188.7150  178.3270  147.0200 C   0  0  0  0  0  1  0  0  0  0  0  0
  188.6720  177.1110  146.1010 C   0  0  1  0  0  3  0  0  0  0  0  0
  187.6270  177.2640  144.9830 C   0  0  0  0  0  2  0  0  0  0  0  0
  184.1520  179.1570  145.9530 N   0  0  0  0  0  2  0  0  0  0  0  0
  185.3810  177.9720  144.3430 C   0  0  2  0  0  3  0  0  0  0  0  0
  184.0490  178.1980  144.9270 N   0  0  0  0  0  2  0  0  0  0  0  0
  185.9860  177.6650  146.6680 C   0  0  0  0  0  2  0  0  0  0  0  0
  184.8000  178.5300  147.1060 C   0  0  0  0  0  2  0  0  0  0  0  0
  186.4590  178.0820  145.3490 N   0  0  0  0  0  0  0  0  0  0  0  0
  185.6190  178.9410  143.1950 C   0  0  0  0  0  2  0  0  0  0  0  0
  185.4550  178.2650  141.9850 O   0  0  0  0  0  0  0  0  0  0  0  0
  184.1000  178.3890  141.6790 C   0  0  0  0  0  2  0  0  0  0  0  0
  183.8990  178.7850  140.2130 C   0  0  2  0  0  3  0  0  0  0  0  0
  184.2540  180.5180  138.9130 O   0  0  0  0  0  1  0  0  0  0  0  0
  184.8700  179.6770  139.7200 O   0  0  0  0  0  0  0  0  0  0  0  0
  182.4600  179.1330  139.8140 C   0  0  0  0  0  2  0  0  0  0  0  0
  180.5120  178.0900  140.5880 C   0  0  0  0  0  2  0  0  0  0  0  0
  180.1680  179.5060  140.6290 C   0  0  1  0  0  3  0  0  0  0  0  0
  181.5500  179.0640  140.9570 N   0  0  0  0  0  0  0  0  0  0  0  0
  179.9920  181.3980  139.4980 C   0  0  0  0  0  1  0  0  0  0  0  0
  180.0580  180.0150  139.3280 O   0  0  0  0  0  0  0  0  0  0  0  0
  191.1920  176.9830  146.3630 C   0  0  0  0  0  2  0  0  0  0  0  0
  192.0130  175.7050  146.3790 C   0  0  0  0  0  1  0  0  0  0  0  0
  1 25  1  0  0  0  0
  2 23  1  0  0  0  0
  2  1  2  0  0  0  0
  3  7  2  0  0  0  0
  3  8  1  0  0  0  0
  4  5  1  0  0  0  0
  5  2  1  0  0  0  0
  6  5  2  0  0  0  0
  7  6  1  0  0  0  0
  8  4  2  0  0  0  0
  9 10  1  0  0  0  0
 10  3  1  0  0  0  0
 11 10  2  0  0  0  0
 12  9  1  0  0  0  0
 13 12  1  0  0  0  0
 14 13  1  0  0  0  0
 14 15  1  0  0  0  0
 15 16  1  1  0  0  0
 17 21  2  0  0  0  0
 18 15  1  0  0  0  0
 18 19  1  0  0  0  0
 19 17  1  0  0  0  0
 20 17  1  0  0  0  0
 22 18  2  0  0  0  0
 23 24  1  0  0  0  0
 25 27  1  0  0  0  0
 25 47  1  0  0  0  0
 27 26  1  6  0  0  0
 28 34  1  0  0  0  0
 28 27  1  0  0  0  0
 29 33  1  0  0  0  0
 30 35  1  6  0  0  0
 30 31  1  0  0  0  0
 30 34  1  0  0  0  0
 31 29  1  0  0  0  0
 32 33  1  0  0  0  0
 34 32  1  0  0  0  0
 36 35  1  0  0  0  0
 37 36  1  0  0  0  0
 38 41  1  1  0  0  0
 38 37  1  0  0  0  0
 39 40  1  0  0  0  0
 40 38  1  0  0  0  0
 41 44  1  0  0  0  0
 42 43  1  0  0  0  0
 42 44  1  0  0  0  0
 43 46  1  6  0  0  0
 43 44  1  0  0  0  0
 46 45  1  0  0  0  0
 47 48  1  0  0  0  0
M  END
>  <MODEL>
7

>  <REMARK>
 VINA RESULT:      -6.1      2.522      8.670
  Name = 
  21 active torsions:
  status: ('A' for Active; 'I' for Inactive)
    1  A    between atoms: C_1  and  C_23
    2  A    between atoms: C_1  and  C_35
    3  A    between atoms: C_2  and  N_22
    4  A    between atoms: C_2  and  C_23
    5  A    between atoms: C_3  and  N_15
    6  A    between atoms: C_5  and  N_15
    7  A    between atoms: C_6  and  C_25
    8  A    between atoms: C_7  and  N_15
    9  A    between atoms: C_7  and  C_36
   10  A    between atoms: C_8  and  C_16
   11  A    between atoms: C_8  and  N_29
   12  A    between atoms: O_12  and  C_16
   13  A    between atoms: C_13  and  C_38
   14  A    between atoms: C_16  and  C_19
   15  A    between atoms: N_18  and  C_32
   16  A    between atoms: C_19  and  O_31
   17  A    between atoms: C_24  and  C_35
   18  A    between atoms: C_26  and  C_32
   19  A    between atoms: C_27  and  O_41
   20  A    between atoms: O_31  and  C_38
   21  A    between atoms: C_36  and  N_48
                            x       y       z     vdW  Elec       q    Type
                         _______ _______ _______ _____ _____    ______ ____

>  <TORSDO>
F 21

$$$$
=
 OpenBabel10232410403D

 48 50  0  0  1  0  0  0  0  0999 V2000
  190.4150  176.6670  144.0830 C   0  0  0  0  0  3  0  0  0  0  0  0
  190.5800  177.7200  143.2660 C   0  0  0  0  0  0  0  0  0  0  0  0
  190.5970  177.0560  139.0180 C   0  0  0  0  0  0  0  0  0  0  0  0
  191.8030  177.3570  141.1040 C   0  0  0  0  0  3  0  0  0  0  0  0
  190.5950  177.5040  141.8020 C   0  0  0  0  0  0  0  0  0  0  0  0
  189.3870  177.4160  141.0930 C   0  0  0  0  0  3  0  0  0  0  0  0
  189.3890  177.1990  139.7130 C   0  0  0  0  0  3  0  0  0  0  0  0
  191.8040  177.1340  139.7250 C   0  0  0  0  0  3  0  0  0  0  0  0
  191.5340  175.8950  136.9940 N   0  0  0  0  0  2  0  0  0  0  0  0
  190.6020  176.8190  137.5650 C   0  0  0  0  0  0  0  0  0  0  0  0
  189.7780  177.4220  136.8240 O   0  0  0  0  0  0  0  0  0  0  0  0
  191.6100  175.6380  135.5620 C   0  0  0  0  0  2  0  0  0  0  0  0
  193.0310  175.2740  135.1610 C   0  0  0  0  0  2  0  0  0  0  0  0
  193.6960  174.4110  136.2260 C   0  0  0  0  0  2  0  0  0  0  0  0
  195.2130  174.5320  136.1730 C   0  0  2  0  0  3  0  0  0  0  0  0
  195.7570  173.3590  135.6560 O   0  0  0  0  0  1  0  0  0  0  0  0
  197.8910  174.9460  138.9700 C   0  0  0  0  0  0  0  0  0  0  0  0
  195.7790  174.7940  137.5310 C   0  0  0  0  0  0  0  0  0  0  0  0
  197.2010  174.7800  137.7250 N   0  0  0  0  0  2  0  0  0  0  0  0
  197.1680  175.0630  140.2680 C   0  0  0  0  0  1  0  0  0  0  0  0
  199.1490  174.9720  138.9730 O   0  0  0  0  0  0  0  0  0  0  0  0
  194.9940  175.0310  138.4850 O   0  0  0  0  0  0  0  0  0  0  0  0
  190.7800  179.0520  143.7640 N   0  0  0  0  0  2  0  0  0  0  0  0
  191.9870  179.5160  144.1700 O   0  0  0  0  0  1  0  0  0  0  0  0
  190.2240  176.7600  145.5000 N   0  0  0  0  0  0  0  0  0  0  0  0
  188.8360  178.3190  146.8110 C   0  0  0  0  0  1  0  0  0  0  0  0
  188.8740  177.0390  145.9830 C   0  0  1  0  0  3  0  0  0  0  0  0
  187.8740  177.0700  144.8160 C   0  0  0  0  0  2  0  0  0  0  0  0
  184.5500  179.3950  145.2040 N   0  0  0  0  0  2  0  0  0  0  0  0
  185.8550  178.0170  143.8240 C   0  0  2  0  0  3  0  0  0  0  0  0
  184.4870  178.4200  144.1900 N   0  0  0  0  0  2  0  0  0  0  0  0
  186.0580  177.7210  146.2190 C   0  0  0  0  0  2  0  0  0  0  0  0
  184.9340  178.7360  146.4540 C   0  0  0  0  0  2  0  0  0  0  0  0
  186.7730  178.0340  144.9830 N   0  0  0  0  0  0  0  0  0  0  0  0
  186.3810  178.9110  142.7110 C   0  0  0  0  0  2  0  0  0  0  0  0
  185.3070  179.3700  141.9470 O   0  0  0  0  0  0  0  0  0  0  0  0
  185.5720  178.9370  140.6490 C   0  0  0  0  0  2  0  0  0  0  0  0
  184.3300  179.0610  139.7610 C   0  0  2  0  0  3  0  0  0  0  0  0
  182.1490  179.2470  139.9290 O   0  0  0  0  0  1  0  0  0  0  0  0
  183.1650  178.5040  140.3220 O   0  0  0  0  0  0  0  0  0  0  0  0
  184.5400  178.7260  138.2790 C   0  0  0  0  0  2  0  0  0  0  0  0
  185.3780  177.2040  136.7090 C   0  0  0  0  0  2  0  0  0  0  0  0
  184.0620  176.6630  137.0260 C   0  0  1  0  0  3  0  0  0  0  0  0
  184.8760  177.3150  138.0870 N   0  0  0  0  0  0  0  0  0  0  0  0
  182.5290  176.7990  135.4380 C   0  0  0  0  0  1  0  0  0  0  0  0
  183.0600  177.5020  136.5200 O   0  0  0  0  0  0  0  0  0  0  0  0
  191.3760  176.9360  146.3870 C   0  0  0  0  0  2  0  0  0  0  0  0
  191.9860  175.5940  146.7570 C   0  0  0  0  0  1  0  0  0  0  0  0
  1 25  1  0  0  0  0
  2 23  1  0  0  0  0
  2  1  2  0  0  0  0
  3  7  2  0  0  0  0
  3  8  1  0  0  0  0
  4  5  1  0  0  0  0
  5  2  1  0  0  0  0
  6  5  2  0  0  0  0
  7  6  1  0  0  0  0
  8  4  2  0  0  0  0
  9 10  1  0  0  0  0
 10  3  1  0  0  0  0
 11 10  2  0  0  0  0
 12  9  1  0  0  0  0
 13 12  1  0  0  0  0
 13 14  1  0  0  0  0
 15 16  1  1  0  0  0
 15 14  1  0  0  0  0
 15 18  1  0  0  0  0
 17 21  2  0  0  0  0
 17 20  1  0  0  0  0
 18 19  1  0  0  0  0
 18 22  2  0  0  0  0
 19 17  1  0  0  0  0
 23 24  1  0  0  0  0
 25 27  1  0  0  0  0
 25 47  1  0  0  0  0
 27 26  1  6  0  0  0
 28 34  1  0  0  0  0
 28 27  1  0  0  0  0
 29 33  1  0  0  0  0
 30 35  1  6  0  0  0
 30 31  1  0  0  0  0
 30 34  1  0  0  0  0
 31 29  1  0  0  0  0
 32 33  1  0  0  0  0
 34 32  1  0  0  0  0
 36 35  1  0  0  0  0
 37 36  1  0  0  0  0
 38 41  1  6  0  0  0
 38 40  1  0  0  0  0
 38 37  1  0  0  0  0
 39 40  1  0  0  0  0
 42 43  1  0  0  0  0
 42 44  1  0  0  0  0
 43 46  1  6  0  0  0
 43 44  1  0  0  0  0
 44 41  1  0  0  0  0
 45 46  1  0  0  0  0
 47 48  1  0  0  0  0
M  END
>  <MODEL>
8

>  <REMARK>
 VINA RESULT:      -6.0      3.779      9.340
  Name = 
  21 active torsions:
  status: ('A' for Active; 'I' for Inactive)
    1  A    between atoms: C_1  and  C_23
    2  A    between atoms: C_1  and  C_35
    3  A    between atoms: C_2  and  N_22
    4  A    between atoms: C_2  and  C_23
    5  A    between atoms: C_3  and  N_15
    6  A    between atoms: C_5  and  N_15
    7  A    between atoms: C_6  and  C_25
    8  A    between atoms: C_7  and  N_15
    9  A    between atoms: C_7  and  C_36
   10  A    between atoms: C_8  and  C_16
   11  A    between atoms: C_8  and  N_29
   12  A    between atoms: O_12  and  C_16
   13  A    between atoms: C_13  and  C_38
   14  A    between atoms: C_16  and  C_19
   15  A    between atoms: N_18  and  C_32
   16  A    between atoms: C_19  and  O_31
   17  A    between atoms: C_24  and  C_35
   18  A    between atoms: C_26  and  C_32
   19  A    between atoms: C_27  and  O_41
   20  A    between atoms: O_31  and  C_38
   21  A    between atoms: C_36  and  N_48
                            x       y       z     vdW  Elec       q    Type
                         _______ _______ _______ _____ _____    ______ ____

>  <TORSDO>
F 21

$$$$
=
 OpenBabel10232410403D

 48 50  0  0  1  0  0  0  0  0999 V2000
  185.7400  177.2430  137.7020 C   0  0  0  0  0  3  0  0  0  0  0  0
  186.4770  178.0240  138.5090 C   0  0  0  0  0  0  0  0  0  0  0  0
  185.0220  178.9250  142.4530 C   0  0  0  0  0  0  0  0  0  0  0  0
  184.5980  178.5310  140.0960 C   0  0  0  0  0  3  0  0  0  0  0  0
  185.9690  178.3460  139.8620 C   0  0  0  0  0  0  0  0  0  0  0  0
  186.8610  178.4460  140.9410 C   0  0  0  0  0  3  0  0  0  0  0  0
  186.3910  178.7370  142.2240 C   0  0  0  0  0  3  0  0  0  0  0  0
  184.1290  178.8160  141.3800 C   0  0  0  0  0  3  0  0  0  0  0  0
  185.3170  178.8920  144.9510 N   0  0  0  0  0  2  0  0  0  0  0  0
  184.5230  179.2230  143.8070 C   0  0  0  0  0  0  0  0  0  0  0  0
  183.4000  179.7780  143.9580 O   0  0  0  0  0  0  0  0  0  0  0  0
  184.8680  179.1340  146.3150 C   0  0  0  0  0  2  0  0  0  0  0  0
  185.9570  178.7560  147.3090 C   0  0  0  0  0  2  0  0  0  0  0  0
  186.9600  177.7980  146.6800 C   0  0  0  0  0  2  0  0  0  0  0  0
  188.0510  177.4070  147.6690 C   0  0  2  0  0  3  0  0  0  0  0  0
  188.3300  178.4840  148.5070 O   0  0  0  0  0  1  0  0  0  0  0  0
  191.6860  176.0980  147.1830 C   0  0  0  0  0  0  0  0  0  0  0  0
  189.2960  176.9870  146.9580 C   0  0  0  0  0  0  0  0  0  0  0  0
  190.4080  176.4780  147.7080 N   0  0  0  0  0  2  0  0  0  0  0  0
  192.0420  176.2880  145.7480 C   0  0  0  0  0  1  0  0  0  0  0  0
  192.5460  175.6070  147.9600 O   0  0  0  0  0  0  0  0  0  0  0  0
  189.3450  177.0800  145.7040 O   0  0  0  0  0  0  0  0  0  0  0  0
  187.7280  178.5910  138.0940 N   0  0  0  0  0  2  0  0  0  0  0  0
  187.8330  179.4960  137.0910 O   0  0  0  0  0  1  0  0  0  0  0  0
  186.1860  176.7290  136.4410 N   0  0  0  0  0  0  0  0  0  0  0  0
  186.1050  174.3280  136.9940 C   0  0  0  0  0  1  0  0  0  0  0  0
  186.9430  175.4800  136.4490 C   0  0  1  0  0  3  0  0  0  0  0  0
  187.5100  175.1770  135.0530 C   0  0  0  0  0  2  0  0  0  0  0  0
  190.9020  172.9630  135.4940 N   0  0  0  0  0  2  0  0  0  0  0  0
  189.6590  174.8380  136.1610 C   0  0  2  0  0  3  0  0  0  0  0  0
  190.5530  173.7560  136.6050 N   0  0  0  0  0  2  0  0  0  0  0  0
  188.4540  172.9890  135.1630 C   0  0  0  0  0  2  0  0  0  0  0  0
  189.7400  172.1560  135.1200 C   0  0  0  0  0  2  0  0  0  0  0  0
  188.7690  174.4130  135.0590 N   0  0  0  0  0  0  0  0  0  0  0  0
  190.4750  176.0550  135.7510 C   0  0  0  0  0  2  0  0  0  0  0  0
  190.4020  177.0160  136.7610 O   0  0  0  0  0  0  0  0  0  0  0  0
  190.7500  176.3410  137.9300 C   0  0  0  0  0  2  0  0  0  0  0  0
  191.9500  177.0030  138.6130 C   0  0  2  0  0  3  0  0  0  0  0  0
  193.9820  176.1730  138.6770 O   0  0  0  0  0  1  0  0  0  0  0  0
  193.1610  176.8630  137.9090 O   0  0  0  0  0  0  0  0  0  0  0  0
  192.0660  176.7640  140.1240 C   0  0  0  0  0  2  0  0  0  0  0  0
  191.7340  177.5450  142.3060 C   0  0  0  0  0  2  0  0  0  0  0  0
  190.3830  177.5080  141.7580 C   0  0  1  0  0  3  0  0  0  0  0  0
  191.5300  177.8890  140.8910 N   0  0  0  0  0  0  0  0  0  0  0  0
  189.4790  175.7830  142.8060 C   0  0  0  0  0  1  0  0  0  0  0  0
  189.9770  176.1810  141.5650 O   0  0  0  0  0  0  0  0  0  0  0  0
  186.2050  177.5950  135.2590 C   0  0  0  0  0  2  0  0  0  0  0  0
  184.8210  177.6950  134.6390 C   0  0  0  0  0  1  0  0  0  0  0  0
  1  2  2  0  0  0  0
  2  5  1  0  0  0  0
  3 10  1  0  0  0  0
  4  8  1  0  0  0  0
  5  4  2  0  0  0  0
  5  6  1  0  0  0  0
  6  7  2  0  0  0  0
  7  3  1  0  0  0  0
  8  3  2  0  0  0  0
  9 12  1  0  0  0  0
 10 11  2  0  0  0  0
 10  9  1  0  0  0  0
 12 13  1  0  0  0  0
 14 13  1  0  0  0  0
 14 15  1  0  0  0  0
 15 16  1  1  0  0  0
 17 19  1  0  0  0  0
 17 21  2  0  0  0  0
 18 15  1  0  0  0  0
 18 19  1  0  0  0  0
 20 17  1  0  0  0  0
 22 18  2  0  0  0  0
 23  2  1  0  0  0  0
 24 23  1  0  0  0  0
 25 27  1  0  0  0  0
 25  1  1  0  0  0  0
 27 26  1  6  0  0  0
 28 34  1  0  0  0  0
 28 27  1  0  0  0  0
 29 31  1  0  0  0  0
 30 35  1  6  0  0  0
 30 31  1  0  0  0  0
 33 32  1  0  0  0  0
 33 29  1  0  0  0  0
 34 32  1  0  0  0  0
 34 30  1  0  0  0  0
 35 36  1  0  0  0  0
 36 37  1  0  0  0  0
 38 37  1  6  0  0  0
 38 41  1  0  0  0  0
 40 38  1  0  0  0  0
 40 39  1  0  0  0  0
 41 44  1  0  0  0  0
 43 46  1  6  0  0  0
 43 42  1  0  0  0  0
 44 43  1  0  0  0  0
 44 42  1  0  0  0  0
 46 45  1  0  0  0  0
 47 25  1  0  0  0  0
 48 47  1  0  0  0  0
M  END
>  <MODEL>
9

>  <REMARK>
 VINA RESULT:      -5.9      3.386      6.599
  Name = 
  21 active torsions:
  status: ('A' for Active; 'I' for Inactive)
    1  A    between atoms: C_1  and  C_23
    2  A    between atoms: C_1  and  C_35
    3  A    between atoms: C_2  and  N_22
    4  A    between atoms: C_2  and  C_23
    5  A    between atoms: C_3  and  N_15
    6  A    between atoms: C_5  and  N_15
    7  A    between atoms: C_6  and  C_25
    8  A    between atoms: C_7  and  N_15
    9  A    between atoms: C_7  and  C_36
   10  A    between atoms: C_8  and  C_16
   11  A    between atoms: C_8  and  N_29
   12  A    between atoms: O_12  and  C_16
   13  A    between atoms: C_13  and  C_38
   14  A    between atoms: C_16  and  C_19
   15  A    between atoms: N_18  and  C_32
   16  A    between atoms: C_19  and  O_31
   17  A    between atoms: C_24  and  C_35
   18  A    between atoms: C_26  and  C_32
   19  A    between atoms: C_27  and  O_41
   20  A    between atoms: O_31  and  C_38
   21  A    between atoms: C_36  and  N_48
                            x       y       z     vdW  Elec       q    Type
                         _______ _______ _______ _____ _____    ______ ____

>  <TORSDO>
F 21

$$$$
