=
 OpenBabel10232412303D

 29 32  0  0  1  0  0  0  0  0999 V2000
  189.7530  177.9400  138.3140 C   0  0  2  0  0  3  0  0  0  0  0  0
  189.4150  177.1130  139.5430 C   0  0  2  0  0  3  0  0  0  0  0  0
  188.5390  178.7500  138.4350 N   0  0  2  0  0  0  0  0  0  0  0  0
  189.6640  177.1780  136.9980 C   0  0  2  0  0  3  0  0  0  0  0  0
  188.2160  177.1780  136.5970 C   0  0  0  0  0  2  0  0  0  0  0  0
  188.1840  177.9920  139.6310 C   0  0  0  0  0  2  0  0  0  0  0  0
  187.6240  178.3510  137.3600 C   0  0  0  0  0  2  0  0  0  0  0  0
  189.5850  174.7820  136.9890 C   0  0  0  0  0  0  0  0  0  0  0  0
  188.8140  173.7330  137.0220 C   0  0  0  0  0  3  0  0  0  0  0  0
  190.3580  175.8380  136.9530 C   0  0  0  0  0  0  0  0  0  0  0  0
  192.5350  176.0460  135.7090 C   0  0  0  0  0  3  0  0  0  0  0  0
  193.9210  175.8950  135.6270 C   0  0  0  0  0  3  0  0  0  0  0  0
  193.9520  174.9850  137.8670 C   0  0  0  0  0  3  0  0  0  0  0  0
  191.8370  175.6740  136.8730 C   0  0  0  0  0  0  0  0  0  0  0  0
  196.0080  175.2170  136.6280 O   0  0  0  0  0  1  0  0  0  0  0  0
  194.6300  175.3650  136.7070 C   0  0  0  0  0  0  0  0  0  0  0  0
  192.5660  175.1390  137.9480 C   0  0  0  0  0  3  0  0  0  0  0  0
  187.3440  173.8860  136.8440 C   0  0  0  0  0  2  0  0  0  0  0  0
  185.6300  173.0420  138.0490 O   0  0  0  0  0  1  0  0  0  0  0  0
  186.6680  172.6690  137.2600 N   0  0  0  0  0  2  0  0  0  0  0  0
  191.6150  177.5060  140.4250 O   0  0  0  0  0  0  0  0  0  0  0  0
  190.3800  177.3920  140.6590 C   0  0  0  0  0  0  0  0  0  0  0  0
  189.7210  177.9690  144.6710 S   0  0  0  0  0  0  0  0  0  0  0  0
  188.3270  177.6230  143.6560 N   0  0  0  0  0  0  0  0  0  0  0  0
  190.7960  177.6680  143.2240 C   0  0  1  0  0  3  0  0  0  0  0  0
  191.7110  176.1630  143.4970 Cl  0  0  0  0  0  0  0  0  0  0  0  0
  188.6270  177.4480  142.3090 N   0  0  0  0  0  0  0  0  0  0  0  0
  189.8870  177.5010  142.0420 C   0  0  0  0  0  0  0  0  0  0  0  0
  187.0670  177.1690  144.2110 C   0  0  0  0  0  1  0  0  0  0  0  0
  1  3  1  0  0  0  0
  1  2  1  0  0  0  0
  2  6  1  0  0  0  0
  2 22  1  0  0  0  0
  3  6  1  0  0  0  0
  4  1  1  0  0  0  0
  5  4  1  0  0  0  0
  5  7  1  0  0  0  0
  7  3  1  0  0  0  0
  8  9  2  0  0  0  0
 10  8  2  0  0  0  0
 10  4  1  0  0  0  0
 11 14  1  0  0  0  0
 12 11  2  0  0  0  0
 12 16  1  0  0  0  0
 13 17  1  0  0  0  0
 14 10  1  0  0  0  0
 14 17  2  0  0  0  0
 15 16  1  0  0  0  0
 16 13  2  0  0  0  0
 18  9  1  0  0  0  0
 18 20  1  0  0  0  0
 20 19  1  0  0  0  0
 21 22  2  0  0  0  0
 22 28  1  0  0  0  0
 24 29  1  0  0  0  0
 24 23  1  0  0  0  0
 25 26  1  0  0  0  0
 25 23  1  0  0  0  0
 27 24  1  0  0  0  0
 28 27  2  0  0  0  0
 28 25  1  0  0  0  0
M  END
>  <MODEL>
1

>  <REMARK>
 VINA RESULT:      -6.6      0.000      0.000
  Name = 
  6 active torsions:
  status: ('A' for Active; 'I' for Inactive)
    1  A    between atoms: C_3  and  C_19
    2  A    between atoms: C_3  and  N_24
    3  A    between atoms: C_6  and  C_9
    4  A    between atoms: C_6  and  C_26
    5  A    between atoms: C_16  and  C_21
    6  A    between atoms: C_17  and  C_21
                            x       y       z     vdW  Elec       q    Type
                         _______ _______ _______ _____ _____    ______ ____

>  <TORSDO>
F 6

$$$$
=
 OpenBabel10232412303D

 29 32  0  0  1  0  0  0  0  0999 V2000
  181.7550  178.1260  139.2640 C   0  0  2  0  0  3  0  0  0  0  0  0
  182.5680  177.1320  138.4530 C   0  0  2  0  0  3  0  0  0  0  0  0
  181.0820  178.6560  138.0750 N   0  0  2  0  0  0  0  0  0  0  0  0
  182.5700  179.2610  139.8710 C   0  0  2  0  0  3  0  0  0  0  0  0
  182.7480  180.2910  138.7900 C   0  0  0  0  0  2  0  0  0  0  0  0
  181.8320  177.7050  137.2600 C   0  0  0  0  0  2  0  0  0  0  0  0
  181.6220  179.9950  137.8140 C   0  0  0  0  0  2  0  0  0  0  0  0
  184.8570  178.5440  139.8720 C   0  0  0  0  0  0  0  0  0  0  0  0
  185.8850  178.2300  139.1350 C   0  0  0  0  0  3  0  0  0  0  0  0
  183.8240  178.8620  140.6100 C   0  0  0  0  0  0  0  0  0  0  0  0
  182.7780  178.9150  142.8980 C   0  0  0  0  0  3  0  0  0  0  0  0
  182.8700  178.8730  144.2910 C   0  0  0  0  0  3  0  0  0  0  0  0
  185.2720  178.6450  144.1230 C   0  0  0  0  0  3  0  0  0  0  0  0
  183.9300  178.8170  142.0960 C   0  0  0  0  0  0  0  0  0  0  0  0
  184.2110  178.6930  146.2880 O   0  0  0  0  0  1  0  0  0  0  0  0
  184.1180  178.7370  144.9040 C   0  0  0  0  0  0  0  0  0  0  0  0
  185.1770  178.6840  142.7290 C   0  0  0  0  0  3  0  0  0  0  0  0
  185.8670  178.5170  137.6750 C   0  0  0  0  0  2  0  0  0  0  0  0
  188.0230  178.7660  138.3000 O   0  0  0  0  0  1  0  0  0  0  0  0
  187.2050  178.8570  137.2230 N   0  0  0  0  0  2  0  0  0  0  0  0
  181.5300  175.4500  139.8190 O   0  0  0  0  0  0  0  0  0  0  0  0
  182.1420  175.7230  138.7490 C   0  0  0  0  0  0  0  0  0  0  0  0
  182.3490  172.8790  135.7940 S   0  0  0  0  0  0  0  0  0  0  0  0
  183.8200  173.2310  136.6930 N   0  0  0  0  0  0  0  0  0  0  0  0
  181.4390  173.9790  136.9340 C   0  0  1  0  0  3  0  0  0  0  0  0
  180.3580  172.9840  137.9430 Cl  0  0  0  0  0  0  0  0  0  0  0  0
  183.6730  174.2100  137.6720 N   0  0  0  0  0  0  0  0  0  0  0  0
  182.4670  174.6460  137.7990 C   0  0  0  0  0  0  0  0  0  0  0  0
  184.9520  172.3260  136.6980 C   0  0  0  0  0  1  0  0  0  0  0  0
  1  4  1  0  0  0  0
  2 22  1  0  0  0  0
  2  1  1  0  0  0  0
  3  1  1  0  0  0  0
  4 10  1  0  0  0  0
  5  4  1  0  0  0  0
  6  3  1  0  0  0  0
  6  2  1  0  0  0  0
  7  3  1  0  0  0  0
  7  5  1  0  0  0  0
  8 10  2  0  0  0  0
  9  8  2  0  0  0  0
 10 14  1  0  0  0  0
 11 12  1  0  0  0  0
 12 16  2  0  0  0  0
 13 16  1  0  0  0  0
 14 17  1  0  0  0  0
 14 11  2  0  0  0  0
 16 15  1  0  0  0  0
 17 13  2  0  0  0  0
 18  9  1  0  0  0  0
 20 18  1  0  0  0  0
 20 19  1  0  0  0  0
 22 21  2  0  0  0  0
 23 24  1  0  0  0  0
 23 25  1  0  0  0  0
 24 29  1  0  0  0  0
 24 27  1  0  0  0  0
 25 28  1  0  0  0  0
 25 26  1  0  0  0  0
 27 28  2  0  0  0  0
 28 22  1  0  0  0  0
M  END
>  <MODEL>
2

>  <REMARK>
 VINA RESULT:      -6.6      6.333      9.611
  Name = 
  6 active torsions:
  status: ('A' for Active; 'I' for Inactive)
    1  A    between atoms: C_3  and  C_19
    2  A    between atoms: C_3  and  N_24
    3  A    between atoms: C_6  and  C_9
    4  A    between atoms: C_6  and  C_26
    5  A    between atoms: C_16  and  C_21
    6  A    between atoms: C_17  and  C_21
                            x       y       z     vdW  Elec       q    Type
                         _______ _______ _______ _____ _____    ______ ____

>  <TORSDO>
F 6

$$$$
=
 OpenBabel10232412303D

 29 32  0  0  1  0  0  0  0  0999 V2000
  189.9800  177.8460  138.2190 C   0  0  2  0  0  3  0  0  0  0  0  0
  189.3400  177.2590  139.4660 C   0  0  2  0  0  3  0  0  0  0  0  0
  189.0820  179.0040  138.2150 N   0  0  2  0  0  0  0  0  0  0  0  0
  189.7140  177.0580  136.9420 C   0  0  2  0  0  3  0  0  0  0  0  0
  188.3610  177.4840  136.4460 C   0  0  0  0  0  2  0  0  0  0  0  0
  188.4490  178.4840  139.4230 C   0  0  0  0  0  2  0  0  0  0  0  0
  188.1380  178.8360  137.1040 C   0  0  0  0  0  2  0  0  0  0  0  0
  191.1700  175.1850  137.2870 C   0  0  0  0  0  0  0  0  0  0  0  0
  192.3860  174.8060  137.5580 C   0  0  0  0  0  3  0  0  0  0  0  0
  189.9480  175.5690  137.0160 C   0  0  0  0  0  0  0  0  0  0  0  0
  187.5700  174.7820  137.2630 C   0  0  0  0  0  3  0  0  0  0  0  0
  186.5650  173.8330  137.0640 C   0  0  0  0  0  3  0  0  0  0  0  0
  188.1500  172.3900  135.9470 C   0  0  0  0  0  3  0  0  0  0  0  0
  188.8800  174.5520  136.8010 C   0  0  0  0  0  0  0  0  0  0  0  0
  185.8560  171.6940  136.2050 O   0  0  0  0  0  1  0  0  0  0  0  0
  186.8540  172.6370  136.4050 C   0  0  0  0  0  0  0  0  0  0  0  0
  189.1540  173.3420  136.1430 C   0  0  0  0  0  3  0  0  0  0  0  0
  193.3890  175.8030  138.0230 C   0  0  0  0  0  2  0  0  0  0  0  0
  195.0490  175.9400  136.4970 O   0  0  0  0  0  1  0  0  0  0  0  0
  193.9030  176.5500  136.8880 N   0  0  0  0  0  2  0  0  0  0  0  0
  191.5350  177.1990  140.4390 O   0  0  0  0  0  0  0  0  0  0  0  0
  190.2910  177.3000  140.6260 C   0  0  0  0  0  0  0  0  0  0  0  0
  189.5340  177.9540  144.6090 S   0  0  0  0  0  0  0  0  0  0  0  0
  188.1720  177.5350  143.5770 N   0  0  0  0  0  0  0  0  0  0  0  0
  190.6470  177.6550  143.1910 C   0  0  1  0  0  3  0  0  0  0  0  0
  191.6070  176.1900  143.5190 Cl  0  0  0  0  0  0  0  0  0  0  0  0
  188.5050  177.3360  142.2400 N   0  0  0  0  0  0  0  0  0  0  0  0
  189.7670  177.4270  141.9970 C   0  0  0  0  0  0  0  0  0  0  0  0
  186.9180  177.0510  144.1190 C   0  0  0  0  0  1  0  0  0  0  0  0
  1  2  1  0  0  0  0
  2 22  1  0  0  0  0
  3  1  1  0  0  0  0
  3  6  1  0  0  0  0
  4 10  1  0  0  0  0
  4  1  1  0  0  0  0
  5  4  1  0  0  0  0
  5  7  1  0  0  0  0
  6  2  1  0  0  0  0
  7  3  1  0  0  0  0
  8  9  2  0  0  0  0
  9 18  1  0  0  0  0
 10  8  2  0  0  0  0
 12 11  1  0  0  0  0
 13 17  2  0  0  0  0
 13 16  1  0  0  0  0
 14 10  1  0  0  0  0
 14 11  2  0  0  0  0
 15 16  1  0  0  0  0
 16 12  2  0  0  0  0
 17 14  1  0  0  0  0
 19 20  1  0  0  0  0
 20 18  1  0  0  0  0
 21 22  2  0  0  0  0
 22 28  1  0  0  0  0
 24 29  1  0  0  0  0
 24 23  1  0  0  0  0
 25 26  1  0  0  0  0
 25 23  1  0  0  0  0
 27 24  1  0  0  0  0
 28 27  2  0  0  0  0
 28 25  1  0  0  0  0
M  END
>  <MODEL>
3

>  <REMARK>
 VINA RESULT:      -6.5      1.601      4.444
  Name = 
  6 active torsions:
  status: ('A' for Active; 'I' for Inactive)
    1  A    between atoms: C_3  and  C_19
    2  A    between atoms: C_3  and  N_24
    3  A    between atoms: C_6  and  C_9
    4  A    between atoms: C_6  and  C_26
    5  A    between atoms: C_16  and  C_21
    6  A    between atoms: C_17  and  C_21
                            x       y       z     vdW  Elec       q    Type
                         _______ _______ _______ _____ _____    ______ ____

>  <TORSDO>
F 6

$$$$
=
 OpenBabel10232412303D

 29 32  0  0  1  0  0  0  0  0999 V2000
  186.8310  178.4840  144.5440 C   0  0  2  0  0  3  0  0  0  0  0  0
  186.7580  176.9730  144.3960 C   0  0  2  0  0  3  0  0  0  0  0  0
  186.7860  178.4160  146.0070 N   0  0  2  0  0  0  0  0  0  0  0  0
  185.5810  179.2230  144.0830 C   0  0  2  0  0  3  0  0  0  0  0  0
  184.5990  179.1610  145.2200 C   0  0  0  0  0  2  0  0  0  0  0  0
  186.7310  176.9590  145.9110 C   0  0  0  0  0  2  0  0  0  0  0  0
  185.4650  178.8880  146.4380 C   0  0  0  0  0  2  0  0  0  0  0  0
  183.7500  178.6380  142.6520 C   0  0  0  0  0  0  0  0  0  0  0  0
  182.4650  178.4390  142.5790 C   0  0  0  0  0  3  0  0  0  0  0  0
  185.0410  178.8410  142.7270 C   0  0  0  0  0  0  0  0  0  0  0  0
  187.2930  178.6920  141.6130 C   0  0  0  0  0  3  0  0  0  0  0  0
  188.0930  178.5520  140.4770 C   0  0  0  0  0  3  0  0  0  0  0  0
  186.1100  178.4140  139.1000 C   0  0  0  0  0  3  0  0  0  0  0  0
  185.8890  178.6910  141.5110 C   0  0  0  0  0  0  0  0  0  0  0  0
  188.2950  178.2690  138.0900 O   0  0  0  0  0  1  0  0  0  0  0  0
  187.5010  178.4110  139.2200 C   0  0  0  0  0  0  0  0  0  0  0  0
  185.3110  178.5520  140.2380 C   0  0  0  0  0  3  0  0  0  0  0  0
  181.5870  178.8330  143.7150 C   0  0  0  0  0  2  0  0  0  0  0  0
  180.3540  180.4120  142.6710 O   0  0  0  0  0  1  0  0  0  0  0  0
  180.2650  179.1760  143.2200 N   0  0  0  0  0  2  0  0  0  0  0  0
  188.0400  175.5270  142.9690 O   0  0  0  0  0  0  0  0  0  0  0  0
  188.0470  176.4250  143.8560 C   0  0  0  0  0  0  0  0  0  0  0  0
  191.5650  178.3300  144.7830 S   0  0  0  0  0  0  0  0  0  0  0  0
  190.9590  177.1350  145.9220 N   0  0  0  0  0  0  0  0  0  0  0  0
  190.2220  177.8570  143.6370 C   0  0  1  0  0  3  0  0  0  0  0  0
  190.9370  177.0210  142.2350 Cl  0  0  0  0  0  0  0  0  0  0  0  0
  189.7600  176.5380  145.5440 N   0  0  0  0  0  0  0  0  0  0  0  0
  189.3300  176.9130  144.3890 C   0  0  0  0  0  0  0  0  0  0  0  0
  191.8080  176.5410  146.9360 C   0  0  0  0  0  1  0  0  0  0  0  0
  1  3  1  0  0  0  0
  2  1  1  0  0  0  0
  2  6  1  0  0  0  0
  3  7  1  0  0  0  0
  4  1  1  0  0  0  0
  4  5  1  0  0  0  0
  5  7  1  0  0  0  0
  6  3  1  0  0  0  0
  8 10  2  0  0  0  0
  9  8  2  0  0  0  0
  9 18  1  0  0  0  0
 10  4  1  0  0  0  0
 12 11  2  0  0  0  0
 13 16  2  0  0  0  0
 13 17  1  0  0  0  0
 14 11  1  0  0  0  0
 14 10  1  0  0  0  0
 15 16  1  0  0  0  0
 16 12  1  0  0  0  0
 17 14  2  0  0  0  0
 19 20  1  0  0  0  0
 20 18  1  0  0  0  0
 21 22  2  0  0  0  0
 22 28  1  0  0  0  0
 22  2  1  0  0  0  0
 23 24  1  0  0  0  0
 24 29  1  0  0  0  0
 25 28  1  0  0  0  0
 25 23  1  0  0  0  0
 26 25  1  0  0  0  0
 27 24  1  0  0  0  0
 28 27  2  0  0  0  0
M  END
>  <MODEL>
4

>  <REMARK>
 VINA RESULT:      -6.5      5.032      7.411
  Name = 
  6 active torsions:
  status: ('A' for Active; 'I' for Inactive)
    1  A    between atoms: C_3  and  C_19
    2  A    between atoms: C_3  and  N_24
    3  A    between atoms: C_6  and  C_9
    4  A    between atoms: C_6  and  C_26
    5  A    between atoms: C_16  and  C_21
    6  A    between atoms: C_17  and  C_21
                            x       y       z     vdW  Elec       q    Type
                         _______ _______ _______ _____ _____    ______ ____

>  <TORSDO>
F 6

$$$$
=
 OpenBabel10232412303D

 29 32  0  0  1  0  0  0  0  0999 V2000
  188.1950  177.5570  136.5800 C   0  0  2  0  0  3  0  0  0  0  0  0
  187.9450  177.2200  138.0410 C   0  0  2  0  0  3  0  0  0  0  0  0
  186.8240  178.0310  136.3790 N   0  0  2  0  0  0  0  0  0  0  0  0
  188.3950  176.3440  135.6790 C   0  0  2  0  0  3  0  0  0  0  0  0
  187.0240  175.8390  135.3270 C   0  0  0  0  0  2  0  0  0  0  0  0
  186.5450  177.7380  137.7830 C   0  0  0  0  0  2  0  0  0  0  0  0
  186.1190  177.0360  135.5630 C   0  0  0  0  0  2  0  0  0  0  0  0
  188.8620  174.1630  136.5550 C   0  0  0  0  0  0  0  0  0  0  0  0
  188.3520  173.0280  136.9400 C   0  0  0  0  0  3  0  0  0  0  0  0
  189.3730  175.3040  136.1660 C   0  0  0  0  0  0  0  0  0  0  0  0
  191.4700  175.9030  137.4220 C   0  0  0  0  0  3  0  0  0  0  0  0
  192.8520  176.1020  137.4790 C   0  0  0  0  0  3  0  0  0  0  0  0
  193.0280  175.5420  135.1330 C   0  0  0  0  0  3  0  0  0  0  0  0
  190.8470  175.5150  136.2210 C   0  0  0  0  0  0  0  0  0  0  0  0
  195.0040  176.1160  136.3910 O   0  0  0  0  0  1  0  0  0  0  0  0
  193.6310  175.9210  136.3350 C   0  0  0  0  0  0  0  0  0  0  0  0
  191.6460  175.3400  135.0780 C   0  0  0  0  0  3  0  0  0  0  0  0
  186.9250  172.7200  136.6510 C   0  0  0  0  0  2  0  0  0  0  0  0
  184.9080  172.5170  137.6460 O   0  0  0  0  0  1  0  0  0  0  0  0
  186.0900  173.1710  137.7510 N   0  0  0  0  0  2  0  0  0  0  0  0
  189.0760  179.2800  138.5410 O   0  0  0  0  0  0  0  0  0  0  0  0
  188.7220  178.1360  138.9420 C   0  0  0  0  0  0  0  0  0  0  0  0
  189.0340  176.6530  142.7580 S   0  0  0  0  0  0  0  0  0  0  0  0
  190.5230  177.0690  141.9190 N   0  0  0  0  0  0  0  0  0  0  0  0
  188.0970  177.3610  141.3580 C   0  0  1  0  0  3  0  0  0  0  0  0
  187.2960  178.8550  141.9050 Cl  0  0  0  0  0  0  0  0  0  0  0  0
  190.3380  177.5570  140.6290 N   0  0  0  0  0  0  0  0  0  0  0  0
  189.1010  177.6860  140.2910 C   0  0  0  0  0  0  0  0  0  0  0  0
  191.7730  177.2670  142.6260 C   0  0  0  0  0  1  0  0  0  0  0  0
  1  2  1  0  0  0  0
  2 22  1  0  0  0  0
  3  1  1  0  0  0  0
  3  6  1  0  0  0  0
  4 10  1  0  0  0  0
  4  1  1  0  0  0  0
  5  7  1  0  0  0  0
  5  4  1  0  0  0  0
  6  2  1  0  0  0  0
  7  3  1  0  0  0  0
  8  9  2  0  0  0  0
 10 14  1  0  0  0  0
 10  8  2  0  0  0  0
 11 12  1  0  0  0  0
 13 16  1  0  0  0  0
 14 11  2  0  0  0  0
 16 15  1  0  0  0  0
 16 12  2  0  0  0  0
 17 13  2  0  0  0  0
 17 14  1  0  0  0  0
 18  9  1  0  0  0  0
 18 20  1  0  0  0  0
 19 20  1  0  0  0  0
 21 22  2  0  0  0  0
 22 28  1  0  0  0  0
 24 29  1  0  0  0  0
 24 23  1  0  0  0  0
 25 26  1  0  0  0  0
 25 23  1  0  0  0  0
 27 24  1  0  0  0  0
 28 27  2  0  0  0  0
 28 25  1  0  0  0  0
M  END
>  <MODEL>
5

>  <REMARK>
 VINA RESULT:      -6.5      1.916      2.532
  Name = 
  6 active torsions:
  status: ('A' for Active; 'I' for Inactive)
    1  A    between atoms: C_3  and  C_19
    2  A    between atoms: C_3  and  N_24
    3  A    between atoms: C_6  and  C_9
    4  A    between atoms: C_6  and  C_26
    5  A    between atoms: C_16  and  C_21
    6  A    between atoms: C_17  and  C_21
                            x       y       z     vdW  Elec       q    Type
                         _______ _______ _______ _____ _____    ______ ____

>  <TORSDO>
F 6

$$$$
=
 OpenBabel10232412303D

 29 32  0  0  1  0  0  0  0  0999 V2000
  186.2070  177.6070  143.0500 C   0  0  2  0  0  3  0  0  0  0  0  0
  186.7090  178.9710  142.6050 C   0  0  2  0  0  3  0  0  0  0  0  0
  184.8570  178.1090  143.3140 N   0  0  2  0  0  0  0  0  0  0  0  0
  186.7820  177.1260  144.3760 C   0  0  2  0  0  3  0  0  0  0  0  0
  185.9690  177.7770  145.4600 C   0  0  0  0  0  2  0  0  0  0  0  0
  185.2920  179.4330  142.8780 C   0  0  0  0  0  2  0  0  0  0  0  0
  184.6700  178.1530  144.7680 C   0  0  0  0  0  2  0  0  0  0  0  0
  188.7360  177.2920  145.7560 C   0  0  0  0  0  0  0  0  0  0  0  0
  189.1860  177.3560  146.9760 C   0  0  0  0  0  3  0  0  0  0  0  0
  188.2810  177.2250  144.5300 C   0  0  0  0  0  0  0  0  0  0  0  0
  190.2450  178.2210  143.3130 C   0  0  0  0  0  3  0  0  0  0  0  0
  191.1380  178.2480  142.2400 C   0  0  0  0  0  3  0  0  0  0  0  0
  190.0250  176.3350  141.2670 C   0  0  0  0  0  3  0  0  0  0  0  0
  189.2310  177.2480  143.3820 C   0  0  0  0  0  0  0  0  0  0  0  0
  191.9180  177.3280  140.1520 O   0  0  0  0  0  1  0  0  0  0  0  0
  191.0290  177.3040  141.2170 C   0  0  0  0  0  0  0  0  0  0  0  0
  189.1330  176.3080  142.3430 C   0  0  0  0  0  3  0  0  0  0  0  0
  188.2750  177.0770  148.1200 C   0  0  0  0  0  2  0  0  0  0  0  0
  187.2570  179.0850  148.3040 O   0  0  0  0  0  1  0  0  0  0  0  0
  188.1340  178.2680  148.9390 N   0  0  0  0  0  2  0  0  0  0  0  0
  188.2090  179.1380  140.7360 O   0  0  0  0  0  0  0  0  0  0  0  0
  187.0230  178.9730  141.1370 C   0  0  0  0  0  0  0  0  0  0  0  0
  184.3250  177.8360  138.2580 S   0  0  0  0  0  0  0  0  0  0  0  0
  183.9400  179.2560  139.2230 N   0  0  0  0  0  0  0  0  0  0  0  0
  185.9630  177.7830  139.0660 C   0  0  1  0  0  3  0  0  0  0  0  0
  187.2060  178.2120  137.8630 Cl  0  0  0  0  0  0  0  0  0  0  0  0
  184.8970  179.5740  140.1820 N   0  0  0  0  0  0  0  0  0  0  0  0
  185.9370  178.8140  140.1560 C   0  0  0  0  0  0  0  0  0  0  0  0
  182.9450  180.2230  138.8040 C   0  0  0  0  0  1  0  0  0  0  0  0
  1  3  1  0  0  0  0
  1  4  1  0  0  0  0
  2  6  1  0  0  0  0
  2  1  1  0  0  0  0
  3  7  1  0  0  0  0
  4 10  1  0  0  0  0
  4  5  1  0  0  0  0
  6  3  1  0  0  0  0
  7  5  1  0  0  0  0
  8  9  2  0  0  0  0
  9 18  1  0  0  0  0
 10  8  2  0  0  0  0
 11 14  1  0  0  0  0
 12 11  2  0  0  0  0
 13 17  1  0  0  0  0
 14 10  1  0  0  0  0
 15 16  1  0  0  0  0
 16 13  2  0  0  0  0
 16 12  1  0  0  0  0
 17 14  2  0  0  0  0
 18 20  1  0  0  0  0
 19 20  1  0  0  0  0
 21 22  2  0  0  0  0
 22  2  1  0  0  0  0
 23 25  1  0  0  0  0
 23 24  1  0  0  0  0
 24 27  1  0  0  0  0
 25 28  1  0  0  0  0
 26 25  1  0  0  0  0
 28 27  2  0  0  0  0
 28 22  1  0  0  0  0
 29 24  1  0  0  0  0
M  END
>  <MODEL>
6

>  <REMARK>
 VINA RESULT:      -6.4      4.681      7.615
  Name = 
  6 active torsions:
  status: ('A' for Active; 'I' for Inactive)
    1  A    between atoms: C_3  and  C_19
    2  A    between atoms: C_3  and  N_24
    3  A    between atoms: C_6  and  C_9
    4  A    between atoms: C_6  and  C_26
    5  A    between atoms: C_16  and  C_21
    6  A    between atoms: C_17  and  C_21
                            x       y       z     vdW  Elec       q    Type
                         _______ _______ _______ _____ _____    ______ ____

>  <TORSDO>
F 6

$$$$
=
 OpenBabel10232412303D

 29 32  0  0  1  0  0  0  0  0999 V2000
  187.9080  176.9130  146.4970 C   0  0  2  0  0  3  0  0  0  0  0  0
  187.7570  177.8310  145.2950 C   0  0  2  0  0  3  0  0  0  0  0  0
  186.9830  177.7050  147.3110 N   0  0  2  0  0  0  0  0  0  0  0  0
  189.2740  176.9730  147.1680 C   0  0  2  0  0  3  0  0  0  0  0  0
  189.2520  178.1650  148.0840 C   0  0  0  0  0  2  0  0  0  0  0  0
  186.7960  178.6040  146.1750 C   0  0  0  0  0  2  0  0  0  0  0  0
  187.7730  178.4170  148.3220 C   0  0  0  0  0  2  0  0  0  0  0  0
  191.6100  176.5610  146.8260 C   0  0  0  0  0  0  0  0  0  0  0  0
  192.7410  176.2520  147.3940 C   0  0  0  0  0  3  0  0  0  0  0  0
  190.4720  176.8680  146.2560 C   0  0  0  0  0  0  0  0  0  0  0  0
  190.4730  176.0050  143.8930 C   0  0  0  0  0  3  0  0  0  0  0  0
  190.4190  176.2080  142.5120 C   0  0  0  0  0  3  0  0  0  0  0  0
  190.2560  178.5940  142.8720 C   0  0  0  0  0  3  0  0  0  0  0  0
  190.4140  177.0920  144.7840 C   0  0  0  0  0  0  0  0  0  0  0  0
  190.2530  177.7060  140.6300 O   0  0  0  0  0  1  0  0  0  0  0  0
  190.3100  177.5030  142.0010 C   0  0  0  0  0  0  0  0  0  0  0  0
  190.3080  178.3880  144.2530 C   0  0  0  0  0  3  0  0  0  0  0  0
  192.7580  175.7800  148.8050 C   0  0  0  0  0  2  0  0  0  0  0  0
  193.2050  177.8180  149.6710 O   0  0  0  0  0  1  0  0  0  0  0  0
  193.7090  176.5630  149.5760 N   0  0  0  0  0  2  0  0  0  0  0  0
  187.4630  176.0200  143.7440 O   0  0  0  0  0  0  0  0  0  0  0  0
  187.0460  177.1320  144.1730 C   0  0  0  0  0  0  0  0  0  0  0  0
  184.0690  178.6010  141.7560 S   0  0  0  0  0  0  0  0  0  0  0  0
  183.8200  178.6760  143.4960 N   0  0  0  0  0  0  0  0  0  0  0  0
  185.7680  178.0050  142.0670 C   0  0  1  0  0  3  0  0  0  0  0  0
  186.9160  179.2790  141.5830 Cl  0  0  0  0  0  0  0  0  0  0  0  0
  184.8680  178.1540  144.2480 N   0  0  0  0  0  0  0  0  0  0  0  0
  185.8740  177.7630  143.5440 C   0  0  0  0  0  0  0  0  0  0  0  0
  182.8280  179.5480  144.0920 C   0  0  0  0  0  1  0  0  0  0  0  0
  1  4  1  0  0  0  0
  1  3  1  0  0  0  0
  2  6  1  0  0  0  0
  2  1  1  0  0  0  0
  3  7  1  0  0  0  0
  4  5  1  0  0  0  0
  5  7  1  0  0  0  0
  6  3  1  0  0  0  0
  8  9  2  0  0  0  0
  9 18  1  0  0  0  0
 10  8  2  0  0  0  0
 10  4  1  0  0  0  0
 11 14  1  0  0  0  0
 12 11  2  0  0  0  0
 13 17  1  0  0  0  0
 14 10  1  0  0  0  0
 15 16  1  0  0  0  0
 16 12  1  0  0  0  0
 16 13  2  0  0  0  0
 17 14  2  0  0  0  0
 18 20  1  0  0  0  0
 20 19  1  0  0  0  0
 21 22  2  0  0  0  0
 22  2  1  0  0  0  0
 23 25  1  0  0  0  0
 23 24  1  0  0  0  0
 24 29  1  0  0  0  0
 24 27  1  0  0  0  0
 25 28  1  0  0  0  0
 26 25  1  0  0  0  0
 28 22  1  0  0  0  0
 28 27  2  0  0  0  0
M  END
>  <MODEL>
7

>  <REMARK>
 VINA RESULT:      -6.3      5.429      8.656
  Name = 
  6 active torsions:
  status: ('A' for Active; 'I' for Inactive)
    1  A    between atoms: C_3  and  C_19
    2  A    between atoms: C_3  and  N_24
    3  A    between atoms: C_6  and  C_9
    4  A    between atoms: C_6  and  C_26
    5  A    between atoms: C_16  and  C_21
    6  A    between atoms: C_17  and  C_21
                            x       y       z     vdW  Elec       q    Type
                         _______ _______ _______ _____ _____    ______ ____

>  <TORSDO>
F 6

$$$$
=
 OpenBabel10232412303D

 29 32  0  0  1  0  0  0  0  0999 V2000
  186.6950  178.5850  144.0410 C   0  0  2  0  0  3  0  0  0  0  0  0
  186.6650  177.0660  144.0520 C   0  0  2  0  0  3  0  0  0  0  0  0
  186.4200  178.6740  145.4770 N   0  0  2  0  0  0  0  0  0  0  0  0
  185.5260  179.2340  143.3100 C   0  0  2  0  0  3  0  0  0  0  0  0
  184.3780  179.2670  144.2790 C   0  0  0  0  0  2  0  0  0  0  0  0
  186.3980  177.2150  145.5360 C   0  0  0  0  0  2  0  0  0  0  0  0
  185.0430  179.1520  145.6400 C   0  0  0  0  0  2  0  0  0  0  0  0
  186.2270  178.5540  141.1210 C   0  0  0  0  0  0  0  0  0  0  0  0
  187.2380  178.4160  140.3120 C   0  0  0  0  0  3  0  0  0  0  0  0
  185.2120  178.6920  141.9370 C   0  0  0  0  0  0  0  0  0  0  0  0
  183.6580  177.4900  140.3650 C   0  0  0  0  0  3  0  0  0  0  0  0
  182.3750  177.1360  139.9400 C   0  0  0  0  0  3  0  0  0  0  0  0
  181.4210  178.4380  141.7400 C   0  0  0  0  0  3  0  0  0  0  0  0
  183.8420  178.3190  141.4880 C   0  0  0  0  0  0  0  0  0  0  0  0
  179.9820  177.2570  140.2070 O   0  0  0  0  0  1  0  0  0  0  0  0
  181.2560  177.6100  140.6280 C   0  0  0  0  0  0  0  0  0  0  0  0
  182.7050  178.7880  142.1660 C   0  0  0  0  0  3  0  0  0  0  0  0
  188.6270  178.5410  140.8310 C   0  0  0  0  0  2  0  0  0  0  0  0
  189.3260  178.6530  138.6860 O   0  0  0  0  0  1  0  0  0  0  0  0
  189.5670  178.0130  139.8570 N   0  0  0  0  0  2  0  0  0  0  0  0
  188.1820  175.5610  142.9550 O   0  0  0  0  0  0  0  0  0  0  0  0
  188.0290  176.5000  143.7850 C   0  0  0  0  0  0  0  0  0  0  0  0
  191.3410  178.4480  145.2320 S   0  0  0  0  0  0  0  0  0  0  0  0
  190.4950  177.3560  146.3210 N   0  0  0  0  0  0  0  0  0  0  0  0
  190.2380  177.8920  143.8850 C   0  0  1  0  0  3  0  0  0  0  0  0
  191.1940  176.9370  142.7230 Cl  0  0  0  0  0  0  0  0  0  0  0  0
  189.3800  176.7390  145.7630 N   0  0  0  0  0  0  0  0  0  0  0  0
  189.1940  177.0210  144.5190 C   0  0  0  0  0  0  0  0  0  0  0  0
  191.1150  176.8410  147.5270 C   0  0  0  0  0  1  0  0  0  0  0  0
  1  2  1  0  0  0  0
  1  3  1  0  0  0  0
  2  6  1  0  0  0  0
  3  6  1  0  0  0  0
  3  7  1  0  0  0  0
  4  1  1  0  0  0  0
  4  5  1  0  0  0  0
  5  7  1  0  0  0  0
  8 10  2  0  0  0  0
  9 18  1  0  0  0  0
  9  8  2  0  0  0  0
 10  4  1  0  0  0  0
 11 14  1  0  0  0  0
 12 11  2  0  0  0  0
 12 16  1  0  0  0  0
 13 17  1  0  0  0  0
 14 10  1  0  0  0  0
 14 17  2  0  0  0  0
 15 16  1  0  0  0  0
 16 13  2  0  0  0  0
 19 20  1  0  0  0  0
 20 18  1  0  0  0  0
 21 22  2  0  0  0  0
 22  2  1  0  0  0  0
 22 28  1  0  0  0  0
 23 24  1  0  0  0  0
 24 29  1  0  0  0  0
 25 28  1  0  0  0  0
 25 23  1  0  0  0  0
 26 25  1  0  0  0  0
 27 24  1  0  0  0  0
 28 27  2  0  0  0  0
M  END
>  <MODEL>
8

>  <REMARK>
 VINA RESULT:      -6.2      4.747      8.053
  Name = 
  6 active torsions:
  status: ('A' for Active; 'I' for Inactive)
    1  A    between atoms: C_3  and  C_19
    2  A    between atoms: C_3  and  N_24
    3  A    between atoms: C_6  and  C_9
    4  A    between atoms: C_6  and  C_26
    5  A    between atoms: C_16  and  C_21
    6  A    between atoms: C_17  and  C_21
                            x       y       z     vdW  Elec       q    Type
                         _______ _______ _______ _____ _____    ______ ____

>  <TORSDO>
F 6

$$$$
=
 OpenBabel10232412303D

 29 32  0  0  1  0  0  0  0  0999 V2000
  191.4960  176.4390  137.3900 C   0  0  2  0  0  3  0  0  0  0  0  0
  190.5500  175.2610  137.5570 C   0  0  2  0  0  3  0  0  0  0  0  0
  192.6120  175.5800  136.9860 N   0  0  2  0  0  0  0  0  0  0  0  0
  191.8920  177.1200  138.6940 C   0  0  2  0  0  3  0  0  0  0  0  0
  193.0110  176.3070  139.2820 C   0  0  0  0  0  2  0  0  0  0  0  0
  191.7330  174.4210  137.1180 C   0  0  0  0  0  2  0  0  0  0  0  0
  193.5730  175.5450  138.0940 C   0  0  0  0  0  2  0  0  0  0  0  0
  189.7150  178.0350  139.1030 C   0  0  0  0  0  0  0  0  0  0  0  0
  188.6700  178.6020  138.5690 C   0  0  0  0  0  3  0  0  0  0  0  0
  190.7640  177.4640  139.6370 C   0  0  0  0  0  0  0  0  0  0  0  0
  191.6190  177.9480  141.9540 C   0  0  0  0  0  3  0  0  0  0  0  0
  191.6540  177.6950  143.3270 C   0  0  0  0  0  3  0  0  0  0  0  0
  190.0510  175.9070  143.0350 C   0  0  0  0  0  3  0  0  0  0  0  0
  190.7960  177.1880  141.1010 C   0  0  0  0  0  0  0  0  0  0  0  0
  190.9010  176.4240  145.2330 O   0  0  0  0  0  1  0  0  0  0  0  0
  190.8690  176.6750  143.8680 C   0  0  0  0  0  0  0  0  0  0  0  0
  190.0160  176.1640  141.6620 C   0  0  0  0  0  3  0  0  0  0  0  0
  188.5240  178.6460  137.0890 C   0  0  0  0  0  2  0  0  0  0  0  0
  186.3610  178.7880  137.7220 O   0  0  0  0  0  1  0  0  0  0  0  0
  187.2130  179.1640  136.7380 N   0  0  0  0  0  2  0  0  0  0  0  0
  189.6440  175.9050  135.4270 O   0  0  0  0  0  0  0  0  0  0  0  0
  189.4700  175.2890  136.5150 C   0  0  0  0  0  0  0  0  0  0  0  0
  186.3210  172.7880  137.3470 S   0  0  0  0  0  0  0  0  0  0  0  0
  186.0020  174.5180  137.3090 N   0  0  0  0  0  0  0  0  0  0  0  0
  188.0180  173.1310  136.7610 C   0  0  1  0  0  3  0  0  0  0  0  0
  188.1760  172.5260  135.0920 Cl  0  0  0  0  0  0  0  0  0  0  0  0
  187.1170  175.3010  137.0280 N   0  0  0  0  0  0  0  0  0  0  0  0
  188.1840  174.6220  136.7770 C   0  0  0  0  0  0  0  0  0  0  0  0
  184.6590  175.0480  137.1790 C   0  0  0  0  0  1  0  0  0  0  0  0
  1  2  1  0  0  0  0
  1  4  1  0  0  0  0
  3  6  1  0  0  0  0
  3  1  1  0  0  0  0
  3  7  1  0  0  0  0
  4  5  1  0  0  0  0
  4 10  1  0  0  0  0
  6  2  1  0  0  0  0
  7  5  1  0  0  0  0
  8 10  2  0  0  0  0
  9  8  2  0  0  0  0
 10 14  1  0  0  0  0
 11 12  1  0  0  0  0
 12 16  2  0  0  0  0
 13 16  1  0  0  0  0
 14 17  1  0  0  0  0
 14 11  2  0  0  0  0
 16 15  1  0  0  0  0
 17 13  2  0  0  0  0
 18  9  1  0  0  0  0
 20 18  1  0  0  0  0
 20 19  1  0  0  0  0
 21 22  2  0  0  0  0
 22 28  1  0  0  0  0
 22  2  1  0  0  0  0
 24 23  1  0  0  0  0
 25 28  1  0  0  0  0
 25 23  1  0  0  0  0
 26 25  1  0  0  0  0
 27 24  1  0  0  0  0
 28 27  2  0  0  0  0
 29 24  1  0  0  0  0
M  END
>  <MODEL>
9

>  <REMARK>
 VINA RESULT:      -6.1      3.832      6.368
  Name = 
  6 active torsions:
  status: ('A' for Active; 'I' for Inactive)
    1  A    between atoms: C_3  and  C_19
    2  A    between atoms: C_3  and  N_24
    3  A    between atoms: C_6  and  C_9
    4  A    between atoms: C_6  and  C_26
    5  A    between atoms: C_16  and  C_21
    6  A    between atoms: C_17  and  C_21
                            x       y       z     vdW  Elec       q    Type
                         _______ _______ _______ _____ _____    ______ ____

>  <TORSDO>
F 6

$$$$
