=
 OpenBabel10232409413D

 35 39  0  0  0  0  0  0  0  0999 V2000
  187.6690  177.6610  144.2280 C   0  0  0  0  0  3  0  0  0  0  0  0
  191.4350  177.1180  139.7710 C   0  0  0  0  0  0  0  0  0  0  0  0
  186.7410  177.8850  145.2640 C   0  0  0  0  0  0  0  0  0  0  0  0
  189.1510  177.5650  141.2130 C   0  0  0  0  0  0  0  0  0  0  0  0
  185.4490  178.3830  144.9780 C   0  0  0  0  0  3  0  0  0  0  0  0
  185.0560  178.6600  143.6550 C   0  0  0  0  0  3  0  0  0  0  0  0
  187.6940  178.3670  139.2390 S   0  0  0  0  0  0  0  0  0  0  0  0
  187.2530  177.9360  142.9310 C   0  0  0  0  0  0  0  0  0  0  0  0
  185.8300  178.6480  141.3100 N   0  0  0  0  0  0  0  0  0  0  0  0
  190.3170  177.5660  139.1250 N   0  0  0  0  0  0  0  0  0  0  0  0
  185.9830  178.4230  142.6410 C   0  0  0  0  0  0  0  0  0  0  0  0
  187.9020  177.8710  141.7230 C   0  0  0  0  0  0  0  0  0  0  0  0
  190.2890  177.1160  141.8680 C   0  0  0  0  0  3  0  0  0  0  0  0
  191.4110  176.9000  141.1250 N   0  0  0  0  0  0  0  0  0  0  0  0
  189.1880  177.7850  139.8410 C   0  0  0  0  0  0  0  0  0  0  0  0
  187.0240  178.3050  140.7880 C   0  0  0  0  0  0  0  0  0  0  0  0
  192.6690  176.8700  139.0130 C   0  0  0  0  0  0  0  0  0  0  0  0
  192.5980  176.3220  137.6950 N   0  0  0  0  0  2  0  0  0  0  0  0
  193.7900  176.0660  136.9030 C   0  0  0  0  0  1  0  0  0  0  0  0
  193.7880  177.1410  139.5270 O   0  0  0  0  0  0  0  0  0  0  0  0
  184.6960  179.2480  140.6200 C   0  0  0  0  0  2  0  0  0  0  0  0
  184.2090  178.0420  138.4530 C   0  0  0  0  0  3  0  0  0  0  0  0
  182.9990  177.3850  140.3720 C   0  0  0  0  0  3  0  0  0  0  0  0
  183.1760  176.8140  137.9460 S   0  0  0  0  0  0  0  0  0  0  0  0
  183.9790  178.2180  139.8160 C   0  0  0  0  0  0  0  0  0  0  0  0
  182.4530  176.5250  139.4360 C   0  0  0  0  0  0  0  0  0  0  0  0
  180.6940  175.0540  138.7450 N   0  0  0  0  0  2  0  0  0  0  0  0
  181.3940  175.5550  139.7070 C   0  0  0  0  0  3  0  0  0  0  0  0
  187.1300  177.6200  146.6770 C   0  0  0  0  0  2  0  0  0  0  0  0
  188.6220  177.8440  146.8590 C   0  0  0  0  0  2  0  0  0  0  0  0
  189.2800  176.6100  147.4530 C   0  0  0  0  0  2  0  0  0  0  0  0
  191.7230  175.0880  147.4440 O   0  0  0  0  0  0  0  0  0  0  0  0
  191.4460  177.1520  145.4790 C   0  0  0  0  0  1  0  0  0  0  0  0
  191.0800  176.6310  147.1790 P   0  0  1  0  0  0  0  0  0  0  0  0
  191.7160  177.6070  148.1430 O   0  0  0  0  0  1  0  0  0  0  0  0
  1  3  1  0  0  0  0
  2 14  1  0  0  0  0
  3 29  1  0  0  0  0
  4 12  1  0  0  0  0
  4 13  1  0  0  0  0
  5  3  2  0  0  0  0
  6  5  1  0  0  0  0
  7 15  1  0  0  0  0
  7 16  1  0  0  0  0
  8  1  2  0  0  0  0
  9 11  1  0  0  0  0
 10  2  2  0  0  0  0
 10 15  1  0  0  0  0
 11  8  1  0  0  0  0
 11  6  2  0  0  0  0
 12  8  1  0  0  0  0
 14 13  2  0  0  0  0
 15  4  2  0  0  0  0
 16  9  1  0  0  0  0
 16 12  2  0  0  0  0
 17 20  2  0  0  0  0
 17  2  1  0  0  0  0
 18 17  1  0  0  0  0
 19 18  1  0  0  0  0
 21  9  1  0  0  0  0
 22 25  2  0  0  0  0
 24 22  1  0  0  0  0
 24 26  1  0  0  0  0
 25 23  1  0  0  0  0
 25 21  1  0  0  0  0
 26 28  1  0  0  0  0
 26 23  2  0  0  0  0
 27 28  2  0  0  0  0
 29 30  1  0  0  0  0
 30 31  1  0  0  0  0
 34 33  1  6  0  0  0
 34 32  2  0  0  0  0
 34 31  1  0  0  0  0
 34 35  1  0  0  0  0
M  END
>  <MODEL>
1

>  <REMARK>
 VINA RESULT:      -8.6      0.000      0.000
  Name = 
  8 active torsions:
  status: ('A' for Active; 'I' for Inactive)
    1  A    between atoms: C_2  and  C_30
    2  A    between atoms: C_2  and  C_32
    3  A    between atoms: C_5  and  C_7
    4  A    between atoms: C_8  and  C_30
    5  A    between atoms: C_14  and  C_19
    6  A    between atoms: C_17  and  C_22
    7  A    between atoms: N_20  and  C_22
    8  A    between atoms: P_23  and  C_32
                            x       y       z     vdW  Elec       q    Type
                         _______ _______ _______ _____ _____    ______ ____

>  <TORSDO>
F 8

$$$$
=
 OpenBabel10232409413D

 35 39  0  0  0  0  0  0  0  0999 V2000
  185.3600  178.2770  142.4510 C   0  0  0  0  0  3  0  0  0  0  0  0
  189.9550  177.1310  145.9020 C   0  0  0  0  0  0  0  0  0  0  0  0
  184.3100  178.6290  141.5810 C   0  0  0  0  0  0  0  0  0  0  0  0
  188.4110  177.6100  143.6920 C   0  0  0  0  0  0  0  0  0  0  0  0
  184.5570  178.8460  140.2060 C   0  0  0  0  0  3  0  0  0  0  0  0
  185.8510  178.7090  139.6720 C   0  0  0  0  0  3  0  0  0  0  0  0
  190.3370  177.6530  141.9750 S   0  0  0  0  0  0  0  0  0  0  0  0
  186.6270  178.1420  141.8960 C   0  0  0  0  0  0  0  0  0  0  0  0
  188.1960  178.1960  140.2550 N   0  0  0  0  0  0  0  0  0  0  0  0
  190.5570  177.2320  144.6780 N   0  0  0  0  0  0  0  0  0  0  0  0
  186.8780  178.3500  140.5450 C   0  0  0  0  0  0  0  0  0  0  0  0
  187.8490  177.8570  142.4530 C   0  0  0  0  0  0  0  0  0  0  0  0
  187.8040  177.5140  144.9360 C   0  0  0  0  0  3  0  0  0  0  0  0
  188.5970  177.2730  146.0190 N   0  0  0  0  0  0  0  0  0  0  0  0
  189.7900  177.4670  143.5870 C   0  0  0  0  0  0  0  0  0  0  0  0
  188.7530  177.9020  141.4450 C   0  0  0  0  0  0  0  0  0  0  0  0
  190.7680  176.8720  147.0980 C   0  0  0  0  0  0  0  0  0  0  0  0
  191.8990  176.0020  147.0170 N   0  0  0  0  0  2  0  0  0  0  0  0
  192.7370  175.7210  148.1720 C   0  0  0  0  0  1  0  0  0  0  0  0
  190.4660  177.4180  148.1950 O   0  0  0  0  0  0  0  0  0  0  0  0
  188.8750  178.4270  138.9870 C   0  0  0  0  0  2  0  0  0  0  0  0
  190.1760  176.3640  138.3280 C   0  0  0  0  0  3  0  0  0  0  0  0
  188.0350  176.6630  137.3770 C   0  0  0  0  0  3  0  0  0  0  0  0
  189.9370  175.0430  137.3140 S   0  0  0  0  0  0  0  0  0  0  0  0
  189.0260  177.1450  138.2420 C   0  0  0  0  0  0  0  0  0  0  0  0
  188.4020  175.4710  136.7780 C   0  0  0  0  0  0  0  0  0  0  0  0
  186.7900  173.7990  136.1950 N   0  0  0  0  0  2  0  0  0  0  0  0
  187.5900  174.7360  135.8100 C   0  0  0  0  0  3  0  0  0  0  0  0
  182.9310  178.8000  142.1150 C   0  0  0  0  0  2  0  0  0  0  0  0
  181.9400  178.9400  140.9700 C   0  0  0  0  0  2  0  0  0  0  0  0
  181.0220  177.7310  140.9050 C   0  0  0  0  0  2  0  0  0  0  0  0
  179.9820  175.8120  139.0290 O   0  0  0  0  0  0  0  0  0  0  0  0
  181.7300  177.8400  138.0120 C   0  0  0  0  0  1  0  0  0  0  0  0
  181.3420  176.7450  139.4080 P   0  0  1  0  0  0  0  0  0  0  0  0
  182.5190  175.8300  139.6600 O   0  0  0  0  0  1  0  0  0  0  0  0
  2 14  1  0  0  0  0
  2 17  1  0  0  0  0
  3 29  1  0  0  0  0
  3  1  2  0  0  0  0
  4 13  1  0  0  0  0
  5  3  1  0  0  0  0
  6  5  2  0  0  0  0
  6 11  1  0  0  0  0
  7 15  1  0  0  0  0
  8  1  1  0  0  0  0
  8 12  1  0  0  0  0
  9 11  1  0  0  0  0
  9 16  1  0  0  0  0
 10  2  2  0  0  0  0
 11  8  2  0  0  0  0
 12  4  1  0  0  0  0
 13 14  2  0  0  0  0
 15  4  2  0  0  0  0
 15 10  1  0  0  0  0
 16  7  1  0  0  0  0
 16 12  2  0  0  0  0
 17 20  2  0  0  0  0
 18 17  1  0  0  0  0
 18 19  1  0  0  0  0
 21  9  1  0  0  0  0
 23 25  1  0  0  0  0
 24 22  1  0  0  0  0
 25 22  2  0  0  0  0
 25 21  1  0  0  0  0
 26 24  1  0  0  0  0
 26 23  2  0  0  0  0
 28 27  2  0  0  0  0
 28 26  1  0  0  0  0
 30 29  1  0  0  0  0
 31 30  1  0  0  0  0
 32 34  2  0  0  0  0
 34 33  1  6  0  0  0
 34 35  1  0  0  0  0
 34 31  1  0  0  0  0
M  END
>  <MODEL>
2

>  <REMARK>
 VINA RESULT:      -7.7      4.600      7.242
  Name = 
  8 active torsions:
  status: ('A' for Active; 'I' for Inactive)
    1  A    between atoms: C_2  and  C_30
    2  A    between atoms: C_2  and  C_32
    3  A    between atoms: C_5  and  C_7
    4  A    between atoms: C_8  and  C_30
    5  A    between atoms: C_14  and  C_19
    6  A    between atoms: C_17  and  C_22
    7  A    between atoms: N_20  and  C_22
    8  A    between atoms: P_23  and  C_32
                            x       y       z     vdW  Elec       q    Type
                         _______ _______ _______ _____ _____    ______ ____

>  <TORSDO>
F 8

$$$$
=
 OpenBabel10232409413D

 35 39  0  0  0  0  0  0  0  0999 V2000
  191.1560  175.9130  138.8240 C   0  0  0  0  0  3  0  0  0  0  0  0
  189.2150  177.1900  144.2040 C   0  0  0  0  0  0  0  0  0  0  0  0
  191.5270  175.5790  137.5070 C   0  0  0  0  0  0  0  0  0  0  0  0
  189.4810  177.1110  141.4800 C   0  0  0  0  0  0  0  0  0  0  0  0
  190.7760  176.0530  136.4060 C   0  0  0  0  0  3  0  0  0  0  0  0
  189.6490  176.8730  136.5970 C   0  0  0  0  0  3  0  0  0  0  0  0
  187.3790  178.5020  140.9260 S   0  0  0  0  0  0  0  0  0  0  0  0
  190.0430  176.7290  138.9840 C   0  0  0  0  0  0  0  0  0  0  0  0
  188.2430  177.9460  138.3210 N   0  0  0  0  0  0  0  0  0  0  0  0
  188.2930  177.8320  143.4260 N   0  0  0  0  0  0  0  0  0  0  0  0
  189.3020  177.2020  137.9070 C   0  0  0  0  0  0  0  0  0  0  0  0
  189.4000  177.2000  140.1020 C   0  0  0  0  0  0  0  0  0  0  0  0
  190.4130  176.4540  142.2710 C   0  0  0  0  0  3  0  0  0  0  0  0
  190.2570  176.5120  143.6250 N   0  0  0  0  0  0  0  0  0  0  0  0
  188.4280  177.7930  142.0790 C   0  0  0  0  0  0  0  0  0  0  0  0
  188.3360  177.9140  139.6640 C   0  0  0  0  0  0  0  0  0  0  0  0
  189.0900  177.2230  145.6670 C   0  0  0  0  0  0  0  0  0  0  0  0
  187.8590  177.6340  146.2680 N   0  0  0  0  0  2  0  0  0  0  0  0
  187.6850  177.6770  147.7110 C   0  0  0  0  0  1  0  0  0  0  0  0
  190.0680  176.8890  146.3900 O   0  0  0  0  0  0  0  0  0  0  0  0
  187.1770  178.5270  137.5160 C   0  0  0  0  0  2  0  0  0  0  0  0
  184.7710  178.0850  138.1510 C   0  0  0  0  0  3  0  0  0  0  0  0
  185.9560  176.3550  137.0640 C   0  0  0  0  0  3  0  0  0  0  0  0
  183.6910  176.8020  138.0210 S   0  0  0  0  0  0  0  0  0  0  0  0
  185.9630  177.6630  137.5670 C   0  0  0  0  0  0  0  0  0  0  0  0
  184.7310  175.7360  137.2410 C   0  0  0  0  0  0  0  0  0  0  0  0
  184.5450  173.3890  137.6790 N   0  0  0  0  0  2  0  0  0  0  0  0
  184.4220  174.3650  136.8430 C   0  0  0  0  0  3  0  0  0  0  0  0
  192.7040  174.6990  137.2680 C   0  0  0  0  0  2  0  0  0  0  0  0
  193.9460  175.5410  137.0270 C   0  0  0  0  0  2  0  0  0  0  0  0
  195.1640  174.6550  136.8290 C   0  0  0  0  0  2  0  0  0  0  0  0
  195.3810  172.6700  138.9030 O   0  0  0  0  0  0  0  0  0  0  0  0
  197.7240  174.1960  138.2840 C   0  0  0  0  0  1  0  0  0  0  0  0
  195.9140  174.2040  138.4250 P   0  0  1  0  0  0  0  0  0  0  0  0
  195.5050  175.2200  139.4680 O   0  0  0  0  0  1  0  0  0  0  0  0
  1  8  1  0  0  0  0
  2 17  1  0  0  0  0
  3  1  2  0  0  0  0
  4 15  2  0  0  0  0
  4 13  1  0  0  0  0
  5  6  2  0  0  0  0
  5  3  1  0  0  0  0
  6 11  1  0  0  0  0
  7 15  1  0  0  0  0
  8 12  1  0  0  0  0
  9 16  1  0  0  0  0
 10  2  2  0  0  0  0
 11  9  1  0  0  0  0
 11  8  2  0  0  0  0
 12  4  1  0  0  0  0
 13 14  2  0  0  0  0
 14  2  1  0  0  0  0
 15 10  1  0  0  0  0
 16 12  2  0  0  0  0
 16  7  1  0  0  0  0
 17 18  1  0  0  0  0
 17 20  2  0  0  0  0
 18 19  1  0  0  0  0
 21 25  1  0  0  0  0
 21  9  1  0  0  0  0
 23 26  2  0  0  0  0
 23 25  1  0  0  0  0
 24 22  1  0  0  0  0
 25 22  2  0  0  0  0
 26 24  1  0  0  0  0
 28 26  1  0  0  0  0
 28 27  2  0  0  0  0
 29  3  1  0  0  0  0
 30 29  1  0  0  0  0
 31 30  1  0  0  0  0
 31 34  1  0  0  0  0
 34 33  1  6  0  0  0
 34 32  2  0  0  0  0
 34 35  1  0  0  0  0
M  END
>  <MODEL>
3

>  <REMARK>
 VINA RESULT:      -7.5      3.090      7.037
  Name = 
  8 active torsions:
  status: ('A' for Active; 'I' for Inactive)
    1  A    between atoms: C_2  and  C_30
    2  A    between atoms: C_2  and  C_32
    3  A    between atoms: C_5  and  C_7
    4  A    between atoms: C_8  and  C_30
    5  A    between atoms: C_14  and  C_19
    6  A    between atoms: C_17  and  C_22
    7  A    between atoms: N_20  and  C_22
    8  A    between atoms: P_23  and  C_32
                            x       y       z     vdW  Elec       q    Type
                         _______ _______ _______ _____ _____    ______ ____

>  <TORSDO>
F 8

$$$$
=
 OpenBabel10232409413D

 35 39  0  0  0  0  0  0  0  0999 V2000
  185.3470  178.2970  142.2290 C   0  0  0  0  0  3  0  0  0  0  0  0
  189.8080  177.1560  145.8550 C   0  0  0  0  0  0  0  0  0  0  0  0
  184.3300  178.6490  141.3210 C   0  0  0  0  0  0  0  0  0  0  0  0
  188.3510  177.6450  143.5880 C   0  0  0  0  0  0  0  0  0  0  0  0
  184.6320  178.8850  139.9590 C   0  0  0  0  0  3  0  0  0  0  0  0
  185.9480  178.7660  139.4780 C   0  0  0  0  0  3  0  0  0  0  0  0
  190.3460  177.7260  141.9530 S   0  0  0  0  0  0  0  0  0  0  0  0
  186.6370  178.1810  141.7260 C   0  0  0  0  0  0  0  0  0  0  0  0
  188.2720  178.2680  140.1510 N   0  0  0  0  0  0  0  0  0  0  0  0
  190.4580  177.2760  144.6580 N   0  0  0  0  0  0  0  0  0  0  0  0
  186.9410  178.4070  140.3880 C   0  0  0  0  0  0  0  0  0  0  0  0
  187.8380  177.9010  142.3300 C   0  0  0  0  0  0  0  0  0  0  0  0
  187.6940  177.5290  144.8050 C   0  0  0  0  0  3  0  0  0  0  0  0
  188.4440  177.2830  145.9170 N   0  0  0  0  0  0  0  0  0  0  0  0
  189.7350  177.5170  143.5390 C   0  0  0  0  0  0  0  0  0  0  0  0
  188.7820  177.9660  141.3610 C   0  0  0  0  0  0  0  0  0  0  0  0
  190.5730  176.8910  147.0800 C   0  0  0  0  0  0  0  0  0  0  0  0
  191.7740  176.1180  147.0180 N   0  0  0  0  0  2  0  0  0  0  0  0
  192.5690  175.8360  148.2020 C   0  0  0  0  0  1  0  0  0  0  0  0
  190.1690  177.3460  148.1850 O   0  0  0  0  0  0  0  0  0  0  0  0
  189.0000  178.5210  138.9150 C   0  0  0  0  0  2  0  0  0  0  0  0
  188.4850  176.3730  137.6880 C   0  0  0  0  0  3  0  0  0  0  0  0
  190.7330  176.7870  138.2820 C   0  0  0  0  0  3  0  0  0  0  0  0
  189.3570  175.0420  137.1410 S   0  0  0  0  0  0  0  0  0  0  0  0
  189.4050  177.2330  138.2840 C   0  0  0  0  0  0  0  0  0  0  0  0
  190.8690  175.5570  137.6620 C   0  0  0  0  0  0  0  0  0  0  0  0
  193.2590  175.4110  137.7200 N   0  0  0  0  0  2  0  0  0  0  0  0
  192.1250  174.8240  137.5250 C   0  0  0  0  0  3  0  0  0  0  0  0
  182.9280  178.8010  141.8000 C   0  0  0  0  0  2  0  0  0  0  0  0
  181.9890  178.9760  140.6180 C   0  0  0  0  0  2  0  0  0  0  0  0
  181.1080  177.7500  140.4480 C   0  0  0  0  0  2  0  0  0  0  0  0
  182.0640  178.1080  137.7570 O   0  0  0  0  0  0  0  0  0  0  0  0
  182.4020  175.5250  138.9460 C   0  0  0  0  0  1  0  0  0  0  0  0
  181.3440  176.9950  138.8080 P   0  0  1  0  0  0  0  0  0  0  0  0
  179.9980  176.5850  138.2540 O   0  0  0  0  0  1  0  0  0  0  0  0
  2 14  1  0  0  0  0
  2 17  1  0  0  0  0
  3 29  1  0  0  0  0
  3  1  2  0  0  0  0
  4 13  1  0  0  0  0
  5  3  1  0  0  0  0
  6  5  2  0  0  0  0
  6 11  1  0  0  0  0
  7 15  1  0  0  0  0
  8  1  1  0  0  0  0
  8 12  1  0  0  0  0
  9 11  1  0  0  0  0
  9 16  1  0  0  0  0
 10  2  2  0  0  0  0
 11  8  2  0  0  0  0
 12  4  1  0  0  0  0
 13 14  2  0  0  0  0
 15  4  2  0  0  0  0
 15 10  1  0  0  0  0
 16  7  1  0  0  0  0
 16 12  2  0  0  0  0
 17 20  2  0  0  0  0
 18 17  1  0  0  0  0
 18 19  1  0  0  0  0
 21  9  1  0  0  0  0
 22 25  2  0  0  0  0
 23 25  1  0  0  0  0
 24 26  1  0  0  0  0
 24 22  1  0  0  0  0
 25 21  1  0  0  0  0
 26 23  2  0  0  0  0
 28 26  1  0  0  0  0
 28 27  2  0  0  0  0
 30 29  1  0  0  0  0
 31 30  1  0  0  0  0
 32 34  2  0  0  0  0
 34 33  1  1  0  0  0
 34 31  1  0  0  0  0
 35 34  1  0  0  0  0
M  END
>  <MODEL>
4

>  <REMARK>
 VINA RESULT:      -7.5      4.424      7.799
  Name = 
  8 active torsions:
  status: ('A' for Active; 'I' for Inactive)
    1  A    between atoms: C_2  and  C_30
    2  A    between atoms: C_2  and  C_32
    3  A    between atoms: C_5  and  C_7
    4  A    between atoms: C_8  and  C_30
    5  A    between atoms: C_14  and  C_19
    6  A    between atoms: C_17  and  C_22
    7  A    between atoms: N_20  and  C_22
    8  A    between atoms: P_23  and  C_32
                            x       y       z     vdW  Elec       q    Type
                         _______ _______ _______ _____ _____    ______ ____

>  <TORSDO>
F 8

$$$$
=
 OpenBabel10232409413D

 35 39  0  0  0  0  0  0  0  0999 V2000
  189.5940  177.6830  141.8310 C   0  0  0  0  0  3  0  0  0  0  0  0
  183.9320  178.7720  142.8800 C   0  0  0  0  0  0  0  0  0  0  0  0
  190.9240  177.3530  141.5080 C   0  0  0  0  0  0  0  0  0  0  0  0
  186.3250  178.4270  141.5950 C   0  0  0  0  0  0  0  0  0  0  0  0
  191.3460  177.3030  140.1590 C   0  0  0  0  0  3  0  0  0  0  0  0
  190.4540  177.5880  139.1100 C   0  0  0  0  0  3  0  0  0  0  0  0
  185.4250  178.7050  139.1920 S   0  0  0  0  0  0  0  0  0  0  0  0
  188.7350  177.9660  140.7750 C   0  0  0  0  0  0  0  0  0  0  0  0
  188.1150  178.2010  138.6030 N   0  0  0  0  0  0  0  0  0  0  0  0
  183.9720  178.8470  141.5160 N   0  0  0  0  0  0  0  0  0  0  0  0
  189.1430  177.9230  139.4470 C   0  0  0  0  0  0  0  0  0  0  0  0
  187.3980  178.2750  140.7360 C   0  0  0  0  0  0  0  0  0  0  0  0
  186.2810  178.3440  142.9790 C   0  0  0  0  0  3  0  0  0  0  0  0
  185.0770  178.5230  143.5930 N   0  0  0  0  0  0  0  0  0  0  0  0
  185.1570  178.6770  140.8830 C   0  0  0  0  0  0  0  0  0  0  0  0
  187.0700  178.4030  139.4280 C   0  0  0  0  0  0  0  0  0  0  0  0
  182.6580  178.9580  143.5870 C   0  0  0  0  0  0  0  0  0  0  0  0
  181.4530  179.1590  142.8450 N   0  0  0  0  0  2  0  0  0  0  0  0
  180.1670  179.3400  143.4990 C   0  0  0  0  0  1  0  0  0  0  0  0
  182.6290  178.9390  144.8480 O   0  0  0  0  0  0  0  0  0  0  0  0
  188.1050  178.1560  137.1470 C   0  0  0  0  0  2  0  0  0  0  0  0
  189.0550  176.2000  135.8590 C   0  0  0  0  0  3  0  0  0  0  0  0
  187.0080  175.8800  136.9920 C   0  0  0  0  0  3  0  0  0  0  0  0
  188.6010  174.6110  135.5440 S   0  0  0  0  0  0  0  0  0  0  0  0
  188.0650  176.7430  136.6750 C   0  0  0  0  0  0  0  0  0  0  0  0
  187.1710  174.6270  136.4280 C   0  0  0  0  0  0  0  0  0  0  0  0
  185.8840  173.0760  137.7210 N   0  0  0  0  0  2  0  0  0  0  0  0
  186.2250  173.5210  136.5580 C   0  0  0  0  0  3  0  0  0  0  0  0
  191.8910  177.0280  142.5930 C   0  0  0  0  0  2  0  0  0  0  0  0
  191.2710  176.0390  143.5670 C   0  0  0  0  0  2  0  0  0  0  0  0
  191.4210  176.5310  144.9970 C   0  0  0  0  0  2  0  0  0  0  0  0
  188.5450  176.5380  144.8920 O   0  0  0  0  0  0  0  0  0  0  0  0
  189.7770  177.1710  147.3980 C   0  0  0  0  0  1  0  0  0  0  0  0
  189.8830  177.3030  145.5900 P   0  0  1  0  0  0  0  0  0  0  0  0
  189.8810  178.7640  145.2000 O   0  0  0  0  0  1  0  0  0  0  0  0
  2 17  1  0  0  0  0
  2 14  1  0  0  0  0
  3  1  1  0  0  0  0
  3 29  1  0  0  0  0
  4 13  1  0  0  0  0
  5  3  2  0  0  0  0
  6 11  2  0  0  0  0
  6  5  1  0  0  0  0
  7 16  1  0  0  0  0
  7 15  1  0  0  0  0
  8  1  2  0  0  0  0
  9 16  1  0  0  0  0
  9 11  1  0  0  0  0
 10  2  2  0  0  0  0
 11  8  1  0  0  0  0
 12  8  1  0  0  0  0
 12  4  1  0  0  0  0
 13 14  2  0  0  0  0
 15 10  1  0  0  0  0
 15  4  2  0  0  0  0
 16 12  2  0  0  0  0
 17 20  2  0  0  0  0
 18 19  1  0  0  0  0
 18 17  1  0  0  0  0
 21  9  1  0  0  0  0
 22 25  2  0  0  0  0
 24 22  1  0  0  0  0
 24 26  1  0  0  0  0
 25 23  1  0  0  0  0
 25 21  1  0  0  0  0
 26 28  1  0  0  0  0
 26 23  2  0  0  0  0
 28 27  2  0  0  0  0
 29 30  1  0  0  0  0
 30 31  1  0  0  0  0
 31 34  1  0  0  0  0
 32 34  2  0  0  0  0
 34 33  1  1  0  0  0
 35 34  1  0  0  0  0
M  END
>  <MODEL>
5

>  <REMARK>
 VINA RESULT:      -7.5      3.325      6.474
  Name = 
  8 active torsions:
  status: ('A' for Active; 'I' for Inactive)
    1  A    between atoms: C_2  and  C_30
    2  A    between atoms: C_2  and  C_32
    3  A    between atoms: C_5  and  C_7
    4  A    between atoms: C_8  and  C_30
    5  A    between atoms: C_14  and  C_19
    6  A    between atoms: C_17  and  C_22
    7  A    between atoms: N_20  and  C_22
    8  A    between atoms: P_23  and  C_32
                            x       y       z     vdW  Elec       q    Type
                         _______ _______ _______ _____ _____    ______ ____

>  <TORSDO>
F 8

$$$$
=
 OpenBabel10232409413D

 35 39  0  0  0  0  0  0  0  0999 V2000
  191.1370  175.9930  138.8640 C   0  0  0  0  0  3  0  0  0  0  0  0
  189.2750  177.2080  144.2860 C   0  0  0  0  0  0  0  0  0  0  0  0
  191.4890  175.6750  137.5380 C   0  0  0  0  0  0  0  0  0  0  0  0
  189.5030  177.1630  141.5580 C   0  0  0  0  0  0  0  0  0  0  0  0
  190.7240  176.1650  136.4530 C   0  0  0  0  0  3  0  0  0  0  0  0
  189.6030  176.9860  136.6700 C   0  0  0  0  0  3  0  0  0  0  0  0
  187.3980  178.5680  141.0500 S   0  0  0  0  0  0  0  0  0  0  0  0
  190.0290  176.8110  139.0490 C   0  0  0  0  0  0  0  0  0  0  0  0
  188.2240  178.0410  138.4270 N   0  0  0  0  0  0  0  0  0  0  0  0
  188.3440  177.8640  143.5280 N   0  0  0  0  0  0  0  0  0  0  0  0
  189.2750  177.3000  137.9890 C   0  0  0  0  0  0  0  0  0  0  0  0
  189.4040  177.2690  140.1830 C   0  0  0  0  0  0  0  0  0  0  0  0
  190.4430  176.4940  142.3280 C   0  0  0  0  0  3  0  0  0  0  0  0
  190.3060  176.5350  143.6840 N   0  0  0  0  0  0  0  0  0  0  0  0
  188.4600  177.8410  142.1800 C   0  0  0  0  0  0  0  0  0  0  0  0
  188.3360  177.9920  139.7680 C   0  0  0  0  0  0  0  0  0  0  0  0
  189.1700  177.2240  145.7510 C   0  0  0  0  0  0  0  0  0  0  0  0
  187.9430  177.6130  146.3740 N   0  0  0  0  0  2  0  0  0  0  0  0
  187.7890  177.6380  147.8190 C   0  0  0  0  0  1  0  0  0  0  0  0
  190.1620  176.8940  146.4570 O   0  0  0  0  0  0  0  0  0  0  0  0
  187.1490  178.6360  137.6440 C   0  0  0  0  0  2  0  0  0  0  0  0
  185.9450  176.5960  136.7620 C   0  0  0  0  0  3  0  0  0  0  0  0
  184.8210  177.9350  138.3510 C   0  0  0  0  0  3  0  0  0  0  0  0
  184.4460  175.8700  136.9940 S   0  0  0  0  0  0  0  0  0  0  0  0
  185.9790  177.7140  137.5930 C   0  0  0  0  0  0  0  0  0  0  0  0
  183.8590  176.9660  138.1260 C   0  0  0  0  0  0  0  0  0  0  0  0
  182.2270  176.0140  139.5960 N   0  0  0  0  0  2  0  0  0  0  0  0
  182.5380  176.9380  138.7500 C   0  0  0  0  0  3  0  0  0  0  0  0
  192.6600  174.7940  137.2720 C   0  0  0  0  0  2  0  0  0  0  0  0
  193.9250  175.6280  137.1520 C   0  0  0  0  0  2  0  0  0  0  0  0
  195.1280  174.7400  136.8810 C   0  0  0  0  0  2  0  0  0  0  0  0
  195.3760  172.6760  138.8720 O   0  0  0  0  0  0  0  0  0  0  0  0
  197.7250  174.1840  138.2320 C   0  0  0  0  0  1  0  0  0  0  0  0
  195.9210  174.2180  138.4340 P   0  0  1  0  0  0  0  0  0  0  0  0
  195.5640  175.2010  139.5270 O   0  0  0  0  0  1  0  0  0  0  0  0
  1  8  1  0  0  0  0
  2 17  1  0  0  0  0
  3  1  2  0  0  0  0
  4 15  2  0  0  0  0
  4 13  1  0  0  0  0
  5  6  2  0  0  0  0
  5  3  1  0  0  0  0
  6 11  1  0  0  0  0
  7 15  1  0  0  0  0
  8 12  1  0  0  0  0
  9 16  1  0  0  0  0
 10  2  2  0  0  0  0
 11  9  1  0  0  0  0
 11  8  2  0  0  0  0
 12  4  1  0  0  0  0
 13 14  2  0  0  0  0
 14  2  1  0  0  0  0
 15 10  1  0  0  0  0
 16 12  2  0  0  0  0
 16  7  1  0  0  0  0
 17 18  1  0  0  0  0
 17 20  2  0  0  0  0
 18 19  1  0  0  0  0
 21  9  1  0  0  0  0
 22 24  1  0  0  0  0
 22 25  2  0  0  0  0
 24 26  1  0  0  0  0
 25 21  1  0  0  0  0
 25 23  1  0  0  0  0
 26 23  2  0  0  0  0
 26 28  1  0  0  0  0
 28 27  2  0  0  0  0
 29  3  1  0  0  0  0
 30 29  1  0  0  0  0
 31 30  1  0  0  0  0
 31 34  1  0  0  0  0
 34 33  1  6  0  0  0
 34 32  2  0  0  0  0
 34 35  1  0  0  0  0
M  END
>  <MODEL>
6

>  <REMARK>
 VINA RESULT:      -7.5      2.940      6.936
  Name = 
  8 active torsions:
  status: ('A' for Active; 'I' for Inactive)
    1  A    between atoms: C_2  and  C_30
    2  A    between atoms: C_2  and  C_32
    3  A    between atoms: C_5  and  C_7
    4  A    between atoms: C_8  and  C_30
    5  A    between atoms: C_14  and  C_19
    6  A    between atoms: C_17  and  C_22
    7  A    between atoms: N_20  and  C_22
    8  A    between atoms: P_23  and  C_32
                            x       y       z     vdW  Elec       q    Type
                         _______ _______ _______ _____ _____    ______ ____

>  <TORSDO>
F 8

$$$$
=
 OpenBabel10232409413D

 35 39  0  0  0  0  0  0  0  0999 V2000
  189.1270  177.7020  142.7250 C   0  0  0  0  0  3  0  0  0  0  0  0
  183.3850  178.6930  142.0980 C   0  0  0  0  0  0  0  0  0  0  0  0
  190.5000  177.3970  142.7990 C   0  0  0  0  0  0  0  0  0  0  0  0
  186.0540  178.3990  141.5580 C   0  0  0  0  0  0  0  0  0  0  0  0
  191.2950  177.3700  141.6300 C   0  0  0  0  0  3  0  0  0  0  0  0
  190.7400  177.6540  140.3690 C   0  0  0  0  0  3  0  0  0  0  0  0
  185.8830  178.6940  138.9990 S   0  0  0  0  0  0  0  0  0  0  0  0
  188.6050  177.9860  141.4680 C   0  0  0  0  0  0  0  0  0  0  0  0
  188.6370  178.2380  139.2110 N   0  0  0  0  0  0  0  0  0  0  0  0
  183.8170  178.7860  140.8040 N   0  0  0  0  0  0  0  0  0  0  0  0
  189.3810  177.9650  140.3150 C   0  0  0  0  0  0  0  0  0  0  0  0
  187.3320  178.2750  141.0450 C   0  0  0  0  0  0  0  0  0  0  0  0
  185.6120  178.3000  142.8700 C   0  0  0  0  0  3  0  0  0  0  0  0
  184.2790  178.4520  143.1100 N   0  0  0  0  0  0  0  0  0  0  0  0
  185.1370  178.6410  140.5400 C   0  0  0  0  0  0  0  0  0  0  0  0
  187.3940  178.4140  139.6990 C   0  0  0  0  0  0  0  0  0  0  0  0
  181.9580  178.8510  142.4070 C   0  0  0  0  0  0  0  0  0  0  0  0
  181.4880  178.6370  143.7400 N   0  0  0  0  0  2  0  0  0  0  0  0
  180.0870  178.7880  144.0950 C   0  0  0  0  0  1  0  0  0  0  0  0
  181.1490  179.1750  141.4950 O   0  0  0  0  0  0  0  0  0  0  0  0
  189.0500  178.2110  137.8140 C   0  0  0  0  0  2  0  0  0  0  0  0
  187.5990  176.9090  136.2070 C   0  0  0  0  0  3  0  0  0  0  0  0
  189.1440  175.6980  137.5200 C   0  0  0  0  0  3  0  0  0  0  0  0
  187.3960  175.2940  135.7810 S   0  0  0  0  0  0  0  0  0  0  0  0
  188.6050  176.9430  137.1700 C   0  0  0  0  0  0  0  0  0  0  0  0
  188.5640  174.6610  136.8110 C   0  0  0  0  0  0  0  0  0  0  0  0
  188.0190  172.3300  136.7440 N   0  0  0  0  0  2  0  0  0  0  0  0
  188.8980  173.2480  136.9710 C   0  0  0  0  0  3  0  0  0  0  0  0
  191.1170  177.0730  144.1150 C   0  0  0  0  0  2  0  0  0  0  0  0
  190.3980  177.8180  145.2270 C   0  0  0  0  0  2  0  0  0  0  0  0
  190.2180  176.9240  146.4420 C   0  0  0  0  0  2  0  0  0  0  0  0
  189.0580  178.6250  148.4540 O   0  0  0  0  0  1  0  0  0  0  0  0
  187.4120  177.9050  146.2240 C   0  0  0  0  0  1  0  0  0  0  0  0
  188.7170  177.3720  147.3690 P   0  0  1  0  0  0  0  0  0  0  0  0
  188.2330  176.1640  148.1400 O   0  0  0  0  0  0  0  0  0  0  0  0
  1  3  1  0  0  0  0
  2 17  1  0  0  0  0
  2 14  1  0  0  0  0
  3 29  1  0  0  0  0
  4 13  1  0  0  0  0
  5  3  2  0  0  0  0
  6  5  1  0  0  0  0
  7 16  1  0  0  0  0
  7 15  1  0  0  0  0
  8  1  2  0  0  0  0
  9 16  1  0  0  0  0
  9 11  1  0  0  0  0
 10  2  2  0  0  0  0
 11  6  2  0  0  0  0
 11  8  1  0  0  0  0
 12  8  1  0  0  0  0
 12  4  1  0  0  0  0
 13 14  2  0  0  0  0
 15 10  1  0  0  0  0
 15  4  2  0  0  0  0
 16 12  2  0  0  0  0
 17 18  1  0  0  0  0
 18 19  1  0  0  0  0
 20 17  2  0  0  0  0
 21  9  1  0  0  0  0
 22 25  2  0  0  0  0
 24 22  1  0  0  0  0
 24 26  1  0  0  0  0
 25 23  1  0  0  0  0
 25 21  1  0  0  0  0
 26 28  1  0  0  0  0
 26 23  2  0  0  0  0
 27 28  2  0  0  0  0
 29 30  1  0  0  0  0
 30 31  1  0  0  0  0
 31 34  1  0  0  0  0
 34 33  1  6  0  0  0
 34 35  2  0  0  0  0
 34 32  1  0  0  0  0
M  END
>  <MODEL>
7

>  <REMARK>
 VINA RESULT:      -7.4      3.489      6.577
  Name = 
  8 active torsions:
  status: ('A' for Active; 'I' for Inactive)
    1  A    between atoms: C_2  and  C_30
    2  A    between atoms: C_2  and  C_32
    3  A    between atoms: C_5  and  C_7
    4  A    between atoms: C_8  and  C_30
    5  A    between atoms: C_14  and  C_19
    6  A    between atoms: C_17  and  C_22
    7  A    between atoms: N_20  and  C_22
    8  A    between atoms: P_23  and  C_32
                            x       y       z     vdW  Elec       q    Type
                         _______ _______ _______ _____ _____    ______ ____

>  <TORSDO>
F 8

$$$$
=
 OpenBabel10232409413D

 35 39  0  0  0  0  0  0  0  0999 V2000
  186.1810  178.3770  141.4200 C   0  0  0  0  0  3  0  0  0  0  0  0
  190.2180  177.0690  145.4610 C   0  0  0  0  0  0  0  0  0  0  0  0
  185.2770  178.7590  140.4100 C   0  0  0  0  0  0  0  0  0  0  0  0
  188.9870  177.5140  143.0560 C   0  0  0  0  0  0  0  0  0  0  0  0
  185.6950  178.8350  139.0610 C   0  0  0  0  0  3  0  0  0  0  0  0
  187.0180  178.5250  138.6940 C   0  0  0  0  0  3  0  0  0  0  0  0
  191.0820  177.2210  141.5790 S   0  0  0  0  0  0  0  0  0  0  0  0
  187.4790  178.0700  141.0300 C   0  0  0  0  0  0  0  0  0  0  0  0
  189.2140  177.8300  139.5840 N   0  0  0  0  0  0  0  0  0  0  0  0
  190.9570  177.0060  144.3120 N   0  0  0  0  0  0  0  0  0  0  0  0
  187.8970  178.1390  139.7060 C   0  0  0  0  0  0  0  0  0  0  0  0
  188.5940  177.7120  141.7460 C   0  0  0  0  0  0  0  0  0  0  0  0
  188.2400  177.5830  144.2240 C   0  0  0  0  0  3  0  0  0  0  0  0
  188.8780  177.3550  145.4070 N   0  0  0  0  0  0  0  0  0  0  0  0
  190.3450  177.2260  143.1250 C   0  0  0  0  0  0  0  0  0  0  0  0
  189.6020  177.5820  140.8500 C   0  0  0  0  0  0  0  0  0  0  0  0
  190.8620  176.8300  146.7600 C   0  0  0  0  0  0  0  0  0  0  0  0
  192.0530  176.0440  146.8320 N   0  0  0  0  0  2  0  0  0  0  0  0
  192.7300  175.7870  148.0930 C   0  0  0  0  0  1  0  0  0  0  0  0
  190.3620  177.3210  147.8090 O   0  0  0  0  0  0  0  0  0  0  0  0
  190.0490  177.8860  138.3920 C   0  0  0  0  0  2  0  0  0  0  0  0
  189.2940  175.6630  137.4560 C   0  0  0  0  0  3  0  0  0  0  0  0
  191.6050  175.9660  137.8380 C   0  0  0  0  0  3  0  0  0  0  0  0
  190.0270  174.2180  137.0040 S   0  0  0  0  0  0  0  0  0  0  0  0
  190.3140  176.5100  137.8840 C   0  0  0  0  0  0  0  0  0  0  0  0
  191.6080  174.6700  137.3540 C   0  0  0  0  0  0  0  0  0  0  0  0
  193.8120  174.2370  136.5260 N   0  0  0  0  0  2  0  0  0  0  0  0
  192.7960  173.8320  137.2120 C   0  0  0  0  0  3  0  0  0  0  0  0
  183.8740  179.1110  140.7640 C   0  0  0  0  0  2  0  0  0  0  0  0
  183.3680  178.1960  141.8680 C   0  0  0  0  0  2  0  0  0  0  0  0
  182.6410  178.9950  142.9360 C   0  0  0  0  0  2  0  0  0  0  0  0
  180.4800  178.0680  141.2770 O   0  0  0  0  0  0  0  0  0  0  0  0
  179.9970  178.2560  144.0930 C   0  0  0  0  0  1  0  0  0  0  0  0
  180.8430  178.9770  142.6570 P   0  0  1  0  0  0  0  0  0  0  0  0
  180.3580  180.3960  142.4600 O   0  0  0  0  0  1  0  0  0  0  0  0
  2 17  1  0  0  0  0
  3 29  1  0  0  0  0
  3  1  2  0  0  0  0
  4 15  2  0  0  0  0
  4 13  1  0  0  0  0
  5  3  1  0  0  0  0
  6  5  2  0  0  0  0
  6 11  1  0  0  0  0
  7 15  1  0  0  0  0
  8  1  1  0  0  0  0
  8 12  1  0  0  0  0
  9 11  1  0  0  0  0
  9 16  1  0  0  0  0
 10  2  2  0  0  0  0
 11  8  2  0  0  0  0
 12  4  1  0  0  0  0
 13 14  2  0  0  0  0
 14  2  1  0  0  0  0
 15 10  1  0  0  0  0
 16  7  1  0  0  0  0
 16 12  2  0  0  0  0
 17 18  1  0  0  0  0
 17 20  2  0  0  0  0
 18 19  1  0  0  0  0
 21  9  1  0  0  0  0
 22 25  2  0  0  0  0
 23 25  1  0  0  0  0
 24 26  1  0  0  0  0
 24 22  1  0  0  0  0
 25 21  1  0  0  0  0
 26 23  2  0  0  0  0
 27 28  2  0  0  0  0
 28 26  1  0  0  0  0
 29 30  1  0  0  0  0
 30 31  1  0  0  0  0
 32 34  2  0  0  0  0
 34 31  1  0  0  0  0
 34 33  1  1  0  0  0
 35 34  1  0  0  0  0
M  END
>  <MODEL>
8

>  <REMARK>
 VINA RESULT:      -7.4      4.467      7.676
  Name = 
  8 active torsions:
  status: ('A' for Active; 'I' for Inactive)
    1  A    between atoms: C_2  and  C_30
    2  A    between atoms: C_2  and  C_32
    3  A    between atoms: C_5  and  C_7
    4  A    between atoms: C_8  and  C_30
    5  A    between atoms: C_14  and  C_19
    6  A    between atoms: C_17  and  C_22
    7  A    between atoms: N_20  and  C_22
    8  A    between atoms: P_23  and  C_32
                            x       y       z     vdW  Elec       q    Type
                         _______ _______ _______ _____ _____    ______ ____

>  <TORSDO>
F 8

$$$$
=
 OpenBabel10232409413D

 35 39  0  0  0  0  0  0  0  0999 V2000
  187.8590  177.9400  142.2640 C   0  0  0  0  0  3  0  0  0  0  0  0
  191.8490  176.6750  138.1620 C   0  0  0  0  0  0  0  0  0  0  0  0
  186.8800  178.3300  143.1980 C   0  0  0  0  0  0  0  0  0  0  0  0
  189.4950  177.3460  139.3880 C   0  0  0  0  0  0  0  0  0  0  0  0
  185.6070  178.7660  142.7650 C   0  0  0  0  0  3  0  0  0  0  0  0
  185.2830  178.8150  141.3970 C   0  0  0  0  0  3  0  0  0  0  0  0
  188.1450  177.7980  137.2350 S   0  0  0  0  0  0  0  0  0  0  0  0
  187.5120  177.9910  140.9190 C   0  0  0  0  0  0  0  0  0  0  0  0
  186.1780  178.4120  139.1300 N   0  0  0  0  0  0  0  0  0  0  0  0
  190.7680  177.0020  137.3930 N   0  0  0  0  0  0  0  0  0  0  0  0
  186.2610  178.4150  140.4860 C   0  0  0  0  0  0  0  0  0  0  0  0
  188.2230  177.7270  139.7740 C   0  0  0  0  0  0  0  0  0  0  0  0
  190.5960  177.0200  140.1670 C   0  0  0  0  0  3  0  0  0  0  0  0
  191.7550  176.6870  139.5300 N   0  0  0  0  0  0  0  0  0  0  0  0
  189.6040  177.3330  138.0020 C   0  0  0  0  0  0  0  0  0  0  0  0
  187.3950  177.9930  138.7360 C   0  0  0  0  0  0  0  0  0  0  0  0
  193.1200  176.3090  137.5210 C   0  0  0  0  0  0  0  0  0  0  0  0
  193.2000  176.2170  136.0970 N   0  0  0  0  0  2  0  0  0  0  0  0
  194.4360  175.8660  135.4170 C   0  0  0  0  0  1  0  0  0  0  0  0
  194.1380  176.0780  138.2290 O   0  0  0  0  0  0  0  0  0  0  0  0
  185.0830  178.8820  138.2910 C   0  0  0  0  0  2  0  0  0  0  0  0
  184.2960  177.0830  136.7000 C   0  0  0  0  0  3  0  0  0  0  0  0
  183.1690  177.2940  138.7650 C   0  0  0  0  0  3  0  0  0  0  0  0
  183.0930  175.9070  136.6890 S   0  0  0  0  0  0  0  0  0  0  0  0
  184.1930  177.7450  137.9220 C   0  0  0  0  0  0  0  0  0  0  0  0
  182.4570  176.2470  138.2070 C   0  0  0  0  0  0  0  0  0  0  0  0
  180.6060  174.7280  138.1770 N   0  0  0  0  0  2  0  0  0  0  0  0
  181.3180  175.5820  138.8340 C   0  0  0  0  0  3  0  0  0  0  0  0
  187.1940  178.3080  144.6530 C   0  0  0  0  0  2  0  0  0  0  0  0
  188.1470  177.1660  144.9650 C   0  0  0  0  0  2  0  0  0  0  0  0
  189.3300  177.6630  145.7790 C   0  0  0  0  0  2  0  0  0  0  0  0
  190.6950  176.1490  143.7470 O   0  0  0  0  0  0  0  0  0  0  0  0
  191.4490  178.8910  144.0810 C   0  0  0  0  0  1  0  0  0  0  0  0
  190.8990  177.3690  144.9030 P   0  0  1  0  0  0  0  0  0  0  0  0
  191.9500  176.9380  145.9010 O   0  0  0  0  0  1  0  0  0  0  0  0
  1  3  1  0  0  0  0
  2 14  1  0  0  0  0
  3 29  1  0  0  0  0
  4 12  1  0  0  0  0
  4 13  1  0  0  0  0
  5  3  2  0  0  0  0
  6  5  1  0  0  0  0
  7 15  1  0  0  0  0
  7 16  1  0  0  0  0
  8  1  2  0  0  0  0
  9 11  1  0  0  0  0
 10 15  1  0  0  0  0
 10  2  2  0  0  0  0
 11  8  1  0  0  0  0
 11  6  2  0  0  0  0
 12  8  1  0  0  0  0
 14 13  2  0  0  0  0
 15  4  2  0  0  0  0
 16  9  1  0  0  0  0
 16 12  2  0  0  0  0
 17  2  1  0  0  0  0
 17 20  2  0  0  0  0
 18 17  1  0  0  0  0
 19 18  1  0  0  0  0
 21  9  1  0  0  0  0
 22 25  2  0  0  0  0
 24 22  1  0  0  0  0
 24 26  1  0  0  0  0
 25 21  1  0  0  0  0
 25 23  1  0  0  0  0
 26 23  2  0  0  0  0
 26 28  1  0  0  0  0
 27 28  2  0  0  0  0
 29 30  1  0  0  0  0
 30 31  1  0  0  0  0
 32 34  2  0  0  0  0
 34 33  1  6  0  0  0
 34 31  1  0  0  0  0
 34 35  1  0  0  0  0
M  END
>  <MODEL>
9

>  <REMARK>
 VINA RESULT:      -7.1      1.589      2.017
  Name = 
  8 active torsions:
  status: ('A' for Active; 'I' for Inactive)
    1  A    between atoms: C_2  and  C_30
    2  A    between atoms: C_2  and  C_32
    3  A    between atoms: C_5  and  C_7
    4  A    between atoms: C_8  and  C_30
    5  A    between atoms: C_14  and  C_19
    6  A    between atoms: C_17  and  C_22
    7  A    between atoms: N_20  and  C_22
    8  A    between atoms: P_23  and  C_32
                            x       y       z     vdW  Elec       q    Type
                         _______ _______ _______ _____ _____    ______ ____

>  <TORSDO>
F 8

$$$$
