=
 OpenBabel10232411293D

 54 62  0  0  1  0  0  0  0  0999 V2000
  189.5660  176.9300  146.9290 N   0  0  0  0  0  1  0  0  0  0  0  0
  190.1080  177.2040  144.4200 C   0  0  0  0  0  3  0  0  0  0  0  0
  187.1320  178.3710  141.5620 C   0  0  0  0  0  0  0  0  0  0  0  0
  184.8250  178.9860  141.6440 C   0  0  2  0  0  3  0  0  0  0  0  0
  186.7650  177.6570  146.1520 C   0  0  0  0  0  1  0  0  0  0  0  0
  186.0110  178.7990  140.8150 N   0  0  0  0  0  2  0  0  0  0  0  0
  186.8790  178.1580  142.9370 N   0  0  0  0  0  0  0  0  0  0  0  0
  187.9480  177.7720  143.8020 C   0  0  0  0  0  0  0  0  0  0  0  0
  187.9330  177.5360  145.2330 C   0  0  0  0  0  0  0  0  0  0  0  0
  189.1650  177.5930  143.3230 C   0  0  0  0  0  0  0  0  0  0  0  0
  189.4520  177.7860  141.9150 N   0  0  0  0  0  0  0  0  0  0  0  0
  189.1680  177.2110  145.5900 C   0  0  2  0  0  3  0  0  0  0  0  0
  188.3620  178.1870  141.0420 C   0  0  0  0  0  0  0  0  0  0  0  0
  185.1960  178.4340  143.3720 S   0  0  0  0  0  0  0  0  0  0  0  0
  188.5930  178.4220  139.5810 C   0  0  0  0  0  1  0  0  0  0  0  0
  190.7650  177.6300  141.3440 C   0  0  0  0  0  3  0  0  0  0  0  0
  191.0070  177.0080  140.1950 C   0  0  0  0  0  3  0  0  0  0  0  0
  192.4000  176.8790  139.6840 C   0  0  0  0  0  2  0  0  0  0  0  0
  192.4000  176.8610  138.1610 C   0  0  0  0  0  2  0  0  0  0  0  0
  193.8460  174.9450  137.2300 C   0  0  1  0  0  0  0  0  0  0  0  0
  192.8750  175.3140  136.2690 O   0  0  0  0  0  0  0  0  0  0  0  0
  192.4980  175.4360  137.6240 C   0  0  2  0  0  0  0  0  0  0  0  0
  195.6430  170.8340  137.5350 C   0  0  0  0  0  2  0  0  0  0  0  0
  196.0070  172.1960  137.5450 O   0  0  0  0  0  0  0  0  0  0  0  0
  194.2320  170.5470  136.9810 C   0  0  1  0  0  3  0  0  0  0  0  0
  194.1200  173.5120  137.1610 N   0  0  0  0  0  0  0  0  0  0  0  0
  193.8200  171.4550  135.8610 C   0  0  0  0  0  3  0  0  0  0  0  0
  194.1530  169.1640  136.5460 N   0  0  0  0  0  1  0  0  0  0  0  0
  194.9810  172.9130  138.1780 C   0  0  0  0  0  2  0  0  0  0  0  0
  193.7380  172.7860  135.9780 C   0  0  0  0  0  3  0  0  0  0  0  0
  194.9460  175.8170  137.1670 O   0  0  0  0  0  0  0  0  0  0  0  0
  195.3800  175.8040  135.8370 C   0  0  0  0  0  1  0  0  0  0  0  0
  191.6050  174.4470  138.0720 O   0  0  0  0  0  0  0  0  0  0  0  0
  190.3810  174.6630  137.4220 C   0  0  0  0  0  2  0  0  0  0  0  0
  190.0550  173.1850  135.4840 C   0  0  0  0  0  2  0  0  0  0  0  0
  189.9060  173.3930  136.7910 C   0  0  0  0  0  3  0  0  0  0  0  0
  183.6750  178.1840  141.0650 C   0  0  0  0  0  2  0  0  0  0  0  0
  183.2030  178.8080  139.8440 N   0  0  0  0  0  2  0  0  0  0  0  0
  183.1510  177.7670  138.8320 C   0  0  0  0  0  2  0  0  0  0  0  0
  184.2830  177.9600  137.8410 C   0  0  0  0  0  2  0  0  0  0  0  0
  184.2070  176.9230  136.7350 C   0  0  1  0  0  3  0  0  0  0  0  0
  186.4100  176.7220  135.6060 C   0  0  1  0  0  0  0  0  0  0  0  0
  185.5090  176.1420  136.6740 C   0  0  1  0  0  3  0  0  0  0  0  0
  186.6670  177.0260  137.0870 C   0  0  2  0  0  3  0  0  0  0  0  0
  188.6800  176.6250  134.8150 C   0  0  0  0  0  2  0  0  0  0  0  0
  188.5470  177.8610  135.6890 C   0  0  0  0  0  2  0  0  0  0  0  0
  187.4870  175.7590  135.1540 C   0  0  0  0  0  2  0  0  0  0  0  0
  187.0700  178.0180  136.0150 C   0  0  1  0  0  3  0  0  0  0  0  0
  183.1050  176.0110  136.9950 N   0  0  0  0  0  2  0  0  0  0  0  0
  183.3170  174.8760  136.2020 N   0  0  0  0  0  2  0  0  0  0  0  0
  182.1970  173.9740  136.4410 C   0  0  2  0  0  3  0  0  0  0  0  0
  182.6510  172.5740  136.8610 C   0  0  1  0  0  3  0  0  0  0  0  0
  182.2250  172.8440  135.4340 C   0  0  0  0  0  2  0  0  0  0  0  0
  184.1020  172.4540  136.9210 N   0  0  0  0  0  1  0  0  0  0  0  0
  2 12  1  0  0  0  0
  3  7  1  0  0  0  0
  4 37  1  6  0  0  0
  4 14  1  0  0  0  0
  6  3  1  0  0  0  0
  6  4  1  0  0  0  0
  7 14  1  0  0  0  0
  7  8  1  0  0  0  0
  8  9  2  0  0  0  0
  9 12  1  0  0  0  0
  9  5  1  0  0  0  0
 10  8  1  0  0  0  0
 10  2  2  0  0  0  0
 11 10  1  0  0  0  0
 12  1  1  1  0  0  0
 13  3  2  0  0  0  0
 13 11  1  0  0  0  0
 15 13  1  0  0  0  0
 16 11  1  0  0  0  0
 17 16  2  0  0  0  0
 18 17  1  0  0  0  0
 19 18  1  0  0  0  0
 20 31  1  1  0  0  0
 20 22  1  0  0  0  0
 21 20  1  0  0  0  0
 21 22  1  0  0  0  0
 22 33  1  0  0  0  0
 22 19  1  1  0  0  0
 23 24  1  0  0  0  0
 24 29  1  0  0  0  0
 25 28  1  6  0  0  0
 25 23  1  0  0  0  0
 26 20  1  0  0  0  0
 26 29  1  0  0  0  0
 27 30  2  0  0  0  0
 27 25  1  0  0  0  0
 30 26  1  0  0  0  0
 32 31  1  0  0  0  0
 34 33  1  0  0  0  0
 35 36  2  0  0  0  0
 36 34  1  0  0  0  0
 38 37  1  0  0  0  0
 39 38  1  0  0  0  0
 40 39  1  0  0  0  0
 41 49  1  0  0  0  0
 41 40  1  1  0  0  0
 42 47  1  6  0  0  0
 42 48  1  0  0  0  0
 42 43  1  0  0  0  0
 42 44  1  0  0  0  0
 43 41  1  6  0  0  0
 43 44  1  0  0  0  0
 45 47  1  0  0  0  0
 45 46  1  0  0  0  0
 46 48  1  0  0  0  0
 48 44  1  0  0  0  0
 50 51  1  0  0  0  0
 50 49  1  0  0  0  0
 51 52  1  0  0  0  0
 52 54  1  0  0  0  0
 53 51  1  0  0  0  0
 53 52  1  0  0  0  0
M  END
>  <MODEL>
1

>  <REMARK>
 VINA RESULT:      -7.0      0.000      0.000
  Name = 
  18 active torsions:
  status: ('A' for Active; 'I' for Inactive)
    1  A    between atoms: C_3  and  N_17
    2  A    between atoms: C_3  and  O_33
    3  A    between atoms: C_5  and  O_36
    4  A    between atoms: C_5  and  C_47
    5  A    between atoms: C_7  and  C_46
    6  A    between atoms: C_7  and  C_48
    7  A    between atoms: C_9  and  C_48
    8  A    between atoms: C_10  and  N_32
    9  A    between atoms: C_12  and  C_22
   10  A    between atoms: C_12  and  N_26
   11  A    between atoms: C_15  and  N_40
   12  A    between atoms: C_16  and  C_25
   13  A    between atoms: C_16  and  C_44
   14  A    between atoms: N_26  and  C_46
   15  A    between atoms: N_32  and  N_38
   16  A    between atoms: O_36  and  C_45
   17  A    between atoms: N_38  and  C_48
   18  A    between atoms: C_44  and  C_45
                            x       y       z     vdW  Elec       q    Type
                         _______ _______ _______ _____ _____    ______ ____

>  <TORSDO>
F 18

$$$$
=
 OpenBabel10232411293D

 54 62  0  0  1  0  0  0  0  0999 V2000
  184.9570  178.4930  146.8110 N   0  0  0  0  0  1  0  0  0  0  0  0
  184.9810  178.7840  144.2460 C   0  0  0  0  0  3  0  0  0  0  0  0
  188.3370  177.6060  141.8520 C   0  0  0  0  0  0  0  0  0  0  0  0
  190.4450  176.5570  142.2550 C   0  0  2  0  0  3  0  0  0  0  0  0
  187.7240  177.3970  146.4670 C   0  0  0  0  0  1  0  0  0  0  0  0
  189.5250  177.1130  141.2670 N   0  0  0  0  0  2  0  0  0  0  0  0
  188.2910  177.5150  143.2620 N   0  0  0  0  0  0  0  0  0  0  0  0
  187.1180  177.9350  143.9610 C   0  0  0  0  0  0  0  0  0  0  0  0
  186.8330  177.9030  145.3830 C   0  0  0  0  0  0  0  0  0  0  0  0
  186.0860  178.4270  143.3010 C   0  0  0  0  0  0  0  0  0  0  0  0
  186.1100  178.5490  141.8560 N   0  0  0  0  0  0  0  0  0  0  0  0
  185.6110  178.3870  145.5500 C   0  0  2  0  0  3  0  0  0  0  0  0
  187.3030  178.1120  141.1510 C   0  0  0  0  0  0  0  0  0  0  0  0
  189.7670  176.8480  143.9520 S   0  0  0  0  0  0  0  0  0  0  0  0
  187.3860  178.1930  139.6580 C   0  0  0  0  0  1  0  0  0  0  0  0
  185.0040  179.0530  141.0840 C   0  0  0  0  0  3  0  0  0  0  0  0
  183.9470  178.3250  140.7370 C   0  0  0  0  0  3  0  0  0  0  0  0
  182.8510  178.9210  139.9240 C   0  0  0  0  0  2  0  0  0  0  0  0
  183.2560  178.9750  138.4570 C   0  0  0  0  0  2  0  0  0  0  0  0
  183.7970  176.7700  137.2410 C   0  0  1  0  0  0  0  0  0  0  0  0
  183.1530  177.6560  136.3470 O   0  0  0  0  0  0  0  0  0  0  0  0
  182.7680  177.7410  137.7020 C   0  0  2  0  0  0  0  0  0  0  0  0
  183.6090  172.2890  136.9150 C   0  0  0  0  0  2  0  0  0  0  0  0
  184.5240  173.3370  137.1490 O   0  0  0  0  0  0  0  0  0  0  0  0
  182.2660  172.7300  136.2990 C   0  0  1  0  0  3  0  0  0  0  0  0
  183.4300  175.3870  136.9490 N   0  0  0  0  0  0  0  0  0  0  0  0
  182.3830  173.8700  135.3320 C   0  0  0  0  0  3  0  0  0  0  0  0
  181.6340  171.5970  135.6470 N   0  0  0  0  0  1  0  0  0  0  0  0
  183.8580  174.3380  137.8710 C   0  0  0  0  0  2  0  0  0  0  0  0
  182.8750  175.0720  135.6590 C   0  0  0  0  0  3  0  0  0  0  0  0
  185.1670  177.0720  137.3220 O   0  0  0  0  0  0  0  0  0  0  0  0
  185.6400  177.0990  136.0060 C   0  0  0  0  0  1  0  0  0  0  0  0
  181.5060  177.1910  137.9850 O   0  0  0  0  0  0  0  0  0  0  0  0
  180.6190  177.6530  137.0020 C   0  0  0  0  0  2  0  0  0  0  0  0
  179.9820  179.9540  136.4110 C   0  0  0  0  0  2  0  0  0  0  0  0
  180.1370  179.0250  137.3530 C   0  0  0  0  0  3  0  0  0  0  0  0
  191.8040  177.2150  142.1040 C   0  0  0  0  0  2  0  0  0  0  0  0
  191.9940  177.6470  140.7330 N   0  0  0  0  0  2  0  0  0  0  0  0
  193.2830  177.1330  140.3050 C   0  0  0  0  0  2  0  0  0  0  0  0
  193.3220  177.0430  138.7910 C   0  0  0  0  0  2  0  0  0  0  0  0
  192.4550  175.8970  138.3020 C   0  0  1  0  0  3  0  0  0  0  0  0
  190.8910  175.1590  136.5190 C   0  0  1  0  0  0  0  0  0  0  0  0
  191.7240  176.3110  137.0360 C   0  0  1  0  0  3  0  0  0  0  0  0
  190.2290  176.3170  137.2750 C   0  0  2  0  0  3  0  0  0  0  0  0
  189.1530  174.6700  134.9290 C   0  0  0  0  0  2  0  0  0  0  0  0
  188.5030  174.8190  136.2940 C   0  0  0  0  0  2  0  0  0  0  0  0
  190.5190  175.3080  135.0590 C   0  0  0  0  0  2  0  0  0  0  0  0
  189.6270  174.9280  137.3130 C   0  0  1  0  0  3  0  0  0  0  0  0
  193.2880  174.7380  138.0250 N   0  0  0  0  0  2  0  0  0  0  0  0
  194.5990  175.2050  137.8660 N   0  0  0  0  0  2  0  0  0  0  0  0
  195.4600  174.3360  138.6580 C   0  0  2  0  0  3  0  0  0  0  0  0
  196.4750  173.5750  137.8010 C   0  0  1  0  0  3  0  0  0  0  0  0
  195.2150  172.8900  138.2840 C   0  0  0  0  0  2  0  0  0  0  0  0
  196.3470  173.8840  136.3830 N   0  0  0  0  0  1  0  0  0  0  0  0
  2 12  1  0  0  0  0
  3  7  1  0  0  0  0
  4 37  1  1  0  0  0
  4 14  1  0  0  0  0
  6  3  1  0  0  0  0
  6  4  1  0  0  0  0
  7 14  1  0  0  0  0
  7  8  1  0  0  0  0
  8  9  2  0  0  0  0
  9 12  1  0  0  0  0
  9  5  1  0  0  0  0
 10  8  1  0  0  0  0
 10  2  2  0  0  0  0
 11 10  1  0  0  0  0
 12  1  1  6  0  0  0
 13  3  2  0  0  0  0
 13 11  1  0  0  0  0
 15 13  1  0  0  0  0
 16 11  1  0  0  0  0
 17 16  2  0  0  0  0
 18 17  1  0  0  0  0
 19 18  1  0  0  0  0
 20 31  1  1  0  0  0
 20 22  1  0  0  0  0
 21 20  1  0  0  0  0
 21 22  1  0  0  0  0
 22 33  1  0  0  0  0
 22 19  1  1  0  0  0
 23 24  1  0  0  0  0
 24 29  1  0  0  0  0
 25 28  1  6  0  0  0
 25 23  1  0  0  0  0
 26 20  1  0  0  0  0
 26 29  1  0  0  0  0
 27 30  2  0  0  0  0
 27 25  1  0  0  0  0
 30 26  1  0  0  0  0
 32 31  1  0  0  0  0
 34 36  1  0  0  0  0
 34 33  1  0  0  0  0
 35 36  2  0  0  0  0
 38 37  1  0  0  0  0
 39 38  1  0  0  0  0
 40 39  1  0  0  0  0
 41 40  1  6  0  0  0
 42 47  1  6  0  0  0
 42 43  1  0  0  0  0
 42 44  1  0  0  0  0
 42 48  1  0  0  0  0
 43 44  1  0  0  0  0
 43 41  1  1  0  0  0
 44 48  1  0  0  0  0
 45 47  1  0  0  0  0
 45 46  1  0  0  0  0
 46 48  1  0  0  0  0
 49 41  1  0  0  0  0
 50 49  1  0  0  0  0
 50 51  1  0  0  0  0
 52 53  1  0  0  0  0
 52 51  1  0  0  0  0
 53 51  1  0  0  0  0
 54 52  1  0  0  0  0
M  END
>  <MODEL>
2

>  <REMARK>
 VINA RESULT:      -6.7      3.176      8.601
  Name = 
  18 active torsions:
  status: ('A' for Active; 'I' for Inactive)
    1  A    between atoms: C_3  and  N_17
    2  A    between atoms: C_3  and  O_33
    3  A    between atoms: C_5  and  O_36
    4  A    between atoms: C_5  and  C_47
    5  A    between atoms: C_7  and  C_46
    6  A    between atoms: C_7  and  C_48
    7  A    between atoms: C_9  and  C_48
    8  A    between atoms: C_10  and  N_32
    9  A    between atoms: C_12  and  C_22
   10  A    between atoms: C_12  and  N_26
   11  A    between atoms: C_15  and  N_40
   12  A    between atoms: C_16  and  C_25
   13  A    between atoms: C_16  and  C_44
   14  A    between atoms: N_26  and  C_46
   15  A    between atoms: N_32  and  N_38
   16  A    between atoms: O_36  and  C_45
   17  A    between atoms: N_38  and  C_48
   18  A    between atoms: C_44  and  C_45
                            x       y       z     vdW  Elec       q    Type
                         _______ _______ _______ _____ _____    ______ ____

>  <TORSDO>
F 18

$$$$
=
 OpenBabel10232411293D

 54 62  0  0  1  0  0  0  0  0999 V2000
  186.1530  177.9910  146.5480 N   0  0  0  0  0  1  0  0  0  0  0  0
  185.6230  178.4240  144.0590 C   0  0  0  0  0  3  0  0  0  0  0  0
  188.4500  177.5760  140.9480 C   0  0  0  0  0  0  0  0  0  0  0  0
  190.6400  176.6310  140.8350 C   0  0  2  0  0  3  0  0  0  0  0  0
  188.8330  177.0780  145.5670 C   0  0  0  0  0  1  0  0  0  0  0  0
  189.5100  177.1860  140.0990 N   0  0  0  0  0  2  0  0  0  0  0  0
  188.7060  177.4050  142.3290 N   0  0  0  0  0  0  0  0  0  0  0  0
  187.6890  177.7170  143.2820 C   0  0  0  0  0  0  0  0  0  0  0  0
  187.7110  177.5900  144.7260 C   0  0  0  0  0  0  0  0  0  0  0  0
  186.5200  178.1840  142.8840 C   0  0  0  0  0  0  0  0  0  0  0  0
  186.2340  178.3870  141.4770 N   0  0  0  0  0  0  0  0  0  0  0  0
  186.5310  177.9940  145.1750 C   0  0  2  0  0  3  0  0  0  0  0  0
  187.2700  178.0580  140.5130 C   0  0  0  0  0  0  0  0  0  0  0  0
  190.3230  176.7880  142.6520 S   0  0  0  0  0  0  0  0  0  0  0  0
  187.0330  178.2260  139.0430 C   0  0  0  0  0  1  0  0  0  0  0  0
  184.9680  178.8670  140.9860 C   0  0  0  0  0  3  0  0  0  0  0  0
  183.8930  178.1010  140.8280 C   0  0  0  0  0  3  0  0  0  0  0  0
  182.6250  178.6770  140.3000 C   0  0  0  0  0  2  0  0  0  0  0  0
  182.5840  178.5530  138.7830 C   0  0  0  0  0  2  0  0  0  0  0  0
  183.0410  176.6160  137.1490 C   0  0  1  0  0  0  0  0  0  0  0  0
  181.6680  176.9550  137.1080 O   0  0  0  0  0  0  0  0  0  0  0  0
  182.3180  177.1140  138.3510 C   0  0  2  0  0  0  0  0  0  0  0  0
  182.4860  172.1820  136.6470 C   0  0  0  0  0  2  0  0  0  0  0  0
  181.8580  173.3120  137.2110 O   0  0  0  0  0  0  0  0  0  0  0  0
  183.9760  172.3780  136.3000 C   0  0  1  0  0  3  0  0  0  0  0  0
  183.2230  175.1820  136.9370 N   0  0  0  0  0  0  0  0  0  0  0  0
  184.7150  173.2630  137.2580 C   0  0  0  0  0  3  0  0  0  0  0  0
  184.6310  171.0850  136.2210 N   0  0  0  0  0  1  0  0  0  0  0  0
  182.1160  174.4100  136.3780 C   0  0  0  0  0  2  0  0  0  0  0  0
  184.3800  174.5370  137.5000 C   0  0  0  0  0  3  0  0  0  0  0  0
  183.7800  177.4890  136.3340 O   0  0  0  0  0  0  0  0  0  0  0  0
  183.4840  177.1370  135.0130 C   0  0  0  0  0  1  0  0  0  0  0  0
  181.9960  176.1350  139.3070 O   0  0  0  0  0  0  0  0  0  0  0  0
  180.6000  176.0020  139.3150 C   0  0  0  0  0  2  0  0  0  0  0  0
  179.9830  174.5360  141.1900 C   0  0  0  0  0  2  0  0  0  0  0  0
  180.2160  174.6740  139.8850 C   0  0  0  0  0  3  0  0  0  0  0  0
  191.9060  177.3740  140.4500 C   0  0  0  0  0  2  0  0  0  0  0  0
  192.0420  177.4010  139.0060 N   0  0  0  0  0  2  0  0  0  0  0  0
  193.1750  176.5550  138.6750 C   0  0  0  0  0  2  0  0  0  0  0  0
  193.3990  176.5650  137.1740 C   0  0  0  0  0  2  0  0  0  0  0  0
  193.6760  175.1620  136.6660 C   0  0  1  0  0  3  0  0  0  0  0  0
  194.8930  173.0460  137.1290 C   0  0  1  0  0  0  0  0  0  0  0  0
  194.5360  174.4130  137.6710 C   0  0  1  0  0  3  0  0  0  0  0  0
  195.9210  174.1830  137.1040 C   0  0  2  0  0  3  0  0  0  0  0  0
  196.3590  171.1870  137.5550 C   0  0  0  0  0  2  0  0  0  0  0  0
  196.9880  172.0310  136.4600 C   0  0  0  0  0  2  0  0  0  0  0  0
  195.3250  172.0770  138.2090 C   0  0  0  0  0  2  0  0  0  0  0  0
  195.9620  173.0830  136.0640 C   0  0  1  0  0  3  0  0  0  0  0  0
  192.4210  174.4540  136.4780 N   0  0  0  0  0  2  0  0  0  0  0  0
  191.5120  175.3700  135.9320 N   0  0  0  0  0  2  0  0  0  0  0  0
  190.3660  174.6030  135.4610 C   0  0  2  0  0  3  0  0  0  0  0  0
  189.0640  175.4070  135.5050 C   0  0  1  0  0  3  0  0  0  0  0  0
  189.3800  174.4050  136.5940 C   0  0  0  0  0  2  0  0  0  0  0  0
  189.2610  176.7580  136.0140 N   0  0  0  0  0  1  0  0  0  0  0  0
  2 12  1  0  0  0  0
  3  7  1  0  0  0  0
  4 37  1  6  0  0  0
  4 14  1  0  0  0  0
  6  4  1  0  0  0  0
  6  3  1  0  0  0  0
  7 14  1  0  0  0  0
  7  8  1  0  0  0  0
  8  9  2  0  0  0  0
  9 12  1  0  0  0  0
  9  5  1  0  0  0  0
 10  8  1  0  0  0  0
 10  2  2  0  0  0  0
 11 10  1  0  0  0  0
 12  1  1  6  0  0  0
 13  3  2  0  0  0  0
 13 11  1  0  0  0  0
 15 13  1  0  0  0  0
 16 11  1  0  0  0  0
 17 16  2  0  0  0  0
 18 17  1  0  0  0  0
 19 18  1  0  0  0  0
 20 31  1  6  0  0  0
 20 22  1  0  0  0  0
 21 20  1  0  0  0  0
 21 22  1  0  0  0  0
 22 19  1  1  0  0  0
 22 33  1  0  0  0  0
 23 24  1  0  0  0  0
 25 28  1  1  0  0  0
 25 23  1  0  0  0  0
 25 27  1  0  0  0  0
 26 20  1  0  0  0  0
 26 30  1  0  0  0  0
 27 30  2  0  0  0  0
 29 26  1  0  0  0  0
 29 24  1  0  0  0  0
 32 31  1  0  0  0  0
 33 34  1  0  0  0  0
 34 36  1  0  0  0  0
 36 35  2  0  0  0  0
 38 37  1  0  0  0  0
 39 38  1  0  0  0  0
 40 39  1  0  0  0  0
 41 40  1  1  0  0  0
 42 43  1  0  0  0  0
 42 47  1  1  0  0  0
 43 41  1  6  0  0  0
 44 42  1  0  0  0  0
 44 43  1  0  0  0  0
 45 47  1  0  0  0  0
 46 45  1  0  0  0  0
 48 46  1  0  0  0  0
 48 44  1  0  0  0  0
 48 42  1  0  0  0  0
 49 41  1  0  0  0  0
 50 49  1  0  0  0  0
 51 52  1  0  0  0  0
 51 50  1  0  0  0  0
 51 53  1  0  0  0  0
 52 54  1  0  0  0  0
 52 53  1  0  0  0  0
M  END
>  <MODEL>
3

>  <REMARK>
 VINA RESULT:      -5.9      3.486      8.642
  Name = 
  18 active torsions:
  status: ('A' for Active; 'I' for Inactive)
    1  A    between atoms: C_3  and  N_17
    2  A    between atoms: C_3  and  O_33
    3  A    between atoms: C_5  and  O_36
    4  A    between atoms: C_5  and  C_47
    5  A    between atoms: C_7  and  C_46
    6  A    between atoms: C_7  and  C_48
    7  A    between atoms: C_9  and  C_48
    8  A    between atoms: C_10  and  N_32
    9  A    between atoms: C_12  and  C_22
   10  A    between atoms: C_12  and  N_26
   11  A    between atoms: C_15  and  N_40
   12  A    between atoms: C_16  and  C_25
   13  A    between atoms: C_16  and  C_44
   14  A    between atoms: N_26  and  C_46
   15  A    between atoms: N_32  and  N_38
   16  A    between atoms: O_36  and  C_45
   17  A    between atoms: N_38  and  C_48
   18  A    between atoms: C_44  and  C_45
                            x       y       z     vdW  Elec       q    Type
                         _______ _______ _______ _____ _____    ______ ____

>  <TORSDO>
F 18

$$$$
=
 OpenBabel10232411293D

 54 62  0  0  1  0  0  0  0  0999 V2000
  190.1800  176.7500  145.7250 N   0  0  0  0  0  1  0  0  0  0  0  0
  190.5570  177.0510  143.1890 C   0  0  0  0  0  3  0  0  0  0  0  0
  187.4270  178.3440  140.5600 C   0  0  0  0  0  0  0  0  0  0  0  0
  185.1490  179.0190  140.8100 C   0  0  2  0  0  3  0  0  0  0  0  0
  187.3540  177.5640  145.1540 C   0  0  0  0  0  1  0  0  0  0  0  0
  186.2700  178.8150  139.8980 N   0  0  0  0  0  2  0  0  0  0  0  0
  187.2620  178.1150  141.9460 N   0  0  0  0  0  0  0  0  0  0  0  0
  188.3770  177.6870  142.7300 C   0  0  0  0  0  0  0  0  0  0  0  0
  188.4530  177.4270  144.1550 C   0  0  0  0  0  0  0  0  0  0  0  0
  189.5520  177.4830  142.1660 C   0  0  0  0  0  0  0  0  0  0  0  0
  189.7480  177.6910  140.7440 N   0  0  0  0  0  0  0  0  0  0  0  0
  189.7000  177.0630  144.4210 C   0  0  2  0  0  3  0  0  0  0  0  0
  188.6120  178.1360  139.9550 C   0  0  0  0  0  0  0  0  0  0  0  0
  185.6210  178.4300  142.4990 S   0  0  0  0  0  0  0  0  0  0  0  0
  188.7500  178.3890  138.4850 C   0  0  0  0  0  1  0  0  0  0  0  0
  191.0140  177.5100  140.0830 C   0  0  0  0  0  3  0  0  0  0  0  0
  191.2700  176.5320  139.2210 C   0  0  0  0  0  3  0  0  0  0  0  0
  192.6140  176.4090  138.5910 C   0  0  0  0  0  2  0  0  0  0  0  0
  192.4730  176.2220  137.0870 C   0  0  0  0  0  2  0  0  0  0  0  0
  194.2610  174.4030  136.7270 C   0  0  1  0  0  0  0  0  0  0  0  0
  193.6100  174.6740  135.5010 O   0  0  0  0  0  0  0  0  0  0  0  0
  192.8270  174.7970  136.6700 C   0  0  2  0  0  0  0  0  0  0  0  0
  196.1540  170.4540  137.7460 C   0  0  0  0  0  2  0  0  0  0  0  0
  196.4060  171.8400  137.8010 O   0  0  0  0  0  0  0  0  0  0  0  0
  194.9990  170.0440  136.8090 C   0  0  1  0  0  3  0  0  0  0  0  0
  194.6390  172.9950  136.8090 N   0  0  0  0  0  0  0  0  0  0  0  0
  194.8830  170.8900  135.5760 C   0  0  0  0  0  3  0  0  0  0  0  0
  195.1480  168.6490  136.4350 N   0  0  0  0  0  1  0  0  0  0  0  0
  195.1920  172.4900  138.0640 C   0  0  0  0  0  2  0  0  0  0  0  0
  194.6810  172.2140  135.6010 C   0  0  0  0  0  3  0  0  0  0  0  0
  195.2660  175.3570  136.9630 O   0  0  0  0  0  0  0  0  0  0  0  0
  196.0930  175.3410  135.8350 C   0  0  0  0  0  1  0  0  0  0  0  0
  191.9080  173.7520  136.8690 O   0  0  0  0  0  0  0  0  0  0  0  0
  191.0670  173.7160  135.7480 C   0  0  0  0  0  2  0  0  0  0  0  0
  188.9970  173.3740  137.0310 C   0  0  0  0  0  2  0  0  0  0  0  0
  189.6750  174.0970  136.1410 C   0  0  0  0  0  3  0  0  0  0  0  0
  183.9400  178.2580  140.2990 C   0  0  0  0  0  2  0  0  0  0  0  0
  183.7420  178.5340  138.8890 N   0  0  0  0  0  2  0  0  0  0  0  0
  183.8020  177.2570  138.1990 C   0  0  0  0  0  2  0  0  0  0  0  0
  183.3360  177.4280  136.7650 C   0  0  0  0  0  2  0  0  0  0  0  0
  182.5650  176.2050  136.3040 C   0  0  1  0  0  3  0  0  0  0  0  0
  184.1490  174.3020  136.5110 C   0  0  1  0  0  0  0  0  0  0  0  0
  183.4930  175.2680  135.5490 C   0  0  1  0  0  3  0  0  0  0  0  0
  182.9800  173.8470  135.6300 C   0  0  2  0  0  3  0  0  0  0  0  0
  185.4460  172.2770  136.5390 C   0  0  0  0  0  2  0  0  0  0  0  0
  183.9970  171.9020  136.8000 C   0  0  0  0  0  2  0  0  0  0  0  0
  185.4040  173.6690  135.9500 C   0  0  0  0  0  2  0  0  0  0  0  0
  183.2260  173.2010  136.9780 C   0  0  1  0  0  3  0  0  0  0  0  0
  182.0100  175.5150  137.4560 N   0  0  0  0  0  2  0  0  0  0  0  0
  180.6680  175.9020  137.5580 N   0  0  0  0  0  2  0  0  0  0  0  0
  180.1720  175.3900  138.8300 C   0  0  2  0  0  3  0  0  0  0  0  0
  179.9870  176.4930  139.8740 C   0  0  1  0  0  3  0  0  0  0  0  0
  181.2110  175.6040  139.9100 C   0  0  0  0  0  2  0  0  0  0  0  0
  180.3540  177.8080  139.3660 N   0  0  0  0  0  1  0  0  0  0  0  0
  2 12  1  0  0  0  0
  3  7  1  0  0  0  0
  4 37  1  6  0  0  0
  4 14  1  0  0  0  0
  6  3  1  0  0  0  0
  6  4  1  0  0  0  0
  7 14  1  0  0  0  0
  7  8  1  0  0  0  0
  8  9  2  0  0  0  0
  9 12  1  0  0  0  0
  9  5  1  0  0  0  0
 10  8  1  0  0  0  0
 10  2  2  0  0  0  0
 11 10  1  0  0  0  0
 12  1  1  1  0  0  0
 13  3  2  0  0  0  0
 13 11  1  0  0  0  0
 15 13  1  0  0  0  0
 16 11  1  0  0  0  0
 17 16  2  0  0  0  0
 18 17  1  0  0  0  0
 19 18  1  0  0  0  0
 20 26  1  0  0  0  0
 20 31  1  1  0  0  0
 21 22  1  0  0  0  0
 21 20  1  0  0  0  0
 22 20  1  0  0  0  0
 22 33  1  0  0  0  0
 22 19  1  1  0  0  0
 23 24  1  0  0  0  0
 24 29  1  0  0  0  0
 25 28  1  6  0  0  0
 25 23  1  0  0  0  0
 26 29  1  0  0  0  0
 27 30  2  0  0  0  0
 27 25  1  0  0  0  0
 30 26  1  0  0  0  0
 32 31  1  0  0  0  0
 34 36  1  0  0  0  0
 34 33  1  0  0  0  0
 36 35  2  0  0  0  0
 38 37  1  0  0  0  0
 39 38  1  0  0  0  0
 40 39  1  0  0  0  0
 41 40  1  1  0  0  0
 41 49  1  0  0  0  0
 42 47  1  6  0  0  0
 42 48  1  0  0  0  0
 43 44  1  0  0  0  0
 43 41  1  1  0  0  0
 43 42  1  0  0  0  0
 44 42  1  0  0  0  0
 44 48  1  0  0  0  0
 45 46  1  0  0  0  0
 46 48  1  0  0  0  0
 47 45  1  0  0  0  0
 49 50  1  0  0  0  0
 50 51  1  0  0  0  0
 51 52  1  0  0  0  0
 51 53  1  0  0  0  0
 52 53  1  0  0  0  0
 54 52  1  0  0  0  0
M  END
>  <MODEL>
4

>  <REMARK>
 VINA RESULT:      -5.8      1.507      2.620
  Name = 
  18 active torsions:
  status: ('A' for Active; 'I' for Inactive)
    1  A    between atoms: C_3  and  N_17
    2  A    between atoms: C_3  and  O_33
    3  A    between atoms: C_5  and  O_36
    4  A    between atoms: C_5  and  C_47
    5  A    between atoms: C_7  and  C_46
    6  A    between atoms: C_7  and  C_48
    7  A    between atoms: C_9  and  C_48
    8  A    between atoms: C_10  and  N_32
    9  A    between atoms: C_12  and  C_22
   10  A    between atoms: C_12  and  N_26
   11  A    between atoms: C_15  and  N_40
   12  A    between atoms: C_16  and  C_25
   13  A    between atoms: C_16  and  C_44
   14  A    between atoms: N_26  and  C_46
   15  A    between atoms: N_32  and  N_38
   16  A    between atoms: O_36  and  C_45
   17  A    between atoms: N_38  and  C_48
   18  A    between atoms: C_44  and  C_45
                            x       y       z     vdW  Elec       q    Type
                         _______ _______ _______ _____ _____    ______ ____

>  <TORSDO>
F 18

$$$$
=
 OpenBabel10232411293D

 54 62  0  0  1  0  0  0  0  0999 V2000
  186.3190  177.7900  146.8290 N   0  0  0  0  0  1  0  0  0  0  0  0
  185.9100  178.3360  144.3390 C   0  0  0  0  0  3  0  0  0  0  0  0
  188.9170  177.7090  141.3470 C   0  0  0  0  0  0  0  0  0  0  0  0
  191.1340  176.8200  141.3060 C   0  0  2  0  0  3  0  0  0  0  0  0
  189.0690  176.9880  145.9490 C   0  0  0  0  0  1  0  0  0  0  0  0
  190.0300  177.3860  140.5380 N   0  0  0  0  0  2  0  0  0  0  0  0
  189.1040  177.4750  142.7290 N   0  0  0  0  0  0  0  0  0  0  0  0
  188.0310  177.7160  143.6400 C   0  0  0  0  0  0  0  0  0  0  0  0
  187.9800  177.5160  145.0760 C   0  0  0  0  0  0  0  0  0  0  0  0
  186.8730  178.1750  143.2040 C   0  0  0  0  0  0  0  0  0  0  0  0
  186.6570  178.4430  141.7950 N   0  0  0  0  0  0  0  0  0  0  0  0
  186.7680  177.8700  145.4800 C   0  0  2  0  0  3  0  0  0  0  0  0
  187.7500  178.1870  140.8730 C   0  0  0  0  0  0  0  0  0  0  0  0
  190.7170  176.8790  143.1080 S   0  0  0  0  0  0  0  0  0  0  0  0
  187.5860  178.4230  139.4030 C   0  0  0  0  0  1  0  0  0  0  0  0
  185.4070  178.9180  141.2610 C   0  0  0  0  0  3  0  0  0  0  0  0
  184.4150  178.1240  140.8700 C   0  0  0  0  0  3  0  0  0  0  0  0
  183.1580  178.7000  140.3150 C   0  0  0  0  0  2  0  0  0  0  0  0
  183.3180  178.9680  138.8250 C   0  0  0  0  0  2  0  0  0  0  0  0
  183.8340  176.8140  137.5130 C   0  0  1  0  0  0  0  0  0  0  0  0
  183.2440  177.7640  136.6470 O   0  0  0  0  0  0  0  0  0  0  0  0
  182.8190  177.7910  137.9930 C   0  0  2  0  0  0  0  0  0  0  0  0
  183.4870  172.3590  137.0050 C   0  0  0  0  0  2  0  0  0  0  0  0
  184.4200  173.3560  137.3570 O   0  0  0  0  0  0  0  0  0  0  0  0
  182.2250  172.8810  136.2880 C   0  0  1  0  0  3  0  0  0  0  0  0
  183.4360  175.4590  137.1370 N   0  0  0  0  0  0  0  0  0  0  0  0
  182.4760  174.0460  135.3790 C   0  0  0  0  0  3  0  0  0  0  0  0
  181.6070  171.8000  135.5420 N   0  0  0  0  0  1  0  0  0  0  0  0
  183.7360  174.3620  138.0550 C   0  0  0  0  0  2  0  0  0  0  0  0
  182.9870  175.2130  135.7920 C   0  0  0  0  0  3  0  0  0  0  0  0
  185.2080  177.0700  137.6490 O   0  0  0  0  0  0  0  0  0  0  0  0
  185.7410  177.0460  136.3570 C   0  0  0  0  0  1  0  0  0  0  0  0
  181.5330  177.2650  138.2090 O   0  0  0  0  0  0  0  0  0  0  0  0
  180.6530  178.3500  138.3330 C   0  0  0  0  0  2  0  0  0  0  0  0
  180.2220  180.0320  136.5920 C   0  0  0  0  0  2  0  0  0  0  0  0
  180.1550  178.7600  136.9840 C   0  0  0  0  0  3  0  0  0  0  0  0
  192.3990  177.6100  141.0260 C   0  0  0  0  0  2  0  0  0  0  0  0
  192.6740  177.6130  139.6020 N   0  0  0  0  0  2  0  0  0  0  0  0
  192.4940  176.2500  139.1370 C   0  0  0  0  0  2  0  0  0  0  0  0
  192.8250  176.1660  137.6580 C   0  0  0  0  0  2  0  0  0  0  0  0
  192.7420  174.7300  137.1720 C   0  0  1  0  0  3  0  0  0  0  0  0
  194.7050  173.2960  136.6640 C   0  0  1  0  0  0  0  0  0  0  0  0
  193.8820  173.9210  137.7680 C   0  0  1  0  0  3  0  0  0  0  0  0
  195.2120  174.5420  137.3990 C   0  0  2  0  0  3  0  0  0  0  0  0
  196.7970  172.1650  136.2970 C   0  0  0  0  0  2  0  0  0  0  0  0
  196.9870  173.6240  135.9170 C   0  0  0  0  0  2  0  0  0  0  0  0
  195.5410  172.1260  137.1390 C   0  0  0  0  0  2  0  0  0  0  0  0
  195.6130  174.2780  135.9620 C   0  0  1  0  0  3  0  0  0  0  0  0
  191.4720  174.1510  137.5750 N   0  0  0  0  0  2  0  0  0  0  0  0
  190.7450  173.9020  136.4040 N   0  0  0  0  0  2  0  0  0  0  0  0
  189.6440  174.8570  136.3740 C   0  0  2  0  0  3  0  0  0  0  0  0
  188.6770  174.6020  135.2150 C   0  0  1  0  0  3  0  0  0  0  0  0
  189.7230  175.6910  135.1130 C   0  0  0  0  0  2  0  0  0  0  0  0
  189.0780  173.4650  134.3970 N   0  0  0  0  0  1  0  0  0  0  0  0
  2 12  1  0  0  0  0
  3  7  1  0  0  0  0
  4 37  1  1  0  0  0
  4 14  1  0  0  0  0
  6  4  1  0  0  0  0
  6  3  1  0  0  0  0
  7 14  1  0  0  0  0
  7  8  1  0  0  0  0
  8  9  2  0  0  0  0
  9 12  1  0  0  0  0
  9  5  1  0  0  0  0
 10  8  1  0  0  0  0
 10  2  2  0  0  0  0
 11 10  1  0  0  0  0
 12  1  1  6  0  0  0
 13  3  2  0  0  0  0
 13 11  1  0  0  0  0
 15 13  1  0  0  0  0
 16 11  1  0  0  0  0
 17 16  2  0  0  0  0
 18 17  1  0  0  0  0
 19 18  1  0  0  0  0
 20 31  1  1  0  0  0
 20 22  1  0  0  0  0
 21 20  1  0  0  0  0
 21 22  1  0  0  0  0
 22 33  1  0  0  0  0
 22 19  1  1  0  0  0
 23 24  1  0  0  0  0
 24 29  1  0  0  0  0
 25 28  1  6  0  0  0
 25 23  1  0  0  0  0
 26 20  1  0  0  0  0
 26 29  1  0  0  0  0
 27 30  2  0  0  0  0
 27 25  1  0  0  0  0
 30 26  1  0  0  0  0
 32 31  1  0  0  0  0
 33 34  1  0  0  0  0
 35 36  2  0  0  0  0
 36 34  1  0  0  0  0
 38 37  1  0  0  0  0
 39 38  1  0  0  0  0
 40 39  1  0  0  0  0
 41 49  1  0  0  0  0
 41 40  1  1  0  0  0
 42 47  1  1  0  0  0
 42 44  1  0  0  0  0
 42 43  1  0  0  0  0
 43 41  1  6  0  0  0
 44 43  1  0  0  0  0
 45 47  1  0  0  0  0
 46 48  1  0  0  0  0
 46 45  1  0  0  0  0
 48 42  1  0  0  0  0
 48 44  1  0  0  0  0
 50 49  1  0  0  0  0
 51 50  1  0  0  0  0
 52 51  1  0  0  0  0
 53 52  1  0  0  0  0
 53 51  1  0  0  0  0
 54 52  1  0  0  0  0
M  END
>  <MODEL>
5

>  <REMARK>
 VINA RESULT:      -5.6      3.108      8.412
  Name = 
  18 active torsions:
  status: ('A' for Active; 'I' for Inactive)
    1  A    between atoms: C_3  and  N_17
    2  A    between atoms: C_3  and  O_33
    3  A    between atoms: C_5  and  O_36
    4  A    between atoms: C_5  and  C_47
    5  A    between atoms: C_7  and  C_46
    6  A    between atoms: C_7  and  C_48
    7  A    between atoms: C_9  and  C_48
    8  A    between atoms: C_10  and  N_32
    9  A    between atoms: C_12  and  C_22
   10  A    between atoms: C_12  and  N_26
   11  A    between atoms: C_15  and  N_40
   12  A    between atoms: C_16  and  C_25
   13  A    between atoms: C_16  and  C_44
   14  A    between atoms: N_26  and  C_46
   15  A    between atoms: N_32  and  N_38
   16  A    between atoms: O_36  and  C_45
   17  A    between atoms: N_38  and  C_48
   18  A    between atoms: C_44  and  C_45
                            x       y       z     vdW  Elec       q    Type
                         _______ _______ _______ _____ _____    ______ ____

>  <TORSDO>
F 18

$$$$
=
 OpenBabel10232411293D

 54 62  0  0  1  0  0  0  0  0999 V2000
  188.4070  177.5230  147.6590 N   0  0  0  0  0  1  0  0  0  0  0  0
  187.3310  178.0650  145.3760 C   0  0  0  0  0  3  0  0  0  0  0  0
  189.4660  177.6090  141.6860 C   0  0  0  0  0  0  0  0  0  0  0  0
  191.6320  176.8320  141.0440 C   0  0  2  0  0  3  0  0  0  0  0  0
  190.8610  176.8650  146.0700 C   0  0  0  0  0  1  0  0  0  0  0  0
  190.3390  177.3480  140.6050 N   0  0  0  0  0  2  0  0  0  0  0  0
  190.0220  177.3750  142.9650 N   0  0  0  0  0  0  0  0  0  0  0  0
  189.2180  177.5560  144.1310 C   0  0  0  0  0  0  0  0  0  0  0  0
  189.5570  177.3440  145.5250 C   0  0  0  0  0  0  0  0  0  0  0  0
  187.9660  177.9600  144.0240 C   0  0  0  0  0  0  0  0  0  0  0  0
  187.3730  178.2260  142.7270 N   0  0  0  0  0  0  0  0  0  0  0  0
  188.4800  177.6340  146.2400 C   0  0  2  0  0  3  0  0  0  0  0  0
  188.1940  178.0310  141.5450 C   0  0  0  0  0  0  0  0  0  0  0  0
  191.7030  176.8580  142.8930 S   0  0  0  0  0  0  0  0  0  0  0  0
  187.6370  178.2690  140.1750 C   0  0  0  0  0  1  0  0  0  0  0  0
  186.0050  178.6420  142.5510 C   0  0  0  0  0  3  0  0  0  0  0  0
  185.0260  177.8330  142.1600 C   0  0  0  0  0  3  0  0  0  0  0  0
  183.6400  178.3500  141.9880 C   0  0  0  0  0  2  0  0  0  0  0  0
  183.4730  178.9520  140.6000 C   0  0  0  0  0  2  0  0  0  0  0  0
  183.4470  177.4070  138.5400 C   0  0  1  0  0  0  0  0  0  0  0  0
  182.5230  178.4610  138.3510 O   0  0  0  0  0  0  0  0  0  0  0  0
  182.7020  178.0120  139.6780 C   0  0  2  0  0  0  0  0  0  0  0  0
  183.0430  173.3230  136.7020 C   0  0  0  0  0  2  0  0  0  0  0  0
  184.0070  174.3140  136.9770 O   0  0  0  0  0  0  0  0  0  0  0  0
  181.5800  173.8090  136.7740 C   0  0  1  0  0  3  0  0  0  0  0  0
  182.9650  176.1810  137.9090 N   0  0  0  0  0  0  0  0  0  0  0  0
  181.3810  175.2190  136.3050 C   0  0  0  0  0  3  0  0  0  0  0  0
  180.7320  172.9120  136.0100 N   0  0  0  0  0  1  0  0  0  0  0  0
  183.6630  174.9280  138.1900 C   0  0  0  0  0  2  0  0  0  0  0  0
  181.9870  176.2770  136.8590 C   0  0  0  0  0  3  0  0  0  0  0  0
  184.7450  177.8360  138.2140 O   0  0  0  0  0  0  0  0  0  0  0  0
  184.7830  177.9420  136.8200 C   0  0  0  0  0  1  0  0  0  0  0  0
  181.6400  177.2390  140.1800 O   0  0  0  0  0  0  0  0  0  0  0  0
  180.5660  178.1090  140.4180 C   0  0  0  0  0  2  0  0  0  0  0  0
  180.5630  178.5900  142.8290 C   0  0  0  0  0  2  0  0  0  0  0  0
  180.0470  177.9120  141.8050 C   0  0  0  0  0  3  0  0  0  0  0  0
  192.7400  177.6860  140.4570 C   0  0  0  0  0  2  0  0  0  0  0  0
  193.8570  176.8470  140.0690 N   0  0  0  0  0  2  0  0  0  0  0  0
  193.4090  176.0400  138.9480 C   0  0  0  0  0  2  0  0  0  0  0  0
  193.2210  176.9210  137.7270 C   0  0  0  0  0  2  0  0  0  0  0  0
  192.9420  176.0770  136.4970 C   0  0  1  0  0  3  0  0  0  0  0  0
  193.0120  173.7680  135.5830 C   0  0  1  0  0  0  0  0  0  0  0  0
  193.0930  174.6040  136.8410 C   0  0  1  0  0  3  0  0  0  0  0  0
  194.3680  174.0550  136.2380 C   0  0  2  0  0  3  0  0  0  0  0  0
  193.4110  171.5320  134.7910 C   0  0  0  0  0  2  0  0  0  0  0  0
  194.6180  172.3770  134.4190 C   0  0  0  0  0  2  0  0  0  0  0  0
  192.6810  172.3170  135.8580 C   0  0  0  0  0  2  0  0  0  0  0  0
  194.2670  173.8210  134.7440 C   0  0  1  0  0  3  0  0  0  0  0  0
  191.5910  176.3300  136.0270 N   0  0  0  0  0  2  0  0  0  0  0  0
  190.7990  176.5580  137.1590 N   0  0  0  0  0  2  0  0  0  0  0  0
  189.7090  177.4340  136.7480 C   0  0  2  0  0  3  0  0  0  0  0  0
  188.3330  176.7950  136.9520 C   0  0  1  0  0  3  0  0  0  0  0  0
  188.9690  176.8190  135.5790 C   0  0  0  0  0  2  0  0  0  0  0  0
  188.4210  175.4500  137.5060 N   0  0  0  0  0  1  0  0  0  0  0  0
  2 12  1  0  0  0  0
  3  7  1  0  0  0  0
  4 37  1  6  0  0  0
  4 14  1  0  0  0  0
  6  4  1  0  0  0  0
  6  3  1  0  0  0  0
  7  8  1  0  0  0  0
  8  9  2  0  0  0  0
  9  5  1  0  0  0  0
  9 12  1  0  0  0  0
 10  8  1  0  0  0  0
 10  2  2  0  0  0  0
 11 10  1  0  0  0  0
 12  1  1  6  0  0  0
 13  3  2  0  0  0  0
 13 11  1  0  0  0  0
 14  7  1  0  0  0  0
 15 13  1  0  0  0  0
 16 11  1  0  0  0  0
 17 16  2  0  0  0  0
 18 17  1  0  0  0  0
 19 18  1  0  0  0  0
 20 31  1  6  0  0  0
 20 22  1  0  0  0  0
 21 20  1  0  0  0  0
 21 22  1  0  0  0  0
 22 33  1  0  0  0  0
 22 19  1  1  0  0  0
 23 25  1  0  0  0  0
 23 24  1  0  0  0  0
 24 29  1  0  0  0  0
 25 28  1  6  0  0  0
 26 29  1  0  0  0  0
 26 20  1  0  0  0  0
 27 25  1  0  0  0  0
 27 30  2  0  0  0  0
 30 26  1  0  0  0  0
 32 31  1  0  0  0  0
 33 34  1  0  0  0  0
 34 36  1  0  0  0  0
 36 35  2  0  0  0  0
 38 37  1  0  0  0  0
 39 38  1  0  0  0  0
 40 39  1  0  0  0  0
 41 40  1  1  0  0  0
 42 47  1  1  0  0  0
 42 44  1  0  0  0  0
 42 43  1  0  0  0  0
 43 41  1  6  0  0  0
 44 43  1  0  0  0  0
 45 47  1  0  0  0  0
 46 48  1  0  0  0  0
 46 45  1  0  0  0  0
 48 42  1  0  0  0  0
 48 44  1  0  0  0  0
 49 41  1  0  0  0  0
 49 50  1  0  0  0  0
 51 52  1  0  0  0  0
 51 50  1  0  0  0  0
 52 54  1  0  0  0  0
 53 51  1  0  0  0  0
 53 52  1  0  0  0  0
M  END
>  <MODEL>
6

>  <REMARK>
 VINA RESULT:      -5.6      3.475      8.620
  Name = 
  18 active torsions:
  status: ('A' for Active; 'I' for Inactive)
    1  A    between atoms: C_3  and  N_17
    2  A    between atoms: C_3  and  O_33
    3  A    between atoms: C_5  and  O_36
    4  A    between atoms: C_5  and  C_47
    5  A    between atoms: C_7  and  C_46
    6  A    between atoms: C_7  and  C_48
    7  A    between atoms: C_9  and  C_48
    8  A    between atoms: C_10  and  N_32
    9  A    between atoms: C_12  and  C_22
   10  A    between atoms: C_12  and  N_26
   11  A    between atoms: C_15  and  N_40
   12  A    between atoms: C_16  and  C_25
   13  A    between atoms: C_16  and  C_44
   14  A    between atoms: N_26  and  C_46
   15  A    between atoms: N_32  and  N_38
   16  A    between atoms: O_36  and  C_45
   17  A    between atoms: N_38  and  C_48
   18  A    between atoms: C_44  and  C_45
                            x       y       z     vdW  Elec       q    Type
                         _______ _______ _______ _____ _____    ______ ____

>  <TORSDO>
F 18

$$$$
=
 OpenBabel10232411293D

 54 62  0  0  1  0  0  0  0  0999 V2000
  190.1940  176.8010  145.9740 N   0  0  0  0  0  1  0  0  0  0  0  0
  190.7460  177.0960  143.4700 C   0  0  0  0  0  3  0  0  0  0  0  0
  187.7960  178.3500  140.6210 C   0  0  0  0  0  0  0  0  0  0  0  0
  185.5010  179.0050  140.7080 C   0  0  2  0  0  3  0  0  0  0  0  0
  187.4080  177.5870  145.2030 C   0  0  0  0  0  1  0  0  0  0  0  0
  186.6850  178.8070  139.8780 N   0  0  0  0  0  2  0  0  0  0  0  0
  187.5370  178.1250  141.9930 N   0  0  0  0  0  0  0  0  0  0  0  0
  188.5970  177.7100  142.8560 C   0  0  0  0  0  0  0  0  0  0  0  0
  188.5760  177.4560  144.2830 C   0  0  0  0  0  0  0  0  0  0  0  0
  189.8110  177.5150  142.3770 C   0  0  0  0  0  0  0  0  0  0  0  0
  190.1040  177.7190  140.9710 N   0  0  0  0  0  0  0  0  0  0  0  0
  189.8040  177.1050  144.6390 C   0  0  2  0  0  3  0  0  0  0  0  0
  189.0230  178.1500  140.1020 C   0  0  0  0  0  0  0  0  0  0  0  0
  185.8580  178.4260  142.4290 S   0  0  0  0  0  0  0  0  0  0  0  0
  189.2620  178.3990  138.6440 C   0  0  0  0  0  1  0  0  0  0  0  0
  191.4160  177.5480  140.4010 C   0  0  0  0  0  3  0  0  0  0  0  0
  191.7030  176.6650  139.4500 C   0  0  0  0  0  3  0  0  0  0  0  0
  193.0920  176.5420  138.9260 C   0  0  0  0  0  2  0  0  0  0  0  0
  193.0810  176.5670  137.4040 C   0  0  0  0  0  2  0  0  0  0  0  0
  194.4440  174.5760  136.5040 C   0  0  1  0  0  0  0  0  0  0  0  0
  193.5700  175.0440  135.4950 O   0  0  0  0  0  0  0  0  0  0  0  0
  193.1120  175.1560  136.8260 C   0  0  2  0  0  0  0  0  0  0  0  0
  196.0490  170.3760  136.4260 C   0  0  0  0  0  2  0  0  0  0  0  0
  196.4690  171.7160  136.2970 O   0  0  0  0  0  0  0  0  0  0  0  0
  194.5290  170.1600  136.2860 C   0  0  1  0  0  3  0  0  0  0  0  0
  194.6170  173.1290  136.4040 N   0  0  0  0  0  0  0  0  0  0  0  0
  193.8710  171.0740  135.2960 C   0  0  0  0  0  3  0  0  0  0  0  0
  194.2650  168.7780  135.9300 N   0  0  0  0  0  1  0  0  0  0  0  0
  195.6930  172.4980  137.1650 C   0  0  0  0  0  2  0  0  0  0  0  0
  193.8910  172.4090  135.3920 C   0  0  0  0  0  3  0  0  0  0  0  0
  195.6060  175.3650  136.5430 O   0  0  0  0  0  0  0  0  0  0  0  0
  195.8800  175.7240  135.2190 C   0  0  0  0  0  1  0  0  0  0  0  0
  192.1210  174.2230  137.1810 O   0  0  0  0  0  0  0  0  0  0  0  0
  190.9260  174.6290  136.5680 C   0  0  0  0  0  2  0  0  0  0  0  0
  188.6830  173.7310  137.0240 C   0  0  0  0  0  2  0  0  0  0  0  0
  189.9290  173.5160  136.6040 C   0  0  0  0  0  3  0  0  0  0  0  0
  184.3370  178.2310  140.1170 C   0  0  0  0  0  2  0  0  0  0  0  0
  184.3910  178.2870  138.6690 N   0  0  0  0  0  2  0  0  0  0  0  0
  183.5260  177.2300  138.1740 C   0  0  0  0  0  2  0  0  0  0  0  0
  183.0510  176.3740  139.3330 C   0  0  0  0  0  2  0  0  0  0  0  0
  181.6890  175.7760  139.0330 C   0  0  1  0  0  3  0  0  0  0  0  0
  181.1240  177.6590  140.5520 C   0  0  1  0  0  0  0  0  0  0  0  0
  180.6630  176.3240  140.0110 C   0  0  1  0  0  3  0  0  0  0  0  0
  180.0460  177.5930  139.4640 C   0  0  2  0  0  3  0  0  0  0  0  0
  180.3220  179.5520  141.8010 C   0  0  0  0  0  2  0  0  0  0  0  0
  180.2710  179.9150  140.3260 C   0  0  0  0  0  2  0  0  0  0  0  0
  180.4330  178.0440  141.8420 C   0  0  0  0  0  2  0  0  0  0  0  0
  180.9640  178.7930  139.5680 C   0  0  1  0  0  3  0  0  0  0  0  0
  181.2960  176.1140  137.6750 N   0  0  0  0  0  2  0  0  0  0  0  0
  180.8440  174.9330  137.0740 N   0  0  0  0  0  2  0  0  0  0  0  0
  182.0170  174.2540  136.5360 C   0  0  2  0  0  3  0  0  0  0  0  0
  181.6490  173.0930  135.6090 C   0  0  1  0  0  3  0  0  0  0  0  0
  182.0600  172.8270  137.0400 C   0  0  0  0  0  2  0  0  0  0  0  0
  180.2080  172.9210  135.4770 N   0  0  0  0  0  1  0  0  0  0  0  0
  2 12  1  0  0  0  0
  3  7  1  0  0  0  0
  4 37  1  6  0  0  0
  4 14  1  0  0  0  0
  6  3  1  0  0  0  0
  6  4  1  0  0  0  0
  7 14  1  0  0  0  0
  7  8  1  0  0  0  0
  8  9  2  0  0  0  0
  9 12  1  0  0  0  0
  9  5  1  0  0  0  0
 10  8  1  0  0  0  0
 10  2  2  0  0  0  0
 11 10  1  0  0  0  0
 12  1  1  1  0  0  0
 13  3  2  0  0  0  0
 13 11  1  0  0  0  0
 15 13  1  0  0  0  0
 16 11  1  0  0  0  0
 17 16  2  0  0  0  0
 18 17  1  0  0  0  0
 19 18  1  0  0  0  0
 20 31  1  1  0  0  0
 20 22  1  0  0  0  0
 21 20  1  0  0  0  0
 21 22  1  0  0  0  0
 22 33  1  0  0  0  0
 22 19  1  1  0  0  0
 24 23  1  0  0  0  0
 24 29  1  0  0  0  0
 25 28  1  6  0  0  0
 25 23  1  0  0  0  0
 26 20  1  0  0  0  0
 26 29  1  0  0  0  0
 27 30  2  0  0  0  0
 27 25  1  0  0  0  0
 30 26  1  0  0  0  0
 32 31  1  0  0  0  0
 34 36  1  0  0  0  0
 34 33  1  0  0  0  0
 36 35  2  0  0  0  0
 38 37  1  0  0  0  0
 39 38  1  0  0  0  0
 39 40  1  0  0  0  0
 41 40  1  1  0  0  0
 42 47  1  1  0  0  0
 43 41  1  6  0  0  0
 43 42  1  0  0  0  0
 44 48  1  0  0  0  0
 44 43  1  0  0  0  0
 44 42  1  0  0  0  0
 45 47  1  0  0  0  0
 46 45  1  0  0  0  0
 48 46  1  0  0  0  0
 48 42  1  0  0  0  0
 49 41  1  0  0  0  0
 50 49  1  0  0  0  0
 51 53  1  0  0  0  0
 51 50  1  0  0  0  0
 52 51  1  0  0  0  0
 52 53  1  0  0  0  0
 54 52  1  0  0  0  0
M  END
>  <MODEL>
7

>  <REMARK>
 VINA RESULT:      -5.4      1.659      3.367
  Name = 
  18 active torsions:
  status: ('A' for Active; 'I' for Inactive)
    1  A    between atoms: C_3  and  N_17
    2  A    between atoms: C_3  and  O_33
    3  A    between atoms: C_5  and  O_36
    4  A    between atoms: C_5  and  C_47
    5  A    between atoms: C_7  and  C_46
    6  A    between atoms: C_7  and  C_48
    7  A    between atoms: C_9  and  C_48
    8  A    between atoms: C_10  and  N_32
    9  A    between atoms: C_12  and  C_22
   10  A    between atoms: C_12  and  N_26
   11  A    between atoms: C_15  and  N_40
   12  A    between atoms: C_16  and  C_25
   13  A    between atoms: C_16  and  C_44
   14  A    between atoms: N_26  and  C_46
   15  A    between atoms: N_32  and  N_38
   16  A    between atoms: O_36  and  C_45
   17  A    between atoms: N_38  and  C_48
   18  A    between atoms: C_44  and  C_45
                            x       y       z     vdW  Elec       q    Type
                         _______ _______ _______ _____ _____    ______ ____

>  <TORSDO>
F 18

$$$$
=
 OpenBabel10232411293D

 54 62  0  0  1  0  0  0  0  0999 V2000
  186.5540  177.8310  146.4520 N   0  0  0  0  0  1  0  0  0  0  0  0
  186.1250  178.3400  143.9580 C   0  0  0  0  0  3  0  0  0  0  0  0
  189.1290  177.7250  140.9600 C   0  0  0  0  0  0  0  0  0  0  0  0
  191.3590  176.8710  140.9200 C   0  0  2  0  0  3  0  0  0  0  0  0
  189.3120  177.0620  145.5700 C   0  0  0  0  0  1  0  0  0  0  0  0
  190.2430  177.4100  140.1500 N   0  0  0  0  0  2  0  0  0  0  0  0
  189.3260  177.5110  142.3440 N   0  0  0  0  0  0  0  0  0  0  0  0
  188.2530  177.7450  143.2570 C   0  0  0  0  0  0  0  0  0  0  0  0
  188.2120  177.5620  144.6950 C   0  0  0  0  0  0  0  0  0  0  0  0
  187.0860  178.1810  142.8200 C   0  0  0  0  0  0  0  0  0  0  0  0
  186.8590  178.4280  141.4090 N   0  0  0  0  0  0  0  0  0  0  0  0
  186.9960  177.9010  145.1000 C   0  0  2  0  0  3  0  0  0  0  0  0
  187.9520  178.1780  140.4850 C   0  0  0  0  0  0  0  0  0  0  0  0
  190.9490  176.9450  142.7230 S   0  0  0  0  0  0  0  0  0  0  0  0
  187.7790  178.3940  139.0130 C   0  0  0  0  0  1  0  0  0  0  0  0
  185.5990  178.8770  140.8750 C   0  0  0  0  0  3  0  0  0  0  0  0
  184.6890  178.0710  140.3380 C   0  0  0  0  0  3  0  0  0  0  0  0
  183.4170  178.6210  139.7950 C   0  0  0  0  0  2  0  0  0  0  0  0
  183.4990  178.7360  138.2790 C   0  0  0  0  0  2  0  0  0  0  0  0
  184.3980  176.7140  136.9610 C   0  0  1  0  0  0  0  0  0  0  0  0
  183.3960  177.3640  136.2030 O   0  0  0  0  0  0  0  0  0  0  0  0
  183.2400  177.3910  137.6060 C   0  0  2  0  0  0  0  0  0  0  0  0
  184.5300  172.2340  137.3260 C   0  0  0  0  0  2  0  0  0  0  0  0
  184.9690  173.4040  137.9790 O   0  0  0  0  0  0  0  0  0  0  0  0
  184.0780  172.4420  135.8650 C   0  0  1  0  0  3  0  0  0  0  0  0
  184.3720  175.2740  136.7200 N   0  0  0  0  0  0  0  0  0  0  0  0
  184.8660  173.4800  135.1240 C   0  0  0  0  0  3  0  0  0  0  0  0
  184.1380  171.1780  135.1540 N   0  0  0  0  0  1  0  0  0  0  0  0
  183.9830  174.3870  137.8150 C   0  0  0  0  0  2  0  0  0  0  0  0
  184.9520  174.7600  135.5070 C   0  0  0  0  0  3  0  0  0  0  0  0
  185.6280  177.3740  136.8050 O   0  0  0  0  0  0  0  0  0  0  0  0
  185.7140  177.7270  135.4540 C   0  0  0  0  0  1  0  0  0  0  0  0
  182.2400  176.5330  138.0980 O   0  0  0  0  0  0  0  0  0  0  0  0
  181.0020  177.1160  137.7920 C   0  0  0  0  0  2  0  0  0  0  0  0
  180.3760  176.1790  139.9770 C   0  0  0  0  0  2  0  0  0  0  0  0
  180.0670  176.9690  138.9500 C   0  0  0  0  0  3  0  0  0  0  0  0
  192.6100  177.6780  140.6250 C   0  0  0  0  0  2  0  0  0  0  0  0
  192.9860  177.5150  139.2340 N   0  0  0  0  0  2  0  0  0  0  0  0
  192.9790  176.0890  138.9610 C   0  0  0  0  0  2  0  0  0  0  0  0
  193.4610  175.8370  137.5440 C   0  0  0  0  0  2  0  0  0  0  0  0
  193.5130  174.3480  137.2540 C   0  0  1  0  0  3  0  0  0  0  0  0
  191.6080  173.1660  136.1840 C   0  0  1  0  0  0  0  0  0  0  0  0
  192.8070  174.0560  135.9410 C   0  0  1  0  0  3  0  0  0  0  0  0
  191.4230  174.6690  135.9450 C   0  0  2  0  0  3  0  0  0  0  0  0
  189.6360  172.3370  135.0830 C   0  0  0  0  0  2  0  0  0  0  0  0
  189.2210  173.5120  135.9530 C   0  0  0  0  0  2  0  0  0  0  0  0
  191.1370  172.4540  134.9350 C   0  0  0  0  0  2  0  0  0  0  0  0
  190.4320  173.8950  136.7900 C   0  0  1  0  0  3  0  0  0  0  0  0
  194.8980  173.9150  137.1680 N   0  0  0  0  0  2  0  0  0  0  0  0
  195.6760  175.0660  136.9940 N   0  0  0  0  0  2  0  0  0  0  0  0
  196.9550  174.6360  136.4400 C   0  0  2  0  0  3  0  0  0  0  0  0
  197.5260  175.6390  135.4350 C   0  0  1  0  0  3  0  0  0  0  0  0
  196.8140  174.3950  134.9510 C   0  0  0  0  0  2  0  0  0  0  0  0
  196.6610  176.7970  135.2520 N   0  0  0  0  0  1  0  0  0  0  0  0
  2 12  1  0  0  0  0
  3  7  1  0  0  0  0
  4 37  1  1  0  0  0
  4 14  1  0  0  0  0
  6  4  1  0  0  0  0
  6  3  1  0  0  0  0
  7 14  1  0  0  0  0
  7  8  1  0  0  0  0
  8  9  2  0  0  0  0
  9 12  1  0  0  0  0
  9  5  1  0  0  0  0
 10  8  1  0  0  0  0
 10  2  2  0  0  0  0
 11 10  1  0  0  0  0
 12  1  1  6  0  0  0
 13  3  2  0  0  0  0
 13 11  1  0  0  0  0
 15 13  1  0  0  0  0
 16 11  1  0  0  0  0
 17 16  2  0  0  0  0
 18 17  1  0  0  0  0
 19 18  1  0  0  0  0
 20 31  1  1  0  0  0
 20 22  1  0  0  0  0
 21 20  1  0  0  0  0
 21 22  1  0  0  0  0
 22 33  1  0  0  0  0
 22 19  1  1  0  0  0
 23 24  1  0  0  0  0
 25 28  1  6  0  0  0
 25 23  1  0  0  0  0
 26 20  1  0  0  0  0
 26 29  1  0  0  0  0
 27 30  2  0  0  0  0
 27 25  1  0  0  0  0
 29 24  1  0  0  0  0
 30 26  1  0  0  0  0
 32 31  1  0  0  0  0
 34 33  1  0  0  0  0
 34 36  1  0  0  0  0
 36 35  2  0  0  0  0
 38 37  1  0  0  0  0
 39 38  1  0  0  0  0
 40 39  1  0  0  0  0
 41 40  1  6  0  0  0
 42 47  1  6  0  0  0
 42 48  1  0  0  0  0
 43 44  1  0  0  0  0
 43 42  1  0  0  0  0
 43 41  1  1  0  0  0
 44 42  1  0  0  0  0
 44 48  1  0  0  0  0
 45 46  1  0  0  0  0
 46 48  1  0  0  0  0
 47 45  1  0  0  0  0
 49 41  1  0  0  0  0
 50 49  1  0  0  0  0
 51 50  1  0  0  0  0
 52 51  1  0  0  0  0
 53 52  1  0  0  0  0
 53 51  1  0  0  0  0
 54 52  1  0  0  0  0
M  END
>  <MODEL>
8

>  <REMARK>
 VINA RESULT:      -5.4      3.145      8.569
  Name = 
  18 active torsions:
  status: ('A' for Active; 'I' for Inactive)
    1  A    between atoms: C_3  and  N_17
    2  A    between atoms: C_3  and  O_33
    3  A    between atoms: C_5  and  O_36
    4  A    between atoms: C_5  and  C_47
    5  A    between atoms: C_7  and  C_46
    6  A    between atoms: C_7  and  C_48
    7  A    between atoms: C_9  and  C_48
    8  A    between atoms: C_10  and  N_32
    9  A    between atoms: C_12  and  C_22
   10  A    between atoms: C_12  and  N_26
   11  A    between atoms: C_15  and  N_40
   12  A    between atoms: C_16  and  C_25
   13  A    between atoms: C_16  and  C_44
   14  A    between atoms: N_26  and  C_46
   15  A    between atoms: N_32  and  N_38
   16  A    between atoms: O_36  and  C_45
   17  A    between atoms: N_38  and  C_48
   18  A    between atoms: C_44  and  C_45
                            x       y       z     vdW  Elec       q    Type
                         _______ _______ _______ _____ _____    ______ ____

>  <TORSDO>
F 18

$$$$
=
 OpenBabel10232411293D

 54 62  0  0  1  0  0  0  0  0999 V2000
  187.7630  177.7420  147.5630 N   0  0  0  0  0  1  0  0  0  0  0  0
  188.2620  177.7850  145.0310 C   0  0  0  0  0  3  0  0  0  0  0  0
  185.2170  178.5930  142.1230 C   0  0  0  0  0  0  0  0  0  0  0  0
  182.8960  179.1550  142.1830 C   0  0  2  0  0  3  0  0  0  0  0  0
  184.9320  178.3190  146.7660 C   0  0  0  0  0  1  0  0  0  0  0  0
  184.0750  178.9190  141.3560 N   0  0  0  0  0  2  0  0  0  0  0  0
  184.9880  178.5080  143.5160 N   0  0  0  0  0  0  0  0  0  0  0  0
  186.0790  178.2360  144.3960 C   0  0  0  0  0  0  0  0  0  0  0  0
  186.0910  178.1390  145.8440 C   0  0  0  0  0  0  0  0  0  0  0  0
  187.2940  178.0420  143.9180 C   0  0  0  0  0  0  0  0  0  0  0  0
  187.5560  178.1040  142.4920 N   0  0  0  0  0  0  0  0  0  0  0  0
  187.3380  177.8810  146.2100 C   0  0  2  0  0  3  0  0  0  0  0  0
  186.4430  178.3910  141.6030 C   0  0  0  0  0  0  0  0  0  0  0  0
  183.3050  178.7830  143.9490 S   0  0  0  0  0  0  0  0  0  0  0  0
  186.6490  178.4890  140.1230 C   0  0  0  0  0  1  0  0  0  0  0  0
  188.8650  177.9270  141.9180 C   0  0  0  0  0  3  0  0  0  0  0  0
  189.3200  176.7700  141.4490 C   0  0  0  0  0  3  0  0  0  0  0  0
  190.6950  176.6720  140.8830 C   0  0  0  0  0  2  0  0  0  0  0  0
  190.7120  177.1900  139.4520 C   0  0  0  0  0  2  0  0  0  0  0  0
  192.9520  176.4350  138.4300 C   0  0  1  0  0  0  0  0  0  0  0  0
  192.0750  176.8420  137.3970 O   0  0  0  0  0  0  0  0  0  0  0  0
  191.4790  176.2460  138.5300 C   0  0  2  0  0  0  0  0  0  0  0  0
  196.3370  173.5610  137.7180 C   0  0  0  0  0  2  0  0  0  0  0  0
  196.0850  174.8760  138.1630 O   0  0  0  0  0  0  0  0  0  0  0  0
  195.1680  172.9040  136.9560 C   0  0  1  0  0  3  0  0  0  0  0  0
  193.8080  175.3410  137.9770 N   0  0  0  0  0  0  0  0  0  0  0  0
  194.3770  173.8570  136.1110 C   0  0  0  0  0  3  0  0  0  0  0  0
  195.6740  171.8200  136.1320 N   0  0  0  0  0  1  0  0  0  0  0  0
  194.8700  174.8710  138.8630 C   0  0  0  0  0  2  0  0  0  0  0  0
  193.7390  174.9280  136.6000 C   0  0  0  0  0  3  0  0  0  0  0  0
  193.5800  177.5540  139.0020 O   0  0  0  0  0  0  0  0  0  0  0  0
  193.7440  177.2590  140.3590 C   0  0  0  0  0  1  0  0  0  0  0  0
  191.0260  174.9310  138.3260 O   0  0  0  0  0  0  0  0  0  0  0  0
  190.3690  174.9020  137.0870 C   0  0  0  0  0  2  0  0  0  0  0  0
  188.0440  174.2450  136.6310 C   0  0  0  0  0  2  0  0  0  0  0  0
  188.8930  175.0330  137.2880 C   0  0  0  0  0  3  0  0  0  0  0  0
  181.7590  178.2720  141.7030 C   0  0  0  0  0  2  0  0  0  0  0  0
  181.8360  178.1070  140.2640 N   0  0  0  0  0  2  0  0  0  0  0  0
  180.7440  177.2290  139.8830 C   0  0  0  0  0  2  0  0  0  0  0  0
  180.4860  177.3500  138.3930 C   0  0  0  0  0  2  0  0  0  0  0  0
  181.2260  176.2660  137.6310 C   0  0  1  0  0  3  0  0  0  0  0  0
  180.9570  174.1300  136.3930 C   0  0  1  0  0  0  0  0  0  0  0  0
  180.2720  175.1320  137.2960 C   0  0  1  0  0  3  0  0  0  0  0  0
  180.7770  173.8330  137.8870 C   0  0  2  0  0  3  0  0  0  0  0  0
  180.6770  171.9120  135.5050 C   0  0  0  0  0  2  0  0  0  0  0  0
  181.6170  171.8180  136.6950 C   0  0  0  0  0  2  0  0  0  0  0  0
  179.9820  173.2480  135.6430 C   0  0  0  0  0  2  0  0  0  0  0  0
  181.9420  173.2430  137.1180 C   0  0  1  0  0  3  0  0  0  0  0  0
  181.7750  176.8190  136.4040 N   0  0  0  0  0  2  0  0  0  0  0  0
  183.0400  177.3320  136.7160 N   0  0  0  0  0  2  0  0  0  0  0  0
  183.7780  176.2700  137.3880 C   0  0  2  0  0  3  0  0  0  0  0  0
  185.2930  176.4860  137.3410 C   0  0  1  0  0  3  0  0  0  0  0  0
  184.6280  175.5210  136.3840 C   0  0  0  0  0  2  0  0  0  0  0  0
  185.6580  177.7040  136.6290 N   0  0  0  0  0  1  0  0  0  0  0  0
  2 12  1  0  0  0  0
  3  7  1  0  0  0  0
  4 37  1  6  0  0  0
  4 14  1  0  0  0  0
  6  3  1  0  0  0  0
  6  4  1  0  0  0  0
  7 14  1  0  0  0  0
  7  8  1  0  0  0  0
  8  9  2  0  0  0  0
  9 12  1  0  0  0  0
  9  5  1  0  0  0  0
 10  8  1  0  0  0  0
 10  2  2  0  0  0  0
 11 10  1  0  0  0  0
 12  1  1  1  0  0  0
 13  3  2  0  0  0  0
 13 11  1  0  0  0  0
 15 13  1  0  0  0  0
 16 11  1  0  0  0  0
 17 16  2  0  0  0  0
 18 17  1  0  0  0  0
 19 18  1  0  0  0  0
 20 22  1  0  0  0  0
 20 31  1  1  0  0  0
 21 20  1  0  0  0  0
 21 22  1  0  0  0  0
 22 19  1  1  0  0  0
 23 24  1  0  0  0  0
 24 29  1  0  0  0  0
 25 28  1  6  0  0  0
 25 23  1  0  0  0  0
 26 20  1  0  0  0  0
 26 29  1  0  0  0  0
 27 30  2  0  0  0  0
 27 25  1  0  0  0  0
 30 26  1  0  0  0  0
 31 32  1  0  0  0  0
 33 22  1  0  0  0  0
 34 36  1  0  0  0  0
 34 33  1  0  0  0  0
 35 36  2  0  0  0  0
 38 37  1  0  0  0  0
 39 38  1  0  0  0  0
 40 39  1  0  0  0  0
 41 40  1  6  0  0  0
 42 47  1  6  0  0  0
 42 48  1  0  0  0  0
 42 43  1  0  0  0  0
 42 44  1  0  0  0  0
 43 41  1  1  0  0  0
 43 44  1  0  0  0  0
 45 47  1  0  0  0  0
 45 46  1  0  0  0  0
 46 48  1  0  0  0  0
 48 44  1  0  0  0  0
 49 50  1  0  0  0  0
 49 41  1  0  0  0  0
 50 51  1  0  0  0  0
 52 51  1  0  0  0  0
 53 52  1  0  0  0  0
 53 51  1  0  0  0  0
 54 52  1  0  0  0  0
M  END
>  <MODEL>
9

>  <REMARK>
 VINA RESULT:      -5.4      1.880      3.616
  Name = 
  18 active torsions:
  status: ('A' for Active; 'I' for Inactive)
    1  A    between atoms: C_3  and  N_17
    2  A    between atoms: C_3  and  O_33
    3  A    between atoms: C_5  and  O_36
    4  A    between atoms: C_5  and  C_47
    5  A    between atoms: C_7  and  C_46
    6  A    between atoms: C_7  and  C_48
    7  A    between atoms: C_9  and  C_48
    8  A    between atoms: C_10  and  N_32
    9  A    between atoms: C_12  and  C_22
   10  A    between atoms: C_12  and  N_26
   11  A    between atoms: C_15  and  N_40
   12  A    between atoms: C_16  and  C_25
   13  A    between atoms: C_16  and  C_44
   14  A    between atoms: N_26  and  C_46
   15  A    between atoms: N_32  and  N_38
   16  A    between atoms: O_36  and  C_45
   17  A    between atoms: N_38  and  C_48
   18  A    between atoms: C_44  and  C_45
                            x       y       z     vdW  Elec       q    Type
                         _______ _______ _______ _____ _____    ______ ____

>  <TORSDO>
F 18

$$$$
