=
 OpenBabel10222421323D

 34 39  0  0  1  0  0  0  0  0999 V2000
  188.9620  177.6120  136.0320 O   0  0  0  0  0  0  0  0  0  0  0  0
  184.2130  179.4420  143.6490 O   0  0  0  0  0  0  0  0  0  0  0  0
  185.8600  178.7540  142.1580 N   0  0  0  0  0  0  0  0  0  0  0  0
  185.5280  179.1720  140.8370 C   0  0  2  0  0  0  0  0  0  0  0  0
  184.3720  178.3360  140.2780 C   0  0  2  0  0  3  0  0  0  0  0  0
  186.3220  177.6140  146.9000 O   0  0  0  0  0  1  0  0  0  0  0  0
  188.3090  177.6390  141.8400 C   0  0  0  0  0  2  0  0  0  0  0  0
  185.9900  178.2210  144.5660 N   0  0  0  0  0  2  0  0  0  0  0  0
  185.5480  178.2290  145.9260 C   0  0  0  0  0  0  0  0  0  0  0  0
  186.1060  176.0410  137.7210 C   0  0  0  0  0  2  0  0  0  0  0  0
  189.6950  177.7660  138.2580 C   0  0  0  0  0  2  0  0  0  0  0  0
  184.8760  176.1930  137.0820 O   0  0  0  0  0  0  0  0  0  0  0  0
  187.1210  175.4880  136.7390 C   0  0  0  0  0  2  0  0  0  0  0  0
  187.1130  178.2750  141.5740 C   0  0  2  0  0  0  0  0  0  0  0  0
  186.7770  178.7170  140.2930 C   0  0  0  0  0  0  0  0  0  0  0  0
  181.9060  178.6210  140.0010 N   0  0  1  0  0  0  0  0  0  0  0  0
  184.2760  178.4840  138.8240 N   0  0  0  0  0  2  0  0  0  0  0  0
  189.0440  177.0520  137.1140 C   0  0  0  0  0  0  0  0  0  0  0  0
  184.4670  178.7880  146.2550 O   0  0  0  0  0  0  0  0  0  0  0  0
  185.3000  178.8290  143.4680 C   0  0  0  0  0  0  0  0  0  0  0  0
  189.1430  177.4820  140.7000 C   0  0  0  0  0  3  0  0  0  0  0  0
  188.5360  175.6450  137.2840 C   0  0  2  0  0  3  0  0  0  0  0  0
  188.7530  177.9540  139.4000 C   0  0  0  0  0  0  0  0  0  0  0  0
  187.5470  178.5900  139.1980 N   0  0  0  0  0  0  0  0  0  0  0  0
  183.0350  178.7110  140.9380 C   0  0  0  0  0  2  0  0  0  0  0  0
  183.9280  176.1540  138.1060 C   0  0  0  0  0  2  0  0  0  0  0  0
  183.2930  177.5270  138.2900 C   0  0  1  0  0  3  0  0  0  0  0  0
  182.0510  177.4140  139.1850 C   0  0  0  0  0  2  0  0  0  0  0  0
  189.4820  174.5130  135.3940 O   0  0  0  0  0  0  0  0  0  0  0  0
  190.3540  173.9480  137.4370 O   0  0  0  0  0  1  0  0  0  0  0  0
  189.4690  174.6680  136.6450 C   0  0  0  0  0  0  0  0  0  0  0  0
  180.8060  179.2850  142.0680 C   0  0  0  0  0  2  0  0  0  0  0  0
  179.9820  179.7980  140.9090 C   0  0  0  0  0  2  0  0  0  0  0  0
  180.6960  178.4620  140.7970 C   0  0  0  0  0  3  0  0  0  0  0  0
  1 18  2  0  0  0  0
  3 20  1  0  0  0  0
  4 15  1  6  0  0  0
  4 14  1  0  0  0  0
  4  3  1  0  0  0  0
  5  4  1  0  0  0  0
  5 25  1  1  0  0  0
  8  9  1  0  0  0  0
  9 19  2  0  0  0  0
  9  6  1  0  0  0  0
 11 23  1  0  0  0  0
 12 10  1  0  0  0  0
 12 26  1  0  0  0  0
 13 22  1  0  0  0  0
 13 10  1  0  0  0  0
 14  7  1  6  0  0  0
 14  3  1  0  0  0  0
 15 14  1  0  0  0  0
 16 34  1  1  0  0  0
 16 25  1  0  0  0  0
 17  5  1  0  0  0  0
 18 22  1  0  0  0  0
 18 11  1  0  0  0  0
 20  2  2  0  0  0  0
 20  8  1  0  0  0  0
 21  7  1  0  0  0  0
 22 31  1  6  0  0  0
 23 21  2  0  0  0  0
 24 23  1  0  0  0  0
 24 15  2  0  0  0  0
 27 26  1  1  0  0  0
 27 17  1  0  0  0  0
 27 28  1  0  0  0  0
 28 16  1  0  0  0  0
 29 31  2  0  0  0  0
 31 30  1  0  0  0  0
 33 32  1  0  0  0  0
 34 33  1  0  0  0  0
 34 32  1  0  0  0  0
M  END
>  <MODEL>
1

>  <REMARK>
 VINA RESULT:      -8.0      0.000      0.000
  Name = 
  2 active torsions:
  status: ('A' for Active; 'I' for Inactive)
    1  A    between atoms: N_19  and  C_27
    2  A    between atoms: C_21  and  C_28
                            x       y       z     vdW  Elec       q    Type
                         _______ _______ _______ _____ _____    ______ ____

>  <TORSDO>
F 2

$$$$
=
 OpenBabel10222421323D

 34 39  0  0  1  0  0  0  0  0999 V2000
  184.2380  180.4310  139.2040 O   0  0  0  0  0  0  0  0  0  0  0  0
  189.2850  173.8090  135.3830 O   0  0  0  0  0  0  0  0  0  0  0  0
  187.5340  175.0220  136.3170 N   0  0  0  0  0  0  0  0  0  0  0  0
  187.9220  176.3810  136.4940 C   0  0  2  0  0  0  0  0  0  0  0  0
  188.9150  176.5140  137.6540 C   0  0  2  0  0  3  0  0  0  0  0  0
  186.9200  170.2370  135.4680 O   0  0  0  0  0  1  0  0  0  0  0  0
  184.9290  175.0370  137.0630 C   0  0  0  0  0  2  0  0  0  0  0  0
  187.3330  172.6040  135.8600 N   0  0  0  0  0  2  0  0  0  0  0  0
  187.7800  171.3240  135.4030 C   0  0  0  0  0  0  0  0  0  0  0  0
  186.7990  178.1100  140.4440 C   0  0  0  0  0  2  0  0  0  0  0  0
  183.5590  178.4750  138.0960 C   0  0  0  0  0  2  0  0  0  0  0  0
  188.0320  178.6870  140.7460 O   0  0  0  0  0  0  0  0  0  0  0  0
  185.6980  178.8680  141.1610 C   0  0  0  0  0  2  0  0  0  0  0  0
  186.2140  175.4540  136.7770 C   0  0  2  0  0  0  0  0  0  0  0  0
  186.6100  176.7840  136.9170 C   0  0  0  0  0  0  0  0  0  0  0  0
  191.3920  176.7350  137.8930 N   0  0  1  0  0  0  0  0  0  0  0  0
  189.0250  177.9090  138.0900 N   0  0  0  0  0  2  0  0  0  0  0  0
  184.0710  179.2240  139.2870 C   0  0  0  0  0  0  0  0  0  0  0  0
  188.9420  171.1690  134.9410 O   0  0  0  0  0  0  0  0  0  0  0  0
  188.1090  173.8070  135.8370 C   0  0  0  0  0  0  0  0  0  0  0  0
  184.0720  176.0790  137.5080 C   0  0  0  0  0  3  0  0  0  0  0  0
  184.3340  178.5060  140.5830 C   0  0  2  0  0  3  0  0  0  0  0  0
  184.5270  177.4360  137.6380 C   0  0  0  0  0  0  0  0  0  0  0  0
  185.8220  177.7930  137.3280 N   0  0  0  0  0  0  0  0  0  0  0  0
  190.3020  175.9680  137.2730 C   0  0  0  0  0  2  0  0  0  0  0  0
  188.9680  177.6700  140.5400 C   0  0  0  0  0  2  0  0  0  0  0  0
  189.8270  177.9830  139.3220 C   0  0  1  0  0  3  0  0  0  0  0  0
  191.0380  177.0410  139.2810 C   0  0  0  0  0  2  0  0  0  0  0  0
  182.0420  178.8620  141.1930 O   0  0  0  0  0  0  0  0  0  0  0  0
  183.5560  178.9150  142.9140 O   0  0  0  0  0  1  0  0  0  0  0  0
  183.2440  178.7810  141.5680 C   0  0  0  0  0  0  0  0  0  0  0  0
  192.6720  175.1010  136.6210 C   0  0  0  0  0  2  0  0  0  0  0  0
  193.5510  176.3080  136.8580 C   0  0  0  0  0  2  0  0  0  0  0  0
  192.5630  175.8690  137.9260 C   0  0  0  0  0  3  0  0  0  0  0  0
  1 18  2  0  0  0  0
  2 20  2  0  0  0  0
  3  4  1  0  0  0  0
  3 14  1  0  0  0  0
  4 14  1  0  0  0  0
  4 15  1  6  0  0  0
  4  5  1  0  0  0  0
  5 25  1  6  0  0  0
  5 17  1  0  0  0  0
  7 21  1  0  0  0  0
  9  6  1  0  0  0  0
  9  8  1  0  0  0  0
 10 12  1  0  0  0  0
 10 13  1  0  0  0  0
 11 18  1  0  0  0  0
 14 15  1  0  0  0  0
 14  7  1  1  0  0  0
 15 24  2  0  0  0  0
 16 34  1  1  0  0  0
 16 28  1  0  0  0  0
 17 27  1  0  0  0  0
 18 22  1  0  0  0  0
 19  9  2  0  0  0  0
 20  8  1  0  0  0  0
 20  3  1  0  0  0  0
 21 23  2  0  0  0  0
 22 13  1  0  0  0  0
 22 31  1  1  0  0  0
 23 11  1  0  0  0  0
 24 23  1  0  0  0  0
 25 16  1  0  0  0  0
 26 12  1  0  0  0  0
 27 28  1  6  0  0  0
 27 26  1  0  0  0  0
 29 31  2  0  0  0  0
 31 30  1  0  0  0  0
 32 33  1  0  0  0  0
 32 34  1  0  0  0  0
 33 34  1  0  0  0  0
M  END
>  <MODEL>
2

>  <REMARK>
 VINA RESULT:      -7.4      2.828      8.698
  Name = 
  2 active torsions:
  status: ('A' for Active; 'I' for Inactive)
    1  A    between atoms: N_19  and  C_27
    2  A    between atoms: C_21  and  C_28
                            x       y       z     vdW  Elec       q    Type
                         _______ _______ _______ _____ _____    ______ ____

>  <TORSDO>
F 2

$$$$
=
 OpenBabel10222421323D

 34 39  0  0  1  0  0  0  0  0999 V2000
  191.7510  176.7180  136.2110 O   0  0  0  0  0  0  0  0  0  0  0  0
  185.3050  179.2010  142.2280 O   0  0  0  0  0  0  0  0  0  0  0  0
  187.2270  178.3320  141.2500 N   0  0  0  0  0  0  0  0  0  0  0  0
  187.2990  178.7220  139.8820 C   0  0  2  0  0  0  0  0  0  0  0  0
  186.2690  177.9550  139.0460 C   0  0  2  0  0  3  0  0  0  0  0  0
  186.3040  177.3450  145.9580 O   0  0  0  0  0  1  0  0  0  0  0  0
  189.5690  177.0210  141.6250 C   0  0  0  0  0  2  0  0  0  0  0  0
  186.6620  177.8850  143.6120 N   0  0  0  0  0  2  0  0  0  0  0  0
  185.8740  177.9800  144.8010 C   0  0  0  0  0  0  0  0  0  0  0  0
  188.4260  175.4360  137.0920 C   0  0  0  0  0  2  0  0  0  0  0  0
  191.8710  176.9020  138.5500 C   0  0  0  0  0  2  0  0  0  0  0  0
  187.4290  175.6570  136.1410 O   0  0  0  0  0  0  0  0  0  0  0  0
  189.6160  174.7700  136.4300 C   0  0  0  0  0  2  0  0  0  0  0  0
  188.5460  177.7360  141.0350 C   0  0  2  0  0  0  0  0  0  0  0  0
  188.6050  178.1520  139.7040 C   0  0  0  0  0  0  0  0  0  0  0  0
  184.0000  178.4170  138.1070 N   0  0  1  0  0  0  0  0  0  0  0  0
  186.5780  178.0530  137.6170 N   0  0  0  0  0  2  0  0  0  0  0  0
  191.4930  176.1960  137.2850 C   0  0  0  0  0  0  0  0  0  0  0  0
  184.7960  178.6320  144.8160 O   0  0  0  0  0  0  0  0  0  0  0  0
  186.3450  178.5000  142.3580 C   0  0  0  0  0  0  0  0  0  0  0  0
  190.6630  176.7570  140.7560 C   0  0  0  0  0  3  0  0  0  0  0  0
  190.8420  174.8390  137.3350 C   0  0  2  0  0  3  0  0  0  0  0  0
  190.6760  177.2060  139.3910 C   0  0  0  0  0  0  0  0  0  0  0  0
  189.6270  177.9240  138.8600 N   0  0  0  0  0  0  0  0  0  0  0  0
  184.8400  178.4560  139.3130 C   0  0  0  0  0  2  0  0  0  0  0  0
  186.2410  175.7310  136.8720 C   0  0  0  0  0  2  0  0  0  0  0  0
  185.6980  177.1540  136.8530 C   0  0  1  0  0  3  0  0  0  0  0  0
  184.2570  177.1710  137.3810 C   0  0  0  0  0  2  0  0  0  0  0  0
  191.5040  172.8200  136.2250 O   0  0  0  0  0  0  0  0  0  0  0  0
  193.1200  173.8430  137.4880 O   0  0  0  0  0  1  0  0  0  0  0  0
  191.8260  173.7700  136.9890 C   0  0  0  0  0  0  0  0  0  0  0  0
  182.2400  179.7120  139.1780 C   0  0  0  0  0  2  0  0  0  0  0  0
  181.8030  179.4010  137.7650 C   0  0  0  0  0  2  0  0  0  0  0  0
  182.6120  178.3820  138.5480 C   0  0  0  0  0  3  0  0  0  0  0  0
  1 18  2  0  0  0  0
  2 20  2  0  0  0  0
  3 20  1  0  0  0  0
  4 15  1  6  0  0  0
  4 14  1  0  0  0  0
  4  3  1  0  0  0  0
  5 25  1  6  0  0  0
  5  4  1  0  0  0  0
  8  9  1  0  0  0  0
  9 19  2  0  0  0  0
  9  6  1  0  0  0  0
 11 23  1  0  0  0  0
 12 26  1  0  0  0  0
 12 10  1  0  0  0  0
 13 10  1  0  0  0  0
 13 22  1  0  0  0  0
 14  3  1  0  0  0  0
 14  7  1  6  0  0  0
 15 14  1  0  0  0  0
 16 34  1  1  0  0  0
 16 25  1  0  0  0  0
 17  5  1  0  0  0  0
 18 22  1  0  0  0  0
 18 11  1  0  0  0  0
 20  8  1  0  0  0  0
 21  7  1  0  0  0  0
 22 31  1  6  0  0  0
 23 21  2  0  0  0  0
 24 23  1  0  0  0  0
 24 15  2  0  0  0  0
 27 26  1  1  0  0  0
 27 28  1  0  0  0  0
 27 17  1  0  0  0  0
 28 16  1  0  0  0  0
 29 31  2  0  0  0  0
 31 30  1  0  0  0  0
 33 34  1  0  0  0  0
 33 32  1  0  0  0  0
 34 32  1  0  0  0  0
M  END
>  <MODEL>
3

>  <REMARK>
 VINA RESULT:      -7.4      1.712      2.370
  Name = 
  2 active torsions:
  status: ('A' for Active; 'I' for Inactive)
    1  A    between atoms: N_19  and  C_27
    2  A    between atoms: C_21  and  C_28
                            x       y       z     vdW  Elec       q    Type
                         _______ _______ _______ _____ _____    ______ ____

>  <TORSDO>
F 2

$$$$
=
 OpenBabel10222421323D

 34 39  0  0  1  0  0  0  0  0999 V2000
  182.2070  180.1180  139.2630 O   0  0  0  0  0  0  0  0  0  0  0  0
  190.6330  176.5430  138.8850 O   0  0  0  0  0  0  0  0  0  0  0  0
  188.3850  176.9990  138.5060 N   0  0  0  0  0  0  0  0  0  0  0  0
  187.9960  178.1680  139.2230 C   0  0  2  0  0  0  0  0  0  0  0  0
  187.9050  177.8770  140.7250 C   0  0  2  0  0  3  0  0  0  0  0  0
  190.4010  173.0730  136.3830 O   0  0  0  0  0  0  0  0  0  0  0  0
  186.1490  176.3820  137.1050 C   0  0  0  0  0  2  0  0  0  0  0  0
  189.4950  175.0400  137.4940 N   0  0  0  0  0  2  0  0  0  0  0  0
  190.5910  174.1630  137.2210 C   0  0  0  0  0  0  0  0  0  0  0  0
  184.1120  177.7950  141.3740 C   0  0  0  0  0  2  0  0  0  0  0  0
  183.2080  178.8070  137.5920 C   0  0  0  0  0  2  0  0  0  0  0  0
  184.5340  178.3100  142.5990 O   0  0  0  0  0  0  0  0  0  0  0  0
  182.6200  178.0190  141.2190 C   0  0  0  0  0  2  0  0  0  0  0  0
  187.0320  177.0250  137.9490 C   0  0  2  0  0  0  0  0  0  0  0  0
  186.6830  178.1860  138.6410 C   0  0  0  0  0  0  0  0  0  0  0  0
  189.3530  178.2460  142.7270 N   0  0  1  0  0  0  0  0  0  0  0  0
  187.1540  178.9280  141.4160 N   0  0  0  0  0  2  0  0  0  0  0  0
  182.5250  178.9930  138.9110 C   0  0  0  0  0  0  0  0  0  0  0  0
  191.7270  174.3650  137.7270 O   0  0  0  0  0  1  0  0  0  0  0  0
  189.5560  176.2050  138.3250 C   0  0  0  0  0  0  0  0  0  0  0  0
  184.8760  177.0070  137.0180 C   0  0  0  0  0  3  0  0  0  0  0  0
  182.1930  177.8030  139.7710 C   0  0  2  0  0  3  0  0  0  0  0  0
  184.5640  178.2020  137.7520 C   0  0  0  0  0  0  0  0  0  0  0  0
  185.4910  178.8050  138.5740 N   0  0  0  0  0  0  0  0  0  0  0  0
  189.2990  177.7220  141.3540 C   0  0  0  0  0  2  0  0  0  0  0  0
  185.7020  177.6080  142.9040 C   0  0  0  0  0  2  0  0  0  0  0  0
  186.9110  178.5310  142.8120 C   0  0  1  0  0  3  0  0  0  0  0  0
  188.1360  177.8520  143.4410 C   0  0  0  0  0  2  0  0  0  0  0  0
  179.9830  177.6260  140.6850 O   0  0  0  0  0  1  0  0  0  0  0  0
  180.2020  177.0480  138.4780 O   0  0  0  0  0  0  0  0  0  0  0  0
  180.7360  177.4800  139.6840 C   0  0  0  0  0  0  0  0  0  0  0  0
  191.7270  177.7390  142.5470 C   0  0  0  0  0  2  0  0  0  0  0  0
  191.5250  178.6350  143.7480 C   0  0  0  0  0  2  0  0  0  0  0  0
  190.4740  177.5970  143.3930 C   0  0  0  0  0  3  0  0  0  0  0  0
  3  4  1  0  0  0  0
  4 15  1  6  0  0  0
  4  5  1  0  0  0  0
  5 25  1  1  0  0  0
  5 17  1  0  0  0  0
  6  9  2  0  0  0  0
  8 20  1  0  0  0  0
  9  8  1  0  0  0  0
  9 19  1  0  0  0  0
 10 12  1  0  0  0  0
 11 23  1  0  0  0  0
 11 18  1  0  0  0  0
 12 26  1  0  0  0  0
 13 10  1  0  0  0  0
 14  7  1  1  0  0  0
 14  3  1  0  0  0  0
 14 15  1  0  0  0  0
 14  4  1  0  0  0  0
 16 34  1  1  0  0  0
 16 28  1  0  0  0  0
 17 27  1  0  0  0  0
 18  1  2  0  0  0  0
 18 22  1  0  0  0  0
 20  3  1  0  0  0  0
 20  2  2  0  0  0  0
 21  7  1  0  0  0  0
 21 23  2  0  0  0  0
 22 31  1  1  0  0  0
 22 13  1  0  0  0  0
 23 24  1  0  0  0  0
 24 15  2  0  0  0  0
 25 16  1  0  0  0  0
 27 26  1  6  0  0  0
 27 28  1  0  0  0  0
 30 31  2  0  0  0  0
 31 29  1  0  0  0  0
 32 34  1  0  0  0  0
 32 33  1  0  0  0  0
 34 33  1  0  0  0  0
M  END
>  <MODEL>
4

>  <REMARK>
 VINA RESULT:      -7.2      2.419      7.677
  Name = 
  2 active torsions:
  status: ('A' for Active; 'I' for Inactive)
    1  A    between atoms: N_19  and  C_27
    2  A    between atoms: C_21  and  C_28
                            x       y       z     vdW  Elec       q    Type
                         _______ _______ _______ _____ _____    ______ ____

>  <TORSDO>
F 2

$$$$
=
 OpenBabel10222421323D

 34 39  0  0  1  0  0  0  0  0999 V2000
  192.9310  175.7790  135.4780 O   0  0  0  0  0  0  0  0  0  0  0  0
  185.7960  178.8190  140.3540 O   0  0  0  0  0  0  0  0  0  0  0  0
  187.8770  177.9980  139.7210 N   0  0  0  0  0  0  0  0  0  0  0  0
  188.0050  178.0320  138.3020 C   0  0  2  0  0  0  0  0  0  0  0  0
  187.1410  176.9440  137.6550 C   0  0  2  0  0  3  0  0  0  0  0  0
  186.7250  178.1320  144.4800 O   0  0  0  0  0  1  0  0  0  0  0  0
  190.3250  177.1570  140.5250 C   0  0  0  0  0  2  0  0  0  0  0  0
  187.1930  178.0970  142.0910 N   0  0  0  0  0  2  0  0  0  0  0  0
  186.3110  178.3850  143.1800 C   0  0  0  0  0  0  0  0  0  0  0  0
  189.7260  174.3260  136.5250 C   0  0  0  0  0  2  0  0  0  0  0  0
  192.8500  176.5690  137.6880 C   0  0  0  0  0  2  0  0  0  0  0  0
  188.7850  174.1600  135.5090 O   0  0  0  0  0  0  0  0  0  0  0  0
  191.0350  173.6810  136.1120 C   0  0  0  0  0  2  0  0  0  0  0  0
  189.2710  177.5510  139.7250 C   0  0  2  0  0  0  0  0  0  0  0  0
  189.3800  177.6180  138.3350 C   0  0  0  0  0  0  0  0  0  0  0  0
  184.9110  176.8390  136.5340 N   0  0  1  0  0  0  0  0  0  0  0  0
  187.5430  176.7150  136.2650 N   0  0  0  0  0  2  0  0  0  0  0  0
  192.6560  175.5190  136.6390 C   0  0  0  0  0  0  0  0  0  0  0  0
  185.1650  178.8670  142.9770 O   0  0  0  0  0  0  0  0  0  0  0  0
  186.9000  178.3230  140.7080 C   0  0  0  0  0  0  0  0  0  0  0  0
  191.5040  176.8300  139.8030 C   0  0  0  0  0  3  0  0  0  0  0  0
  192.1710  174.1450  137.0180 C   0  0  2  0  0  3  0  0  0  0  0  0
  191.5670  176.9130  138.3700 C   0  0  0  0  0  0  0  0  0  0  0  0
  190.4830  177.3230  137.6250 N   0  0  0  0  0  0  0  0  0  0  0  0
  185.6460  177.2990  137.7210 C   0  0  0  0  0  2  0  0  0  0  0  0
  187.5450  174.2560  136.1440 C   0  0  0  0  0  2  0  0  0  0  0  0
  186.8380  175.5400  135.7290 C   0  0  1  0  0  3  0  0  0  0  0  0
  185.3690  175.4960  136.1730 C   0  0  0  0  0  2  0  0  0  0  0  0
  194.3190  173.3500  137.7260 O   0  0  0  0  0  1  0  0  0  0  0  0
  193.2090  172.0250  136.2210 O   0  0  0  0  0  0  0  0  0  0  0  0
  193.3000  173.1660  137.0060 C   0  0  0  0  0  0  0  0  0  0  0  0
  183.0210  178.0570  137.4670 C   0  0  0  0  0  2  0  0  0  0  0  0
  182.6750  177.6630  136.0480 C   0  0  0  0  0  2  0  0  0  0  0  0
  183.5080  176.7300  136.9110 C   0  0  0  0  0  3  0  0  0  0  0  0
  1 18  2  0  0  0  0
  2 20  2  0  0  0  0
  3 14  1  0  0  0  0
  3 20  1  0  0  0  0
  4 15  1  6  0  0  0
  4  3  1  0  0  0  0
  4 14  1  0  0  0  0
  5 25  1  6  0  0  0
  5  4  1  0  0  0  0
  8  9  1  0  0  0  0
  9  6  1  0  0  0  0
 11 23  1  0  0  0  0
 12 26  1  0  0  0  0
 12 10  1  0  0  0  0
 13 10  1  0  0  0  0
 13 22  1  0  0  0  0
 14  7  1  6  0  0  0
 15 14  1  0  0  0  0
 16 34  1  1  0  0  0
 16 25  1  0  0  0  0
 17  5  1  0  0  0  0
 18 22  1  0  0  0  0
 18 11  1  0  0  0  0
 19  9  2  0  0  0  0
 20  8  1  0  0  0  0
 21  7  1  0  0  0  0
 22 31  1  6  0  0  0
 23 21  2  0  0  0  0
 24 15  2  0  0  0  0
 24 23  1  0  0  0  0
 27 26  1  1  0  0  0
 27 28  1  0  0  0  0
 27 17  1  0  0  0  0
 28 16  1  0  0  0  0
 30 31  2  0  0  0  0
 31 29  1  0  0  0  0
 33 34  1  0  0  0  0
 33 32  1  0  0  0  0
 34 32  1  0  0  0  0
M  END
>  <MODEL>
5

>  <REMARK>
 VINA RESULT:      -6.9      2.540      4.043
  Name = 
  2 active torsions:
  status: ('A' for Active; 'I' for Inactive)
    1  A    between atoms: N_19  and  C_27
    2  A    between atoms: C_21  and  C_28
                            x       y       z     vdW  Elec       q    Type
                         _______ _______ _______ _____ _____    ______ ____

>  <TORSDO>
F 2

$$$$
=
 OpenBabel10222421323D

 34 39  0  0  1  0  0  0  0  0999 V2000
  185.3460  180.6170  143.7560 O   0  0  0  0  0  0  0  0  0  0  0  0
  185.1210  176.5040  135.5730 O   0  0  0  0  0  0  0  0  0  0  0  0
  184.6340  177.1780  137.7440 N   0  0  0  0  0  0  0  0  0  0  0  0
  185.4830  178.2590  138.1220 C   0  0  2  0  0  0  0  0  0  0  0  0
  186.9120  177.7650  138.3670 C   0  0  2  0  0  3  0  0  0  0  0  0
  182.1210  173.4530  135.7960 O   0  0  0  0  0  1  0  0  0  0  0  0
  182.9820  176.9370  139.8780 C   0  0  0  0  0  2  0  0  0  0  0  0
  183.4360  175.3040  136.6730 N   0  0  0  0  0  2  0  0  0  0  0  0
  183.1240  174.3950  135.6140 C   0  0  0  0  0  0  0  0  0  0  0  0
  187.2350  177.8790  142.2010 C   0  0  0  0  0  2  0  0  0  0  0  0
  183.5840  179.4850  142.6920 C   0  0  0  0  0  2  0  0  0  0  0  0
  188.5530  178.1810  141.8600 O   0  0  0  0  0  0  0  0  0  0  0  0
  186.9950  178.2350  143.6550 C   0  0  0  0  0  2  0  0  0  0  0  0
  183.9800  177.3850  139.0370 C   0  0  2  0  0  0  0  0  0  0  0  0
  184.8060  178.4590  139.3730 C   0  0  0  0  0  0  0  0  0  0  0  0
  189.0570  177.7340  137.0860 N   0  0  1  0  0  0  0  0  0  0  0  0
  187.6890  178.7610  139.1100 N   0  0  0  0  0  2  0  0  0  0  0  0
  184.8570  179.5320  143.4790 C   0  0  0  0  0  0  0  0  0  0  0  0
  183.7450  174.4360  134.5180 O   0  0  0  0  0  0  0  0  0  0  0  0
  184.4320  176.3310  136.6150 C   0  0  0  0  0  0  0  0  0  0  0  0
  182.8860  177.6640  141.0960 C   0  0  0  0  0  3  0  0  0  0  0  0
  185.5020  178.2600  143.9620 C   0  0  2  0  0  3  0  0  0  0  0  0
  183.7620  178.7620  141.3980 C   0  0  0  0  0  0  0  0  0  0  0  0
  184.7360  179.1700  140.5120 N   0  0  0  0  0  0  0  0  0  0  0  0
  187.6220  177.4170  137.0480 C   0  0  0  0  0  2  0  0  0  0  0  0
  188.8440  177.3560  140.7710 C   0  0  0  0  0  2  0  0  0  0  0  0
  188.9870  178.1890  139.5030 C   0  0  1  0  0  3  0  0  0  0  0  0
  189.6050  177.3370  138.3850 C   0  0  0  0  0  2  0  0  0  0  0  0
  186.0170  177.3420  146.1170 O   0  0  0  0  0  1  0  0  0  0  0  0
  184.1810  178.7120  146.0260 O   0  0  0  0  0  0  0  0  0  0  0  0
  185.2500  178.0650  145.4230 C   0  0  0  0  0  0  0  0  0  0  0  0
  188.7140  176.5660  134.9780 C   0  0  0  0  0  2  0  0  0  0  0  0
  189.7320  177.6620  134.7510 C   0  0  0  0  0  2  0  0  0  0  0  0
  189.7080  176.9140  136.0740 C   0  0  0  0  0  3  0  0  0  0  0  0
  2 20  2  0  0  0  0
  3  4  1  0  0  0  0
  3 14  1  0  0  0  0
  4  5  1  0  0  0  0
  4 14  1  0  0  0  0
  4 15  1  6  0  0  0
  5 25  1  6  0  0  0
  5 17  1  0  0  0  0
  7 21  1  0  0  0  0
  9  6  1  0  0  0  0
  9  8  1  0  0  0  0
 10 13  1  0  0  0  0
 11 18  1  0  0  0  0
 12 10  1  0  0  0  0
 13 22  1  0  0  0  0
 14 15  1  0  0  0  0
 14  7  1  1  0  0  0
 15 24  2  0  0  0  0
 16 34  1  6  0  0  0
 16 28  1  0  0  0  0
 17 27  1  0  0  0  0
 18  1  2  0  0  0  0
 18 22  1  0  0  0  0
 19  9  2  0  0  0  0
 20  8  1  0  0  0  0
 20  3  1  0  0  0  0
 21 23  2  0  0  0  0
 22 31  1  1  0  0  0
 23 11  1  0  0  0  0
 24 23  1  0  0  0  0
 25 16  1  0  0  0  0
 26 12  1  0  0  0  0
 27 28  1  6  0  0  0
 27 26  1  0  0  0  0
 31 30  2  0  0  0  0
 31 29  1  0  0  0  0
 32 34  1  0  0  0  0
 33 32  1  0  0  0  0
 33 34  1  0  0  0  0
M  END
>  <MODEL>
6

>  <REMARK>
 VINA RESULT:      -6.9      2.305      8.017
  Name = 
  2 active torsions:
  status: ('A' for Active; 'I' for Inactive)
    1  A    between atoms: N_19  and  C_27
    2  A    between atoms: C_21  and  C_28
                            x       y       z     vdW  Elec       q    Type
                         _______ _______ _______ _____ _____    ______ ____

>  <TORSDO>
F 2

$$$$
=
 OpenBabel10222421323D

 34 39  0  0  1  0  0  0  0  0999 V2000
  185.8450  178.4330  135.1250 O   0  0  0  0  0  0  0  0  0  0  0  0
  188.9560  178.3730  143.7410 O   0  0  0  0  0  0  0  0  0  0  0  0
  188.6550  177.9450  141.4750 N   0  0  0  0  0  0  0  0  0  0  0  0
  187.7000  178.8510  140.9300 C   0  0  2  0  0  0  0  0  0  0  0  0
  186.2860  178.4960  141.4030 C   0  0  2  0  0  3  0  0  0  0  0  0
  191.7830  175.1650  144.0210 O   0  0  0  0  0  0  0  0  0  0  0  0
  189.4880  176.5670  139.2960 C   0  0  0  0  0  2  0  0  0  0  0  0
  190.1980  176.5960  142.8510 N   0  0  0  0  0  2  0  0  0  0  0  0
  190.8760  176.2150  144.0520 C   0  0  0  0  0  0  0  0  0  0  0  0
  184.6740  176.9460  138.2700 C   0  0  0  0  0  2  0  0  0  0  0  0
  187.8940  177.6630  135.9760 C   0  0  0  0  0  2  0  0  0  0  0  0
  183.5430  177.5420  138.8290 O   0  0  0  0  0  0  0  0  0  0  0  0
  184.3940  176.5870  136.8240 C   0  0  0  0  0  2  0  0  0  0  0  0
  188.8240  177.4700  140.1010 C   0  0  2  0  0  0  0  0  0  0  0  0
  187.9040  178.3840  139.5870 C   0  0  0  0  0  0  0  0  0  0  0  0
  184.7070  179.3230  143.1540 N   0  0  1  0  0  0  0  0  0  0  0  0
  185.2750  179.1560  140.5720 N   0  0  0  0  0  2  0  0  0  0  0  0
  186.4280  177.5280  135.7000 C   0  0  0  0  0  0  0  0  0  0  0  0
  190.6650  176.8200  145.1370 O   0  0  0  0  0  1  0  0  0  0  0  0
  189.2530  177.6670  142.7400 C   0  0  0  0  0  0  0  0  0  0  0  0
  189.1430  176.6590  137.9210 C   0  0  0  0  0  3  0  0  0  0  0  0
  185.6930  176.2730  136.0890 C   0  0  2  0  0  3  0  0  0  0  0  0
  188.1870  177.6180  137.4390 C   0  0  0  0  0  0  0  0  0  0  0  0
  187.5620  178.5020  138.2920 N   0  0  0  0  0  0  0  0  0  0  0  0
  186.0780  178.8660  142.8810 C   0  0  0  0  0  2  0  0  0  0  0  0
  183.6630  177.3310  140.2040 C   0  0  0  0  0  2  0  0  0  0  0  0
  183.9380  178.6490  140.9180 C   0  0  1  0  0  3  0  0  0  0  0  0
  183.7610  178.4700  142.4320 C   0  0  0  0  0  2  0  0  0  0  0  0
  184.2980  175.3950  134.3460 O   0  0  0  0  0  1  0  0  0  0  0  0
  186.4740  174.6730  134.3460 O   0  0  0  0  0  0  0  0  0  0  0  0
  185.4370  175.4200  134.8880 C   0  0  0  0  0  0  0  0  0  0  0  0
  185.4970  178.1780  145.1510 C   0  0  0  0  0  2  0  0  0  0  0  0
  185.6420  179.6660  145.3730 C   0  0  0  0  0  2  0  0  0  0  0  0
  184.4630  179.1310  144.5770 C   0  0  0  0  0  3  0  0  0  0  0  0
  1 18  2  0  0  0  0
  3 20  1  0  0  0  0
  4 15  1  6  0  0  0
  4  5  1  0  0  0  0
  4  3  1  0  0  0  0
  5 25  1  1  0  0  0
  6  9  2  0  0  0  0
  8  9  1  0  0  0  0
  9 19  1  0  0  0  0
 10 12  1  0  0  0  0
 11 23  1  0  0  0  0
 12 26  1  0  0  0  0
 13 10  1  0  0  0  0
 14  7  1  1  0  0  0
 14  4  1  0  0  0  0
 14  3  1  0  0  0  0
 15 14  1  0  0  0  0
 16 34  1  1  0  0  0
 17 27  1  0  0  0  0
 17  5  1  0  0  0  0
 18 11  1  0  0  0  0
 18 22  1  0  0  0  0
 20  8  1  0  0  0  0
 20  2  2  0  0  0  0
 21  7  1  0  0  0  0
 22 31  1  6  0  0  0
 22 13  1  0  0  0  0
 23 21  2  0  0  0  0
 23 24  1  0  0  0  0
 24 15  2  0  0  0  0
 25 16  1  0  0  0  0
 27 26  1  6  0  0  0
 27 28  1  0  0  0  0
 28 16  1  0  0  0  0
 29 31  1  0  0  0  0
 30 31  2  0  0  0  0
 32 33  1  0  0  0  0
 34 32  1  0  0  0  0
 34 33  1  0  0  0  0
M  END
>  <MODEL>
7

>  <REMARK>
 VINA RESULT:      -6.6      2.515      4.009
  Name = 
  2 active torsions:
  status: ('A' for Active; 'I' for Inactive)
    1  A    between atoms: N_19  and  C_27
    2  A    between atoms: C_21  and  C_28
                            x       y       z     vdW  Elec       q    Type
                         _______ _______ _______ _____ _____    ______ ____

>  <TORSDO>
F 2

$$$$
=
 OpenBabel10222421323D

 34 39  0  0  1  0  0  0  0  0999 V2000
  189.2180  177.4750  135.7350 O   0  0  0  0  0  0  0  0  0  0  0  0
  182.3370  178.8720  141.6180 O   0  0  0  0  0  0  0  0  0  0  0  0
  184.4440  178.5840  140.6780 N   0  0  0  0  0  0  0  0  0  0  0  0
  184.3450  178.5500  139.2570 C   0  0  2  0  0  0  0  0  0  0  0  0
  183.7200  177.2310  138.7900 C   0  0  2  0  0  3  0  0  0  0  0  0
  184.0200  178.7450  145.5550 O   0  0  0  0  0  1  0  0  0  0  0  0
  187.1190  178.4730  141.0970 C   0  0  0  0  0  2  0  0  0  0  0  0
  184.1190  178.6670  143.1240 N   0  0  0  0  0  2  0  0  0  0  0  0
  183.3640  178.7890  144.3330 C   0  0  0  0  0  0  0  0  0  0  0  0
  186.7190  175.3100  137.3280 C   0  0  0  0  0  2  0  0  0  0  0  0
  189.2570  178.3700  137.9060 C   0  0  0  0  0  2  0  0  0  0  0  0
  185.7170  174.8310  136.4840 O   0  0  0  0  0  0  0  0  0  0  0  0
  188.0760  175.0030  136.7270 C   0  0  0  0  0  2  0  0  0  0  0  0
  185.8910  178.5200  140.4680 C   0  0  2  0  0  0  0  0  0  0  0  0
  185.7690  178.5140  139.0780 C   0  0  0  0  0  0  0  0  0  0  0  0
  181.4610  176.4650  138.0490 N   0  0  1  0  0  0  0  0  0  0  0  0
  183.9580  177.0180  137.3590 N   0  0  0  0  0  2  0  0  0  0  0  0
  189.2000  177.2340  136.9320 C   0  0  0  0  0  0  0  0  0  0  0  0
  182.1130  178.9380  144.3060 O   0  0  0  0  0  0  0  0  0  0  0  0
  183.5730  178.7100  141.8010 C   0  0  0  0  0  0  0  0  0  0  0  0
  188.2220  178.4170  140.2020 C   0  0  0  0  0  3  0  0  0  0  0  0
  189.1660  175.8110  137.4220 C   0  0  2  0  0  3  0  0  0  0  0  0
  188.0450  178.4130  138.7760 C   0  0  0  0  0  0  0  0  0  0  0  0
  186.7920  178.4700  138.2060 N   0  0  0  0  0  0  0  0  0  0  0  0
  182.2120  177.1840  139.0870 C   0  0  0  0  0  2  0  0  0  0  0  0
  184.6060  174.6430  137.3090 C   0  0  0  0  0  2  0  0  0  0  0  0
  183.5250  175.6640  136.9780 C   0  0  1  0  0  3  0  0  0  0  0  0
  182.2060  175.2680  137.6560 C   0  0  0  0  0  2  0  0  0  0  0  0
  190.8870  174.7600  136.1240 O   0  0  0  0  0  0  0  0  0  0  0  0
  191.3440  175.0390  138.3530 O   0  0  0  0  0  1  0  0  0  0  0  0
  190.5030  175.1650  137.2550 C   0  0  0  0  0  0  0  0  0  0  0  0
  180.4960  175.3390  139.9790 C   0  0  0  0  0  2  0  0  0  0  0  0
  179.9830  176.7610  139.9570 C   0  0  0  0  0  2  0  0  0  0  0  0
  180.2120  176.0190  138.6510 C   0  0  0  0  0  3  0  0  0  0  0  0
  1 18  2  0  0  0  0
  2 20  2  0  0  0  0
  3 20  1  0  0  0  0
  4 15  1  6  0  0  0
  4 14  1  0  0  0  0
  4  3  1  0  0  0  0
  5 25  1  6  0  0  0
  5  4  1  0  0  0  0
  8  9  1  0  0  0  0
  9  6  1  0  0  0  0
 11 23  1  0  0  0  0
 12 26  1  0  0  0  0
 12 10  1  0  0  0  0
 13 10  1  0  0  0  0
 13 22  1  0  0  0  0
 14  3  1  0  0  0  0
 14  7  1  1  0  0  0
 15 14  1  0  0  0  0
 16 34  1  1  0  0  0
 16 25  1  0  0  0  0
 17  5  1  0  0  0  0
 18 22  1  0  0  0  0
 18 11  1  0  0  0  0
 19  9  2  0  0  0  0
 20  8  1  0  0  0  0
 21  7  1  0  0  0  0
 22 31  1  6  0  0  0
 23 21  2  0  0  0  0
 24 23  1  0  0  0  0
 24 15  2  0  0  0  0
 27 26  1  1  0  0  0
 27 17  1  0  0  0  0
 27 28  1  0  0  0  0
 28 16  1  0  0  0  0
 29 31  2  0  0  0  0
 31 30  1  0  0  0  0
 33 32  1  0  0  0  0
 34 33  1  0  0  0  0
 34 32  1  0  0  0  0
M  END
>  <MODEL>
8

>  <REMARK>
 VINA RESULT:      -6.5      1.664      2.167
  Name = 
  2 active torsions:
  status: ('A' for Active; 'I' for Inactive)
    1  A    between atoms: N_19  and  C_27
    2  A    between atoms: C_21  and  C_28
                            x       y       z     vdW  Elec       q    Type
                         _______ _______ _______ _____ _____    ______ ____

>  <TORSDO>
F 2

$$$$
=
 OpenBabel10222421323D

 34 39  0  0  1  0  0  0  0  0999 V2000
  188.2900  179.5370  147.3250 O   0  0  0  0  0  0  0  0  0  0  0  0
  183.7510  178.7510  139.4060 O   0  0  0  0  0  0  0  0  0  0  0  0
  184.3280  178.7240  141.6590 N   0  0  0  0  0  0  0  0  0  0  0  0
  185.5960  179.3470  141.8450 C   0  0  2  0  0  0  0  0  0  0  0  0
  186.7230  178.4480  141.3270 C   0  0  2  0  0  3  0  0  0  0  0  0
  180.0920  176.6960  140.2680 O   0  0  0  0  0  1  0  0  0  0  0  0
  183.5420  178.1870  144.1950 C   0  0  0  0  0  2  0  0  0  0  0  0
  182.2220  177.7190  140.8510 N   0  0  0  0  0  2  0  0  0  0  0  0
  181.2490  177.3500  139.8700 C   0  0  0  0  0  0  0  0  0  0  0  0
  188.3500  177.1280  144.5550 C   0  0  0  0  0  2  0  0  0  0  0  0
  185.9830  179.3430  146.9290 C   0  0  0  0  0  2  0  0  0  0  0  0
  189.4830  177.1800  143.7430 O   0  0  0  0  0  0  0  0  0  0  0  0
  188.7740  177.0020  146.0060 C   0  0  0  0  0  2  0  0  0  0  0  0
  184.2840  178.6280  143.1180 C   0  0  2  0  0  0  0  0  0  0  0  0
  185.5150  179.2640  143.2770 C   0  0  0  0  0  0  0  0  0  0  0  0
  188.1210  178.3160  139.2600 N   0  0  1  0  0  0  0  0  0  0  0  0
  188.0220  178.8850  141.8460 N   0  0  0  0  0  2  0  0  0  0  0  0
  187.3640  178.7830  147.0670 C   0  0  0  0  0  0  0  0  0  0  0  0
  181.4250  177.6110  138.6500 O   0  0  0  0  0  0  0  0  0  0  0  0
  183.4490  178.4080  140.5810 C   0  0  0  0  0  0  0  0  0  0  0  0
  184.1490  178.4400  145.4550 C   0  0  0  0  0  3  0  0  0  0  0  0
  187.6030  177.3020  146.9350 C   0  0  2  0  0  3  0  0  0  0  0  0
  185.4210  179.0990  145.5680 C   0  0  0  0  0  0  0  0  0  0  0  0
  186.1120  179.5250  144.4540 N   0  0  0  0  0  0  0  0  0  0  0  0
  186.7520  178.4120  139.7890 C   0  0  0  0  0  2  0  0  0  0  0  0
  189.0500  176.7430  142.4890 C   0  0  0  0  0  2  0  0  0  0  0  0
  189.0550  177.8980  141.4960 C   0  0  1  0  0  3  0  0  0  0  0  0
  188.8840  177.3620  140.0680 C   0  0  0  0  0  2  0  0  0  0  0  0
  188.2840  175.5160  148.3830 O   0  0  0  0  0  0  0  0  0  0  0  0
  187.5080  177.4060  149.4220 O   0  0  0  0  0  1  0  0  0  0  0  0
  187.8100  176.6800  148.2780 C   0  0  0  0  0  0  0  0  0  0  0  0
  187.2250  178.7030  137.0300 C   0  0  0  0  0  2  0  0  0  0  0  0
  188.7340  178.6830  136.9360 C   0  0  0  0  0  2  0  0  0  0  0  0
  188.0250  177.7630  137.9160 C   0  0  0  0  0  3  0  0  0  0  0  0
  2 20  2  0  0  0  0
  3  4  1  0  0  0  0
  3 14  1  0  0  0  0
  4 14  1  0  0  0  0
  4 15  1  6  0  0  0
  5 25  1  6  0  0  0
  5  4  1  0  0  0  0
  5 17  1  0  0  0  0
  7 21  1  0  0  0  0
  9  6  1  0  0  0  0
  9  8  1  0  0  0  0
 10 13  1  0  0  0  0
 11 18  1  0  0  0  0
 12 10  1  0  0  0  0
 13 22  1  0  0  0  0
 14 15  1  0  0  0  0
 14  7  1  6  0  0  0
 15 24  2  0  0  0  0
 16 34  1  6  0  0  0
 16 25  1  0  0  0  0
 16 28  1  0  0  0  0
 18  1  2  0  0  0  0
 19  9  2  0  0  0  0
 20  8  1  0  0  0  0
 20  3  1  0  0  0  0
 21 23  2  0  0  0  0
 22 18  1  0  0  0  0
 22 31  1  1  0  0  0
 23 11  1  0  0  0  0
 24 23  1  0  0  0  0
 26 12  1  0  0  0  0
 27 28  1  6  0  0  0
 27 17  1  0  0  0  0
 27 26  1  0  0  0  0
 31 29  2  0  0  0  0
 31 30  1  0  0  0  0
 32 34  1  0  0  0  0
 33 32  1  0  0  0  0
 33 34  1  0  0  0  0
M  END
>  <MODEL>
9

>  <REMARK>
 VINA RESULT:      -5.2      3.021      7.682
  Name = 
  2 active torsions:
  status: ('A' for Active; 'I' for Inactive)
    1  A    between atoms: N_19  and  C_27
    2  A    between atoms: C_21  and  C_28
                            x       y       z     vdW  Elec       q    Type
                         _______ _______ _______ _____ _____    ______ ____

>  <TORSDO>
F 2

$$$$
