=
 OpenBabel10232411533D

 31 32  0  0  1  0  0  0  0  0999 V2000
  186.8710  178.4500  145.4460 C   0  0  2  0  0  3  0  0  0  0  0  0
  184.3140  178.6050  140.2100 C   0  0  0  0  0  2  0  0  0  0  0  0
  184.4420  178.7270  142.7410 C   0  0  0  0  0  3  0  0  0  0  0  0
  185.7140  179.0170  140.1100 N   0  0  0  0  0  2  0  0  0  0  0  0
  187.7210  178.7920  141.3640 C   0  0  0  0  0  3  0  0  0  0  0  0
  189.4010  178.9090  142.9580 F   0  0  0  0  0  0  0  0  0  0  0  0
  185.5240  178.3920  143.4040 C   0  0  0  0  0  0  0  0  0  0  0  0
  186.6430  178.0760  144.0190 C   0  0  0  0  0  0  0  0  0  0  0  0
  184.0050  177.9180  141.5560 C   0  0  0  0  0  2  0  0  0  0  0  0
  186.7210  178.2160  140.7120 C   0  0  0  0  0  3  0  0  0  0  0  0
  188.5870  178.0010  142.3050 C   0  0  1  0  0  0  0  0  0  0  0  0
  188.5450  177.8840  145.8860 S   0  0  0  0  0  0  0  0  0  0  0  0
  188.5080  176.6520  144.5480 C   0  0  1  0  0  3  0  0  0  0  0  0
  187.7170  177.2360  143.3690 C   0  0  1  0  0  3  0  0  0  0  0  0
  185.8480  177.7740  146.3490 C   0  0  0  0  0  2  0  0  0  0  0  0
  184.9340  178.7170  146.8190 O   0  0  0  0  0  1  0  0  0  0  0  0
  189.5000  177.0510  141.5090 C   0  0  0  0  0  2  0  0  0  0  0  0
  190.9380  177.5390  141.3870 C   0  0  0  0  0  2  0  0  0  0  0  0
  191.4440  177.3020  139.9780 C   0  0  0  0  0  2  0  0  0  0  0  0
  190.3280  176.7540  139.1040 C   0  0  0  0  0  2  0  0  0  0  0  0
  190.3810  177.3420  137.8300 O   0  0  0  0  0  0  0  0  0  0  0  0
  189.3040  179.2270  138.5950 F   0  0  0  0  0  0  0  0  0  0  0  0
  189.2620  178.7090  136.4110 F   0  0  0  0  0  0  0  0  0  0  0  0
  189.2570  178.1790  137.6880 C   0  0  0  0  0  0  0  0  0  0  0  0
  188.0830  177.4610  137.8570 F   0  0  0  0  0  0  0  0  0  0  0  0
  189.8030  176.2570  144.2080 O   0  0  0  0  0  0  0  0  0  0  0  0
  190.6340  177.0060  145.0440 C   0  0  0  0  0  2  0  0  0  0  0  0
  191.9760  176.2350  147.0440 C   0  0  0  0  0  0  0  0  0  0  0  0
  191.6210  176.1350  145.6640 N   0  0  0  0  0  2  0  0  0  0  0  0
  191.4550  177.1160  147.7790 O   0  0  0  0  0  0  0  0  0  0  0  0
  192.9290  175.3340  147.5930 N   0  0  0  0  0  1  0  0  0  0  0  0
  1 12  1  0  0  0  0
  1 15  1  1  0  0  0
  2  9  1  0  0  0  0
  3  7  2  0  0  0  0
  4  2  1  0  0  0  0
  4 10  1  0  0  0  0
  5 11  1  0  0  0  0
  7  8  2  0  0  0  0
  8  1  1  0  0  0  0
  9  3  1  0  0  0  0
 10  5  2  0  0  0  0
 11  6  1  1  0  0  0
 11 14  1  0  0  0  0
 13 26  1  6  0  0  0
 13 12  1  0  0  0  0
 14  8  1  1  0  0  0
 14 13  1  0  0  0  0
 15 16  1  0  0  0  0
 17 11  1  0  0  0  0
 18 17  1  0  0  0  0
 19 18  1  0  0  0  0
 20 19  1  0  0  0  0
 21 20  1  0  0  0  0
 23 24  1  0  0  0  0
 24 21  1  0  0  0  0
 24 25  1  0  0  0  0
 24 22  1  0  0  0  0
 26 27  1  0  0  0  0
 27 29  1  0  0  0  0
 28 31  1  0  0  0  0
 28 30  2  0  0  0  0
 29 28  1  0  0  0  0
M  END
>  <MODEL>
1

>  <REMARK>
 VINA RESULT:      -7.7      0.000      0.000
  Name = 
  10 active torsions:
  status: ('A' for Active; 'I' for Inactive)
    1  A    between atoms: C_1  and  N_10
    2  A    between atoms: C_1  and  O_16
    3  A    between atoms: C_2  and  C_5
    4  A    between atoms: C_3  and  C_8
    5  A    between atoms: C_3  and  C_23
    6  A    between atoms: C_8  and  C_29
    7  A    between atoms: O_16  and  C_26
    8  A    between atoms: C_18  and  O_27
    9  A    between atoms: C_18  and  C_29
   10  A    between atoms: C_24  and  O_27
                            x       y       z     vdW  Elec       q    Type
                         _______ _______ _______ _____ _____    ______ ____

>  <TORSDO>
F 10

$$$$
=
 OpenBabel10232411533D

 31 32  0  0  1  0  0  0  0  0999 V2000
  184.3150  178.1500  143.2140 C   0  0  2  0  0  3  0  0  0  0  0  0
  187.4270  178.2640  148.1410 C   0  0  0  0  0  2  0  0  0  0  0  0
  185.3440  178.4230  146.7010 C   0  0  0  0  0  3  0  0  0  0  0  0
  188.0460  177.3710  147.1630 N   0  0  0  0  0  2  0  0  0  0  0  0
  188.0110  177.0200  144.8130 C   0  0  0  0  0  3  0  0  0  0  0  0
  187.4390  176.5100  142.6240 F   0  0  0  0  0  0  0  0  0  0  0  0
  185.3990  178.4290  145.3900 C   0  0  0  0  0  0  0  0  0  0  0  0
  185.5050  178.3990  144.0790 C   0  0  0  0  0  0  0  0  0  0  0  0
  186.3630  179.1790  147.5000 C   0  0  0  0  0  2  0  0  0  0  0  0
  188.2530  177.8280  145.8340 C   0  0  0  0  0  3  0  0  0  0  0  0
  187.8670  177.5600  143.4170 C   0  0  1  0  0  0  0  0  0  0  0  0
  184.9000  178.1320  141.4900 S   0  0  0  0  0  0  0  0  0  0  0  0
  186.3590  179.1170  141.9480 C   0  0  1  0  0  3  0  0  0  0  0  0
  186.7980  178.7120  143.3630 C   0  0  1  0  0  3  0  0  0  0  0  0
  183.2800  179.2540  143.3920 C   0  0  0  0  0  2  0  0  0  0  0  0
  182.1210  178.7310  143.9620 O   0  0  0  0  0  1  0  0  0  0  0  0
  189.2370  178.0140  142.8820 C   0  0  0  0  0  2  0  0  0  0  0  0
  190.2790  176.9030  142.8390 C   0  0  0  0  0  2  0  0  0  0  0  0
  191.4840  177.2940  143.6740 C   0  0  0  0  0  2  0  0  0  0  0  0
  191.6400  176.3430  144.8470 C   0  0  0  0  0  2  0  0  0  0  0  0
  191.7540  177.0680  146.0450 O   0  0  0  0  0  0  0  0  0  0  0  0
  192.4690  176.7370  148.2080 F   0  0  0  0  0  0  0  0  0  0  0  0
  190.5970  175.7400  147.4690 F   0  0  0  0  0  0  0  0  0  0  0  0
  191.8670  176.1490  147.1050 C   0  0  0  0  0  0  0  0  0  0  0  0
  192.5900  175.0320  146.7140 F   0  0  0  0  0  0  0  0  0  0  0  0
  187.3670  178.9780  140.9920 O   0  0  0  0  0  0  0  0  0  0  0  0
  186.7390  178.3730  139.9000 C   0  0  0  0  0  2  0  0  0  0  0  0
  188.7760  177.7170  138.5540 C   0  0  0  0  0  0  0  0  0  0  0  0
  187.5840  178.4860  138.7220 N   0  0  0  0  0  2  0  0  0  0  0  0
  189.1580  176.9200  139.4520 O   0  0  0  0  0  0  0  0  0  0  0  0
  189.5420  177.8570  137.3640 N   0  0  0  0  0  1  0  0  0  0  0  0
  1 15  1  6  0  0  0
  1  8  1  0  0  0  0
  3  9  1  0  0  0  0
  4  2  1  0  0  0  0
  5 10  2  0  0  0  0
  7  3  2  0  0  0  0
  8  7  2  0  0  0  0
  9  2  1  0  0  0  0
 10  4  1  0  0  0  0
 11  6  1  6  0  0  0
 11  5  1  0  0  0  0
 12 13  1  0  0  0  0
 12  1  1  0  0  0  0
 13 26  1  6  0  0  0
 13 14  1  0  0  0  0
 14 11  1  0  0  0  0
 14  8  1  1  0  0  0
 15 16  1  0  0  0  0
 17 11  1  0  0  0  0
 18 17  1  0  0  0  0
 18 19  1  0  0  0  0
 19 20  1  0  0  0  0
 20 21  1  0  0  0  0
 21 24  1  0  0  0  0
 24 23  1  0  0  0  0
 24 22  1  0  0  0  0
 25 24  1  0  0  0  0
 27 26  1  0  0  0  0
 28 29  1  0  0  0  0
 28 30  2  0  0  0  0
 29 27  1  0  0  0  0
 31 28  1  0  0  0  0
M  END
>  <MODEL>
2

>  <REMARK>
 VINA RESULT:      -7.7      2.987      6.568
  Name = 
  10 active torsions:
  status: ('A' for Active; 'I' for Inactive)
    1  A    between atoms: C_1  and  N_10
    2  A    between atoms: C_1  and  O_16
    3  A    between atoms: C_2  and  C_5
    4  A    between atoms: C_3  and  C_8
    5  A    between atoms: C_3  and  C_23
    6  A    between atoms: C_8  and  C_29
    7  A    between atoms: O_16  and  C_26
    8  A    between atoms: C_18  and  O_27
    9  A    between atoms: C_18  and  C_29
   10  A    between atoms: C_24  and  O_27
                            x       y       z     vdW  Elec       q    Type
                         _______ _______ _______ _____ _____    ______ ____

>  <TORSDO>
F 10

$$$$
=
 OpenBabel10232411533D

 31 32  0  0  1  0  0  0  0  0999 V2000
  183.7470  178.2770  143.5080 C   0  0  2  0  0  3  0  0  0  0  0  0
  187.5370  178.2180  147.9360 C   0  0  0  0  0  2  0  0  0  0  0  0
  185.2670  178.4120  146.8190 C   0  0  0  0  0  3  0  0  0  0  0  0
  188.0140  177.3750  146.8400 N   0  0  0  0  0  2  0  0  0  0  0  0
  187.6420  177.1250  144.5060 C   0  0  0  0  0  3  0  0  0  0  0  0
  186.7630  176.7030  142.4020 F   0  0  0  0  0  0  0  0  0  0  0  0
  185.1320  178.4760  145.5150 C   0  0  0  0  0  0  0  0  0  0  0  0
  185.0480  178.5030  144.2030 C   0  0  0  0  0  0  0  0  0  0  0  0
  186.3870  179.1460  147.4960 C   0  0  0  0  0  2  0  0  0  0  0  0
  188.0240  177.8910  145.5170 C   0  0  0  0  0  3  0  0  0  0  0  0
  187.2950  177.7230  143.1710 C   0  0  1  0  0  0  0  0  0  0  0  0
  184.0780  178.3400  141.7180 S   0  0  0  0  0  0  0  0  0  0  0  0
  185.5810  179.3230  142.0050 C   0  0  1  0  0  3  0  0  0  0  0  0
  186.2220  178.8630  143.3220 C   0  0  1  0  0  3  0  0  0  0  0  0
  182.7430  179.3600  143.8810 C   0  0  0  0  0  2  0  0  0  0  0  0
  181.4950  179.0570  143.3380 O   0  0  0  0  0  1  0  0  0  0  0  0
  188.5710  178.2160  142.4650 C   0  0  0  0  0  2  0  0  0  0  0  0
  188.9580  177.3890  141.2460 C   0  0  0  0  0  2  0  0  0  0  0  0
  190.4670  177.3720  141.0930 C   0  0  0  0  0  2  0  0  0  0  0  0
  191.1330  177.6750  142.4250 C   0  0  0  0  0  2  0  0  0  0  0  0
  192.0180  176.6410  142.7680 O   0  0  0  0  0  0  0  0  0  0  0  0
  190.3290  175.1340  143.1880 F   0  0  0  0  0  0  0  0  0  0  0  0
  192.3170  174.9190  144.2100 F   0  0  0  0  0  0  0  0  0  0  0  0
  191.3940  175.8330  143.7380 C   0  0  0  0  0  0  0  0  0  0  0  0
  190.9530  176.6000  144.8060 F   0  0  0  0  0  0  0  0  0  0  0  0
  186.4410  179.2380  140.9080 O   0  0  0  0  0  0  0  0  0  0  0  0
  185.6600  178.6900  139.8870 C   0  0  0  0  0  2  0  0  0  0  0  0
  186.0230  177.8130  137.5440 C   0  0  0  0  0  0  0  0  0  0  0  0
  186.4490  178.5810  138.6700 N   0  0  0  0  0  2  0  0  0  0  0  0
  184.9420  177.1670  137.5790 O   0  0  0  0  0  0  0  0  0  0  0  0
  186.8300  177.7700  136.3740 N   0  0  0  0  0  1  0  0  0  0  0  0
  1 15  1  1  0  0  0
  1  8  1  0  0  0  0
  3  9  1  0  0  0  0
  4  2  1  0  0  0  0
  5 10  2  0  0  0  0
  7  3  2  0  0  0  0
  8  7  2  0  0  0  0
  9  2  1  0  0  0  0
 10  4  1  0  0  0  0
 11  6  1  6  0  0  0
 11 14  1  0  0  0  0
 11  5  1  0  0  0  0
 12 13  1  0  0  0  0
 12  1  1  0  0  0  0
 13 26  1  6  0  0  0
 13 14  1  0  0  0  0
 14  8  1  1  0  0  0
 16 15  1  0  0  0  0
 17 11  1  0  0  0  0
 18 17  1  0  0  0  0
 19 18  1  0  0  0  0
 19 20  1  0  0  0  0
 20 21  1  0  0  0  0
 21 24  1  0  0  0  0
 22 24  1  0  0  0  0
 24 23  1  0  0  0  0
 24 25  1  0  0  0  0
 27 26  1  0  0  0  0
 28 30  2  0  0  0  0
 28 29  1  0  0  0  0
 29 27  1  0  0  0  0
 31 28  1  0  0  0  0
M  END
>  <MODEL>
3

>  <REMARK>
 VINA RESULT:      -7.4      3.252      6.352
  Name = 
  10 active torsions:
  status: ('A' for Active; 'I' for Inactive)
    1  A    between atoms: C_1  and  N_10
    2  A    between atoms: C_1  and  O_16
    3  A    between atoms: C_2  and  C_5
    4  A    between atoms: C_3  and  C_8
    5  A    between atoms: C_3  and  C_23
    6  A    between atoms: C_8  and  C_29
    7  A    between atoms: O_16  and  C_26
    8  A    between atoms: C_18  and  O_27
    9  A    between atoms: C_18  and  C_29
   10  A    between atoms: C_24  and  O_27
                            x       y       z     vdW  Elec       q    Type
                         _______ _______ _______ _____ _____    ______ ____

>  <TORSDO>
F 10

$$$$
=
 OpenBabel10232411533D

 31 32  0  0  1  0  0  0  0  0999 V2000
  187.3600  178.7560  140.7080 C   0  0  2  0  0  3  0  0  0  0  0  0
  192.5380  176.7260  138.9630 C   0  0  0  0  0  2  0  0  0  0  0  0
  190.1970  177.6670  138.6940 C   0  0  0  0  0  3  0  0  0  0  0  0
  192.6510  177.3580  140.2760 N   0  0  0  0  0  2  0  0  0  0  0  0
  191.2270  177.9510  142.0850 C   0  0  0  0  0  3  0  0  0  0  0  0
  189.6290  178.9030  143.4700 F   0  0  0  0  0  0  0  0  0  0  0  0
  189.3700  177.7840  139.7050 C   0  0  0  0  0  0  0  0  0  0  0  0
  188.5900  177.9110  140.7570 C   0  0  0  0  0  0  0  0  0  0  0  0
  191.0710  176.4530  138.5730 C   0  0  0  0  0  2  0  0  0  0  0  0
  191.7290  177.0100  141.2990 C   0  0  0  0  0  3  0  0  0  0  0  0
  190.0030  177.6900  142.9190 C   0  0  1  0  0  0  0  0  0  0  0  0
  186.6120  178.7070  142.3670 S   0  0  0  0  0  0  0  0  0  0  0  0
  187.4520  177.1350  142.7290 C   0  0  1  0  0  3  0  0  0  0  0  0
  188.8220  177.1420  142.0360 C   0  0  1  0  0  3  0  0  0  0  0  0
  186.3730  178.2090  139.6850 C   0  0  0  0  0  2  0  0  0  0  0  0
  185.0700  178.5180  140.0710 O   0  0  0  0  0  1  0  0  0  0  0  0
  190.3480  176.7420  144.0810 C   0  0  0  0  0  2  0  0  0  0  0  0
  191.4820  177.2410  144.9670 C   0  0  0  0  0  2  0  0  0  0  0  0
  191.7760  176.2220  146.0510 C   0  0  0  0  0  2  0  0  0  0  0  0
  191.3280  176.7500  147.4030 C   0  0  0  0  0  2  0  0  0  0  0  0
  189.9690  176.4580  147.6080 O   0  0  0  0  0  0  0  0  0  0  0  0
  189.1680  178.4790  146.8500 F   0  0  0  0  0  0  0  0  0  0  0  0
  188.0520  177.3410  148.4320 F   0  0  0  0  0  0  0  0  0  0  0  0
  189.3120  177.6540  147.9560 C   0  0  0  0  0  0  0  0  0  0  0  0
  190.0030  178.3220  148.9550 F   0  0  0  0  0  0  0  0  0  0  0  0
  187.5250  176.9210  144.1060 O   0  0  0  0  0  0  0  0  0  0  0  0
  186.3150  177.4090  144.6050 C   0  0  0  0  0  2  0  0  0  0  0  0
  185.5160  178.8870  146.4950 C   0  0  0  0  0  0  0  0  0  0  0  0
  186.5680  178.2790  145.7440 N   0  0  0  0  0  2  0  0  0  0  0  0
  184.3110  178.7080  146.1740 O   0  0  0  0  0  0  0  0  0  0  0  0
  185.8320  179.7060  147.6140 N   0  0  0  0  0  1  0  0  0  0  0  0
  1 15  1  6  0  0  0
  1  8  1  0  0  0  0
  1 12  1  0  0  0  0
  2  4  1  0  0  0  0
  3  7  2  0  0  0  0
  4 10  1  0  0  0  0
  5 11  1  0  0  0  0
  7  8  2  0  0  0  0
  9  3  1  0  0  0  0
  9  2  1  0  0  0  0
 10  5  2  0  0  0  0
 11  6  1  1  0  0  0
 11 17  1  0  0  0  0
 12 13  1  0  0  0  0
 13 26  1  1  0  0  0
 14  8  1  6  0  0  0
 14 13  1  0  0  0  0
 14 11  1  0  0  0  0
 15 16  1  0  0  0  0
 17 18  1  0  0  0  0
 18 19  1  0  0  0  0
 19 20  1  0  0  0  0
 20 21  1  0  0  0  0
 21 24  1  0  0  0  0
 22 24  1  0  0  0  0
 24 23  1  0  0  0  0
 24 25  1  0  0  0  0
 26 27  1  0  0  0  0
 27 29  1  0  0  0  0
 28 31  1  0  0  0  0
 29 28  1  0  0  0  0
 30 28  2  0  0  0  0
M  END
>  <MODEL>
4

>  <REMARK>
 VINA RESULT:      -7.2      3.267      6.633
  Name = 
  10 active torsions:
  status: ('A' for Active; 'I' for Inactive)
    1  A    between atoms: C_1  and  N_10
    2  A    between atoms: C_1  and  O_16
    3  A    between atoms: C_2  and  C_5
    4  A    between atoms: C_3  and  C_8
    5  A    between atoms: C_3  and  C_23
    6  A    between atoms: C_8  and  C_29
    7  A    between atoms: O_16  and  C_26
    8  A    between atoms: C_18  and  O_27
    9  A    between atoms: C_18  and  C_29
   10  A    between atoms: C_24  and  O_27
                            x       y       z     vdW  Elec       q    Type
                         _______ _______ _______ _____ _____    ______ ____

>  <TORSDO>
F 10

$$$$
=
 OpenBabel10232411533D

 31 32  0  0  1  0  0  0  0  0999 V2000
  186.4830  177.3620  145.5690 C   0  0  2  0  0  3  0  0  0  0  0  0
  192.0740  176.3270  146.8530 C   0  0  0  0  0  2  0  0  0  0  0  0
  189.6150  176.7380  147.3270 C   0  0  0  0  0  3  0  0  0  0  0  0
  191.7380  175.7770  145.5400 N   0  0  0  0  0  2  0  0  0  0  0  0
  190.0800  176.0790  143.8630 C   0  0  0  0  0  3  0  0  0  0  0  0
  188.1200  176.1510  142.6270 F   0  0  0  0  0  0  0  0  0  0  0  0
  188.7740  177.1060  146.3900 C   0  0  0  0  0  0  0  0  0  0  0  0
  187.9640  177.4420  145.4090 C   0  0  0  0  0  0  0  0  0  0  0  0
  191.0010  177.3120  147.3610 C   0  0  0  0  0  2  0  0  0  0  0  0
  191.0590  176.5910  144.5950 C   0  0  0  0  0  3  0  0  0  0  0  0
  189.1140  176.9690  143.1330 C   0  0  1  0  0  0  0  0  0  0  0  0
  185.7450  177.8540  143.9780 S   0  0  0  0  0  0  0  0  0  0  0  0
  187.2530  178.7680  143.5320 C   0  0  1  0  0  3  0  0  0  0  0  0
  188.4650  178.0210  144.1060 C   0  0  1  0  0  3  0  0  0  0  0  0
  186.0090  178.3070  146.6660 C   0  0  0  0  0  2  0  0  0  0  0  0
  184.6260  178.4660  146.5900 O   0  0  0  0  0  1  0  0  0  0  0  0
  189.8130  177.6390  141.9360 C   0  0  0  0  0  2  0  0  0  0  0  0
  190.3010  176.6570  140.8800 C   0  0  0  0  0  2  0  0  0  0  0  0
  190.1180  177.2530  139.4980 C   0  0  0  0  0  2  0  0  0  0  0  0
  188.6410  177.4690  139.2120 C   0  0  0  0  0  2  0  0  0  0  0  0
  188.4480  178.7150  138.5920 O   0  0  0  0  0  0  0  0  0  0  0  0
  187.1740  179.2260  136.7440 F   0  0  0  0  0  0  0  0  0  0  0  0
  189.3870  178.9050  136.5380 F   0  0  0  0  0  0  0  0  0  0  0  0
  188.2540  178.4930  137.2150 C   0  0  0  0  0  0  0  0  0  0  0  0
  188.0570  177.1450  136.9560 F   0  0  0  0  0  0  0  0  0  0  0  0
  187.3210  178.9610  142.1510 O   0  0  0  0  0  0  0  0  0  0  0  0
  186.0760  178.5460  141.6730 C   0  0  0  0  0  2  0  0  0  0  0  0
  184.3620  179.3320  139.9870 C   0  0  0  0  0  0  0  0  0  0  0  0
  185.6680  179.3930  140.5620 N   0  0  0  0  0  2  0  0  0  0  0  0
  183.5110  178.5060  140.4130 O   0  0  0  0  0  0  0  0  0  0  0  0
  184.0210  180.2080  138.9210 N   0  0  0  0  0  1  0  0  0  0  0  0
  1 15  1  1  0  0  0
  2  9  1  0  0  0  0
  3  9  1  0  0  0  0
  4  2  1  0  0  0  0
  5 10  2  0  0  0  0
  7  3  2  0  0  0  0
  8  1  1  0  0  0  0
  8  7  2  0  0  0  0
 10  4  1  0  0  0  0
 11  6  1  6  0  0  0
 11  5  1  0  0  0  0
 11 14  1  0  0  0  0
 12  1  1  0  0  0  0
 13 26  1  6  0  0  0
 13 12  1  0  0  0  0
 13 14  1  0  0  0  0
 14  8  1  1  0  0  0
 16 15  1  0  0  0  0
 17 11  1  0  0  0  0
 18 17  1  0  0  0  0
 19 18  1  0  0  0  0
 20 19  1  0  0  0  0
 21 20  1  0  0  0  0
 22 24  1  0  0  0  0
 23 24  1  0  0  0  0
 24 21  1  0  0  0  0
 25 24  1  0  0  0  0
 27 26  1  0  0  0  0
 28 30  2  0  0  0  0
 28 29  1  0  0  0  0
 29 27  1  0  0  0  0
 31 28  1  0  0  0  0
M  END
>  <MODEL>
5

>  <REMARK>
 VINA RESULT:      -7.1      2.105      5.675
  Name = 
  10 active torsions:
  status: ('A' for Active; 'I' for Inactive)
    1  A    between atoms: C_1  and  N_10
    2  A    between atoms: C_1  and  O_16
    3  A    between atoms: C_2  and  C_5
    4  A    between atoms: C_3  and  C_8
    5  A    between atoms: C_3  and  C_23
    6  A    between atoms: C_8  and  C_29
    7  A    between atoms: O_16  and  C_26
    8  A    between atoms: C_18  and  O_27
    9  A    between atoms: C_18  and  C_29
   10  A    between atoms: C_24  and  O_27
                            x       y       z     vdW  Elec       q    Type
                         _______ _______ _______ _____ _____    ______ ____

>  <TORSDO>
F 10

$$$$
=
 OpenBabel10232411533D

 31 32  0  0  1  0  0  0  0  0999 V2000
  185.0560  178.0760  140.8540 C   0  0  2  0  0  3  0  0  0  0  0  0
  185.3800  178.3680  146.6660 C   0  0  0  0  0  2  0  0  0  0  0  0
  184.2640  178.4760  144.3900 C   0  0  0  0  0  3  0  0  0  0  0  0
  186.3790  177.4380  146.1430 N   0  0  0  0  0  2  0  0  0  0  0  0
  187.4850  177.0000  144.0840 C   0  0  0  0  0  3  0  0  0  0  0  0
  188.0400  176.4110  141.9110 F   0  0  0  0  0  0  0  0  0  0  0  0
  184.9490  178.4340  143.2720 C   0  0  0  0  0  0  0  0  0  0  0  0
  185.6790  178.3550  142.1800 C   0  0  0  0  0  0  0  0  0  0  0  0
  184.7800  179.2600  145.5600 C   0  0  0  0  0  2  0  0  0  0  0  0
  187.2150  177.8440  145.0680 C   0  0  0  0  0  3  0  0  0  0  0  0
  188.0480  177.4880  142.7790 C   0  0  1  0  0  0  0  0  0  0  0  0
  186.4050  177.9930  139.6340 S   0  0  0  0  0  0  0  0  0  0  0  0
  187.4760  178.9920  140.7130 C   0  0  1  0  0  3  0  0  0  0  0  0
  187.1630  178.6400  142.1750 C   0  0  1  0  0  3  0  0  0  0  0  0
  184.0870  179.1880  140.4710 C   0  0  0  0  0  2  0  0  0  0  0  0
  184.5970  179.9110  139.3930 O   0  0  0  0  0  1  0  0  0  0  0  0
  189.5140  177.9200  142.9650 C   0  0  0  0  0  2  0  0  0  0  0  0
  190.4350  176.7930  143.4150 C   0  0  0  0  0  2  0  0  0  0  0  0
  191.6070  177.3640  144.1900 C   0  0  0  0  0  2  0  0  0  0  0  0
  191.5110  176.9680  145.6540 C   0  0  0  0  0  2  0  0  0  0  0  0
  190.4600  177.6650  146.2730 O   0  0  0  0  0  0  0  0  0  0  0  0
  189.0420  176.1640  147.2920 F   0  0  0  0  0  0  0  0  0  0  0  0
  191.2170  176.2200  147.8460 F   0  0  0  0  0  0  0  0  0  0  0  0
  190.1370  176.9970  147.4700 C   0  0  0  0  0  0  0  0  0  0  0  0
  189.8780  177.9050  148.4860 F   0  0  0  0  0  0  0  0  0  0  0  0
  188.8190  178.8170  140.3740 O   0  0  0  0  0  0  0  0  0  0  0  0
  188.7900  178.2750  139.0870 C   0  0  0  0  0  2  0  0  0  0  0  0
  190.9350  176.9350  139.1220 C   0  0  0  0  0  0  0  0  0  0  0  0
  190.1480  178.0210  138.6300 N   0  0  0  0  0  2  0  0  0  0  0  0
  190.4800  176.1610  140.0060 O   0  0  0  0  0  0  0  0  0  0  0  0
  192.2460  176.7270  138.6130 N   0  0  0  0  0  1  0  0  0  0  0  0
  1 15  1  6  0  0  0
  1  8  1  0  0  0  0
  3  9  1  0  0  0  0
  4  2  1  0  0  0  0
  5 10  2  0  0  0  0
  7  3  2  0  0  0  0
  8  7  2  0  0  0  0
  9  2  1  0  0  0  0
 10  4  1  0  0  0  0
 11  6  1  6  0  0  0
 11 17  1  0  0  0  0
 11  5  1  0  0  0  0
 12 13  1  0  0  0  0
 12  1  1  0  0  0  0
 13 26  1  6  0  0  0
 13 14  1  0  0  0  0
 14  8  1  6  0  0  0
 14 11  1  0  0  0  0
 16 15  1  0  0  0  0
 17 18  1  0  0  0  0
 18 19  1  0  0  0  0
 19 20  1  0  0  0  0
 20 21  1  0  0  0  0
 21 24  1  0  0  0  0
 22 24  1  0  0  0  0
 24 23  1  0  0  0  0
 24 25  1  0  0  0  0
 27 26  1  0  0  0  0
 28 30  2  0  0  0  0
 29 27  1  0  0  0  0
 29 28  1  0  0  0  0
 31 28  1  0  0  0  0
M  END
>  <MODEL>
6

>  <REMARK>
 VINA RESULT:      -7.0      3.307      6.342
  Name = 
  10 active torsions:
  status: ('A' for Active; 'I' for Inactive)
    1  A    between atoms: C_1  and  N_10
    2  A    between atoms: C_1  and  O_16
    3  A    between atoms: C_2  and  C_5
    4  A    between atoms: C_3  and  C_8
    5  A    between atoms: C_3  and  C_23
    6  A    between atoms: C_8  and  C_29
    7  A    between atoms: O_16  and  C_26
    8  A    between atoms: C_18  and  O_27
    9  A    between atoms: C_18  and  C_29
   10  A    between atoms: C_24  and  O_27
                            x       y       z     vdW  Elec       q    Type
                         _______ _______ _______ _____ _____    ______ ____

>  <TORSDO>
F 10

$$$$
=
 OpenBabel10232411533D

 31 32  0  0  1  0  0  0  0  0999 V2000
  184.4190  178.0800  143.8690 C   0  0  2  0  0  3  0  0  0  0  0  0
  188.2470  178.0010  148.2640 C   0  0  0  0  0  2  0  0  0  0  0  0
  185.9690  178.2070  147.1660 C   0  0  0  0  0  3  0  0  0  0  0  0
  188.7110  177.1560  147.1640 N   0  0  0  0  0  2  0  0  0  0  0  0
  188.3170  176.9080  144.8330 C   0  0  0  0  0  3  0  0  0  0  0  0
  187.4180  176.4910  142.7370 F   0  0  0  0  0  0  0  0  0  0  0  0
  185.8230  178.2710  145.8650 C   0  0  0  0  0  0  0  0  0  0  0  0
  185.7270  178.3000  144.5530 C   0  0  0  0  0  0  0  0  0  0  0  0
  187.0980  178.9360  147.8340 C   0  0  0  0  0  2  0  0  0  0  0  0
  188.7120  177.6720  145.8410 C   0  0  0  0  0  3  0  0  0  0  0  0
  187.9610  177.5080  143.5020 C   0  0  1  0  0  0  0  0  0  0  0  0
  184.7350  178.1420  142.0770 S   0  0  0  0  0  0  0  0  0  0  0  0
  186.2460  179.1160  142.3500 C   0  0  1  0  0  3  0  0  0  0  0  0
  186.8950  178.6530  143.6620 C   0  0  1  0  0  3  0  0  0  0  0  0
  183.4240  179.1680  144.2510 C   0  0  0  0  0  2  0  0  0  0  0  0
  182.3940  179.2200  143.3130 O   0  0  0  0  0  1  0  0  0  0  0  0
  189.2340  177.9940  142.7840 C   0  0  0  0  0  2  0  0  0  0  0  0
  190.1480  176.8680  142.3220 C   0  0  0  0  0  2  0  0  0  0  0  0
  191.4020  177.4460  141.6940 C   0  0  0  0  0  2  0  0  0  0  0  0
  191.3520  177.2890  140.1840 C   0  0  0  0  0  2  0  0  0  0  0  0
  190.5820  176.1650  139.8410 O   0  0  0  0  0  0  0  0  0  0  0  0
  189.1130  176.1830  138.0690 F   0  0  0  0  0  0  0  0  0  0  0  0
  191.0850  177.2450  137.9140 F   0  0  0  0  0  0  0  0  0  0  0  0
  190.4490  176.1360  138.4400 C   0  0  0  0  0  0  0  0  0  0  0  0
  191.0440  175.0000  137.9130 F   0  0  0  0  0  0  0  0  0  0  0  0
  187.0960  179.0270  141.2460 O   0  0  0  0  0  0  0  0  0  0  0  0
  186.3270  178.4110  140.2560 C   0  0  0  0  0  2  0  0  0  0  0  0
  186.4170  178.1720  137.7400 C   0  0  0  0  0  0  0  0  0  0  0  0
  187.0530  178.4150  138.9950 N   0  0  0  0  0  2  0  0  0  0  0  0
  185.1850  177.9140  137.6840 O   0  0  0  0  0  0  0  0  0  0  0  0
  187.1820  178.2170  136.5420 N   0  0  0  0  0  1  0  0  0  0  0  0
  1 15  1  1  0  0  0
  1  8  1  0  0  0  0
  3  9  1  0  0  0  0
  4  2  1  0  0  0  0
  5 10  2  0  0  0  0
  7  3  2  0  0  0  0
  8  7  2  0  0  0  0
  9  2  1  0  0  0  0
 10  4  1  0  0  0  0
 11  6  1  6  0  0  0
 11 14  1  0  0  0  0
 11  5  1  0  0  0  0
 12 13  1  0  0  0  0
 12  1  1  0  0  0  0
 13 26  1  6  0  0  0
 13 14  1  0  0  0  0
 14  8  1  1  0  0  0
 16 15  1  0  0  0  0
 17 11  1  0  0  0  0
 18 17  1  0  0  0  0
 19 18  1  0  0  0  0
 20 19  1  0  0  0  0
 21 20  1  0  0  0  0
 22 24  1  0  0  0  0
 23 24  1  0  0  0  0
 24 21  1  0  0  0  0
 25 24  1  0  0  0  0
 27 26  1  0  0  0  0
 28 29  1  0  0  0  0
 29 27  1  0  0  0  0
 30 28  2  0  0  0  0
 31 28  1  0  0  0  0
M  END
>  <MODEL>
7

>  <REMARK>
 VINA RESULT:      -6.7      2.836      5.642
  Name = 
  10 active torsions:
  status: ('A' for Active; 'I' for Inactive)
    1  A    between atoms: C_1  and  N_10
    2  A    between atoms: C_1  and  O_16
    3  A    between atoms: C_2  and  C_5
    4  A    between atoms: C_3  and  C_8
    5  A    between atoms: C_3  and  C_23
    6  A    between atoms: C_8  and  C_29
    7  A    between atoms: O_16  and  C_26
    8  A    between atoms: C_18  and  O_27
    9  A    between atoms: C_18  and  C_29
   10  A    between atoms: C_24  and  O_27
                            x       y       z     vdW  Elec       q    Type
                         _______ _______ _______ _____ _____    ______ ____

>  <TORSDO>
F 10

$$$$
=
 OpenBabel10232411533D

 31 32  0  0  1  0  0  0  0  0999 V2000
  186.7650  177.3820  144.8740 C   0  0  2  0  0  3  0  0  0  0  0  0
  191.9880  176.4030  147.2680 C   0  0  0  0  0  2  0  0  0  0  0  0
  189.4920  176.8590  147.2350 C   0  0  0  0  0  3  0  0  0  0  0  0
  191.8980  175.7680  145.9540 N   0  0  0  0  0  2  0  0  0  0  0  0
  190.5970  175.9680  143.9750 C   0  0  0  0  0  3  0  0  0  0  0  0
  188.9090  175.9680  142.3840 F   0  0  0  0  0  0  0  0  0  0  0  0
  188.8520  177.1680  146.1330 C   0  0  0  0  0  0  0  0  0  0  0  0
  188.2500  177.4420  144.9950 C   0  0  0  0  0  0  0  0  0  0  0  0
  190.8560  177.4250  147.4980 C   0  0  0  0  0  2  0  0  0  0  0  0
  191.4270  176.5220  144.8460 C   0  0  0  0  0  3  0  0  0  0  0  0
  189.8040  176.8130  143.0170 C   0  0  1  0  0  0  0  0  0  0  0  0
  186.3530  177.7710  143.1430 S   0  0  0  0  0  0  0  0  0  0  0  0
  187.9340  178.6450  142.9360 C   0  0  1  0  0  3  0  0  0  0  0  0
  189.0010  177.9310  143.7790 C   0  0  1  0  0  3  0  0  0  0  0  0
  186.1080  178.4010  145.7970 C   0  0  0  0  0  2  0  0  0  0  0  0
  184.8800  178.7970  145.2690 O   0  0  0  0  0  1  0  0  0  0  0  0
  190.7310  177.3980  141.9360 C   0  0  0  0  0  2  0  0  0  0  0  0
  190.8120  176.5510  140.6720 C   0  0  0  0  0  2  0  0  0  0  0  0
  190.6140  177.4290  139.4510 C   0  0  0  0  0  2  0  0  0  0  0  0
  190.5850  176.5770  138.1930 C   0  0  0  0  0  2  0  0  0  0  0  0
  191.1520  175.3180  138.4500 O   0  0  0  0  0  0  0  0  0  0  0  0
  192.7310  173.8940  137.5680 F   0  0  0  0  0  0  0  0  0  0  0  0
  192.1460  175.7590  136.4630 F   0  0  0  0  0  0  0  0  0  0  0  0
  192.3510  175.2200  137.7190 C   0  0  0  0  0  0  0  0  0  0  0  0
  193.3660  175.9320  138.3400 F   0  0  0  0  0  0  0  0  0  0  0  0
  188.2680  178.7450  141.5840 O   0  0  0  0  0  0  0  0  0  0  0  0
  187.0450  178.6940  140.9120 C   0  0  0  0  0  2  0  0  0  0  0  0
  186.2020  178.3240  138.5570 C   0  0  0  0  0  0  0  0  0  0  0  0
  187.2680  178.4040  139.5040 N   0  0  0  0  0  2  0  0  0  0  0  0
  185.0060  178.4780  138.9220 O   0  0  0  0  0  0  0  0  0  0  0  0
  186.4930  178.0630  137.1900 N   0  0  0  0  0  1  0  0  0  0  0  0
  1  8  1  0  0  0  0
  1 15  1  1  0  0  0
  2  9  1  0  0  0  0
  3  9  1  0  0  0  0
  4  2  1  0  0  0  0
  5 10  2  0  0  0  0
  7  3  2  0  0  0  0
  8  7  2  0  0  0  0
 10  4  1  0  0  0  0
 11  6  1  6  0  0  0
 11 14  1  0  0  0  0
 11  5  1  0  0  0  0
 12  1  1  0  0  0  0
 13 26  1  6  0  0  0
 13 12  1  0  0  0  0
 13 14  1  0  0  0  0
 14  8  1  1  0  0  0
 16 15  1  0  0  0  0
 17 11  1  0  0  0  0
 18 17  1  0  0  0  0
 19 18  1  0  0  0  0
 20 21  1  0  0  0  0
 20 19  1  0  0  0  0
 22 24  1  0  0  0  0
 23 24  1  0  0  0  0
 24 25  1  0  0  0  0
 24 21  1  0  0  0  0
 27 26  1  0  0  0  0
 28 30  2  0  0  0  0
 28 29  1  0  0  0  0
 29 27  1  0  0  0  0
 31 28  1  0  0  0  0
M  END
>  <MODEL>
8

>  <REMARK>
 VINA RESULT:      -6.7      2.634      5.882
  Name = 
  10 active torsions:
  status: ('A' for Active; 'I' for Inactive)
    1  A    between atoms: C_1  and  N_10
    2  A    between atoms: C_1  and  O_16
    3  A    between atoms: C_2  and  C_5
    4  A    between atoms: C_3  and  C_8
    5  A    between atoms: C_3  and  C_23
    6  A    between atoms: C_8  and  C_29
    7  A    between atoms: O_16  and  C_26
    8  A    between atoms: C_18  and  O_27
    9  A    between atoms: C_18  and  C_29
   10  A    between atoms: C_24  and  O_27
                            x       y       z     vdW  Elec       q    Type
                         _______ _______ _______ _____ _____    ______ ____

>  <TORSDO>
F 10

$$$$
=
 OpenBabel10232411533D

 31 32  0  0  1  0  0  0  0  0999 V2000
  188.5680  177.5180  139.6770 C   0  0  2  0  0  3  0  0  0  0  0  0
  182.9980  179.2090  139.9770 C   0  0  0  0  0  2  0  0  0  0  0  0
  185.1840  178.5890  138.8470 C   0  0  0  0  0  3  0  0  0  0  0  0
  183.3420  178.3700  141.1240 N   0  0  0  0  0  2  0  0  0  0  0  0
  185.2960  177.6630  142.2790 C   0  0  0  0  0  3  0  0  0  0  0  0
  187.3010  176.6880  142.9180 F   0  0  0  0  0  0  0  0  0  0  0  0
  186.2930  178.4060  139.5230 C   0  0  0  0  0  0  0  0  0  0  0  0
  187.3720  178.2030  140.2480 C   0  0  0  0  0  0  0  0  0  0  0  0
  184.2490  179.7020  139.2210 C   0  0  0  0  0  2  0  0  0  0  0  0
  184.5190  178.6540  141.8670 C   0  0  0  0  0  3  0  0  0  0  0  0
  186.7030  177.9230  142.7380 C   0  0  1  0  0  0  0  0  0  0  0  0
  189.7990  177.3890  141.0130 S   0  0  0  0  0  0  0  0  0  0  0  0
  189.0290  178.7820  141.8930 C   0  0  1  0  0  3  0  0  0  0  0  0
  187.5120  178.7310  141.6570 C   0  0  1  0  0  3  0  0  0  0  0  0
  189.1490  178.3250  138.5230 C   0  0  0  0  0  2  0  0  0  0  0  0
  189.8430  177.4820  137.6570 O   0  0  0  0  0  1  0  0  0  0  0  0
  186.6910  178.6330  144.1040 C   0  0  0  0  0  2  0  0  0  0  0  0
  186.1160  177.7870  145.2320 C   0  0  0  0  0  2  0  0  0  0  0  0
  185.5860  178.6850  146.3320 C   0  0  0  0  0  2  0  0  0  0  0  0
  186.6000  178.7900  147.4590 C   0  0  0  0  0  2  0  0  0  0  0  0
  187.1270  177.5210  147.7520 O   0  0  0  0  0  0  0  0  0  0  0  0
  188.9810  178.4120  146.7200 F   0  0  0  0  0  0  0  0  0  0  0  0
  188.9170  178.2150  148.9560 F   0  0  0  0  0  0  0  0  0  0  0  0
  188.5310  177.6220  147.7680 C   0  0  0  0  0  0  0  0  0  0  0  0
  189.1160  176.3670  147.6960 F   0  0  0  0  0  0  0  0  0  0  0  0
  189.3820  178.7670  143.2440 O   0  0  0  0  0  0  0  0  0  0  0  0
  190.7070  178.3240  143.2580 C   0  0  0  0  0  2  0  0  0  0  0  0
  191.5720  176.7490  145.0370 C   0  0  0  0  0  0  0  0  0  0  0  0
  191.1150  178.0370  144.6250 N   0  0  0  0  0  2  0  0  0  0  0  0
  191.6110  175.7890  144.2210 O   0  0  0  0  0  0  0  0  0  0  0  0
  191.9820  176.5440  146.3830 N   0  0  0  0  0  1  0  0  0  0  0  0
  1 15  1  6  0  0  0
  1  8  1  0  0  0  0
  1 12  1  0  0  0  0
  2  4  1  0  0  0  0
  3  9  1  0  0  0  0
  3  7  2  0  0  0  0
  4 10  1  0  0  0  0
  5 11  1  0  0  0  0
  7  8  2  0  0  0  0
  9  2  1  0  0  0  0
 10  5  2  0  0  0  0
 11  6  1  1  0  0  0
 11 17  1  0  0  0  0
 12 13  1  0  0  0  0
 13 26  1  1  0  0  0
 14  8  1  6  0  0  0
 14 13  1  0  0  0  0
 14 11  1  0  0  0  0
 16 15  1  0  0  0  0
 17 18  1  0  0  0  0
 18 19  1  0  0  0  0
 19 20  1  0  0  0  0
 20 21  1  0  0  0  0
 21 24  1  0  0  0  0
 22 24  1  0  0  0  0
 24 23  1  0  0  0  0
 25 24  1  0  0  0  0
 26 27  1  0  0  0  0
 27 29  1  0  0  0  0
 28 31  1  0  0  0  0
 29 28  1  0  0  0  0
 30 28  2  0  0  0  0
M  END
>  <MODEL>
9

>  <REMARK>
 VINA RESULT:      -6.6      2.684      6.085
  Name = 
  10 active torsions:
  status: ('A' for Active; 'I' for Inactive)
    1  A    between atoms: C_1  and  N_10
    2  A    between atoms: C_1  and  O_16
    3  A    between atoms: C_2  and  C_5
    4  A    between atoms: C_3  and  C_8
    5  A    between atoms: C_3  and  C_23
    6  A    between atoms: C_8  and  C_29
    7  A    between atoms: O_16  and  C_26
    8  A    between atoms: C_18  and  O_27
    9  A    between atoms: C_18  and  C_29
   10  A    between atoms: C_24  and  O_27
                            x       y       z     vdW  Elec       q    Type
                         _______ _______ _______ _____ _____    ______ ____

>  <TORSDO>
F 10

$$$$
