=
 OpenBabel10222421393D

 60 66  0  0  1  0  0  0  0  0999 V2000
  192.2740  176.8180  138.8520 C   0  0  0  0  0  0  0  0  0  0  0  0
  189.9850  177.7420  140.2170 C   0  0  0  0  0  0  0  0  0  0  0  0
  191.2260  177.6600  140.8660 C   0  0  0  0  0  3  0  0  0  0  0  0
  189.9000  177.3680  138.8550 C   0  0  0  0  0  0  0  0  0  0  0  0
  192.3630  177.2140  140.1880 C   0  0  0  0  0  3  0  0  0  0  0  0
  188.6160  177.3810  138.0930 C   0  0  0  0  0  1  0  0  0  0  0  0
  191.0400  176.8980  138.1890 C   0  0  0  0  0  3  0  0  0  0  0  0
  188.8150  178.1730  141.0150 C   0  0  0  0  0  0  0  0  0  0  0  0
  188.5680  179.4060  141.1320 O   0  0  0  0  0  0  0  0  0  0  0  0
  187.8970  177.1860  141.6610 C   0  0  0  0  0  2  0  0  0  0  0  0
  190.3640  178.2650  144.9930 C   0  0  0  0  0  3  0  0  0  0  0  0
  191.4210  177.6810  145.6880 C   0  0  0  0  0  3  0  0  0  0  0  0
  189.8470  176.4850  147.0730 C   0  0  0  0  0  3  0  0  0  0  0  0
  184.8160  179.1360  145.5420 C   0  0  0  0  0  2  0  0  0  0  0  0
  184.0280  179.0190  144.3190 N   0  0  0  0  0  0  0  0  0  0  0  0
  188.1200  178.3570  144.4210 C   0  0  0  0  0  2  0  0  0  0  0  0
  185.9500  178.1610  145.5810 C   0  0  0  0  0  0  0  0  0  0  0  0
  187.5840  176.9710  147.0430 C   0  0  0  0  0  2  0  0  0  0  0  0
  188.7710  177.0950  146.4220 C   0  0  0  0  0  0  0  0  0  0  0  0
  186.3330  177.7030  146.7680 C   0  0  0  0  0  3  0  0  0  0  0  0
  186.5460  177.7960  141.8570 C   0  0  0  0  0  3  0  0  0  0  0  0
  189.0360  177.9470  145.3030 C   0  0  0  0  0  0  0  0  0  0  0  0
  184.0080  178.8220  141.9910 O   0  0  0  0  0  0  0  0  0  0  0  0
  186.0190  178.1210  143.0470 C   0  0  0  0  0  0  0  0  0  0  0  0
  191.1710  176.7570  146.7070 C   0  0  0  0  0  0  0  0  0  0  0  0
  184.6480  178.6740  143.0710 C   0  0  0  0  0  0  0  0  0  0  0  0
  186.7300  177.8160  144.3520 C   0  0  1  0  0  3  0  0  0  0  0  0
  192.8960  174.9740  146.8400 O   0  0  0  0  0  0  0  0  0  0  0  0
  192.2850  176.0930  147.4000 C   0  0  0  0  0  0  0  0  0  0  0  0
  192.6710  176.5060  148.5240 O   0  0  0  0  0  1  0  0  0  0  0  0
  182.6760  179.5590  144.3370 C   0  0  0  0  0  2  0  0  0  0  0  0
  181.6860  178.4730  143.9730 C   0  0  0  0  0  2  0  0  0  0  0  0
  180.3360  179.0820  143.6530 C   0  0  0  0  0  2  0  0  0  0  0  0
  179.9960  180.7360  141.9790 O   0  0  0  0  0  1  0  0  0  0  0  0
  180.3240  179.5520  142.2440 C   0  0  0  0  0  0  0  0  0  0  0  0
  180.7620  178.7150  141.2250 O   0  0  0  0  0  0  0  0  0  0  0  0
  193.4390  176.2980  138.2040 N   0  0  0  0  0  2  0  0  0  0  0  0
  193.5320  174.9350  137.6890 C   0  0  0  0  0  2  0  0  0  0  0  0
  193.1290  174.9300  136.2860 N   0  0  0  0  0  0  0  0  0  0  0  0
  194.1440  175.5160  135.5970 O   0  0  0  0  0  1  0  0  0  0  0  0
  192.1310  173.3870  134.4740 C   0  0  0  0  0  2  0  0  0  0  0  0
  191.4560  173.0930  135.8060 C   0  0  1  0  0  3  0  0  0  0  0  0
  192.9210  173.5550  135.7670 C   0  0  2  0  0  0  0  0  0  0  0  0
  189.2180  173.6430  136.7360 C   0  0  0  0  0  2  0  0  0  0  0  0
  190.4680  174.2140  136.0960 C   0  0  2  0  0  3  0  0  0  0  0  0
  189.2170  174.0080  135.2560 C   0  0  2  0  0  3  0  0  0  0  0  0
  187.3330  175.4840  134.9480 O   0  0  0  0  0  1  0  0  0  0  0  0
  189.4040  176.4490  134.7920 O   0  0  0  0  0  0  0  0  0  0  0  0
  188.5870  175.3450  135.0020 C   0  0  0  0  0  0  0  0  0  0  0  0
  193.8880  172.4290  136.1430 C   0  0  0  0  0  2  0  0  0  0  0  0
  194.6320  171.9510  134.9090 C   0  0  0  0  0  2  0  0  0  0  0  0
  194.6050  170.5590  134.8360 O   0  0  0  0  0  0  0  0  0  0  0  0
  194.7650  170.1360  136.1580 C   0  0  0  0  0  2  0  0  0  0  0  0
  195.1230  168.1000  137.6280 C   0  0  1  0  0  3  0  0  0  0  0  0
  196.2540  168.6590  138.5110 C   0  0  0  0  0  2  0  0  0  0  0  0
  196.5300  168.4630  135.5530 C   0  0  0  0  0  2  0  0  0  0  0  0
  193.8330  168.3230  138.2580 N   0  0  0  0  0  1  0  0  0  0  0  0
  195.1500  168.6600  136.1980 C   0  0  2  0  0  3  0  0  0  0  0  0
  197.6560  168.3480  136.5870 C   0  0  0  0  0  2  0  0  0  0  0  0
  197.3780  169.2040  137.7380 N   0  0  0  0  0  2  0  0  0  0  0  0
  1  5  1  0  0  0  0
  2  3  1  0  0  0  0
  2  8  1  0  0  0  0
  4  2  2  0  0  0  0
  5  3  2  0  0  0  0
  6  4  1  0  0  0  0
  7  1  2  0  0  0  0
  7  4  1  0  0  0  0
  8  9  2  0  0  0  0
  8 10  1  0  0  0  0
 10 21  1  0  0  0  0
 11 22  2  0  0  0  0
 11 12  1  0  0  0  0
 12 25  2  0  0  0  0
 14 17  1  0  0  0  0
 15 31  1  0  0  0  0
 15 14  1  0  0  0  0
 16 22  1  0  0  0  0
 17 20  2  0  0  0  0
 19 18  1  0  0  0  0
 19 13  2  0  0  0  0
 20 18  1  0  0  0  0
 21 24  2  0  0  0  0
 22 19  1  0  0  0  0
 23 26  2  0  0  0  0
 24 26  1  0  0  0  0
 24 27  1  0  0  0  0
 25 13  1  0  0  0  0
 25 29  1  0  0  0  0
 26 15  1  0  0  0  0
 27 16  1  6  0  0  0
 27 17  1  0  0  0  0
 28 29  2  0  0  0  0
 29 30  1  0  0  0  0
 32 31  1  0  0  0  0
 33 32  1  0  0  0  0
 34 35  1  0  0  0  0
 35 33  1  0  0  0  0
 36 35  2  0  0  0  0
 37  1  1  0  0  0  0
 38 37  1  0  0  0  0
 39 38  1  0  0  0  0
 40 39  1  0  0  0  0
 41 43  1  0  0  0  0
 42 41  1  6  0  0  0
 42 45  1  0  0  0  0
 43 42  1  0  0  0  0
 43 50  1  1  0  0  0
 43 39  1  0  0  0  0
 45 44  1  1  0  0  0
 46 49  1  1  0  0  0
 46 45  1  0  0  0  0
 46 44  1  0  0  0  0
 47 49  1  0  0  0  0
 48 49  2  0  0  0  0
 51 50  1  0  0  0  0
 52 51  1  0  0  0  0
 52 53  1  0  0  0  0
 54 57  1  1  0  0  0
 54 55  1  0  0  0  0
 56 58  1  0  0  0  0
 56 59  1  0  0  0  0
 58 53  1  1  0  0  0
 58 54  1  0  0  0  0
 59 60  1  0  0  0  0
 60 55  1  0  0  0  0
M  END
>  <MODEL>
1

>  <REMARK>
 VINA RESULT:      -7.5      0.000      0.000
  Name = 
  19 active torsions:
  status: ('A' for Active; 'I' for Inactive)
    1  A    between atoms: C_1  and  C_6
    2  A    between atoms: C_1  and  C_28
    3  A    between atoms: C_2  and  N_29
    4  A    between atoms: C_2  and  C_60
    5  A    between atoms: C_3  and  C_24
    6  A    between atoms: C_3  and  O_59
    7  A    between atoms: C_4  and  N_12
    8  A    between atoms: N_8  and  C_42
    9  A    between atoms: N_8  and  C_58
   10  A    between atoms: N_12  and  C_42
   11  A    between atoms: C_17  and  C_50
   12  A    between atoms: C_27  and  C_49
   13  A    between atoms: C_28  and  C_39
   14  A    between atoms: C_38  and  C_47
   15  A    between atoms: C_45  and  C_57
   16  A    between atoms: C_45  and  O_59
   17  A    between atoms: C_49  and  C_60
   18  A    between atoms: C_52  and  C_56
   19  A    between atoms: C_57  and  C_58
                            x       y       z     vdW  Elec       q    Type
                         _______ _______ _______ _____ _____    ______ ____

>  <TORSDO>
F 19

$$$$
=
 OpenBabel10222421393D

 60 66  0  0  1  0  0  0  0  0999 V2000
  185.5500  178.7400  142.7290 C   0  0  0  0  0  0  0  0  0  0  0  0
  182.7300  178.7800  142.8020 C   0  0  0  0  0  0  0  0  0  0  0  0
  183.4190  178.7810  141.5800 C   0  0  0  0  0  3  0  0  0  0  0  0
  183.4740  178.7410  144.0060 C   0  0  0  0  0  0  0  0  0  0  0  0
  184.8150  178.7500  141.5420 C   0  0  0  0  0  3  0  0  0  0  0  0
  182.8310  178.7800  145.3520 C   0  0  0  0  0  1  0  0  0  0  0  0
  184.8740  178.7350  143.9590 C   0  0  0  0  0  3  0  0  0  0  0  0
  181.2530  178.8680  142.7630 C   0  0  0  0  0  0  0  0  0  0  0  0
  180.6150  179.0300  143.8400 O   0  0  0  0  0  0  0  0  0  0  0  0
  180.4960  178.8020  141.4750 C   0  0  0  0  0  2  0  0  0  0  0  0
  182.3250  181.4500  138.6470 C   0  0  0  0  0  3  0  0  0  0  0  0
  182.1600  182.7820  138.2700 C   0  0  0  0  0  3  0  0  0  0  0  0
  180.4190  182.1280  136.7310 C   0  0  0  0  0  3  0  0  0  0  0  0
  181.0300  176.2710  136.8190 C   0  0  0  0  0  2  0  0  0  0  0  0
  180.6610  175.3050  137.8490 N   0  0  0  0  0  0  0  0  0  0  0  0
  181.5840  179.2550  138.7090 C   0  0  0  0  0  2  0  0  0  0  0  0
  180.5510  177.6530  137.1410 C   0  0  0  0  0  0  0  0  0  0  0  0
  180.0200  179.9060  136.2160 C   0  0  0  0  0  2  0  0  0  0  0  0
  180.5990  180.7810  137.0580 C   0  0  0  0  0  0  0  0  0  0  0  0
  180.2360  178.4500  136.1270 C   0  0  0  0  0  3  0  0  0  0  0  0
  180.5480  177.4130  140.9230 C   0  0  0  0  0  3  0  0  0  0  0  0
  181.5220  180.4420  138.0990 C   0  0  0  0  0  0  0  0  0  0  0  0
  180.5400  174.7910  140.1250 O   0  0  0  0  0  0  0  0  0  0  0  0
  180.6160  177.1110  139.6170 C   0  0  0  0  0  0  0  0  0  0  0  0
  181.1800  183.1350  137.3380 C   0  0  0  0  0  0  0  0  0  0  0  0
  180.6120  175.6830  139.2340 C   0  0  0  0  0  0  0  0  0  0  0  0
  180.5620  178.1790  138.5410 C   0  0  1  0  0  3  0  0  0  0  0  0
  180.7250  185.4920  137.9770 O   0  0  0  0  0  1  0  0  0  0  0  0
  180.9630  184.5460  136.9840 C   0  0  0  0  0  0  0  0  0  0  0  0
  180.9510  184.9040  135.7780 O   0  0  0  0  0  0  0  0  0  0  0  0
  180.6530  173.8970  137.4770 C   0  0  0  0  0  2  0  0  0  0  0  0
  181.8470  173.5960  136.5970 C   0  0  0  0  0  2  0  0  0  0  0  0
  182.6800  172.4860  137.2080 C   0  0  0  0  0  2  0  0  0  0  0  0
  183.5060  170.4170  136.3790 O   0  0  0  0  0  1  0  0  0  0  0  0
  182.5830  171.2680  136.3630 C   0  0  0  0  0  0  0  0  0  0  0  0
  181.4330  171.0210  135.6220 O   0  0  0  0  0  0  0  0  0  0  0  0
  186.9790  178.7800  142.6620 N   0  0  0  0  0  2  0  0  0  0  0  0
  187.7610  178.0020  141.7070 C   0  0  0  0  0  2  0  0  0  0  0  0
  188.7640  177.2300  142.4340 N   0  0  0  0  0  0  0  0  0  0  0  0
  188.4090  175.9240  142.2990 O   0  0  0  0  0  1  0  0  0  0  0  0
  191.2930  176.7370  142.5910 C   0  0  0  0  0  2  0  0  0  0  0  0
  191.0610  178.2260  142.8010 C   0  0  1  0  0  3  0  0  0  0  0  0
  190.1290  177.4210  141.8830 C   0  0  2  0  0  0  0  0  0  0  0  0
  191.6560  178.6210  145.1820 C   0  0  0  0  0  2  0  0  0  0  0  0
  190.5110  178.4280  144.2060 C   0  0  2  0  0  3  0  0  0  0  0  0
  190.9560  177.2710  145.0880 C   0  0  2  0  0  3  0  0  0  0  0  0
  188.7030  177.1960  145.9490 O   0  0  0  0  0  0  0  0  0  0  0  0
  190.3720  176.8090  147.4670 O   0  0  0  0  0  1  0  0  0  0  0  0
  189.9400  177.0830  146.1760 C   0  0  0  0  0  0  0  0  0  0  0  0
  190.3260  177.7800  140.4080 C   0  0  0  0  0  2  0  0  0  0  0  0
  190.4630  176.5150  139.5800 C   0  0  0  0  0  2  0  0  0  0  0  0
  189.5450  176.5220  138.5300 O   0  0  0  0  0  0  0  0  0  0  0  0
  189.9770  175.4990  137.6820 C   0  0  0  0  0  2  0  0  0  0  0  0
  188.9750  175.0360  135.3970 C   0  0  1  0  0  3  0  0  0  0  0  0
  188.8740  176.4900  134.9010 C   0  0  0  0  0  2  0  0  0  0  0  0
  187.4910  175.5830  137.3760 C   0  0  0  0  0  2  0  0  0  0  0  0
  190.2280  174.4410  134.9640 N   0  0  0  0  0  1  0  0  0  0  0  0
  188.7940  174.9110  136.9170 C   0  0  2  0  0  3  0  0  0  0  0  0
  187.0210  176.6810  136.4160 C   0  0  0  0  0  2  0  0  0  0  0  0
  188.1690  177.3760  135.8370 N   0  0  0  0  0  2  0  0  0  0  0  0
  1  7  1  0  0  0  0
  2  4  1  0  0  0  0
  3  2  2  0  0  0  0
  4  6  1  0  0  0  0
  5  3  1  0  0  0  0
  5  1  2  0  0  0  0
  7  4  2  0  0  0  0
  8  2  1  0  0  0  0
  8  9  2  0  0  0  0
 10  8  1  0  0  0  0
 12 11  1  0  0  0  0
 13 19  2  0  0  0  0
 13 25  1  0  0  0  0
 14 17  1  0  0  0  0
 14 15  1  0  0  0  0
 15 26  1  0  0  0  0
 17 27  1  0  0  0  0
 18 19  1  0  0  0  0
 19 22  1  0  0  0  0
 20 18  1  0  0  0  0
 20 17  2  0  0  0  0
 21 10  1  0  0  0  0
 22 11  2  0  0  0  0
 22 16  1  0  0  0  0
 24 21  2  0  0  0  0
 25 12  2  0  0  0  0
 26 24  1  0  0  0  0
 26 23  2  0  0  0  0
 27 16  1  6  0  0  0
 27 24  1  0  0  0  0
 29 25  1  0  0  0  0
 29 28  1  0  0  0  0
 30 29  2  0  0  0  0
 31 15  1  0  0  0  0
 32 33  1  0  0  0  0
 32 31  1  0  0  0  0
 35 34  1  0  0  0  0
 35 33  1  0  0  0  0
 36 35  2  0  0  0  0
 37  1  1  0  0  0  0
 38 39  1  0  0  0  0
 38 37  1  0  0  0  0
 40 39  1  0  0  0  0
 42 41  1  1  0  0  0
 42 45  1  0  0  0  0
 43 50  1  6  0  0  0
 43 39  1  0  0  0  0
 43 41  1  0  0  0  0
 43 42  1  0  0  0  0
 45 46  1  0  0  0  0
 45 44  1  1  0  0  0
 46 44  1  0  0  0  0
 46 49  1  1  0  0  0
 47 49  2  0  0  0  0
 49 48  1  0  0  0  0
 51 50  1  0  0  0  0
 52 51  1  0  0  0  0
 53 52  1  0  0  0  0
 54 57  1  1  0  0  0
 54 58  1  0  0  0  0
 55 54  1  0  0  0  0
 55 60  1  0  0  0  0
 58 56  1  0  0  0  0
 58 53  1  1  0  0  0
 59 56  1  0  0  0  0
 60 59  1  0  0  0  0
M  END
>  <MODEL>
2

>  <REMARK>
 VINA RESULT:      -6.3      4.316     10.394
  Name = 
  19 active torsions:
  status: ('A' for Active; 'I' for Inactive)
    1  A    between atoms: C_1  and  C_6
    2  A    between atoms: C_1  and  C_28
    3  A    between atoms: C_2  and  N_29
    4  A    between atoms: C_2  and  C_60
    5  A    between atoms: C_3  and  C_24
    6  A    between atoms: C_3  and  O_59
    7  A    between atoms: C_4  and  N_12
    8  A    between atoms: N_8  and  C_42
    9  A    between atoms: N_8  and  C_58
   10  A    between atoms: N_12  and  C_42
   11  A    between atoms: C_17  and  C_50
   12  A    between atoms: C_27  and  C_49
   13  A    between atoms: C_28  and  C_39
   14  A    between atoms: C_38  and  C_47
   15  A    between atoms: C_45  and  C_57
   16  A    between atoms: C_45  and  O_59
   17  A    between atoms: C_49  and  C_60
   18  A    between atoms: C_52  and  C_56
   19  A    between atoms: C_57  and  C_58
                            x       y       z     vdW  Elec       q    Type
                         _______ _______ _______ _____ _____    ______ ____

>  <TORSDO>
F 19

$$$$
=
 OpenBabel10222421393D

 60 66  0  0  1  0  0  0  0  0999 V2000
  188.9800  177.4210  141.4280 C   0  0  0  0  0  0  0  0  0  0  0  0
  191.2570  177.0870  139.7960 C   0  0  0  0  0  0  0  0  0  0  0  0
  191.3710  177.1210  141.1940 C   0  0  0  0  0  3  0  0  0  0  0  0
  189.9740  177.2060  139.2120 C   0  0  0  0  0  0  0  0  0  0  0  0
  190.2440  177.2750  142.0030 C   0  0  0  0  0  3  0  0  0  0  0  0
  189.7580  177.2240  137.7360 C   0  0  0  0  0  1  0  0  0  0  0  0
  188.8500  177.3850  140.0310 C   0  0  0  0  0  3  0  0  0  0  0  0
  192.5020  176.9750  139.0040 C   0  0  0  0  0  0  0  0  0  0  0  0
  193.6010  177.3120  139.5280 O   0  0  0  0  0  0  0  0  0  0  0  0
  192.5000  176.4420  137.6080 C   0  0  0  0  0  2  0  0  0  0  0  0
  189.7890  175.2540  134.5100 C   0  0  0  0  0  3  0  0  0  0  0  0
  188.4490  174.8790  134.4410 C   0  0  0  0  0  3  0  0  0  0  0  0
  189.0610  172.6020  134.9580 C   0  0  0  0  0  3  0  0  0  0  0  0
  194.9200  172.9080  134.4430 C   0  0  0  0  0  2  0  0  0  0  0  0
  195.9100  173.5130  135.3290 N   0  0  0  0  0  0  0  0  0  0  0  0
  191.9830  174.8290  135.1230 C   0  0  0  0  0  2  0  0  0  0  0  0
  193.5460  172.9200  135.0350 C   0  0  0  0  0  0  0  0  0  0  0  0
  191.2700  171.9060  134.9580 C   0  0  0  0  0  2  0  0  0  0  0  0
  190.4170  172.9450  134.9850 C   0  0  0  0  0  0  0  0  0  0  0  0
  192.7240  171.9290  134.7140 C   0  0  0  0  0  3  0  0  0  0  0  0
  193.8750  175.9930  137.2290 C   0  0  0  0  0  3  0  0  0  0  0  0
  190.7820  174.3210  134.8340 C   0  0  0  0  0  0  0  0  0  0  0  0
  196.4770  175.2850  136.7410 O   0  0  0  0  0  0  0  0  0  0  0  0
  194.1460  174.9630  136.4120 C   0  0  0  0  0  0  0  0  0  0  0  0
  188.0710  173.5590  134.7020 C   0  0  0  0  0  0  0  0  0  0  0  0
  195.5640  174.6190  136.1760 C   0  0  0  0  0  0  0  0  0  0  0  0
  193.0530  174.0780  135.8450 C   0  0  1  0  0  3  0  0  0  0  0  0
  185.6660  174.1240  134.4420 O   0  0  0  0  0  0  0  0  0  0  0  0
  186.6520  173.1730  134.6910 C   0  0  0  0  0  0  0  0  0  0  0  0
  186.3130  171.9890  134.9450 O   0  0  0  0  0  1  0  0  0  0  0  0
  197.3080  173.1760  135.1030 C   0  0  0  0  0  2  0  0  0  0  0  0
  197.5870  171.7800  135.6180 C   0  0  0  0  0  2  0  0  0  0  0  0
  197.6530  171.7860  137.1320 C   0  0  0  0  0  2  0  0  0  0  0  0
  196.4410  169.7960  137.6040 O   0  0  0  0  0  0  0  0  0  0  0  0
  196.4880  171.0480  137.6840 C   0  0  0  0  0  0  0  0  0  0  0  0
  195.4910  171.7320  138.3710 O   0  0  0  0  0  1  0  0  0  0  0  0
  187.8520  177.6480  142.2770 N   0  0  0  0  0  2  0  0  0  0  0  0
  186.5760  178.1730  141.7980 C   0  0  0  0  0  2  0  0  0  0  0  0
  186.0750  179.1500  142.7590 N   0  0  0  0  0  0  0  0  0  0  0  0
  185.9510  180.3220  142.0800 O   0  0  0  0  0  1  0  0  0  0  0  0
  184.2230  179.5390  144.5150 C   0  0  0  0  0  2  0  0  0  0  0  0
  184.8190  178.1530  144.7180 C   0  0  1  0  0  3  0  0  0  0  0  0
  184.7510  178.7670  143.3110 C   0  0  2  0  0  0  0  0  0  0  0  0
  186.8990  176.9800  145.4100 C   0  0  0  0  0  2  0  0  0  0  0  0
  186.1760  178.3140  145.3900 C   0  0  2  0  0  3  0  0  0  0  0  0
  186.2020  177.4870  146.6670 C   0  0  2  0  0  3  0  0  0  0  0  0
  188.1070  177.4710  148.1480 O   0  0  0  0  0  1  0  0  0  0  0  0
  186.9830  179.4590  147.9760 O   0  0  0  0  0  0  0  0  0  0  0  0
  187.1610  178.1260  147.6280 C   0  0  0  0  0  0  0  0  0  0  0  0
  183.7170  178.0630  142.4280 C   0  0  0  0  0  2  0  0  0  0  0  0
  182.3530  178.7020  142.6170 C   0  0  0  0  0  2  0  0  0  0  0  0
  181.7710  178.9780  141.3800 O   0  0  0  0  0  0  0  0  0  0  0  0
  182.1310  177.8930  140.5760 C   0  0  0  0  0  2  0  0  0  0  0  0
  183.2360  177.8180  138.2940 C   0  0  1  0  0  3  0  0  0  0  0  0
  184.5030  178.6250  138.6340 C   0  0  0  0  0  2  0  0  0  0  0  0
  181.7770  179.7780  138.9620 C   0  0  0  0  0  2  0  0  0  0  0  0
  183.4860  176.3960  138.4570 N   0  0  0  0  0  1  0  0  0  0  0  0
  182.0090  178.2650  139.1010 C   0  0  2  0  0  3  0  0  0  0  0  0
  183.0580  180.5430  138.6120 C   0  0  0  0  0  2  0  0  0  0  0  0
  184.2130  179.9230  139.2580 N   0  0  0  0  0  2  0  0  0  0  0  0
  1  5  1  0  0  0  0
  1 37  1  0  0  0  0
  2  3  1  0  0  0  0
  3  5  2  0  0  0  0
  4  2  2  0  0  0  0
  4  7  1  0  0  0  0
  6  4  1  0  0  0  0
  7  1  2  0  0  0  0
  8  9  2  0  0  0  0
  8  2  1  0  0  0  0
 10  8  1  0  0  0  0
 11 22  1  0  0  0  0
 12 11  2  0  0  0  0
 12 25  1  0  0  0  0
 13 19  1  0  0  0  0
 14 17  1  0  0  0  0
 14 15  1  0  0  0  0
 15 26  1  0  0  0  0
 17 27  1  0  0  0  0
 18 19  1  0  0  0  0
 20 18  1  0  0  0  0
 20 17  2  0  0  0  0
 21 10  1  0  0  0  0
 22 19  2  0  0  0  0
 22 16  1  0  0  0  0
 24 21  2  0  0  0  0
 25 13  2  0  0  0  0
 26 24  1  0  0  0  0
 26 23  2  0  0  0  0
 27 16  1  6  0  0  0
 27 24  1  0  0  0  0
 28 29  2  0  0  0  0
 29 25  1  0  0  0  0
 29 30  1  0  0  0  0
 31 15  1  0  0  0  0
 31 32  1  0  0  0  0
 32 33  1  0  0  0  0
 33 35  1  0  0  0  0
 34 35  2  0  0  0  0
 35 36  1  0  0  0  0
 38 37  1  0  0  0  0
 38 39  1  0  0  0  0
 39 43  1  0  0  0  0
 40 39  1  0  0  0  0
 42 41  1  1  0  0  0
 42 45  1  0  0  0  0
 43 50  1  6  0  0  0
 43 41  1  0  0  0  0
 43 42  1  0  0  0  0
 44 46  1  0  0  0  0
 45 44  1  6  0  0  0
 45 46  1  0  0  0  0
 46 49  1  1  0  0  0
 49 48  2  0  0  0  0
 49 47  1  0  0  0  0
 50 51  1  0  0  0  0
 52 51  1  0  0  0  0
 53 52  1  0  0  0  0
 54 57  1  1  0  0  0
 54 55  1  0  0  0  0
 54 58  1  0  0  0  0
 55 60  1  0  0  0  0
 56 58  1  0  0  0  0
 58 53  1  1  0  0  0
 59 56  1  0  0  0  0
 59 60  1  0  0  0  0
M  END
>  <MODEL>
3

>  <REMARK>
 VINA RESULT:      -6.3      2.700     13.149
  Name = 
  19 active torsions:
  status: ('A' for Active; 'I' for Inactive)
    1  A    between atoms: C_1  and  C_6
    2  A    between atoms: C_1  and  C_28
    3  A    between atoms: C_2  and  N_29
    4  A    between atoms: C_2  and  C_60
    5  A    between atoms: C_3  and  C_24
    6  A    between atoms: C_3  and  O_59
    7  A    between atoms: C_4  and  N_12
    8  A    between atoms: N_8  and  C_42
    9  A    between atoms: N_8  and  C_58
   10  A    between atoms: N_12  and  C_42
   11  A    between atoms: C_17  and  C_50
   12  A    between atoms: C_27  and  C_49
   13  A    between atoms: C_28  and  C_39
   14  A    between atoms: C_38  and  C_47
   15  A    between atoms: C_45  and  C_57
   16  A    between atoms: C_45  and  O_59
   17  A    between atoms: C_49  and  C_60
   18  A    between atoms: C_52  and  C_56
   19  A    between atoms: C_57  and  C_58
                            x       y       z     vdW  Elec       q    Type
                         _______ _______ _______ _____ _____    ______ ____

>  <TORSDO>
F 19

$$$$
=
 OpenBabel10222421393D

 60 66  0  0  1  0  0  0  0  0999 V2000
  186.3570  178.3220  141.4310 C   0  0  0  0  0  0  0  0  0  0  0  0
  183.6570  178.7860  142.1020 C   0  0  0  0  0  0  0  0  0  0  0  0
  184.0880  178.8440  140.7680 C   0  0  0  0  0  3  0  0  0  0  0  0
  184.5990  178.4730  143.1110 C   0  0  0  0  0  0  0  0  0  0  0  0
  185.4210  178.6030  140.4330 C   0  0  0  0  0  3  0  0  0  0  0  0
  184.2430  178.4310  144.5600 C   0  0  0  0  0  1  0  0  0  0  0  0
  185.9400  178.2570  142.7690 C   0  0  0  0  0  3  0  0  0  0  0  0
  182.2400  179.1050  142.3850 C   0  0  0  0  0  0  0  0  0  0  0  0
  181.9210  179.5470  143.5240 O   0  0  0  0  0  0  0  0  0  0  0  0
  181.1770  178.9490  141.3460 C   0  0  0  0  0  2  0  0  0  0  0  0
  182.4260  181.8810  138.4830 C   0  0  0  0  0  3  0  0  0  0  0  0
  182.1090  183.2090  138.2040 C   0  0  0  0  0  3  0  0  0  0  0  0
  180.2550  182.4770  136.8420 C   0  0  0  0  0  3  0  0  0  0  0  0
  181.3540  176.6990  136.5220 C   0  0  0  0  0  2  0  0  0  0  0  0
  181.1920  175.6570  137.5300 N   0  0  0  0  0  0  0  0  0  0  0  0
  181.8820  179.6280  138.5030 C   0  0  0  0  0  2  0  0  0  0  0  0
  180.8050  178.0160  136.9750 C   0  0  0  0  0  0  0  0  0  0  0  0
  179.9820  180.2550  136.2490 C   0  0  0  0  0  2  0  0  0  0  0  0
  180.5840  181.1370  137.0680 C   0  0  0  0  0  0  0  0  0  0  0  0
  180.3050  178.8300  136.0530 C   0  0  0  0  0  3  0  0  0  0  0  0
  181.2750  177.5990  140.7120 C   0  0  0  0  0  3  0  0  0  0  0  0
  181.6490  180.8330  137.9740 C   0  0  0  0  0  0  0  0  0  0  0  0
  181.3890  175.0270  139.7720 O   0  0  0  0  0  0  0  0  0  0  0  0
  181.2110  177.3660  139.3920 C   0  0  0  0  0  0  0  0  0  0  0  0
  180.9980  183.5170  137.4140 C   0  0  0  0  0  0  0  0  0  0  0  0
  181.2790  175.9630  138.9300 C   0  0  0  0  0  0  0  0  0  0  0  0
  180.9400  178.4740  138.3930 C   0  0  1  0  0  3  0  0  0  0  0  0
  180.8140  185.4890  135.9140 O   0  0  0  0  0  0  0  0  0  0  0  0
  180.6240  184.9180  137.1690 C   0  0  0  0  0  0  0  0  0  0  0  0
  180.1640  185.6260  138.1030 O   0  0  0  0  0  1  0  0  0  0  0  0
  181.2560  174.2730  137.0810 C   0  0  0  0  0  2  0  0  0  0  0  0
  182.2040  174.1610  135.9060 C   0  0  0  0  0  2  0  0  0  0  0  0
  182.1660  172.7570  135.3360 C   0  0  0  0  0  2  0  0  0  0  0  0
  181.7300  170.9420  136.8090 O   0  0  0  0  0  0  0  0  0  0  0  0
  182.5620  171.7840  136.3860 C   0  0  0  0  0  0  0  0  0  0  0  0
  183.8750  171.7400  136.8380 O   0  0  0  0  0  1  0  0  0  0  0  0
  187.7300  178.1500  141.0670 N   0  0  0  0  0  2  0  0  0  0  0  0
  188.3330  178.7620  139.8860 C   0  0  0  0  0  2  0  0  0  0  0  0
  188.0300  177.9400  138.7190 N   0  0  0  0  0  0  0  0  0  0  0  0
  187.2640  178.7110  137.9010 O   0  0  0  0  0  1  0  0  0  0  0  0
  189.2010  177.4700  136.4680 C   0  0  0  0  0  2  0  0  0  0  0  0
  189.1190  176.1770  137.2670 C   0  0  1  0  0  3  0  0  0  0  0  0
  189.2540  177.5250  137.9910 C   0  0  2  0  0  0  0  0  0  0  0  0
  187.6920  174.1620  136.9780 C   0  0  0  0  0  2  0  0  0  0  0  0
  187.6880  175.6630  137.1940 C   0  0  2  0  0  3  0  0  0  0  0  0
  187.4300  175.0990  135.8050 C   0  0  2  0  0  3  0  0  0  0  0  0
  185.3540  174.3620  134.8180 O   0  0  0  0  0  0  0  0  0  0  0  0
  185.2790  176.3490  135.9550 O   0  0  0  0  0  1  0  0  0  0  0  0
  185.9670  175.2300  135.5010 C   0  0  0  0  0  0  0  0  0  0  0  0
  190.6330  177.6960  138.6330 C   0  0  0  0  0  2  0  0  0  0  0  0
  190.7660  176.7710  139.8300 C   0  0  0  0  0  2  0  0  0  0  0  0
  191.4620  177.4070  140.8580 O   0  0  0  0  0  0  0  0  0  0  0  0
  190.9220  176.8690  142.0300 C   0  0  0  0  0  2  0  0  0  0  0  0
  191.5330  176.4800  144.4610 C   0  0  1  0  0  3  0  0  0  0  0  0
  190.1080  176.4440  145.0440 C   0  0  0  0  0  2  0  0  0  0  0  0
  191.1410  178.8230  143.5830 C   0  0  0  0  0  2  0  0  0  0  0  0
  191.9800  175.1350  144.1380 N   0  0  0  0  0  1  0  0  0  0  0  0
  191.6580  177.4160  143.2500 C   0  0  2  0  0  3  0  0  0  0  0  0
  190.1200  178.8240  144.7270 C   0  0  0  0  0  2  0  0  0  0  0  0
  189.3010  177.6140  144.6770 N   0  0  0  0  0  2  0  0  0  0  0  0
  1  7  1  0  0  0  0
  2  8  1  0  0  0  0
  2  4  1  0  0  0  0
  3  2  2  0  0  0  0
  4  6  1  0  0  0  0
  5  3  1  0  0  0  0
  5  1  2  0  0  0  0
  7  4  2  0  0  0  0
  8  9  2  0  0  0  0
 10  8  1  0  0  0  0
 12 11  1  0  0  0  0
 13 19  2  0  0  0  0
 13 25  1  0  0  0  0
 14 17  1  0  0  0  0
 14 15  1  0  0  0  0
 15 26  1  0  0  0  0
 17 27  1  0  0  0  0
 18 19  1  0  0  0  0
 19 22  1  0  0  0  0
 20 18  1  0  0  0  0
 20 17  2  0  0  0  0
 21 10  1  0  0  0  0
 22 11  2  0  0  0  0
 22 16  1  0  0  0  0
 24 21  2  0  0  0  0
 25 12  2  0  0  0  0
 26 24  1  0  0  0  0
 26 23  2  0  0  0  0
 27 16  1  6  0  0  0
 27 24  1  0  0  0  0
 28 29  2  0  0  0  0
 29 25  1  0  0  0  0
 29 30  1  0  0  0  0
 31 15  1  0  0  0  0
 32 31  1  0  0  0  0
 33 32  1  0  0  0  0
 33 35  1  0  0  0  0
 35 34  2  0  0  0  0
 35 36  1  0  0  0  0
 37  1  1  0  0  0  0
 38 37  1  0  0  0  0
 39 38  1  0  0  0  0
 40 39  1  0  0  0  0
 41 43  1  0  0  0  0
 42 41  1  6  0  0  0
 42 43  1  0  0  0  0
 43 50  1  1  0  0  0
 43 39  1  0  0  0  0
 45 44  1  1  0  0  0
 45 42  1  0  0  0  0
 46 49  1  1  0  0  0
 46 44  1  0  0  0  0
 46 45  1  0  0  0  0
 47 49  2  0  0  0  0
 49 48  1  0  0  0  0
 50 51  1  0  0  0  0
 51 52  1  0  0  0  0
 52 53  1  0  0  0  0
 54 57  1  6  0  0  0
 54 55  1  0  0  0  0
 56 59  1  0  0  0  0
 58 53  1  6  0  0  0
 58 56  1  0  0  0  0
 58 54  1  0  0  0  0
 60 59  1  0  0  0  0
 60 55  1  0  0  0  0
M  END
>  <MODEL>
4

>  <REMARK>
 VINA RESULT:      -6.2      4.915      9.808
  Name = 
  19 active torsions:
  status: ('A' for Active; 'I' for Inactive)
    1  A    between atoms: C_1  and  C_6
    2  A    between atoms: C_1  and  C_28
    3  A    between atoms: C_2  and  N_29
    4  A    between atoms: C_2  and  C_60
    5  A    between atoms: C_3  and  C_24
    6  A    between atoms: C_3  and  O_59
    7  A    between atoms: C_4  and  N_12
    8  A    between atoms: N_8  and  C_42
    9  A    between atoms: N_8  and  C_58
   10  A    between atoms: N_12  and  C_42
   11  A    between atoms: C_17  and  C_50
   12  A    between atoms: C_27  and  C_49
   13  A    between atoms: C_28  and  C_39
   14  A    between atoms: C_38  and  C_47
   15  A    between atoms: C_45  and  C_57
   16  A    between atoms: C_45  and  O_59
   17  A    between atoms: C_49  and  C_60
   18  A    between atoms: C_52  and  C_56
   19  A    between atoms: C_57  and  C_58
                            x       y       z     vdW  Elec       q    Type
                         _______ _______ _______ _____ _____    ______ ____

>  <TORSDO>
F 19

$$$$
=
 OpenBabel10222421393D

 60 66  0  0  1  0  0  0  0  0999 V2000
  188.3420  177.6610  138.6010 C   0  0  0  0  0  0  0  0  0  0  0  0
  186.3880  177.3530  136.5900 C   0  0  0  0  0  0  0  0  0  0  0  0
  186.8680  178.6240  136.9390 C   0  0  0  0  0  3  0  0  0  0  0  0
  186.9140  176.2180  137.2520 C   0  0  0  0  0  0  0  0  0  0  0  0
  187.8430  178.7770  137.9270 C   0  0  0  0  0  3  0  0  0  0  0  0
  186.4360  174.8310  136.9780 C   0  0  0  0  0  1  0  0  0  0  0  0
  187.8750  176.3830  138.2590 C   0  0  0  0  0  3  0  0  0  0  0  0
  185.3170  177.2740  135.5720 C   0  0  0  0  0  0  0  0  0  0  0  0
  185.6230  177.3190  134.3480 O   0  0  0  0  0  0  0  0  0  0  0  0
  183.8810  177.1110  135.9540 C   0  0  0  0  0  2  0  0  0  0  0  0
  183.3050  172.9980  137.0050 C   0  0  0  0  0  3  0  0  0  0  0  0
  182.9090  171.8400  136.3400 C   0  0  0  0  0  3  0  0  0  0  0  0
  180.5960  172.4020  136.7400 C   0  0  0  0  0  3  0  0  0  0  0  0
  181.2020  176.8530  140.5500 C   0  0  0  0  0  2  0  0  0  0  0  0
  181.6320  178.2290  140.3240 N   0  0  0  0  0  0  0  0  0  0  0  0
  182.8300  175.0800  137.9060 C   0  0  0  0  0  2  0  0  0  0  0  0
  181.0390  176.0920  139.2710 C   0  0  0  0  0  0  0  0  0  0  0  0
  179.9900  174.1100  138.1820 C   0  0  0  0  0  2  0  0  0  0  0  0
  180.9700  173.5450  137.4540 C   0  0  0  0  0  0  0  0  0  0  0  0
  180.1140  175.1410  139.2290 C   0  0  0  0  0  3  0  0  0  0  0  0
  183.5710  177.9520  137.1510 C   0  0  0  0  0  3  0  0  0  0  0  0
  182.3570  173.8910  137.5210 C   0  0  0  0  0  0  0  0  0  0  0  0
  183.0740  179.6920  139.2100 O   0  0  0  0  0  0  0  0  0  0  0  0
  182.7530  177.5880  138.1510 C   0  0  0  0  0  0  0  0  0  0  0  0
  181.5520  171.5530  136.1690 C   0  0  0  0  0  0  0  0  0  0  0  0
  182.5160  178.5580  139.2410 C   0  0  0  0  0  0  0  0  0  0  0  0
  181.9760  176.2860  138.1200 C   0  0  1  0  0  3  0  0  0  0  0  0
  179.9820  169.6670  135.7780 O   0  0  0  0  0  1  0  0  0  0  0  0
  181.1310  170.3630  135.4130 C   0  0  0  0  0  0  0  0  0  0  0  0
  181.8260  169.9420  134.4530 O   0  0  0  0  0  0  0  0  0  0  0  0
  181.4000  179.1890  141.3930 C   0  0  0  0  0  2  0  0  0  0  0  0
  182.0960  178.7250  142.6560 C   0  0  0  0  0  2  0  0  0  0  0  0
  183.4900  178.2280  142.3310 C   0  0  0  0  0  2  0  0  0  0  0  0
  185.3640  179.6410  141.9500 O   0  0  0  0  0  0  0  0  0  0  0  0
  184.4910  179.2380  142.7590 C   0  0  0  0  0  0  0  0  0  0  0  0
  184.4110  179.8080  144.0240 O   0  0  0  0  0  1  0  0  0  0  0  0
  189.2880  177.8530  139.6570 N   0  0  0  0  0  2  0  0  0  0  0  0
  189.0430  178.7130  140.8110 C   0  0  0  0  0  2  0  0  0  0  0  0
  189.1910  177.9250  142.0300 N   0  0  0  0  0  0  0  0  0  0  0  0
  188.4560  176.7950  141.8430 O   0  0  0  0  0  1  0  0  0  0  0  0
  190.8820  176.4760  143.3350 C   0  0  0  0  0  2  0  0  0  0  0  0
  191.1040  177.9400  143.6860 C   0  0  1  0  0  3  0  0  0  0  0  0
  190.6030  177.5480  142.2870 C   0  0  2  0  0  0  0  0  0  0  0  0
  190.3600  178.0010  146.0570 C   0  0  0  0  0  2  0  0  0  0  0  0
  189.9950  178.3760  144.6330 C   0  0  2  0  0  3  0  0  0  0  0  0
  189.3730  177.1440  145.2740 C   0  0  2  0  0  3  0  0  0  0  0  0
  187.1980  178.0900  144.8300 O   0  0  0  0  0  0  0  0  0  0  0  0
  187.4550  177.0710  146.8640 O   0  0  0  0  0  1  0  0  0  0  0  0
  187.9480  177.4580  145.6240 C   0  0  0  0  0  0  0  0  0  0  0  0
  191.6720  177.7660  141.2130 C   0  0  0  0  0  2  0  0  0  0  0  0
  191.6470  176.6200  140.2170 C   0  0  0  0  0  2  0  0  0  0  0  0
  192.5670  176.8480  139.1940 O   0  0  0  0  0  0  0  0  0  0  0  0
  191.9040  176.4430  138.0320 C   0  0  0  0  0  2  0  0  0  0  0  0
  193.5420  174.8210  136.9710 C   0  0  1  0  0  3  0  0  0  0  0  0
  193.4710  175.3490  135.5260 C   0  0  0  0  0  2  0  0  0  0  0  0
  191.0530  174.3500  136.9470 C   0  0  0  0  0  2  0  0  0  0  0  0
  194.6370  175.4540  137.6860 N   0  0  0  0  0  1  0  0  0  0  0  0
  192.2150  174.9800  137.7290 C   0  0  2  0  0  3  0  0  0  0  0  0
  191.3240  174.2790  135.4390 C   0  0  0  0  0  2  0  0  0  0  0  0
  192.1000  175.4390  135.0080 N   0  0  0  0  0  2  0  0  0  0  0  0
  1 37  1  0  0  0  0
  2  3  2  0  0  0  0
  2  4  1  0  0  0  0
  3  5  1  0  0  0  0
  4  7  2  0  0  0  0
  5  1  2  0  0  0  0
  6  4  1  0  0  0  0
  7  1  1  0  0  0  0
  8 10  1  0  0  0  0
  8  2  1  0  0  0  0
  9  8  2  0  0  0  0
 10 21  1  0  0  0  0
 11 22  1  0  0  0  0
 12 11  2  0  0  0  0
 13 19  1  0  0  0  0
 15 14  1  0  0  0  0
 15 31  1  0  0  0  0
 17 14  1  0  0  0  0
 18 20  1  0  0  0  0
 19 22  2  0  0  0  0
 19 18  1  0  0  0  0
 20 17  2  0  0  0  0
 21 24  2  0  0  0  0
 22 16  1  0  0  0  0
 23 26  2  0  0  0  0
 24 26  1  0  0  0  0
 25 12  1  0  0  0  0
 25 13  2  0  0  0  0
 26 15  1  0  0  0  0
 27 16  1  1  0  0  0
 27 24  1  0  0  0  0
 27 17  1  0  0  0  0
 29 28  1  0  0  0  0
 29 25  1  0  0  0  0
 30 29  2  0  0  0  0
 31 32  1  0  0  0  0
 33 32  1  0  0  0  0
 33 35  1  0  0  0  0
 34 35  2  0  0  0  0
 35 36  1  0  0  0  0
 37 38  1  0  0  0  0
 38 39  1  0  0  0  0
 39 43  1  0  0  0  0
 40 39  1  0  0  0  0
 42 41  1  1  0  0  0
 42 45  1  0  0  0  0
 43 50  1  6  0  0  0
 43 41  1  0  0  0  0
 43 42  1  0  0  0  0
 45 46  1  0  0  0  0
 45 44  1  1  0  0  0
 46 49  1  1  0  0  0
 46 44  1  0  0  0  0
 47 49  2  0  0  0  0
 49 48  1  0  0  0  0
 51 50  1  0  0  0  0
 52 51  1  0  0  0  0
 53 52  1  0  0  0  0
 54 57  1  1  0  0  0
 54 58  1  0  0  0  0
 55 54  1  0  0  0  0
 56 58  1  0  0  0  0
 58 53  1  6  0  0  0
 59 56  1  0  0  0  0
 60 59  1  0  0  0  0
 60 55  1  0  0  0  0
M  END
>  <MODEL>
5

>  <REMARK>
 VINA RESULT:      -6.0      4.237      8.955
  Name = 
  19 active torsions:
  status: ('A' for Active; 'I' for Inactive)
    1  A    between atoms: C_1  and  C_6
    2  A    between atoms: C_1  and  C_28
    3  A    between atoms: C_2  and  N_29
    4  A    between atoms: C_2  and  C_60
    5  A    between atoms: C_3  and  C_24
    6  A    between atoms: C_3  and  O_59
    7  A    between atoms: C_4  and  N_12
    8  A    between atoms: N_8  and  C_42
    9  A    between atoms: N_8  and  C_58
   10  A    between atoms: N_12  and  C_42
   11  A    between atoms: C_17  and  C_50
   12  A    between atoms: C_27  and  C_49
   13  A    between atoms: C_28  and  C_39
   14  A    between atoms: C_38  and  C_47
   15  A    between atoms: C_45  and  C_57
   16  A    between atoms: C_45  and  O_59
   17  A    between atoms: C_49  and  C_60
   18  A    between atoms: C_52  and  C_56
   19  A    between atoms: C_57  and  C_58
                            x       y       z     vdW  Elec       q    Type
                         _______ _______ _______ _____ _____    ______ ____

>  <TORSDO>
F 19

$$$$
=
 OpenBabel10222421393D

 60 66  0  0  1  0  0  0  0  0999 V2000
  188.5590  178.0800  140.2410 C   0  0  0  0  0  0  0  0  0  0  0  0
  191.2150  177.4870  139.4990 C   0  0  0  0  0  0  0  0  0  0  0  0
  190.2400  177.7620  138.5280 C   0  0  0  0  0  3  0  0  0  0  0  0
  190.8490  177.5290  140.8650 C   0  0  0  0  0  0  0  0  0  0  0  0
  188.9280  178.0660  138.8940 C   0  0  0  0  0  3  0  0  0  0  0  0
  191.8060  177.2100  141.9660 C   0  0  0  0  0  1  0  0  0  0  0  0
  189.5240  177.8110  141.2230 C   0  0  0  0  0  3  0  0  0  0  0  0
  192.5710  177.1210  139.0320 C   0  0  0  0  0  0  0  0  0  0  0  0
  193.5000  176.9850  139.8770 O   0  0  0  0  0  0  0  0  0  0  0  0
  192.8650  176.8740  137.5870 C   0  0  0  0  0  2  0  0  0  0  0  0
  195.8310  173.9880  138.6980 C   0  0  0  0  0  3  0  0  0  0  0  0
  197.2190  173.9720  138.8110 C   0  0  0  0  0  3  0  0  0  0  0  0
  197.4020  173.4490  136.4610 C   0  0  0  0  0  3  0  0  0  0  0  0
  191.7810  172.2520  135.1720 C   0  0  0  0  0  2  0  0  0  0  0  0
  190.6420  173.1520  135.0160 N   0  0  0  0  0  0  0  0  0  0  0  0
  193.9030  174.0570  137.4140 C   0  0  0  0  0  2  0  0  0  0  0  0
  193.0690  172.9940  135.3480 C   0  0  0  0  0  0  0  0  0  0  0  0
  195.5540  172.8520  135.1990 C   0  0  0  0  0  2  0  0  0  0  0  0
  196.0100  173.4130  136.3340 C   0  0  0  0  0  0  0  0  0  0  0  0
  194.1770  172.4290  134.8830 C   0  0  0  0  0  3  0  0  0  0  0  0
  191.7210  176.1530  136.9490 C   0  0  0  0  0  3  0  0  0  0  0  0
  195.2060  173.7680  137.4640 C   0  0  0  0  0  0  0  0  0  0  0  0
  189.5080  175.0530  135.7640 O   0  0  0  0  0  0  0  0  0  0  0  0
  191.8140  174.9650  136.3310 C   0  0  0  0  0  0  0  0  0  0  0  0
  198.0160  173.7400  137.6850 C   0  0  0  0  0  0  0  0  0  0  0  0
  190.5940  174.4090  135.7090 C   0  0  0  0  0  0  0  0  0  0  0  0
  193.1430  174.2590  136.1430 C   0  0  1  0  0  3  0  0  0  0  0  0
  200.1240  174.9400  138.2230 O   0  0  0  0  0  1  0  0  0  0  0  0
  199.4820  173.7830  137.7890 C   0  0  0  0  0  0  0  0  0  0  0  0
  200.1730  172.7880  137.4500 O   0  0  0  0  0  0  0  0  0  0  0  0
  189.4380  172.6110  134.4030 C   0  0  0  0  0  2  0  0  0  0  0  0
  188.9000  171.4770  135.2480 C   0  0  0  0  0  2  0  0  0  0  0  0
  187.8810  172.0030  136.2400 C   0  0  0  0  0  2  0  0  0  0  0  0
  186.3280  170.7200  134.9760 O   0  0  0  0  0  0  0  0  0  0  0  0
  186.5110  171.6810  135.7630 C   0  0  0  0  0  0  0  0  0  0  0  0
  185.4180  172.3830  136.2570 O   0  0  0  0  0  1  0  0  0  0  0  0
  187.1920  178.3240  140.5840 N   0  0  0  0  0  2  0  0  0  0  0  0
  186.6120  177.9760  141.8770 C   0  0  0  0  0  2  0  0  0  0  0  0
  185.8360  179.1090  142.3710 N   0  0  0  0  0  0  0  0  0  0  0  0
  185.7040  179.9640  141.3210 O   0  0  0  0  0  1  0  0  0  0  0  0
  183.8220  179.5480  143.9230 C   0  0  0  0  0  2  0  0  0  0  0  0
  184.4600  178.2180  144.2980 C   0  0  1  0  0  3  0  0  0  0  0  0
  184.4880  178.7050  142.8410 C   0  0  2  0  0  0  0  0  0  0  0  0
  186.3900  177.2020  145.4890 C   0  0  0  0  0  2  0  0  0  0  0  0
  185.7430  178.5060  145.0640 C   0  0  2  0  0  3  0  0  0  0  0  0
  185.5910  178.0180  146.4970 C   0  0  2  0  0  3  0  0  0  0  0  0
  187.6300  178.4650  147.7070 O   0  0  0  0  0  0  0  0  0  0  0  0
  185.9920  180.0560  147.8750 O   0  0  0  0  0  1  0  0  0  0  0  0
  186.4730  178.8500  147.3800 C   0  0  0  0  0  0  0  0  0  0  0  0
  183.5690  177.8760  141.9410 C   0  0  0  0  0  2  0  0  0  0  0  0
  182.5740  178.7840  141.2390 C   0  0  0  0  0  2  0  0  0  0  0  0
  181.5260  178.0330  140.7070 O   0  0  0  0  0  0  0  0  0  0  0  0
  182.1560  177.0290  139.9670 C   0  0  0  0  0  2  0  0  0  0  0  0
  181.5220  175.7800  137.8520 C   0  0  1  0  0  3  0  0  0  0  0  0
  182.7970  174.9300  137.7050 C   0  0  0  0  0  2  0  0  0  0  0  0
  182.8950  177.9060  137.7380 C   0  0  0  0  0  2  0  0  0  0  0  0
  180.5070  175.0440  138.5860 N   0  0  0  0  0  1  0  0  0  0  0  0
  181.7890  177.1510  138.4910 C   0  0  2  0  0  3  0  0  0  0  0  0
  183.8460  176.9670  136.9870 C   0  0  0  0  0  2  0  0  0  0  0  0
  184.0320  175.7260  137.7360 N   0  0  0  0  0  2  0  0  0  0  0  0
  1 37  1  0  0  0  0
  1  7  1  0  0  0  0
  2  4  1  0  0  0  0
  3  5  1  0  0  0  0
  3  2  2  0  0  0  0
  4  7  2  0  0  0  0
  4  6  1  0  0  0  0
  5  1  2  0  0  0  0
  8  2  1  0  0  0  0
  8  9  2  0  0  0  0
 10  8  1  0  0  0  0
 11 12  1  0  0  0  0
 13 25  1  0  0  0  0
 14 17  1  0  0  0  0
 15 14  1  0  0  0  0
 15 26  1  0  0  0  0
 16 22  1  0  0  0  0
 17 27  1  0  0  0  0
 18 19  1  0  0  0  0
 19 13  2  0  0  0  0
 19 22  1  0  0  0  0
 20 18  1  0  0  0  0
 20 17  2  0  0  0  0
 21 10  1  0  0  0  0
 22 11  2  0  0  0  0
 24 21  2  0  0  0  0
 25 29  1  0  0  0  0
 25 12  2  0  0  0  0
 26 23  2  0  0  0  0
 26 24  1  0  0  0  0
 27 24  1  0  0  0  0
 27 16  1  1  0  0  0
 29 28  1  0  0  0  0
 30 29  2  0  0  0  0
 31 15  1  0  0  0  0
 31 32  1  0  0  0  0
 32 33  1  0  0  0  0
 34 35  2  0  0  0  0
 35 33  1  0  0  0  0
 35 36  1  0  0  0  0
 37 38  1  0  0  0  0
 38 39  1  0  0  0  0
 39 43  1  0  0  0  0
 40 39  1  0  0  0  0
 42 41  1  1  0  0  0
 42 45  1  0  0  0  0
 43 50  1  6  0  0  0
 43 41  1  0  0  0  0
 43 42  1  0  0  0  0
 44 46  1  0  0  0  0
 45 44  1  6  0  0  0
 45 46  1  0  0  0  0
 46 49  1  1  0  0  0
 49 47  2  0  0  0  0
 49 48  1  0  0  0  0
 51 50  1  0  0  0  0
 52 51  1  0  0  0  0
 53 52  1  0  0  0  0
 54 58  1  0  0  0  0
 54 57  1  1  0  0  0
 55 60  1  0  0  0  0
 55 54  1  0  0  0  0
 56 58  1  0  0  0  0
 58 53  1  1  0  0  0
 59 60  1  0  0  0  0
 59 56  1  0  0  0  0
M  END
>  <MODEL>
6

>  <REMARK>
 VINA RESULT:      -5.7      3.441     11.751
  Name = 
  19 active torsions:
  status: ('A' for Active; 'I' for Inactive)
    1  A    between atoms: C_1  and  C_6
    2  A    between atoms: C_1  and  C_28
    3  A    between atoms: C_2  and  N_29
    4  A    between atoms: C_2  and  C_60
    5  A    between atoms: C_3  and  C_24
    6  A    between atoms: C_3  and  O_59
    7  A    between atoms: C_4  and  N_12
    8  A    between atoms: N_8  and  C_42
    9  A    between atoms: N_8  and  C_58
   10  A    between atoms: N_12  and  C_42
   11  A    between atoms: C_17  and  C_50
   12  A    between atoms: C_27  and  C_49
   13  A    between atoms: C_28  and  C_39
   14  A    between atoms: C_38  and  C_47
   15  A    between atoms: C_45  and  C_57
   16  A    between atoms: C_45  and  O_59
   17  A    between atoms: C_49  and  C_60
   18  A    between atoms: C_52  and  C_56
   19  A    between atoms: C_57  and  C_58
                            x       y       z     vdW  Elec       q    Type
                         _______ _______ _______ _____ _____    ______ ____

>  <TORSDO>
F 19

$$$$
=
 OpenBabel10222421393D

 60 66  0  0  1  0  0  0  0  0999 V2000
  192.7000  176.6840  138.9220 C   0  0  0  0  0  0  0  0  0  0  0  0
  190.4110  177.7030  140.2190 C   0  0  0  0  0  0  0  0  0  0  0  0
  191.5900  177.4450  140.9350 C   0  0  0  0  0  3  0  0  0  0  0  0
  190.3910  177.4600  138.8250 C   0  0  0  0  0  0  0  0  0  0  0  0
  192.7270  176.9510  140.2920 C   0  0  0  0  0  3  0  0  0  0  0  0
  189.1730  177.6650  137.9880 C   0  0  0  0  0  1  0  0  0  0  0  0
  191.5290  176.9420  138.1920 C   0  0  0  0  0  3  0  0  0  0  0  0
  189.2310  178.1750  140.9780 C   0  0  0  0  0  0  0  0  0  0  0  0
  189.0850  179.4120  141.1860 O   0  0  0  0  0  0  0  0  0  0  0  0
  188.1890  177.2280  141.4790 C   0  0  0  0  0  2  0  0  0  0  0  0
  190.6420  178.1360  144.8720 C   0  0  0  0  0  3  0  0  0  0  0  0
  191.6330  177.4760  145.5970 C   0  0  0  0  0  3  0  0  0  0  0  0
  189.9360  176.4120  146.9440 C   0  0  0  0  0  3  0  0  0  0  0  0
  185.1640  179.4310  145.2690 C   0  0  0  0  0  2  0  0  0  0  0  0
  184.4020  179.3660  144.0250 N   0  0  0  0  0  0  0  0  0  0  0  0
  188.4280  178.3950  144.2400 C   0  0  0  0  0  2  0  0  0  0  0  0
  186.2190  178.3720  145.3420 C   0  0  0  0  0  0  0  0  0  0  0  0
  187.7180  177.0700  146.8510 C   0  0  0  0  0  2  0  0  0  0  0  0
  188.9270  177.0990  146.2620 C   0  0  0  0  0  0  0  0  0  0  0  0
  186.5340  177.8930  146.5400 C   0  0  0  0  0  3  0  0  0  0  0  0
  186.8840  177.9400  141.6360 C   0  0  0  0  0  3  0  0  0  0  0  0
  189.2860  177.9220  145.1470 C   0  0  0  0  0  0  0  0  0  0  0  0
  184.4290  179.1580  141.6980 O   0  0  0  0  0  0  0  0  0  0  0  0
  186.3520  178.3120  142.8110 C   0  0  0  0  0  0  0  0  0  0  0  0
  191.2860  176.5800  146.6130 C   0  0  0  0  0  0  0  0  0  0  0  0
  185.0270  178.9680  142.7960 C   0  0  0  0  0  0  0  0  0  0  0  0
  187.0020  177.9610  144.1350 C   0  0  1  0  0  3  0  0  0  0  0  0
  192.9830  176.4180  148.4200 O   0  0  0  0  0  1  0  0  0  0  0  0
  192.3270  175.8370  147.3380 C   0  0  0  0  0  0  0  0  0  0  0  0
  192.6620  174.6830  146.9640 O   0  0  0  0  0  0  0  0  0  0  0  0
  183.0960  180.0090  144.0050 C   0  0  0  0  0  2  0  0  0  0  0  0
  182.0200  178.9710  143.7620 C   0  0  0  0  0  2  0  0  0  0  0  0
  181.3740  179.1970  142.4100 C   0  0  0  0  0  2  0  0  0  0  0  0
  180.1290  180.8300  143.6080 O   0  0  0  0  0  1  0  0  0  0  0  0
  180.4420  180.3510  142.4900 C   0  0  0  0  0  0  0  0  0  0  0  0
  179.9860  180.9620  141.3280 O   0  0  0  0  0  0  0  0  0  0  0  0
  193.8550  176.1120  138.3020 N   0  0  0  0  0  2  0  0  0  0  0  0
  193.8520  174.8130  137.6380 C   0  0  0  0  0  2  0  0  0  0  0  0
  193.2170  174.9500  136.3310 N   0  0  0  0  0  0  0  0  0  0  0  0
  194.0650  175.6970  135.5730 O   0  0  0  0  0  1  0  0  0  0  0  0
  192.2300  173.6140  134.3550 C   0  0  0  0  0  2  0  0  0  0  0  0
  191.5330  173.1920  135.6410 C   0  0  1  0  0  3  0  0  0  0  0  0
  193.0020  173.6390  135.6700 C   0  0  2  0  0  0  0  0  0  0  0  0
  189.2850  173.6690  136.5900 C   0  0  0  0  0  2  0  0  0  0  0  0
  190.5520  174.2890  136.0310 C   0  0  2  0  0  3  0  0  0  0  0  0
  189.3120  174.1860  135.1560 C   0  0  2  0  0  3  0  0  0  0  0  0
  187.4780  175.7490  135.2790 O   0  0  0  0  0  1  0  0  0  0  0  0
  189.4920  176.6120  134.6120 O   0  0  0  0  0  0  0  0  0  0  0  0
  188.7010  175.5500  135.0340 C   0  0  0  0  0  0  0  0  0  0  0  0
  193.9520  172.4690  135.9410 C   0  0  0  0  0  2  0  0  0  0  0  0
  194.4540  172.5290  137.3720 C   0  0  0  0  0  2  0  0  0  0  0  0
  195.7430  172.0020  137.4560 O   0  0  0  0  0  0  0  0  0  0  0  0
  196.3370  172.3360  136.2360 C   0  0  0  0  0  2  0  0  0  0  0  0
  198.0440  174.0630  136.9690 C   0  0  1  0  0  3  0  0  0  0  0  0
  197.7210  175.1500  135.9280 C   0  0  0  0  0  2  0  0  0  0  0  0
  198.5800  172.4160  135.1200 C   0  0  0  0  0  2  0  0  0  0  0  0
  197.2910  174.2940  138.1900 N   0  0  0  0  0  1  0  0  0  0  0  0
  197.8190  172.6410  136.4360 C   0  0  2  0  0  3  0  0  0  0  0  0
  198.8490  173.7220  134.3620 C   0  0  0  0  0  2  0  0  0  0  0  0
  197.7380  174.6540  134.5460 N   0  0  0  0  0  2  0  0  0  0  0  0
  1  5  1  0  0  0  0
  2  3  1  0  0  0  0
  2  8  1  0  0  0  0
  4  2  2  0  0  0  0
  5  3  2  0  0  0  0
  6  4  1  0  0  0  0
  7  4  1  0  0  0  0
  7  1  2  0  0  0  0
  8  9  2  0  0  0  0
  8 10  1  0  0  0  0
 10 21  1  0  0  0  0
 11 22  2  0  0  0  0
 11 12  1  0  0  0  0
 12 25  2  0  0  0  0
 14 17  1  0  0  0  0
 15 14  1  0  0  0  0
 16 22  1  0  0  0  0
 17 20  2  0  0  0  0
 19 18  1  0  0  0  0
 19 13  2  0  0  0  0
 20 18  1  0  0  0  0
 21 24  2  0  0  0  0
 22 19  1  0  0  0  0
 23 26  2  0  0  0  0
 24 27  1  0  0  0  0
 25 13  1  0  0  0  0
 25 29  1  0  0  0  0
 26 24  1  0  0  0  0
 26 15  1  0  0  0  0
 27 16  1  1  0  0  0
 27 17  1  0  0  0  0
 29 28  1  0  0  0  0
 30 29  2  0  0  0  0
 31 15  1  0  0  0  0
 32 31  1  0  0  0  0
 33 35  1  0  0  0  0
 33 32  1  0  0  0  0
 35 34  1  0  0  0  0
 36 35  2  0  0  0  0
 37  1  1  0  0  0  0
 38 37  1  0  0  0  0
 39 38  1  0  0  0  0
 40 39  1  0  0  0  0
 41 43  1  0  0  0  0
 42 41  1  6  0  0  0
 42 43  1  0  0  0  0
 42 45  1  0  0  0  0
 43 50  1  1  0  0  0
 43 39  1  0  0  0  0
 45 44  1  1  0  0  0
 46 49  1  1  0  0  0
 46 45  1  0  0  0  0
 46 44  1  0  0  0  0
 48 49  2  0  0  0  0
 49 47  1  0  0  0  0
 50 51  1  0  0  0  0
 51 52  1  0  0  0  0
 53 52  1  0  0  0  0
 54 57  1  1  0  0  0
 55 54  1  0  0  0  0
 56 58  1  0  0  0  0
 58 53  1  6  0  0  0
 58 54  1  0  0  0  0
 59 60  1  0  0  0  0
 59 56  1  0  0  0  0
 60 55  1  0  0  0  0
M  END
>  <MODEL>
7

>  <REMARK>
 VINA RESULT:      -5.7      1.806      2.289
  Name = 
  19 active torsions:
  status: ('A' for Active; 'I' for Inactive)
    1  A    between atoms: C_1  and  C_6
    2  A    between atoms: C_1  and  C_28
    3  A    between atoms: C_2  and  N_29
    4  A    between atoms: C_2  and  C_60
    5  A    between atoms: C_3  and  C_24
    6  A    between atoms: C_3  and  O_59
    7  A    between atoms: C_4  and  N_12
    8  A    between atoms: N_8  and  C_42
    9  A    between atoms: N_8  and  C_58
   10  A    between atoms: N_12  and  C_42
   11  A    between atoms: C_17  and  C_50
   12  A    between atoms: C_27  and  C_49
   13  A    between atoms: C_28  and  C_39
   14  A    between atoms: C_38  and  C_47
   15  A    between atoms: C_45  and  C_57
   16  A    between atoms: C_45  and  O_59
   17  A    between atoms: C_49  and  C_60
   18  A    between atoms: C_52  and  C_56
   19  A    between atoms: C_57  and  C_58
                            x       y       z     vdW  Elec       q    Type
                         _______ _______ _______ _____ _____    ______ ____

>  <TORSDO>
F 19

$$$$
=
 OpenBabel10222421393D

 60 66  0  0  1  0  0  0  0  0999 V2000
  186.0180  178.1230  141.2840 C   0  0  0  0  0  0  0  0  0  0  0  0
  183.2510  178.6480  141.4480 C   0  0  0  0  0  0  0  0  0  0  0  0
  183.8510  178.3240  140.2220 C   0  0  0  0  0  3  0  0  0  0  0  0
  184.0550  178.6910  142.6120 C   0  0  0  0  0  0  0  0  0  0  0  0
  185.2180  178.0530  140.1410 C   0  0  0  0  0  3  0  0  0  0  0  0
  183.5140  179.0660  143.9510 C   0  0  0  0  0  1  0  0  0  0  0  0
  185.4300  178.4410  142.5180 C   0  0  0  0  0  3  0  0  0  0  0  0
  181.8070  178.9750  141.4450 C   0  0  0  0  0  0  0  0  0  0  0  0
  181.3140  179.6010  142.4250 O   0  0  0  0  0  0  0  0  0  0  0  0
  180.9210  178.6120  140.2970 C   0  0  0  0  0  2  0  0  0  0  0  0
  180.2570  175.1840  137.8160 C   0  0  0  0  0  3  0  0  0  0  0  0
  180.8200  173.9150  137.6880 C   0  0  0  0  0  3  0  0  0  0  0  0
  182.5080  174.8160  136.2160 C   0  0  0  0  0  3  0  0  0  0  0  0
  180.3450  180.2080  135.2490 C   0  0  0  0  0  2  0  0  0  0  0  0
  180.3030  181.3730  136.1270 N   0  0  0  0  0  0  0  0  0  0  0  0
  180.3680  177.4850  137.5650 C   0  0  0  0  0  2  0  0  0  0  0  0
  181.1300  179.0790  135.8420 C   0  0  0  0  0  0  0  0  0  0  0  0
  182.3620  176.9650  135.3660 C   0  0  0  0  0  2  0  0  0  0  0  0
  181.9330  176.0880  136.2920 C   0  0  0  0  0  0  0  0  0  0  0  0
  181.7770  178.2720  135.0110 C   0  0  0  0  0  3  0  0  0  0  0  0
  180.5730  179.8370  139.5130 C   0  0  0  0  0  3  0  0  0  0  0  0
  180.8250  176.2910  137.1760 C   0  0  0  0  0  0  0  0  0  0  0  0
  179.9820  182.2140  138.2830 O   0  0  0  0  0  0  0  0  0  0  0  0
  180.5980  179.9210  138.1740 C   0  0  0  0  0  0  0  0  0  0  0  0
  181.9720  173.7300  136.9180 C   0  0  0  0  0  0  0  0  0  0  0  0
  180.2700  181.2220  137.5540 C   0  0  0  0  0  0  0  0  0  0  0  0
  181.0770  178.7740  137.3060 C   0  0  1  0  0  3  0  0  0  0  0  0
  183.9620  172.2520  137.0990 O   0  0  0  0  0  1  0  0  0  0  0  0
  182.6040  172.4040  136.8310 C   0  0  0  0  0  0  0  0  0  0  0  0
  181.9320  171.4020  136.4760 O   0  0  0  0  0  0  0  0  0  0  0  0
  179.9820  182.6580  135.5220 C   0  0  0  0  0  2  0  0  0  0  0  0
  181.2510  183.4600  135.3240 C   0  0  0  0  0  2  0  0  0  0  0  0
  181.0230  184.9040  135.7230 C   0  0  0  0  0  2  0  0  0  0  0  0
  180.5580  185.6710  137.9260 O   0  0  0  0  0  1  0  0  0  0  0  0
  181.3610  185.0830  137.1590 C   0  0  0  0  0  0  0  0  0  0  0  0
  182.5220  184.5210  137.6780 O   0  0  0  0  0  0  0  0  0  0  0  0
  187.4270  177.9100  141.1600 N   0  0  0  0  0  2  0  0  0  0  0  0
  188.4260  178.7020  141.8710 C   0  0  0  0  0  2  0  0  0  0  0  0
  189.0920  177.8520  142.8540 N   0  0  0  0  0  0  0  0  0  0  0  0
  188.2090  176.8660  143.1640 O   0  0  0  0  0  1  0  0  0  0  0  0
  190.6610  175.8070  142.7180 C   0  0  0  0  0  2  0  0  0  0  0  0
  191.3980  176.9570  143.3890 C   0  0  1  0  0  3  0  0  0  0  0  0
  190.3340  177.2410  142.3180 C   0  0  2  0  0  0  0  0  0  0  0  0
  191.7640  178.0420  145.5950 C   0  0  0  0  0  2  0  0  0  0  0  0
  190.8810  177.0870  144.8140 C   0  0  2  0  0  3  0  0  0  0  0  0
  191.9220  176.5370  145.7770 C   0  0  2  0  0  3  0  0  0  0  0  0
  190.0530  176.4170  147.2970 O   0  0  0  0  0  0  0  0  0  0  0  0
  191.8830  175.1590  147.8530 O   0  0  0  0  0  1  0  0  0  0  0  0
  191.2200  176.0370  147.0040 C   0  0  0  0  0  0  0  0  0  0  0  0
  190.9530  177.7580  141.0160 C   0  0  0  0  0  2  0  0  0  0  0  0
  190.8620  176.6910  139.9390 C   0  0  0  0  0  2  0  0  0  0  0  0
  191.0060  177.2650  138.6760 O   0  0  0  0  0  0  0  0  0  0  0  0
  191.7490  176.3300  137.9500 C   0  0  0  0  0  2  0  0  0  0  0  0
  189.7570  176.5060  136.3900 C   0  0  1  0  0  3  0  0  0  0  0  0
  188.9400  175.3220  136.9390 C   0  0  0  0  0  2  0  0  0  0  0  0
  191.6890  174.9570  135.8550 C   0  0  0  0  0  2  0  0  0  0  0  0
  189.3530  177.7420  137.0380 N   0  0  0  0  0  1  0  0  0  0  0  0
  191.2730  176.2870  136.5010 C   0  0  2  0  0  3  0  0  0  0  0  0
  190.5460  173.9350  135.8160 C   0  0  0  0  0  2  0  0  0  0  0  0
  189.7040  174.0690  137.0030 N   0  0  0  0  0  2  0  0  0  0  0  0
  1  7  1  0  0  0  0
  2  4  1  0  0  0  0
  3  2  2  0  0  0  0
  4  6  1  0  0  0  0
  5  3  1  0  0  0  0
  5  1  2  0  0  0  0
  7  4  2  0  0  0  0
  8  2  1  0  0  0  0
  8  9  2  0  0  0  0
 10  8  1  0  0  0  0
 12 11  1  0  0  0  0
 13 19  2  0  0  0  0
 13 25  1  0  0  0  0
 14 17  1  0  0  0  0
 14 15  1  0  0  0  0
 15 26  1  0  0  0  0
 17 27  1  0  0  0  0
 18 19  1  0  0  0  0
 19 22  1  0  0  0  0
 20 18  1  0  0  0  0
 20 17  2  0  0  0  0
 21 10  1  0  0  0  0
 22 16  1  0  0  0  0
 22 11  2  0  0  0  0
 24 21  2  0  0  0  0
 25 12  2  0  0  0  0
 26 24  1  0  0  0  0
 26 23  2  0  0  0  0
 27 16  1  6  0  0  0
 27 24  1  0  0  0  0
 29 25  1  0  0  0  0
 29 28  1  0  0  0  0
 30 29  2  0  0  0  0
 31 15  1  0  0  0  0
 32 31  1  0  0  0  0
 32 33  1  0  0  0  0
 33 35  1  0  0  0  0
 35 36  2  0  0  0  0
 35 34  1  0  0  0  0
 37  1  1  0  0  0  0
 37 38  1  0  0  0  0
 38 39  1  0  0  0  0
 39 40  1  0  0  0  0
 42 41  1  6  0  0  0
 42 45  1  0  0  0  0
 43 50  1  6  0  0  0
 43 41  1  0  0  0  0
 43 39  1  0  0  0  0
 43 42  1  0  0  0  0
 44 46  1  0  0  0  0
 45 44  1  1  0  0  0
 45 46  1  0  0  0  0
 46 49  1  1  0  0  0
 49 47  2  0  0  0  0
 49 48  1  0  0  0  0
 51 50  1  0  0  0  0
 52 51  1  0  0  0  0
 53 52  1  0  0  0  0
 54 58  1  0  0  0  0
 54 55  1  0  0  0  0
 54 57  1  1  0  0  0
 55 60  1  0  0  0  0
 56 58  1  0  0  0  0
 58 53  1  1  0  0  0
 59 56  1  0  0  0  0
 59 60  1  0  0  0  0
M  END
>  <MODEL>
8

>  <REMARK>
 VINA RESULT:      -5.5      4.644      9.871
  Name = 
  19 active torsions:
  status: ('A' for Active; 'I' for Inactive)
    1  A    between atoms: C_1  and  C_6
    2  A    between atoms: C_1  and  C_28
    3  A    between atoms: C_2  and  N_29
    4  A    between atoms: C_2  and  C_60
    5  A    between atoms: C_3  and  C_24
    6  A    between atoms: C_3  and  O_59
    7  A    between atoms: C_4  and  N_12
    8  A    between atoms: N_8  and  C_42
    9  A    between atoms: N_8  and  C_58
   10  A    between atoms: N_12  and  C_42
   11  A    between atoms: C_17  and  C_50
   12  A    between atoms: C_27  and  C_49
   13  A    between atoms: C_28  and  C_39
   14  A    between atoms: C_38  and  C_47
   15  A    between atoms: C_45  and  C_57
   16  A    between atoms: C_45  and  O_59
   17  A    between atoms: C_49  and  C_60
   18  A    between atoms: C_52  and  C_56
   19  A    between atoms: C_57  and  C_58
                            x       y       z     vdW  Elec       q    Type
                         _______ _______ _______ _____ _____    ______ ____

>  <TORSDO>
F 19

$$$$
=
 OpenBabel10222421393D

 60 66  0  0  1  0  0  0  0  0999 V2000
  185.0330  177.7000  137.0430 C   0  0  0  0  0  0  0  0  0  0  0  0
  187.3530  178.1360  138.5880 C   0  0  0  0  0  0  0  0  0  0  0  0
  186.0760  178.3300  139.1350 C   0  0  0  0  0  3  0  0  0  0  0  0
  187.4620  177.6980  137.2460 C   0  0  0  0  0  0  0  0  0  0  0  0
  184.9270  178.1040  138.3750 C   0  0  0  0  0  3  0  0  0  0  0  0
  188.7760  177.5050  136.5660 C   0  0  0  0  0  1  0  0  0  0  0  0
  186.3040  177.4970  136.4830 C   0  0  0  0  0  3  0  0  0  0  0  0
  188.5240  178.4470  139.4380 C   0  0  0  0  0  0  0  0  0  0  0  0
  189.6860  178.2750  138.9760 O   0  0  0  0  0  0  0  0  0  0  0  0
  188.3670  178.9920  140.8210 C   0  0  0  0  0  2  0  0  0  0  0  0
  184.5860  177.4870  142.1610 C   0  0  0  0  0  3  0  0  0  0  0  0
  183.2710  177.9490  142.1730 C   0  0  0  0  0  3  0  0  0  0  0  0
  183.6970  179.1030  144.2500 C   0  0  0  0  0  3  0  0  0  0  0  0
  188.9610  176.8770  145.6730 C   0  0  0  0  0  2  0  0  0  0  0  0
  190.2780  177.1450  145.1040 N   0  0  0  0  0  0  0  0  0  0  0  0
  186.7690  177.5700  142.9350 C   0  0  0  0  0  2  0  0  0  0  0  0
  187.9070  177.7810  145.1150 C   0  0  0  0  0  0  0  0  0  0  0  0
  185.6340  178.7450  145.4670 C   0  0  0  0  0  2  0  0  0  0  0  0
  185.0060  178.6120  144.2850 C   0  0  0  0  0  0  0  0  0  0  0  0
  186.8920  178.1100  145.9050 C   0  0  0  0  0  3  0  0  0  0  0  0
  189.4360  178.4420  141.7110 C   0  0  0  0  0  3  0  0  0  0  0  0
  185.4850  177.8490  143.1720 C   0  0  0  0  0  0  0  0  0  0  0  0
  191.5610  177.5480  143.1940 O   0  0  0  0  0  0  0  0  0  0  0  0
  189.2460  178.0410  142.9780 C   0  0  0  0  0  0  0  0  0  0  0  0
  182.8280  178.7910  143.1970 C   0  0  0  0  0  0  0  0  0  0  0  0
  190.4210  177.5640  143.7380 C   0  0  0  0  0  0  0  0  0  0  0  0
  187.9080  178.1900  143.6760 C   0  0  1  0  0  3  0  0  0  0  0  0
  181.2400  180.7000  143.2950 O   0  0  0  0  0  1  0  0  0  0  0  0
  181.4600  179.3300  143.1790 C   0  0  0  0  0  0  0  0  0  0  0  0
  180.4730  178.5540  143.0960 O   0  0  0  0  0  0  0  0  0  0  0  0
  191.4380  176.6800  145.8500 C   0  0  0  0  0  2  0  0  0  0  0  0
  191.1840  176.8270  147.3350 C   0  0  0  0  0  2  0  0  0  0  0  0
  191.9510  175.7690  148.1030 C   0  0  0  0  0  2  0  0  0  0  0  0
  194.2670  175.9940  148.5910 O   0  0  0  0  0  0  0  0  0  0  0  0
  193.0970  176.3990  148.8070 C   0  0  0  0  0  0  0  0  0  0  0  0
  192.8910  177.4960  149.6350 O   0  0  0  0  0  1  0  0  0  0  0  0
  183.8420  177.5440  136.2660 N   0  0  0  0  0  2  0  0  0  0  0  0
  183.3170  176.2470  135.8480 C   0  0  0  0  0  2  0  0  0  0  0  0
  181.8730  176.2320  136.0550 N   0  0  0  0  0  0  0  0  0  0  0  0
  181.3130  176.5180  134.8490 O   0  0  0  0  0  1  0  0  0  0  0  0
  180.0600  174.8490  137.2650 C   0  0  0  0  0  2  0  0  0  0  0  0
  181.3650  174.7480  138.0410 C   0  0  1  0  0  3  0  0  0  0  0  0
  181.3850  174.9070  136.5140 C   0  0  2  0  0  0  0  0  0  0  0  0
  180.8390  176.0030  140.1220 C   0  0  0  0  0  2  0  0  0  0  0  0
  181.5720  176.0540  138.7950 C   0  0  2  0  0  3  0  0  0  0  0  0
  180.2340  176.7610  138.9470 C   0  0  2  0  0  3  0  0  0  0  0  0
  179.9820  178.9360  139.9630 O   0  0  0  0  0  1  0  0  0  0  0  0
  181.2550  178.8550  138.0610 O   0  0  0  0  0  0  0  0  0  0  0  0
  180.4820  178.2380  139.0370 C   0  0  0  0  0  0  0  0  0  0  0  0
  181.8420  173.6260  135.8100 C   0  0  0  0  0  2  0  0  0  0  0  0
  182.7840  172.8470  136.7100 C   0  0  0  0  0  2  0  0  0  0  0  0
  183.7240  173.7030  137.2850 O   0  0  0  0  0  0  0  0  0  0  0  0
  184.9350  173.0120  137.1820 C   0  0  0  0  0  2  0  0  0  0  0  0
  186.1120  171.6810  135.3720 C   0  0  1  0  0  3  0  0  0  0  0  0
  187.4740  171.5140  136.0700 C   0  0  0  0  0  2  0  0  0  0  0  0
  186.3380  174.2020  135.4800 C   0  0  0  0  0  2  0  0  0  0  0  0
  185.2580  170.5380  135.6510 N   0  0  0  0  0  1  0  0  0  0  0  0
  185.4150  173.0000  135.7330 C   0  0  2  0  0  3  0  0  0  0  0  0
  187.8240  173.8270  135.5300 C   0  0  0  0  0  2  0  0  0  0  0  0
  188.0510  172.7840  136.5280 N   0  0  0  0  0  2  0  0  0  0  0  0
  1  5  1  0  0  0  0
  2  3  1  0  0  0  0
  2  8  1  0  0  0  0
  4  2  2  0  0  0  0
  5  3  2  0  0  0  0
  6  4  1  0  0  0  0
  7  1  2  0  0  0  0
  7  4  1  0  0  0  0
  8 10  1  0  0  0  0
  9  8  2  0  0  0  0
 10 21  1  0  0  0  0
 11 12  2  0  0  0  0
 11 22  1  0  0  0  0
 12 25  1  0  0  0  0
 13 19  1  0  0  0  0
 15 14  1  0  0  0  0
 15 31  1  0  0  0  0
 16 22  1  0  0  0  0
 17 14  1  0  0  0  0
 17 20  2  0  0  0  0
 18 20  1  0  0  0  0
 19 18  1  0  0  0  0
 21 24  2  0  0  0  0
 22 19  2  0  0  0  0
 23 26  2  0  0  0  0
 24 27  1  0  0  0  0
 24 26  1  0  0  0  0
 25 13  2  0  0  0  0
 26 15  1  0  0  0  0
 27 16  1  6  0  0  0
 27 17  1  0  0  0  0
 29 25  1  0  0  0  0
 29 28  1  0  0  0  0
 30 29  2  0  0  0  0
 31 32  1  0  0  0  0
 32 33  1  0  0  0  0
 33 35  1  0  0  0  0
 34 35  2  0  0  0  0
 35 36  1  0  0  0  0
 37  1  1  0  0  0  0
 38 39  1  0  0  0  0
 38 37  1  0  0  0  0
 39 43  1  0  0  0  0
 40 39  1  0  0  0  0
 42 41  1  1  0  0  0
 42 45  1  0  0  0  0
 43 50  1  6  0  0  0
 43 41  1  0  0  0  0
 43 42  1  0  0  0  0
 45 46  1  0  0  0  0
 45 44  1  1  0  0  0
 46 49  1  1  0  0  0
 46 44  1  0  0  0  0
 48 49  2  0  0  0  0
 49 47  1  0  0  0  0
 50 51  1  0  0  0  0
 51 52  1  0  0  0  0
 53 52  1  0  0  0  0
 54 57  1  1  0  0  0
 54 58  1  0  0  0  0
 54 55  1  0  0  0  0
 55 60  1  0  0  0  0
 56 59  1  0  0  0  0
 56 58  1  0  0  0  0
 58 53  1  1  0  0  0
 59 60  1  0  0  0  0
M  END
>  <MODEL>
9

>  <REMARK>
 VINA RESULT:      -5.3      4.581      9.137
  Name = 
  19 active torsions:
  status: ('A' for Active; 'I' for Inactive)
    1  A    between atoms: C_1  and  C_6
    2  A    between atoms: C_1  and  C_28
    3  A    between atoms: C_2  and  N_29
    4  A    between atoms: C_2  and  C_60
    5  A    between atoms: C_3  and  C_24
    6  A    between atoms: C_3  and  O_59
    7  A    between atoms: C_4  and  N_12
    8  A    between atoms: N_8  and  C_42
    9  A    between atoms: N_8  and  C_58
   10  A    between atoms: N_12  and  C_42
   11  A    between atoms: C_17  and  C_50
   12  A    between atoms: C_27  and  C_49
   13  A    between atoms: C_28  and  C_39
   14  A    between atoms: C_38  and  C_47
   15  A    between atoms: C_45  and  C_57
   16  A    between atoms: C_45  and  O_59
   17  A    between atoms: C_49  and  C_60
   18  A    between atoms: C_52  and  C_56
   19  A    between atoms: C_57  and  C_58
                            x       y       z     vdW  Elec       q    Type
                         _______ _______ _______ _____ _____    ______ ____

>  <TORSDO>
F 19

$$$$
