=
 OpenBabel10232409403D

 58 63  0  0  1  0  0  0  0  0999 V2000
  180.6350  175.1830  138.9930 N   0  0  0  0  0  0  0  0  0  0  0  0
  183.2300  176.2640  138.5010 C   0  0  2  0  0  3  0  0  0  0  0  0
  182.7440  175.0080  137.8150 C   0  0  0  0  0  0  0  0  0  0  0  0
  181.5080  174.5450  138.0530 C   0  0  0  0  0  3  0  0  0  0  0  0
  181.0300  176.1690  139.7360 C   0  0  0  0  0  3  0  0  0  0  0  0
  182.3680  176.6800  139.6300 N   0  0  0  0  0  0  0  0  0  0  0  0
  184.2260  177.9150  140.7160 C   0  0  0  0  0  3  0  0  0  0  0  0
  183.8200  179.3000  142.6550 C   0  0  0  0  0  3  0  0  0  0  0  0
  184.7010  178.7750  141.7090 C   0  0  0  0  0  0  0  0  0  0  0  0
  182.4640  178.9820  142.5910 C   0  0  0  0  0  3  0  0  0  0  0  0
  181.9900  178.1310  141.5910 C   0  0  0  0  0  3  0  0  0  0  0  0
  182.8630  177.5770  140.6420 C   0  0  0  0  0  0  0  0  0  0  0  0
  186.4550  179.1310  141.8510 S   0  0  0  0  0  0  0  0  0  0  0  0
  186.9160  177.7910  143.0110 C   0  0  2  0  0  0  0  0  0  0  0  0
  187.6870  176.7040  142.2540 C   0  0  0  0  0  2  0  0  0  0  0  0
  189.4820  176.5490  144.0110 N   0  0  0  0  0  0  0  0  0  0  0  0
  185.7540  177.2360  143.5550 O   0  0  0  0  0  1  0  0  0  0  0  0
  188.4370  175.8240  143.2540 C   0  0  0  0  0  2  0  0  0  0  0  0
  189.2860  178.0100  144.0500 C   0  0  0  0  0  2  0  0  0  0  0  0
  187.8030  178.4180  144.1250 C   0  0  2  0  0  3  0  0  0  0  0  0
  185.8920  178.8020  145.7070 C   0  0  0  0  0  3  0  0  0  0  0  0
  187.2260  178.4030  145.5230 C   0  0  0  0  0  0  0  0  0  0  0  0
  186.0650  178.2950  148.0680 C   0  0  0  0  0  3  0  0  0  0  0  0
  187.3880  177.8810  147.8860 C   0  0  0  0  0  3  0  0  0  0  0  0
  187.9620  177.9280  146.6170 C   0  0  0  0  0  3  0  0  0  0  0  0
  185.3110  178.7500  146.9780 C   0  0  0  0  0  3  0  0  0  0  0  0
  190.8600  176.3440  143.5270 C   0  0  2  0  0  3  0  0  0  0  0  0
  191.8310  175.7450  144.5180 C   0  0  0  0  0  0  0  0  0  0  0  0
  192.4380  174.5130  144.2650 O   0  0  0  0  0  0  0  0  0  0  0  0
  192.0670  176.3310  145.6130 O   0  0  0  0  0  1  0  0  0  0  0  0
  192.1230  177.3860  141.7660 O   0  0  0  0  0  1  0  0  0  0  0  0
  191.4110  177.6410  142.9410 C   0  0  0  0  0  2  0  0  0  0  0  0
  185.6370  172.6200  136.7960 N   0  0  0  0  0  0  0  0  0  0  0  0
  184.6770  173.5430  137.1700 C   0  0  0  0  0  0  0  0  0  0  0  0
  183.5810  174.3920  136.8290 N   0  0  0  0  0  2  0  0  0  0  0  0
  185.5330  173.0650  138.0910 N   0  0  0  0  0  0  0  0  0  0  0  0
  186.2880  171.8390  135.8300 N   0  0  0  0  0  2  0  0  0  0  0  0
  187.2090  172.7120  135.1040 C   0  0  0  0  0  2  0  0  0  0  0  0
  188.3700  173.0610  135.9360 C   0  0  0  0  0  0  0  0  0  0  0  0
  189.2990  173.3600  136.6480 C   0  0  0  0  0  0  0  0  0  0  0  0
  190.3530  173.7240  137.4980 N   0  0  0  0  0  2  0  0  0  0  0  0
  190.9580  175.0000  137.4980 N   0  0  0  0  0  0  0  0  0  0  0  0
  188.1790  178.1360  138.2400 C   0  0  0  0  0  0  0  0  0  0  0  0
  188.3640  177.7230  136.9800 C   0  0  0  0  0  3  0  0  0  0  0  0
  189.6330  177.0060  136.5830 C   0  0  0  0  0  2  0  0  0  0  0  0
  187.0480  178.8140  138.5650 F   0  0  0  0  0  0  0  0  0  0  0  0
  190.1990  176.1930  137.7330 C   0  0  0  0  0  0  0  0  0  0  0  0
  189.9800  176.6140  138.9900 C   0  0  0  0  0  3  0  0  0  0  0  0
  189.2380  177.8890  139.2820 C   0  0  0  0  0  2  0  0  0  0  0  0
  192.3470  175.1160  137.0340 C   0  0  0  0  0  2  0  0  0  0  0  0
  193.1450  174.1340  137.6760 O   0  0  0  0  0  0  0  0  0  0  0  0
  193.6000  172.4530  136.1600 O   0  0  0  0  0  0  0  0  0  0  0  0
  194.0370  173.3260  136.9620 C   0  0  0  0  0  0  0  0  0  0  0  0
  196.1370  172.6640  138.0000 C   0  0  0  0  0  2  0  0  0  0  0  0
  195.4880  173.4710  137.1700 C   0  0  0  0  0  0  0  0  0  0  0  0
  196.2760  174.4350  136.3490 C   0  0  0  0  0  1  0  0  0  0  0  0
  184.6210  177.2890  137.1000 C   0  0  0  0  0  1  0  0  0  0  0  0
  183.3080  177.3030  137.5630 O   0  0  0  0  0  0  0  0  0  0  0  0
  1  5  2  0  0  0  0
  2 58  1  6  0  0  0
  2  6  1  0  0  0  0
  3  4  2  0  0  0  0
  3  2  1  0  0  0  0
  4  1  1  0  0  0  0
  6  5  1  0  0  0  0
  6 12  1  0  0  0  0
  7  9  1  0  0  0  0
  9 13  1  0  0  0  0
  9  8  2  0  0  0  0
 10  8  1  0  0  0  0
 11 10  2  0  0  0  0
 12  7  2  0  0  0  0
 12 11  1  0  0  0  0
 13 14  1  0  0  0  0
 14 17  1  1  0  0  0
 14 20  1  0  0  0  0
 15 14  1  0  0  0  0
 15 18  1  0  0  0  0
 16 19  1  0  0  0  0
 18 16  1  0  0  0  0
 19 20  1  0  0  0  0
 20 22  1  1  0  0  0
 21 26  1  0  0  0  0
 22 21  2  0  0  0  0
 22 25  1  0  0  0  0
 24 23  1  0  0  0  0
 25 24  2  0  0  0  0
 26 23  2  0  0  0  0
 27 32  1  1  0  0  0
 27 16  1  0  0  0  0
 27 28  1  0  0  0  0
 28 30  1  0  0  0  0
 29 28  2  0  0  0  0
 31 32  1  0  0  0  0
 33 34  1  0  0  0  0
 33 36  1  0  0  0  0
 34 36  2  0  0  0  0
 35 34  1  0  0  0  0
 35  3  1  0  0  0  0
 37 33  1  0  0  0  0
 38 37  1  0  0  0  0
 38 39  1  0  0  0  0
 39 40  3  0  0  0  0
 40 41  1  0  0  0  0
 42 41  1  0  0  0  0
 42 47  1  0  0  0  0
 43 46  1  0  0  0  0
 43 49  1  0  0  0  0
 44 43  2  0  0  0  0
 45 44  1  0  0  0  0
 45 47  1  0  0  0  0
 47 48  2  0  0  0  0
 48 49  1  0  0  0  0
 50 42  1  0  0  0  0
 50 51  1  0  0  0  0
 52 53  2  0  0  0  0
 53 55  1  0  0  0  0
 53 51  1  0  0  0  0
 55 54  2  0  0  0  0
 56 55  1  0  0  0  0
 57 58  1  0  0  0  0
M  END
>  <MODEL>
1

>  <REMARK>
 VINA RESULT:      -6.3      0.000      0.000
  Name = 
  19 active torsions:
  status: ('A' for Active; 'I' for Inactive)
    1  A    between atoms: C_4  and  S_14
    2  A    between atoms: N_5  and  N_56
    3  A    between atoms: C_8  and  O_37
    4  A    between atoms: S_14  and  C_27
    5  A    between atoms: C_17  and  N_23
    6  A    between atoms: C_18  and  C_19
    7  A    between atoms: C_19  and  N_56
    8  A    between atoms: C_20  and  C_43
    9  A    between atoms: N_21  and  C_30
   10  A    between atoms: C_25  and  C_49
   11  A    between atoms: C_29  and  N_48
   12  A    between atoms: C_30  and  C_31
   13  A    between atoms: C_30  and  C_40
   14  A    between atoms: N_35  and  C_47
   15  A    between atoms: N_35  and  N_48
   16  A    between atoms: N_45  and  C_55
   17  A    between atoms: C_46  and  N_48
   18  A    between atoms: C_46  and  O_54
   19  A    between atoms: C_49  and  O_54
                            x       y       z     vdW  Elec       q    Type
                         _______ _______ _______ _____ _____    ______ ____

>  <TORSDO>
F 19

$$$$
=
 OpenBabel10232409403D

 58 63  0  0  1  0  0  0  0  0999 V2000
  191.0460  176.5140  143.4950 N   0  0  0  0  0  0  0  0  0  0  0  0
  188.8950  177.1770  141.7400 C   0  0  2  0  0  3  0  0  0  0  0  0
  188.6560  176.6980  143.1530 C   0  0  0  0  0  0  0  0  0  0  0  0
  189.6930  176.4210  143.9560 C   0  0  0  0  0  3  0  0  0  0  0  0
  191.3320  176.7660  142.2560 C   0  0  0  0  0  3  0  0  0  0  0  0
  190.2930  176.9820  141.2900 N   0  0  0  0  0  0  0  0  0  0  0  0
  189.6460  177.2470  138.9090 C   0  0  0  0  0  3  0  0  0  0  0  0
  191.2730  176.9430  137.1480 C   0  0  0  0  0  3  0  0  0  0  0  0
  189.9690  177.2350  137.5500 C   0  0  0  0  0  0  0  0  0  0  0  0
  192.2540  176.6890  138.1050 C   0  0  0  0  0  3  0  0  0  0  0  0
  191.9310  176.7130  139.4630 C   0  0  0  0  0  3  0  0  0  0  0  0
  190.6210  176.9850  139.8880 C   0  0  0  0  0  0  0  0  0  0  0  0
  188.7010  177.4830  136.3040 S   0  0  0  0  0  0  0  0  0  0  0  0
  188.7670  175.8340  135.5100 C   0  0  2  0  0  0  0  0  0  0  0  0
  190.0340  175.7310  134.6540 C   0  0  0  0  0  2  0  0  0  0  0  0
  190.6340  173.4590  135.5530 N   0  0  0  0  0  0  0  0  0  0  0  0
  187.6450  175.6730  134.6930 O   0  0  0  0  0  1  0  0  0  0  0  0
  190.3220  174.2610  134.3490 C   0  0  0  0  0  2  0  0  0  0  0  0
  190.1350  174.0490  136.8090 C   0  0  0  0  0  2  0  0  0  0  0  0
  188.7830  174.7670  136.6430 C   0  0  2  0  0  3  0  0  0  0  0  0
  186.4260  174.3010  137.3730 C   0  0  0  0  0  3  0  0  0  0  0  0
  187.5820  173.8500  136.7120 C   0  0  0  0  0  0  0  0  0  0  0  0
  185.2870  172.2480  136.7810 C   0  0  0  0  0  3  0  0  0  0  0  0
  186.4300  171.8040  136.1090 C   0  0  0  0  0  3  0  0  0  0  0  0
  187.5680  172.6060  136.0680 C   0  0  0  0  0  3  0  0  0  0  0  0
  185.2810  173.5010  137.4090 C   0  0  0  0  0  3  0  0  0  0  0  0
  192.0680  173.1980  135.7770 C   0  0  2  0  0  3  0  0  0  0  0  0
  192.5830  171.8580  135.3020 C   0  0  0  0  0  0  0  0  0  0  0  0
  193.8800  171.7320  134.8000 O   0  0  0  0  0  0  0  0  0  0  0  0
  191.8260  170.8460  135.3080 O   0  0  0  0  0  1  0  0  0  0  0  0
  193.7620  173.8060  137.3720 O   0  0  0  0  0  1  0  0  0  0  0  0
  192.4230  173.4280  137.2440 C   0  0  0  0  0  2  0  0  0  0  0  0
  185.7920  178.0760  145.3920 N   0  0  0  0  0  0  0  0  0  0  0  0
  186.8410  177.5290  144.6750 C   0  0  0  0  0  0  0  0  0  0  0  0
  187.3120  176.6560  143.6480 N   0  0  0  0  0  2  0  0  0  0  0  0
  187.0960  178.4140  145.6540 N   0  0  0  0  0  0  0  0  0  0  0  0
  184.4260  178.1870  145.6910 N   0  0  0  0  0  2  0  0  0  0  0  0
  183.9360  179.4170  145.0690 C   0  0  0  0  0  2  0  0  0  0  0  0
  183.0390  179.1160  143.9440 C   0  0  0  0  0  0  0  0  0  0  0  0
  182.2920  178.8350  143.0380 C   0  0  0  0  0  0  0  0  0  0  0  0
  181.4210  178.4740  141.9990 N   0  0  0  0  0  2  0  0  0  0  0  0
  181.6050  178.8570  140.6520 N   0  0  0  0  0  0  0  0  0  0  0  0
  184.2000  177.2660  137.6790 C   0  0  0  0  0  0  0  0  0  0  0  0
  183.1490  176.5390  138.0730 C   0  0  0  0  0  3  0  0  0  0  0  0
  182.4990  176.7870  139.4140 C   0  0  0  0  0  2  0  0  0  0  0  0
  184.7940  176.9990  136.4870 F   0  0  0  0  0  0  0  0  0  0  0  0
  182.6010  178.2450  139.8230 C   0  0  0  0  0  0  0  0  0  0  0  0
  183.6530  178.9630  139.3950 C   0  0  0  0  0  3  0  0  0  0  0  0
  184.7500  178.3490  138.5710 C   0  0  0  0  0  2  0  0  0  0  0  0
  180.9050  180.0540  140.1640 C   0  0  0  0  0  2  0  0  0  0  0  0
  180.6650  179.9280  138.7720 O   0  0  0  0  0  0  0  0  0  0  0  0
  181.2040  182.1290  138.3280 O   0  0  0  0  0  0  0  0  0  0  0  0
  180.9000  180.9850  137.8850 C   0  0  0  0  0  0  0  0  0  0  0  0
  180.6150  181.8020  135.6100 C   0  0  0  0  0  2  0  0  0  0  0  0
  180.7610  180.7730  136.4350 C   0  0  0  0  0  0  0  0  0  0  0  0
  180.9200  179.4080  135.8530 C   0  0  0  0  0  1  0  0  0  0  0  0
  187.3910  178.5770  140.8900 C   0  0  0  0  0  1  0  0  0  0  0  0
  188.5590  178.5340  141.6470 O   0  0  0  0  0  0  0  0  0  0  0  0
  1  4  1  0  0  0  0
  2 58  1  1  0  0  0
  2  3  1  0  0  0  0
  3 35  1  0  0  0  0
  3  4  2  0  0  0  0
  5  1  2  0  0  0  0
  6  2  1  0  0  0  0
  6  5  1  0  0  0  0
  7 12  1  0  0  0  0
  8  9  1  0  0  0  0
  8 10  2  0  0  0  0
  9  7  2  0  0  0  0
 10 11  1  0  0  0  0
 11 12  2  0  0  0  0
 12  6  1  0  0  0  0
 13  9  1  0  0  0  0
 14 17  1  6  0  0  0
 14 13  1  0  0  0  0
 14 20  1  0  0  0  0
 15 14  1  0  0  0  0
 16 27  1  0  0  0  0
 16 19  1  0  0  0  0
 18 15  1  0  0  0  0
 18 16  1  0  0  0  0
 20 22  1  6  0  0  0
 20 19  1  0  0  0  0
 21 26  1  0  0  0  0
 22 21  2  0  0  0  0
 23 26  2  0  0  0  0
 24 23  1  0  0  0  0
 25 24  2  0  0  0  0
 25 22  1  0  0  0  0
 27 32  1  1  0  0  0
 28 30  1  0  0  0  0
 28 27  1  0  0  0  0
 29 28  2  0  0  0  0
 32 31  1  0  0  0  0
 33 36  1  0  0  0  0
 33 37  1  0  0  0  0
 34 33  1  0  0  0  0
 34 36  2  0  0  0  0
 35 34  1  0  0  0  0
 38 37  1  0  0  0  0
 39 38  1  0  0  0  0
 40 39  3  0  0  0  0
 41 40  1  0  0  0  0
 42 41  1  0  0  0  0
 43 44  2  0  0  0  0
 43 49  1  0  0  0  0
 44 45  1  0  0  0  0
 45 47  1  0  0  0  0
 46 43  1  0  0  0  0
 47 42  1  0  0  0  0
 48 47  2  0  0  0  0
 49 48  1  0  0  0  0
 50 42  1  0  0  0  0
 51 50  1  0  0  0  0
 53 52  2  0  0  0  0
 53 51  1  0  0  0  0
 54 55  2  0  0  0  0
 55 53  1  0  0  0  0
 56 55  1  0  0  0  0
 57 58  1  0  0  0  0
M  END
>  <MODEL>
2

>  <REMARK>
 VINA RESULT:      -6.1      2.850     10.137
  Name = 
  19 active torsions:
  status: ('A' for Active; 'I' for Inactive)
    1  A    between atoms: C_4  and  S_14
    2  A    between atoms: N_5  and  N_56
    3  A    between atoms: C_8  and  O_37
    4  A    between atoms: S_14  and  C_27
    5  A    between atoms: C_17  and  N_23
    6  A    between atoms: C_18  and  C_19
    7  A    between atoms: C_19  and  N_56
    8  A    between atoms: C_20  and  C_43
    9  A    between atoms: N_21  and  C_30
   10  A    between atoms: C_25  and  C_49
   11  A    between atoms: C_29  and  N_48
   12  A    between atoms: C_30  and  C_31
   13  A    between atoms: C_30  and  C_40
   14  A    between atoms: N_35  and  C_47
   15  A    between atoms: N_35  and  N_48
   16  A    between atoms: N_45  and  C_55
   17  A    between atoms: C_46  and  N_48
   18  A    between atoms: C_46  and  O_54
   19  A    between atoms: C_49  and  O_54
                            x       y       z     vdW  Elec       q    Type
                         _______ _______ _______ _____ _____    ______ ____

>  <TORSDO>
F 19

$$$$
=
 OpenBabel10232409403D

 58 63  0  0  1  0  0  0  0  0999 V2000
  191.2140  177.1940  144.0970 N   0  0  0  0  0  0  0  0  0  0  0  0
  189.2770  177.3050  142.0040 C   0  0  2  0  0  3  0  0  0  0  0  0
  188.8970  176.9710  143.4280 C   0  0  0  0  0  0  0  0  0  0  0  0
  189.8330  176.9530  144.3890 C   0  0  0  0  0  3  0  0  0  0  0  0
  191.6440  177.3340  142.8820 C   0  0  0  0  0  3  0  0  0  0  0  0
  190.7390  177.2710  141.7700 N   0  0  0  0  0  0  0  0  0  0  0  0
  190.4200  177.1300  139.3130 C   0  0  0  0  0  3  0  0  0  0  0  0
  192.3150  176.8780  137.8350 C   0  0  0  0  0  3  0  0  0  0  0  0
  190.9380  177.0020  138.0220 C   0  0  0  0  0  0  0  0  0  0  0  0
  193.1700  176.9060  138.9360 C   0  0  0  0  0  3  0  0  0  0  0  0
  192.6500  177.0460  140.2230 C   0  0  0  0  0  3  0  0  0  0  0  0
  191.2670  177.1530  140.4350 C   0  0  0  0  0  0  0  0  0  0  0  0
  189.8450  176.8850  136.6030 S   0  0  0  0  0  0  0  0  0  0  0  0
  190.7290  175.5730  135.6800 C   0  0  2  0  0  0  0  0  0  0  0  0
  192.1540  176.0420  135.3670 C   0  0  0  0  0  2  0  0  0  0  0  0
  193.1900  173.8730  136.1140 N   0  0  0  0  0  0  0  0  0  0  0  0
  190.0550  175.3200  134.4830 O   0  0  0  0  0  1  0  0  0  0  0  0
  193.0180  174.8340  135.0010 C   0  0  0  0  0  2  0  0  0  0  0  0
  192.1450  173.9670  137.1510 C   0  0  0  0  0  2  0  0  0  0  0  0
  190.7560  174.3020  136.5790 C   0  0  2  0  0  3  0  0  0  0  0  0
  188.6360  172.9690  136.3990 C   0  0  0  0  0  3  0  0  0  0  0  0
  189.9930  173.1040  136.0610 C   0  0  0  0  0  0  0  0  0  0  0  0
  188.4960  170.9670  135.0440 C   0  0  0  0  0  3  0  0  0  0  0  0
  189.8420  171.1080  134.6920 C   0  0  0  0  0  3  0  0  0  0  0  0
  190.5830  172.1760  135.1920 C   0  0  0  0  0  3  0  0  0  0  0  0
  187.8880  171.9020  135.8930 C   0  0  0  0  0  3  0  0  0  0  0  0
  194.4750  173.9700  136.8310 C   0  0  2  0  0  3  0  0  0  0  0  0
  195.7120  173.6480  136.0250 C   0  0  0  0  0  0  0  0  0  0  0  0
  195.7340  172.5510  135.1620 O   0  0  0  0  0  0  0  0  0  0  0  0
  196.7590  174.3430  136.1620 O   0  0  0  0  0  1  0  0  0  0  0  0
  195.6830  173.1070  138.7220 O   0  0  0  0  0  1  0  0  0  0  0  0
  194.4270  173.1400  138.1110 C   0  0  0  0  0  2  0  0  0  0  0  0
  185.6530  178.0050  145.3050 N   0  0  0  0  0  0  0  0  0  0  0  0
  186.8330  177.5810  144.7190 C   0  0  0  0  0  0  0  0  0  0  0  0
  187.5130  176.7850  143.7480 N   0  0  0  0  0  2  0  0  0  0  0  0
  186.8750  178.4600  145.7350 N   0  0  0  0  0  0  0  0  0  0  0  0
  184.2570  177.9750  145.4290 N   0  0  0  0  0  2  0  0  0  0  0  0
  183.7230  179.1120  144.6790 C   0  0  0  0  0  2  0  0  0  0  0  0
  183.7790  178.8600  143.2320 C   0  0  0  0  0  0  0  0  0  0  0  0
  183.8600  178.6340  142.0480 C   0  0  0  0  0  0  0  0  0  0  0  0
  183.9880  178.3580  140.6790 N   0  0  0  0  0  2  0  0  0  0  0  0
  182.9040  178.0080  139.8440 N   0  0  0  0  0  0  0  0  0  0  0  0
  180.4470  181.3260  138.8130 C   0  0  0  0  0  0  0  0  0  0  0  0
  180.4280  180.8760  140.0730 C   0  0  0  0  0  3  0  0  0  0  0  0
  180.8560  179.4630  140.3940 C   0  0  0  0  0  2  0  0  0  0  0  0
  180.0200  182.5860  138.5420 F   0  0  0  0  0  0  0  0  0  0  0  0
  181.9250  178.9710  139.4360 C   0  0  0  0  0  0  0  0  0  0  0  0
  181.9400  179.4550  138.1820 C   0  0  0  0  0  3  0  0  0  0  0  0
  180.8990  180.4250  137.6930 C   0  0  0  0  0  2  0  0  0  0  0  0
  182.6640  176.5840  139.5710 C   0  0  0  0  0  2  0  0  0  0  0  0
  183.5840  176.1260  138.5940 O   0  0  0  0  0  0  0  0  0  0  0  0
  182.2160  174.4620  137.7620 O   0  0  0  0  0  0  0  0  0  0  0  0
  183.3810  174.9310  137.8940 C   0  0  0  0  0  0  0  0  0  0  0  0
  184.8960  173.0260  137.8380 C   0  0  0  0  0  2  0  0  0  0  0  0
  184.5330  174.2010  137.3380 C   0  0  0  0  0  0  0  0  0  0  0  0
  185.2270  174.7020  136.1170 C   0  0  0  0  0  1  0  0  0  0  0  0
  187.6940  178.3430  140.8360 C   0  0  0  0  0  1  0  0  0  0  0  0
  188.7790  178.5740  141.6780 O   0  0  0  0  0  0  0  0  0  0  0  0
  1  4  1  0  0  0  0
  2 58  1  1  0  0  0
  2  3  1  0  0  0  0
  3 35  1  0  0  0  0
  3  4  2  0  0  0  0
  5  1  2  0  0  0  0
  6  2  1  0  0  0  0
  6  5  1  0  0  0  0
  7 12  1  0  0  0  0
  8  9  1  0  0  0  0
  8 10  2  0  0  0  0
  9  7  2  0  0  0  0
 10 11  1  0  0  0  0
 11 12  2  0  0  0  0
 12  6  1  0  0  0  0
 13  9  1  0  0  0  0
 14 17  1  6  0  0  0
 14 20  1  0  0  0  0
 14 13  1  0  0  0  0
 15 14  1  0  0  0  0
 16 27  1  0  0  0  0
 16 19  1  0  0  0  0
 18 15  1  0  0  0  0
 18 16  1  0  0  0  0
 20 22  1  6  0  0  0
 20 19  1  0  0  0  0
 22 21  1  0  0  0  0
 23 26  1  0  0  0  0
 24 23  2  0  0  0  0
 24 25  1  0  0  0  0
 25 22  2  0  0  0  0
 26 21  2  0  0  0  0
 27 32  1  1  0  0  0
 28 30  1  0  0  0  0
 28 27  1  0  0  0  0
 29 28  2  0  0  0  0
 32 31  1  0  0  0  0
 33 37  1  0  0  0  0
 33 36  1  0  0  0  0
 34 33  1  0  0  0  0
 34 36  2  0  0  0  0
 35 34  1  0  0  0  0
 38 37  1  0  0  0  0
 39 38  1  0  0  0  0
 40 39  3  0  0  0  0
 41 40  1  0  0  0  0
 42 41  1  0  0  0  0
 43 44  2  0  0  0  0
 44 45  1  0  0  0  0
 46 43  1  0  0  0  0
 47 42  1  0  0  0  0
 47 45  1  0  0  0  0
 48 47  2  0  0  0  0
 49 48  1  0  0  0  0
 49 43  1  0  0  0  0
 50 42  1  0  0  0  0
 51 50  1  0  0  0  0
 52 53  2  0  0  0  0
 53 51  1  0  0  0  0
 55 54  2  0  0  0  0
 55 53  1  0  0  0  0
 56 55  1  0  0  0  0
 57 58  1  0  0  0  0
M  END
>  <MODEL>
3

>  <REMARK>
 VINA RESULT:      -5.7      3.030      9.855
  Name = 
  19 active torsions:
  status: ('A' for Active; 'I' for Inactive)
    1  A    between atoms: C_4  and  S_14
    2  A    between atoms: N_5  and  N_56
    3  A    between atoms: C_8  and  O_37
    4  A    between atoms: S_14  and  C_27
    5  A    between atoms: C_17  and  N_23
    6  A    between atoms: C_18  and  C_19
    7  A    between atoms: C_19  and  N_56
    8  A    between atoms: C_20  and  C_43
    9  A    between atoms: N_21  and  C_30
   10  A    between atoms: C_25  and  C_49
   11  A    between atoms: C_29  and  N_48
   12  A    between atoms: C_30  and  C_31
   13  A    between atoms: C_30  and  C_40
   14  A    between atoms: N_35  and  C_47
   15  A    between atoms: N_35  and  N_48
   16  A    between atoms: N_45  and  C_55
   17  A    between atoms: C_46  and  N_48
   18  A    between atoms: C_46  and  O_54
   19  A    between atoms: C_49  and  O_54
                            x       y       z     vdW  Elec       q    Type
                         _______ _______ _______ _____ _____    ______ ____

>  <TORSDO>
F 19

$$$$
=
 OpenBabel10232409403D

 58 63  0  0  1  0  0  0  0  0999 V2000
  180.5770  176.2360  138.2230 N   0  0  0  0  0  0  0  0  0  0  0  0
  183.4190  176.4320  138.0410 C   0  0  2  0  0  3  0  0  0  0  0  0
  182.6380  175.3900  137.2730 C   0  0  0  0  0  0  0  0  0  0  0  0
  181.3010  175.3460  137.3660 C   0  0  0  0  0  3  0  0  0  0  0  0
  181.1800  177.0530  139.0300 C   0  0  0  0  0  3  0  0  0  0  0  0
  182.6130  177.1110  139.0820 N   0  0  0  0  0  0  0  0  0  0  0  0
  184.6500  177.9600  140.2170 C   0  0  0  0  0  3  0  0  0  0  0  0
  184.4880  179.1530  142.3130 C   0  0  0  0  0  3  0  0  0  0  0  0
  185.2640  178.6310  141.2770 C   0  0  0  0  0  0  0  0  0  0  0  0
  183.1010  179.0230  142.2730 C   0  0  0  0  0  3  0  0  0  0  0  0
  182.4890  178.3620  141.2070 C   0  0  0  0  0  3  0  0  0  0  0  0
  183.2520  177.8130  140.1650 C   0  0  0  0  0  0  0  0  0  0  0  0
  187.0530  178.7380  141.3810 S   0  0  0  0  0  0  0  0  0  0  0  0
  187.3270  177.5070  142.7090 C   0  0  2  0  0  0  0  0  0  0  0  0
  188.3820  176.4920  142.2550 C   0  0  0  0  0  2  0  0  0  0  0  0
  189.6500  176.6180  144.4250 N   0  0  0  0  0  0  0  0  0  0  0  0
  186.1270  176.8380  142.9670 O   0  0  0  0  0  1  0  0  0  0  0  0
  188.9260  175.7460  143.4730 C   0  0  0  0  0  2  0  0  0  0  0  0
  189.2970  178.0460  144.3120 C   0  0  0  0  0  2  0  0  0  0  0  0
  187.8140  178.2760  143.9710 C   0  0  2  0  0  3  0  0  0  0  0  0
  187.4170  177.8810  146.4180 C   0  0  0  0  0  3  0  0  0  0  0  0
  186.8900  178.2450  145.1680 C   0  0  0  0  0  0  0  0  0  0  0  0
  185.2580  178.2720  147.4430 C   0  0  0  0  0  3  0  0  0  0  0  0
  184.7350  178.6510  146.2030 C   0  0  0  0  0  3  0  0  0  0  0  0
  185.5500  178.6450  145.0740 C   0  0  0  0  0  3  0  0  0  0  0  0
  186.6030  177.8930  147.5550 C   0  0  0  0  0  3  0  0  0  0  0  0
  191.1200  176.5620  144.3310 C   0  0  2  0  0  3  0  0  0  0  0  0
  191.8650  176.4190  145.6390 C   0  0  0  0  0  0  0  0  0  0  0  0
  192.4270  175.1950  146.0090 O   0  0  0  0  0  0  0  0  0  0  0  0
  191.9450  177.3960  146.4370 O   0  0  0  0  0  1  0  0  0  0  0  0
  191.7520  177.4280  142.1790 O   0  0  0  0  0  1  0  0  0  0  0  0
  191.6440  177.7530  143.5340 C   0  0  0  0  0  2  0  0  0  0  0  0
  184.6210  172.1400  136.4860 N   0  0  0  0  0  0  0  0  0  0  0  0
  184.0040  173.3400  136.7920 C   0  0  0  0  0  0  0  0  0  0  0  0
  183.3410  174.5320  136.3670 N   0  0  0  0  0  2  0  0  0  0  0  0
  184.4910  172.5720  137.7820 N   0  0  0  0  0  0  0  0  0  0  0  0
  185.0900  171.1940  135.5630 N   0  0  0  0  0  2  0  0  0  0  0  0
  185.4700  171.9130  134.3480 C   0  0  0  0  0  2  0  0  0  0  0  0
  186.8990  172.2580  134.3650 C   0  0  0  0  0  0  0  0  0  0  0  0
  188.0720  172.5380  134.4190 C   0  0  0  0  0  0  0  0  0  0  0  0
  189.4320  172.8660  134.5180 N   0  0  0  0  0  2  0  0  0  0  0  0
  189.9170  174.0090  135.1920 N   0  0  0  0  0  0  0  0  0  0  0  0
  194.1660  174.1810  135.3410 C   0  0  0  0  0  0  0  0  0  0  0  0
  193.5310  173.2680  136.0850 C   0  0  0  0  0  3  0  0  0  0  0  0
  192.0820  173.4580  136.4670 C   0  0  0  0  0  2  0  0  0  0  0  0
  195.4800  174.0100  135.0440 F   0  0  0  0  0  0  0  0  0  0  0  0
  191.3190  174.2230  135.4010 C   0  0  0  0  0  0  0  0  0  0  0  0
  191.9820  175.1170  134.6500 C   0  0  0  0  0  3  0  0  0  0  0  0
  193.4400  175.4140  134.8710 C   0  0  0  0  0  2  0  0  0  0  0  0
  188.9510  174.8790  135.8760 C   0  0  0  0  0  2  0  0  0  0  0  0
  189.5120  175.3490  137.0910 O   0  0  0  0  0  0  0  0  0  0  0  0
  189.6870  177.5300  136.3540 O   0  0  0  0  0  0  0  0  0  0  0  0
  189.9590  176.6670  137.2360 C   0  0  0  0  0  0  0  0  0  0  0  0
  190.2580  177.7650  139.3880 C   0  0  0  0  0  2  0  0  0  0  0  0
  190.7760  177.0430  138.4020 C   0  0  0  0  0  0  0  0  0  0  0  0
  192.1580  176.5030  138.5610 C   0  0  0  0  0  1  0  0  0  0  0  0
  185.1940  176.9310  136.7980 C   0  0  0  0  0  1  0  0  0  0  0  0
  183.9240  177.3850  137.1460 O   0  0  0  0  0  0  0  0  0  0  0  0
  1  5  2  0  0  0  0
  2 58  1  6  0  0  0
  2  6  1  0  0  0  0
  3  4  2  0  0  0  0
  3  2  1  0  0  0  0
  4  1  1  0  0  0  0
  5  6  1  0  0  0  0
  6 12  1  0  0  0  0
  7  9  1  0  0  0  0
  9 13  1  0  0  0  0
  9  8  2  0  0  0  0
 10  8  1  0  0  0  0
 11 10  2  0  0  0  0
 12  7  2  0  0  0  0
 12 11  1  0  0  0  0
 13 14  1  0  0  0  0
 14 17  1  1  0  0  0
 14 20  1  0  0  0  0
 15 14  1  0  0  0  0
 15 18  1  0  0  0  0
 18 16  1  0  0  0  0
 19 16  1  0  0  0  0
 20 19  1  0  0  0  0
 20 22  1  1  0  0  0
 21 26  1  0  0  0  0
 22 21  2  0  0  0  0
 23 26  2  0  0  0  0
 24 23  1  0  0  0  0
 25 22  1  0  0  0  0
 25 24  2  0  0  0  0
 27 32  1  1  0  0  0
 27 16  1  0  0  0  0
 27 28  1  0  0  0  0
 28 29  2  0  0  0  0
 28 30  1  0  0  0  0
 31 32  1  0  0  0  0
 33 34  1  0  0  0  0
 33 36  1  0  0  0  0
 34 36  2  0  0  0  0
 35 34  1  0  0  0  0
 35  3  1  0  0  0  0
 37 33  1  0  0  0  0
 38 39  1  0  0  0  0
 38 37  1  0  0  0  0
 39 40  3  0  0  0  0
 40 41  1  0  0  0  0
 41 42  1  0  0  0  0
 42 47  1  0  0  0  0
 42 50  1  0  0  0  0
 43 44  2  0  0  0  0
 44 45  1  0  0  0  0
 46 43  1  0  0  0  0
 47 45  1  0  0  0  0
 48 49  1  0  0  0  0
 48 47  2  0  0  0  0
 49 43  1  0  0  0  0
 50 51  1  0  0  0  0
 51 53  1  0  0  0  0
 52 53  2  0  0  0  0
 53 55  1  0  0  0  0
 55 56  1  0  0  0  0
 55 54  2  0  0  0  0
 57 58  1  0  0  0  0
M  END
>  <MODEL>
4

>  <REMARK>
 VINA RESULT:      -5.3      2.010      3.273
  Name = 
  19 active torsions:
  status: ('A' for Active; 'I' for Inactive)
    1  A    between atoms: C_4  and  S_14
    2  A    between atoms: N_5  and  N_56
    3  A    between atoms: C_8  and  O_37
    4  A    between atoms: S_14  and  C_27
    5  A    between atoms: C_17  and  N_23
    6  A    between atoms: C_18  and  C_19
    7  A    between atoms: C_19  and  N_56
    8  A    between atoms: C_20  and  C_43
    9  A    between atoms: N_21  and  C_30
   10  A    between atoms: C_25  and  C_49
   11  A    between atoms: C_29  and  N_48
   12  A    between atoms: C_30  and  C_31
   13  A    between atoms: C_30  and  C_40
   14  A    between atoms: N_35  and  C_47
   15  A    between atoms: N_35  and  N_48
   16  A    between atoms: N_45  and  C_55
   17  A    between atoms: C_46  and  N_48
   18  A    between atoms: C_46  and  O_54
   19  A    between atoms: C_49  and  O_54
                            x       y       z     vdW  Elec       q    Type
                         _______ _______ _______ _____ _____    ______ ____

>  <TORSDO>
F 19

$$$$
=
 OpenBabel10232409403D

 58 63  0  0  1  0  0  0  0  0999 V2000
  184.6670  179.8880  139.6300 N   0  0  0  0  0  0  0  0  0  0  0  0
  183.7260  177.5120  140.9000 C   0  0  2  0  0  3  0  0  0  0  0  0
  185.0040  178.1950  141.3290 C   0  0  0  0  0  0  0  0  0  0  0  0
  185.4000  179.3240  140.7240 C   0  0  0  0  0  3  0  0  0  0  0  0
  183.6510  179.2820  139.1020 C   0  0  0  0  0  3  0  0  0  0  0  0
  183.2020  178.0170  139.6100 N   0  0  0  0  0  0  0  0  0  0  0  0
  182.6550  176.5430  137.6910 C   0  0  0  0  0  3  0  0  0  0  0  0
  180.3930  175.7670  137.3370 C   0  0  0  0  0  3  0  0  0  0  0  0
  181.7320  175.8050  136.9460 C   0  0  0  0  0  0  0  0  0  0  0  0
  179.9860  176.4480  138.4830 C   0  0  0  0  0  3  0  0  0  0  0  0
  180.9120  177.1760  139.2320 C   0  0  0  0  0  3  0  0  0  0  0  0
  182.2600  177.2420  138.8450 C   0  0  0  0  0  0  0  0  0  0  0  0
  182.2260  174.9880  135.4250 S   0  0  0  0  0  0  0  0  0  0  0  0
  183.0860  173.5450  136.1520 C   0  0  2  0  0  0  0  0  0  0  0  0
  182.1030  172.3770  136.2810 C   0  0  0  0  0  2  0  0  0  0  0  0
  183.7180  170.7160  135.2980 N   0  0  0  0  0  0  0  0  0  0  0  0
  183.5630  173.8870  137.4200 O   0  0  0  0  0  1  0  0  0  0  0  0
  182.8820  171.0740  136.4660 C   0  0  0  0  0  2  0  0  0  0  0  0
  184.0450  171.8590  134.4250 C   0  0  0  0  0  2  0  0  0  0  0  0
  184.2610  173.1700  135.2020 C   0  0  2  0  0  3  0  0  0  0  0  0
  186.1440  174.6300  135.9920 C   0  0  0  0  0  3  0  0  0  0  0  0
  185.6540  173.3330  135.7690 C   0  0  0  0  0  0  0  0  0  0  0  0
  188.1800  173.7010  136.9180 C   0  0  0  0  0  3  0  0  0  0  0  0
  187.6880  172.4090  136.7130 C   0  0  0  0  0  3  0  0  0  0  0  0
  186.4270  172.2270  136.1490 C   0  0  0  0  0  3  0  0  0  0  0  0
  187.4060  174.8150  136.5650 C   0  0  0  0  0  3  0  0  0  0  0  0
  183.1450  169.6870  134.4110 C   0  0  2  0  0  3  0  0  0  0  0  0
  181.6890  169.3490  134.6380 C   0  0  0  0  0  0  0  0  0  0  0  0
  181.2990  168.0400  134.9290 O   0  0  0  0  0  1  0  0  0  0  0  0
  180.8020  170.2400  134.5170 O   0  0  0  0  0  0  0  0  0  0  0  0
  184.5710  168.2470  135.7050 O   0  0  0  0  0  1  0  0  0  0  0  0
  184.0070  168.4270  134.4400 C   0  0  0  0  0  2  0  0  0  0  0  0
  185.7640  178.1000  145.1400 N   0  0  0  0  0  0  0  0  0  0  0  0
  185.5630  178.2080  143.7760 C   0  0  0  0  0  0  0  0  0  0  0  0
  185.7170  177.6780  142.4590 N   0  0  0  0  0  2  0  0  0  0  0  0
  185.1220  179.1820  144.5910 N   0  0  0  0  0  0  0  0  0  0  0  0
  186.2760  177.4340  146.2630 N   0  0  0  0  0  2  0  0  0  0  0  0
  187.4580  178.1710  146.7120 C   0  0  0  0  0  2  0  0  0  0  0  0
  188.4760  178.2290  145.6530 C   0  0  0  0  0  0  0  0  0  0  0  0
  189.3400  178.2730  144.8110 C   0  0  0  0  0  0  0  0  0  0  0  0
  190.3700  178.3260  143.8600 N   0  0  0  0  0  2  0  0  0  0  0  0
  190.6550  177.2810  142.9530 N   0  0  0  0  0  0  0  0  0  0  0  0
  189.5170  177.9170  138.9020 C   0  0  0  0  0  0  0  0  0  0  0  0
  188.7580  178.4350  139.8740 C   0  0  0  0  0  3  0  0  0  0  0  0
  188.7970  177.8630  141.2710 C   0  0  0  0  0  2  0  0  0  0  0  0
  189.4360  178.4210  137.6440 F   0  0  0  0  0  0  0  0  0  0  0  0
  190.1660  177.2980  141.6060 C   0  0  0  0  0  0  0  0  0  0  0  0
  190.9210  176.8050  140.6100 C   0  0  0  0  0  3  0  0  0  0  0  0
  190.4260  176.7500  139.1910 C   0  0  0  0  0  2  0  0  0  0  0  0
  191.2820  176.0570  143.4710 C   0  0  0  0  0  2  0  0  0  0  0  0
  190.9790  175.9160  144.8490 O   0  0  0  0  0  0  0  0  0  0  0  0
  192.7310  174.5170  145.4030 O   0  0  0  0  0  0  0  0  0  0  0  0
  191.9140  175.4120  145.7610 C   0  0  0  0  0  0  0  0  0  0  0  0
  192.9240  175.6010  147.9680 C   0  0  0  0  0  2  0  0  0  0  0  0
  191.9220  175.8990  147.1510 C   0  0  0  0  0  0  0  0  0  0  0  0
  190.8730  176.8500  147.6230 C   0  0  0  0  0  1  0  0  0  0  0  0
  182.4740  179.0420  141.9190 C   0  0  0  0  0  1  0  0  0  0  0  0
  182.7550  177.6780  141.8970 O   0  0  0  0  0  0  0  0  0  0  0  0
  1  4  1  0  0  0  0
  2  3  1  0  0  0  0
  2 58  1  1  0  0  0
  3 35  1  0  0  0  0
  4  3  2  0  0  0  0
  5  6  1  0  0  0  0
  5  1  2  0  0  0  0
  6  2  1  0  0  0  0
  7 12  1  0  0  0  0
  8 10  2  0  0  0  0
  9  8  1  0  0  0  0
  9  7  2  0  0  0  0
 10 11  1  0  0  0  0
 12 11  2  0  0  0  0
 12  6  1  0  0  0  0
 13 14  1  0  0  0  0
 13  9  1  0  0  0  0
 14 15  1  0  0  0  0
 14 17  1  1  0  0  0
 15 18  1  0  0  0  0
 16 18  1  0  0  0  0
 19 20  1  0  0  0  0
 19 16  1  0  0  0  0
 20 22  1  1  0  0  0
 20 14  1  0  0  0  0
 21 26  1  0  0  0  0
 22 21  2  0  0  0  0
 22 25  1  0  0  0  0
 24 23  1  0  0  0  0
 25 24  2  0  0  0  0
 26 23  2  0  0  0  0
 27 32  1  1  0  0  0
 27 28  1  0  0  0  0
 27 16  1  0  0  0  0
 28 29  1  0  0  0  0
 30 28  2  0  0  0  0
 32 31  1  0  0  0  0
 33 37  1  0  0  0  0
 34 36  2  0  0  0  0
 34 33  1  0  0  0  0
 35 34  1  0  0  0  0
 36 33  1  0  0  0  0
 37 38  1  0  0  0  0
 39 38  1  0  0  0  0
 40 39  3  0  0  0  0
 41 40  1  0  0  0  0
 42 50  1  0  0  0  0
 42 41  1  0  0  0  0
 43 49  1  0  0  0  0
 43 44  2  0  0  0  0
 44 45  1  0  0  0  0
 45 47  1  0  0  0  0
 46 43  1  0  0  0  0
 47 42  1  0  0  0  0
 48 47  2  0  0  0  0
 49 48  1  0  0  0  0
 50 51  1  0  0  0  0
 51 53  1  0  0  0  0
 52 53  2  0  0  0  0
 53 55  1  0  0  0  0
 55 56  1  0  0  0  0
 55 54  2  0  0  0  0
 58 57  1  0  0  0  0
M  END
>  <MODEL>
5

>  <REMARK>
 VINA RESULT:      -5.1      3.427      9.257
  Name = 
  19 active torsions:
  status: ('A' for Active; 'I' for Inactive)
    1  A    between atoms: C_4  and  S_14
    2  A    between atoms: N_5  and  N_56
    3  A    between atoms: C_8  and  O_37
    4  A    between atoms: S_14  and  C_27
    5  A    between atoms: C_17  and  N_23
    6  A    between atoms: C_18  and  C_19
    7  A    between atoms: C_19  and  N_56
    8  A    between atoms: C_20  and  C_43
    9  A    between atoms: N_21  and  C_30
   10  A    between atoms: C_25  and  C_49
   11  A    between atoms: C_29  and  N_48
   12  A    between atoms: C_30  and  C_31
   13  A    between atoms: C_30  and  C_40
   14  A    between atoms: N_35  and  C_47
   15  A    between atoms: N_35  and  N_48
   16  A    between atoms: N_45  and  C_55
   17  A    between atoms: C_46  and  N_48
   18  A    between atoms: C_46  and  O_54
   19  A    between atoms: C_49  and  O_54
                            x       y       z     vdW  Elec       q    Type
                         _______ _______ _______ _____ _____    ______ ____

>  <TORSDO>
F 19

$$$$
=
 OpenBabel10232409403D

 58 63  0  0  1  0  0  0  0  0999 V2000
  190.2470  177.1800  147.3640 N   0  0  0  0  0  0  0  0  0  0  0  0
  189.2420  177.0290  144.6970 C   0  0  2  0  0  3  0  0  0  0  0  0
  190.7210  176.9500  145.0010 C   0  0  0  0  0  0  0  0  0  0  0  0
  191.1520  177.0000  146.2690 C   0  0  0  0  0  3  0  0  0  0  0  0
  188.9850  177.4120  147.1790 C   0  0  0  0  0  3  0  0  0  0  0  0
  188.4360  177.4780  145.8550 N   0  0  0  0  0  0  0  0  0  0  0  0
  186.7510  178.6850  144.4910 C   0  0  0  0  0  3  0  0  0  0  0  0
  184.5180  179.0600  145.3350 C   0  0  0  0  0  3  0  0  0  0  0  0
  185.4650  179.2030  144.3200 C   0  0  0  0  0  0  0  0  0  0  0  0
  184.8520  178.3800  146.5050 C   0  0  0  0  0  3  0  0  0  0  0  0
  186.1350  177.8530  146.6670 C   0  0  0  0  0  3  0  0  0  0  0  0
  187.1080  178.0030  145.6670 C   0  0  0  0  0  0  0  0  0  0  0  0
  185.0440  180.1490  142.8540 S   0  0  0  0  0  0  0  0  0  0  0  0
  184.6370  178.7580  141.7350 C   0  0  2  0  0  0  0  0  0  0  0  0
  183.1840  178.3290  141.9630 C   0  0  0  0  0  2  0  0  0  0  0  0
  182.6650  178.2520  139.5020 N   0  0  0  0  0  0  0  0  0  0  0  0
  185.4840  177.6830  142.0140 O   0  0  0  0  0  1  0  0  0  0  0  0
  182.7080  177.4950  140.7730 C   0  0  0  0  0  2  0  0  0  0  0  0
  183.5270  179.4490  139.4910 C   0  0  0  0  0  2  0  0  0  0  0  0
  184.8380  179.2560  140.2730 C   0  0  2  0  0  3  0  0  0  0  0  0
  187.1940  178.4100  140.0890 C   0  0  0  0  0  3  0  0  0  0  0  0
  185.9370  178.5800  139.4850 C   0  0  0  0  0  0  0  0  0  0  0  0
  187.9810  177.2390  138.1200 C   0  0  0  0  0  3  0  0  0  0  0  0
  186.7260  177.3910  137.5240 C   0  0  0  0  0  3  0  0  0  0  0  0
  185.7070  178.0510  138.2080 C   0  0  0  0  0  3  0  0  0  0  0  0
  188.2160  177.7410  139.4070 C   0  0  0  0  0  3  0  0  0  0  0  0
  181.3260  178.7200  139.0970 C   0  0  2  0  0  3  0  0  0  0  0  0
  180.9800  178.5600  137.6350 C   0  0  0  0  0  0  0  0  0  0  0  0
  180.7390  177.2950  137.0950 O   0  0  0  0  0  1  0  0  0  0  0  0
  180.9530  179.5670  136.8720 O   0  0  0  0  0  0  0  0  0  0  0  0
  180.2930  180.2020  140.6840 O   0  0  0  0  0  1  0  0  0  0  0  0
  181.1120  180.1610  139.5530 C   0  0  0  0  0  2  0  0  0  0  0  0
  191.8760  177.4510  141.3220 N   0  0  0  0  0  0  0  0  0  0  0  0
  191.4080  177.1940  142.5990 C   0  0  0  0  0  0  0  0  0  0  0  0
  191.6340  176.7100  143.9230 N   0  0  0  0  0  2  0  0  0  0  0  0
  190.5810  177.7270  141.6830 N   0  0  0  0  0  0  0  0  0  0  0  0
  192.8840  177.4180  140.3480 N   0  0  0  0  0  2  0  0  0  0  0  0
  192.2330  177.2930  139.0440 C   0  0  0  0  0  2  0  0  0  0  0  0
  193.0730  176.5330  138.1070 C   0  0  0  0  0  0  0  0  0  0  0  0
  193.7950  175.9220  137.3560 C   0  0  0  0  0  0  0  0  0  0  0  0
  194.6630  175.2300  136.4990 N   0  0  0  0  0  2  0  0  0  0  0  0
  194.3250  174.0250  135.8440 N   0  0  0  0  0  0  0  0  0  0  0  0
  190.2690  173.4030  134.7180 C   0  0  0  0  0  0  0  0  0  0  0  0
  191.0390  172.3380  134.9690 C   0  0  0  0  0  3  0  0  0  0  0  0
  192.5440  172.4380  134.8820 C   0  0  0  0  0  2  0  0  0  0  0  0
  188.9170  173.2800  134.7620 F   0  0  0  0  0  0  0  0  0  0  0  0
  193.0350  173.8250  135.2540 C   0  0  0  0  0  0  0  0  0  0  0  0
  192.2340  174.8770  135.0160 C   0  0  0  0  0  3  0  0  0  0  0  0
  190.8960  174.7210  134.3480 C   0  0  0  0  0  2  0  0  0  0  0  0
  195.2410  172.8830  135.9650 C   0  0  0  0  0  2  0  0  0  0  0  0
  194.7030  171.9360  136.8720 O   0  0  0  0  0  0  0  0  0  0  0  0
  196.7050  171.1880  137.7470 O   0  0  0  0  0  0  0  0  0  0  0  0
  195.4970  170.9470  137.4640 C   0  0  0  0  0  0  0  0  0  0  0  0
  195.3340  168.9010  138.7740 C   0  0  0  0  0  2  0  0  0  0  0  0
  194.9350  169.6110  137.7260 C   0  0  0  0  0  0  0  0  0  0  0  0
  193.8080  169.0900  136.8980 C   0  0  0  0  0  1  0  0  0  0  0  0
  188.2800  175.9790  142.9900 C   0  0  0  0  0  1  0  0  0  0  0  0
  188.7900  175.7740  144.2690 O   0  0  0  0  0  0  0  0  0  0  0  0
  2 58  1  1  0  0  0
  2  3  1  0  0  0  0
  2  6  1  0  0  0  0
  3  4  2  0  0  0  0
  4  1  1  0  0  0  0
  5  1  2  0  0  0  0
  6  5  1  0  0  0  0
  7 12  1  0  0  0  0
  8 10  2  0  0  0  0
  9  7  2  0  0  0  0
  9  8  1  0  0  0  0
 10 11  1  0  0  0  0
 12  6  1  0  0  0  0
 12 11  2  0  0  0  0
 13  9  1  0  0  0  0
 14 15  1  0  0  0  0
 14 17  1  1  0  0  0
 14 13  1  0  0  0  0
 16 18  1  0  0  0  0
 18 15  1  0  0  0  0
 19 16  1  0  0  0  0
 19 20  1  0  0  0  0
 20 22  1  6  0  0  0
 20 14  1  0  0  0  0
 22 21  1  0  0  0  0
 23 26  1  0  0  0  0
 24 23  2  0  0  0  0
 24 25  1  0  0  0  0
 25 22  2  0  0  0  0
 26 21  2  0  0  0  0
 27 16  1  0  0  0  0
 27 32  1  6  0  0  0
 28 27  1  0  0  0  0
 29 28  1  0  0  0  0
 30 28  2  0  0  0  0
 32 31  1  0  0  0  0
 33 36  1  0  0  0  0
 33 34  1  0  0  0  0
 34 35  1  0  0  0  0
 35  3  1  0  0  0  0
 36 34  2  0  0  0  0
 37 33  1  0  0  0  0
 38 37  1  0  0  0  0
 39 38  1  0  0  0  0
 40 39  3  0  0  0  0
 41 40  1  0  0  0  0
 42 50  1  0  0  0  0
 42 41  1  0  0  0  0
 43 46  1  0  0  0  0
 43 44  2  0  0  0  0
 45 44  1  0  0  0  0
 45 47  1  0  0  0  0
 47 42  1  0  0  0  0
 48 47  2  0  0  0  0
 49 43  1  0  0  0  0
 49 48  1  0  0  0  0
 50 51  1  0  0  0  0
 51 53  1  0  0  0  0
 53 55  1  0  0  0  0
 53 52  2  0  0  0  0
 55 54  2  0  0  0  0
 56 55  1  0  0  0  0
 57 58  1  0  0  0  0
M  END
>  <MODEL>
6

>  <REMARK>
 VINA RESULT:      -4.7      2.932      7.858
  Name = 
  19 active torsions:
  status: ('A' for Active; 'I' for Inactive)
    1  A    between atoms: C_4  and  S_14
    2  A    between atoms: N_5  and  N_56
    3  A    between atoms: C_8  and  O_37
    4  A    between atoms: S_14  and  C_27
    5  A    between atoms: C_17  and  N_23
    6  A    between atoms: C_18  and  C_19
    7  A    between atoms: C_19  and  N_56
    8  A    between atoms: C_20  and  C_43
    9  A    between atoms: N_21  and  C_30
   10  A    between atoms: C_25  and  C_49
   11  A    between atoms: C_29  and  N_48
   12  A    between atoms: C_30  and  C_31
   13  A    between atoms: C_30  and  C_40
   14  A    between atoms: N_35  and  C_47
   15  A    between atoms: N_35  and  N_48
   16  A    between atoms: N_45  and  C_55
   17  A    between atoms: C_46  and  N_48
   18  A    between atoms: C_46  and  O_54
   19  A    between atoms: C_49  and  O_54
                            x       y       z     vdW  Elec       q    Type
                         _______ _______ _______ _____ _____    ______ ____

>  <TORSDO>
F 19

$$$$
=
 OpenBabel10232409403D

 58 63  0  0  1  0  0  0  0  0999 V2000
  180.6470  176.2430  138.1140 N   0  0  0  0  0  0  0  0  0  0  0  0
  183.4830  176.5280  137.9720 C   0  0  2  0  0  3  0  0  0  0  0  0
  182.7490  175.4450  137.2140 C   0  0  0  0  0  0  0  0  0  0  0  0
  181.4130  175.3590  137.2870 C   0  0  0  0  0  3  0  0  0  0  0  0
  181.2100  177.0950  138.9120 C   0  0  0  0  0  3  0  0  0  0  0  0
  182.6390  177.2010  138.9860 N   0  0  0  0  0  0  0  0  0  0  0  0
  184.6330  178.0920  140.1640 C   0  0  0  0  0  3  0  0  0  0  0  0
  184.3930  179.3710  142.2010 C   0  0  0  0  0  3  0  0  0  0  0  0
  185.2070  178.8050  141.2190 C   0  0  0  0  0  0  0  0  0  0  0  0
  183.0080  179.2430  142.1120 C   0  0  0  0  0  3  0  0  0  0  0  0
  182.4360  178.5390  141.0500 C   0  0  0  0  0  3  0  0  0  0  0  0
  183.2380  177.9460  140.0630 C   0  0  0  0  0  0  0  0  0  0  0  0
  186.9910  178.9110  141.3900 S   0  0  0  0  0  0  0  0  0  0  0  0
  187.2250  177.6140  142.6610 C   0  0  2  0  0  0  0  0  0  0  0  0
  188.2690  176.6040  142.1730 C   0  0  0  0  0  2  0  0  0  0  0  0
  189.5090  176.6050  144.3630 N   0  0  0  0  0  0  0  0  0  0  0  0
  186.0110  176.9550  142.8720 O   0  0  0  0  0  1  0  0  0  0  0  0
  188.7840  175.7910  143.3620 C   0  0  0  0  0  2  0  0  0  0  0  0
  189.1820  178.0420  144.3140 C   0  0  0  0  0  2  0  0  0  0  0  0
  187.7080  178.3150  143.9650 C   0  0  2  0  0  3  0  0  0  0  0  0
  187.2840  177.8730  146.4000 C   0  0  0  0  0  3  0  0  0  0  0  0
  186.7670  178.2430  145.1470 C   0  0  0  0  0  0  0  0  0  0  0  0
  185.1010  178.1970  147.3960 C   0  0  0  0  0  3  0  0  0  0  0  0
  184.5870  178.5820  146.1540 C   0  0  0  0  0  3  0  0  0  0  0  0
  185.4190  178.6120  145.0380 C   0  0  0  0  0  3  0  0  0  0  0  0
  186.4530  177.8490  147.5230 C   0  0  0  0  0  3  0  0  0  0  0  0
  190.9790  176.5270  144.2870 C   0  0  2  0  0  3  0  0  0  0  0  0
  191.6910  176.1140  145.5550 C   0  0  0  0  0  0  0  0  0  0  0  0
  192.0110  177.0600  146.5310 O   0  0  0  0  0  1  0  0  0  0  0  0
  192.0470  174.9140  145.7240 O   0  0  0  0  0  0  0  0  0  0  0  0
  191.8750  177.7050  142.3920 O   0  0  0  0  0  1  0  0  0  0  0  0
  191.5490  177.8350  143.7440 C   0  0  0  0  0  2  0  0  0  0  0  0
  184.5370  172.0860  136.4180 N   0  0  0  0  0  0  0  0  0  0  0  0
  183.9880  173.3140  136.7420 C   0  0  0  0  0  0  0  0  0  0  0  0
  183.4930  174.5910  136.3370 N   0  0  0  0  0  2  0  0  0  0  0  0
  184.2680  172.4330  137.7180 N   0  0  0  0  0  0  0  0  0  0  0  0
  185.0460  171.1690  135.4870 N   0  0  0  0  0  2  0  0  0  0  0  0
  186.0800  171.8540  134.7120 C   0  0  0  0  0  2  0  0  0  0  0  0
  187.0830  172.4640  135.5960 C   0  0  0  0  0  0  0  0  0  0  0  0
  187.9040  173.0000  136.3020 C   0  0  0  0  0  0  0  0  0  0  0  0
  188.8590  173.6500  137.0980 N   0  0  0  0  0  2  0  0  0  0  0  0
  190.1500  174.0010  136.6460 N   0  0  0  0  0  0  0  0  0  0  0  0
  192.9250  176.7100  138.3970 C   0  0  0  0  0  0  0  0  0  0  0  0
  193.3730  175.5360  137.9370 C   0  0  0  0  0  3  0  0  0  0  0  0
  192.4340  174.3640  137.7730 C   0  0  0  0  0  2  0  0  0  0  0  0
  193.7950  177.7380  138.5750 F   0  0  0  0  0  0  0  0  0  0  0  0
  191.0270  174.8190  137.4310 C   0  0  0  0  0  0  0  0  0  0  0  0
  190.6070  176.0130  137.8830 C   0  0  0  0  0  3  0  0  0  0  0  0
  191.4720  176.8800  138.7560 C   0  0  0  0  0  2  0  0  0  0  0  0
  190.5100  173.6980  135.2540 C   0  0  0  0  0  2  0  0  0  0  0  0
  191.8750  173.3220  135.1870 O   0  0  0  0  0  0  0  0  0  0  0  0
  191.4410  171.1340  134.5880 O   0  0  0  0  0  0  0  0  0  0  0  0
  192.2650  171.9870  135.0230 C   0  0  0  0  0  0  0  0  0  0  0  0
  193.8470  170.8580  136.4900 C   0  0  0  0  0  2  0  0  0  0  0  0
  193.6290  171.5690  135.3900 C   0  0  0  0  0  0  0  0  0  0  0  0
  194.7700  171.8190  134.4630 C   0  0  0  0  0  1  0  0  0  0  0  0
  185.3560  177.3250  137.0750 C   0  0  0  0  0  1  0  0  0  0  0  0
  183.9720  177.4780  137.0640 O   0  0  0  0  0  0  0  0  0  0  0  0
  1  5  2  0  0  0  0
  2 58  1  6  0  0  0
  2  6  1  0  0  0  0
  3  4  2  0  0  0  0
  3  2  1  0  0  0  0
  4  1  1  0  0  0  0
  5  6  1  0  0  0  0
  6 12  1  0  0  0  0
  7  9  1  0  0  0  0
  9 13  1  0  0  0  0
  9  8  2  0  0  0  0
 10  8  1  0  0  0  0
 11 10  2  0  0  0  0
 12  7  2  0  0  0  0
 12 11  1  0  0  0  0
 13 14  1  0  0  0  0
 14 17  1  1  0  0  0
 14 20  1  0  0  0  0
 15 14  1  0  0  0  0
 15 18  1  0  0  0  0
 18 16  1  0  0  0  0
 19 16  1  0  0  0  0
 20 19  1  0  0  0  0
 20 22  1  1  0  0  0
 21 26  1  0  0  0  0
 22 21  2  0  0  0  0
 23 26  2  0  0  0  0
 24 23  1  0  0  0  0
 25 22  1  0  0  0  0
 25 24  2  0  0  0  0
 27 32  1  1  0  0  0
 27 16  1  0  0  0  0
 27 28  1  0  0  0  0
 28 30  2  0  0  0  0
 28 29  1  0  0  0  0
 31 32  1  0  0  0  0
 33 34  1  0  0  0  0
 33 36  1  0  0  0  0
 34 36  2  0  0  0  0
 35 34  1  0  0  0  0
 35  3  1  0  0  0  0
 37 33  1  0  0  0  0
 38 37  1  0  0  0  0
 38 39  1  0  0  0  0
 39 40  3  0  0  0  0
 40 41  1  0  0  0  0
 42 41  1  0  0  0  0
 42 47  1  0  0  0  0
 43 46  1  0  0  0  0
 43 49  1  0  0  0  0
 44 43  2  0  0  0  0
 45 44  1  0  0  0  0
 47 45  1  0  0  0  0
 47 48  2  0  0  0  0
 48 49  1  0  0  0  0
 50 42  1  0  0  0  0
 51 50  1  0  0  0  0
 52 53  2  0  0  0  0
 53 51  1  0  0  0  0
 53 55  1  0  0  0  0
 55 54  2  0  0  0  0
 56 55  1  0  0  0  0
 58 57  1  0  0  0  0
M  END
>  <MODEL>
7

>  <REMARK>
 VINA RESULT:      -4.6      1.688      2.174
  Name = 
  19 active torsions:
  status: ('A' for Active; 'I' for Inactive)
    1  A    between atoms: C_4  and  S_14
    2  A    between atoms: N_5  and  N_56
    3  A    between atoms: C_8  and  O_37
    4  A    between atoms: S_14  and  C_27
    5  A    between atoms: C_17  and  N_23
    6  A    between atoms: C_18  and  C_19
    7  A    between atoms: C_19  and  N_56
    8  A    between atoms: C_20  and  C_43
    9  A    between atoms: N_21  and  C_30
   10  A    between atoms: C_25  and  C_49
   11  A    between atoms: C_29  and  N_48
   12  A    between atoms: C_30  and  C_31
   13  A    between atoms: C_30  and  C_40
   14  A    between atoms: N_35  and  C_47
   15  A    between atoms: N_35  and  N_48
   16  A    between atoms: N_45  and  C_55
   17  A    between atoms: C_46  and  N_48
   18  A    between atoms: C_46  and  O_54
   19  A    between atoms: C_49  and  O_54
                            x       y       z     vdW  Elec       q    Type
                         _______ _______ _______ _____ _____    ______ ____

>  <TORSDO>
F 19

$$$$
=
 OpenBabel10232409403D

 58 63  0  0  1  0  0  0  0  0999 V2000
  190.8240  176.6190  143.8310 N   0  0  0  0  0  0  0  0  0  0  0  0
  189.2490  177.2740  141.5430 C   0  0  2  0  0  3  0  0  0  0  0  0
  188.6210  176.9220  142.8720 C   0  0  0  0  0  0  0  0  0  0  0  0
  189.3960  176.6440  143.9310 C   0  0  0  0  0  3  0  0  0  0  0  0
  191.4350  176.7560  142.6960 C   0  0  0  0  0  3  0  0  0  0  0  0
  190.6950  176.9600  141.4830 N   0  0  0  0  0  0  0  0  0  0  0  0
  190.7460  176.2190  139.1160 C   0  0  0  0  0  3  0  0  0  0  0  0
  192.7170  176.5590  137.7580 C   0  0  0  0  0  3  0  0  0  0  0  0
  191.4100  176.0890  137.8930 C   0  0  0  0  0  0  0  0  0  0  0  0
  193.3470  177.1780  138.8370 C   0  0  0  0  0  3  0  0  0  0  0  0
  192.6760  177.3170  140.0530 C   0  0  0  0  0  3  0  0  0  0  0  0
  191.3680  176.8340  140.2160 C   0  0  0  0  0  0  0  0  0  0  0  0
  190.6420  175.2240  136.5200 S   0  0  0  0  0  0  0  0  0  0  0  0
  192.1600  174.6500  135.6720 C   0  0  2  0  0  0  0  0  0  0  0  0
  193.2080  175.7670  135.6910 C   0  0  0  0  0  2  0  0  0  0  0  0
  195.0560  174.2220  136.4200 N   0  0  0  0  0  0  0  0  0  0  0  0
  191.8510  174.3310  134.3470 O   0  0  0  0  0  1  0  0  0  0  0  0
  194.5860  175.1760  135.3900 C   0  0  0  0  0  2  0  0  0  0  0  0
  193.9720  173.6420  137.2350 C   0  0  0  0  0  2  0  0  0  0  0  0
  192.6800  173.3970  136.4350 C   0  0  2  0  0  3  0  0  0  0  0  0
  193.8520  171.3500  135.5750 C   0  0  0  0  0  3  0  0  0  0  0  0
  192.6640  172.0940  135.6660 C   0  0  0  0  0  0  0  0  0  0  0  0
  192.6750  169.6230  134.3510 C   0  0  0  0  0  3  0  0  0  0  0  0
  191.4880  170.3530  134.4550 C   0  0  0  0  0  3  0  0  0  0  0  0
  191.4820  171.5790  135.1170 C   0  0  0  0  0  3  0  0  0  0  0  0
  193.8590  170.1160  134.9170 C   0  0  0  0  0  3  0  0  0  0  0  0
  196.0300  174.7690  137.3820 C   0  0  2  0  0  3  0  0  0  0  0  0
  197.4640  174.8400  136.9090 C   0  0  0  0  0  0  0  0  0  0  0  0
  198.4610  174.0980  137.5450 O   0  0  0  0  0  1  0  0  0  0  0  0
  197.7850  175.6120  135.9610 O   0  0  0  0  0  0  0  0  0  0  0  0
  196.9300  174.4560  139.5890 O   0  0  0  0  0  1  0  0  0  0  0  0
  195.9320  174.0270  138.7120 C   0  0  0  0  0  2  0  0  0  0  0  0
  185.4150  178.3690  144.5270 N   0  0  0  0  0  0  0  0  0  0  0  0
  186.5580  177.7840  144.0120 C   0  0  0  0  0  0  0  0  0  0  0  0
  187.1970  177.0000  143.0040 N   0  0  0  0  0  2  0  0  0  0  0  0
  186.6290  178.4860  145.1560 N   0  0  0  0  0  0  0  0  0  0  0  0
  184.0370  178.6270  144.4910 N   0  0  0  0  0  2  0  0  0  0  0  0
  183.7820  179.5100  143.3540 C   0  0  0  0  0  2  0  0  0  0  0  0
  183.6530  178.7400  142.1080 C   0  0  0  0  0  0  0  0  0  0  0  0
  183.5190  178.0850  141.1030 C   0  0  0  0  0  0  0  0  0  0  0  0
  183.3430  177.2990  139.9540 N   0  0  0  0  0  2  0  0  0  0  0  0
  183.3150  177.8210  138.6420 N   0  0  0  0  0  0  0  0  0  0  0  0
  180.7370  180.7480  136.9420 C   0  0  0  0  0  0  0  0  0  0  0  0
  181.5350  181.1030  137.9560 C   0  0  0  0  0  3  0  0  0  0  0  0
  182.0820  180.0630  138.9060 C   0  0  0  0  0  2  0  0  0  0  0  0
  180.2240  181.7030  136.1250 F   0  0  0  0  0  0  0  0  0  0  0  0
  182.2930  178.7290  138.2130 C   0  0  0  0  0  0  0  0  0  0  0  0
  181.4960  178.4050  137.1810 C   0  0  0  0  0  3  0  0  0  0  0  0
  180.3750  179.3010  136.7330 C   0  0  0  0  0  2  0  0  0  0  0  0
  184.2300  177.2500  137.6430 C   0  0  0  0  0  2  0  0  0  0  0  0
  185.5550  177.2710  138.1470 O   0  0  0  0  0  0  0  0  0  0  0  0
  187.6950  177.6140  137.3490 O   0  0  0  0  0  0  0  0  0  0  0  0
  186.6500  176.9040  137.3550 C   0  0  0  0  0  0  0  0  0  0  0  0
  186.4290  175.8190  135.1870 C   0  0  0  0  0  2  0  0  0  0  0  0
  186.5720  175.7060  136.5020 C   0  0  0  0  0  0  0  0  0  0  0  0
  186.7910  174.3500  137.0830 C   0  0  0  0  0  1  0  0  0  0  0  0
  188.1460  178.6930  140.2330 C   0  0  0  0  0  1  0  0  0  0  0  0
  189.0550  178.6380  141.2860 O   0  0  0  0  0  0  0  0  0  0  0  0
  1  4  1  0  0  0  0
  2 58  1  1  0  0  0
  2  3  1  0  0  0  0
  3 35  1  0  0  0  0
  3  4  2  0  0  0  0
  5  1  2  0  0  0  0
  6  2  1  0  0  0  0
  6  5  1  0  0  0  0
  7 12  1  0  0  0  0
  8  9  1  0  0  0  0
  8 10  2  0  0  0  0
  9  7  2  0  0  0  0
 10 11  1  0  0  0  0
 11 12  2  0  0  0  0
 12  6  1  0  0  0  0
 13  9  1  0  0  0  0
 14 17  1  6  0  0  0
 14 15  1  0  0  0  0
 14 20  1  0  0  0  0
 14 13  1  0  0  0  0
 16 19  1  0  0  0  0
 16 27  1  0  0  0  0
 18 15  1  0  0  0  0
 18 16  1  0  0  0  0
 20 22  1  6  0  0  0
 20 19  1  0  0  0  0
 21 22  1  0  0  0  0
 23 24  2  0  0  0  0
 23 26  1  0  0  0  0
 24 25  1  0  0  0  0
 25 22  2  0  0  0  0
 26 21  2  0  0  0  0
 27 32  1  1  0  0  0
 28 27  1  0  0  0  0
 28 29  1  0  0  0  0
 30 28  2  0  0  0  0
 32 31  1  0  0  0  0
 33 36  1  0  0  0  0
 34 33  1  0  0  0  0
 34 36  2  0  0  0  0
 35 34  1  0  0  0  0
 37 33  1  0  0  0  0
 38 37  1  0  0  0  0
 39 38  1  0  0  0  0
 40 39  3  0  0  0  0
 41 40  1  0  0  0  0
 42 41  1  0  0  0  0
 43 44  2  0  0  0  0
 44 45  1  0  0  0  0
 46 43  1  0  0  0  0
 47 42  1  0  0  0  0
 47 45  1  0  0  0  0
 48 47  2  0  0  0  0
 49 43  1  0  0  0  0
 49 48  1  0  0  0  0
 50 51  1  0  0  0  0
 50 42  1  0  0  0  0
 52 53  2  0  0  0  0
 53 51  1  0  0  0  0
 54 55  2  0  0  0  0
 55 56  1  0  0  0  0
 55 53  1  0  0  0  0
 57 58  1  0  0  0  0
M  END
>  <MODEL>
8

>  <REMARK>
 VINA RESULT:      -4.6      3.235      9.900
  Name = 
  19 active torsions:
  status: ('A' for Active; 'I' for Inactive)
    1  A    between atoms: C_4  and  S_14
    2  A    between atoms: N_5  and  N_56
    3  A    between atoms: C_8  and  O_37
    4  A    between atoms: S_14  and  C_27
    5  A    between atoms: C_17  and  N_23
    6  A    between atoms: C_18  and  C_19
    7  A    between atoms: C_19  and  N_56
    8  A    between atoms: C_20  and  C_43
    9  A    between atoms: N_21  and  C_30
   10  A    between atoms: C_25  and  C_49
   11  A    between atoms: C_29  and  N_48
   12  A    between atoms: C_30  and  C_31
   13  A    between atoms: C_30  and  C_40
   14  A    between atoms: N_35  and  C_47
   15  A    between atoms: N_35  and  N_48
   16  A    between atoms: N_45  and  C_55
   17  A    between atoms: C_46  and  N_48
   18  A    between atoms: C_46  and  O_54
   19  A    between atoms: C_49  and  O_54
                            x       y       z     vdW  Elec       q    Type
                         _______ _______ _______ _____ _____    ______ ____

>  <TORSDO>
F 19

$$$$
=
 OpenBabel10232409403D

 58 63  0  0  1  0  0  0  0  0999 V2000
  191.1490  177.4940  144.6090 N   0  0  0  0  0  0  0  0  0  0  0  0
  189.4030  177.3260  142.3570 C   0  0  2  0  0  3  0  0  0  0  0  0
  188.9180  177.0710  143.7660 C   0  0  0  0  0  0  0  0  0  0  0  0
  189.7630  177.1840  144.8010 C   0  0  0  0  0  3  0  0  0  0  0  0
  191.6760  177.5730  143.4270 C   0  0  0  0  0  3  0  0  0  0  0  0
  190.8790  177.3710  142.2510 N   0  0  0  0  0  0  0  0  0  0  0  0
  190.8880  176.5320  139.9160 C   0  0  0  0  0  3  0  0  0  0  0  0
  192.8360  176.8120  138.5120 C   0  0  0  0  0  3  0  0  0  0  0  0
  191.5310  176.3500  138.6890 C   0  0  0  0  0  0  0  0  0  0  0  0
  193.4840  177.4750  139.5530 C   0  0  0  0  0  3  0  0  0  0  0  0
  192.8350  177.6650  140.7740 C   0  0  0  0  0  3  0  0  0  0  0  0
  191.5300  177.1920  140.9790 C   0  0  0  0  0  0  0  0  0  0  0  0
  190.7390  175.4300  137.3660 S   0  0  0  0  0  0  0  0  0  0  0  0
  192.2300  175.0140  136.3880 C   0  0  2  0  0  0  0  0  0  0  0  0
  193.2390  176.1630  136.4830 C   0  0  0  0  0  2  0  0  0  0  0  0
  195.1730  174.6210  136.9450 N   0  0  0  0  0  0  0  0  0  0  0  0
  191.8650  174.8320  135.0510 O   0  0  0  0  0  1  0  0  0  0  0  0
  194.6190  175.6640  136.0530 C   0  0  0  0  0  2  0  0  0  0  0  0
  194.1530  173.9120  137.7400 C   0  0  0  0  0  2  0  0  0  0  0  0
  192.8310  173.7060  136.9800 C   0  0  2  0  0  3  0  0  0  0  0  0
  194.0360  172.0480  135.5300 C   0  0  0  0  0  3  0  0  0  0  0  0
  192.8200  172.4970  136.0710 C   0  0  0  0  0  0  0  0  0  0  0  0
  192.8830  170.2010  134.4690 C   0  0  0  0  0  3  0  0  0  0  0  0
  191.6730  170.6360  135.0200 C   0  0  0  0  0  3  0  0  0  0  0  0
  191.6450  171.7740  135.8230 C   0  0  0  0  0  3  0  0  0  0  0  0
  194.0680  170.9020  134.7290 C   0  0  0  0  0  3  0  0  0  0  0  0
  196.1770  175.0960  137.9160 C   0  0  2  0  0  3  0  0  0  0  0  0
  197.6160  175.0620  137.4560 C   0  0  0  0  0  0  0  0  0  0  0  0
  197.9890  175.6430  136.2420 O   0  0  0  0  0  0  0  0  0  0  0  0
  198.4900  174.4620  138.1430 O   0  0  0  0  0  1  0  0  0  0  0  0
  195.8740  175.2770  140.2940 O   0  0  0  0  0  1  0  0  0  0  0  0
  196.0120  174.3650  139.2450 C   0  0  0  0  0  2  0  0  0  0  0  0
  185.3530  178.2300  144.7980 N   0  0  0  0  0  0  0  0  0  0  0  0
  186.6390  177.7970  144.5290 C   0  0  0  0  0  0  0  0  0  0  0  0
  187.5240  176.8190  143.9810 N   0  0  0  0  0  2  0  0  0  0  0  0
  186.4510  178.9660  145.1660 N   0  0  0  0  0  0  0  0  0  0  0  0
  183.9620  178.0540  144.7750 N   0  0  0  0  0  2  0  0  0  0  0  0
  183.3860  179.1890  144.0530 C   0  0  0  0  0  2  0  0  0  0  0  0
  183.8710  179.2320  142.6660 C   0  0  0  0  0  0  0  0  0  0  0  0
  184.3060  179.2600  141.5400 C   0  0  0  0  0  0  0  0  0  0  0  0
  184.8450  179.2910  140.2460 N   0  0  0  0  0  2  0  0  0  0  0  0
  184.2770  178.6200  139.1410 N   0  0  0  0  0  0  0  0  0  0  0  0
  186.7750  176.6870  136.2900 C   0  0  0  0  0  0  0  0  0  0  0  0
  187.3410  177.4600  137.2240 C   0  0  0  0  0  3  0  0  0  0  0  0
  186.5410  178.5340  137.9240 C   0  0  0  0  0  2  0  0  0  0  0  0
  187.5230  175.7550  135.6450 F   0  0  0  0  0  0  0  0  0  0  0  0
  185.0790  178.1480  138.0510 C   0  0  0  0  0  0  0  0  0  0  0  0
  184.5380  177.3510  137.1140 C   0  0  0  0  0  3  0  0  0  0  0  0
  185.3260  176.8770  135.9240 C   0  0  0  0  0  2  0  0  0  0  0  0
  182.8130  178.6010  139.0120 C   0  0  0  0  0  2  0  0  0  0  0  0
  182.2700  177.6430  139.9060 O   0  0  0  0  0  0  0  0  0  0  0  0
  183.2590  175.5580  139.8120 O   0  0  0  0  0  0  0  0  0  0  0  0
  182.2430  176.2780  139.5970 C   0  0  0  0  0  0  0  0  0  0  0  0
  180.1760  174.9980  139.7240 C   0  0  0  0  0  2  0  0  0  0  0  0
  181.0400  175.6860  138.9880 C   0  0  0  0  0  0  0  0  0  0  0  0
  180.7010  175.9650  137.5620 C   0  0  0  0  0  1  0  0  0  0  0  0
  187.8680  178.1710  140.9870 C   0  0  0  0  0  1  0  0  0  0  0  0
  188.8620  178.5320  141.8930 O   0  0  0  0  0  0  0  0  0  0  0  0
  1  4  1  0  0  0  0
  2 58  1  1  0  0  0
  2  3  1  0  0  0  0
  3 35  1  0  0  0  0
  3  4  2  0  0  0  0
  5  1  2  0  0  0  0
  6  2  1  0  0  0  0
  6  5  1  0  0  0  0
  7 12  1  0  0  0  0
  8  9  1  0  0  0  0
  8 10  2  0  0  0  0
  9  7  2  0  0  0  0
 10 11  1  0  0  0  0
 11 12  2  0  0  0  0
 12  6  1  0  0  0  0
 13  9  1  0  0  0  0
 14 17  1  6  0  0  0
 14 15  1  0  0  0  0
 14 20  1  0  0  0  0
 14 13  1  0  0  0  0
 16 19  1  0  0  0  0
 16 27  1  0  0  0  0
 18 15  1  0  0  0  0
 18 16  1  0  0  0  0
 20 22  1  6  0  0  0
 20 19  1  0  0  0  0
 21 22  1  0  0  0  0
 23 26  1  0  0  0  0
 23 24  2  0  0  0  0
 24 25  1  0  0  0  0
 25 22  2  0  0  0  0
 26 21  2  0  0  0  0
 27 32  1  1  0  0  0
 28 27  1  0  0  0  0
 28 30  1  0  0  0  0
 29 28  2  0  0  0  0
 32 31  1  0  0  0  0
 33 36  1  0  0  0  0
 34 33  1  0  0  0  0
 34 36  2  0  0  0  0
 35 34  1  0  0  0  0
 37 33  1  0  0  0  0
 38 37  1  0  0  0  0
 39 38  1  0  0  0  0
 40 39  3  0  0  0  0
 41 40  1  0  0  0  0
 42 41  1  0  0  0  0
 43 44  2  0  0  0  0
 44 45  1  0  0  0  0
 45 47  1  0  0  0  0
 46 43  1  0  0  0  0
 47 42  1  0  0  0  0
 48 47  2  0  0  0  0
 49 43  1  0  0  0  0
 49 48  1  0  0  0  0
 50 42  1  0  0  0  0
 50 51  1  0  0  0  0
 53 52  2  0  0  0  0
 53 51  1  0  0  0  0
 55 53  1  0  0  0  0
 55 54  2  0  0  0  0
 56 55  1  0  0  0  0
 57 58  1  0  0  0  0
M  END
>  <MODEL>
9

>  <REMARK>
 VINA RESULT:      -4.4      3.182     10.133
  Name = 
  19 active torsions:
  status: ('A' for Active; 'I' for Inactive)
    1  A    between atoms: C_4  and  S_14
    2  A    between atoms: N_5  and  N_56
    3  A    between atoms: C_8  and  O_37
    4  A    between atoms: S_14  and  C_27
    5  A    between atoms: C_17  and  N_23
    6  A    between atoms: C_18  and  C_19
    7  A    between atoms: C_19  and  N_56
    8  A    between atoms: C_20  and  C_43
    9  A    between atoms: N_21  and  C_30
   10  A    between atoms: C_25  and  C_49
   11  A    between atoms: C_29  and  N_48
   12  A    between atoms: C_30  and  C_31
   13  A    between atoms: C_30  and  C_40
   14  A    between atoms: N_35  and  C_47
   15  A    between atoms: N_35  and  N_48
   16  A    between atoms: N_45  and  C_55
   17  A    between atoms: C_46  and  N_48
   18  A    between atoms: C_46  and  O_54
   19  A    between atoms: C_49  and  O_54
                            x       y       z     vdW  Elec       q    Type
                         _______ _______ _______ _____ _____    ______ ____

>  <TORSDO>
F 19

$$$$
