=
 OpenBabel10232407553D

 26 30  0  0  1  0  0  0  0  0999 V2000
  185.3330  178.4320  144.9420 C   0  0  0  0  0  0  0  0  0  0  0  0
  186.9830  178.7970  147.9930 C   0  0  0  0  0  3  0  0  0  0  0  0
  185.2810  178.8880  146.2250 N   0  0  0  0  0  0  0  0  0  0  0  0
  186.4880  178.5640  146.7170 C   0  0  0  0  0  0  0  0  0  0  0  0
  187.2410  177.9390  145.7740 C   0  0  0  0  0  0  0  0  0  0  0  0
  189.0310  177.7440  147.3350 C   0  0  0  0  0  3  0  0  0  0  0  0
  188.2540  178.3770  148.2710 N   0  0  0  0  0  0  0  0  0  0  0  0
  188.5370  177.5040  146.0400 C   0  0  0  0  0  3  0  0  0  0  0  0
  186.5260  177.8410  144.6360 N   0  0  0  0  0  0  0  0  0  0  0  0
  189.8050  178.1010  141.2920 C   0  0  0  0  0  2  0  0  0  0  0  0
  188.9560  176.3530  142.5710 C   0  0  1  0  0  3  0  0  0  0  0  0
  189.1050  177.7890  142.5310 N   0  0  2  0  0  0  0  0  0  0  0  0
  187.7310  178.2590  142.5150 C   0  0  0  0  0  2  0  0  0  0  0  0
  191.3870  176.5740  142.4090 O   0  0  0  0  0  0  0  0  0  0  0  0
  190.9340  176.3090  140.1660 F   0  0  0  0  0  0  0  0  0  0  0  0
  191.0880  177.2380  141.1840 C   0  0  0  0  0  0  0  0  0  0  0  0
  190.3220  175.7180  142.8210 C   0  0  0  0  0  2  0  0  0  0  0  0
  187.8750  176.0690  143.5760 C   0  0  0  0  0  2  0  0  0  0  0  0
  186.9420  177.2550  143.3600 C   0  0  1  0  0  3  0  0  0  0  0  0
  192.1440  178.0660  140.8590 F   0  0  0  0  0  0  0  0  0  0  0  0
  182.9060  178.8330  144.5390 C   0  0  0  0  0  3  0  0  0  0  0  0
  184.3390  178.4900  142.6240 C   0  0  0  0  0  3  0  0  0  0  0  0
  181.8060  178.9810  143.6900 C   0  0  0  0  0  3  0  0  0  0  0  0
  181.9720  178.8840  142.3070 C   0  0  0  0  0  3  0  0  0  0  0  0
  184.1850  178.5860  144.0160 C   0  0  0  0  0  0  0  0  0  0  0  0
  183.2400  178.6380  141.7740 C   0  0  0  0  0  3  0  0  0  0  0  0
  1  3  2  0  0  0  0
  2  7  1  0  0  0  0
  3  4  1  0  0  0  0
  4  2  2  0  0  0  0
  5  8  2  0  0  0  0
  5  4  1  0  0  0  0
  6  7  2  0  0  0  0
  8  6  1  0  0  0  0
  9  1  1  0  0  0  0
  9  5  1  0  0  0  0
 11 17  1  1  0  0  0
 11 18  1  0  0  0  0
 12 10  1  6  0  0  0
 12 11  1  0  0  0  0
 13 12  1  0  0  0  0
 14 17  1  0  0  0  0
 15 16  1  0  0  0  0
 16 10  1  0  0  0  0
 16 14  1  0  0  0  0
 19 13  1  6  0  0  0
 19 18  1  0  0  0  0
 19  9  1  0  0  0  0
 20 16  1  0  0  0  0
 22 25  2  0  0  0  0
 23 21  2  0  0  0  0
 24 23  1  0  0  0  0
 25 21  1  0  0  0  0
 25  1  1  0  0  0  0
 26 24  2  0  0  0  0
 26 22  1  0  0  0  0
M  END
>  <MODEL>
1

>  <REMARK>
 VINA RESULT:      -9.4      0.000      0.000
  Name = 
  2 active torsions:
  status: ('A' for Active; 'I' for Inactive)
    1  A    between atoms: C_1  and  C_19
    2  A    between atoms: C_21  and  N_26
                            x       y       z     vdW  Elec       q    Type
                         _______ _______ _______ _____ _____    ______ ____

>  <TORSDO>
F 2

$$$$
=
 OpenBabel10232407553D

 26 30  0  0  1  0  0  0  0  0999 V2000
  186.6410  178.3330  142.0000 C   0  0  0  0  0  0  0  0  0  0  0  0
  189.0880  178.4850  139.5200 C   0  0  0  0  0  3  0  0  0  0  0  0
  187.0260  178.8540  140.8010 N   0  0  0  0  0  0  0  0  0  0  0  0
  188.2340  178.3020  140.5990 C   0  0  0  0  0  0  0  0  0  0  0  0
  188.5680  177.4830  141.6300 C   0  0  0  0  0  0  0  0  0  0  0  0
  190.6370  176.9820  140.5580 C   0  0  0  0  0  3  0  0  0  0  0  0
  190.2790  177.8130  139.5280 N   0  0  0  0  0  0  0  0  0  0  0  0
  189.7780  176.7920  141.6550 C   0  0  0  0  0  3  0  0  0  0  0  0
  187.5710  177.4880  142.5360 N   0  0  0  0  0  0  0  0  0  0  0  0
  189.2140  177.3850  146.9280 C   0  0  0  0  0  2  0  0  0  0  0  0
  187.0730  177.3560  146.0170 C   0  0  1  0  0  3  0  0  0  0  0  0
  188.4420  177.7260  145.7400 N   0  0  2  0  0  0  0  0  0  0  0  0
  188.7840  176.8850  144.6070 C   0  0  0  0  0  2  0  0  0  0  0  0
  187.5180  178.9270  147.8380 O   0  0  0  0  0  0  0  0  0  0  0  0
  188.0100  176.9770  148.9620 F   0  0  0  0  0  0  0  0  0  0  0  0
  188.5390  177.9950  148.1830 C   0  0  0  0  0  0  0  0  0  0  0  0
  186.4950  178.3230  147.0470 C   0  0  0  0  0  2  0  0  0  0  0  0
  186.3800  177.2800  144.6850 C   0  0  0  0  0  2  0  0  0  0  0  0
  187.4940  176.7420  143.7940 C   0  0  1  0  0  3  0  0  0  0  0  0
  189.5050  178.6490  148.9230 F   0  0  0  0  0  0  0  0  0  0  0  0
  184.1610  178.1060  142.1090 C   0  0  0  0  0  3  0  0  0  0  0  0
  185.2420  179.5740  143.6940 C   0  0  0  0  0  3  0  0  0  0  0  0
  182.9180  178.4160  142.6680 C   0  0  0  0  0  3  0  0  0  0  0  0
  182.8380  179.3060  143.7410 C   0  0  0  0  0  3  0  0  0  0  0  0
  185.3370  178.6810  142.6160 C   0  0  0  0  0  0  0  0  0  0  0  0
  184.0010  179.8860  144.2540 C   0  0  0  0  0  3  0  0  0  0  0  0
  1  9  1  0  0  0  0
  1 25  1  0  0  0  0
  2  7  2  0  0  0  0
  2  4  1  0  0  0  0
  3  1  2  0  0  0  0
  4  3  1  0  0  0  0
  4  5  2  0  0  0  0
  5  8  1  0  0  0  0
  5  9  1  0  0  0  0
  6  8  2  0  0  0  0
  7  6  1  0  0  0  0
 10 16  1  0  0  0  0
 11 18  1  6  0  0  0
 11 17  1  0  0  0  0
 12 13  1  6  0  0  0
 12 11  1  0  0  0  0
 12 10  1  0  0  0  0
 14 16  1  0  0  0  0
 16 20  1  0  0  0  0
 16 15  1  0  0  0  0
 17 14  1  0  0  0  0
 19  9  1  6  0  0  0
 19 13  1  0  0  0  0
 19 18  1  0  0  0  0
 21 25  2  0  0  0  0
 21 23  1  0  0  0  0
 22 26  2  0  0  0  0
 23 24  2  0  0  0  0
 24 26  1  0  0  0  0
 25 22  1  0  0  0  0
M  END
>  <MODEL>
2

>  <REMARK>
 VINA RESULT:      -9.0      3.159      5.338
  Name = 
  2 active torsions:
  status: ('A' for Active; 'I' for Inactive)
    1  A    between atoms: C_1  and  C_19
    2  A    between atoms: C_21  and  N_26
                            x       y       z     vdW  Elec       q    Type
                         _______ _______ _______ _____ _____    ______ ____

>  <TORSDO>
F 2

$$$$
=
 OpenBabel10232407553D

 26 30  0  0  1  0  0  0  0  0999 V2000
  187.6040  177.7160  145.5640 C   0  0  0  0  0  0  0  0  0  0  0  0
  190.5280  177.5200  147.4550 C   0  0  0  0  0  3  0  0  0  0  0  0
  188.2310  178.0110  146.7370 N   0  0  0  0  0  0  0  0  0  0  0  0
  189.4630  177.5020  146.5650 C   0  0  0  0  0  0  0  0  0  0  0  0
  189.5770  176.9220  145.3410 C   0  0  0  0  0  0  0  0  0  0  0  0
  191.8370  176.3440  145.8310 C   0  0  0  0  0  3  0  0  0  0  0  0
  191.6990  176.9340  147.0600 N   0  0  0  0  0  0  0  0  0  0  0  0
  190.7630  176.3210  144.9230 C   0  0  0  0  0  3  0  0  0  0  0  0
  188.4070  177.0440  144.6860 N   0  0  0  0  0  0  0  0  0  0  0  0
  188.2280  178.4110  140.2030 C   0  0  0  0  0  2  0  0  0  0  0  0
  189.2220  176.6100  141.2900 C   0  0  1  0  0  3  0  0  0  0  0  0
  188.7120  177.9460  141.4960 N   0  0  2  0  0  0  0  0  0  0  0  0
  187.6300  177.7390  142.4420 C   0  0  0  0  0  2  0  0  0  0  0  0
  190.5880  177.8890  139.7150 O   0  0  0  0  0  0  0  0  0  0  0  0
  188.9420  177.2170  138.2490 F   0  0  0  0  0  0  0  0  0  0  0  0
  189.3290  178.2150  139.1300 C   0  0  0  0  0  0  0  0  0  0  0  0
  190.5180  176.6920  140.4880 C   0  0  0  0  0  2  0  0  0  0  0  0
  189.2980  175.9740  142.6500 C   0  0  0  0  0  2  0  0  0  0  0  0
  188.0790  176.5800  143.3360 C   0  0  1  0  0  3  0  0  0  0  0  0
  189.4620  179.3930  138.4210 F   0  0  0  0  0  0  0  0  0  0  0  0
  185.3510  178.3660  146.4080 C   0  0  0  0  0  3  0  0  0  0  0  0
  185.6750  178.2210  144.0190 C   0  0  0  0  0  3  0  0  0  0  0  0
  184.0180  178.7350  146.2060 C   0  0  0  0  0  3  0  0  0  0  0  0
  183.5130  178.8470  144.9090 C   0  0  0  0  0  3  0  0  0  0  0  0
  186.1950  178.1060  145.3170 C   0  0  0  0  0  0  0  0  0  0  0  0
  184.3430  178.5890  143.8150 C   0  0  0  0  0  3  0  0  0  0  0  0
  1  3  2  0  0  0  0
  4  3  1  0  0  0  0
  4  2  2  0  0  0  0
  5  4  1  0  0  0  0
  6  7  2  0  0  0  0
  7  2  1  0  0  0  0
  8  5  2  0  0  0  0
  8  6  1  0  0  0  0
  9  5  1  0  0  0  0
  9  1  1  0  0  0  0
 11 17  1  1  0  0  0
 11 12  1  0  0  0  0
 11 18  1  0  0  0  0
 12 10  1  6  0  0  0
 12 13  1  0  0  0  0
 14 17  1  0  0  0  0
 15 16  1  0  0  0  0
 16 14  1  0  0  0  0
 16 10  1  0  0  0  0
 18 19  1  0  0  0  0
 19 13  1  6  0  0  0
 19  9  1  0  0  0  0
 20 16  1  0  0  0  0
 22 25  1  0  0  0  0
 23 21  1  0  0  0  0
 24 23  2  0  0  0  0
 25  1  1  0  0  0  0
 25 21  2  0  0  0  0
 26 22  2  0  0  0  0
 26 24  1  0  0  0  0
M  END
>  <MODEL>
3

>  <REMARK>
 VINA RESULT:      -8.4      1.942      2.710
  Name = 
  2 active torsions:
  status: ('A' for Active; 'I' for Inactive)
    1  A    between atoms: C_1  and  C_19
    2  A    between atoms: C_21  and  N_26
                            x       y       z     vdW  Elec       q    Type
                         _______ _______ _______ _____ _____    ______ ____

>  <TORSDO>
F 2

$$$$
=
 OpenBabel10232407553D

 26 30  0  0  1  0  0  0  0  0999 V2000
  184.7760  178.3190  142.3390 C   0  0  0  0  0  0  0  0  0  0  0  0
  183.7310  178.9250  145.6100 C   0  0  0  0  0  3  0  0  0  0  0  0
  183.7630  178.7020  143.1640 N   0  0  0  0  0  0  0  0  0  0  0  0
  184.3190  178.6370  144.3860 C   0  0  0  0  0  0  0  0  0  0  0  0
  185.6130  178.2310  144.3050 C   0  0  0  0  0  0  0  0  0  0  0  0
  185.8040  178.3790  146.6760 C   0  0  0  0  0  3  0  0  0  0  0  0
  184.4970  178.7870  146.7340 N   0  0  0  0  0  0  0  0  0  0  0  0
  186.4080  178.0850  145.4400 C   0  0  0  0  0  3  0  0  0  0  0  0
  185.9270  178.0210  143.0120 N   0  0  0  0  0  0  0  0  0  0  0  0
  190.5250  178.9460  143.0730 C   0  0  0  0  0  2  0  0  0  0  0  0
  189.2760  177.0120  143.4060 C   0  0  1  0  0  3  0  0  0  0  0  0
  189.2010  178.4540  143.4310 N   0  0  2  0  0  0  0  0  0  0  0  0
  188.2140  178.7480  142.4080 C   0  0  0  0  0  2  0  0  0  0  0  0
  191.0090  177.5480  145.0460 O   0  0  0  0  0  0  0  0  0  0  0  0
  192.3560  177.4010  143.1840 F   0  0  0  0  0  0  0  0  0  0  0  0
  191.5950  178.2610  143.9610 C   0  0  0  0  0  0  0  0  0  0  0  0
  190.1110  176.5360  144.5920 C   0  0  0  0  0  2  0  0  0  0  0  0
  187.8580  176.5190  143.3270 C   0  0  0  0  0  2  0  0  0  0  0  0
  187.2120  177.5910  142.4560 C   0  0  1  0  0  3  0  0  0  0  0  0
  192.4290  179.2370  144.4700 F   0  0  0  0  0  0  0  0  0  0  0  0
  183.4530  177.6290  140.3430 C   0  0  0  0  0  3  0  0  0  0  0  0
  185.5410  178.7870  139.9800 C   0  0  0  0  0  3  0  0  0  0  0  0
  183.2570  177.5470  138.9610 C   0  0  0  0  0  3  0  0  0  0  0  0
  184.2040  178.0870  138.0880 C   0  0  0  0  0  3  0  0  0  0  0  0
  184.5970  178.2500  140.8680 C   0  0  0  0  0  0  0  0  0  0  0  0
  185.3470  178.7070  138.5990 C   0  0  0  0  0  3  0  0  0  0  0  0
  1  9  1  0  0  0  0
  1  3  2  0  0  0  0
  2  7  1  0  0  0  0
  3  4  1  0  0  0  0
  4  2  2  0  0  0  0
  5  4  1  0  0  0  0
  5  8  2  0  0  0  0
  6  7  2  0  0  0  0
  8  6  1  0  0  0  0
  9  5  1  0  0  0  0
 10 12  1  0  0  0  0
 10 16  1  0  0  0  0
 11 18  1  1  0  0  0
 11 12  1  0  0  0  0
 11 17  1  0  0  0  0
 12 13  1  6  0  0  0
 15 16  1  0  0  0  0
 16 20  1  0  0  0  0
 16 14  1  0  0  0  0
 17 14  1  0  0  0  0
 19 13  1  1  0  0  0
 19  9  1  0  0  0  0
 19 18  1  0  0  0  0
 21 25  1  0  0  0  0
 22 25  2  0  0  0  0
 23 21  2  0  0  0  0
 24 26  2  0  0  0  0
 24 23  1  0  0  0  0
 25  1  1  0  0  0  0
 26 22  1  0  0  0  0
M  END
>  <MODEL>
4

>  <REMARK>
 VINA RESULT:      -8.2      2.159      3.071
  Name = 
  2 active torsions:
  status: ('A' for Active; 'I' for Inactive)
    1  A    between atoms: C_1  and  C_19
    2  A    between atoms: C_21  and  N_26
                            x       y       z     vdW  Elec       q    Type
                         _______ _______ _______ _____ _____    ______ ____

>  <TORSDO>
F 2

$$$$
=
 OpenBabel10232407553D

 26 30  0  0  1  0  0  0  0  0999 V2000
  187.6570  177.7760  144.3050 C   0  0  0  0  0  0  0  0  0  0  0  0
  184.3110  178.3640  143.5160 C   0  0  0  0  0  3  0  0  0  0  0  0
  186.3690  177.8260  144.7450 N   0  0  0  0  0  0  0  0  0  0  0  0
  185.6800  178.1700  143.6440 C   0  0  0  0  0  0  0  0  0  0  0  0
  186.5140  178.3220  142.5820 C   0  0  0  0  0  0  0  0  0  0  0  0
  184.6510  178.8720  141.2010 C   0  0  0  0  0  3  0  0  0  0  0  0
  183.8280  178.7130  142.2860 N   0  0  0  0  0  0  0  0  0  0  0  0
  186.0390  178.6780  141.3210 C   0  0  0  0  0  3  0  0  0  0  0  0
  187.7780  178.0780  142.9780 N   0  0  0  0  0  0  0  0  0  0  0  0
  189.8180  176.1610  139.2140 C   0  0  0  0  0  2  0  0  0  0  0  0
  189.4110  178.3550  139.8730 C   0  0  1  0  0  3  0  0  0  0  0  0
  188.9800  176.9900  140.0700 N   0  0  2  0  0  0  0  0  0  0  0  0
  189.2460  176.7650  141.4800 C   0  0  0  0  0  2  0  0  0  0  0  0
  188.8020  177.7150  137.5920 O   0  0  0  0  0  0  0  0  0  0  0  0
  191.0550  177.2490  137.4710 F   0  0  0  0  0  0  0  0  0  0  0  0
  189.8080  176.7220  137.7700 C   0  0  0  0  0  0  0  0  0  0  0  0
  188.9830  178.8160  138.4820 C   0  0  0  0  0  2  0  0  0  0  0  0
  188.8860  179.1360  141.0450 C   0  0  0  0  0  2  0  0  0  0  0  0
  188.9970  178.1100  142.1670 C   0  0  1  0  0  3  0  0  0  0  0  0
  189.5590  175.6780  136.8990 F   0  0  0  0  0  0  0  0  0  0  0  0
  188.5300  177.2940  146.5890 C   0  0  0  0  0  3  0  0  0  0  0  0
  190.0790  177.2160  144.7370 C   0  0  0  0  0  3  0  0  0  0  0  0
  189.5640  176.9640  147.4700 C   0  0  0  0  0  3  0  0  0  0  0  0
  190.8570  176.7600  146.9830 C   0  0  0  0  0  3  0  0  0  0  0  0
  188.7750  177.4230  145.2130 C   0  0  0  0  0  0  0  0  0  0  0  0
  191.1140  176.8860  145.6160 C   0  0  0  0  0  3  0  0  0  0  0  0
  1  3  2  0  0  0  0
  1 25  1  0  0  0  0
  2  4  1  0  0  0  0
  4  3  1  0  0  0  0
  5  9  1  0  0  0  0
  5  4  2  0  0  0  0
  6  8  2  0  0  0  0
  6  7  1  0  0  0  0
  7  2  2  0  0  0  0
  8  5  1  0  0  0  0
  9  1  1  0  0  0  0
 11 17  1  6  0  0  0
 11 12  1  0  0  0  0
 11 18  1  0  0  0  0
 12 10  1  6  0  0  0
 12 13  1  0  0  0  0
 13 19  1  0  0  0  0
 14 16  1  0  0  0  0
 14 17  1  0  0  0  0
 15 16  1  0  0  0  0
 16 10  1  0  0  0  0
 19 18  1  6  0  0  0
 19  9  1  0  0  0  0
 20 16  1  0  0  0  0
 21 23  1  0  0  0  0
 22 25  1  0  0  0  0
 22 26  2  0  0  0  0
 24 23  2  0  0  0  0
 25 21  2  0  0  0  0
 26 24  1  0  0  0  0
M  END
>  <MODEL>
5

>  <REMARK>
 VINA RESULT:      -8.0      2.328      5.328
  Name = 
  2 active torsions:
  status: ('A' for Active; 'I' for Inactive)
    1  A    between atoms: C_1  and  C_19
    2  A    between atoms: C_21  and  N_26
                            x       y       z     vdW  Elec       q    Type
                         _______ _______ _______ _____ _____    ______ ____

>  <TORSDO>
F 2

$$$$
=
 OpenBabel10232407553D

 26 30  0  0  1  0  0  0  0  0999 V2000
  187.8410  178.0550  142.2230 C   0  0  0  0  0  0  0  0  0  0  0  0
  185.3510  179.3020  140.1220 C   0  0  0  0  0  3  0  0  0  0  0  0
  187.5400  178.7120  141.0670 N   0  0  0  0  0  0  0  0  0  0  0  0
  186.1970  178.7450  141.0720 C   0  0  0  0  0  0  0  0  0  0  0  0
  185.7040  178.1340  142.1810 C   0  0  0  0  0  0  0  0  0  0  0  0
  183.4850  178.6060  141.4510 C   0  0  0  0  0  3  0  0  0  0  0  0
  184.0040  179.2170  140.3380 N   0  0  0  0  0  0  0  0  0  0  0  0
  184.3340  178.0380  142.4180 C   0  0  0  0  0  3  0  0  0  0  0  0
  186.7310  177.6860  142.9280 N   0  0  0  0  0  0  0  0  0  0  0  0
  188.8550  177.3150  147.0940 C   0  0  0  0  0  2  0  0  0  0  0  0
  186.6510  177.6880  146.4470 C   0  0  1  0  0  3  0  0  0  0  0  0
  188.0200  177.7850  145.9960 N   0  0  2  0  0  0  0  0  0  0  0  0
  188.0540  176.8830  144.8590 C   0  0  0  0  0  2  0  0  0  0  0  0
  187.6070  179.1630  148.1470 O   0  0  0  0  0  0  0  0  0  0  0  0
  187.8570  177.1680  149.2700 F   0  0  0  0  0  0  0  0  0  0  0  0
  188.4680  178.0560  148.3990 C   0  0  0  0  0  0  0  0  0  0  0  0
  186.3990  178.7590  147.5050 C   0  0  0  0  0  2  0  0  0  0  0  0
  185.7970  177.7320  145.2110 C   0  0  0  0  0  2  0  0  0  0  0  0
  186.6700  176.9820  144.2110 C   0  0  1  0  0  3  0  0  0  0  0  0
  189.6250  178.5210  148.9950 F   0  0  0  0  0  0  0  0  0  0  0  0
  189.9590  178.7880  143.3130 C   0  0  0  0  0  3  0  0  0  0  0  0
  189.8840  176.5800  142.3370 C   0  0  0  0  0  3  0  0  0  0  0  0
  191.2830  178.5720  143.7050 C   0  0  0  0  0  3  0  0  0  0  0  0
  191.9080  177.3580  143.4110 C   0  0  0  0  0  3  0  0  0  0  0  0
  189.2440  177.7950  142.6260 C   0  0  0  0  0  0  0  0  0  0  0  0
  191.2070  176.3620  142.7270 C   0  0  0  0  0  3  0  0  0  0  0  0
  1 25  1  0  0  0  0
  1  9  1  0  0  0  0
  2  7  2  0  0  0  0
  2  4  1  0  0  0  0
  3  4  1  0  0  0  0
  3  1  2  0  0  0  0
  4  5  2  0  0  0  0
  5  8  1  0  0  0  0
  5  9  1  0  0  0  0
  6  8  2  0  0  0  0
  7  6  1  0  0  0  0
 10 16  1  0  0  0  0
 11 18  1  6  0  0  0
 11 17  1  0  0  0  0
 12 13  1  6  0  0  0
 12 11  1  0  0  0  0
 12 10  1  0  0  0  0
 14 16  1  0  0  0  0
 16 20  1  0  0  0  0
 16 15  1  0  0  0  0
 17 14  1  0  0  0  0
 19  9  1  6  0  0  0
 19 13  1  0  0  0  0
 19 18  1  0  0  0  0
 21 23  1  0  0  0  0
 22 25  1  0  0  0  0
 22 26  2  0  0  0  0
 24 23  2  0  0  0  0
 25 21  2  0  0  0  0
 26 24  1  0  0  0  0
M  END
>  <MODEL>
6

>  <REMARK>
 VINA RESULT:      -7.9      3.399      6.592
  Name = 
  2 active torsions:
  status: ('A' for Active; 'I' for Inactive)
    1  A    between atoms: C_1  and  C_19
    2  A    between atoms: C_21  and  N_26
                            x       y       z     vdW  Elec       q    Type
                         _______ _______ _______ _____ _____    ______ ____

>  <TORSDO>
F 2

$$$$
=
 OpenBabel10232407553D

 26 30  0  0  1  0  0  0  0  0999 V2000
  190.9330  176.7570  143.6510 C   0  0  0  0  0  0  0  0  0  0  0  0
  191.4950  177.6260  140.3200 C   0  0  0  0  0  3  0  0  0  0  0  0
  191.8390  177.1130  142.6980 N   0  0  0  0  0  0  0  0  0  0  0  0
  191.0840  177.2630  141.5970 C   0  0  0  0  0  0  0  0  0  0  0  0
  189.7780  177.0090  141.8700 C   0  0  0  0  0  0  0  0  0  0  0  0
  189.2170  177.4660  139.5990 C   0  0  0  0  0  3  0  0  0  0  0  0
  190.5410  177.7180  139.3460 N   0  0  0  0  0  0  0  0  0  0  0  0
  188.7930  177.0990  140.8880 C   0  0  0  0  0  3  0  0  0  0  0  0
  189.6570  176.6830  143.1710 N   0  0  0  0  0  0  0  0  0  0  0  0
  186.9240  178.0710  146.7220 C   0  0  0  0  0  2  0  0  0  0  0  0
  186.5120  177.5530  144.4910 C   0  0  1  0  0  3  0  0  0  0  0  0
  187.5500  177.9590  145.4100 N   0  0  2  0  0  0  0  0  0  0  0  0
  188.4910  176.8560  145.3470 C   0  0  0  0  0  2  0  0  0  0  0  0
  185.5790  179.6350  145.3700 O   0  0  0  0  0  0  0  0  0  0  0  0
  184.5290  178.1740  146.8090 F   0  0  0  0  0  0  0  0  0  0  0  0
  185.6570  178.9580  146.6220 C   0  0  0  0  0  0  0  0  0  0  0  0
  185.5540  178.7220  144.2750 C   0  0  0  0  0  2  0  0  0  0  0  0
  187.2150  177.0110  143.2770 C   0  0  0  0  0  2  0  0  0  0  0  0
  188.4350  176.3460  143.9040 C   0  0  1  0  0  3  0  0  0  0  0  0
  185.7030  179.8990  147.6330 F   0  0  0  0  0  0  0  0  0  0  0  0
  191.9930  175.2820  145.3590 C   0  0  0  0  0  3  0  0  0  0  0  0
  191.1000  177.4070  146.0830 C   0  0  0  0  0  3  0  0  0  0  0  0
  192.3910  175.0020  146.6690 C   0  0  0  0  0  3  0  0  0  0  0  0
  192.1420  175.9240  147.6880 C   0  0  0  0  0  3  0  0  0  0  0  0
  191.3440  176.4880  145.0510 C   0  0  0  0  0  0  0  0  0  0  0  0
  191.4960  177.1280  147.3940 C   0  0  0  0  0  3  0  0  0  0  0  0
  1 25  1  0  0  0  0
  2  4  1  0  0  0  0
  3  1  2  0  0  0  0
  4  5  2  0  0  0  0
  4  3  1  0  0  0  0
  5  9  1  0  0  0  0
  6  8  2  0  0  0  0
  7  6  1  0  0  0  0
  7  2  2  0  0  0  0
  8  5  1  0  0  0  0
  9  1  1  0  0  0  0
 11 18  1  6  0  0  0
 11 12  1  0  0  0  0
 12 13  1  1  0  0  0
 12 10  1  0  0  0  0
 14 16  1  0  0  0  0
 16 10  1  0  0  0  0
 16 15  1  0  0  0  0
 16 20  1  0  0  0  0
 17 11  1  0  0  0  0
 17 14  1  0  0  0  0
 18 19  1  0  0  0  0
 19  9  1  6  0  0  0
 19 13  1  0  0  0  0
 21 23  1  0  0  0  0
 22 26  2  0  0  0  0
 23 24  2  0  0  0  0
 25 21  2  0  0  0  0
 25 22  1  0  0  0  0
 26 24  1  0  0  0  0
M  END
>  <MODEL>
7

>  <REMARK>
 VINA RESULT:      -7.8      3.571      7.404
  Name = 
  2 active torsions:
  status: ('A' for Active; 'I' for Inactive)
    1  A    between atoms: C_1  and  C_19
    2  A    between atoms: C_21  and  N_26
                            x       y       z     vdW  Elec       q    Type
                         _______ _______ _______ _____ _____    ______ ____

>  <TORSDO>
F 2

$$$$
=
 OpenBabel10232407553D

 26 30  0  0  1  0  0  0  0  0999 V2000
  185.7420  178.5850  140.9880 C   0  0  0  0  0  0  0  0  0  0  0  0
  187.1500  178.3610  137.8050 C   0  0  0  0  0  3  0  0  0  0  0  0
  185.5450  178.6510  139.6410 N   0  0  0  0  0  0  0  0  0  0  0  0
  186.7680  178.4140  139.1390 C   0  0  0  0  0  0  0  0  0  0  0  0
  187.6680  178.2130  140.1370 C   0  0  0  0  0  0  0  0  0  0  0  0
  189.3880  177.8950  138.5170 C   0  0  0  0  0  3  0  0  0  0  0  0
  188.4630  178.1000  137.5270 N   0  0  0  0  0  0  0  0  0  0  0  0
  189.0100  177.9470  139.8710 C   0  0  0  0  0  3  0  0  0  0  0  0
  187.0390  178.3190  141.3230 N   0  0  0  0  0  0  0  0  0  0  0  0
  190.1080  175.7880  143.8090 C   0  0  0  0  0  2  0  0  0  0  0  0
  189.8040  178.0730  143.4860 C   0  0  1  0  0  3  0  0  0  0  0  0
  189.5260  176.7770  142.9110 N   0  0  2  0  0  0  0  0  0  0  0  0
  188.0750  176.7260  142.9080 C   0  0  0  0  0  2  0  0  0  0  0  0
  192.0640  177.1740  143.2280 O   0  0  0  0  0  0  0  0  0  0  0  0
  191.7150  176.5520  145.4180 F   0  0  0  0  0  0  0  0  0  0  0  0
  191.5870  176.1500  144.0980 C   0  0  0  0  0  0  0  0  0  0  0  0
  191.2950  178.3700  143.3460 C   0  0  0  0  0  2  0  0  0  0  0  0
  188.8500  179.0350  142.8360 C   0  0  0  0  0  2  0  0  0  0  0  0
  187.6110  178.1640  142.6620 C   0  0  1  0  0  3  0  0  0  0  0  0
  192.3570  175.0180  143.9130 F   0  0  0  0  0  0  0  0  0  0  0  0
  183.3070  178.5800  141.5220 C   0  0  0  0  0  3  0  0  0  0  0  0
  184.8570  179.1880  143.2720 C   0  0  0  0  0  3  0  0  0  0  0  0
  182.2380  178.7660  142.4030 C   0  0  0  0  0  3  0  0  0  0  0  0
  182.4790  179.1630  143.7200 C   0  0  0  0  0  3  0  0  0  0  0  0
  184.6290  178.7890  141.9470 C   0  0  0  0  0  0  0  0  0  0  0  0
  183.7900  179.3740  144.1540 C   0  0  0  0  0  3  0  0  0  0  0  0
  1  9  1  0  0  0  0
  1 25  1  0  0  0  0
  2  4  1  0  0  0  0
  3  1  2  0  0  0  0
  4  3  1  0  0  0  0
  4  5  2  0  0  0  0
  5  9  1  0  0  0  0
  6  8  2  0  0  0  0
  7  2  2  0  0  0  0
  7  6  1  0  0  0  0
  8  5  1  0  0  0  0
 10 16  1  0  0  0  0
 11 18  1  6  0  0  0
 12 13  1  1  0  0  0
 12 11  1  0  0  0  0
 12 10  1  0  0  0  0
 14 17  1  0  0  0  0
 14 16  1  0  0  0  0
 16 15  1  0  0  0  0
 17 11  1  0  0  0  0
 19  9  1  6  0  0  0
 19 18  1  0  0  0  0
 19 13  1  0  0  0  0
 20 16  1  0  0  0  0
 21 25  2  0  0  0  0
 21 23  1  0  0  0  0
 22 26  2  0  0  0  0
 23 24  2  0  0  0  0
 24 26  1  0  0  0  0
 25 22  1  0  0  0  0
M  END
>  <MODEL>
8

>  <REMARK>
 VINA RESULT:      -7.7      2.806      4.887
  Name = 
  2 active torsions:
  status: ('A' for Active; 'I' for Inactive)
    1  A    between atoms: C_1  and  C_19
    2  A    between atoms: C_21  and  N_26
                            x       y       z     vdW  Elec       q    Type
                         _______ _______ _______ _____ _____    ______ ____

>  <TORSDO>
F 2

$$$$
=
 OpenBabel10232407553D

 26 30  0  0  1  0  0  0  0  0999 V2000
  187.5560  177.7910  145.0030 C   0  0  0  0  0  0  0  0  0  0  0  0
  189.6970  176.4530  147.4100 C   0  0  0  0  0  3  0  0  0  0  0  0
  187.6820  177.2290  146.2380 N   0  0  0  0  0  0  0  0  0  0  0  0
  189.0040  177.0120  146.3440 C   0  0  0  0  0  0  0  0  0  0  0  0
  189.6510  177.4230  145.2220 C   0  0  0  0  0  0  0  0  0  0  0  0
  191.7270  176.7380  146.1730 C   0  0  0  0  0  3  0  0  0  0  0  0
  191.0530  176.3300  147.2950 N   0  0  0  0  0  0  0  0  0  0  0  0
  191.0330  177.3040  145.0880 C   0  0  0  0  0  3  0  0  0  0  0  0
  188.7510  177.9210  144.3530 N   0  0  0  0  0  0  0  0  0  0  0  0
  191.6830  177.7400  140.6970 C   0  0  0  0  0  2  0  0  0  0  0  0
  189.3740  177.5540  140.9090 C   0  0  1  0  0  3  0  0  0  0  0  0
  190.6150  177.4330  141.6380 N   0  0  2  0  0  0  0  0  0  0  0  0
  190.4870  178.4460  142.6700 C   0  0  0  0  0  2  0  0  0  0  0  0
  190.5390  175.8610  139.5840 O   0  0  0  0  0  0  0  0  0  0  0  0
  191.1520  177.7120  138.3580 F   0  0  0  0  0  0  0  0  0  0  0  0
  191.5110  176.8880  139.4140 C   0  0  0  0  0  0  0  0  0  0  0  0
  189.2600  176.3930  139.9240 C   0  0  0  0  0  2  0  0  0  0  0  0
  188.2890  177.6850  141.9420 C   0  0  0  0  0  2  0  0  0  0  0  0
  188.9980  178.4880  143.0260 C   0  0  1  0  0  3  0  0  0  0  0  0
  192.7260  176.3040  139.1130 F   0  0  0  0  0  0  0  0  0  0  0  0
  185.3820  178.9810  145.2630 C   0  0  0  0  0  3  0  0  0  0  0  0
  185.8080  177.8270  143.1850 C   0  0  0  0  0  3  0  0  0  0  0  0
  184.1300  179.3810  144.7860 C   0  0  0  0  0  3  0  0  0  0  0  0
  183.7170  179.0030  143.5060 C   0  0  0  0  0  3  0  0  0  0  0  0
  186.2350  178.2000  144.4680 C   0  0  0  0  0  0  0  0  0  0  0  0
  184.5580  178.2250  142.7050 C   0  0  0  0  0  3  0  0  0  0  0  0
  1  3  2  0  0  0  0
  3  4  1  0  0  0  0
  4  2  2  0  0  0  0
  5  4  1  0  0  0  0
  6  7  2  0  0  0  0
  7  2  1  0  0  0  0
  8  5  2  0  0  0  0
  8  6  1  0  0  0  0
  9  1  1  0  0  0  0
  9  5  1  0  0  0  0
 11 17  1  1  0  0  0
 11 12  1  0  0  0  0
 11 18  1  0  0  0  0
 12 10  1  6  0  0  0
 12 13  1  0  0  0  0
 13 19  1  0  0  0  0
 14 17  1  0  0  0  0
 15 16  1  0  0  0  0
 16 14  1  0  0  0  0
 16 10  1  0  0  0  0
 19 18  1  6  0  0  0
 19  9  1  0  0  0  0
 20 16  1  0  0  0  0
 22 25  1  0  0  0  0
 23 21  1  0  0  0  0
 24 23  2  0  0  0  0
 25  1  1  0  0  0  0
 25 21  2  0  0  0  0
 26 22  2  0  0  0  0
 26 24  1  0  0  0  0
M  END
>  <MODEL>
9

>  <REMARK>
 VINA RESULT:      -7.7      1.874      2.559
  Name = 
  2 active torsions:
  status: ('A' for Active; 'I' for Inactive)
    1  A    between atoms: C_1  and  C_19
    2  A    between atoms: C_21  and  N_26
                            x       y       z     vdW  Elec       q    Type
                         _______ _______ _______ _____ _____    ______ ____

>  <TORSDO>
F 2

$$$$
