=
 OpenBabel10232408143D

 32 37  0  0  1  0  0  0  0  0999 V2000
  187.5400  173.9050  137.2660 O   0  0  0  0  0  0  0  0  0  0  0  0
  189.9800  174.5870  136.0320 N   0  0  0  0  0  2  0  0  0  0  0  0
  194.3400  175.0020  135.3030 N   0  0  0  0  0  0  0  0  0  0  0  0
  189.3380  175.8320  136.1890 N   0  0  1  0  0  0  0  0  0  0  0  0
  194.7210  176.1290  135.8550 C   0  0  0  0  0  0  0  0  0  0  0  0
  187.9860  175.6930  135.8080 N   0  0  0  0  0  0  0  0  0  0  0  0
  190.6990  175.5860  138.1190 C   0  0  2  0  0  3  0  0  0  0  0  0
  187.4810  176.6300  134.8070 C   0  0  0  0  0  2  0  0  0  0  0  0
  193.0980  174.3470  135.6420 C   0  0  0  0  0  3  0  0  0  0  0  0
  192.3090  174.9030  136.5580 C   0  0  0  0  0  0  0  0  0  0  0  0
  191.8210  176.5380  138.0420 N   0  0  0  0  0  0  0  0  0  0  0  0
  189.2800  177.6890  137.8070 C   0  0  0  0  0  2  0  0  0  0  0  0
  185.6430  178.4130  138.4710 C   0  0  0  0  0  1  0  0  0  0  0  0
  187.1130  174.6910  136.3770 C   0  0  0  0  0  0  0  0  0  0  0  0
  192.6800  176.1190  137.1850 C   0  0  0  0  0  0  0  0  0  0  0  0
  187.8650  178.1240  137.5980 C   0  0  0  0  0  0  0  0  0  0  0  0
  193.8990  176.7730  136.8460 N   0  0  0  0  0  2  0  0  0  0  0  0
  195.9570  176.7200  135.4710 N   0  0  0  0  0  1  0  0  0  0  0  0
  187.4810  178.6950  136.2590 C   0  0  0  0  0  2  0  0  0  0  0  0
  190.9910  174.4810  137.0840 C   0  0  2  0  0  3  0  0  0  0  0  0
  186.6300  177.7150  135.4580 C   0  0  0  0  0  2  0  0  0  0  0  0
  187.0230  178.0040  138.5680 N   0  0  0  0  0  0  0  0  0  0  0  0
  189.4060  176.1800  137.6040 C   0  0  1  0  0  3  0  0  0  0  0  0
  180.8700  174.2030  136.1020 C   0  0  0  0  0  2  0  0  0  0  0  0
  181.6970  173.3130  135.3720 O   0  0  0  0  0  0  0  0  0  0  0  0
  183.9950  172.9600  135.0250 N   0  0  0  0  0  0  0  0  0  0  0  0
  185.4200  173.2350  135.2590 C   0  0  0  0  0  2  0  0  0  0  0  0
  185.6860  174.5860  135.9370 C   0  0  1  0  0  3  0  0  0  0  0  0
  181.8310  175.1110  136.8840 C   0  0  0  0  0  2  0  0  0  0  0  0
  184.5610  174.8580  137.3460 S   0  0  0  0  0  0  0  0  0  0  0  0
  183.0160  173.6920  135.4650 C   0  0  0  0  0  0  0  0  0  0  0  0
  183.1770  174.9690  136.1850 C   0  0  1  0  0  3  0  0  0  0  0  0
  3  9  1  0  0  0  0
  3  5  2  0  0  0  0
  4  2  1  1  0  0  0
  4 23  1  0  0  0  0
  5 17  1  0  0  0  0
  6  4  1  0  0  0  0
  6 14  1  0  0  0  0
  7 11  1  6  0  0  0
  8 21  1  0  0  0  0
  8  6  1  0  0  0  0
  9 10  2  0  0  0  0
 10 20  1  0  0  0  0
 10 15  1  0  0  0  0
 13 22  1  0  0  0  0
 14  1  2  0  0  0  0
 15 11  2  0  0  0  0
 16 12  1  0  0  0  0
 16 22  2  0  0  0  0
 17 15  1  0  0  0  0
 18  5  1  0  0  0  0
 19 16  1  0  0  0  0
 20  2  1  6  0  0  0
 20  7  1  0  0  0  0
 21 19  1  0  0  0  0
 23 12  1  6  0  0  0
 23  7  1  0  0  0  0
 24 29  1  0  0  0  0
 25 31  1  0  0  0  0
 25 24  1  0  0  0  0
 26 27  1  0  0  0  0
 26 31  2  0  0  0  0
 27 28  1  0  0  0  0
 28 14  1  1  0  0  0
 28 30  1  0  0  0  0
 31 32  1  0  0  0  0
 32 29  1  1  0  0  0
 32 30  1  0  0  0  0
M  END
>  <MODEL>
1

>  <REMARK>
 VINA RESULT:      -6.0      0.000      0.000
  Name = 
  1 active torsions:
  status: ('A' for Active; 'I' for Inactive)
    1  A    between atoms: C_16  and  C_20
                            x       y       z     vdW  Elec       q    Type
                         _______ _______ _______ _____ _____    ______ ____

>  <TORSDO>
F 1

$$$$
=
 OpenBabel10232408143D

 32 37  0  0  1  0  0  0  0  0999 V2000
  188.9700  172.9580  137.4570 O   0  0  0  0  0  0  0  0  0  0  0  0
  191.2880  173.7560  136.0670 N   0  0  0  0  0  2  0  0  0  0  0  0
  195.5150  174.8210  135.2220 N   0  0  0  0  0  0  0  0  0  0  0  0
  190.4100  174.8440  135.8830 N   0  0  1  0  0  0  0  0  0  0  0  0
  195.6440  176.1070  135.4430 C   0  0  0  0  0  0  0  0  0  0  0  0
  189.1310  174.3400  135.5630 N   0  0  0  0  0  0  0  0  0  0  0  0
  191.6990  175.4010  137.7970 C   0  0  2  0  0  3  0  0  0  0  0  0
  188.5020  174.8530  134.3480 C   0  0  0  0  0  2  0  0  0  0  0  0
  194.4090  174.0470  135.7360 C   0  0  0  0  0  3  0  0  0  0  0  0
  193.4840  174.6600  136.4710 C   0  0  0  0  0  0  0  0  0  0  0  0
  192.6180  176.5020  137.4550 N   0  0  0  0  0  0  0  0  0  0  0  0
  189.9170  177.0170  136.9320 C   0  0  0  0  0  2  0  0  0  0  0  0
  186.1800  177.1520  137.3990 C   0  0  0  0  0  1  0  0  0  0  0  0
  188.4420  173.3750  136.3900 C   0  0  0  0  0  0  0  0  0  0  0  0
  193.5820  176.0480  136.7390 C   0  0  0  0  0  0  0  0  0  0  0  0
  188.4560  177.0880  136.6230 C   0  0  0  0  0  0  0  0  0  0  0  0
  194.6660  176.8170  136.2270 N   0  0  0  0  0  2  0  0  0  0  0  0
  196.7590  176.8070  134.9040 N   0  0  0  0  0  1  0  0  0  0  0  0
  188.0330  177.1900  135.1810 C   0  0  0  0  0  2  0  0  0  0  0  0
  192.2490  174.1400  137.1010 C   0  0  2  0  0  3  0  0  0  0  0  0
  187.4270  175.8810  134.6840 C   0  0  0  0  0  2  0  0  0  0  0  0
  187.6070  177.0680  137.5940 N   0  0  0  0  0  0  0  0  0  0  0  0
  190.3410  175.5650  137.1490 C   0  0  1  0  0  3  0  0  0  0  0  0
  182.5060  171.3630  136.3470 C   0  0  0  0  0  2  0  0  0  0  0  0
  183.5280  170.6130  135.7120 O   0  0  0  0  0  0  0  0  0  0  0  0
  185.8440  170.7850  135.3500 N   0  0  0  0  0  0  0  0  0  0  0  0
  187.1580  171.4230  135.5090 C   0  0  0  0  0  2  0  0  0  0  0  0
  187.0850  172.8730  136.0050 C   0  0  1  0  0  3  0  0  0  0  0  0
  183.2140  172.5690  136.9830 C   0  0  0  0  0  2  0  0  0  0  0  0
  185.9220  173.0440  137.3990 S   0  0  0  0  0  0  0  0  0  0  0  0
  184.7140  171.3080  135.7220 C   0  0  0  0  0  0  0  0  0  0  0  0
  184.5570  172.6680  136.2710 C   0  0  1  0  0  3  0  0  0  0  0  0
  3  5  2  0  0  0  0
  3  9  1  0  0  0  0
  4  2  1  1  0  0  0
  4 23  1  0  0  0  0
  5 17  1  0  0  0  0
  6  4  1  0  0  0  0
  6 14  1  0  0  0  0
  7 11  1  6  0  0  0
  8 21  1  0  0  0  0
  8  6  1  0  0  0  0
  9 10  2  0  0  0  0
 10 15  1  0  0  0  0
 10 20  1  0  0  0  0
 13 22  1  0  0  0  0
 14  1  2  0  0  0  0
 15 11  2  0  0  0  0
 16 12  1  0  0  0  0
 16 22  2  0  0  0  0
 17 15  1  0  0  0  0
 18  5  1  0  0  0  0
 19 16  1  0  0  0  0
 20  2  1  6  0  0  0
 20  7  1  0  0  0  0
 21 19  1  0  0  0  0
 23 12  1  6  0  0  0
 23  7  1  0  0  0  0
 24 29  1  0  0  0  0
 25 31  1  0  0  0  0
 25 24  1  0  0  0  0
 26 27  1  0  0  0  0
 26 31  2  0  0  0  0
 27 28  1  0  0  0  0
 28 14  1  1  0  0  0
 28 30  1  0  0  0  0
 31 32  1  0  0  0  0
 32 29  1  1  0  0  0
 32 30  1  0  0  0  0
M  END
>  <MODEL>
2

>  <REMARK>
 VINA RESULT:      -5.9      1.756      1.941
  Name = 
  1 active torsions:
  status: ('A' for Active; 'I' for Inactive)
    1  A    between atoms: C_16  and  C_20
                            x       y       z     vdW  Elec       q    Type
                         _______ _______ _______ _____ _____    ______ ____

>  <TORSDO>
F 1

$$$$
=
 OpenBabel10232408143D

 32 37  0  0  1  0  0  0  0  0999 V2000
  188.0350  174.3230  136.5570 O   0  0  0  0  0  0  0  0  0  0  0  0
  190.6160  174.8920  135.5780 N   0  0  0  0  0  2  0  0  0  0  0  0
  194.9990  174.6490  134.9130 N   0  0  0  0  0  0  0  0  0  0  0  0
  190.2290  176.1010  136.1920 N   0  0  1  0  0  0  0  0  0  0  0  0
  195.5730  175.4000  135.8220 C   0  0  0  0  0  0  0  0  0  0  0  0
  188.8960  176.3850  135.8280 N   0  0  0  0  0  0  0  0  0  0  0  0
  191.4250  174.9080  137.8610 C   0  0  2  0  0  3  0  0  0  0  0  0
  188.6330  177.6990  135.2480 C   0  0  0  0  0  2  0  0  0  0  0  0
  193.6380  174.1820  135.0320 C   0  0  0  0  0  3  0  0  0  0  0  0
  192.9350  174.5200  136.1100 C   0  0  0  0  0  0  0  0  0  0  0  0
  192.7180  175.5770  138.0980 N   0  0  0  0  0  0  0  0  0  0  0  0
  190.4720  177.2240  138.3710 C   0  0  0  0  0  2  0  0  0  0  0  0
  187.0260  178.3830  139.3630 C   0  0  0  0  0  1  0  0  0  0  0  0
  187.8150  175.4450  136.0250 C   0  0  0  0  0  0  0  0  0  0  0  0
  193.5130  175.3280  137.1210 C   0  0  0  0  0  0  0  0  0  0  0  0
  189.1820  177.9820  138.3760 C   0  0  0  0  0  0  0  0  0  0  0  0
  194.8520  175.7980  137.0040 N   0  0  0  0  0  2  0  0  0  0  0  0
  196.9180  175.8260  135.6390 N   0  0  0  0  0  1  0  0  0  0  0  0
  188.9810  179.0610  137.3460 C   0  0  0  0  0  2  0  0  0  0  0  0
  191.5370  174.2140  136.4890 C   0  0  2  0  0  3  0  0  0  0  0  0
  187.9880  178.6280  136.2720 C   0  0  0  0  0  2  0  0  0  0  0  0
  188.2910  177.6960  139.2640 N   0  0  0  0  0  0  0  0  0  0  0  0
  190.3010  175.8960  137.6350 C   0  0  1  0  0  3  0  0  0  0  0  0
  181.6460  176.5400  135.8450 C   0  0  0  0  0  2  0  0  0  0  0  0
  182.2570  175.6920  134.8880 O   0  0  0  0  0  0  0  0  0  0  0  0
  184.4140  174.9020  134.3870 N   0  0  0  0  0  0  0  0  0  0  0  0
  185.8560  174.7620  134.6340 C   0  0  0  0  0  2  0  0  0  0  0  0
  186.4170  175.7960  135.6200 C   0  0  1  0  0  3  0  0  0  0  0  0
  182.7730  176.9670  136.7980 C   0  0  0  0  0  2  0  0  0  0  0  0
  185.3500  175.9640  137.0890 S   0  0  0  0  0  0  0  0  0  0  0  0
  183.6250  175.7100  135.0290 C   0  0  0  0  0  0  0  0  0  0  0  0
  184.0660  176.6900  136.0400 C   0  0  1  0  0  3  0  0  0  0  0  0
  3  9  1  0  0  0  0
  3  5  2  0  0  0  0
  4  2  1  6  0  0  0
  4 23  1  0  0  0  0
  5 17  1  0  0  0  0
  6 14  1  0  0  0  0
  6  4  1  0  0  0  0
  7 11  1  6  0  0  0
  8  6  1  0  0  0  0
  8 21  1  0  0  0  0
  9 10  2  0  0  0  0
 10 20  1  0  0  0  0
 10 15  1  0  0  0  0
 12 16  1  0  0  0  0
 14  1  2  0  0  0  0
 15 11  2  0  0  0  0
 16 22  2  0  0  0  0
 17 15  1  0  0  0  0
 18  5  1  0  0  0  0
 19 16  1  0  0  0  0
 20  2  1  6  0  0  0
 20  7  1  0  0  0  0
 21 19  1  0  0  0  0
 22 13  1  0  0  0  0
 23  7  1  0  0  0  0
 23 12  1  1  0  0  0
 24 29  1  0  0  0  0
 25 31  1  0  0  0  0
 25 24  1  0  0  0  0
 26 27  1  0  0  0  0
 26 31  2  0  0  0  0
 27 28  1  0  0  0  0
 28 14  1  1  0  0  0
 28 30  1  0  0  0  0
 31 32  1  0  0  0  0
 32 29  1  1  0  0  0
 32 30  1  0  0  0  0
M  END
>  <MODEL>
3

>  <REMARK>
 VINA RESULT:      -5.6      1.404      1.509
  Name = 
  1 active torsions:
  status: ('A' for Active; 'I' for Inactive)
    1  A    between atoms: C_16  and  C_20
                            x       y       z     vdW  Elec       q    Type
                         _______ _______ _______ _____ _____    ______ ____

>  <TORSDO>
F 1

$$$$
=
 OpenBabel10232408143D

 32 37  0  0  1  0  0  0  0  0999 V2000
  187.6310  176.9050  139.2580 O   0  0  0  0  0  0  0  0  0  0  0  0
  185.6900  178.7860  138.4620 N   0  0  0  0  0  2  0  0  0  0  0  0
  181.8600  181.0210  138.2300 N   0  0  0  0  0  0  0  0  0  0  0  0
  185.9920  178.1060  137.2640 N   0  0  1  0  0  0  0  0  0  0  0  0
  181.1060  180.4100  137.3470 C   0  0  0  0  0  0  0  0  0  0  0  0
  187.3920  177.9580  137.1710 N   0  0  0  0  0  0  0  0  0  0  0  0
  184.1170  176.9670  138.1720 C   0  0  2  0  0  3  0  0  0  0  0  0
  188.0280  178.4360  135.9460 C   0  0  0  0  0  2  0  0  0  0  0  0
  183.0060  180.3930  138.8460 C   0  0  0  0  0  3  0  0  0  0  0  0
  183.3080  179.1410  138.5110 C   0  0  0  0  0  0  0  0  0  0  0  0
  182.9340  177.2450  137.3370 N   0  0  0  0  0  0  0  0  0  0  0  0
  185.1340  176.2050  135.9540 C   0  0  0  0  0  2  0  0  0  0  0  0
  188.1090  174.0400  135.1420 C   0  0  0  0  0  1  0  0  0  0  0  0
  188.1850  177.3490  138.2150 C   0  0  0  0  0  0  0  0  0  0  0  0
  182.5220  178.4390  137.5640 C   0  0  0  0  0  0  0  0  0  0  0  0
  186.4250  175.7430  135.3580 C   0  0  0  0  0  0  0  0  0  0  0  0
  181.3960  179.0570  136.9480 N   0  0  0  0  0  2  0  0  0  0  0  0
  179.9930  181.0900  136.7790 N   0  0  0  0  0  1  0  0  0  0  0  0
  187.1360  176.6560  134.3940 C   0  0  0  0  0  2  0  0  0  0  0  0
  184.4160  178.2620  138.9530 C   0  0  2  0  0  3  0  0  0  0  0  0
  188.3800  177.2720  135.0250 C   0  0  0  0  0  2  0  0  0  0  0  0
  186.8840  174.5810  135.6790 N   0  0  0  0  0  0  0  0  0  0  0  0
  185.3720  176.7880  137.3460 C   0  0  1  0  0  3  0  0  0  0  0  0
  194.0530  175.2410  137.5770 C   0  0  0  0  0  2  0  0  0  0  0  0
  193.7220  176.1570  138.6070 O   0  0  0  0  0  0  0  0  0  0  0  0
  191.8190  177.3080  139.3690 N   0  0  0  0  0  0  0  0  0  0  0  0
  190.3880  177.6430  139.3530 C   0  0  0  0  0  2  0  0  0  0  0  0
  189.6690  177.2170  138.0660 C   0  0  1  0  0  3  0  0  0  0  0  0
  192.7320  174.9440  136.8500 C   0  0  0  0  0  2  0  0  0  0  0  0
  190.1130  175.5150  137.5860 S   0  0  0  0  0  0  0  0  0  0  0  0
  192.4240  176.5910  138.4700 C   0  0  0  0  0  0  0  0  0  0  0  0
  191.7960  176.0810  137.2370 C   0  0  1  0  0  3  0  0  0  0  0  0
  3  9  1  0  0  0  0
  4 23  1  0  0  0  0
  4  2  1  1  0  0  0
  5  3  2  0  0  0  0
  6  4  1  0  0  0  0
  6 14  1  0  0  0  0
  7 11  1  6  0  0  0
  7 20  1  0  0  0  0
  8  6  1  0  0  0  0
 10  9  2  0  0  0  0
 10 20  1  0  0  0  0
 11 15  2  0  0  0  0
 13 22  1  0  0  0  0
 14  1  2  0  0  0  0
 15 10  1  0  0  0  0
 16 22  2  0  0  0  0
 16 12  1  0  0  0  0
 17  5  1  0  0  0  0
 17 15  1  0  0  0  0
 18  5  1  0  0  0  0
 19 21  1  0  0  0  0
 19 16  1  0  0  0  0
 20  2  1  6  0  0  0
 21  8  1  0  0  0  0
 23 12  1  6  0  0  0
 23  7  1  0  0  0  0
 24 25  1  0  0  0  0
 27 26  1  0  0  0  0
 28 14  1  1  0  0  0
 28 27  1  0  0  0  0
 29 24  1  0  0  0  0
 30 28  1  0  0  0  0
 31 25  1  0  0  0  0
 31 26  2  0  0  0  0
 32 29  1  1  0  0  0
 32 30  1  0  0  0  0
 32 31  1  0  0  0  0
M  END
>  <MODEL>
4

>  <REMARK>
 VINA RESULT:      -5.6      3.252      8.779
  Name = 
  1 active torsions:
  status: ('A' for Active; 'I' for Inactive)
    1  A    between atoms: C_16  and  C_20
                            x       y       z     vdW  Elec       q    Type
                         _______ _______ _______ _____ _____    ______ ____

>  <TORSDO>
F 1

$$$$
=
 OpenBabel10232408143D

 32 37  0  0  1  0  0  0  0  0999 V2000
  192.9230  176.9120  138.2710 O   0  0  0  0  0  0  0  0  0  0  0  0
  194.4060  174.5630  137.8010 N   0  0  0  0  0  2  0  0  0  0  0  0
  197.8000  171.8640  136.8450 N   0  0  0  0  0  0  0  0  0  0  0  0
  193.3720  174.4890  136.8460 N   0  0  1  0  0  0  0  0  0  0  0  0
  197.8100  171.6970  135.5440 C   0  0  0  0  0  0  0  0  0  0  0  0
  192.1560  174.8410  137.4700 N   0  0  0  0  0  0  0  0  0  0  0  0
  195.1860  175.5290  135.7210 C   0  0  2  0  0  3  0  0  0  0  0  0
  191.0490  173.8950  137.3440 C   0  0  0  0  0  2  0  0  0  0  0  0
  197.0950  172.9480  137.4880 C   0  0  0  0  0  3  0  0  0  0  0  0
  196.4320  173.8210  136.7320 C   0  0  0  0  0  0  0  0  0  0  0  0
  195.7360  174.5930  134.7240 N   0  0  0  0  0  0  0  0  0  0  0  0
  192.9910  175.0900  134.4870 C   0  0  0  0  0  2  0  0  0  0  0  0
  189.7260  176.9670  134.3780 C   0  0  0  0  0  1  0  0  0  0  0  0
  191.9780  176.0810  138.1920 C   0  0  0  0  0  0  0  0  0  0  0  0
  196.4170  173.6840  135.3210 C   0  0  0  0  0  0  0  0  0  0  0  0
  191.5270  175.3850  134.5650 C   0  0  0  0  0  0  0  0  0  0  0  0
  197.1030  172.6110  134.6840 N   0  0  0  0  0  2  0  0  0  0  0  0
  198.5240  170.6050  134.9790 N   0  0  0  0  0  1  0  0  0  0  0  0
  190.5850  174.2560  134.8880 C   0  0  0  0  0  2  0  0  0  0  0  0
  195.6150  174.9980  137.1040 C   0  0  2  0  0  3  0  0  0  0  0  0
  190.0380  174.3750  136.3080 C   0  0  0  0  0  2  0  0  0  0  0  0
  191.1180  176.5880  134.3460 N   0  0  0  0  0  0  0  0  0  0  0  0
  193.6760  175.4610  135.8020 C   0  0  1  0  0  3  0  0  0  0  0  0
  186.4800  178.6130  139.8150 C   0  0  0  0  0  2  0  0  0  0  0  0
  187.4840  178.3830  140.7880 O   0  0  0  0  0  0  0  0  0  0  0  0
  189.6600  177.4960  140.8680 N   0  0  0  0  0  0  0  0  0  0  0  0
  190.8730  176.9270  140.2650 C   0  0  0  0  0  2  0  0  0  0  0  0
  190.6670  176.4060  138.8370 C   0  0  1  0  0  3  0  0  0  0  0  0
  187.0950  178.1790  138.4760 C   0  0  0  0  0  2  0  0  0  0  0  0
  189.7330  177.5970  137.8200 S   0  0  0  0  0  0  0  0  0  0  0  0
  188.5400  177.6940  140.2390 C   0  0  0  0  0  0  0  0  0  0  0  0
  188.2740  177.2890  138.8460 C   0  0  1  0  0  3  0  0  0  0  0  0
  3  9  1  0  0  0  0
  4  6  1  0  0  0  0
  4  2  1  1  0  0  0
  5  3  2  0  0  0  0
  6 14  1  0  0  0  0
  7 11  1  6  0  0  0
  7 23  1  0  0  0  0
  7 20  1  0  0  0  0
  8  6  1  0  0  0  0
 10  9  2  0  0  0  0
 11 15  2  0  0  0  0
 12 16  1  0  0  0  0
 14  1  2  0  0  0  0
 15 10  1  0  0  0  0
 16 19  1  0  0  0  0
 17 15  1  0  0  0  0
 17  5  1  0  0  0  0
 18  5  1  0  0  0  0
 19 21  1  0  0  0  0
 20 10  1  6  0  0  0
 20  2  1  0  0  0  0
 21  8  1  0  0  0  0
 22 13  1  0  0  0  0
 22 16  2  0  0  0  0
 23 12  1  6  0  0  0
 23  4  1  0  0  0  0
 24 25  1  0  0  0  0
 27 26  1  0  0  0  0
 28 14  1  6  0  0  0
 28 27  1  0  0  0  0
 29 24  1  0  0  0  0
 30 28  1  0  0  0  0
 30 32  1  0  0  0  0
 31 25  1  0  0  0  0
 31 26  2  0  0  0  0
 32 29  1  6  0  0  0
 32 31  1  0  0  0  0
M  END
>  <MODEL>
5

>  <REMARK>
 VINA RESULT:      -5.5      4.111      6.033
  Name = 
  1 active torsions:
  status: ('A' for Active; 'I' for Inactive)
    1  A    between atoms: C_16  and  C_20
                            x       y       z     vdW  Elec       q    Type
                         _______ _______ _______ _____ _____    ______ ____

>  <TORSDO>
F 1

$$$$
=
 OpenBabel10232408143D

 32 37  0  0  1  0  0  0  0  0999 V2000
  190.4590  177.7510  138.4100 O   0  0  0  0  0  0  0  0  0  0  0  0
  191.9010  175.3430  138.1630 N   0  0  0  0  0  2  0  0  0  0  0  0
  195.2670  172.5100  137.5590 N   0  0  0  0  0  0  0  0  0  0  0  0
  190.9190  175.2370  137.1560 N   0  0  1  0  0  0  0  0  0  0  0  0
  195.3440  172.2660  136.2730 C   0  0  0  0  0  0  0  0  0  0  0  0
  189.6810  175.6540  137.6890 N   0  0  0  0  0  0  0  0  0  0  0  0
  192.8210  176.1640  136.0780 C   0  0  2  0  0  3  0  0  0  0  0  0
  188.5580  174.7300  137.5560 C   0  0  0  0  0  2  0  0  0  0  0  0
  194.5580  173.6480  138.0970 C   0  0  0  0  0  3  0  0  0  0  0  0
  193.9620  174.4890  137.2550 C   0  0  0  0  0  0  0  0  0  0  0  0
  193.3980  175.1570  135.1690 N   0  0  0  0  0  0  0  0  0  0  0  0
  190.6860  175.7050  134.7490 C   0  0  0  0  0  2  0  0  0  0  0  0
  187.4840  177.6500  134.3460 C   0  0  0  0  0  1  0  0  0  0  0  0
  189.4980  176.9390  138.3260 C   0  0  0  0  0  0  0  0  0  0  0  0
  194.0200  174.2690  135.8560 C   0  0  0  0  0  0  0  0  0  0  0  0
  189.2280  176.0390  134.7270 C   0  0  0  0  0  0  0  0  0  0  0  0
  194.7110  173.1430  135.3220 N   0  0  0  0  0  2  0  0  0  0  0  0
  196.0580  171.1250  135.8130 N   0  0  0  0  0  1  0  0  0  0  0  0
  188.2390  174.9540  135.0610 C   0  0  0  0  0  2  0  0  0  0  0  0
  193.1580  175.7060  137.5110 C   0  0  2  0  0  3  0  0  0  0  0  0
  187.6190  175.1720  136.4380 C   0  0  0  0  0  2  0  0  0  0  0  0
  188.8650  177.2370  134.4150 N   0  0  0  0  0  0  0  0  0  0  0  0
  191.3070  176.1370  136.0760 C   0  0  1  0  0  3  0  0  0  0  0  0
  183.8860  179.5370  139.3480 C   0  0  0  0  0  2  0  0  0  0  0  0
  184.8750  179.5310  140.3640 O   0  0  0  0  0  0  0  0  0  0  0  0
  187.0750  178.7520  140.6470 N   0  0  0  0  0  0  0  0  0  0  0  0
  188.3190  178.1220  140.1830 C   0  0  0  0  0  2  0  0  0  0  0  0
  188.1620  177.3340  138.8760 C   0  0  1  0  0  3  0  0  0  0  0  0
  184.5460  178.8800  138.1260 C   0  0  0  0  0  2  0  0  0  0  0  0
  187.2160  178.2780  137.6360 S   0  0  0  0  0  0  0  0  0  0  0  0
  185.9650  178.7880  139.9730 C   0  0  0  0  0  0  0  0  0  0  0  0
  185.7440  178.1180  138.6780 C   0  0  1  0  0  3  0  0  0  0  0  0
  3  9  1  0  0  0  0
  4  6  1  0  0  0  0
  4  2  1  1  0  0  0
  5  3  2  0  0  0  0
  6 14  1  0  0  0  0
  7 11  1  6  0  0  0
  7 20  1  0  0  0  0
  8  6  1  0  0  0  0
 10  9  2  0  0  0  0
 11 15  2  0  0  0  0
 13 22  1  0  0  0  0
 14  1  2  0  0  0  0
 15 10  1  0  0  0  0
 16 12  1  0  0  0  0
 16 19  1  0  0  0  0
 17 15  1  0  0  0  0
 17  5  1  0  0  0  0
 18  5  1  0  0  0  0
 19 21  1  0  0  0  0
 20 10  1  6  0  0  0
 20  2  1  0  0  0  0
 21  8  1  0  0  0  0
 22 16  2  0  0  0  0
 23 12  1  6  0  0  0
 23  7  1  0  0  0  0
 23  4  1  0  0  0  0
 24 25  1  0  0  0  0
 27 26  1  0  0  0  0
 28 14  1  6  0  0  0
 28 27  1  0  0  0  0
 29 24  1  0  0  0  0
 30 32  1  0  0  0  0
 30 28  1  0  0  0  0
 31 25  1  0  0  0  0
 31 26  2  0  0  0  0
 32 29  1  6  0  0  0
 32 31  1  0  0  0  0
M  END
>  <MODEL>
6

>  <REMARK>
 VINA RESULT:      -5.4      3.259      4.643
  Name = 
  1 active torsions:
  status: ('A' for Active; 'I' for Inactive)
    1  A    between atoms: C_16  and  C_20
                            x       y       z     vdW  Elec       q    Type
                         _______ _______ _______ _____ _____    ______ ____

>  <TORSDO>
F 1

$$$$
=
 OpenBabel10232408143D

 32 37  0  0  1  0  0  0  0  0999 V2000
  185.9690  178.8500  138.1500 O   0  0  0  0  0  0  0  0  0  0  0  0
  187.7310  176.6520  138.0660 N   0  0  0  0  0  2  0  0  0  0  0  0
  191.4360  174.2630  137.5370 N   0  0  0  0  0  0  0  0  0  0  0  0
  186.7210  176.2920  137.1500 N   0  0  1  0  0  0  0  0  0  0  0  0
  191.4760  173.8800  136.2840 C   0  0  0  0  0  0  0  0  0  0  0  0
  185.4660  176.5950  137.7210 N   0  0  0  0  0  0  0  0  0  0  0  0
  188.4040  177.3390  135.8430 C   0  0  2  0  0  3  0  0  0  0  0  0
  184.4840  175.5150  137.7720 C   0  0  0  0  0  2  0  0  0  0  0  0
  190.5990  175.3470  137.9970 C   0  0  0  0  0  3  0  0  0  0  0  0
  189.8410  175.9910  137.1120 C   0  0  0  0  0  0  0  0  0  0  0  0
  189.0710  176.3210  135.0110 N   0  0  0  0  0  0  0  0  0  0  0  0
  186.2880  176.4330  134.7290 C   0  0  0  0  0  2  0  0  0  0  0  0
  182.8200  177.8540  134.3460 C   0  0  0  0  0  1  0  0  0  0  0  0
  185.1330  177.9080  138.2250 C   0  0  0  0  0  0  0  0  0  0  0  0
  189.8530  175.6160  135.7460 C   0  0  0  0  0  0  0  0  0  0  0  0
  184.7990  176.5570  134.7750 C   0  0  0  0  0  0  0  0  0  0  0  0
  190.6700  174.5410  135.2900 N   0  0  0  0  0  2  0  0  0  0  0  0
  192.3230  172.8030  135.9030 N   0  0  0  0  0  1  0  0  0  0  0  0
  183.9990  175.3930  135.2970 C   0  0  0  0  0  2  0  0  0  0  0  0
  188.8830  177.1070  137.2890 C   0  0  2  0  0  3  0  0  0  0  0  0
  183.4300  175.6850  136.6830 C   0  0  0  0  0  2  0  0  0  0  0  0
  184.2480  177.6470  134.3600 N   0  0  0  0  0  0  0  0  0  0  0  0
  186.9130  177.1030  135.9530 C   0  0  1  0  0  3  0  0  0  0  0  0
  179.9820  180.5440  140.6340 C   0  0  0  0  0  2  0  0  0  0  0  0
  180.6460  179.4960  141.3210 O   0  0  0  0  0  0  0  0  0  0  0  0
  182.5230  178.1180  140.9970 N   0  0  0  0  0  0  0  0  0  0  0  0
  183.7190  177.6720  140.2700 C   0  0  0  0  0  2  0  0  0  0  0  0
  183.7870  178.1770  138.8220 C   0  0  1  0  0  3  0  0  0  0  0  0
  180.8230  180.8110  139.3760 C   0  0  0  0  0  2  0  0  0  0  0  0
  183.3830  179.9520  138.7150 S   0  0  0  0  0  0  0  0  0  0  0  0
  181.6570  178.9760  140.5470 C   0  0  0  0  0  0  0  0  0  0  0  0
  181.6800  179.5650  139.1950 C   0  0  1  0  0  3  0  0  0  0  0  0
  1 14  2  0  0  0  0
  3  9  1  0  0  0  0
  4  6  1  0  0  0  0
  4  2  1  1  0  0  0
  5  3  2  0  0  0  0
  6  8  1  0  0  0  0
  6 14  1  0  0  0  0
  7 11  1  6  0  0  0
  7 23  1  0  0  0  0
  7 20  1  0  0  0  0
 10  9  2  0  0  0  0
 11 15  2  0  0  0  0
 12 16  1  0  0  0  0
 13 22  1  0  0  0  0
 15 10  1  0  0  0  0
 16 19  1  0  0  0  0
 17 15  1  0  0  0  0
 17  5  1  0  0  0  0
 18  5  1  0  0  0  0
 19 21  1  0  0  0  0
 20 10  1  6  0  0  0
 20  2  1  0  0  0  0
 21  8  1  0  0  0  0
 22 16  2  0  0  0  0
 23 12  1  6  0  0  0
 23  4  1  0  0  0  0
 24 25  1  0  0  0  0
 27 26  1  0  0  0  0
 28 14  1  1  0  0  0
 28 27  1  0  0  0  0
 29 24  1  0  0  0  0
 30 28  1  0  0  0  0
 30 32  1  0  0  0  0
 31 26  2  0  0  0  0
 31 25  1  0  0  0  0
 32 29  1  1  0  0  0
 32 31  1  0  0  0  0
M  END
>  <MODEL>
7

>  <REMARK>
 VINA RESULT:      -5.2      3.359      5.049
  Name = 
  1 active torsions:
  status: ('A' for Active; 'I' for Inactive)
    1  A    between atoms: C_16  and  C_20
                            x       y       z     vdW  Elec       q    Type
                         _______ _______ _______ _____ _____    ______ ____

>  <TORSDO>
F 1

$$$$
=
 OpenBabel10232408143D

 32 37  0  0  1  0  0  0  0  0999 V2000
  193.5610  171.4240  136.1430 O   0  0  0  0  0  0  0  0  0  0  0  0
  191.9870  173.5300  137.1570 N   0  0  0  0  0  2  0  0  0  0  0  0
  188.6680  176.4440  137.6120 N   0  0  0  0  0  0  0  0  0  0  0  0
  193.2180  174.1560  136.8720 N   0  0  1  0  0  0  0  0  0  0  0  0
  188.9770  177.5010  136.9010 C   0  0  0  0  0  0  0  0  0  0  0  0
  194.2620  173.3250  137.3340 N   0  0  0  0  0  0  0  0  0  0  0  0
  191.8950  174.4700  134.9260 C   0  0  2  0  0  3  0  0  0  0  0  0
  195.2450  173.9320  138.2280 C   0  0  0  0  0  2  0  0  0  0  0  0
  189.3030  175.1610  137.4220 C   0  0  0  0  0  3  0  0  0  0  0  0
  190.2370  175.0410  136.4820 C   0  0  0  0  0  0  0  0  0  0  0  0
  191.5180  175.8920  134.8240 N   0  0  0  0  0  0  0  0  0  0  0  0
  194.2690  175.4130  135.0320 C   0  0  0  0  0  2  0  0  0  0  0  0
  197.6460  173.8440  134.4590 C   0  0  0  0  0  1  0  0  0  0  0  0
  194.3890  171.9390  136.9430 C   0  0  0  0  0  0  0  0  0  0  0  0
  190.6030  176.1540  135.6850 C   0  0  0  0  0  0  0  0  0  0  0  0
  195.6850  174.9890  135.2520 C   0  0  0  0  0  0  0  0  0  0  0  0
  189.9860  177.4240  135.8760 N   0  0  0  0  0  2  0  0  0  0  0  0
  188.3120  178.7350  137.1440 N   0  0  0  0  0  1  0  0  0  0  0  0
  196.3720  175.4150  136.5230 C   0  0  0  0  0  2  0  0  0  0  0  0
  191.0610  173.8780  136.0800 C   0  0  2  0  0  3  0  0  0  0  0  0
  196.5400  174.2420  137.4850 C   0  0  0  0  0  2  0  0  0  0  0  0
  196.2760  174.2840  134.3480 N   0  0  0  0  0  0  0  0  0  0  0  0
  193.3130  174.2860  135.4220 C   0  0  1  0  0  3  0  0  0  0  0  0
  199.3860  168.2070  137.5670 C   0  0  0  0  0  2  0  0  0  0  0  0
  198.1770  167.9150  138.2470 O   0  0  0  0  0  0  0  0  0  0  0  0
  196.0310  168.8510  138.4620 N   0  0  0  0  0  0  0  0  0  0  0  0
  194.9870  169.8360  138.1490 C   0  0  0  0  0  2  0  0  0  0  0  0
  195.5160  171.1010  137.4620 C   0  0  1  0  0  3  0  0  0  0  0  0
  199.0980  169.4660  136.7350 C   0  0  0  0  0  2  0  0  0  0  0  0
  196.6810  170.6940  136.1190 S   0  0  0  0  0  0  0  0  0  0  0  0
  197.2700  168.9360  138.0800 C   0  0  0  0  0  0  0  0  0  0  0  0
  197.8520  170.0820  137.3570 C   0  0  1  0  0  3  0  0  0  0  0  0
  1 14  2  0  0  0  0
  4  2  1  6  0  0  0
  4  6  1  0  0  0  0
  5 18  1  0  0  0  0
  5  3  2  0  0  0  0
  6  8  1  0  0  0  0
  7 11  1  1  0  0  0
  7 23  1  0  0  0  0
  7 20  1  0  0  0  0
  9  3  1  0  0  0  0
 10  9  2  0  0  0  0
 11 15  2  0  0  0  0
 12 16  1  0  0  0  0
 14  6  1  0  0  0  0
 15 17  1  0  0  0  0
 15 10  1  0  0  0  0
 16 19  1  0  0  0  0
 17  5  1  0  0  0  0
 19 21  1  0  0  0  0
 20 10  1  1  0  0  0
 20  2  1  0  0  0  0
 21  8  1  0  0  0  0
 22 13  1  0  0  0  0
 22 16  2  0  0  0  0
 23 12  1  1  0  0  0
 23  4  1  0  0  0  0
 24 25  1  0  0  0  0
 27 26  1  0  0  0  0
 28 14  1  6  0  0  0
 28 27  1  0  0  0  0
 29 24  1  0  0  0  0
 30 32  1  0  0  0  0
 30 28  1  0  0  0  0
 31 25  1  0  0  0  0
 31 26  2  0  0  0  0
 32 29  1  6  0  0  0
 32 31  1  0  0  0  0
M  END
>  <MODEL>
8

>  <REMARK>
 VINA RESULT:      -4.4      5.004      9.942
  Name = 
  1 active torsions:
  status: ('A' for Active; 'I' for Inactive)
    1  A    between atoms: C_16  and  C_20
                            x       y       z     vdW  Elec       q    Type
                         _______ _______ _______ _____ _____    ______ ____

>  <TORSDO>
F 1

$$$$
=
 OpenBabel10232408143D

 32 37  0  0  1  0  0  0  0  0999 V2000
  182.8500  179.1450  141.1710 O   0  0  0  0  0  0  0  0  0  0  0  0
  182.5750  181.1250  139.1850 N   0  0  0  0  0  2  0  0  0  0  0  0
  180.7640  184.2320  136.5790 N   0  0  0  0  0  0  0  0  0  0  0  0
  183.0070  179.9960  138.4580 N   0  0  1  0  0  0  0  0  0  0  0  0
  180.2780  183.6210  135.5260 C   0  0  0  0  0  0  0  0  0  0  0  0
  184.0580  179.3790  139.1690 N   0  0  0  0  0  0  0  0  0  0  0  0
  180.6360  179.9420  138.3430 C   0  0  2  0  0  3  0  0  0  0  0  0
  185.3010  179.1430  138.4390 C   0  0  0  0  0  2  0  0  0  0  0  0
  181.0890  183.5380  137.8040 C   0  0  0  0  0  3  0  0  0  0  0  0
  180.8820  182.2250  137.8720 C   0  0  0  0  0  0  0  0  0  0  0  0
  180.2130  180.2630  136.9670 N   0  0  0  0  0  0  0  0  0  0  0  0
  182.0220  178.1360  137.1780 C   0  0  0  0  0  2  0  0  0  0  0  0
  183.6560  174.9870  138.4440 C   0  0  0  0  0  1  0  0  0  0  0  0
  183.9340  178.9720  140.5500 C   0  0  0  0  0  0  0  0  0  0  0  0
  180.3550  181.5210  136.7590 C   0  0  0  0  0  0  0  0  0  0  0  0
  183.0600  177.0980  137.4590 C   0  0  0  0  0  0  0  0  0  0  0  0
  180.0420  182.2000  135.5470 N   0  0  0  0  0  2  0  0  0  0  0  0
  179.9830  184.3670  134.3520 N   0  0  0  0  0  1  0  0  0  0  0  0
  184.4500  177.3110  136.9230 C   0  0  0  0  0  2  0  0  0  0  0  0
  181.1350  181.2600  138.9660 C   0  0  2  0  0  3  0  0  0  0  0  0
  185.4270  177.6760  138.0370 C   0  0  0  0  0  2  0  0  0  0  0  0
  182.7320  176.0520  138.1390 N   0  0  0  0  0  0  0  0  0  0  0  0
  181.8780  179.0770  138.3740 C   0  0  1  0  0  3  0  0  0  0  0  0
  188.2480  177.1630  144.7220 C   0  0  0  0  0  2  0  0  0  0  0  0
  188.6330  177.6150  143.4350 O   0  0  0  0  0  0  0  0  0  0  0  0
  187.5870  178.3870  141.4760 N   0  0  0  0  0  0  0  0  0  0  0  0
  186.4220  178.7880  140.6760 C   0  0  0  0  0  2  0  0  0  0  0  0
  185.0820  178.3210  141.2590 C   0  0  1  0  0  3  0  0  0  0  0  0
  186.7190  177.3000  144.7670 C   0  0  0  0  0  2  0  0  0  0  0  0
  184.9870  178.6370  143.0520 S   0  0  0  0  0  0  0  0  0  0  0  0
  187.5270  177.8210  142.6440 C   0  0  0  0  0  0  0  0  0  0  0  0
  186.2810  177.3990  143.3110 C   0  0  1  0  0  3  0  0  0  0  0  0
  3  9  1  0  0  0  0
  4  6  1  0  0  0  0
  4  2  1  1  0  0  0
  5 17  1  0  0  0  0
  5  3  2  0  0  0  0
  6 14  1  0  0  0  0
  7 11  1  6  0  0  0
  7 23  1  0  0  0  0
  7 20  1  0  0  0  0
  8  6  1  0  0  0  0
  9 10  2  0  0  0  0
 12 16  1  0  0  0  0
 14  1  2  0  0  0  0
 15 11  2  0  0  0  0
 15 10  1  0  0  0  0
 16 22  2  0  0  0  0
 17 15  1  0  0  0  0
 18  5  1  0  0  0  0
 19 16  1  0  0  0  0
 19 21  1  0  0  0  0
 20 10  1  6  0  0  0
 20  2  1  0  0  0  0
 21  8  1  0  0  0  0
 22 13  1  0  0  0  0
 23 12  1  6  0  0  0
 23  4  1  0  0  0  0
 24 29  1  0  0  0  0
 25 24  1  0  0  0  0
 26 31  2  0  0  0  0
 27 28  1  0  0  0  0
 27 26  1  0  0  0  0
 28 14  1  6  0  0  0
 28 30  1  0  0  0  0
 30 32  1  0  0  0  0
 31 32  1  0  0  0  0
 31 25  1  0  0  0  0
 32 29  1  1  0  0  0
M  END
>  <MODEL>
9

>  <REMARK>
 VINA RESULT:      -4.4      5.924     10.289
  Name = 
  1 active torsions:
  status: ('A' for Active; 'I' for Inactive)
    1  A    between atoms: C_16  and  C_20
                            x       y       z     vdW  Elec       q    Type
                         _______ _______ _______ _____ _____    ______ ____

>  <TORSDO>
F 1

$$$$
