=
 OpenBabel10232412413D

 37 42  0  0  1  0  0  0  0  0999 V2000
  182.3270  179.0560  144.0540 C   0  0  0  0  0  3  0  0  0  0  0  0
  187.0780  177.2700  143.0600 C   0  0  0  0  0  3  0  0  0  0  0  0
  186.4020  178.4370  146.4940 C   0  0  0  0  0  3  0  0  0  0  0  0
  182.9560  178.7850  142.8540 C   0  0  0  0  0  0  0  0  0  0  0  0
  184.3280  178.5180  142.7740 C   0  0  0  0  0  0  0  0  0  0  0  0
  183.0660  179.0550  145.1900 N   0  0  0  0  0  0  0  0  0  0  0  0
  185.2440  178.6010  138.7230 N   0  0  0  0  0  0  0  0  0  0  0  0
  189.0530  176.9260  144.3900 C   0  0  0  0  0  3  0  0  0  0  0  0
  186.0050  178.4640  140.9540 N   0  0  0  0  0  0  0  0  0  0  0  0
  185.0670  178.7980  146.4120 C   0  0  0  0  0  3  0  0  0  0  0  0
  186.4230  177.9130  144.1160 C   0  0  0  0  0  0  0  0  0  0  0  0
  188.3770  176.7880  143.1850 C   0  0  0  0  0  3  0  0  0  0  0  0
  184.7310  178.4880  141.4110 C   0  0  0  0  0  0  0  0  0  0  0  0
  184.3960  178.7580  145.1950 C   0  0  0  0  0  0  0  0  0  0  0  0
  182.2430  178.8720  141.3360 S   0  0  0  0  0  0  0  0  0  0  0  0
  183.9440  178.6690  139.1210 C   0  0  0  0  0  0  0  0  0  0  0  0
  183.6820  178.6280  140.5020 C   0  0  0  0  0  0  0  0  0  0  0  0
  188.4380  177.5240  145.4920 C   0  0  0  0  0  0  0  0  0  0  0  0
  187.0980  177.9820  145.3740 C   0  0  0  0  0  0  0  0  0  0  0  0
  186.2660  178.5020  139.6190 C   0  0  0  0  0  0  0  0  0  0  0  0
  185.0820  178.4000  143.9920 C   0  0  0  0  0  0  0  0  0  0  0  0
  182.7080  177.8360  137.1090 C   0  0  0  0  0  1  0  0  0  0  0  0
  182.9570  178.7910  138.1300 O   0  0  0  0  0  0  0  0  0  0  0  0
  189.2060  177.6000  146.7030 N   0  0  0  0  0  2  0  0  0  0  0  0
  190.0530  176.5820  147.1620 N   0  0  0  0  0  2  0  0  0  0  0  0
  191.9150  177.4410  146.0460 O   0  0  0  0  0  0  0  0  0  0  0  0
  191.4330  176.5530  146.8000 C   0  0  0  0  0  0  0  0  0  0  0  0
  193.0400  175.8970  148.4610 N   0  0  0  0  0  1  0  0  0  0  0  0
  192.3010  175.4520  147.2930 C   0  0  0  0  0  2  0  0  0  0  0  0
  187.6710  178.4620  139.1370 C   0  0  0  0  0  2  0  0  0  0  0  0
  187.8740  177.3100  138.3770 O   0  0  0  0  0  0  0  0  0  0  0  0
  189.0230  176.7270  138.9120 C   0  0  2  0  0  3  0  0  0  0  0  0
  189.8300  177.7810  139.6670 C   0  0  0  0  0  2  0  0  0  0  0  0
  191.8970  176.5780  138.9540 C   0  0  0  0  0  2  0  0  0  0  0  0
  191.0840  175.5320  138.3370 N   0  0  0  0  0  2  0  0  0  0  0  0
  189.8770  176.1460  137.7840 C   0  0  0  0  0  2  0  0  0  0  0  0
  191.1550  177.1890  140.1420 C   0  0  0  0  0  2  0  0  0  0  0  0
  1  6  1  0  0  0  0
  2 12  2  0  0  0  0
  2 11  1  0  0  0  0
  4  1  2  0  0  0  0
  5  4  1  0  0  0  0
  5 21  2  0  0  0  0
  6 14  2  0  0  0  0
  7 16  2  0  0  0  0
  7 20  1  0  0  0  0
  8 18  2  0  0  0  0
  9 13  1  0  0  0  0
 10  3  2  0  0  0  0
 11 19  2  0  0  0  0
 12  8  1  0  0  0  0
 13  5  1  0  0  0  0
 14 10  1  0  0  0  0
 15  4  1  0  0  0  0
 16 17  1  0  0  0  0
 17 15  1  0  0  0  0
 17 13  2  0  0  0  0
 18 24  1  0  0  0  0
 19 18  1  0  0  0  0
 19  3  1  0  0  0  0
 20  9  2  0  0  0  0
 21 11  1  0  0  0  0
 21 14  1  0  0  0  0
 22 23  1  0  0  0  0
 23 16  1  0  0  0  0
 24 25  1  0  0  0  0
 26 27  2  0  0  0  0
 27 25  1  0  0  0  0
 27 29  1  0  0  0  0
 29 28  1  0  0  0  0
 30 20  1  0  0  0  0
 31 30  1  0  0  0  0
 32 31  1  6  0  0  0
 32 33  1  0  0  0  0
 33 37  1  0  0  0  0
 34 37  1  0  0  0  0
 35 34  1  0  0  0  0
 36 35  1  0  0  0  0
 36 32  1  0  0  0  0
M  END
>  <MODEL>
1

>  <REMARK>
 VINA RESULT:     -10.4      0.000      0.000
  Name = 
  7 active torsions:
  status: ('A' for Active; 'I' for Inactive)
    1  A    between atoms: N_1  and  N_9
    2  A    between atoms: N_1  and  C_30
    3  A    between atoms: C_7  and  O_31
    4  A    between atoms: C_15  and  O_31
    5  A    between atoms: C_15  and  C_34
    6  A    between atoms: O_20  and  C_26
    7  A    between atoms: C_22  and  C_35
                            x       y       z     vdW  Elec       q    Type
                         _______ _______ _______ _____ _____    ______ ____

>  <TORSDO>
F 7

$$$$
=
 OpenBabel10232412413D

 37 42  0  0  1  0  0  0  0  0999 V2000
  190.4760  177.3590  145.0510 C   0  0  0  0  0  3  0  0  0  0  0  0
  186.7470  178.6710  141.7150 C   0  0  0  0  0  3  0  0  0  0  0  0
  185.7170  177.8880  145.1710 C   0  0  0  0  0  3  0  0  0  0  0  0
  190.4940  177.4660  143.6730 C   0  0  0  0  0  0  0  0  0  0  0  0
  189.3240  177.6170  142.9210 C   0  0  0  0  0  0  0  0  0  0  0  0
  189.2830  177.4100  145.6900 N   0  0  0  0  0  0  0  0  0  0  0  0
  190.4680  177.0830  138.9630 N   0  0  0  0  0  0  0  0  0  0  0  0
  184.3690  178.9850  141.8970 C   0  0  0  0  0  3  0  0  0  0  0  0
  188.7260  177.3700  140.5310 N   0  0  0  0  0  0  0  0  0  0  0  0
  186.9360  177.6260  145.7750 C   0  0  0  0  0  3  0  0  0  0  0  0
  186.8290  178.1830  143.0240 C   0  0  0  0  0  0  0  0  0  0  0  0
  185.5380  179.0610  141.1500 C   0  0  0  0  0  3  0  0  0  0  0  0
  189.6250  177.4880  141.5370 C   0  0  0  0  0  0  0  0  0  0  0  0
  188.1070  177.6030  145.0280 C   0  0  0  0  0  0  0  0  0  0  0  0
  191.8510  177.2920  142.6980 S   0  0  0  0  0  0  0  0  0  0  0  0
  191.4190  177.1530  139.9350 C   0  0  0  0  0  0  0  0  0  0  0  0
  190.9840  177.3440  141.2590 C   0  0  0  0  0  0  0  0  0  0  0  0
  184.3930  178.5430  143.2210 C   0  0  0  0  0  0  0  0  0  0  0  0
  185.6340  178.1810  143.8090 C   0  0  0  0  0  0  0  0  0  0  0  0
  189.1400  177.1860  139.2470 C   0  0  0  0  0  0  0  0  0  0  0  0
  188.0760  177.7920  143.6100 C   0  0  0  0  0  0  0  0  0  0  0  0
  193.2050  176.5670  138.2810 C   0  0  0  0  0  1  0  0  0  0  0  0
  192.7630  177.0150  139.5540 O   0  0  0  0  0  0  0  0  0  0  0  0
  183.1390  178.5220  143.9220 N   0  0  0  0  0  2  0  0  0  0  0  0
  182.1460  179.5020  143.7860 N   0  0  0  0  0  2  0  0  0  0  0  0
  180.9070  178.2320  142.2690 O   0  0  0  0  0  0  0  0  0  0  0  0
  181.0230  179.2990  142.9320 C   0  0  0  0  0  0  0  0  0  0  0  0
  179.9950  180.8800  141.4420 N   0  0  0  0  0  1  0  0  0  0  0  0
  179.9940  180.3640  142.8000 C   0  0  0  0  0  2  0  0  0  0  0  0
  188.1380  177.0730  138.1560 C   0  0  0  0  0  2  0  0  0  0  0  0
  187.0870  177.9590  138.3890 O   0  0  0  0  0  0  0  0  0  0  0  0
  186.3380  177.9430  137.2120 C   0  0  2  0  0  3  0  0  0  0  0  0
  185.0100  177.2310  137.4570 C   0  0  0  0  0  2  0  0  0  0  0  0
  185.1240  176.4010  135.1060 C   0  0  0  0  0  2  0  0  0  0  0  0
  186.3370  177.1870  134.8810 N   0  0  0  0  0  2  0  0  0  0  0  0
  187.1150  177.2070  136.1190 C   0  0  0  0  0  2  0  0  0  0  0  0
  184.2400  177.0870  136.1460 C   0  0  0  0  0  2  0  0  0  0  0  0
  1  6  1  0  0  0  0
  2 11  1  0  0  0  0
  3 10  2  0  0  0  0
  4  1  2  0  0  0  0
  5 21  2  0  0  0  0
  5  4  1  0  0  0  0
  7 20  1  0  0  0  0
  7 16  2  0  0  0  0
  8 18  2  0  0  0  0
  9 13  1  0  0  0  0
 11 21  1  0  0  0  0
 11 19  2  0  0  0  0
 12  2  2  0  0  0  0
 12  8  1  0  0  0  0
 13  5  1  0  0  0  0
 14  6  2  0  0  0  0
 14 10  1  0  0  0  0
 15  4  1  0  0  0  0
 16 17  1  0  0  0  0
 17 13  2  0  0  0  0
 17 15  1  0  0  0  0
 18 19  1  0  0  0  0
 18 24  1  0  0  0  0
 19  3  1  0  0  0  0
 20  9  2  0  0  0  0
 21 14  1  0  0  0  0
 22 23  1  0  0  0  0
 23 16  1  0  0  0  0
 25 24  1  0  0  0  0
 26 27  2  0  0  0  0
 27 25  1  0  0  0  0
 28 29  1  0  0  0  0
 29 27  1  0  0  0  0
 30 31  1  0  0  0  0
 30 20  1  0  0  0  0
 32 33  1  0  0  0  0
 32 31  1  1  0  0  0
 34 37  1  0  0  0  0
 35 34  1  0  0  0  0
 35 36  1  0  0  0  0
 36 32  1  0  0  0  0
 37 33  1  0  0  0  0
M  END
>  <MODEL>
2

>  <REMARK>
 VINA RESULT:      -9.2      2.772      7.096
  Name = 
  7 active torsions:
  status: ('A' for Active; 'I' for Inactive)
    1  A    between atoms: N_1  and  N_9
    2  A    between atoms: N_1  and  C_30
    3  A    between atoms: C_7  and  O_31
    4  A    between atoms: C_15  and  O_31
    5  A    between atoms: C_15  and  C_34
    6  A    between atoms: O_20  and  C_26
    7  A    between atoms: C_22  and  C_35
                            x       y       z     vdW  Elec       q    Type
                         _______ _______ _______ _____ _____    ______ ____

>  <TORSDO>
F 7

$$$$
=
 OpenBabel10232412413D

 37 42  0  0  1  0  0  0  0  0999 V2000
  185.4610  178.7600  138.3160 C   0  0  0  0  0  3  0  0  0  0  0  0
  189.7370  178.0860  141.1480 C   0  0  0  0  0  3  0  0  0  0  0  0
  189.9320  177.2120  137.5680 C   0  0  0  0  0  3  0  0  0  0  0  0
  185.6450  178.7570  139.6850 C   0  0  0  0  0  0  0  0  0  0  0  0
  186.8410  178.3330  140.2760 C   0  0  0  0  0  0  0  0  0  0  0  0
  186.4780  178.3460  137.5230 N   0  0  0  0  0  0  0  0  0  0  0  0
  186.0280  178.0300  144.3390 N   0  0  0  0  0  0  0  0  0  0  0  0
  191.9790  177.3670  140.6540 C   0  0  0  0  0  3  0  0  0  0  0  0
  187.5350  177.6670  142.5580 N   0  0  0  0  0  0  0  0  0  0  0  0
  188.6610  177.5440  137.1270 C   0  0  0  0  0  3  0  0  0  0  0  0
  189.3050  177.7850  139.8510 C   0  0  0  0  0  0  0  0  0  0  0  0
  191.0500  177.8760  141.5530 C   0  0  0  0  0  3  0  0  0  0  0  0
  186.6710  178.2360  141.6850 C   0  0  0  0  0  0  0  0  0  0  0  0
  187.6870  177.9650  138.0250 C   0  0  0  0  0  0  0  0  0  0  0  0
  184.4660  179.1030  140.8300 S   0  0  0  0  0  0  0  0  0  0  0  0
  185.1000  178.5760  143.5060 C   0  0  0  0  0  0  0  0  0  0  0  0
  185.4240  178.6660  142.1400 C   0  0  0  0  0  0  0  0  0  0  0  0
  191.6180  177.0830  139.3360 C   0  0  0  0  0  0  0  0  0  0  0  0
  190.2850  177.3330  138.9120 C   0  0  0  0  0  0  0  0  0  0  0  0
  187.2290  177.5780  143.8810 C   0  0  0  0  0  0  0  0  0  0  0  0
  187.9560  178.0110  139.4290 C   0  0  0  0  0  0  0  0  0  0  0  0
  183.4880  178.7900  145.4100 C   0  0  0  0  0  1  0  0  0  0  0  0
  183.8810  178.9960  144.0620 O   0  0  0  0  0  0  0  0  0  0  0  0
  192.6510  176.5830  138.4720 N   0  0  0  0  0  2  0  0  0  0  0  0
  193.8460  176.0080  138.9270 N   0  0  0  0  0  2  0  0  0  0  0  0
  193.8000  174.3130  137.3220 O   0  0  0  0  0  0  0  0  0  0  0  0
  194.3910  174.8500  138.2970 C   0  0  0  0  0  0  0  0  0  0  0  0
  196.2560  175.1550  139.7820 N   0  0  0  0  0  1  0  0  0  0  0  0
  195.6530  174.2570  138.8130 C   0  0  0  0  0  2  0  0  0  0  0  0
  188.1970  176.9620  144.8250 C   0  0  0  0  0  2  0  0  0  0  0  0
  188.4930  177.8620  145.8480 O   0  0  0  0  0  0  0  0  0  0  0  0
  189.8570  177.6940  146.0890 C   0  0  2  0  0  3  0  0  0  0  0  0
  190.4350  176.6930  145.0900 C   0  0  0  0  0  2  0  0  0  0  0  0
  192.0040  175.9490  146.8820 C   0  0  0  0  0  2  0  0  0  0  0  0
  191.4960  176.9940  147.7700 N   0  0  0  0  0  2  0  0  0  0  0  0
  190.0680  177.1720  147.5110 C   0  0  0  0  0  2  0  0  0  0  0  0
  191.8950  176.3980  145.4260 C   0  0  0  0  0  2  0  0  0  0  0  0
  1  4  1  0  0  0  0
  2 12  1  0  0  0  0
  3 19  1  0  0  0  0
  4  5  2  0  0  0  0
  4 15  1  0  0  0  0
  5 13  1  0  0  0  0
  6 14  1  0  0  0  0
  6  1  2  0  0  0  0
  8 12  2  0  0  0  0
  9 20  2  0  0  0  0
 10  3  2  0  0  0  0
 10 14  1  0  0  0  0
 11  2  2  0  0  0  0
 13 17  2  0  0  0  0
 13  9  1  0  0  0  0
 14 21  2  0  0  0  0
 15 17  1  0  0  0  0
 16 23  1  0  0  0  0
 16  7  2  0  0  0  0
 17 16  1  0  0  0  0
 18  8  1  0  0  0  0
 19 18  2  0  0  0  0
 19 11  1  0  0  0  0
 20  7  1  0  0  0  0
 20 30  1  0  0  0  0
 21 11  1  0  0  0  0
 21  5  1  0  0  0  0
 23 22  1  0  0  0  0
 24 25  1  0  0  0  0
 24 18  1  0  0  0  0
 26 27  2  0  0  0  0
 27 29  1  0  0  0  0
 27 25  1  0  0  0  0
 29 28  1  0  0  0  0
 30 31  1  0  0  0  0
 32 31  1  6  0  0  0
 32 36  1  0  0  0  0
 33 37  1  0  0  0  0
 33 32  1  0  0  0  0
 34 35  1  0  0  0  0
 36 35  1  0  0  0  0
 37 34  1  0  0  0  0
M  END
>  <MODEL>
3

>  <REMARK>
 VINA RESULT:      -8.6      2.467      6.905
  Name = 
  7 active torsions:
  status: ('A' for Active; 'I' for Inactive)
    1  A    between atoms: N_1  and  N_9
    2  A    between atoms: N_1  and  C_30
    3  A    between atoms: C_7  and  O_31
    4  A    between atoms: C_15  and  O_31
    5  A    between atoms: C_15  and  C_34
    6  A    between atoms: O_20  and  C_26
    7  A    between atoms: C_22  and  C_35
                            x       y       z     vdW  Elec       q    Type
                         _______ _______ _______ _____ _____    ______ ____

>  <TORSDO>
F 7

$$$$
=
 OpenBabel10232412413D

 37 42  0  0  1  0  0  0  0  0999 V2000
  188.8850  177.4530  146.0490 C   0  0  0  0  0  3  0  0  0  0  0  0
  188.5540  177.1140  140.8990 C   0  0  0  0  0  3  0  0  0  0  0  0
  191.9360  177.3250  142.3600 C   0  0  0  0  0  3  0  0  0  0  0  0
  187.8030  177.6030  145.2030 C   0  0  0  0  0  0  0  0  0  0  0  0
  187.9500  177.6970  143.8140 C   0  0  0  0  0  0  0  0  0  0  0  0
  190.1270  177.3870  145.5110 N   0  0  0  0  0  0  0  0  0  0  0  0
  184.2290  178.8590  142.3780 N   0  0  0  0  0  0  0  0  0  0  0  0
  190.1690  176.9780  139.1200 C   0  0  0  0  0  3  0  0  0  0  0  0
  186.5110  178.4370  141.9400 N   0  0  0  0  0  0  0  0  0  0  0  0
  191.6560  177.3630  143.7160 C   0  0  0  0  0  3  0  0  0  0  0  0
  189.5540  177.3400  141.8510 C   0  0  0  0  0  0  0  0  0  0  0  0
  188.8480  176.9420  139.5500 C   0  0  0  0  0  3  0  0  0  0  0  0
  186.7070  178.0560  143.2250 C   0  0  0  0  0  0  0  0  0  0  0  0
  190.3420  177.4240  144.1660 C   0  0  0  0  0  0  0  0  0  0  0  0
  186.2120  177.8380  145.6840 S   0  0  0  0  0  0  0  0  0  0  0  0
  184.3700  178.5270  143.6910 C   0  0  0  0  0  0  0  0  0  0  0  0
  185.6470  178.1310  144.1280 C   0  0  0  0  0  0  0  0  0  0  0  0
  191.2130  177.1620  140.0280 C   0  0  0  0  0  0  0  0  0  0  0  0
  190.9140  177.2990  141.4110 C   0  0  0  0  0  0  0  0  0  0  0  0
  185.2780  178.8200  141.5090 C   0  0  0  0  0  0  0  0  0  0  0  0
  189.2540  177.5060  143.2410 C   0  0  0  0  0  0  0  0  0  0  0  0
  181.9140  178.8400  144.0630 C   0  0  0  0  0  1  0  0  0  0  0  0
  183.2400  178.6170  144.5190 O   0  0  0  0  0  0  0  0  0  0  0  0
  192.5460  177.1600  139.4940 N   0  0  0  0  0  2  0  0  0  0  0  0
  192.8600  176.8540  138.1630 N   0  0  0  0  0  2  0  0  0  0  0  0
  194.5940  175.4090  138.7590 O   0  0  0  0  0  0  0  0  0  0  0  0
  193.9130  175.9470  137.8440 C   0  0  0  0  0  0  0  0  0  0  0  0
  194.8480  176.8170  135.8090 N   0  0  0  0  0  1  0  0  0  0  0  0
  194.2290  175.6550  136.4210 C   0  0  0  0  0  2  0  0  0  0  0  0
  185.0810  179.2210  140.0920 C   0  0  0  0  0  2  0  0  0  0  0  0
  185.9860  178.5370  139.2800 O   0  0  0  0  0  0  0  0  0  0  0  0
  185.3190  178.3680  138.0670 C   0  0  2  0  0  3  0  0  0  0  0  0
  183.9400  177.7620  138.3170 C   0  0  0  0  0  2  0  0  0  0  0  0
  184.1680  176.5690  136.1370 C   0  0  0  0  0  2  0  0  0  0  0  0
  185.4340  177.2560  135.8860 N   0  0  0  0  0  2  0  0  0  0  0  0
  186.1270  177.4370  137.1610 C   0  0  0  0  0  2  0  0  0  0  0  0
  183.2540  177.4470  136.9900 C   0  0  0  0  0  2  0  0  0  0  0  0
  2 11  1  0  0  0  0
  3 10  2  0  0  0  0
  4 15  1  0  0  0  0
  4  1  2  0  0  0  0
  5  4  1  0  0  0  0
  6  1  1  0  0  0  0
  7 16  2  0  0  0  0
  8 12  1  0  0  0  0
  8 18  2  0  0  0  0
  9 13  1  0  0  0  0
 10 14  1  0  0  0  0
 11 21  1  0  0  0  0
 12  2  2  0  0  0  0
 13  5  1  0  0  0  0
 13 17  2  0  0  0  0
 14  6  2  0  0  0  0
 16 17  1  0  0  0  0
 16 23  1  0  0  0  0
 17 15  1  0  0  0  0
 18 19  1  0  0  0  0
 19 11  2  0  0  0  0
 19  3  1  0  0  0  0
 20  9  2  0  0  0  0
 20  7  1  0  0  0  0
 21  5  2  0  0  0  0
 21 14  1  0  0  0  0
 22 23  1  0  0  0  0
 24 18  1  0  0  0  0
 25 24  1  0  0  0  0
 27 25  1  0  0  0  0
 27 26  2  0  0  0  0
 28 29  1  0  0  0  0
 29 27  1  0  0  0  0
 30 20  1  0  0  0  0
 31 30  1  0  0  0  0
 32 33  1  0  0  0  0
 32 31  1  1  0  0  0
 34 37  1  0  0  0  0
 35 34  1  0  0  0  0
 35 36  1  0  0  0  0
 36 32  1  0  0  0  0
 37 33  1  0  0  0  0
M  END
>  <MODEL>
4

>  <REMARK>
 VINA RESULT:      -8.6      2.611      6.338
  Name = 
  7 active torsions:
  status: ('A' for Active; 'I' for Inactive)
    1  A    between atoms: N_1  and  N_9
    2  A    between atoms: N_1  and  C_30
    3  A    between atoms: C_7  and  O_31
    4  A    between atoms: C_15  and  O_31
    5  A    between atoms: C_15  and  C_34
    6  A    between atoms: O_20  and  C_26
    7  A    between atoms: C_22  and  C_35
                            x       y       z     vdW  Elec       q    Type
                         _______ _______ _______ _____ _____    ______ ____

>  <TORSDO>
F 7

$$$$
=
 OpenBabel10232412413D

 37 42  0  0  1  0  0  0  0  0999 V2000
  188.9100  177.4480  146.0070 C   0  0  0  0  0  3  0  0  0  0  0  0
  188.5390  177.1160  140.8590 C   0  0  0  0  0  3  0  0  0  0  0  0
  191.9320  177.3280  142.2940 C   0  0  0  0  0  3  0  0  0  0  0  0
  187.8210  177.5980  145.1700 C   0  0  0  0  0  0  0  0  0  0  0  0
  187.9570  177.6940  143.7800 C   0  0  0  0  0  0  0  0  0  0  0  0
  190.1470  177.3840  145.4600 N   0  0  0  0  0  0  0  0  0  0  0  0
  184.2240  178.8550  142.3740 N   0  0  0  0  0  0  0  0  0  0  0  0
  190.1400  176.9850  139.0680 C   0  0  0  0  0  3  0  0  0  0  0  0
  186.5030  178.4350  141.9180 N   0  0  0  0  0  0  0  0  0  0  0  0
  191.6620  177.3640  143.6520 C   0  0  0  0  0  3  0  0  0  0  0  0
  189.5460  177.3420  141.8040 C   0  0  0  0  0  0  0  0  0  0  0  0
  188.8230  176.9460  139.5080 C   0  0  0  0  0  3  0  0  0  0  0  0
  186.7090  178.0530  143.2010 C   0  0  0  0  0  0  0  0  0  0  0  0
  190.3520  177.4230  144.1130 C   0  0  0  0  0  0  0  0  0  0  0  0
  186.2330  177.8310  145.6640 S   0  0  0  0  0  0  0  0  0  0  0  0
  184.3750  178.5210  143.6850 C   0  0  0  0  0  0  0  0  0  0  0  0
  185.6560  178.1250  144.1120 C   0  0  0  0  0  0  0  0  0  0  0  0
  191.1910  177.1680  139.9680 C   0  0  0  0  0  0  0  0  0  0  0  0
  190.9030  177.3030  141.3530 C   0  0  0  0  0  0  0  0  0  0  0  0
  185.2660  178.8180  141.4970 C   0  0  0  0  0  0  0  0  0  0  0  0
  189.2560  177.5050  143.1970 C   0  0  0  0  0  0  0  0  0  0  0  0
  181.9240  178.8430  144.0780 C   0  0  0  0  0  1  0  0  0  0  0  0
  183.2520  178.6090  144.5220 O   0  0  0  0  0  0  0  0  0  0  0  0
  192.5210  177.1680  139.4240 N   0  0  0  0  0  2  0  0  0  0  0  0
  192.8400  176.7370  138.1290 N   0  0  0  0  0  2  0  0  0  0  0  0
  194.6620  175.4690  138.8540 O   0  0  0  0  0  0  0  0  0  0  0  0
  193.9430  175.8630  137.8960 C   0  0  0  0  0  0  0  0  0  0  0  0
  194.9990  176.4860  135.8300 N   0  0  0  0  0  1  0  0  0  0  0  0
  194.2630  175.4340  136.5090 C   0  0  0  0  0  2  0  0  0  0  0  0
  185.0580  179.2210  140.0830 C   0  0  0  0  0  2  0  0  0  0  0  0
  184.6130  178.1260  139.3420 O   0  0  0  0  0  0  0  0  0  0  0  0
  183.4130  178.5460  138.7690 C   0  0  2  0  0  3  0  0  0  0  0  0
  183.2740  180.0600  138.9170 C   0  0  0  0  0  2  0  0  0  0  0  0
  180.8110  179.7230  139.1260 C   0  0  0  0  0  2  0  0  0  0  0  0
  180.9780  178.2920  138.8710 N   0  0  0  0  0  2  0  0  0  0  0  0
  182.2400  177.8580  139.4680 C   0  0  0  0  0  2  0  0  0  0  0  0
  181.9060  180.5150  138.4150 C   0  0  0  0  0  2  0  0  0  0  0  0
  2 11  1  0  0  0  0
  3 10  2  0  0  0  0
  4 15  1  0  0  0  0
  4  1  2  0  0  0  0
  5  4  1  0  0  0  0
  6  1  1  0  0  0  0
  7 16  2  0  0  0  0
  8 12  1  0  0  0  0
  8 18  2  0  0  0  0
  9 13  1  0  0  0  0
 10 14  1  0  0  0  0
 11 21  1  0  0  0  0
 12  2  2  0  0  0  0
 13  5  1  0  0  0  0
 13 17  2  0  0  0  0
 14  6  2  0  0  0  0
 16 17  1  0  0  0  0
 16 23  1  0  0  0  0
 17 15  1  0  0  0  0
 18 19  1  0  0  0  0
 19 11  2  0  0  0  0
 19  3  1  0  0  0  0
 20  9  2  0  0  0  0
 20  7  1  0  0  0  0
 21  5  2  0  0  0  0
 21 14  1  0  0  0  0
 22 23  1  0  0  0  0
 24 18  1  0  0  0  0
 25 24  1  0  0  0  0
 27 25  1  0  0  0  0
 27 26  2  0  0  0  0
 28 29  1  0  0  0  0
 29 27  1  0  0  0  0
 30 20  1  0  0  0  0
 31 30  1  0  0  0  0
 32 33  1  0  0  0  0
 32 31  1  1  0  0  0
 32 36  1  0  0  0  0
 35 34  1  0  0  0  0
 35 36  1  0  0  0  0
 37 33  1  0  0  0  0
 37 34  1  0  0  0  0
M  END
>  <MODEL>
5

>  <REMARK>
 VINA RESULT:      -8.3      2.696      6.844
  Name = 
  7 active torsions:
  status: ('A' for Active; 'I' for Inactive)
    1  A    between atoms: N_1  and  N_9
    2  A    between atoms: N_1  and  C_30
    3  A    between atoms: C_7  and  O_31
    4  A    between atoms: C_15  and  O_31
    5  A    between atoms: C_15  and  C_34
    6  A    between atoms: O_20  and  C_26
    7  A    between atoms: C_22  and  C_35
                            x       y       z     vdW  Elec       q    Type
                         _______ _______ _______ _____ _____    ______ ____

>  <TORSDO>
F 7

$$$$
=
 OpenBabel10232412413D

 37 42  0  0  1  0  0  0  0  0999 V2000
  190.9170  177.0470  140.3100 C   0  0  0  0  0  3  0  0  0  0  0  0
  186.3230  178.8070  141.9090 C   0  0  0  0  0  3  0  0  0  0  0  0
  188.3870  177.0010  144.3770 C   0  0  0  0  0  3  0  0  0  0  0  0
  189.8360  177.5290  139.5960 C   0  0  0  0  0  0  0  0  0  0  0  0
  188.5890  177.7510  140.1890 C   0  0  0  0  0  0  0  0  0  0  0  0
  190.7590  176.7910  141.6310 N   0  0  0  0  0  0  0  0  0  0  0  0
  185.9680  178.4480  137.0420 N   0  0  0  0  0  0  0  0  0  0  0  0
  185.1650  178.7980  144.0180 C   0  0  0  0  0  3  0  0  0  0  0  0
  186.2830  178.1030  139.3560 N   0  0  0  0  0  0  0  0  0  0  0  0
  189.5250  176.7170  143.6400 C   0  0  0  0  0  3  0  0  0  0  0  0
  187.3420  177.9910  142.4120 C   0  0  0  0  0  0  0  0  0  0  0  0
  185.2430  179.2020  142.6910 C   0  0  0  0  0  3  0  0  0  0  0  0
  187.6250  178.0390  139.1840 C   0  0  0  0  0  0  0  0  0  0  0  0
  189.5880  177.0280  142.2860 C   0  0  0  0  0  0  0  0  0  0  0  0
  189.7960  177.7770  137.9350 S   0  0  0  0  0  0  0  0  0  0  0  0
  187.3030  178.3530  136.7970 C   0  0  0  0  0  0  0  0  0  0  0  0
  188.1520  178.1260  137.8950 C   0  0  0  0  0  0  0  0  0  0  0  0
  186.1710  178.0160  144.5880 C   0  0  0  0  0  0  0  0  0  0  0  0
  187.2930  177.6440  143.7980 C   0  0  0  0  0  0  0  0  0  0  0  0
  185.4560  178.3240  138.2980 C   0  0  0  0  0  0  0  0  0  0  0  0
  188.4600  177.5930  141.6110 C   0  0  0  0  0  0  0  0  0  0  0  0
  187.8990  177.3890  134.5640 C   0  0  0  0  0  1  0  0  0  0  0  0
  187.7400  178.4720  135.4680 O   0  0  0  0  0  0  0  0  0  0  0  0
  186.0170  177.6670  145.9730 N   0  0  0  0  0  2  0  0  0  0  0  0
  186.6630  178.3280  147.0270 N   0  0  0  0  0  2  0  0  0  0  0  0
  188.0360  176.5030  147.5120 O   0  0  0  0  0  0  0  0  0  0  0  0
  187.6930  177.6870  147.7770 C   0  0  0  0  0  0  0  0  0  0  0  0
  189.7880  178.4140  148.7030 N   0  0  0  0  0  1  0  0  0  0  0  0
  188.3490  178.4120  148.8970 C   0  0  0  0  0  2  0  0  0  0  0  0
  183.9880  178.4050  138.5110 C   0  0  0  0  0  2  0  0  0  0  0  0
  183.6750  179.5870  139.1840 O   0  0  0  0  0  0  0  0  0  0  0  0
  182.3540  179.4220  139.6000 C   0  0  2  0  0  3  0  0  0  0  0  0
  182.2930  178.3800  140.7160 C   0  0  0  0  0  2  0  0  0  0  0  0
  180.0600  177.6980  139.8340 C   0  0  0  0  0  2  0  0  0  0  0  0
  180.1110  178.7800  138.8510 N   0  0  0  0  0  2  0  0  0  0  0  0
  181.4980  178.9550  138.4220 C   0  0  0  0  0  2  0  0  0  0  0  0
  180.8410  178.0910  141.0880 C   0  0  0  0  0  2  0  0  0  0  0  0
  1  6  1  0  0  0  0
  2 11  2  0  0  0  0
  2 12  1  0  0  0  0
  4  5  1  0  0  0  0
  4  1  2  0  0  0  0
  5 21  2  0  0  0  0
  6 14  2  0  0  0  0
  7 20  1  0  0  0  0
  8 18  1  0  0  0  0
 10  3  2  0  0  0  0
 11 19  1  0  0  0  0
 12  8  2  0  0  0  0
 13  9  1  0  0  0  0
 13  5  1  0  0  0  0
 14 10  1  0  0  0  0
 15  4  1  0  0  0  0
 16  7  2  0  0  0  0
 16 17  1  0  0  0  0
 17 15  1  0  0  0  0
 17 13  2  0  0  0  0
 18 24  1  0  0  0  0
 19  3  1  0  0  0  0
 19 18  2  0  0  0  0
 20 30  1  0  0  0  0
 20  9  2  0  0  0  0
 21 14  1  0  0  0  0
 21 11  1  0  0  0  0
 22 23  1  0  0  0  0
 23 16  1  0  0  0  0
 24 25  1  0  0  0  0
 25 27  1  0  0  0  0
 26 27  2  0  0  0  0
 27 29  1  0  0  0  0
 28 29  1  0  0  0  0
 30 31  1  0  0  0  0
 32 31  1  6  0  0  0
 32 33  1  0  0  0  0
 33 37  1  0  0  0  0
 34 37  1  0  0  0  0
 35 34  1  0  0  0  0
 36 35  1  0  0  0  0
 36 32  1  0  0  0  0
M  END
>  <MODEL>
6

>  <REMARK>
 VINA RESULT:      -8.3      2.620      5.961
  Name = 
  7 active torsions:
  status: ('A' for Active; 'I' for Inactive)
    1  A    between atoms: N_1  and  N_9
    2  A    between atoms: N_1  and  C_30
    3  A    between atoms: C_7  and  O_31
    4  A    between atoms: C_15  and  O_31
    5  A    between atoms: C_15  and  C_34
    6  A    between atoms: O_20  and  C_26
    7  A    between atoms: C_22  and  C_35
                            x       y       z     vdW  Elec       q    Type
                         _______ _______ _______ _____ _____    ______ ____

>  <TORSDO>
F 7

$$$$
=
 OpenBabel10232412413D

 37 42  0  0  1  0  0  0  0  0999 V2000
  183.2770  178.9400  142.1050 C   0  0  0  0  0  3  0  0  0  0  0  0
  188.0370  176.9730  142.5820 C   0  0  0  0  0  3  0  0  0  0  0  0
  186.4600  178.3270  145.6310 C   0  0  0  0  0  3  0  0  0  0  0  0
  184.2100  178.5920  141.1470 C   0  0  0  0  0  0  0  0  0  0  0  0
  185.5350  178.2830  141.4730 C   0  0  0  0  0  0  0  0  0  0  0  0
  183.6620  178.9740  143.4040 N   0  0  0  0  0  0  0  0  0  0  0  0
  187.5690  178.1400  137.8540 N   0  0  0  0  0  0  0  0  0  0  0  0
  189.5360  176.6400  144.4350 C   0  0  0  0  0  3  0  0  0  0  0  0
  187.6580  178.0920  140.2130 N   0  0  0  0  0  0  0  0  0  0  0  0
  185.2200  178.7210  145.1560 C   0  0  0  0  0  3  0  0  0  0  0  0
  187.1350  177.6860  143.3810 C   0  0  0  0  0  0  0  0  0  0  0  0
  189.2250  176.4610  143.0920 C   0  0  0  0  0  3  0  0  0  0  0  0
  186.3080  178.1750  140.2850 C   0  0  0  0  0  0  0  0  0  0  0  0
  184.9220  178.6400  143.8010 C   0  0  0  0  0  0  0  0  0  0  0  0
  183.9630  178.6240  139.4860 S   0  0  0  0  0  0  0  0  0  0  0  0
  186.2140  178.2650  137.8590 C   0  0  0  0  0  0  0  0  0  0  0  0
  185.5690  178.2990  139.1090 C   0  0  0  0  0  0  0  0  0  0  0  0
  188.6580  177.3080  145.2900 C   0  0  0  0  0  0  0  0  0  0  0  0
  187.4270  177.7980  144.7760 C   0  0  0  0  0  0  0  0  0  0  0  0
  188.2890  178.0570  139.0070 C   0  0  0  0  0  0  0  0  0  0  0  0
  185.9070  178.2030  142.8590 C   0  0  0  0  0  0  0  0  0  0  0  0
  185.2610  177.2710  135.7680 C   0  0  0  0  0  1  0  0  0  0  0  0
  185.5550  178.3650  136.6240 O   0  0  0  0  0  0  0  0  0  0  0  0
  189.0520  177.4220  146.6660 N   0  0  0  0  0  2  0  0  0  0  0  0
  189.8590  176.4900  147.3330 N   0  0  0  0  0  2  0  0  0  0  0  0
  191.8390  177.3930  146.4870 O   0  0  0  0  0  0  0  0  0  0  0  0
  191.2800  176.5250  147.2100 C   0  0  0  0  0  0  0  0  0  0  0  0
  193.2100  176.1690  148.5970 N   0  0  0  0  0  1  0  0  0  0  0  0
  192.1060  175.5120  147.9200 C   0  0  0  0  0  2  0  0  0  0  0  0
  189.7700  177.9530  138.9500 C   0  0  0  0  0  2  0  0  0  0  0  0
  190.1950  176.8720  139.7230 O   0  0  0  0  0  0  0  0  0  0  0  0
  190.9330  176.0760  138.8470 C   0  0  2  0  0  3  0  0  0  0  0  0
  192.0170  176.9170  138.1760 C   0  0  0  0  0  2  0  0  0  0  0  0
  191.7280  175.5030  136.1400 C   0  0  0  0  0  2  0  0  0  0  0  0
  190.7750  174.6550  136.8560 N   0  0  0  0  0  2  0  0  0  0  0  0
  190.0080  175.4930  137.7780 C   0  0  0  0  0  2  0  0  0  0  0  0
  192.7450  176.0920  137.1170 C   0  0  0  0  0  2  0  0  0  0  0  0
  1  6  1  0  0  0  0
  2 12  2  0  0  0  0
  2 11  1  0  0  0  0
  4  5  1  0  0  0  0
  4  1  2  0  0  0  0
  5 21  2  0  0  0  0
  6 14  2  0  0  0  0
  7 16  2  0  0  0  0
  7 20  1  0  0  0  0
  8 18  2  0  0  0  0
  9 13  1  0  0  0  0
 10  3  2  0  0  0  0
 11 19  2  0  0  0  0
 12  8  1  0  0  0  0
 13  5  1  0  0  0  0
 14 10  1  0  0  0  0
 15  4  1  0  0  0  0
 16 17  1  0  0  0  0
 17 15  1  0  0  0  0
 17 13  2  0  0  0  0
 18 24  1  0  0  0  0
 19 18  1  0  0  0  0
 19  3  1  0  0  0  0
 20  9  2  0  0  0  0
 21 11  1  0  0  0  0
 21 14  1  0  0  0  0
 22 23  1  0  0  0  0
 23 16  1  0  0  0  0
 24 25  1  0  0  0  0
 26 27  2  0  0  0  0
 27 25  1  0  0  0  0
 27 29  1  0  0  0  0
 29 28  1  0  0  0  0
 30 20  1  0  0  0  0
 30 31  1  0  0  0  0
 32 31  1  1  0  0  0
 33 32  1  0  0  0  0
 34 35  1  0  0  0  0
 34 37  1  0  0  0  0
 35 36  1  0  0  0  0
 36 32  1  0  0  0  0
 37 33  1  0  0  0  0
M  END
>  <MODEL>
7

>  <REMARK>
 VINA RESULT:      -8.3      1.430      1.891
  Name = 
  7 active torsions:
  status: ('A' for Active; 'I' for Inactive)
    1  A    between atoms: N_1  and  N_9
    2  A    between atoms: N_1  and  C_30
    3  A    between atoms: C_7  and  O_31
    4  A    between atoms: C_15  and  O_31
    5  A    between atoms: C_15  and  C_34
    6  A    between atoms: O_20  and  C_26
    7  A    between atoms: C_22  and  C_35
                            x       y       z     vdW  Elec       q    Type
                         _______ _______ _______ _____ _____    ______ ____

>  <TORSDO>
F 7

$$$$
=
 OpenBabel10232412413D

 37 42  0  0  1  0  0  0  0  0999 V2000
  182.2630  179.0680  141.1470 C   0  0  0  0  0  3  0  0  0  0  0  0
  186.7110  177.4180  143.2060 C   0  0  0  0  0  3  0  0  0  0  0  0
  184.2060  178.8300  145.5180 C   0  0  0  0  0  3  0  0  0  0  0  0
  183.4620  178.7280  140.5500 C   0  0  0  0  0  0  0  0  0  0  0  0
  184.6300  178.5170  141.2910 C   0  0  0  0  0  0  0  0  0  0  0  0
  182.2200  179.1920  142.4950 N   0  0  0  0  0  0  0  0  0  0  0  0
  187.6980  178.3110  138.4970 N   0  0  0  0  0  0  0  0  0  0  0  0
  187.5680  177.2710  145.4490 C   0  0  0  0  0  3  0  0  0  0  0  0
  187.0470  178.3890  140.7650 N   0  0  0  0  0  0  0  0  0  0  0  0
  183.1610  179.1230  144.6570 C   0  0  0  0  0  3  0  0  0  0  0  0
  185.5770  178.1150  143.6350 C   0  0  0  0  0  0  0  0  0  0  0  0
  187.7000  177.0050  144.0920 C   0  0  0  0  0  3  0  0  0  0  0  0
  185.7400  178.3940  140.4100 C   0  0  0  0  0  0  0  0  0  0  0  0
  183.3060  178.9550  143.2840 C   0  0  0  0  0  0  0  0  0  0  0  0
  183.7450  178.6600  138.8960 S   0  0  0  0  0  0  0  0  0  0  0  0
  186.4050  178.3540  138.0740 C   0  0  0  0  0  0  0  0  0  0  0  0
  185.4010  178.4140  139.0570 C   0  0  0  0  0  0  0  0  0  0  0  0
  186.4400  177.9280  145.9430 C   0  0  0  0  0  0  0  0  0  0  0  0
  185.4120  178.3160  145.0420 C   0  0  0  0  0  0  0  0  0  0  0  0
  188.0240  178.3300  139.8200 C   0  0  0  0  0  0  0  0  0  0  0  0
  184.5520  178.5310  142.7250 C   0  0  0  0  0  0  0  0  0  0  0  0
  187.1270  178.0370  135.6980 C   0  0  0  0  0  1  0  0  0  0  0  0
  186.1630  178.3510  136.6920 O   0  0  0  0  0  0  0  0  0  0  0  0
  186.3790  178.1370  147.3630 N   0  0  0  0  0  2  0  0  0  0  0  0
  187.4340  178.6500  148.1280 N   0  0  0  0  0  2  0  0  0  0  0  0
  188.6260  176.6430  148.0820 O   0  0  0  0  0  0  0  0  0  0  0  0
  188.5630  177.8440  148.4620 C   0  0  0  0  0  0  0  0  0  0  0  0
  190.9440  178.0390  148.7220 N   0  0  0  0  0  1  0  0  0  0  0  0
  189.6600  178.4150  149.2860 C   0  0  0  0  0  2  0  0  0  0  0  0
  189.4520  178.3130  140.2310 C   0  0  0  0  0  2  0  0  0  0  0  0
  189.8110  177.0240  140.6260 O   0  0  0  0  0  0  0  0  0  0  0  0
  190.7290  177.2100  141.6600 C   0  0  2  0  0  3  0  0  0  0  0  0
  190.7040  176.0030  142.5940 C   0  0  0  0  0  2  0  0  0  0  0  0
  191.2040  177.5630  144.4770 C   0  0  0  0  0  2  0  0  0  0  0  0
  191.3280  178.6730  143.5320 N   0  0  0  0  0  2  0  0  0  0  0  0
  190.3680  178.4700  142.4480 C   0  0  0  0  0  2  0  0  0  0  0  0
  191.6050  176.2520  143.8010 C   0  0  0  0  0  2  0  0  0  0  0  0
  1  6  1  0  0  0  0
  2 11  2  0  0  0  0
  2 12  1  0  0  0  0
  4  1  2  0  0  0  0
  4  5  1  0  0  0  0
  5 21  2  0  0  0  0
  6 14  2  0  0  0  0
  7 20  1  0  0  0  0
  8 18  1  0  0  0  0
 10  3  2  0  0  0  0
 11 19  1  0  0  0  0
 12  8  2  0  0  0  0
 13  9  1  0  0  0  0
 13  5  1  0  0  0  0
 14 10  1  0  0  0  0
 15 17  1  0  0  0  0
 15  4  1  0  0  0  0
 16  7  2  0  0  0  0
 16 17  1  0  0  0  0
 17 13  2  0  0  0  0
 18 24  1  0  0  0  0
 19  3  1  0  0  0  0
 19 18  2  0  0  0  0
 20 30  1  0  0  0  0
 20  9  2  0  0  0  0
 21 14  1  0  0  0  0
 21 11  1  0  0  0  0
 22 23  1  0  0  0  0
 23 16  1  0  0  0  0
 24 25  1  0  0  0  0
 25 27  1  0  0  0  0
 26 27  2  0  0  0  0
 27 29  1  0  0  0  0
 28 29  1  0  0  0  0
 30 31  1  0  0  0  0
 32 31  1  6  0  0  0
 32 36  1  0  0  0  0
 32 33  1  0  0  0  0
 33 37  1  0  0  0  0
 35 34  1  0  0  0  0
 36 35  1  0  0  0  0
 37 34  1  0  0  0  0
M  END
>  <MODEL>
8

>  <REMARK>
 VINA RESULT:      -8.1      2.150      3.073
  Name = 
  7 active torsions:
  status: ('A' for Active; 'I' for Inactive)
    1  A    between atoms: N_1  and  N_9
    2  A    between atoms: N_1  and  C_30
    3  A    between atoms: C_7  and  O_31
    4  A    between atoms: C_15  and  O_31
    5  A    between atoms: C_15  and  C_34
    6  A    between atoms: O_20  and  C_26
    7  A    between atoms: C_22  and  C_35
                            x       y       z     vdW  Elec       q    Type
                         _______ _______ _______ _____ _____    ______ ____

>  <TORSDO>
F 7

$$$$
=
 OpenBabel10232412413D

 37 42  0  0  1  0  0  0  0  0999 V2000
  187.1120  177.2210  135.9710 C   0  0  0  0  0  3  0  0  0  0  0  0
  191.2630  177.3680  139.0520 C   0  0  0  0  0  3  0  0  0  0  0  0
  191.5220  175.3530  135.9710 C   0  0  0  0  0  3  0  0  0  0  0  0
  187.2540  177.6650  137.2720 C   0  0  0  0  0  0  0  0  0  0  0  0
  188.4100  177.4180  138.0210 C   0  0  0  0  0  0  0  0  0  0  0  0
  188.1310  176.5330  135.4040 N   0  0  0  0  0  0  0  0  0  0  0  0
  187.4640  178.5050  141.9180 N   0  0  0  0  0  0  0  0  0  0  0  0
  193.4820  176.4460  138.9220 C   0  0  0  0  0  3  0  0  0  0  0  0
  189.0030  177.5190  140.4230 N   0  0  0  0  0  0  0  0  0  0  0  0
  190.2820  175.5660  135.3900 C   0  0  0  0  0  3  0  0  0  0  0  0
  190.8560  176.6710  137.9090 C   0  0  0  0  0  0  0  0  0  0  0  0
  192.5530  177.2570  139.5610 C   0  0  0  0  0  3  0  0  0  0  0  0
  188.1940  177.7980  139.3740 C   0  0  0  0  0  0  0  0  0  0  0  0
  189.3040  176.2950  136.0560 C   0  0  0  0  0  0  0  0  0  0  0  0
  186.0600  178.4120  138.1860 S   0  0  0  0  0  0  0  0  0  0  0  0
  186.5880  178.7770  140.9110 C   0  0  0  0  0  0  0  0  0  0  0  0
  186.9570  178.3990  139.6080 C   0  0  0  0  0  0  0  0  0  0  0  0
  193.1460  175.7550  137.7560 C   0  0  0  0  0  0  0  0  0  0  0  0
  191.8400  175.8990  137.2150 C   0  0  0  0  0  0  0  0  0  0  0  0
  188.6540  177.8830  141.6870 C   0  0  0  0  0  0  0  0  0  0  0  0
  189.5330  176.7930  137.3770 C   0  0  0  0  0  0  0  0  0  0  0  0
  184.4370  178.9060  142.1870 C   0  0  0  0  0  1  0  0  0  0  0  0
  185.3760  179.4010  141.2430 O   0  0  0  0  0  0  0  0  0  0  0  0
  194.1790  174.9610  137.1510 N   0  0  0  0  0  2  0  0  0  0  0  0
  195.5350  175.0380  137.4980 N   0  0  0  0  0  2  0  0  0  0  0  0
  195.4390  173.1340  138.8460 O   0  0  0  0  0  0  0  0  0  0  0  0
  196.1290  174.0730  138.3650 C   0  0  0  0  0  0  0  0  0  0  0  0
  197.7840  175.4150  139.4760 N   0  0  0  0  0  1  0  0  0  0  0  0
  197.5670  174.1910  138.7250 C   0  0  0  0  0  2  0  0  0  0  0  0
  189.5630  177.5800  142.8230 C   0  0  0  0  0  2  0  0  0  0  0  0
  188.9960  178.0360  144.0130 O   0  0  0  0  0  0  0  0  0  0  0  0
  189.5200  177.2020  145.0010 C   0  0  2  0  0  3  0  0  0  0  0  0
  189.0170  177.6500  146.3720 C   0  0  0  0  0  2  0  0  0  0  0  0
  191.2070  176.9130  147.3150 C   0  0  0  0  0  2  0  0  0  0  0  0
  191.6060  176.3990  146.0060 N   0  0  0  0  0  2  0  0  0  0  0  0
  191.0480  177.2710  144.9730 C   0  0  0  0  0  2  0  0  0  0  0  0
  189.6890  176.8320  147.4720 C   0  0  0  0  0  2  0  0  0  0  0  0
  1  4  1  0  0  0  0
  2 12  1  0  0  0  0
  3 19  1  0  0  0  0
  4  5  2  0  0  0  0
  4 15  1  0  0  0  0
  5 13  1  0  0  0  0
  6  1  2  0  0  0  0
  6 14  1  0  0  0  0
  8 12  2  0  0  0  0
  9 20  2  0  0  0  0
 10  3  2  0  0  0  0
 10 14  1  0  0  0  0
 11  2  2  0  0  0  0
 13 17  2  0  0  0  0
 13  9  1  0  0  0  0
 14 21  2  0  0  0  0
 15 17  1  0  0  0  0
 16 23  1  0  0  0  0
 16  7  2  0  0  0  0
 17 16  1  0  0  0  0
 18  8  1  0  0  0  0
 19 18  2  0  0  0  0
 19 11  1  0  0  0  0
 20  7  1  0  0  0  0
 20 30  1  0  0  0  0
 21 11  1  0  0  0  0
 21  5  1  0  0  0  0
 23 22  1  0  0  0  0
 24 25  1  0  0  0  0
 24 18  1  0  0  0  0
 25 27  1  0  0  0  0
 27 29  1  0  0  0  0
 27 26  2  0  0  0  0
 29 28  1  0  0  0  0
 30 31  1  0  0  0  0
 32 31  1  6  0  0  0
 32 33  1  0  0  0  0
 33 37  1  0  0  0  0
 34 37  1  0  0  0  0
 35 34  1  0  0  0  0
 36 32  1  0  0  0  0
 36 35  1  0  0  0  0
M  END
>  <MODEL>
9

>  <REMARK>
 VINA RESULT:      -8.1      3.169      7.894
  Name = 
  7 active torsions:
  status: ('A' for Active; 'I' for Inactive)
    1  A    between atoms: N_1  and  N_9
    2  A    between atoms: N_1  and  C_30
    3  A    between atoms: C_7  and  O_31
    4  A    between atoms: C_15  and  O_31
    5  A    between atoms: C_15  and  C_34
    6  A    between atoms: O_20  and  C_26
    7  A    between atoms: C_22  and  C_35
                            x       y       z     vdW  Elec       q    Type
                         _______ _______ _______ _____ _____    ______ ____

>  <TORSDO>
F 7

$$$$
