=
 OpenBabel10232412073D

 39 43  0  0  1  0  0  0  0  0999 V2000
  187.4470  178.0860  145.4920 C   0  0  0  0  0  0  0  0  0  0  0  0
  187.5100  178.2690  147.7790 C   0  0  0  0  0  2  0  0  0  0  0  0
  189.9380  176.9020  145.1300 C   0  0  0  0  0  0  0  0  0  0  0  0
  186.1960  178.7200  145.9430 C   0  0  2  0  0  3  0  0  0  0  0  0
  191.1990  176.3040  144.9840 C   0  0  0  0  0  3  0  0  0  0  0  0
  187.8630  177.7940  144.1940 C   0  0  0  0  0  3  0  0  0  0  0  0
  186.2600  178.8030  147.3620 O   0  0  0  0  0  0  0  0  0  0  0  0
  189.4750  177.2260  146.4350 C   0  0  0  0  0  0  0  0  0  0  0  0
  190.2730  176.9520  147.5520 C   0  0  0  0  0  3  0  0  0  0  0  0
  188.2190  177.8210  146.5660 C   0  0  0  0  0  0  0  0  0  0  0  0
  191.5260  176.3560  147.3850 C   0  0  0  0  0  3  0  0  0  0  0  0
  191.9870  176.0320  146.1070 C   0  0  0  0  0  3  0  0  0  0  0  0
  189.1240  177.1910  144.0030 C   0  0  0  0  0  0  0  0  0  0  0  0
  190.5700  176.7340  139.9890 C   0  0  2  0  0  3  0  0  0  0  0  0
  189.5840  176.8590  142.6120 C   0  0  1  0  0  3  0  0  0  0  0  0
  188.6890  177.5140  141.5580 C   0  0  0  0  0  2  0  0  0  0  0  0
  191.0670  177.2160  142.4180 C   0  0  0  0  0  2  0  0  0  0  0  0
  189.0820  177.0780  140.1410 C   0  0  0  0  0  2  0  0  0  0  0  0
  191.4280  177.5410  140.9630 C   0  0  0  0  0  2  0  0  0  0  0  0
  191.0040  176.9850  138.5530 C   0  0  0  0  0  2  0  0  0  0  0  0
  191.6730  175.7720  137.9700 C   0  0  0  0  0  0  0  0  0  0  0  0
  190.9490  174.8090  137.3950 C   0  0  0  0  0  3  0  0  0  0  0  0
  193.8450  176.6620  138.3000 O   0  0  0  0  0  0  0  0  0  0  0  0
  193.1420  175.6520  138.0230 C   0  0  0  0  0  0  0  0  0  0  0  0
  193.7740  174.3940  137.7570 N   0  0  0  0  0  2  0  0  0  0  0  0
  195.2170  174.2140  137.8150 C   0  0  0  0  0  2  0  0  0  0  0  0
  195.5920  173.6780  139.1120 N   0  0  0  0  0  2  0  0  0  0  0  0
  196.4390  174.6730  139.7460 C   0  0  0  0  0  1  0  0  0  0  0  0
  189.5270  174.8780  137.3190 N   0  0  0  0  0  2  0  0  0  0  0  0
  188.8560  174.6270  136.0600 C   0  0  0  0  0  1  0  0  0  0  0  0
  185.0000  177.8770  145.5250 C   0  0  0  0  0  2  0  0  0  0  0  0
  184.7660  179.6450  143.9420 O   0  0  0  0  0  0  0  0  0  0  0  0
  184.0370  178.7050  144.6930 C   0  0  1  0  0  3  0  0  0  0  0  0
  184.3200  178.4990  143.2580 C   0  0  1  0  0  3  0  0  0  0  0  0
  183.0890  178.8550  142.4370 C   0  0  0  0  0  2  0  0  0  0  0  0
  183.3150  178.6660  140.9370 C   0  0  0  0  0  0  0  0  0  0  0  0
  183.5840  177.3210  140.6900 O   0  0  0  0  0  1  0  0  0  0  0  0
  184.4040  179.4320  140.5170 O   0  0  0  0  0  1  0  0  0  0  0  0
  182.0770  179.0700  140.1560 C   0  0  0  0  0  1  0  0  0  0  0  0
  1  4  1  0  0  0  0
  1 10  1  0  0  0  0
  3  8  1  0  0  0  0
  4 31  1  1  0  0  0
  4  7  1  0  0  0  0
  5  3  1  0  0  0  0
  5 12  2  0  0  0  0
  6  1  2  0  0  0  0
  7  2  1  0  0  0  0
  8 10  2  0  0  0  0
  8  9  1  0  0  0  0
 10  2  1  0  0  0  0
 11  9  2  0  0  0  0
 12 11  1  0  0  0  0
 13  6  1  0  0  0  0
 13  3  2  0  0  0  0
 14 20  1  6  0  0  0
 14 18  1  0  0  0  0
 14 19  1  0  0  0  0
 15 13  1  1  0  0  0
 16 15  1  0  0  0  0
 17 15  1  0  0  0  0
 18 16  1  0  0  0  0
 19 17  1  0  0  0  0
 21 24  1  0  0  0  0
 21 20  1  0  0  0  0
 22 21  2  0  0  0  0
 24 23  2  0  0  0  0
 25 26  1  0  0  0  0
 25 24  1  0  0  0  0
 26 27  1  0  0  0  0
 27 28  1  0  0  0  0
 29 22  1  0  0  0  0
 30 29  1  0  0  0  0
 32 33  1  0  0  0  0
 33 31  1  1  0  0  0
 34 35  1  6  0  0  0
 34 32  1  0  0  0  0
 34 33  1  0  0  0  0
 36 35  1  0  0  0  0
 37 36  1  0  0  0  0
 38 36  1  0  0  0  0
 39 36  1  0  0  0  0
M  END
>  <MODEL>
1

>  <REMARK>
 VINA RESULT:      -9.5      0.000      0.000
  Name = 
  11 active torsions:
  status: ('A' for Active; 'I' for Inactive)
    1  A    between atoms: C_1  and  C_2
    2  A    between atoms: C_1  and  C_28
    3  A    between atoms: C_3  and  C_30
    4  A    between atoms: C_6  and  C_38
    5  A    between atoms: C_9  and  C_18
    6  A    between atoms: C_9  and  C_30
    7  A    between atoms: C_11  and  C_25
    8  A    between atoms: N_13  and  C_26
    9  A    between atoms: C_17  and  C_25
   10  A    between atoms: C_20  and  N_29
   11  A    between atoms: C_20  and  N_37
                            x       y       z     vdW  Elec       q    Type
                         _______ _______ _______ _____ _____    ______ ____

>  <TORSDO>
F 11

$$$$
=
 OpenBabel10232412073D

 39 43  0  0  1  0  0  0  0  0999 V2000
  187.5710  178.0640  144.9870 C   0  0  0  0  0  0  0  0  0  0  0  0
  187.3170  178.3000  147.2550 C   0  0  0  0  0  2  0  0  0  0  0  0
  190.0860  176.8740  145.0020 C   0  0  0  0  0  0  0  0  0  0  0  0
  186.2720  178.7070  145.2440 C   0  0  2  0  0  3  0  0  0  0  0  0
  191.3530  176.2730  145.0470 C   0  0  0  0  0  3  0  0  0  0  0  0
  188.1640  177.7420  143.7660 C   0  0  0  0  0  3  0  0  0  0  0  0
  186.1390  178.8240  146.6560 O   0  0  0  0  0  0  0  0  0  0  0  0
  189.4470  177.2280  146.2220 C   0  0  0  0  0  0  0  0  0  0  0  0
  190.0810  176.9810  147.4450 C   0  0  0  0  0  3  0  0  0  0  0  0
  188.1860  177.8250  146.1630 C   0  0  0  0  0  0  0  0  0  0  0  0
  191.3440  176.3820  147.4680 C   0  0  0  0  0  3  0  0  0  0  0  0
  191.9770  176.0290  146.2740 C   0  0  0  0  0  3  0  0  0  0  0  0
  189.4370  177.1350  143.7670 C   0  0  0  0  0  0  0  0  0  0  0  0
  191.3390  176.5960  139.9580 C   0  0  2  0  0  3  0  0  0  0  0  0
  190.0850  176.7710  142.4610 C   0  0  1  0  0  3  0  0  0  0  0  0
  189.2030  177.1610  141.2730 C   0  0  0  0  0  2  0  0  0  0  0  0
  191.4980  177.3680  142.3570 C   0  0  0  0  0  2  0  0  0  0  0  0
  189.8060  176.6800  139.9470 C   0  0  0  0  0  2  0  0  0  0  0  0
  191.9440  177.6250  140.9130 C   0  0  0  0  0  2  0  0  0  0  0  0
  191.8670  176.7940  138.5460 C   0  0  0  0  0  2  0  0  0  0  0  0
  191.9210  175.4900  137.8000 C   0  0  0  0  0  0  0  0  0  0  0  0
  193.0800  174.8480  137.6390 C   0  0  0  0  0  3  0  0  0  0  0  0
  190.4150  173.6940  137.4520 O   0  0  0  0  0  0  0  0  0  0  0  0
  190.6800  174.9110  137.2510 C   0  0  0  0  0  0  0  0  0  0  0  0
  189.7800  175.7220  136.4890 N   0  0  0  0  0  2  0  0  0  0  0  0
  188.5330  175.2080  135.9420 C   0  0  0  0  0  2  0  0  0  0  0  0
  187.4640  175.3770  136.9110 N   0  0  0  0  0  2  0  0  0  0  0  0
  186.5680  176.3840  136.3710 C   0  0  0  0  0  1  0  0  0  0  0  0
  194.3060  175.3670  138.1500 N   0  0  0  0  0  2  0  0  0  0  0  0
  195.4860  174.5260  138.1910 C   0  0  0  0  0  1  0  0  0  0  0  0
  185.1430  177.8540  144.6840 C   0  0  0  0  0  2  0  0  0  0  0  0
  185.1710  179.6470  143.1130 O   0  0  0  0  0  0  0  0  0  0  0  0
  184.3540  178.6360  143.6510 C   0  0  1  0  0  3  0  0  0  0  0  0
  184.9930  178.4940  142.3270 C   0  0  1  0  0  3  0  0  0  0  0  0
  183.9770  178.7870  141.2330 C   0  0  0  0  0  2  0  0  0  0  0  0
  184.6260  178.9150  139.8550 C   0  0  0  0  0  0  0  0  0  0  0  0
  186.0050  178.7640  139.9920 O   0  0  0  0  0  1  0  0  0  0  0  0
  184.3570  180.1750  139.3150 O   0  0  0  0  0  1  0  0  0  0  0  0
  184.1060  177.8390  138.9180 C   0  0  0  0  0  1  0  0  0  0  0  0
  1  4  1  0  0  0  0
  1 10  1  0  0  0  0
  3  5  1  0  0  0  0
  3  8  1  0  0  0  0
  4 31  1  1  0  0  0
  4  7  1  0  0  0  0
  5 12  2  0  0  0  0
  6 13  1  0  0  0  0
  6  1  2  0  0  0  0
  7  2  1  0  0  0  0
  8  9  1  0  0  0  0
  9 11  2  0  0  0  0
 10  8  2  0  0  0  0
 10  2  1  0  0  0  0
 12 11  1  0  0  0  0
 13  3  2  0  0  0  0
 14 20  1  6  0  0  0
 14 19  1  0  0  0  0
 15 13  1  1  0  0  0
 16 15  1  0  0  0  0
 17 15  1  0  0  0  0
 18 14  1  0  0  0  0
 18 16  1  0  0  0  0
 19 17  1  0  0  0  0
 21 20  1  0  0  0  0
 22 21  2  0  0  0  0
 22 29  1  0  0  0  0
 24 23  2  0  0  0  0
 24 21  1  0  0  0  0
 25 24  1  0  0  0  0
 26 25  1  0  0  0  0
 26 27  1  0  0  0  0
 28 27  1  0  0  0  0
 29 30  1  0  0  0  0
 32 33  1  0  0  0  0
 33 31  1  1  0  0  0
 34 35  1  6  0  0  0
 34 32  1  0  0  0  0
 34 33  1  0  0  0  0
 36 37  1  0  0  0  0
 36 35  1  0  0  0  0
 38 36  1  0  0  0  0
 39 36  1  0  0  0  0
M  END
>  <MODEL>
2

>  <REMARK>
 VINA RESULT:      -9.3      1.260      3.171
  Name = 
  11 active torsions:
  status: ('A' for Active; 'I' for Inactive)
    1  A    between atoms: C_1  and  C_2
    2  A    between atoms: C_1  and  C_28
    3  A    between atoms: C_3  and  C_30
    4  A    between atoms: C_6  and  C_38
    5  A    between atoms: C_9  and  C_18
    6  A    between atoms: C_9  and  C_30
    7  A    between atoms: C_11  and  C_25
    8  A    between atoms: N_13  and  C_26
    9  A    between atoms: C_17  and  C_25
   10  A    between atoms: C_20  and  N_29
   11  A    between atoms: C_20  and  N_37
                            x       y       z     vdW  Elec       q    Type
                         _______ _______ _______ _____ _____    ______ ____

>  <TORSDO>
F 11

$$$$
=
 OpenBabel10232412073D

 39 43  0  0  1  0  0  0  0  0999 V2000
  186.8360  178.3180  145.2900 C   0  0  0  0  0  0  0  0  0  0  0  0
  187.0780  178.4420  147.5690 C   0  0  0  0  0  2  0  0  0  0  0  0
  189.3060  177.1820  144.7020 C   0  0  0  0  0  0  0  0  0  0  0  0
  185.6170  178.9210  145.8540 C   0  0  2  0  0  3  0  0  0  0  0  0
  190.5590  176.6060  144.4410 C   0  0  0  0  0  3  0  0  0  0  0  0
  187.1530  178.0660  143.9560 C   0  0  0  0  0  3  0  0  0  0  0  0
  185.7920  178.9680  147.2660 O   0  0  0  0  0  0  0  0  0  0  0  0
  188.9440  177.4650  146.0470 C   0  0  0  0  0  0  0  0  0  0  0  0
  189.8310  177.1730  147.0900 C   0  0  0  0  0  3  0  0  0  0  0  0
  187.6940  178.0370  146.2920 C   0  0  0  0  0  0  0  0  0  0  0  0
  191.0740  176.6010  146.8090 C   0  0  0  0  0  3  0  0  0  0  0  0
  191.4370  176.3170  145.4900 C   0  0  0  0  0  3  0  0  0  0  0  0
  188.4020  177.4870  143.6500 C   0  0  0  0  0  0  0  0  0  0  0  0
  189.6990  177.0830  139.5800 C   0  0  2  0  0  3  0  0  0  0  0  0
  188.7550  177.1980  142.2190 C   0  0  1  0  0  3  0  0  0  0  0  0
  188.1490  178.2380  141.2740 C   0  0  0  0  0  2  0  0  0  0  0  0
  190.2760  177.0650  142.0380 C   0  0  0  0  0  2  0  0  0  0  0  0
  188.4050  177.8770  139.8060 C   0  0  0  0  0  2  0  0  0  0  0  0
  190.7540  177.4320  140.6280 C   0  0  0  0  0  2  0  0  0  0  0  0
  190.2200  177.3530  138.1770 C   0  0  0  0  0  2  0  0  0  0  0  0
  190.2290  176.0980  137.3510 C   0  0  0  0  0  0  0  0  0  0  0  0
  189.2710  175.8740  136.4480 C   0  0  0  0  0  3  0  0  0  0  0  0
  191.0290  173.8850  137.6330 O   0  0  0  0  0  0  0  0  0  0  0  0
  191.3100  175.1110  137.5310 C   0  0  0  0  0  0  0  0  0  0  0  0
  192.6750  175.5390  137.5960 N   0  0  0  0  0  2  0  0  0  0  0  0
  193.7820  174.6070  137.7520 C   0  0  0  0  0  2  0  0  0  0  0  0
  195.0300  175.2650  137.4060 N   0  0  0  0  0  2  0  0  0  0  0  0
  196.0720  174.2580  137.5030 C   0  0  0  0  0  1  0  0  0  0  0  0
  188.2040  176.7970  136.2350 N   0  0  0  0  0  2  0  0  0  0  0  0
  186.8680  176.4750  136.6940 C   0  0  0  0  0  1  0  0  0  0  0  0
  184.4020  178.0710  145.5090 C   0  0  0  0  0  2  0  0  0  0  0  0
  183.6300  179.8140  144.0760 O   0  0  0  0  0  0  0  0  0  0  0  0
  183.2330  178.9570  145.1190 C   0  0  1  0  0  3  0  0  0  0  0  0
  182.8590  178.6930  143.7160 C   0  0  1  0  0  3  0  0  0  0  0  0
  181.4210  179.1320  143.4760 C   0  0  0  0  0  2  0  0  0  0  0  0
  181.0270  179.0570  142.0020 C   0  0  0  0  0  0  0  0  0  0  0  0
  182.1630  178.7760  141.2460 O   0  0  0  0  0  1  0  0  0  0  0  0
  180.4950  180.2800  141.5870 O   0  0  0  0  0  1  0  0  0  0  0  0
  180.0040  177.9570  141.7790 C   0  0  0  0  0  1  0  0  0  0  0  0
  1  4  1  0  0  0  0
  1 10  1  0  0  0  0
  3  8  1  0  0  0  0
  4 31  1  1  0  0  0
  4  7  1  0  0  0  0
  5  3  1  0  0  0  0
  5 12  2  0  0  0  0
  6  1  2  0  0  0  0
  7  2  1  0  0  0  0
  8 10  2  0  0  0  0
  8  9  1  0  0  0  0
 10  2  1  0  0  0  0
 11  9  2  0  0  0  0
 12 11  1  0  0  0  0
 13  6  1  0  0  0  0
 13  3  2  0  0  0  0
 14 20  1  6  0  0  0
 14 18  1  0  0  0  0
 14 19  1  0  0  0  0
 15 13  1  1  0  0  0
 16 15  1  0  0  0  0
 17 15  1  0  0  0  0
 18 16  1  0  0  0  0
 19 17  1  0  0  0  0
 21 24  1  0  0  0  0
 21 20  1  0  0  0  0
 22 21  2  0  0  0  0
 24 25  1  0  0  0  0
 24 23  2  0  0  0  0
 25 26  1  0  0  0  0
 27 28  1  0  0  0  0
 27 26  1  0  0  0  0
 29 22  1  0  0  0  0
 29 30  1  0  0  0  0
 32 33  1  0  0  0  0
 33 31  1  6  0  0  0
 34 35  1  1  0  0  0
 34 32  1  0  0  0  0
 34 33  1  0  0  0  0
 36 35  1  0  0  0  0
 37 36  1  0  0  0  0
 38 36  1  0  0  0  0
 39 36  1  0  0  0  0
M  END
>  <MODEL>
3

>  <REMARK>
 VINA RESULT:      -8.9      1.573      1.725
  Name = 
  11 active torsions:
  status: ('A' for Active; 'I' for Inactive)
    1  A    between atoms: C_1  and  C_2
    2  A    between atoms: C_1  and  C_28
    3  A    between atoms: C_3  and  C_30
    4  A    between atoms: C_6  and  C_38
    5  A    between atoms: C_9  and  C_18
    6  A    between atoms: C_9  and  C_30
    7  A    between atoms: C_11  and  C_25
    8  A    between atoms: N_13  and  C_26
    9  A    between atoms: C_17  and  C_25
   10  A    between atoms: C_20  and  N_29
   11  A    between atoms: C_20  and  N_37
                            x       y       z     vdW  Elec       q    Type
                         _______ _______ _______ _____ _____    ______ ____

>  <TORSDO>
F 11

$$$$
=
 OpenBabel10232412073D

 39 43  0  0  1  0  0  0  0  0999 V2000
  187.1830  178.2260  145.2280 C   0  0  0  0  0  0  0  0  0  0  0  0
  187.0670  177.8680  147.4920 C   0  0  0  0  0  2  0  0  0  0  0  0
  189.7870  177.3330  144.8280 C   0  0  0  0  0  0  0  0  0  0  0  0
  185.8530  178.6490  145.6980 C   0  0  2  0  0  3  0  0  0  0  0  0
  191.1020  176.8740  144.6620 C   0  0  0  0  0  3  0  0  0  0  0  0
  187.7140  178.2780  143.9400 C   0  0  0  0  0  3  0  0  0  0  0  0
  185.8080  178.3990  147.0990 O   0  0  0  0  0  0  0  0  0  0  0  0
  189.2060  177.3080  146.1260 C   0  0  0  0  0  0  0  0  0  0  0  0
  189.9430  176.8330  147.2160 C   0  0  0  0  0  3  0  0  0  0  0  0
  187.8960  177.7690  146.2770 C   0  0  0  0  0  0  0  0  0  0  0  0
  191.2520  176.3800  147.0300 C   0  0  0  0  0  3  0  0  0  0  0  0
  191.8290  176.3990  145.7580 C   0  0  0  0  0  3  0  0  0  0  0  0
  189.0330  177.8230  143.7290 C   0  0  0  0  0  0  0  0  0  0  0  0
  190.2810  177.6950  139.6260 C   0  0  2  0  0  3  0  0  0  0  0  0
  189.6180  177.8620  142.3460 C   0  0  1  0  0  3  0  0  0  0  0  0
  189.9990  176.4610  141.8630 C   0  0  0  0  0  2  0  0  0  0  0  0
  188.6780  178.5800  141.3650 C   0  0  0  0  0  2  0  0  0  0  0  0
  190.7080  176.5110  140.5040 C   0  0  0  0  0  2  0  0  0  0  0  0
  188.8380  178.1080  139.9150 C   0  0  0  0  0  2  0  0  0  0  0  0
  190.4540  177.3270  138.1600 C   0  0  0  0  0  2  0  0  0  0  0  0
  189.2470  176.6010  137.6380 C   0  0  0  0  0  0  0  0  0  0  0  0
  189.2540  175.2720  137.5200 C   0  0  0  0  0  3  0  0  0  0  0  0
  188.1590  178.4820  136.6920 O   0  0  0  0  0  0  0  0  0  0  0  0
  188.0410  177.3630  137.2620 C   0  0  0  0  0  0  0  0  0  0  0  0
  186.7390  176.8400  137.5460 N   0  0  0  0  0  2  0  0  0  0  0  0
  185.5160  177.5390  137.1790 C   0  0  0  0  0  2  0  0  0  0  0  0
  184.6030  176.6200  136.5220 N   0  0  0  0  0  2  0  0  0  0  0  0
  184.8970  175.2970  137.0430 C   0  0  0  0  0  1  0  0  0  0  0  0
  190.3950  174.4890  137.8680 N   0  0  0  0  0  2  0  0  0  0  0  0
  191.3410  174.0940  136.8450 C   0  0  0  0  0  1  0  0  0  0  0  0
  184.7670  177.8490  144.9930 C   0  0  0  0  0  2  0  0  0  0  0  0
  184.7080  179.5570  143.3300 O   0  0  0  0  0  0  0  0  0  0  0  0
  183.8920  178.7680  144.1610 C   0  0  1  0  0  3  0  0  0  0  0  0
  184.0680  178.4580  142.7280 C   0  0  1  0  0  3  0  0  0  0  0  0
  182.8610  178.9500  141.9440 C   0  0  0  0  0  2  0  0  0  0  0  0
  183.0590  178.8320  140.4330 C   0  0  0  0  0  0  0  0  0  0  0  0
  184.2190  179.5200  140.0770 O   0  0  0  0  0  1  0  0  0  0  0  0
  181.9720  179.3960  139.7620 O   0  0  0  0  0  1  0  0  0  0  0  0
  183.2080  177.3770  140.0260 C   0  0  0  0  0  1  0  0  0  0  0  0
  1  4  1  0  0  0  0
  1 10  1  0  0  0  0
  3  8  1  0  0  0  0
  4 31  1  6  0  0  0
  4  7  1  0  0  0  0
  5  3  1  0  0  0  0
  5 12  2  0  0  0  0
  6  1  2  0  0  0  0
  7  2  1  0  0  0  0
  8 10  2  0  0  0  0
  8  9  1  0  0  0  0
 10  2  1  0  0  0  0
 11  9  2  0  0  0  0
 12 11  1  0  0  0  0
 13  6  1  0  0  0  0
 13  3  2  0  0  0  0
 14 20  1  6  0  0  0
 14 19  1  0  0  0  0
 14 18  1  0  0  0  0
 15 13  1  1  0  0  0
 16 15  1  0  0  0  0
 17 15  1  0  0  0  0
 18 16  1  0  0  0  0
 19 17  1  0  0  0  0
 21 20  1  0  0  0  0
 22 21  2  0  0  0  0
 22 29  1  0  0  0  0
 23 24  2  0  0  0  0
 24 25  1  0  0  0  0
 24 21  1  0  0  0  0
 26 25  1  0  0  0  0
 27 28  1  0  0  0  0
 27 26  1  0  0  0  0
 30 29  1  0  0  0  0
 32 33  1  0  0  0  0
 33 31  1  1  0  0  0
 34 35  1  6  0  0  0
 34 32  1  0  0  0  0
 34 33  1  0  0  0  0
 36 35  1  0  0  0  0
 37 36  1  0  0  0  0
 38 36  1  0  0  0  0
 39 36  1  0  0  0  0
M  END
>  <MODEL>
4

>  <REMARK>
 VINA RESULT:      -8.5      2.065      3.829
  Name = 
  11 active torsions:
  status: ('A' for Active; 'I' for Inactive)
    1  A    between atoms: C_1  and  C_2
    2  A    between atoms: C_1  and  C_28
    3  A    between atoms: C_3  and  C_30
    4  A    between atoms: C_6  and  C_38
    5  A    between atoms: C_9  and  C_18
    6  A    between atoms: C_9  and  C_30
    7  A    between atoms: C_11  and  C_25
    8  A    between atoms: N_13  and  C_26
    9  A    between atoms: C_17  and  C_25
   10  A    between atoms: C_20  and  N_29
   11  A    between atoms: C_20  and  N_37
                            x       y       z     vdW  Elec       q    Type
                         _______ _______ _______ _____ _____    ______ ____

>  <TORSDO>
F 11

$$$$
=
 OpenBabel10232412073D

 39 43  0  0  1  0  0  0  0  0999 V2000
  184.2800  178.6720  140.0830 C   0  0  0  0  0  0  0  0  0  0  0  0
  182.0720  178.9100  139.5030 C   0  0  0  0  0  2  0  0  0  0  0  0
  183.9520  178.6430  142.8450 C   0  0  0  0  0  0  0  0  0  0  0  0
  184.1880  178.7280  138.6140 C   0  0  2  0  0  3  0  0  0  0  0  0
  183.7500  178.6300  144.2340 C   0  0  0  0  0  3  0  0  0  0  0  0
  185.4130  178.5570  140.8870 C   0  0  0  0  0  3  0  0  0  0  0  0
  182.8090  178.8590  138.2880 O   0  0  0  0  0  0  0  0  0  0  0  0
  182.8260  178.7680  141.9860 C   0  0  0  0  0  0  0  0  0  0  0  0
  181.5390  178.8780  142.5250 C   0  0  0  0  0  3  0  0  0  0  0  0
  183.0410  178.7790  140.6060 C   0  0  0  0  0  0  0  0  0  0  0  0
  181.3600  178.8630  143.9110 C   0  0  0  0  0  3  0  0  0  0  0  0
  182.4600  178.7380  144.7610 C   0  0  0  0  0  3  0  0  0  0  0  0
  185.2540  178.5380  142.2880 C   0  0  0  0  0  0  0  0  0  0  0  0
  188.6000  177.6570  144.8250 C   0  0  2  0  0  3  0  0  0  0  0  0
  186.4630  178.4040  143.1700 C   0  0  1  0  0  3  0  0  0  0  0  0
  186.0700  178.0530  144.6060 C   0  0  0  0  0  2  0  0  0  0  0  0
  187.4710  177.4030  142.5810 C   0  0  0  0  0  2  0  0  0  0  0  0
  187.2920  178.0360  145.5330 C   0  0  0  0  0  2  0  0  0  0  0  0
  188.3420  176.7230  143.6440 C   0  0  0  0  0  2  0  0  0  0  0  0
  189.5490  177.0140  145.8260 C   0  0  0  0  0  2  0  0  0  0  0  0
  190.9570  176.9970  145.3030 C   0  0  0  0  0  0  0  0  0  0  0  0
  191.9220  176.3650  145.9750 C   0  0  0  0  0  3  0  0  0  0  0  0
  191.4340  178.9250  144.0100 O   0  0  0  0  0  0  0  0  0  0  0  0
  191.2740  177.6740  144.0310 C   0  0  0  0  0  0  0  0  0  0  0  0
  191.3950  176.9170  142.8210 N   0  0  0  0  0  2  0  0  0  0  0  0
  191.7260  177.5310  141.5440 C   0  0  0  0  0  2  0  0  0  0  0  0
  191.0990  176.7860  140.4650 N   0  0  0  0  0  2  0  0  0  0  0  0
  189.9510  177.5630  140.0340 C   0  0  0  0  0  1  0  0  0  0  0  0
  191.6680  175.6960  147.2090 N   0  0  0  0  0  2  0  0  0  0  0  0
  192.6050  175.8230  148.3070 C   0  0  0  0  0  1  0  0  0  0  0  0
  184.7470  177.4510  138.0030 C   0  0  0  0  0  2  0  0  0  0  0  0
  187.0960  177.8530  137.9040 O   0  0  0  0  0  0  0  0  0  0  0  0
  185.9350  177.7680  137.1130 C   0  0  1  0  0  3  0  0  0  0  0  0
  186.9110  176.6620  137.1770 C   0  0  1  0  0  3  0  0  0  0  0  0
  187.7990  176.6890  135.9410 C   0  0  0  0  0  2  0  0  0  0  0  0
  189.1860  176.1070  136.2070 C   0  0  0  0  0  0  0  0  0  0  0  0
  189.1100  175.2440  137.2990 O   0  0  0  0  0  1  0  0  0  0  0  0
  190.0870  177.1340  136.5010 O   0  0  0  0  0  1  0  0  0  0  0  0
  189.6800  175.3290  135.0000 C   0  0  0  0  0  1  0  0  0  0  0  0
  1 10  2  0  0  0  0
  1  6  1  0  0  0  0
  2 10  1  0  0  0  0
  3  5  1  0  0  0  0
  4 31  1  6  0  0  0
  4  1  1  0  0  0  0
  5 12  2  0  0  0  0
  6 13  2  0  0  0  0
  7  4  1  0  0  0  0
  7  2  1  0  0  0  0
  8  9  1  0  0  0  0
  8  3  2  0  0  0  0
  9 11  2  0  0  0  0
 10  8  1  0  0  0  0
 11 12  1  0  0  0  0
 13  3  1  0  0  0  0
 14 18  1  0  0  0  0
 14 20  1  1  0  0  0
 15 13  1  6  0  0  0
 15 16  1  0  0  0  0
 16 18  1  0  0  0  0
 17 15  1  0  0  0  0
 17 19  1  0  0  0  0
 19 14  1  0  0  0  0
 21 20  1  0  0  0  0
 21 22  2  0  0  0  0
 22 29  1  0  0  0  0
 23 24  2  0  0  0  0
 24 21  1  0  0  0  0
 25 24  1  0  0  0  0
 26 25  1  0  0  0  0
 27 26  1  0  0  0  0
 28 27  1  0  0  0  0
 29 30  1  0  0  0  0
 33 34  1  0  0  0  0
 33 32  1  0  0  0  0
 33 31  1  1  0  0  0
 34 35  1  6  0  0  0
 34 32  1  0  0  0  0
 35 36  1  0  0  0  0
 36 38  1  0  0  0  0
 36 37  1  0  0  0  0
 39 36  1  0  0  0  0
M  END
>  <MODEL>
5

>  <REMARK>
 VINA RESULT:      -8.3      2.945      7.599
  Name = 
  11 active torsions:
  status: ('A' for Active; 'I' for Inactive)
    1  A    between atoms: C_1  and  C_2
    2  A    between atoms: C_1  and  C_28
    3  A    between atoms: C_3  and  C_30
    4  A    between atoms: C_6  and  C_38
    5  A    between atoms: C_9  and  C_18
    6  A    between atoms: C_9  and  C_30
    7  A    between atoms: C_11  and  C_25
    8  A    between atoms: N_13  and  C_26
    9  A    between atoms: C_17  and  C_25
   10  A    between atoms: C_20  and  N_29
   11  A    between atoms: C_20  and  N_37
                            x       y       z     vdW  Elec       q    Type
                         _______ _______ _______ _____ _____    ______ ____

>  <TORSDO>
F 11

$$$$
=
 OpenBabel10232412073D

 39 43  0  0  1  0  0  0  0  0999 V2000
  189.0670  176.4640  136.8760 C   0  0  0  0  0  0  0  0  0  0  0  0
  189.9030  176.0760  134.7740 C   0  0  0  0  0  2  0  0  0  0  0  0
  191.4670  176.3270  138.2760 C   0  0  0  0  0  0  0  0  0  0  0  0
  187.9460  176.4750  135.9210 C   0  0  2  0  0  3  0  0  0  0  0  0
  192.6960  176.2540  138.9500 C   0  0  0  0  0  3  0  0  0  0  0  0
  189.0420  176.6300  138.2600 C   0  0  0  0  0  3  0  0  0  0  0  0
  188.4990  176.2480  134.6290 O   0  0  0  0  0  0  0  0  0  0  0  0
  191.4440  176.1540  136.8650 C   0  0  0  0  0  0  0  0  0  0  0  0
  192.6320  175.9130  136.1660 C   0  0  0  0  0  3  0  0  0  0  0  0
  190.2140  176.2300  136.2060 C   0  0  0  0  0  0  0  0  0  0  0  0
  193.8460  175.8430  136.8560 C   0  0  0  0  0  3  0  0  0  0  0  0
  193.8770  176.0140  138.2420 C   0  0  0  0  0  3  0  0  0  0  0  0
  190.2550  176.5650  138.9760 C   0  0  0  0  0  0  0  0  0  0  0  0
  190.1360  177.5920  143.1400 C   0  0  2  0  0  3  0  0  0  0  0  0
  190.2470  176.7530  140.4670 C   0  0  1  0  0  3  0  0  0  0  0  0
  191.4490  177.5780  140.9310 C   0  0  0  0  0  2  0  0  0  0  0  0
  188.9130  177.3480  140.9450 C   0  0  0  0  0  2  0  0  0  0  0  0
  191.5100  177.6670  142.4610 C   0  0  0  0  0  2  0  0  0  0  0  0
  189.0400  178.1600  142.2400 C   0  0  0  0  0  2  0  0  0  0  0  0
  190.1850  178.3370  144.4660 C   0  0  0  0  0  2  0  0  0  0  0  0
  189.4930  177.5610  145.5500 C   0  0  0  0  0  0  0  0  0  0  0  0
  190.2010  176.8780  146.4530 C   0  0  0  0  0  3  0  0  0  0  0  0
  187.3490  176.9060  144.7810 O   0  0  0  0  0  0  0  0  0  0  0  0
  188.0200  177.5630  145.6240 C   0  0  0  0  0  0  0  0  0  0  0  0
  187.3490  178.3090  146.6450 N   0  0  0  0  0  2  0  0  0  0  0  0
  185.9000  178.3300  146.7770 C   0  0  0  0  0  2  0  0  0  0  0  0
  185.3480  179.4020  145.9660 N   0  0  0  0  0  2  0  0  0  0  0  0
  184.1630  178.8670  145.3190 C   0  0  0  0  0  1  0  0  0  0  0  0
  191.6260  176.8440  146.4240 N   0  0  0  0  0  2  0  0  0  0  0  0
  192.3350  175.7280  147.0180 C   0  0  0  0  0  1  0  0  0  0  0  0
  187.2390  177.8220  135.9550 C   0  0  0  0  0  2  0  0  0  0  0  0
  185.7220  176.6110  137.3390 O   0  0  0  0  0  0  0  0  0  0  0  0
  185.7970  177.6490  136.3930 C   0  0  1  0  0  3  0  0  0  0  0  0
  185.6820  177.9260  137.8390 C   0  0  1  0  0  3  0  0  0  0  0  0
  184.2430  178.2860  138.1800 C   0  0  0  0  0  2  0  0  0  0  0  0
  184.1410  179.1540  139.4330 C   0  0  0  0  0  0  0  0  0  0  0  0
  182.9790  178.8130  140.1230 O   0  0  0  0  0  1  0  0  0  0  0  0
  184.0790  180.5030  139.0770 O   0  0  0  0  0  1  0  0  0  0  0  0
  185.3360  178.9230  140.3420 C   0  0  0  0  0  1  0  0  0  0  0  0
  1  6  1  0  0  0  0
  2 10  1  0  0  0  0
  3  5  1  0  0  0  0
  3 13  1  0  0  0  0
  4 31  1  6  0  0  0
  4  1  1  0  0  0  0
  6 13  2  0  0  0  0
  7  2  1  0  0  0  0
  7  4  1  0  0  0  0
  8  3  2  0  0  0  0
  9 11  2  0  0  0  0
  9  8  1  0  0  0  0
 10  8  1  0  0  0  0
 10  1  2  0  0  0  0
 11 12  1  0  0  0  0
 12  5  2  0  0  0  0
 14 20  1  1  0  0  0
 15 13  1  6  0  0  0
 15 16  1  0  0  0  0
 15 17  1  0  0  0  0
 16 18  1  0  0  0  0
 17 19  1  0  0  0  0
 18 14  1  0  0  0  0
 19 14  1  0  0  0  0
 20 21  1  0  0  0  0
 21 24  1  0  0  0  0
 21 22  2  0  0  0  0
 23 24  2  0  0  0  0
 24 25  1  0  0  0  0
 25 26  1  0  0  0  0
 27 26  1  0  0  0  0
 28 27  1  0  0  0  0
 29 22  1  0  0  0  0
 29 30  1  0  0  0  0
 32 34  1  0  0  0  0
 33 31  1  1  0  0  0
 33 32  1  0  0  0  0
 33 34  1  0  0  0  0
 34 35  1  6  0  0  0
 35 36  1  0  0  0  0
 36 37  1  0  0  0  0
 36 39  1  0  0  0  0
 38 36  1  0  0  0  0
M  END
>  <MODEL>
6

>  <REMARK>
 VINA RESULT:      -8.1      3.496      8.561
  Name = 
  11 active torsions:
  status: ('A' for Active; 'I' for Inactive)
    1  A    between atoms: C_1  and  C_2
    2  A    between atoms: C_1  and  C_28
    3  A    between atoms: C_3  and  C_30
    4  A    between atoms: C_6  and  C_38
    5  A    between atoms: C_9  and  C_18
    6  A    between atoms: C_9  and  C_30
    7  A    between atoms: C_11  and  C_25
    8  A    between atoms: N_13  and  C_26
    9  A    between atoms: C_17  and  C_25
   10  A    between atoms: C_20  and  N_29
   11  A    between atoms: C_20  and  N_37
                            x       y       z     vdW  Elec       q    Type
                         _______ _______ _______ _____ _____    ______ ____

>  <TORSDO>
F 11

$$$$
=
 OpenBabel10232412073D

 39 43  0  0  1  0  0  0  0  0999 V2000
  189.7100  177.2170  138.0430 C   0  0  0  0  0  0  0  0  0  0  0  0
  188.5800  177.4650  136.0610 C   0  0  0  0  0  2  0  0  0  0  0  0
  187.6570  177.9840  139.7560 C   0  0  0  0  0  0  0  0  0  0  0  0
  190.6230  176.8700  136.9410 C   0  0  2  0  0  3  0  0  0  0  0  0
  186.5980  178.3750  140.5910 C   0  0  0  0  0  3  0  0  0  0  0  0
  189.9590  177.2380  139.4150 C   0  0  0  0  0  3  0  0  0  0  0  0
  189.8880  177.0180  135.7310 O   0  0  0  0  0  0  0  0  0  0  0  0
  187.4510  177.9580  138.3490 C   0  0  0  0  0  0  0  0  0  0  0  0
  186.2100  178.3190  137.8140 C   0  0  0  0  0  3  0  0  0  0  0  0
  188.5130  177.5670  137.5300 C   0  0  0  0  0  0  0  0  0  0  0  0
  185.1690  178.7050  138.6620 C   0  0  0  0  0  3  0  0  0  0  0  0
  185.3620  178.7310  140.0450 C   0  0  0  0  0  3  0  0  0  0  0  0
  188.9220  177.6220  140.2900 C   0  0  0  0  0  0  0  0  0  0  0  0
  190.1190  177.7560  144.4080 C   0  0  2  0  0  3  0  0  0  0  0  0
  189.1700  177.6390  141.7710 C   0  0  1  0  0  3  0  0  0  0  0  0
  189.9840  176.4220  142.2140 C   0  0  0  0  0  2  0  0  0  0  0  0
  189.8160  178.9630  142.2110 C   0  0  0  0  0  2  0  0  0  0  0  0
  190.1330  176.3740  143.7400 C   0  0  0  0  0  2  0  0  0  0  0  0
  190.6760  178.8290  143.4730 C   0  0  0  0  0  2  0  0  0  0  0  0
  190.9150  177.7010  145.7030 C   0  0  0  0  0  2  0  0  0  0  0  0
  190.0920  177.1260  146.8210 C   0  0  0  0  0  0  0  0  0  0  0  0
  190.5680  176.1270  147.5680 C   0  0  0  0  0  3  0  0  0  0  0  0
  188.5920  178.4640  148.0750 O   0  0  0  0  0  0  0  0  0  0  0  0
  188.7540  177.6780  147.1020 C   0  0  0  0  0  0  0  0  0  0  0  0
  187.6380  177.3220  146.2770 N   0  0  0  0  0  2  0  0  0  0  0  0
  186.3010  177.8530  146.4970 C   0  0  0  0  0  2  0  0  0  0  0  0
  185.8120  178.4720  145.2760 N   0  0  0  0  0  2  0  0  0  0  0  0
  184.4380  178.8660  145.5300 C   0  0  0  0  0  1  0  0  0  0  0  0
  191.8550  175.5580  147.3370 N   0  0  0  0  0  2  0  0  0  0  0  0
  192.9150  175.7480  148.3060 C   0  0  0  0  0  1  0  0  0  0  0  0
  191.0990  175.4320  137.0870 C   0  0  0  0  0  2  0  0  0  0  0  0
  193.2910  176.3700  137.1090 O   0  0  0  0  0  0  0  0  0  0  0  0
  192.5310  175.2990  136.6030 C   0  0  1  0  0  3  0  0  0  0  0  0
  193.4320  175.1300  137.7610 C   0  0  1  0  0  3  0  0  0  0  0  0
  194.7290  174.4740  137.3100 C   0  0  0  0  0  2  0  0  0  0  0  0
  195.6680  174.1750  138.4790 C   0  0  0  0  0  0  0  0  0  0  0  0
  195.3290  172.9370  139.0220 O   0  0  0  0  0  1  0  0  0  0  0  0
  195.5330  175.1560  139.4630 O   0  0  0  0  0  1  0  0  0  0  0  0
  197.1100  174.1240  138.0060 C   0  0  0  0  0  1  0  0  0  0  0  0
  1  6  1  0  0  0  0
  2 10  1  0  0  0  0
  3 13  1  0  0  0  0
  3  5  1  0  0  0  0
  4 31  1  1  0  0  0
  4  1  1  0  0  0  0
  6 13  2  0  0  0  0
  7  2  1  0  0  0  0
  7  4  1  0  0  0  0
  8  3  2  0  0  0  0
  9  8  1  0  0  0  0
  9 11  2  0  0  0  0
 10  1  2  0  0  0  0
 10  8  1  0  0  0  0
 11 12  1  0  0  0  0
 12  5  2  0  0  0  0
 14 20  1  1  0  0  0
 15 13  1  6  0  0  0
 15 17  1  0  0  0  0
 15 16  1  0  0  0  0
 16 18  1  0  0  0  0
 17 19  1  0  0  0  0
 18 14  1  0  0  0  0
 19 14  1  0  0  0  0
 20 21  1  0  0  0  0
 21 24  1  0  0  0  0
 21 22  2  0  0  0  0
 24 23  2  0  0  0  0
 25 26  1  0  0  0  0
 25 24  1  0  0  0  0
 27 28  1  0  0  0  0
 27 26  1  0  0  0  0
 29 22  1  0  0  0  0
 29 30  1  0  0  0  0
 32 34  1  0  0  0  0
 33 31  1  1  0  0  0
 33 32  1  0  0  0  0
 33 34  1  0  0  0  0
 34 35  1  6  0  0  0
 35 36  1  0  0  0  0
 36 37  1  0  0  0  0
 36 38  1  0  0  0  0
 39 36  1  0  0  0  0
M  END
>  <MODEL>
7

>  <REMARK>
 VINA RESULT:      -8.1      3.636     10.034
  Name = 
  11 active torsions:
  status: ('A' for Active; 'I' for Inactive)
    1  A    between atoms: C_1  and  C_2
    2  A    between atoms: C_1  and  C_28
    3  A    between atoms: C_3  and  C_30
    4  A    between atoms: C_6  and  C_38
    5  A    between atoms: C_9  and  C_18
    6  A    between atoms: C_9  and  C_30
    7  A    between atoms: C_11  and  C_25
    8  A    between atoms: N_13  and  C_26
    9  A    between atoms: C_17  and  C_25
   10  A    between atoms: C_20  and  N_29
   11  A    between atoms: C_20  and  N_37
                            x       y       z     vdW  Elec       q    Type
                         _______ _______ _______ _____ _____    ______ ____

>  <TORSDO>
F 11

$$$$
=
 OpenBabel10232412073D

 39 43  0  0  1  0  0  0  0  0999 V2000
  184.1690  178.9790  139.9650 C   0  0  0  0  0  0  0  0  0  0  0  0
  181.9680  179.2270  139.3640 C   0  0  0  0  0  2  0  0  0  0  0  0
  183.7940  178.7330  142.7100 C   0  0  0  0  0  0  0  0  0  0  0  0
  184.1020  179.1460  138.5030 C   0  0  2  0  0  3  0  0  0  0  0  0
  183.5680  178.6100  144.0900 C   0  0  0  0  0  3  0  0  0  0  0  0
  185.2900  178.8200  140.7790 C   0  0  0  0  0  3  0  0  0  0  0  0
  182.7270  179.2800  138.1620 O   0  0  0  0  0  0  0  0  0  0  0  0
  182.6810  178.9060  141.8420 C   0  0  0  0  0  0  0  0  0  0  0  0
  181.3830  178.9540  142.3640 C   0  0  0  0  0  3  0  0  0  0  0  0
  182.9200  179.0270  140.4710 C   0  0  0  0  0  0  0  0  0  0  0  0
  181.1800  178.8300  143.7410 C   0  0  0  0  0  3  0  0  0  0  0  0
  182.2670  178.6580  144.6000 C   0  0  0  0  0  3  0  0  0  0  0  0
  185.1070  178.6910  142.1710 C   0  0  0  0  0  0  0  0  0  0  0  0
  188.4290  177.6700  144.6880 C   0  0  2  0  0  3  0  0  0  0  0  0
  186.3030  178.5090  143.0620 C   0  0  1  0  0  3  0  0  0  0  0  0
  185.8920  178.0140  144.4510 C   0  0  0  0  0  2  0  0  0  0  0  0
  187.3500  177.5950  142.4060 C   0  0  0  0  0  2  0  0  0  0  0  0
  187.0960  177.9450  145.3990 C   0  0  0  0  0  2  0  0  0  0  0  0
  188.2200  176.8430  143.4200 C   0  0  0  0  0  2  0  0  0  0  0  0
  189.3760  176.9620  145.6440 C   0  0  0  0  0  2  0  0  0  0  0  0
  190.8100  177.2160  145.2730 C   0  0  0  0  0  0  0  0  0  0  0  0
  191.7900  176.9660  146.1450 C   0  0  0  0  0  3  0  0  0  0  0  0
  191.1040  178.9750  143.7130 O   0  0  0  0  0  0  0  0  0  0  0  0
  191.1370  177.7330  143.9310 C   0  0  0  0  0  0  0  0  0  0  0  0
  191.4880  176.8320  142.8750 N   0  0  0  0  0  2  0  0  0  0  0  0
  191.8400  177.2890  141.5390 C   0  0  0  0  0  2  0  0  0  0  0  0
  190.6530  177.3170  140.7020 N   0  0  0  0  0  2  0  0  0  0  0  0
  191.0360  176.7590  139.4170 C   0  0  0  0  0  1  0  0  0  0  0  0
  191.5260  176.4660  147.4540 N   0  0  0  0  0  2  0  0  0  0  0  0
  192.3570  175.4160  148.0080 C   0  0  0  0  0  1  0  0  0  0  0  0
  184.6940  177.9280  137.8070 C   0  0  0  0  0  2  0  0  0  0  0  0
  183.1140  176.4060  136.8730 O   0  0  0  0  0  0  0  0  0  0  0  0
  183.8240  176.7090  138.0500 C   0  0  1  0  0  3  0  0  0  0  0  0
  184.2440  175.6140  137.1510 C   0  0  1  0  0  3  0  0  0  0  0  0
  183.7900  174.2790  137.7220 C   0  0  0  0  0  2  0  0  0  0  0  0
  184.6020  173.1050  137.1770 C   0  0  0  0  0  0  0  0  0  0  0  0
  185.6030  172.7870  138.0940 O   0  0  0  0  0  1  0  0  0  0  0  0
  185.1950  173.4570  135.9620 O   0  0  0  0  0  1  0  0  0  0  0  0
  183.7150  171.8890  136.9770 C   0  0  0  0  0  1  0  0  0  0  0  0
  1 10  2  0  0  0  0
  1  6  1  0  0  0  0
  2 10  1  0  0  0  0
  3  5  1  0  0  0  0
  4 31  1  6  0  0  0
  4  1  1  0  0  0  0
  5 12  2  0  0  0  0
  6 13  2  0  0  0  0
  7  4  1  0  0  0  0
  7  2  1  0  0  0  0
  8  9  1  0  0  0  0
  8  3  2  0  0  0  0
  9 11  2  0  0  0  0
 10  8  1  0  0  0  0
 11 12  1  0  0  0  0
 13  3  1  0  0  0  0
 14 18  1  0  0  0  0
 14 20  1  1  0  0  0
 15 13  1  6  0  0  0
 15 16  1  0  0  0  0
 16 18  1  0  0  0  0
 17 15  1  0  0  0  0
 17 19  1  0  0  0  0
 19 14  1  0  0  0  0
 21 20  1  0  0  0  0
 21 22  2  0  0  0  0
 22 29  1  0  0  0  0
 23 24  2  0  0  0  0
 24 21  1  0  0  0  0
 25 24  1  0  0  0  0
 26 25  1  0  0  0  0
 27 26  1  0  0  0  0
 28 27  1  0  0  0  0
 29 30  1  0  0  0  0
 32 34  1  0  0  0  0
 32 33  1  0  0  0  0
 33 31  1  6  0  0  0
 34 35  1  1  0  0  0
 34 33  1  0  0  0  0
 36 35  1  0  0  0  0
 36 37  1  0  0  0  0
 38 36  1  0  0  0  0
 39 36  1  0  0  0  0
M  END
>  <MODEL>
8

>  <REMARK>
 VINA RESULT:      -7.9      3.442      7.509
  Name = 
  11 active torsions:
  status: ('A' for Active; 'I' for Inactive)
    1  A    between atoms: C_1  and  C_2
    2  A    between atoms: C_1  and  C_28
    3  A    between atoms: C_3  and  C_30
    4  A    between atoms: C_6  and  C_38
    5  A    between atoms: C_9  and  C_18
    6  A    between atoms: C_9  and  C_30
    7  A    between atoms: C_11  and  C_25
    8  A    between atoms: N_13  and  C_26
    9  A    between atoms: C_17  and  C_25
   10  A    between atoms: C_20  and  N_29
   11  A    between atoms: C_20  and  N_37
                            x       y       z     vdW  Elec       q    Type
                         _______ _______ _______ _____ _____    ______ ____

>  <TORSDO>
F 11

$$$$
=
 OpenBabel10232412073D

 39 43  0  0  1  0  0  0  0  0999 V2000
  192.0970  176.1560  137.7940 C   0  0  0  0  0  0  0  0  0  0  0  0
  191.6430  176.1230  135.5440 C   0  0  0  0  0  2  0  0  0  0  0  0
  189.5880  176.9660  138.6810 C   0  0  0  0  0  0  0  0  0  0  0  0
  193.3200  175.7540  137.0780 C   0  0  2  0  0  3  0  0  0  0  0  0
  188.3100  177.3740  139.0940 C   0  0  0  0  0  3  0  0  0  0  0  0
  191.9000  176.3360  139.1620 C   0  0  0  0  0  3  0  0  0  0  0  0
  193.0010  175.7270  135.6920 O   0  0  0  0  0  0  0  0  0  0  0  0
  189.8370  176.7790  137.2940 C   0  0  0  0  0  0  0  0  0  0  0  0
  188.8180  177.0020  136.3610 C   0  0  0  0  0  3  0  0  0  0  0  0
  191.1130  176.3730  136.8970 C   0  0  0  0  0  0  0  0  0  0  0  0
  187.5530  177.4080  136.7920 C   0  0  0  0  0  3  0  0  0  0  0  0
  187.2990  177.5910  138.1530 C   0  0  0  0  0  3  0  0  0  0  0  0
  190.6300  176.7430  139.6200 C   0  0  0  0  0  0  0  0  0  0  0  0
  190.0480  177.7770  143.7430 C   0  0  2  0  0  3  0  0  0  0  0  0
  190.3970  176.9320  141.0920 C   0  0  1  0  0  3  0  0  0  0  0  0
  191.6860  177.3300  141.8130 C   0  0  0  0  0  2  0  0  0  0  0  0
  189.2540  177.9260  141.3510 C   0  0  0  0  0  2  0  0  0  0  0  0
  191.4790  177.4030  143.3310 C   0  0  0  0  0  2  0  0  0  0  0  0
  189.3810  178.6610  142.6910 C   0  0  0  0  0  2  0  0  0  0  0  0
  190.0770  178.4740  145.0950 C   0  0  0  0  0  2  0  0  0  0  0  0
  189.4690  177.6090  146.1630 C   0  0  0  0  0  0  0  0  0  0  0  0
  190.2390  176.8230  146.9190 C   0  0  0  0  0  3  0  0  0  0  0  0
  187.5360  177.2400  147.4840 O   0  0  0  0  0  0  0  0  0  0  0  0
  188.0110  177.6390  146.3860 C   0  0  0  0  0  0  0  0  0  0  0  0
  187.1330  178.1150  145.3590 N   0  0  0  0  0  2  0  0  0  0  0  0
  185.6900  178.1850  145.5330 C   0  0  0  0  0  2  0  0  0  0  0  0
  185.1400  179.2090  144.6610 N   0  0  0  0  0  2  0  0  0  0  0  0
  184.4770  178.5150  143.5710 C   0  0  0  0  0  1  0  0  0  0  0  0
  191.6530  176.7580  146.7430 N   0  0  0  0  0  2  0  0  0  0  0  0
  192.4060  175.6720  147.3360 C   0  0  0  0  0  1  0  0  0  0  0  0
  193.7660  174.3720  137.5360 C   0  0  0  0  0  2  0  0  0  0  0  0
  195.3620  173.2060  138.8680 O   0  0  0  0  0  0  0  0  0  0  0  0
  195.0430  174.4730  138.3490 C   0  0  1  0  0  3  0  0  0  0  0  0
  196.0870  173.6260  137.7380 C   0  0  1  0  0  3  0  0  0  0  0  0
  197.4620  174.1090  138.1770 C   0  0  0  0  0  2  0  0  0  0  0  0
  198.4360  174.2390  137.0070 C   0  0  0  0  0  0  0  0  0  0  0  0
  198.6590  172.9740  136.4660 O   0  0  0  0  0  1  0  0  0  0  0  0
  199.6510  174.7640  137.4520 O   0  0  0  0  0  1  0  0  0  0  0  0
  197.8580  175.1390  135.9290 C   0  0  0  0  0  1  0  0  0  0  0  0
  1  6  1  0  0  0  0
  2  7  1  0  0  0  0
  2 10  1  0  0  0  0
  3  5  1  0  0  0  0
  3 13  1  0  0  0  0
  4 31  1  1  0  0  0
  4  1  1  0  0  0  0
  6 13  2  0  0  0  0
  7  4  1  0  0  0  0
  8  3  2  0  0  0  0
  9 11  2  0  0  0  0
  9  8  1  0  0  0  0
 10  8  1  0  0  0  0
 10  1  2  0  0  0  0
 11 12  1  0  0  0  0
 12  5  2  0  0  0  0
 14 20  1  1  0  0  0
 15 13  1  6  0  0  0
 15 17  1  0  0  0  0
 15 16  1  0  0  0  0
 16 18  1  0  0  0  0
 17 19  1  0  0  0  0
 18 14  1  0  0  0  0
 19 14  1  0  0  0  0
 20 21  1  0  0  0  0
 21 24  1  0  0  0  0
 21 22  2  0  0  0  0
 24 23  2  0  0  0  0
 25 26  1  0  0  0  0
 25 24  1  0  0  0  0
 27 26  1  0  0  0  0
 28 27  1  0  0  0  0
 29 22  1  0  0  0  0
 29 30  1  0  0  0  0
 33 31  1  6  0  0  0
 33 32  1  0  0  0  0
 34 35  1  1  0  0  0
 34 33  1  0  0  0  0
 34 32  1  0  0  0  0
 36 38  1  0  0  0  0
 36 35  1  0  0  0  0
 37 36  1  0  0  0  0
 39 36  1  0  0  0  0
M  END
>  <MODEL>
9

>  <REMARK>
 VINA RESULT:      -7.7      3.552     10.925
  Name = 
  11 active torsions:
  status: ('A' for Active; 'I' for Inactive)
    1  A    between atoms: C_1  and  C_2
    2  A    between atoms: C_1  and  C_28
    3  A    between atoms: C_3  and  C_30
    4  A    between atoms: C_6  and  C_38
    5  A    between atoms: C_9  and  C_18
    6  A    between atoms: C_9  and  C_30
    7  A    between atoms: C_11  and  C_25
    8  A    between atoms: N_13  and  C_26
    9  A    between atoms: C_17  and  C_25
   10  A    between atoms: C_20  and  N_29
   11  A    between atoms: C_20  and  N_37
                            x       y       z     vdW  Elec       q    Type
                         _______ _______ _______ _____ _____    ______ ____

>  <TORSDO>
F 11

$$$$
