=
 OpenBabel10232410123D

 66 73  0  0  1  0  0  0  0  0999 V2000
  189.8670  175.0860  136.2160 C   0  0  2  0  0  3  0  0  0  0  0  0
  189.9500  176.5600  136.5740 C   0  0  0  0  0  0  0  0  0  0  0  0
  187.3790  175.3980  136.3280 C   0  0  0  0  0  3  0  0  0  0  0  0
  188.4260  174.6120  136.0350 C   0  0  0  0  0  0  0  0  0  0  0  0
  188.7350  177.3280  136.9310 C   0  0  0  0  0  0  0  0  0  0  0  0
  191.0640  177.1490  136.5170 O   0  0  0  0  0  0  0  0  0  0  0  0
  187.5410  176.7660  136.8100 C   0  0  0  0  0  3  0  0  0  0  0  0
  187.1120  172.5660  135.9120 C   0  0  0  0  0  3  0  0  0  0  0  0
  188.8550  172.8630  134.3460 O   0  0  0  0  0  1  0  0  0  0  0  0
  188.1270  173.2990  135.4510 C   0  0  0  0  0  0  0  0  0  0  0  0
  186.7460  171.2530  135.3110 C   0  0  0  0  0  2  0  0  0  0  0  0
  183.4190  169.4380  135.5090 C   0  0  0  0  0  3  0  0  0  0  0  0
  182.5370  170.5010  135.7380 C   0  0  0  0  0  3  0  0  0  0  0  0
  183.0270  171.8190  135.8340 C   0  0  0  0  0  0  0  0  0  0  0  0
  185.2820  170.9990  135.4440 C   0  0  0  0  0  0  0  0  0  0  0  0
  184.4010  172.0670  135.6830 C   0  0  0  0  0  3  0  0  0  0  0  0
  184.7910  169.6840  135.3660 C   0  0  0  0  0  3  0  0  0  0  0  0
  182.0950  172.9570  136.1580 C   0  0  0  0  0  2  0  0  0  0  0  0
  183.4500  176.7620  137.4620 C   0  0  0  0  0  0  0  0  0  0  0  0
  182.5800  177.8700  139.8850 C   0  0  0  0  0  0  0  0  0  0  0  0
  182.7990  174.1310  136.6990 N   0  0  0  0  0  0  0  0  0  0  0  0
  182.0680  174.6760  137.8760 C   0  0  1  0  0  3  0  0  0  0  0  0
  182.9070  175.1700  135.6640 C   0  0  0  0  0  2  0  0  0  0  0  0
  182.6340  176.0020  138.3290 C   0  0  0  0  0  0  0  0  0  0  0  0
  183.8710  178.0370  137.8430 C   0  0  0  0  0  3  0  0  0  0  0  0
  182.0580  178.4820  141.1300 C   0  0  0  0  0  1  0  0  0  0  0  0
  183.8950  176.2140  136.1500 C   0  0  0  0  0  2  0  0  0  0  0  0
  182.1860  176.5720  139.5280 C   0  0  0  0  0  3  0  0  0  0  0  0
  183.4270  178.5980  139.0470 C   0  0  0  0  0  3  0  0  0  0  0  0
  180.1010  175.9970  137.2250 C   0  0  0  0  0  2  0  0  0  0  0  0
  180.5790  174.8240  137.6390 C   0  0  0  0  0  3  0  0  0  0  0  0
  191.9330  173.6640  136.9960 C   0  0  1  0  0  3  0  0  0  0  0  0
  190.5680  174.2140  137.2830 C   0  0  2  0  0  3  0  0  0  0  0  0
  190.7660  172.9270  136.7340 O   0  0  0  0  0  0  0  0  0  0  0  0
  192.5930  174.1450  135.7000 C   0  0  1  0  0  3  0  0  0  0  0  0
  193.7800  175.0110  136.1070 C   0  0  0  0  0  2  0  0  0  0  0  0
  192.9870  171.7490  135.3370 O   0  0  0  0  0  1  0  0  0  0  0  0
  194.6450  173.3010  134.6440 C   0  0  0  0  0  2  0  0  0  0  0  0
  194.9570  174.3620  135.5680 N   0  0  0  0  0  0  0  0  0  0  0  0
  196.1970  174.3570  136.2630 C   0  0  0  0  0  3  0  0  0  0  0  0
  196.4180  175.1710  137.1980 O   0  0  0  0  0  0  0  0  0  0  0  0
  193.1550  173.0280  134.7980 C   0  0  2  0  0  3  0  0  0  0  0  0
  188.8110  178.7890  137.2390 C   0  0  0  0  0  2  0  0  0  0  0  0
  189.1030  178.9620  138.7200 C   0  0  0  0  0  2  0  0  0  0  0  0
  188.1940  178.0720  139.5400 C   0  0  0  0  0  2  0  0  0  0  0  0
  188.3030  178.4860  140.9990 C   0  0  0  0  0  2  0  0  0  0  0  0
  186.9270  178.8360  141.5450 C   0  0  0  0  0  2  0  0  0  0  0  0
  187.4760  176.8720  143.0310 C   0  0  0  0  0  1  0  0  0  0  0  0
  185.4150  178.2010  143.4250 C   0  0  0  0  0  0  0  0  0  0  0  0
  184.3190  177.6410  143.1740 O   0  0  0  0  0  0  0  0  0  0  0  0
  186.5530  177.9180  142.6150 N   0  0  0  0  0  0  0  0  0  0  0  0
  185.5730  179.0490  144.6500 C   0  0  1  0  0  3  0  0  0  0  0  0
  184.4690  179.8930  144.7990 O   0  0  0  0  0  1  0  0  0  0  0  0
  186.0000  176.8910  145.7000 O   0  0  0  0  0  1  0  0  0  0  0  0
  185.8170  178.2620  145.9500 C   0  0  1  0  0  3  0  0  0  0  0  0
  187.0060  178.8550  146.7080 C   0  0  0  0  0  2  0  0  0  0  0  0
  189.0500  177.4060  146.7920 C   0  0  0  0  0  0  0  0  0  0  0  0
  189.5330  176.2770  147.0990 O   0  0  0  0  0  0  0  0  0  0  0  0
  189.7310  178.2520  145.8550 N   0  0  0  0  0  2  0  0  0  0  0  0
  187.7930  177.8040  147.3400 N   0  0  0  0  0  2  0  0  0  0  0  0
  190.6860  177.5880  143.7320 C   0  0  1  0  0  3  0  0  0  0  0  0
  190.9480  177.8340  145.1800 C   0  0  1  0  0  0  0  0  0  0  0  0
  191.5640  178.7560  144.1450 C   0  0  0  0  0  2  0  0  0  0  0  0
  191.5190  176.3560  143.4580 C   0  0  0  0  0  2  0  0  0  0  0  0
  191.6660  176.6090  145.6900 C   0  0  0  0  0  2  0  0  0  0  0  0
  191.7100  175.6500  144.6580 O   0  0  0  0  0  0  0  0  0  0  0  0
  1  4  1  1  0  0  0
  1  2  1  0  0  0  0
  1 33  1  0  0  0  0
  2  5  1  0  0  0  0
  3  7  1  0  0  0  0
  4  3  2  0  0  0  0
  5 43  1  0  0  0  0
  6  2  2  0  0  0  0
  7  5  2  0  0  0  0
  9 10  1  0  0  0  0
 10  8  2  0  0  0  0
 10  4  1  0  0  0  0
 11 15  1  0  0  0  0
 11  8  1  0  0  0  0
 12 13  1  0  0  0  0
 13 14  2  0  0  0  0
 14 18  1  0  0  0  0
 15 16  2  0  0  0  0
 16 14  1  0  0  0  0
 17 15  1  0  0  0  0
 17 12  2  0  0  0  0
 18 21  1  0  0  0  0
 19 25  2  0  0  0  0
 19 24  1  0  0  0  0
 20 26  1  0  0  0  0
 21 22  1  0  0  0  0
 22 31  1  6  0  0  0
 22 24  1  0  0  0  0
 23 27  1  0  0  0  0
 23 21  1  0  0  0  0
 24 28  2  0  0  0  0
 25 29  1  0  0  0  0
 27 19  1  0  0  0  0
 28 20  1  0  0  0  0
 29 20  2  0  0  0  0
 30 31  2  0  0  0  0
 32 34  1  6  0  0  0
 32 33  1  0  0  0  0
 33 34  1  6  0  0  0
 35 36  1  1  0  0  0
 35 32  1  0  0  0  0
 38 42  1  0  0  0  0
 38 39  1  0  0  0  0
 39 36  1  0  0  0  0
 39 40  1  0  0  0  0
 40 41  2  0  0  0  0
 42 37  1  1  0  0  0
 42 35  1  0  0  0  0
 43 44  1  0  0  0  0
 44 45  1  0  0  0  0
 45 46  1  0  0  0  0
 46 47  1  0  0  0  0
 47 51  1  0  0  0  0
 49 52  1  0  0  0  0
 50 49  2  0  0  0  0
 51 48  1  0  0  0  0
 51 49  1  0  0  0  0
 52 53  1  1  0  0  0
 52 55  1  0  0  0  0
 55 54  1  6  0  0  0
 55 56  1  0  0  0  0
 56 60  1  0  0  0  0
 57 58  2  0  0  0  0
 57 60  1  0  0  0  0
 59 57  1  0  0  0  0
 61 64  1  6  0  0  0
 61 63  1  0  0  0  0
 61 62  1  0  0  0  0
 62 65  1  0  0  0  0
 62 59  1  1  0  0  0
 63 62  1  0  0  0  0
 64 66  1  0  0  0  0
 66 65  1  0  0  0  0
M  END
>  <MODEL>
1

>  <REMARK>
 VINA RESULT:      -6.9      0.000      0.000
  Name = 
  19 active torsions:
  status: ('A' for Active; 'I' for Inactive)
    1  A    between atoms: C_4  and  C_36
    2  A    between atoms: N_7  and  C_29
    3  A    between atoms: C_8  and  C_33
    4  A    between atoms: C_10  and  N_57
    5  A    between atoms: C_13  and  C_16
    6  A    between atoms: C_13  and  C_52
    7  A    between atoms: C_15  and  C_52
    8  A    between atoms: C_15  and  N_64
    9  A    between atoms: C_17  and  C_25
   10  A    between atoms: C_18  and  C_27
   11  A    between atoms: C_21  and  C_38
   12  A    between atoms: C_21  and  N_58
   13  A    between atoms: C_22  and  C_23
   14  A    between atoms: C_29  and  C_32
   15  A    between atoms: C_33  and  C_42
   16  A    between atoms: C_34  and  C_46
   17  A    between atoms: C_34  and  C_51
   18  A    between atoms: C_38  and  C_51
   19  A    between atoms: C_46  and  C_53
                            x       y       z     vdW  Elec       q    Type
                         _______ _______ _______ _____ _____    ______ ____

>  <TORSDO>
F 19

$$$$
=
 OpenBabel10232410123D

 66 73  0  0  1  0  0  0  0  0999 V2000
  187.5230  177.6770  139.1920 C   0  0  2  0  0  3  0  0  0  0  0  0
  188.2810  176.9290  138.1100 C   0  0  0  0  0  0  0  0  0  0  0  0
  185.9620  178.3650  137.3500 C   0  0  0  0  0  3  0  0  0  0  0  0
  186.2510  178.3370  138.6600 C   0  0  0  0  0  0  0  0  0  0  0  0
  187.9120  177.0670  136.6830 C   0  0  0  0  0  0  0  0  0  0  0  0
  189.2090  176.1390  138.4380 O   0  0  0  0  0  0  0  0  0  0  0  0
  186.8220  177.7450  136.3480 C   0  0  0  0  0  3  0  0  0  0  0  0
  184.9750  178.2970  140.7330 C   0  0  0  0  0  3  0  0  0  0  0  0
  184.6500  180.1160  139.2620 O   0  0  0  0  0  1  0  0  0  0  0  0
  185.2490  178.8970  139.5730 C   0  0  0  0  0  0  0  0  0  0  0  0
  184.0010  178.8640  141.7080 C   0  0  0  0  0  2  0  0  0  0  0  0
  180.2520  178.3310  141.9540 C   0  0  0  0  0  3  0  0  0  0  0  0
  179.9820  177.6980  140.7360 C   0  0  0  0  0  3  0  0  0  0  0  0
  181.0250  177.4450  139.8220 C   0  0  0  0  0  0  0  0  0  0  0  0
  182.6100  178.4430  141.3720 C   0  0  0  0  0  0  0  0  0  0  0  0
  182.3410  177.8160  140.1450 C   0  0  0  0  0  3  0  0  0  0  0  0
  181.5630  178.7080  142.2730 C   0  0  0  0  0  3  0  0  0  0  0  0
  180.7310  176.8360  138.4770 C   0  0  0  0  0  2  0  0  0  0  0  0
  182.0850  172.9750  137.3480 C   0  0  0  0  0  0  0  0  0  0  0  0
  184.7850  172.4830  136.7820 C   0  0  0  0  0  0  0  0  0  0  0  0
  181.1950  175.4430  138.3700 N   0  0  0  0  0  0  0  0  0  0  0  0
  182.5990  175.4020  137.8760 C   0  0  1  0  0  3  0  0  0  0  0  0
  180.3280  174.6960  137.4470 C   0  0  0  0  0  2  0  0  0  0  0  0
  183.0410  173.9950  137.5480 C   0  0  0  0  0  0  0  0  0  0  0  0
  182.4970  171.7080  136.9310 C   0  0  0  0  0  3  0  0  0  0  0  0
  186.2010  172.2480  136.4110 C   0  0  0  0  0  1  0  0  0  0  0  0
  180.6380  173.2190  137.6040 C   0  0  0  0  0  2  0  0  0  0  0  0
  184.3860  173.7470  137.2420 C   0  0  0  0  0  3  0  0  0  0  0  0
  183.8430  171.4640  136.6340 C   0  0  0  0  0  3  0  0  0  0  0  0
  183.1910  175.7390  135.5160 C   0  0  0  0  0  2  0  0  0  0  0  0
  182.8370  176.2930  136.6750 C   0  0  0  0  0  3  0  0  0  0  0  0
  188.9150  178.5110  141.2570 C   0  0  1  0  0  3  0  0  0  0  0  0
  188.4180  178.7450  139.8620 C   0  0  2  0  0  3  0  0  0  0  0  0
  187.7370  179.2330  141.0010 O   0  0  0  0  0  0  0  0  0  0  0  0
  188.6080  177.1360  141.8590 C   0  0  1  0  0  3  0  0  0  0  0  0
  189.9250  176.5870  142.3970 C   0  0  0  0  0  2  0  0  0  0  0  0
  187.1900  178.4300  143.3900 O   0  0  0  0  0  1  0  0  0  0  0  0
  188.3610  176.5430  144.2310 C   0  0  0  0  0  2  0  0  0  0  0  0
  189.7360  176.4070  143.8210 N   0  0  0  0  0  0  0  0  0  0  0  0
  190.7820  176.6420  144.7540 C   0  0  0  0  0  3  0  0  0  0  0  0
  191.9830  176.7010  144.3770 O   0  0  0  0  0  0  0  0  0  0  0  0
  187.6210  177.1460  143.0450 C   0  0  2  0  0  3  0  0  0  0  0  0
  188.6290  176.2950  135.6220 C   0  0  0  0  0  2  0  0  0  0  0  0
  188.5780  174.8190  135.9740 C   0  0  0  0  0  2  0  0  0  0  0  0
  189.3330  174.0080  134.9410 C   0  0  0  0  0  2  0  0  0  0  0  0
  190.0190  172.8490  135.6470 C   0  0  0  0  0  2  0  0  0  0  0  0
  191.4320  172.6760  135.1080 C   0  0  0  0  0  2  0  0  0  0  0  0
  193.7310  172.5180  136.1370 C   0  0  0  0  0  1  0  0  0  0  0  0
  192.1820  174.3400  136.8090 C   0  0  0  0  0  0  0  0  0  0  0  0
  191.7110  174.2890  137.9720 O   0  0  0  0  0  0  0  0  0  0  0  0
  192.4110  173.1330  136.0870 N   0  0  0  0  0  0  0  0  0  0  0  0
  192.6360  175.6450  136.2290 C   0  0  1  0  0  3  0  0  0  0  0  0
  191.7190  176.6540  136.5340 O   0  0  0  0  0  1  0  0  0  0  0  0
  194.5360  175.3050  137.7180 O   0  0  0  0  0  1  0  0  0  0  0  0
  194.0550  176.0750  136.6450 C   0  0  1  0  0  3  0  0  0  0  0  0
  194.9970  176.0100  135.4430 C   0  0  0  0  0  2  0  0  0  0  0  0
  197.3240  175.2340  135.9610 C   0  0  0  0  0  0  0  0  0  0  0  0
  198.3670  175.4110  136.6570 O   0  0  0  0  0  0  0  0  0  0  0  0
  197.0740  173.9620  135.3460 N   0  0  0  0  0  2  0  0  0  0  0  0
  196.3690  176.2890  135.8460 N   0  0  0  0  0  2  0  0  0  0  0  0
  197.6250  171.7340  134.5760 C   0  0  1  0  0  3  0  0  0  0  0  0
  197.9560  172.8230  135.5400 C   0  0  1  0  0  0  0  0  0  0  0  0
  198.9470  172.4700  134.4470 C   0  0  0  0  0  2  0  0  0  0  0  0
  197.7780  170.4930  135.4250 C   0  0  0  0  0  2  0  0  0  0  0  0
  198.0020  172.1770  136.9020 C   0  0  0  0  0  2  0  0  0  0  0  0
  197.5980  170.8320  136.7780 O   0  0  0  0  0  0  0  0  0  0  0  0
  1  2  1  6  0  0  0
  1 33  1  0  0  0  0
  2  6  2  0  0  0  0
  3  4  2  0  0  0  0
  4  1  1  0  0  0  0
  4 10  1  0  0  0  0
  5  2  1  0  0  0  0
  7  5  2  0  0  0  0
  7  3  1  0  0  0  0
  8 11  1  0  0  0  0
  9 10  1  0  0  0  0
 10  8  2  0  0  0  0
 12 17  1  0  0  0  0
 13 12  2  0  0  0  0
 14 16  2  0  0  0  0
 14 13  1  0  0  0  0
 15 11  1  0  0  0  0
 15 17  2  0  0  0  0
 16 15  1  0  0  0  0
 18 14  1  0  0  0  0
 19 24  1  0  0  0  0
 19 27  1  0  0  0  0
 20 28  1  0  0  0  0
 21 18  1  0  0  0  0
 22 31  1  6  0  0  0
 22 21  1  0  0  0  0
 23 27  1  0  0  0  0
 23 21  1  0  0  0  0
 24 22  1  0  0  0  0
 25 19  2  0  0  0  0
 26 20  1  0  0  0  0
 28 24  2  0  0  0  0
 29 20  2  0  0  0  0
 29 25  1  0  0  0  0
 30 31  2  0  0  0  0
 32 34  1  1  0  0  0
 32 35  1  0  0  0  0
 33 34  1  1  0  0  0
 33 32  1  0  0  0  0
 35 36  1  1  0  0  0
 35 42  1  0  0  0  0
 36 39  1  0  0  0  0
 39 38  1  0  0  0  0
 39 40  1  0  0  0  0
 41 40  2  0  0  0  0
 42 37  1  1  0  0  0
 42 38  1  0  0  0  0
 43 44  1  0  0  0  0
 43  5  1  0  0  0  0
 45 46  1  0  0  0  0
 45 44  1  0  0  0  0
 47 46  1  0  0  0  0
 47 51  1  0  0  0  0
 49 50  2  0  0  0  0
 51 48  1  0  0  0  0
 51 49  1  0  0  0  0
 52 53  1  1  0  0  0
 52 55  1  0  0  0  0
 52 49  1  0  0  0  0
 55 54  1  1  0  0  0
 56 60  1  0  0  0  0
 56 55  1  0  0  0  0
 57 58  2  0  0  0  0
 59 57  1  0  0  0  0
 60 57  1  0  0  0  0
 61 63  1  6  0  0  0
 61 64  1  0  0  0  0
 61 62  1  0  0  0  0
 62 59  1  6  0  0  0
 62 65  1  0  0  0  0
 63 62  1  0  0  0  0
 64 66  1  0  0  0  0
 66 65  1  0  0  0  0
M  END
>  <MODEL>
2

>  <REMARK>
 VINA RESULT:      -6.9      2.068      8.987
  Name = 
  19 active torsions:
  status: ('A' for Active; 'I' for Inactive)
    1  A    between atoms: C_4  and  C_36
    2  A    between atoms: N_7  and  C_29
    3  A    between atoms: C_8  and  C_33
    4  A    between atoms: C_10  and  N_57
    5  A    between atoms: C_13  and  C_16
    6  A    between atoms: C_13  and  C_52
    7  A    between atoms: C_15  and  C_52
    8  A    between atoms: C_15  and  N_64
    9  A    between atoms: C_17  and  C_25
   10  A    between atoms: C_18  and  C_27
   11  A    between atoms: C_21  and  C_38
   12  A    between atoms: C_21  and  N_58
   13  A    between atoms: C_22  and  C_23
   14  A    between atoms: C_29  and  C_32
   15  A    between atoms: C_33  and  C_42
   16  A    between atoms: C_34  and  C_46
   17  A    between atoms: C_34  and  C_51
   18  A    between atoms: C_38  and  C_51
   19  A    between atoms: C_46  and  C_53
                            x       y       z     vdW  Elec       q    Type
                         _______ _______ _______ _____ _____    ______ ____

>  <TORSDO>
F 19

$$$$
=
 OpenBabel10232410123D

 66 73  0  0  1  0  0  0  0  0999 V2000
  187.2620  178.6150  136.9360 C   0  0  2  0  0  3  0  0  0  0  0  0
  188.7480  178.5560  137.2420 C   0  0  0  0  0  0  0  0  0  0  0  0
  186.9800  177.2000  138.9900 C   0  0  0  0  0  3  0  0  0  0  0  0
  186.4200  177.9140  138.0010 C   0  0  0  0  0  0  0  0  0  0  0  0
  189.2710  177.6950  138.3280 C   0  0  0  0  0  0  0  0  0  0  0  0
  189.5430  179.2890  136.5930 O   0  0  0  0  0  0  0  0  0  0  0  0
  188.4260  177.0680  139.1350 C   0  0  0  0  0  3  0  0  0  0  0  0
  184.3580  178.6260  139.0830 C   0  0  0  0  0  3  0  0  0  0  0  0
  184.2140  177.6940  136.9170 O   0  0  0  0  0  1  0  0  0  0  0  0
  184.9610  178.0620  138.0340 C   0  0  0  0  0  0  0  0  0  0  0  0
  182.8850  178.8400  139.1290 C   0  0  0  0  0  2  0  0  0  0  0  0
  180.5800  179.1690  142.1270 C   0  0  0  0  0  3  0  0  0  0  0  0
  181.4810  179.0100  143.1870 C   0  0  0  0  0  3  0  0  0  0  0  0
  182.8480  178.7880  142.9270 C   0  0  0  0  0  0  0  0  0  0  0  0
  182.4050  178.9140  140.5400 C   0  0  0  0  0  0  0  0  0  0  0  0
  183.3090  178.7440  141.6010 C   0  0  0  0  0  3  0  0  0  0  0  0
  181.0390  179.1180  140.8030 C   0  0  0  0  0  3  0  0  0  0  0  0
  183.8090  178.5380  144.0590 C   0  0  0  0  0  2  0  0  0  0  0  0
  187.8990  178.0360  143.0440 C   0  0  0  0  0  0  0  0  0  0  0  0
  189.7680  177.1220  144.9210 C   0  0  0  0  0  0  0  0  0  0  0  0
  185.1380  178.1130  143.5940 N   0  0  0  0  0  0  0  0  0  0  0  0
  186.0350  177.8520  144.7540 C   0  0  1  0  0  3  0  0  0  0  0  0
  185.7280  179.1570  142.7430 C   0  0  0  0  0  2  0  0  0  0  0  0
  187.4650  177.6230  144.3230 C   0  0  0  0  0  0  0  0  0  0  0  0
  189.2470  177.9280  142.6980 C   0  0  0  0  0  3  0  0  0  0  0  0
  190.7630  176.7110  145.9390 C   0  0  0  0  0  1  0  0  0  0  0  0
  186.9340  178.5630  142.0380 C   0  0  0  0  0  2  0  0  0  0  0  0
  188.4090  177.1880  145.2630 C   0  0  0  0  0  3  0  0  0  0  0  0
  190.1850  177.4840  143.6390 C   0  0  0  0  0  3  0  0  0  0  0  0
  185.4530  178.6960  146.9870 C   0  0  0  0  0  2  0  0  0  0  0  0
  185.9970  178.9500  145.7960 C   0  0  0  0  0  3  0  0  0  0  0  0
  187.1360  176.5300  135.3440 C   0  0  1  0  0  3  0  0  0  0  0  0
  186.9540  178.0040  135.5490 C   0  0  2  0  0  3  0  0  0  0  0  0
  188.1510  177.4520  135.0390 O   0  0  0  0  0  0  0  0  0  0  0  0
  187.4780  175.7130  136.5940 C   0  0  1  0  0  3  0  0  0  0  0  0
  186.3020  174.7740  136.8400 C   0  0  0  0  0  2  0  0  0  0  0  0
  189.3350  174.8940  135.2110 O   0  0  0  0  0  1  0  0  0  0  0  0
  188.2730  173.3910  136.7130 C   0  0  0  0  0  2  0  0  0  0  0  0
  186.8330  173.4300  136.7470 N   0  0  0  0  0  0  0  0  0  0  0  0
  186.0800  172.3620  136.1880 C   0  0  0  0  0  3  0  0  0  0  0  0
  184.8310  172.4540  136.0500 O   0  0  0  0  0  0  0  0  0  0  0  0
  188.7310  174.8220  136.4710 C   0  0  2  0  0  3  0  0  0  0  0  0
  190.7280  177.6710  138.6590 C   0  0  0  0  0  2  0  0  0  0  0  0
  191.4120  176.6390  137.7790 C   0  0  0  0  0  2  0  0  0  0  0  0
  192.7560  176.2610  138.3640 C   0  0  0  0  0  2  0  0  0  0  0  0
  193.1800  174.9250  137.7730 C   0  0  0  0  0  2  0  0  0  0  0  0
  194.3030  175.1350  136.7680 C   0  0  0  0  0  2  0  0  0  0  0  0
  195.4430  173.0700  135.8700 C   0  0  0  0  0  1  0  0  0  0  0  0
  196.3290  174.2100  137.8910 C   0  0  0  0  0  0  0  0  0  0  0  0
  196.2070  173.6080  138.9860 O   0  0  0  0  0  0  0  0  0  0  0  0
  195.3100  174.0900  136.9020 N   0  0  0  0  0  0  0  0  0  0  0  0
  197.5970  174.9370  137.5600 C   0  0  1  0  0  3  0  0  0  0  0  0
  198.2630  175.3060  138.7320 O   0  0  0  0  0  1  0  0  0  0  0  0
  199.5750  175.0040  136.1350 O   0  0  0  0  0  1  0  0  0  0  0  0
  198.5530  174.1720  136.6260 C   0  0  1  0  0  3  0  0  0  0  0  0
  199.1240  172.9500  137.3450 C   0  0  0  0  0  2  0  0  0  0  0  0
  198.7190  170.6420  136.4530 C   0  0  0  0  0  0  0  0  0  0  0  0
  199.2220  169.6180  135.9050 O   0  0  0  0  0  0  0  0  0  0  0  0
  197.4850  170.5410  137.1780 N   0  0  0  0  0  2  0  0  0  0  0  0
  199.4210  171.8840  136.3970 N   0  0  0  0  0  2  0  0  0  0  0  0
  195.3790  169.4970  137.7570 C   0  0  1  0  0  3  0  0  0  0  0  0
  196.8010  169.2720  137.3660 C   0  0  1  0  0  0  0  0  0  0  0  0
  195.6940  168.8870  136.4030 C   0  0  0  0  0  2  0  0  0  0  0  0
  195.1560  168.4210  138.7960 C   0  0  0  0  0  2  0  0  0  0  0  0
  197.3640  168.2980  138.3710 C   0  0  0  0  0  2  0  0  0  0  0  0
  196.3910  168.0620  139.3640 O   0  0  0  0  0  0  0  0  0  0  0  0
  1  2  1  1  0  0  0
  1  4  1  0  0  0  0
  2  5  1  0  0  0  0
  3  7  1  0  0  0  0
  4 10  1  0  0  0  0
  4  3  2  0  0  0  0
  5 43  1  0  0  0  0
  5  7  2  0  0  0  0
  6  2  2  0  0  0  0
  8 11  1  0  0  0  0
  9 10  1  0  0  0  0
 10  8  2  0  0  0  0
 11 15  1  0  0  0  0
 12 13  1  0  0  0  0
 14 13  2  0  0  0  0
 14 18  1  0  0  0  0
 15 17  1  0  0  0  0
 15 16  2  0  0  0  0
 16 14  1  0  0  0  0
 17 12  2  0  0  0  0
 19 24  1  0  0  0  0
 20 28  1  0  0  0  0
 20 26  1  0  0  0  0
 21 18  1  0  0  0  0
 21 22  1  0  0  0  0
 22 31  1  1  0  0  0
 23 21  1  0  0  0  0
 24 22  1  0  0  0  0
 24 28  2  0  0  0  0
 25 19  2  0  0  0  0
 25 29  1  0  0  0  0
 27 23  1  0  0  0  0
 27 19  1  0  0  0  0
 29 20  2  0  0  0  0
 31 30  2  0  0  0  0
 32 34  1  6  0  0  0
 32 33  1  0  0  0  0
 32 35  1  0  0  0  0
 33 34  1  6  0  0  0
 33  1  1  0  0  0  0
 35 36  1  6  0  0  0
 38 39  1  0  0  0  0
 39 36  1  0  0  0  0
 40 39  1  0  0  0  0
 41 40  2  0  0  0  0
 42 37  1  6  0  0  0
 42 35  1  0  0  0  0
 42 38  1  0  0  0  0
 44 45  1  0  0  0  0
 44 43  1  0  0  0  0
 46 45  1  0  0  0  0
 47 51  1  0  0  0  0
 47 46  1  0  0  0  0
 48 51  1  0  0  0  0
 49 50  2  0  0  0  0
 51 49  1  0  0  0  0
 52 49  1  0  0  0  0
 52 53  1  1  0  0  0
 55 54  1  1  0  0  0
 55 56  1  0  0  0  0
 55 52  1  0  0  0  0
 57 59  1  0  0  0  0
 58 57  2  0  0  0  0
 60 57  1  0  0  0  0
 60 56  1  0  0  0  0
 61 63  1  6  0  0  0
 61 64  1  0  0  0  0
 62 59  1  6  0  0  0
 62 61  1  0  0  0  0
 62 65  1  0  0  0  0
 63 62  1  0  0  0  0
 64 66  1  0  0  0  0
 65 66  1  0  0  0  0
M  END
>  <MODEL>
3

>  <REMARK>
 VINA RESULT:      -6.7      3.312      9.957
  Name = 
  19 active torsions:
  status: ('A' for Active; 'I' for Inactive)
    1  A    between atoms: C_4  and  C_36
    2  A    between atoms: N_7  and  C_29
    3  A    between atoms: C_8  and  C_33
    4  A    between atoms: C_10  and  N_57
    5  A    between atoms: C_13  and  C_16
    6  A    between atoms: C_13  and  C_52
    7  A    between atoms: C_15  and  C_52
    8  A    between atoms: C_15  and  N_64
    9  A    between atoms: C_17  and  C_25
   10  A    between atoms: C_18  and  C_27
   11  A    between atoms: C_21  and  C_38
   12  A    between atoms: C_21  and  N_58
   13  A    between atoms: C_22  and  C_23
   14  A    between atoms: C_29  and  C_32
   15  A    between atoms: C_33  and  C_42
   16  A    between atoms: C_34  and  C_46
   17  A    between atoms: C_34  and  C_51
   18  A    between atoms: C_38  and  C_51
   19  A    between atoms: C_46  and  C_53
                            x       y       z     vdW  Elec       q    Type
                         _______ _______ _______ _____ _____    ______ ____

>  <TORSDO>
F 19

$$$$
=
 OpenBabel10232410123D

 66 73  0  0  1  0  0  0  0  0999 V2000
  190.2280  175.9530  137.4380 C   0  0  2  0  0  3  0  0  0  0  0  0
  190.3390  176.9160  138.6080 C   0  0  0  0  0  0  0  0  0  0  0  0
  187.7590  176.3890  137.5650 C   0  0  0  0  0  3  0  0  0  0  0  0
  188.7950  175.8250  136.9240 C   0  0  0  0  0  0  0  0  0  0  0  0
  189.1290  177.4450  139.2790 C   0  0  0  0  0  0  0  0  0  0  0  0
  191.4790  177.3090  138.9790 O   0  0  0  0  0  0  0  0  0  0  0  0
  187.9300  177.1860  138.7760 C   0  0  0  0  0  3  0  0  0  0  0  0
  187.6600  174.1110  135.6200 C   0  0  0  0  0  3  0  0  0  0  0  0
  189.0350  175.6520  134.4740 O   0  0  0  0  0  1  0  0  0  0  0  0
  188.5010  175.1460  135.6570 C   0  0  0  0  0  0  0  0  0  0  0  0
  187.2970  173.4300  134.3460 C   0  0  0  0  0  2  0  0  0  0  0  0
  185.7130  170.0570  135.0650 C   0  0  0  0  0  3  0  0  0  0  0  0
  184.3530  170.3870  135.0780 C   0  0  0  0  0  3  0  0  0  0  0  0
  183.9450  171.7170  134.8560 C   0  0  0  0  0  0  0  0  0  0  0  0
  186.2700  172.3740  134.5840 C   0  0  0  0  0  0  0  0  0  0  0  0
  184.9060  172.7100  134.6060 C   0  0  0  0  0  3  0  0  0  0  0  0
  186.6730  171.0480  134.8230 C   0  0  0  0  0  3  0  0  0  0  0  0
  182.4900  172.0940  134.9460 C   0  0  0  0  0  2  0  0  0  0  0  0
  181.1860  176.0660  135.6750 C   0  0  0  0  0  0  0  0  0  0  0  0
  181.5290  177.2790  138.1780 C   0  0  0  0  0  0  0  0  0  0  0  0
  182.2850  173.5460  135.0690 N   0  0  0  0  0  0  0  0  0  0  0  0
  182.3230  173.9550  136.5000 C   0  0  1  0  0  3  0  0  0  0  0  0
  180.9880  173.9200  134.4860 C   0  0  0  0  0  2  0  0  0  0  0  0
  181.9060  175.3960  136.6870 C   0  0  0  0  0  0  0  0  0  0  0  0
  180.7030  177.3560  135.9030 C   0  0  0  0  0  3  0  0  0  0  0  0
  181.6450  177.8870  139.5250 C   0  0  0  0  0  1  0  0  0  0  0  0
  180.9540  175.4310  134.3470 C   0  0  0  0  0  2  0  0  0  0  0  0
  182.0540  176.0000  137.9430 C   0  0  0  0  0  3  0  0  0  0  0  0
  180.8610  177.9590  137.1570 C   0  0  0  0  0  3  0  0  0  0  0  0
  180.2160  173.4100  137.6400 C   0  0  0  0  0  2  0  0  0  0  0  0
  181.4820  173.0710  137.3970 C   0  0  0  0  0  3  0  0  0  0  0  0
  192.1020  174.1200  137.2840 C   0  0  1  0  0  3  0  0  0  0  0  0
  190.7690  174.5550  137.8150 C   0  0  2  0  0  3  0  0  0  0  0  0
  190.9010  173.8030  136.6260 O   0  0  0  0  0  0  0  0  0  0  0  0
  192.8980  175.1790  136.5160 C   0  0  1  0  0  3  0  0  0  0  0  0
  194.1470  175.4730  137.3400 C   0  0  0  0  0  2  0  0  0  0  0  0
  193.0380  173.4280  134.8000 O   0  0  0  0  0  1  0  0  0  0  0  0
  194.9060  174.8560  135.1370 C   0  0  0  0  0  2  0  0  0  0  0  0
  195.2750  175.1170  136.5050 N   0  0  0  0  0  0  0  0  0  0  0  0
  196.4570  174.5400  137.0440 C   0  0  0  0  0  3  0  0  0  0  0  0
  196.7060  174.6100  138.2770 O   0  0  0  0  0  0  0  0  0  0  0  0
  193.3880  174.7440  135.1200 C   0  0  2  0  0  3  0  0  0  0  0  0
  189.2380  178.4270  140.4010 C   0  0  0  0  0  2  0  0  0  0  0  0
  187.8610  179.0010  140.6830 C   0  0  0  0  0  2  0  0  0  0  0  0
  187.2280  178.2900  141.8590 C   0  0  0  0  0  2  0  0  0  0  0  0
  185.9980  179.0740  142.2910 C   0  0  0  0  0  2  0  0  0  0  0  0
  184.8410  178.1210  142.5540 C   0  0  0  0  0  2  0  0  0  0  0  0
  182.4530  178.3610  143.3350 C   0  0  0  0  0  1  0  0  0  0  0  0
  184.2860  179.5240  144.5410 C   0  0  0  0  0  0  0  0  0  0  0  0
  184.3290  180.7750  144.4440 O   0  0  0  0  0  0  0  0  0  0  0  0
  183.8540  178.7450  143.4280 N   0  0  0  0  0  0  0  0  0  0  0  0
  184.5480  178.8540  145.8550 C   0  0  1  0  0  3  0  0  0  0  0  0
  184.2390  177.4940  145.7740 O   0  0  0  0  0  1  0  0  0  0  0  0
  186.0080  179.9520  147.4700 O   0  0  0  0  0  1  0  0  0  0  0  0
  185.9760  179.0410  146.3990 C   0  0  1  0  0  3  0  0  0  0  0  0
  186.5680  177.6890  146.7990 C   0  0  0  0  0  2  0  0  0  0  0  0
  189.0540  177.8260  147.0910 C   0  0  0  0  0  0  0  0  0  0  0  0
  190.0430  177.6010  147.8480 O   0  0  0  0  0  0  0  0  0  0  0  0
  189.2470  177.9770  145.6780 N   0  0  0  0  0  2  0  0  0  0  0  0
  187.7390  177.8670  147.6460 N   0  0  0  0  0  2  0  0  0  0  0  0
  190.4100  177.6760  143.5760 C   0  0  1  0  0  3  0  0  0  0  0  0
  190.5500  177.8200  145.0540 C   0  0  1  0  0  0  0  0  0  0  0  0
  191.0660  178.9210  144.1460 C   0  0  0  0  0  2  0  0  0  0  0  0
  191.4430  176.6190  143.2550 C   0  0  0  0  0  2  0  0  0  0  0  0
  191.4260  176.6780  145.5050 C   0  0  0  0  0  2  0  0  0  0  0  0
  191.6800  175.8400  144.4010 O   0  0  0  0  0  0  0  0  0  0  0  0
  1  4  1  1  0  0  0
  1 33  1  0  0  0  0
  1  2  1  0  0  0  0
  2  6  2  0  0  0  0
  2  5  1  0  0  0  0
  3  7  1  0  0  0  0
  4  3  2  0  0  0  0
  5 43  1  0  0  0  0
  7  5  2  0  0  0  0
  8 10  2  0  0  0  0
  9 10  1  0  0  0  0
 10  4  1  0  0  0  0
 11 15  1  0  0  0  0
 11  8  1  0  0  0  0
 12 13  1  0  0  0  0
 14 18  1  0  0  0  0
 14 13  2  0  0  0  0
 15 16  2  0  0  0  0
 15 17  1  0  0  0  0
 16 14  1  0  0  0  0
 17 12  2  0  0  0  0
 18 21  1  0  0  0  0
 19 25  2  0  0  0  0
 19 24  1  0  0  0  0
 20 26  1  0  0  0  0
 21 22  1  0  0  0  0
 22 24  1  0  0  0  0
 22 31  1  1  0  0  0
 23 21  1  0  0  0  0
 24 28  2  0  0  0  0
 25 29  1  0  0  0  0
 27 23  1  0  0  0  0
 27 19  1  0  0  0  0
 28 20  1  0  0  0  0
 29 20  2  0  0  0  0
 31 30  2  0  0  0  0
 32 34  1  6  0  0  0
 32 33  1  0  0  0  0
 33 34  1  6  0  0  0
 35 32  1  0  0  0  0
 35 36  1  1  0  0  0
 38 39  1  0  0  0  0
 39 40  1  0  0  0  0
 39 36  1  0  0  0  0
 40 41  2  0  0  0  0
 42 37  1  1  0  0  0
 42 38  1  0  0  0  0
 42 35  1  0  0  0  0
 43 44  1  0  0  0  0
 44 45  1  0  0  0  0
 45 46  1  0  0  0  0
 46 47  1  0  0  0  0
 47 51  1  0  0  0  0
 48 51  1  0  0  0  0
 49 52  1  0  0  0  0
 50 49  2  0  0  0  0
 51 49  1  0  0  0  0
 52 53  1  6  0  0  0
 52 55  1  0  0  0  0
 55 56  1  0  0  0  0
 55 54  1  1  0  0  0
 56 60  1  0  0  0  0
 57 60  1  0  0  0  0
 57 58  2  0  0  0  0
 59 57  1  0  0  0  0
 61 64  1  6  0  0  0
 61 63  1  0  0  0  0
 61 62  1  0  0  0  0
 62 65  1  0  0  0  0
 62 59  1  1  0  0  0
 63 62  1  0  0  0  0
 64 66  1  0  0  0  0
 66 65  1  0  0  0  0
M  END
>  <MODEL>
4

>  <REMARK>
 VINA RESULT:      -6.4      1.424      2.096
  Name = 
  19 active torsions:
  status: ('A' for Active; 'I' for Inactive)
    1  A    between atoms: C_4  and  C_36
    2  A    between atoms: N_7  and  C_29
    3  A    between atoms: C_8  and  C_33
    4  A    between atoms: C_10  and  N_57
    5  A    between atoms: C_13  and  C_16
    6  A    between atoms: C_13  and  C_52
    7  A    between atoms: C_15  and  C_52
    8  A    between atoms: C_15  and  N_64
    9  A    between atoms: C_17  and  C_25
   10  A    between atoms: C_18  and  C_27
   11  A    between atoms: C_21  and  C_38
   12  A    between atoms: C_21  and  N_58
   13  A    between atoms: C_22  and  C_23
   14  A    between atoms: C_29  and  C_32
   15  A    between atoms: C_33  and  C_42
   16  A    between atoms: C_34  and  C_46
   17  A    between atoms: C_34  and  C_51
   18  A    between atoms: C_38  and  C_51
   19  A    between atoms: C_46  and  C_53
                            x       y       z     vdW  Elec       q    Type
                         _______ _______ _______ _____ _____    ______ ____

>  <TORSDO>
F 19

$$$$
=
 OpenBabel10232410123D

 66 73  0  0  1  0  0  0  0  0999 V2000
  189.2110  173.2230  135.6020 C   0  0  2  0  0  3  0  0  0  0  0  0
  188.2320  172.0880  135.3530 C   0  0  0  0  0  0  0  0  0  0  0  0
  187.1740  174.6240  136.0390 C   0  0  0  0  0  3  0  0  0  0  0  0
  188.5110  174.5080  136.0430 C   0  0  0  0  0  0  0  0  0  0  0  0
  186.7720  172.3320  135.3190 C   0  0  0  0  0  0  0  0  0  0  0  0
  188.6690  170.9120  135.2210 O   0  0  0  0  0  0  0  0  0  0  0  0
  186.2970  173.5270  135.6430 C   0  0  0  0  0  3  0  0  0  0  0  0
  190.1840  175.4660  137.5310 C   0  0  0  0  0  3  0  0  0  0  0  0
  189.1090  176.9020  135.9930 O   0  0  0  0  0  1  0  0  0  0  0  0
  189.2740  175.6440  136.5710 C   0  0  0  0  0  0  0  0  0  0  0  0
  191.0140  176.5870  138.0540 C   0  0  0  0  0  2  0  0  0  0  0  0
  188.6990  177.9410  140.7400 C   0  0  0  0  0  3  0  0  0  0  0  0
  189.5200  177.8750  141.8710 C   0  0  0  0  0  3  0  0  0  0  0  0
  190.8360  177.3820  141.7640 C   0  0  0  0  0  0  0  0  0  0  0  0
  190.5050  177.0470  139.3790 C   0  0  0  0  0  0  0  0  0  0  0  0
  191.3290  176.9710  140.5140 C   0  0  0  0  0  3  0  0  0  0  0  0
  189.1880  177.5240  139.4940 C   0  0  0  0  0  3  0  0  0  0  0  0
  191.6980  177.2350  142.9900 C   0  0  0  0  0  2  0  0  0  0  0  0
  189.7180  176.9770  146.7350 C   0  0  0  0  0  0  0  0  0  0  0  0
  187.2560  178.2410  147.1750 C   0  0  0  0  0  0  0  0  0  0  0  0
  190.9230  176.8880  144.1920 N   0  0  0  0  0  0  0  0  0  0  0  0
  189.7560  177.8010  144.3370 C   0  0  1  0  0  3  0  0  0  0  0  0
  191.7760  176.9880  145.3850 C   0  0  0  0  0  2  0  0  0  0  0  0
  189.0580  177.6200  145.6650 C   0  0  0  0  0  0  0  0  0  0  0  0
  189.1120  176.9180  147.9910 C   0  0  0  0  0  3  0  0  0  0  0  0
  185.9920  178.9730  147.4230 C   0  0  0  0  0  1  0  0  0  0  0  0
  191.0460  176.3300  146.5410 C   0  0  0  0  0  2  0  0  0  0  0  0
  187.8380  178.2680  145.8990 C   0  0  0  0  0  3  0  0  0  0  0  0
  187.8880  177.5610  148.2170 C   0  0  0  0  0  3  0  0  0  0  0  0
  191.3910  179.6330  144.2480 C   0  0  0  0  0  2  0  0  0  0  0  0
  190.1140  179.2620  144.1560 C   0  0  0  0  0  3  0  0  0  0  0  0
  191.5610  173.5270  134.4700 C   0  0  1  0  0  3  0  0  0  0  0  0
  190.0670  173.5060  134.3460 C   0  0  2  0  0  3  0  0  0  0  0  0
  190.7920  174.6980  134.5710 O   0  0  0  0  0  0  0  0  0  0  0  0
  192.1290  173.1110  135.8310 C   0  0  1  0  0  3  0  0  0  0  0  0
  192.4740  171.6300  135.7300 C   0  0  0  0  0  2  0  0  0  0  0  0
  193.8830  174.7410  135.2850 O   0  0  0  0  0  1  0  0  0  0  0  0
  194.4820  172.7560  136.4430 C   0  0  0  0  0  2  0  0  0  0  0  0
  193.9000  171.5300  135.9580 N   0  0  0  0  0  0  0  0  0  0  0  0
  194.7080  170.5840  135.2710 C   0  0  0  0  0  3  0  0  0  0  0  0
  194.1900  169.5940  134.6890 O   0  0  0  0  0  0  0  0  0  0  0  0
  193.4260  173.8350  136.2470 C   0  0  2  0  0  3  0  0  0  0  0  0
  185.8070  171.2080  135.1190 C   0  0  0  0  0  2  0  0  0  0  0  0
  184.3980  171.7270  135.3440 C   0  0  0  0  0  2  0  0  0  0  0  0
  183.4080  170.5830  135.3190 C   0  0  0  0  0  2  0  0  0  0  0  0
  182.1480  171.0200  136.0490 C   0  0  0  0  0  2  0  0  0  0  0  0
  182.4160  172.3000  136.8270 C   0  0  0  0  0  2  0  0  0  0  0  0
  180.0690  172.2540  137.7550 C   0  0  0  0  0  1  0  0  0  0  0  0
  181.1010  174.4070  137.0680 C   0  0  0  0  0  0  0  0  0  0  0  0
  180.6330  174.9630  136.0440 O   0  0  0  0  0  0  0  0  0  0  0  0
  181.1650  172.9850  137.1320 N   0  0  0  0  0  0  0  0  0  0  0  0
  181.4610  175.2170  138.2760 C   0  0  1  0  0  3  0  0  0  0  0  0
  181.1680  174.5040  139.4410 O   0  0  0  0  0  1  0  0  0  0  0  0
  183.7770  174.8410  137.6140 O   0  0  0  0  0  1  0  0  0  0  0  0
  182.9190  175.7110  138.3090 C   0  0  1  0  0  3  0  0  0  0  0  0
  183.0040  177.1360  137.7600 C   0  0  0  0  0  2  0  0  0  0  0  0
  184.6480  178.3360  139.2230 C   0  0  0  0  0  0  0  0  0  0  0  0
  185.6280  179.1350  139.2770 O   0  0  0  0  0  0  0  0  0  0  0  0
  183.8280  178.1210  140.3810 N   0  0  0  0  0  2  0  0  0  0  0  0
  184.3280  177.6990  137.9860 N   0  0  0  0  0  2  0  0  0  0  0  0
  184.9290  178.0640  142.5360 C   0  0  1  0  0  3  0  0  0  0  0  0
  184.0420  178.8430  141.6240 C   0  0  1  0  0  0  0  0  0  0  0  0
  185.4310  179.3650  141.9380 C   0  0  0  0  0  2  0  0  0  0  0  0
  184.2900  178.3000  143.8860 C   0  0  0  0  0  2  0  0  0  0  0  0
  182.8360  179.2310  142.4430 C   0  0  0  0  0  2  0  0  0  0  0  0
  182.9330  178.6180  143.7080 O   0  0  0  0  0  0  0  0  0  0  0  0
  1  2  1  6  0  0  0
  1  4  1  0  0  0  0
  3  4  2  0  0  0  0
  4 10  1  0  0  0  0
  5  2  1  0  0  0  0
  5  7  2  0  0  0  0
  6  2  2  0  0  0  0
  7  3  1  0  0  0  0
  8 11  1  0  0  0  0
  9 10  1  0  0  0  0
 10  8  2  0  0  0  0
 11 15  1  0  0  0  0
 12 13  1  0  0  0  0
 14 13  2  0  0  0  0
 14 18  1  0  0  0  0
 15 17  1  0  0  0  0
 15 16  2  0  0  0  0
 16 14  1  0  0  0  0
 17 12  2  0  0  0  0
 18 21  1  0  0  0  0
 19 25  1  0  0  0  0
 20 26  1  0  0  0  0
 20 29  1  0  0  0  0
 21 22  1  0  0  0  0
 21 23  1  0  0  0  0
 22 31  1  1  0  0  0
 22 24  1  0  0  0  0
 23 27  1  0  0  0  0
 24 28  1  0  0  0  0
 24 19  2  0  0  0  0
 25 29  2  0  0  0  0
 27 19  1  0  0  0  0
 28 20  2  0  0  0  0
 31 30  2  0  0  0  0
 32 34  1  1  0  0  0
 32 35  1  0  0  0  0
 33 32  1  0  0  0  0
 33 34  1  1  0  0  0
 33  1  1  0  0  0  0
 35 36  1  6  0  0  0
 35 42  1  0  0  0  0
 36 39  1  0  0  0  0
 39 38  1  0  0  0  0
 40 39  1  0  0  0  0
 41 40  2  0  0  0  0
 42 37  1  6  0  0  0
 42 38  1  0  0  0  0
 43  5  1  0  0  0  0
 43 44  1  0  0  0  0
 45 44  1  0  0  0  0
 45 46  1  0  0  0  0
 46 47  1  0  0  0  0
 47 51  1  0  0  0  0
 49 51  1  0  0  0  0
 49 52  1  0  0  0  0
 50 49  2  0  0  0  0
 51 48  1  0  0  0  0
 52 55  1  0  0  0  0
 52 53  1  1  0  0  0
 55 54  1  6  0  0  0
 56 60  1  0  0  0  0
 56 55  1  0  0  0  0
 57 58  2  0  0  0  0
 57 59  1  0  0  0  0
 60 57  1  0  0  0  0
 61 63  1  1  0  0  0
 61 64  1  0  0  0  0
 62 59  1  6  0  0  0
 62 63  1  0  0  0  0
 62 65  1  0  0  0  0
 62 61  1  0  0  0  0
 65 66  1  0  0  0  0
 66 64  1  0  0  0  0
M  END
>  <MODEL>
5

>  <REMARK>
 VINA RESULT:      -6.0      2.308      8.382
  Name = 
  19 active torsions:
  status: ('A' for Active; 'I' for Inactive)
    1  A    between atoms: C_4  and  C_36
    2  A    between atoms: N_7  and  C_29
    3  A    between atoms: C_8  and  C_33
    4  A    between atoms: C_10  and  N_57
    5  A    between atoms: C_13  and  C_16
    6  A    between atoms: C_13  and  C_52
    7  A    between atoms: C_15  and  C_52
    8  A    between atoms: C_15  and  N_64
    9  A    between atoms: C_17  and  C_25
   10  A    between atoms: C_18  and  C_27
   11  A    between atoms: C_21  and  C_38
   12  A    between atoms: C_21  and  N_58
   13  A    between atoms: C_22  and  C_23
   14  A    between atoms: C_29  and  C_32
   15  A    between atoms: C_33  and  C_42
   16  A    between atoms: C_34  and  C_46
   17  A    between atoms: C_34  and  C_51
   18  A    between atoms: C_38  and  C_51
   19  A    between atoms: C_46  and  C_53
                            x       y       z     vdW  Elec       q    Type
                         _______ _______ _______ _____ _____    ______ ____

>  <TORSDO>
F 19

$$$$
=
 OpenBabel10232410123D

 66 73  0  0  1  0  0  0  0  0999 V2000
  189.2300  177.6070  142.7690 C   0  0  2  0  0  3  0  0  0  0  0  0
  187.7710  178.0140  142.8780 C   0  0  0  0  0  0  0  0  0  0  0  0
  189.0080  178.1860  140.3370 C   0  0  0  0  0  3  0  0  0  0  0  0
  189.7920  177.8270  141.3660 C   0  0  0  0  0  0  0  0  0  0  0  0
  186.9780  178.3440  141.6720 C   0  0  0  0  0  0  0  0  0  0  0  0
  187.2410  178.1200  144.0180 O   0  0  0  0  0  0  0  0  0  0  0  0
  187.5760  178.4190  140.4910 C   0  0  0  0  0  3  0  0  0  0  0  0
  191.6810  177.2900  139.9270 C   0  0  0  0  0  3  0  0  0  0  0  0
  192.1310  178.2070  142.0560 O   0  0  0  0  0  1  0  0  0  0  0  0
  191.2320  177.7350  141.1020 C   0  0  0  0  0  0  0  0  0  0  0  0
  193.1340  177.2310  139.6040 C   0  0  0  0  0  2  0  0  0  0  0  0
  194.5970  174.0690  138.0990 C   0  0  0  0  0  3  0  0  0  0  0  0
  193.9310  174.0140  136.8700 C   0  0  0  0  0  3  0  0  0  0  0  0
  192.9940  175.0090  136.5260 C   0  0  0  0  0  0  0  0  0  0  0  0
  193.4190  176.1240  138.6450 C   0  0  0  0  0  0  0  0  0  0  0  0
  192.7420  176.0670  137.4150 C   0  0  0  0  0  3  0  0  0  0  0  0
  194.3400  175.1200  138.9900 C   0  0  0  0  0  3  0  0  0  0  0  0
  192.2170  174.9150  135.2400 C   0  0  0  0  0  2  0  0  0  0  0  0
  188.3370  173.2060  135.0450 C   0  0  0  0  0  0  0  0  0  0  0  0
  187.9200  170.4750  135.5120 C   0  0  0  0  0  0  0  0  0  0  0  0
  190.8430  174.4270  135.4400 N   0  0  0  0  0  0  0  0  0  0  0  0
  190.8220  172.9390  135.4760 C   0  0  1  0  0  3  0  0  0  0  0  0
  189.9790  174.9040  134.3510 C   0  0  0  0  0  2  0  0  0  0  0  0
  189.4130  172.3930  135.4650 C   0  0  0  0  0  0  0  0  0  0  0  0
  187.0580  172.6600  134.9260 C   0  0  0  0  0  3  0  0  0  0  0  0
  187.7170  169.0170  135.6850 C   0  0  0  0  0  1  0  0  0  0  0  0
  188.5370  174.6530  134.7520 C   0  0  0  0  0  2  0  0  0  0  0  0
  189.2000  171.0240  135.6750 C   0  0  0  0  0  3  0  0  0  0  0  0
  186.8500  171.2930  135.1450 C   0  0  0  0  0  3  0  0  0  0  0  0
  192.7390  171.6490  134.6410 C   0  0  0  0  0  2  0  0  0  0  0  0
  191.6130  172.3020  134.3530 C   0  0  0  0  0  3  0  0  0  0  0  0
  190.2660  175.8110  144.3810 C   0  0  1  0  0  3  0  0  0  0  0  0
  189.4280  176.1290  143.1800 C   0  0  2  0  0  3  0  0  0  0  0  0
  190.8060  175.8300  143.0830 O   0  0  0  0  0  0  0  0  0  0  0  0
  190.7460  177.0100  145.2040 C   0  0  1  0  0  3  0  0  0  0  0  0
  189.5130  177.6020  145.8790 C   0  0  0  0  0  2  0  0  0  0  0  0
  192.0220  175.3070  146.4280 O   0  0  0  0  0  1  0  0  0  0  0  0
  191.0990  177.1340  147.6330 C   0  0  0  0  0  2  0  0  0  0  0  0
  189.7440  177.5000  147.3050 N   0  0  0  0  0  0  0  0  0  0  0  0
  188.6930  177.2230  148.2200 C   0  0  0  0  0  3  0  0  0  0  0  0
  187.4880  177.3720  147.8840 O   0  0  0  0  0  0  0  0  0  0  0  0
  191.7420  176.6740  146.3320 C   0  0  2  0  0  3  0  0  0  0  0  0
  185.5550  178.7880  141.7830 C   0  0  0  0  0  2  0  0  0  0  0  0
  185.0420  179.1380  140.3970 C   0  0  0  0  0  2  0  0  0  0  0  0
  183.5520  178.8890  140.3110 C   0  0  0  0  0  2  0  0  0  0  0  0
  183.3190  177.6550  139.4540 C   0  0  0  0  0  2  0  0  0  0  0  0
  182.0840  176.9100  139.9400 C   0  0  0  0  0  2  0  0  0  0  0  0
  180.2880  178.0280  138.5630 C   0  0  0  0  0  1  0  0  0  0  0  0
  181.0450  175.7300  138.0030 C   0  0  0  0  0  0  0  0  0  0  0  0
  180.2340  174.7950  138.2130 O   0  0  0  0  0  0  0  0  0  0  0  0
  181.0780  176.8480  138.8870 N   0  0  0  0  0  0  0  0  0  0  0  0
  181.8780  175.7490  136.7580 C   0  0  1  0  0  3  0  0  0  0  0  0
  181.9460  177.0450  136.2410 O   0  0  0  0  0  1  0  0  0  0  0  0
  183.3920  174.3510  138.0620 O   0  0  0  0  0  1  0  0  0  0  0  0
  183.2950  175.1700  136.9220 C   0  0  1  0  0  3  0  0  0  0  0  0
  183.7060  174.4170  135.6570 C   0  0  0  0  0  2  0  0  0  0  0  0
  185.4090  176.2030  135.2190 C   0  0  0  0  0  0  0  0  0  0  0  0
  185.7370  177.2000  134.5110 O   0  0  0  0  0  0  0  0  0  0  0  0
  185.9870  176.0200  136.5190 N   0  0  0  0  0  2  0  0  0  0  0  0
  184.4160  175.2970  134.7380 N   0  0  0  0  0  2  0  0  0  0  0  0
  187.2740  178.0260  136.0960 C   0  0  1  0  0  3  0  0  0  0  0  0
  186.9070  176.9840  137.0980 C   0  0  1  0  0  0  0  0  0  0  0  0
  186.4390  178.4120  137.3040 C   0  0  0  0  0  2  0  0  0  0  0  0
  188.7470  178.2330  136.3680 C   0  0  0  0  0  2  0  0  0  0  0  0
  188.2080  176.4770  137.6710 C   0  0  0  0  0  2  0  0  0  0  0  0
  189.2740  177.0760  136.9680 O   0  0  0  0  0  0  0  0  0  0  0  0
  1  4  1  6  0  0  0
  1  2  1  0  0  0  0
  1 33  1  0  0  0  0
  2  6  2  0  0  0  0
  3  7  1  0  0  0  0
  3  4  2  0  0  0  0
  5 43  1  0  0  0  0
  5  2  1  0  0  0  0
  7  5  2  0  0  0  0
  8 10  2  0  0  0  0
 10  4  1  0  0  0  0
 10  9  1  0  0  0  0
 11  8  1  0  0  0  0
 12 17  1  0  0  0  0
 13 12  2  0  0  0  0
 14 13  1  0  0  0  0
 14 16  2  0  0  0  0
 15 17  2  0  0  0  0
 15 11  1  0  0  0  0
 16 15  1  0  0  0  0
 18 21  1  0  0  0  0
 18 14  1  0  0  0  0
 19 24  1  0  0  0  0
 20 28  1  0  0  0  0
 20 26  1  0  0  0  0
 21 22  1  0  0  0  0
 22 31  1  6  0  0  0
 23 27  1  0  0  0  0
 23 21  1  0  0  0  0
 24 22  1  0  0  0  0
 24 28  2  0  0  0  0
 25 19  2  0  0  0  0
 25 29  1  0  0  0  0
 27 19  1  0  0  0  0
 29 20  2  0  0  0  0
 31 30  2  0  0  0  0
 32 34  1  6  0  0  0
 32 35  1  0  0  0  0
 33 34  1  6  0  0  0
 33 32  1  0  0  0  0
 35 36  1  1  0  0  0
 35 42  1  0  0  0  0
 36 39  1  0  0  0  0
 39 38  1  0  0  0  0
 39 40  1  0  0  0  0
 41 40  2  0  0  0  0
 42 37  1  1  0  0  0
 42 38  1  0  0  0  0
 44 43  1  0  0  0  0
 45 44  1  0  0  0  0
 46 47  1  0  0  0  0
 46 45  1  0  0  0  0
 48 51  1  0  0  0  0
 49 50  2  0  0  0  0
 49 51  1  0  0  0  0
 51 47  1  0  0  0  0
 52 53  1  1  0  0  0
 52 55  1  0  0  0  0
 52 49  1  0  0  0  0
 55 54  1  1  0  0  0
 56 55  1  0  0  0  0
 57 59  1  0  0  0  0
 58 57  2  0  0  0  0
 60 57  1  0  0  0  0
 60 56  1  0  0  0  0
 61 64  1  1  0  0  0
 61 62  1  0  0  0  0
 61 63  1  0  0  0  0
 62 59  1  6  0  0  0
 62 63  1  0  0  0  0
 62 65  1  0  0  0  0
 64 66  1  0  0  0  0
 66 65  1  0  0  0  0
M  END
>  <MODEL>
6

>  <REMARK>
 VINA RESULT:      -5.7      2.517      9.447
  Name = 
  19 active torsions:
  status: ('A' for Active; 'I' for Inactive)
    1  A    between atoms: C_4  and  C_36
    2  A    between atoms: N_7  and  C_29
    3  A    between atoms: C_8  and  C_33
    4  A    between atoms: C_10  and  N_57
    5  A    between atoms: C_13  and  C_16
    6  A    between atoms: C_13  and  C_52
    7  A    between atoms: C_15  and  C_52
    8  A    between atoms: C_15  and  N_64
    9  A    between atoms: C_17  and  C_25
   10  A    between atoms: C_18  and  C_27
   11  A    between atoms: C_21  and  C_38
   12  A    between atoms: C_21  and  N_58
   13  A    between atoms: C_22  and  C_23
   14  A    between atoms: C_29  and  C_32
   15  A    between atoms: C_33  and  C_42
   16  A    between atoms: C_34  and  C_46
   17  A    between atoms: C_34  and  C_51
   18  A    between atoms: C_38  and  C_51
   19  A    between atoms: C_46  and  C_53
                            x       y       z     vdW  Elec       q    Type
                         _______ _______ _______ _____ _____    ______ ____

>  <TORSDO>
F 19

$$$$
=
 OpenBabel10232410123D

 66 73  0  0  1  0  0  0  0  0999 V2000
  189.6870  177.2870  140.7880 C   0  0  2  0  0  3  0  0  0  0  0  0
  189.3490  177.1220  142.2600 C   0  0  0  0  0  0  0  0  0  0  0  0
  191.9750  176.4730  141.4220 C   0  0  0  0  0  3  0  0  0  0  0  0
  191.1060  176.8240  140.4620 C   0  0  0  0  0  0  0  0  0  0  0  0
  190.3960  176.7810  143.2500 C   0  0  0  0  0  0  0  0  0  0  0  0
  188.1490  177.2300  142.6350 O   0  0  0  0  0  0  0  0  0  0  0  0
  191.6200  176.4810  142.8380 C   0  0  0  0  0  3  0  0  0  0  0  0
  192.8110  176.9360  138.7280 C   0  0  0  0  0  3  0  0  0  0  0  0
  190.6710  176.1330  138.1320 O   0  0  0  0  0  1  0  0  0  0  0  0
  191.5510  176.6640  139.0730 C   0  0  0  0  0  0  0  0  0  0  0  0
  193.3130  176.7370  137.3390 C   0  0  0  0  0  2  0  0  0  0  0  0
  193.5810  172.9580  137.1220 C   0  0  0  0  0  3  0  0  0  0  0  0
  192.6660  172.6730  136.1020 C   0  0  0  0  0  3  0  0  0  0  0  0
  191.9500  173.7170  135.4810 C   0  0  0  0  0  0  0  0  0  0  0  0
  193.0960  175.3290  136.8950 C   0  0  0  0  0  0  0  0  0  0  0  0
  192.1700  175.0470  135.8770 C   0  0  0  0  0  3  0  0  0  0  0  0
  193.7940  174.2830  137.5240 C   0  0  0  0  0  3  0  0  0  0  0  0
  190.9080  173.4120  134.4380 C   0  0  0  0  0  2  0  0  0  0  0  0
  187.1890  173.0460  136.4490 C   0  0  0  0  0  0  0  0  0  0  0  0
  184.8290  174.0880  135.3550 C   0  0  0  0  0  0  0  0  0  0  0  0
  189.6160  173.0190  135.0230 N   0  0  0  0  0  0  0  0  0  0  0  0
  188.5130  173.8250  134.4310 C   0  0  1  0  0  3  0  0  0  0  0  0
  189.6440  173.2200  136.4790 C   0  0  0  0  0  2  0  0  0  0  0  0
  187.2040  173.6060  135.1530 C   0  0  0  0  0  0  0  0  0  0  0  0
  185.9880  172.9570  137.1550 C   0  0  0  0  0  3  0  0  0  0  0  0
  183.5990  174.7070  134.8070 C   0  0  0  0  0  1  0  0  0  0  0  0
  188.4360  172.5200  137.0730 C   0  0  0  0  0  2  0  0  0  0  0  0
  186.0230  174.1440  134.6230 C   0  0  0  0  0  3  0  0  0  0  0  0
  184.8100  173.4890  136.6160 C   0  0  0  0  0  3  0  0  0  0  0  0
  187.8040  176.1770  134.3990 C   0  0  0  0  0  2  0  0  0  0  0  0
  188.8150  175.3080  134.3840 C   0  0  0  0  0  3  0  0  0  0  0  0
  188.3940  179.0940  139.3880 C   0  0  1  0  0  3  0  0  0  0  0  0
  189.5050  178.7540  140.3350 C   0  0  2  0  0  3  0  0  0  0  0  0
  189.6920  178.8060  138.9360 O   0  0  0  0  0  0  0  0  0  0  0  0
  187.4210  177.9580  139.0570 C   0  0  1  0  0  3  0  0  0  0  0  0
  186.1130  178.2760  139.7730 C   0  0  0  0  0  2  0  0  0  0  0  0
  187.6980  178.7650  136.7550 O   0  0  0  0  0  1  0  0  0  0  0  0
  185.5670  177.9760  137.4440 C   0  0  0  0  0  2  0  0  0  0  0  0
  185.1090  178.4140  138.7390 N   0  0  0  0  0  0  0  0  0  0  0  0
  184.0550  179.3620  138.8360 C   0  0  0  0  0  3  0  0  0  0  0  0
  183.7580  179.8880  139.9420 O   0  0  0  0  0  0  0  0  0  0  0  0
  187.0750  177.8080  137.5610 C   0  0  2  0  0  3  0  0  0  0  0  0
  190.0550  176.5750  144.6910 C   0  0  0  0  0  2  0  0  0  0  0  0
  190.3220  177.8660  145.4460 C   0  0  0  0  0  2  0  0  0  0  0  0
  189.0330  178.4110  146.0230 C   0  0  0  0  0  2  0  0  0  0  0  0
  188.7620  177.7060  147.3430 C   0  0  0  0  0  2  0  0  0  0  0  0
  187.3080  177.2600  147.4050 C   0  0  0  0  0  2  0  0  0  0  0  0
  186.7970  179.7030  147.7760 C   0  0  0  0  0  1  0  0  0  0  0  0
  185.3110  178.3170  146.3480 C   0  0  0  0  0  0  0  0  0  0  0  0
  184.1670  178.0590  146.7960 O   0  0  0  0  0  0  0  0  0  0  0  0
  186.4170  178.4020  147.2430 N   0  0  0  0  0  0  0  0  0  0  0  0
  185.4990  178.6740  144.9050 C   0  0  1  0  0  3  0  0  0  0  0  0
  185.6160  177.5170  144.1320 O   0  0  0  0  0  1  0  0  0  0  0  0
  184.9670  180.6500  143.5790 O   0  0  0  0  0  1  0  0  0  0  0  0
  184.4100  179.5930  144.3220 C   0  0  1  0  0  3  0  0  0  0  0  0
  183.4270  178.7770  143.4830 C   0  0  0  0  0  2  0  0  0  0  0  0
  181.2170  179.1780  142.3710 C   0  0  0  0  0  0  0  0  0  0  0  0
  180.2780  179.9980  142.1500 O   0  0  0  0  0  0  0  0  0  0  0  0
  181.4080  178.0510  141.5050 N   0  0  0  0  0  2  0  0  0  0  0  0
  182.1190  179.4180  143.4510 N   0  0  0  0  0  2  0  0  0  0  0  0
  181.2680  176.8990  139.3800 C   0  0  1  0  0  3  0  0  0  0  0  0
  180.5910  177.8370  140.3220 C   0  0  1  0  0  0  0  0  0  0  0  0
  179.9950  176.4620  140.0830 C   0  0  0  0  0  2  0  0  0  0  0  0
  180.9590  177.5140  138.0340 C   0  0  0  0  0  2  0  0  0  0  0  0
  180.1900  179.0380  139.5020 C   0  0  0  0  0  2  0  0  0  0  0  0
  180.7060  178.8870  138.1990 O   0  0  0  0  0  0  0  0  0  0  0  0
  1  4  1  1  0  0  0
  1  2  1  0  0  0  0
  2  6  2  0  0  0  0
  2  5  1  0  0  0  0
  3  7  1  0  0  0  0
  4  3  2  0  0  0  0
  5 43  1  0  0  0  0
  7  5  2  0  0  0  0
  8 10  2  0  0  0  0
  9 10  1  0  0  0  0
 10  4  1  0  0  0  0
 11  8  1  0  0  0  0
 12 17  1  0  0  0  0
 13 12  2  0  0  0  0
 14 16  2  0  0  0  0
 14 13  1  0  0  0  0
 15 11  1  0  0  0  0
 15 17  2  0  0  0  0
 16 15  1  0  0  0  0
 18 21  1  0  0  0  0
 18 14  1  0  0  0  0
 19 27  1  0  0  0  0
 19 25  1  0  0  0  0
 20 29  1  0  0  0  0
 21 23  1  0  0  0  0
 22 31  1  1  0  0  0
 22 21  1  0  0  0  0
 22 24  1  0  0  0  0
 23 27  1  0  0  0  0
 24 19  2  0  0  0  0
 26 20  1  0  0  0  0
 28 24  1  0  0  0  0
 28 20  2  0  0  0  0
 29 25  2  0  0  0  0
 31 30  2  0  0  0  0
 32 34  1  6  0  0  0
 32 33  1  0  0  0  0
 33 34  1  6  0  0  0
 33  1  1  0  0  0  0
 35 32  1  0  0  0  0
 35 36  1  1  0  0  0
 38 42  1  0  0  0  0
 38 39  1  0  0  0  0
 39 40  1  0  0  0  0
 39 36  1  0  0  0  0
 40 41  2  0  0  0  0
 42 37  1  6  0  0  0
 42 35  1  0  0  0  0
 43 44  1  0  0  0  0
 44 45  1  0  0  0  0
 45 46  1  0  0  0  0
 46 47  1  0  0  0  0
 49 50  2  0  0  0  0
 49 51  1  0  0  0  0
 51 47  1  0  0  0  0
 51 48  1  0  0  0  0
 52 53  1  6  0  0  0
 52 49  1  0  0  0  0
 55 54  1  6  0  0  0
 55 52  1  0  0  0  0
 56 55  1  0  0  0  0
 57 60  1  0  0  0  0
 58 57  2  0  0  0  0
 59 57  1  0  0  0  0
 60 56  1  0  0  0  0
 61 64  1  6  0  0  0
 61 63  1  0  0  0  0
 61 62  1  0  0  0  0
 62 59  1  1  0  0  0
 63 62  1  0  0  0  0
 64 66  1  0  0  0  0
 65 62  1  0  0  0  0
 66 65  1  0  0  0  0
M  END
>  <MODEL>
7

>  <REMARK>
 VINA RESULT:      -5.1      2.626      8.107
  Name = 
  19 active torsions:
  status: ('A' for Active; 'I' for Inactive)
    1  A    between atoms: C_4  and  C_36
    2  A    between atoms: N_7  and  C_29
    3  A    between atoms: C_8  and  C_33
    4  A    between atoms: C_10  and  N_57
    5  A    between atoms: C_13  and  C_16
    6  A    between atoms: C_13  and  C_52
    7  A    between atoms: C_15  and  C_52
    8  A    between atoms: C_15  and  N_64
    9  A    between atoms: C_17  and  C_25
   10  A    between atoms: C_18  and  C_27
   11  A    between atoms: C_21  and  C_38
   12  A    between atoms: C_21  and  N_58
   13  A    between atoms: C_22  and  C_23
   14  A    between atoms: C_29  and  C_32
   15  A    between atoms: C_33  and  C_42
   16  A    between atoms: C_34  and  C_46
   17  A    between atoms: C_34  and  C_51
   18  A    between atoms: C_38  and  C_51
   19  A    between atoms: C_46  and  C_53
                            x       y       z     vdW  Elec       q    Type
                         _______ _______ _______ _____ _____    ______ ____

>  <TORSDO>
F 19

$$$$
=
 OpenBabel10232410123D

 66 73  0  0  1  0  0  0  0  0999 V2000
  189.3210  177.4240  142.8530 C   0  0  2  0  0  3  0  0  0  0  0  0
  187.8330  177.6840  143.0120 C   0  0  0  0  0  0  0  0  0  0  0  0
  188.9920  178.1330  140.4680 C   0  0  0  0  0  3  0  0  0  0  0  0
  189.8280  177.7860  141.4580 C   0  0  0  0  0  0  0  0  0  0  0  0
  186.9860  178.0130  141.8430 C   0  0  0  0  0  0  0  0  0  0  0  0
  187.3210  177.6670  144.1650 O   0  0  0  0  0  0  0  0  0  0  0  0
  187.5480  178.2190  140.6600 C   0  0  0  0  0  3  0  0  0  0  0  0
  191.7190  177.5960  139.9370 C   0  0  0  0  0  3  0  0  0  0  0  0
  192.1450  178.2650  142.1620 O   0  0  0  0  0  1  0  0  0  0  0  0
  191.2650  177.8470  141.1660 C   0  0  0  0  0  0  0  0  0  0  0  0
  193.1650  177.6990  139.5900 C   0  0  0  0  0  2  0  0  0  0  0  0
  195.1940  174.5120  139.2310 C   0  0  0  0  0  3  0  0  0  0  0  0
  194.6150  173.9420  138.0920 C   0  0  0  0  0  3  0  0  0  0  0  0
  193.5520  174.5950  137.4350 C   0  0  0  0  0  0  0  0  0  0  0  0
  193.6750  176.4020  139.0570 C   0  0  0  0  0  0  0  0  0  0  0  0
  193.0850  175.8290  137.9180 C   0  0  0  0  0  3  0  0  0  0  0  0
  194.7230  175.7390  139.7180 C   0  0  0  0  0  3  0  0  0  0  0  0
  192.8720  173.9500  136.2560 C   0  0  0  0  0  2  0  0  0  0  0  0
  193.7930  169.9620  135.1350 C   0  0  0  0  0  0  0  0  0  0  0  0
  196.4380  169.1370  134.7150 C   0  0  0  0  0  0  0  0  0  0  0  0
  193.1630  172.5110  136.1500 N   0  0  0  0  0  0  0  0  0  0  0  0
  194.5770  172.2970  135.7370 C   0  0  1  0  0  3  0  0  0  0  0  0
  192.2650  171.8910  135.1640 C   0  0  0  0  0  2  0  0  0  0  0  0
  194.8570  170.8490  135.4080 C   0  0  0  0  0  0  0  0  0  0  0  0
  194.0650  168.6580  134.7170 C   0  0  0  0  0  3  0  0  0  0  0  0
  197.8320  168.7280  134.4210 C   0  0  0  0  0  1  0  0  0  0  0  0
  192.3750  170.3850  135.3110 C   0  0  0  0  0  2  0  0  0  0  0  0
  196.1760  170.4360  135.1740 C   0  0  0  0  0  3  0  0  0  0  0  0
  195.3860  168.2480  134.4940 C   0  0  0  0  0  3  0  0  0  0  0  0
  195.9200  174.1070  134.7580 C   0  0  0  0  0  2  0  0  0  0  0  0
  194.9960  173.1650  134.5680 C   0  0  0  0  0  3  0  0  0  0  0  0
  190.6060  175.6400  144.2880 C   0  0  1  0  0  3  0  0  0  0  0  0
  189.6650  175.9500  143.1630 C   0  0  2  0  0  3  0  0  0  0  0  0
  191.0530  175.7730  142.9620 O   0  0  0  0  0  0  0  0  0  0  0  0
  191.0420  176.8300  145.1480 C   0  0  1  0  0  3  0  0  0  0  0  0
  189.7750  177.4210  145.7560 C   0  0  0  0  0  2  0  0  0  0  0  0
  192.2410  175.1120  146.4280 O   0  0  0  0  0  1  0  0  0  0  0  0
  191.2570  176.9320  147.5940 C   0  0  0  0  0  2  0  0  0  0  0  0
  189.9240  177.3060  147.1920 N   0  0  0  0  0  0  0  0  0  0  0  0
  188.8210  177.0250  148.0430 C   0  0  0  0  0  3  0  0  0  0  0  0
  187.6380  177.1820  147.6400 O   0  0  0  0  0  0  0  0  0  0  0  0
  191.9720  176.4800  146.3280 C   0  0  2  0  0  3  0  0  0  0  0  0
  185.5300  178.3130  142.0060 C   0  0  0  0  0  2  0  0  0  0  0  0
  185.0080  178.9190  140.7140 C   0  0  0  0  0  2  0  0  0  0  0  0
  183.5070  178.7460  140.6240 C   0  0  0  0  0  2  0  0  0  0  0  0
  183.2170  177.4370  139.9060 C   0  0  0  0  0  2  0  0  0  0  0  0
  181.7910  177.4410  139.3750 C   0  0  0  0  0  2  0  0  0  0  0  0
  181.9200  178.9670  137.3690 C   0  0  0  0  0  1  0  0  0  0  0  0
  181.9120  176.5010  137.0670 C   0  0  0  0  0  0  0  0  0  0  0  0
  180.8860  175.9920  136.5530 O   0  0  0  0  0  0  0  0  0  0  0  0
  181.7850  177.6290  137.9290 N   0  0  0  0  0  0  0  0  0  0  0  0
  183.2770  176.0240  136.6720 C   0  0  1  0  0  3  0  0  0  0  0  0
  184.1880  177.0830  136.7070 O   0  0  0  0  0  1  0  0  0  0  0  0
  182.8140  174.3040  138.3370 O   0  0  0  0  0  1  0  0  0  0  0  0
  183.8090  174.8400  137.5010 C   0  0  1  0  0  3  0  0  0  0  0  0
  184.3960  173.7730  136.5760 C   0  0  0  0  0  2  0  0  0  0  0  0
  186.8520  173.6950  137.0770 C   0  0  0  0  0  0  0  0  0  0  0  0
  187.8670  172.9660  137.2730 O   0  0  0  0  0  0  0  0  0  0  0  0
  187.0120  175.0640  136.6780 N   0  0  0  0  0  2  0  0  0  0  0  0
  185.5470  173.1280  137.1960 N   0  0  0  0  0  2  0  0  0  0  0  0
  188.7050  176.5680  137.5330 C   0  0  1  0  0  3  0  0  0  0  0  0
  188.3190  175.6470  136.4250 C   0  0  1  0  0  0  0  0  0  0  0  0
  189.4750  175.2760  137.3340 C   0  0  0  0  0  2  0  0  0  0  0  0
  189.3620  177.7090  136.7900 C   0  0  0  0  0  2  0  0  0  0  0  0
  188.5220  176.4210  135.1460 C   0  0  0  0  0  2  0  0  0  0  0  0
  188.8750  177.7460  135.4720 O   0  0  0  0  0  0  0  0  0  0  0  0
  1  4  1  6  0  0  0
  1  2  1  0  0  0  0
  1 33  1  0  0  0  0
  2  6  2  0  0  0  0
  3  7  1  0  0  0  0
  3  4  2  0  0  0  0
  5 43  1  0  0  0  0
  5  2  1  0  0  0  0
  7  5  2  0  0  0  0
  8 10  2  0  0  0  0
 10  4  1  0  0  0  0
 10  9  1  0  0  0  0
 11  8  1  0  0  0  0
 12 17  1  0  0  0  0
 13 12  2  0  0  0  0
 14 16  2  0  0  0  0
 14 13  1  0  0  0  0
 15 11  1  0  0  0  0
 15 17  2  0  0  0  0
 16 15  1  0  0  0  0
 18 14  1  0  0  0  0
 19 27  1  0  0  0  0
 19 24  1  0  0  0  0
 20 28  1  0  0  0  0
 21 18  1  0  0  0  0
 22 31  1  6  0  0  0
 22 21  1  0  0  0  0
 23 27  1  0  0  0  0
 23 21  1  0  0  0  0
 24 22  1  0  0  0  0
 25 19  2  0  0  0  0
 26 20  1  0  0  0  0
 28 24  2  0  0  0  0
 29 20  2  0  0  0  0
 29 25  1  0  0  0  0
 31 30  2  0  0  0  0
 32 34  1  6  0  0  0
 32 35  1  0  0  0  0
 33 34  1  6  0  0  0
 33 32  1  0  0  0  0
 35 36  1  1  0  0  0
 35 42  1  0  0  0  0
 36 39  1  0  0  0  0
 39 38  1  0  0  0  0
 39 40  1  0  0  0  0
 41 40  2  0  0  0  0
 42 37  1  1  0  0  0
 42 38  1  0  0  0  0
 44 43  1  0  0  0  0
 45 44  1  0  0  0  0
 46 45  1  0  0  0  0
 47 46  1  0  0  0  0
 48 51  1  0  0  0  0
 49 51  1  0  0  0  0
 50 49  2  0  0  0  0
 51 47  1  0  0  0  0
 52 53  1  1  0  0  0
 52 49  1  0  0  0  0
 52 55  1  0  0  0  0
 55 54  1  6  0  0  0
 56 60  1  0  0  0  0
 56 55  1  0  0  0  0
 57 60  1  0  0  0  0
 57 58  2  0  0  0  0
 59 57  1  0  0  0  0
 61 64  1  6  0  0  0
 62 59  1  1  0  0  0
 62 63  1  0  0  0  0
 62 61  1  0  0  0  0
 63 61  1  0  0  0  0
 65 66  1  0  0  0  0
 65 62  1  0  0  0  0
 66 64  1  0  0  0  0
M  END
>  <MODEL>
8

>  <REMARK>
 VINA RESULT:      -5.1      2.795     10.579
  Name = 
  19 active torsions:
  status: ('A' for Active; 'I' for Inactive)
    1  A    between atoms: C_4  and  C_36
    2  A    between atoms: N_7  and  C_29
    3  A    between atoms: C_8  and  C_33
    4  A    between atoms: C_10  and  N_57
    5  A    between atoms: C_13  and  C_16
    6  A    between atoms: C_13  and  C_52
    7  A    between atoms: C_15  and  C_52
    8  A    between atoms: C_15  and  N_64
    9  A    between atoms: C_17  and  C_25
   10  A    between atoms: C_18  and  C_27
   11  A    between atoms: C_21  and  C_38
   12  A    between atoms: C_21  and  N_58
   13  A    between atoms: C_22  and  C_23
   14  A    between atoms: C_29  and  C_32
   15  A    between atoms: C_33  and  C_42
   16  A    between atoms: C_34  and  C_46
   17  A    between atoms: C_34  and  C_51
   18  A    between atoms: C_38  and  C_51
   19  A    between atoms: C_46  and  C_53
                            x       y       z     vdW  Elec       q    Type
                         _______ _______ _______ _____ _____    ______ ____

>  <TORSDO>
F 19

$$$$
=
 OpenBabel10232410123D

 66 73  0  0  1  0  0  0  0  0999 V2000
  189.2630  176.6460  137.3000 C   0  0  2  0  0  3  0  0  0  0  0  0
  190.3660  175.6310  137.5420 C   0  0  0  0  0  0  0  0  0  0  0  0
  189.4650  176.0010  134.8830 C   0  0  0  0  0  3  0  0  0  0  0  0
  188.8160  176.6840  135.8400 C   0  0  0  0  0  0  0  0  0  0  0  0
  191.0540  174.9680  136.4110 C   0  0  0  0  0  0  0  0  0  0  0  0
  190.6670  175.3140  138.7250 O   0  0  0  0  0  0  0  0  0  0  0  0
  190.6170  175.1540  135.1730 C   0  0  0  0  0  3  0  0  0  0  0  0
  186.6180  176.7740  134.7980 C   0  0  0  0  0  3  0  0  0  0  0  0
  187.4530  178.7410  135.8040 O   0  0  0  0  0  1  0  0  0  0  0  0
  187.6060  177.4060  135.4340 C   0  0  0  0  0  0  0  0  0  0  0  0
  185.3530  177.4620  134.4160 C   0  0  0  0  0  2  0  0  0  0  0  0
  182.8520  174.7850  135.4080 C   0  0  0  0  0  3  0  0  0  0  0  0
  181.9950  175.5050  136.2480 C   0  0  0  0  0  3  0  0  0  0  0  0
  182.2310  176.8720  136.4990 C   0  0  0  0  0  0  0  0  0  0  0  0
  184.1760  176.7920  135.0420 C   0  0  0  0  0  0  0  0  0  0  0  0
  183.3230  177.5150  135.8910 C   0  0  0  0  0  3  0  0  0  0  0  0
  183.9460  175.4240  134.8080 C   0  0  0  0  0  3  0  0  0  0  0  0
  181.3590  177.6330  137.4620 C   0  0  0  0  0  2  0  0  0  0  0  0
  182.7250  178.4360  141.3990 C   0  0  0  0  0  0  0  0  0  0  0  0
  180.9380  178.6690  143.5450 C   0  0  0  0  0  0  0  0  0  0  0  0
  181.8890  177.6280  138.8350 N   0  0  0  0  0  0  0  0  0  0  0  0
  180.8100  177.9550  139.8070 C   0  0  1  0  0  3  0  0  0  0  0  0
  182.9740  178.6120  138.9560 C   0  0  0  0  0  2  0  0  0  0  0  0
  181.3520  178.1710  141.2010 C   0  0  0  0  0  0  0  0  0  0  0  0
  183.1950  178.7510  142.6750 C   0  0  0  0  0  3  0  0  0  0  0  0
  179.9820  178.8650  144.6610 C   0  0  0  0  0  1  0  0  0  0  0  0
  183.6920  178.3590  140.2690 C   0  0  0  0  0  2  0  0  0  0  0  0
  180.4620  178.3110  142.2750 C   0  0  0  0  0  3  0  0  0  0  0  0
  182.3030  178.8810  143.7460 C   0  0  0  0  0  3  0  0  0  0  0  0
  180.2540  180.3450  139.9420 C   0  0  0  0  0  2  0  0  0  0  0  0
  179.9830  179.1570  139.4010 C   0  0  0  0  0  3  0  0  0  0  0  0
  189.5170  178.4670  139.1750 C   0  0  1  0  0  3  0  0  0  0  0  0
  189.7000  178.0610  137.7440 C   0  0  2  0  0  3  0  0  0  0  0  0
  188.5520  178.7520  138.1940 O   0  0  0  0  0  0  0  0  0  0  0  0
  189.0360  177.3700  140.1300 C   0  0  1  0  0  3  0  0  0  0  0  0
  190.1260  177.1950  141.1830 C   0  0  0  0  0  2  0  0  0  0  0  0
  187.2240  178.9580  140.6020 O   0  0  0  0  0  1  0  0  0  0  0  0
  188.0780  177.6320  142.3780 C   0  0  0  0  0  2  0  0  0  0  0  0
  189.5120  177.5110  142.4560 N   0  0  0  0  0  0  0  0  0  0  0  0
  190.2250  178.1750  143.4900 C   0  0  0  0  0  3  0  0  0  0  0  0
  191.4840  178.2280  143.4760 O   0  0  0  0  0  0  0  0  0  0  0  0
  187.7360  177.6910  140.8950 C   0  0  2  0  0  3  0  0  0  0  0  0
  192.1100  173.9360  136.6500 C   0  0  0  0  0  2  0  0  0  0  0  0
  193.1580  174.0470  135.5560 C   0  0  0  0  0  2  0  0  0  0  0  0
  193.0970  172.8370  134.6480 C   0  0  0  0  0  2  0  0  0  0  0  0
  192.6710  171.6350  135.4760 C   0  0  0  0  0  2  0  0  0  0  0  0
  193.2380  170.3600  134.8700 C   0  0  0  0  0  2  0  0  0  0  0  0
  195.6370  171.0980  134.6040 C   0  0  0  0  0  1  0  0  0  0  0  0
  195.0320  169.4060  136.3180 C   0  0  0  0  0  0  0  0  0  0  0  0
  195.4230  168.2290  136.1220 O   0  0  0  0  0  0  0  0  0  0  0  0
  194.6490  170.2160  135.2100 N   0  0  0  0  0  0  0  0  0  0  0  0
  195.0980  170.0100  137.6880 C   0  0  1  0  0  3  0  0  0  0  0  0
  195.2590  169.0100  138.6500 O   0  0  0  0  0  1  0  0  0  0  0  0
  197.1530  171.0200  136.8490 O   0  0  0  0  0  1  0  0  0  0  0  0
  196.1800  171.0920  137.8620 C   0  0  1  0  0  3  0  0  0  0  0  0
  195.5350  172.4770  137.9180 C   0  0  0  0  0  2  0  0  0  0  0  0
  197.0770  174.4530  137.9420 C   0  0  0  0  0  0  0  0  0  0  0  0
  197.4610  175.5010  137.3450 O   0  0  0  0  0  0  0  0  0  0  0  0
  197.3150  174.2950  139.3480 N   0  0  0  0  0  2  0  0  0  0  0  0
  196.3530  173.4580  137.2180 N   0  0  0  0  0  2  0  0  0  0  0  0
  199.3340  174.9560  140.5070 C   0  0  1  0  0  3  0  0  0  0  0  0
  197.9370  175.3360  140.1480 C   0  0  1  0  0  0  0  0  0  0  0  0
  199.0960  176.1180  139.5590 C   0  0  0  0  0  2  0  0  0  0  0  0
  199.4430  175.4380  141.9360 C   0  0  0  0  0  2  0  0  0  0  0  0
  197.2690  175.7440  141.4380 C   0  0  0  0  0  2  0  0  0  0  0  0
  198.1580  175.4990  142.5040 O   0  0  0  0  0  0  0  0  0  0  0  0
  1  4  1  6  0  0  0
  1  2  1  0  0  0  0
  1 33  1  0  0  0  0
  2  6  2  0  0  0  0
  3  7  1  0  0  0  0
  3  4  2  0  0  0  0
  5 43  1  0  0  0  0
  5  2  1  0  0  0  0
  7  5  2  0  0  0  0
  8 10  2  0  0  0  0
 10  9  1  0  0  0  0
 10  4  1  0  0  0  0
 11  8  1  0  0  0  0
 11 15  1  0  0  0  0
 12 13  1  0  0  0  0
 13 14  2  0  0  0  0
 14 18  1  0  0  0  0
 15 16  2  0  0  0  0
 16 14  1  0  0  0  0
 17 15  1  0  0  0  0
 17 12  2  0  0  0  0
 18 21  1  0  0  0  0
 19 25  1  0  0  0  0
 20 29  1  0  0  0  0
 20 26  1  0  0  0  0
 21 23  1  0  0  0  0
 21 22  1  0  0  0  0
 22 31  1  6  0  0  0
 22 24  1  0  0  0  0
 23 27  1  0  0  0  0
 24 19  2  0  0  0  0
 24 28  1  0  0  0  0
 25 29  2  0  0  0  0
 27 19  1  0  0  0  0
 28 20  2  0  0  0  0
 31 30  2  0  0  0  0
 32 34  1  6  0  0  0
 32 35  1  0  0  0  0
 33 34  1  6  0  0  0
 33 32  1  0  0  0  0
 35 42  1  0  0  0  0
 35 36  1  1  0  0  0
 36 39  1  0  0  0  0
 38 39  1  0  0  0  0
 39 40  1  0  0  0  0
 41 40  2  0  0  0  0
 42 37  1  6  0  0  0
 42 38  1  0  0  0  0
 44 43  1  0  0  0  0
 45 46  1  0  0  0  0
 45 44  1  0  0  0  0
 47 51  1  0  0  0  0
 47 46  1  0  0  0  0
 48 51  1  0  0  0  0
 49 52  1  0  0  0  0
 50 49  2  0  0  0  0
 51 49  1  0  0  0  0
 52 55  1  0  0  0  0
 52 53  1  1  0  0  0
 55 54  1  6  0  0  0
 55 56  1  0  0  0  0
 57 59  1  0  0  0  0
 58 57  2  0  0  0  0
 60 56  1  0  0  0  0
 60 57  1  0  0  0  0
 61 63  1  6  0  0  0
 61 64  1  0  0  0  0
 62 59  1  6  0  0  0
 62 61  1  0  0  0  0
 62 65  1  0  0  0  0
 63 62  1  0  0  0  0
 64 66  1  0  0  0  0
 65 66  1  0  0  0  0
M  END
>  <MODEL>
9

>  <REMARK>
 VINA RESULT:      -4.5      2.926      8.547
  Name = 
  19 active torsions:
  status: ('A' for Active; 'I' for Inactive)
    1  A    between atoms: C_4  and  C_36
    2  A    between atoms: N_7  and  C_29
    3  A    between atoms: C_8  and  C_33
    4  A    between atoms: C_10  and  N_57
    5  A    between atoms: C_13  and  C_16
    6  A    between atoms: C_13  and  C_52
    7  A    between atoms: C_15  and  C_52
    8  A    between atoms: C_15  and  N_64
    9  A    between atoms: C_17  and  C_25
   10  A    between atoms: C_18  and  C_27
   11  A    between atoms: C_21  and  C_38
   12  A    between atoms: C_21  and  N_58
   13  A    between atoms: C_22  and  C_23
   14  A    between atoms: C_29  and  C_32
   15  A    between atoms: C_33  and  C_42
   16  A    between atoms: C_34  and  C_46
   17  A    between atoms: C_34  and  C_51
   18  A    between atoms: C_38  and  C_51
   19  A    between atoms: C_46  and  C_53
                            x       y       z     vdW  Elec       q    Type
                         _______ _______ _______ _____ _____    ______ ____

>  <TORSDO>
F 19

$$$$
