=
 OpenBabel10232412273D

 55 64  0  0  1  0  0  0  0  0999 V2000
  188.6850  174.2360  137.4250 O   0  0  0  0  0  0  0  0  0  0  0  0
  189.8520  176.2810  137.7530 C   0  0  1  0  0  3  0  0  0  0  0  0
  191.5950  175.4510  136.1930 C   0  0  0  0  0  0  0  0  0  0  0  0
  190.6800  175.2200  137.2780 N   0  0  0  0  0  0  0  0  0  0  0  0
  186.9330  177.5000  137.1460 C   0  0  0  0  0  2  0  0  0  0  0  0
  185.5500  178.8590  140.3660 C   0  0  0  0  0  0  0  0  0  0  0  0
  185.2430  179.2820  138.9550 C   0  0  0  0  0  2  0  0  0  0  0  0
  184.5440  178.5910  141.3160 C   0  0  0  0  0  0  0  0  0  0  0  0
  188.5000  175.6050  137.7360 C   0  0  1  0  0  3  0  0  0  0  0  0
  184.9040  178.1310  142.5860 C   0  0  0  0  0  3  0  0  0  0  0  0
  189.1140  178.3070  143.6150 C   0  0  0  0  0  3  0  0  0  0  0  0
  190.4600  178.1930  143.9590 C   0  0  0  0  0  3  0  0  0  0  0  0
  186.8890  178.6770  140.7100 C   0  0  0  0  0  3  0  0  0  0  0  0
  186.2520  177.9450  142.9140 C   0  0  0  0  0  3  0  0  0  0  0  0
  191.3730  177.7880  143.0350 N   0  0  0  0  0  0  0  0  0  0  0  0
  191.9750  177.0350  140.8530 C   0  0  0  0  0  3  0  0  0  0  0  0
  189.2960  177.1560  140.0700 C   0  0  0  0  0  3  0  0  0  0  0  0
  190.2550  176.6780  139.1630 C   0  0  0  0  0  0  0  0  0  0  0  0
  185.9520  177.1810  138.1710 N   0  0  0  0  0  2  0  0  0  0  0  0
  191.3950  176.4180  135.4070 O   0  0  0  0  0  0  0  0  0  0  0  0
  191.0070  177.4670  141.7650 C   0  0  0  0  0  0  0  0  0  0  0  0
  189.6510  177.5550  141.3720 C   0  0  0  0  0  0  0  0  0  0  0  0
  188.6900  178.0060  142.3130 C   0  0  0  0  0  0  0  0  0  0  0  0
  187.2580  178.1970  141.9690 C   0  0  0  0  0  0  0  0  0  0  0  0
  184.9190  178.1370  138.0990 N   0  0  0  0  0  2  0  0  0  0  0  0
  191.6030  176.6520  139.5600 C   0  0  0  0  0  3  0  0  0  0  0  0
  187.6070  176.2250  136.6650 C   0  0  0  0  0  2  0  0  0  0  0  0
  190.0310  173.9840  137.3740 N   0  0  0  0  0  2  0  0  0  0  0  0
  183.0960  178.7020  140.9720 C   0  0  0  0  0  2  0  0  0  0  0  0
  182.6550  177.4850  140.3080 N   0  0  0  0  0  2  0  0  0  0  0  0
  181.2960  176.3350  138.5690 N   0  0  0  0  0  0  0  0  0  0  0  0
  180.0690  176.2750  137.7850 C   0  0  0  0  0  1  0  0  0  0  0  0
  181.5910  177.5010  139.3530 C   0  0  0  0  0  0  0  0  0  0  0  0
  180.9090  178.5500  139.1950 O   0  0  0  0  0  0  0  0  0  0  0  0
  182.1450  175.1470  138.6100 C   0  0  0  0  0  2  0  0  0  0  0  0
  184.2460  174.1430  137.6030 C   0  0  0  0  0  2  0  0  0  0  0  0
  183.0060  175.0200  137.3440 C   0  0  1  0  0  3  0  0  0  0  0  0
  183.0730  172.3770  136.1130 C   0  0  2  0  0  3  0  0  0  0  0  0
  184.3390  172.8570  136.7550 C   0  0  2  0  0  3  0  0  0  0  0  0
  181.8820  173.2880  136.3770 C   0  0  0  0  0  2  0  0  0  0  0  0
  183.5360  171.8580  137.3360 O   0  0  0  0  0  0  0  0  0  0  0  0
  182.2650  174.6260  136.2050 O   0  0  0  0  0  0  0  0  0  0  0  0
  192.7100  174.4730  135.9190 C   0  0  2  0  0  3  0  0  0  0  0  0
  194.0510  175.0620  136.2740 C   0  0  0  0  0  3  0  0  0  0  0  0
  195.1290  174.2920  136.4490 C   0  0  0  0  0  3  0  0  0  0  0  0
  197.1110  174.1490  137.9530 C   0  0  1  0  0  3  0  0  0  0  0  0
  196.4650  174.9010  136.7690 C   0  0  1  0  0  3  0  0  0  0  0  0
  199.3150  174.4010  136.9240 C   0  0  2  0  0  3  0  0  0  0  0  0
  198.7520  175.2660  135.8600 N   0  0  0  0  0  0  0  0  0  0  0  0
  198.3270  173.3640  137.4710 C   0  0  1  0  0  3  0  0  0  0  0  0
  197.3550  174.9530  135.5110 C   0  0  0  0  0  2  0  0  0  0  0  0
  198.5300  174.6550  138.2050 C   0  0  2  0  0  3  0  0  0  0  0  0
  199.5490  175.0420  134.6650 C   0  0  0  0  0  1  0  0  0  0  0  0
  192.6800  173.9790  134.4700 C   0  0  0  0  0  2  0  0  0  0  0  0
  191.9240  172.8060  134.3520 O   0  0  0  0  0  1  0  0  0  0  0  0
  1  9  1  0  0  0  0
  2 18  1  1  0  0  0
  3  4  1  0  0  0  0
  4 28  1  0  0  0  0
  4  2  1  0  0  0  0
  5 19  1  0  0  0  0
  6 13  2  0  0  0  0
  6  8  1  0  0  0  0
  7  6  1  0  0  0  0
  8 10  2  0  0  0  0
  9 27  1  6  0  0  0
  9  2  1  0  0  0  0
 10 14  1  0  0  0  0
 11 12  1  0  0  0  0
 13 24  1  0  0  0  0
 15 12  2  0  0  0  0
 16 21  1  0  0  0  0
 17 22  1  0  0  0  0
 18 26  1  0  0  0  0
 18 17  2  0  0  0  0
 20  3  2  0  0  0  0
 21 15  1  0  0  0  0
 22 21  2  0  0  0  0
 22 23  1  0  0  0  0
 23 11  2  0  0  0  0
 24 23  1  0  0  0  0
 24 14  2  0  0  0  0
 25 19  1  0  0  0  0
 25  7  1  0  0  0  0
 26 16  2  0  0  0  0
 27  5  1  0  0  0  0
 28  1  1  0  0  0  0
 29  8  1  0  0  0  0
 30 29  1  0  0  0  0
 31 35  1  0  0  0  0
 31 33  1  0  0  0  0
 32 31  1  0  0  0  0
 33 30  1  0  0  0  0
 34 33  2  0  0  0  0
 37 36  1  0  0  0  0
 37 35  1  1  0  0  0
 38 40  1  1  0  0  0
 38 39  1  0  0  0  0
 38 41  1  0  0  0  0
 39 41  1  0  0  0  0
 39 36  1  1  0  0  0
 42 40  1  0  0  0  0
 42 37  1  0  0  0  0
 43 54  1  6  0  0  0
 43  3  1  0  0  0  0
 43 44  1  0  0  0  0
 44 45  2  0  0  0  0
 46 52  1  0  0  0  0
 47 45  1  6  0  0  0
 47 46  1  0  0  0  0
 48 50  1  0  0  0  0
 48 52  1  0  0  0  0
 49 48  1  0  0  0  0
 50 46  1  0  0  0  0
 50 52  1  0  0  0  0
 51 49  1  0  0  0  0
 51 47  1  0  0  0  0
 53 49  1  0  0  0  0
 55 54  1  0  0  0  0
M  END
>  <MODEL>
1

>  <REMARK>
 VINA RESULT:      -8.1      0.000      0.000
  Name = 
  8 active torsions:
  status: ('A' for Active; 'I' for Inactive)
    1  A    between atoms: C_4  and  C_38
    2  A    between atoms: C_8  and  C_38
    3  A    between atoms: C_10  and  C_48
    4  A    between atoms: N_11  and  C_25
    5  A    between atoms: C_12  and  C_25
    6  A    between atoms: C_14  and  C_22
    7  A    between atoms: C_20  and  C_38
    8  A    between atoms: C_22  and  N_30
                            x       y       z     vdW  Elec       q    Type
                         _______ _______ _______ _____ _____    ______ ____

>  <TORSDO>
F 8

$$$$
=
 OpenBabel10232412273D

 55 64  0  0  1  0  0  0  0  0999 V2000
  188.2680  174.6390  136.8040 O   0  0  0  0  0  0  0  0  0  0  0  0
  189.4530  176.6700  137.1510 C   0  0  1  0  0  3  0  0  0  0  0  0
  190.9070  176.0640  135.2320 C   0  0  0  0  0  0  0  0  0  0  0  0
  190.1970  175.6910  136.4260 N   0  0  0  0  0  0  0  0  0  0  0  0
  186.4610  177.8620  137.1960 C   0  0  0  0  0  2  0  0  0  0  0  0
  185.6470  178.8240  140.7360 C   0  0  0  0  0  0  0  0  0  0  0  0
  185.0950  179.3880  139.4550 C   0  0  0  0  0  2  0  0  0  0  0  0
  184.8250  178.4260  141.8090 C   0  0  0  0  0  0  0  0  0  0  0  0
  188.1260  175.9600  137.2920 C   0  0  1  0  0  3  0  0  0  0  0  0
  185.4060  177.8430  142.9390 C   0  0  0  0  0  3  0  0  0  0  0  0
  189.7280  178.0300  143.2410 C   0  0  0  0  0  3  0  0  0  0  0  0
  191.1160  177.9190  143.3340 C   0  0  0  0  0  3  0  0  0  0  0  0
  187.0280  178.6460  140.8220 C   0  0  0  0  0  3  0  0  0  0  0  0
  186.7920  177.6620  143.0080 C   0  0  0  0  0  3  0  0  0  0  0  0
  191.8570  177.6440  142.2270 N   0  0  0  0  0  0  0  0  0  0  0  0
  192.0770  177.1480  139.9040 C   0  0  0  0  0  3  0  0  0  0  0  0
  189.3020  177.2740  139.6130 C   0  0  0  0  0  3  0  0  0  0  0  0
  190.0920  176.9250  138.5060 C   0  0  0  0  0  0  0  0  0  0  0  0
  185.6770  177.4060  138.3320 N   0  0  0  0  0  2  0  0  0  0  0  0
  190.5630  177.1050  134.6050 O   0  0  0  0  0  0  0  0  0  0  0  0
  191.2790  177.4500  141.0120 C   0  0  0  0  0  0  0  0  0  0  0  0
  189.8740  177.5410  140.8700 C   0  0  0  0  0  0  0  0  0  0  0  0
  189.0870  177.8590  142.0070 C   0  0  0  0  0  0  0  0  0  0  0  0
  187.6150  178.0440  141.9370 C   0  0  0  0  0  0  0  0  0  0  0  0
  184.6380  178.3330  138.5460 N   0  0  0  0  0  2  0  0  0  0  0  0
  191.4890  176.8960  138.6600 C   0  0  0  0  0  3  0  0  0  0  0  0
  187.0540  176.6660  136.4670 C   0  0  0  0  0  2  0  0  0  0  0  0
  189.5870  174.4340  136.4940 N   0  0  0  0  0  2  0  0  0  0  0  0
  183.3380  178.5320  141.7350 C   0  0  0  0  0  2  0  0  0  0  0  0
  182.8070  177.4220  140.9570 N   0  0  0  0  0  2  0  0  0  0  0  0
  181.2720  176.5390  139.2090 N   0  0  0  0  0  0  0  0  0  0  0  0
  179.9820  176.6070  138.5340 C   0  0  0  0  0  1  0  0  0  0  0  0
  181.6670  177.5850  140.1100 C   0  0  0  0  0  0  0  0  0  0  0  0
  181.0050  178.6570  140.1520 O   0  0  0  0  0  0  0  0  0  0  0  0
  182.0860  175.3420  139.0180 C   0  0  0  0  0  2  0  0  0  0  0  0
  184.0560  174.4920  137.6630 C   0  0  0  0  0  2  0  0  0  0  0  0
  182.7600  175.3260  137.6370 C   0  0  1  0  0  3  0  0  0  0  0  0
  182.7450  172.7630  136.2460 C   0  0  2  0  0  3  0  0  0  0  0  0
  184.0720  173.2620  136.7310 C   0  0  2  0  0  3  0  0  0  0  0  0
  181.5730  173.6030  136.7330 C   0  0  0  0  0  2  0  0  0  0  0  0
  183.3990  172.1970  137.3560 O   0  0  0  0  0  0  0  0  0  0  0  0
  181.8770  174.9640  136.5920 O   0  0  0  0  0  0  0  0  0  0  0  0
  191.9670  175.1550  134.6630 C   0  0  2  0  0  3  0  0  0  0  0  0
  192.2050  173.9680  135.5600 C   0  0  0  0  0  3  0  0  0  0  0  0
  192.9230  172.9170  135.1540 C   0  0  0  0  0  3  0  0  0  0  0  0
  192.9530  170.4310  135.3190 C   0  0  1  0  0  3  0  0  0  0  0  0
  193.1790  171.7580  136.0750 C   0  0  1  0  0  3  0  0  0  0  0  0
  194.8210  169.4130  136.5260 C   0  0  2  0  0  3  0  0  0  0  0  0
  194.9590  170.6130  137.3840 N   0  0  0  0  0  0  0  0  0  0  0  0
  194.2830  169.7100  135.1210 C   0  0  1  0  0  3  0  0  0  0  0  0
  194.5740  171.8710  136.7200 C   0  0  0  0  0  2  0  0  0  0  0  0
  193.3450  169.2390  136.1890 C   0  0  2  0  0  3  0  0  0  0  0  0
  196.3650  170.7280  137.7300 C   0  0  0  0  0  1  0  0  0  0  0  0
  193.2650  175.9150  134.3810 C   0  0  0  0  0  2  0  0  0  0  0  0
  194.0800  175.9650  135.5180 O   0  0  0  0  0  1  0  0  0  0  0  0
  1  9  1  0  0  0  0
  2  9  1  0  0  0  0
  2 18  1  1  0  0  0
  3  4  1  0  0  0  0
  4 28  1  0  0  0  0
  4  2  1  0  0  0  0
  5 19  1  0  0  0  0
  6 13  2  0  0  0  0
  6  8  1  0  0  0  0
  7  6  1  0  0  0  0
  8 10  2  0  0  0  0
  9 27  1  6  0  0  0
 10 14  1  0  0  0  0
 11 12  1  0  0  0  0
 13 24  1  0  0  0  0
 15 12  2  0  0  0  0
 16 21  1  0  0  0  0
 17 22  1  0  0  0  0
 18 26  1  0  0  0  0
 18 17  2  0  0  0  0
 19 25  1  0  0  0  0
 20  3  2  0  0  0  0
 21 15  1  0  0  0  0
 22 21  2  0  0  0  0
 22 23  1  0  0  0  0
 23 11  2  0  0  0  0
 24 23  1  0  0  0  0
 24 14  2  0  0  0  0
 25  7  1  0  0  0  0
 26 16  2  0  0  0  0
 27  5  1  0  0  0  0
 28  1  1  0  0  0  0
 29  8  1  0  0  0  0
 30 29  1  0  0  0  0
 31 33  1  0  0  0  0
 32 31  1  0  0  0  0
 33 34  2  0  0  0  0
 33 30  1  0  0  0  0
 35 31  1  0  0  0  0
 37 36  1  0  0  0  0
 37 35  1  1  0  0  0
 38 39  1  0  0  0  0
 38 40  1  1  0  0  0
 38 41  1  0  0  0  0
 39 41  1  0  0  0  0
 39 36  1  1  0  0  0
 42 40  1  0  0  0  0
 42 37  1  0  0  0  0
 43 54  1  1  0  0  0
 43  3  1  0  0  0  0
 43 44  1  0  0  0  0
 45 44  2  0  0  0  0
 46 47  1  0  0  0  0
 46 52  1  0  0  0  0
 47 45  1  6  0  0  0
 47 51  1  0  0  0  0
 48 49  1  0  0  0  0
 49 53  1  0  0  0  0
 50 46  1  0  0  0  0
 50 52  1  0  0  0  0
 50 48  1  0  0  0  0
 51 49  1  0  0  0  0
 52 48  1  0  0  0  0
 54 55  1  0  0  0  0
M  END
>  <MODEL>
2

>  <REMARK>
 VINA RESULT:      -7.5      2.027      2.538
  Name = 
  8 active torsions:
  status: ('A' for Active; 'I' for Inactive)
    1  A    between atoms: C_4  and  C_38
    2  A    between atoms: C_8  and  C_38
    3  A    between atoms: C_10  and  C_48
    4  A    between atoms: N_11  and  C_25
    5  A    between atoms: C_12  and  C_25
    6  A    between atoms: C_14  and  C_22
    7  A    between atoms: C_20  and  C_38
    8  A    between atoms: C_22  and  N_30
                            x       y       z     vdW  Elec       q    Type
                         _______ _______ _______ _____ _____    ______ ____

>  <TORSDO>
F 8

$$$$
=
 OpenBabel10232412273D

 55 64  0  0  1  0  0  0  0  0999 V2000
  191.1170  176.0030  139.8790 O   0  0  0  0  0  0  0  0  0  0  0  0
  189.8630  176.4700  137.9150 C   0  0  1  0  0  3  0  0  0  0  0  0
  188.7160  178.2810  139.1670 C   0  0  0  0  0  0  0  0  0  0  0  0
  189.2480  176.9460  139.1120 N   0  0  0  0  0  0  0  0  0  0  0  0
  192.7970  176.3970  136.5880 C   0  0  0  0  0  2  0  0  0  0  0  0
  193.0690  173.2590  134.5390 C   0  0  0  0  0  0  0  0  0  0  0  0
  193.7940  174.5650  134.3630 C   0  0  0  0  0  2  0  0  0  0  0  0
  193.7300  172.0150  134.5390 C   0  0  0  0  0  0  0  0  0  0  0  0
  191.1650  175.9370  138.4650 C   0  0  1  0  0  3  0  0  0  0  0  0
  192.9990  170.8480  134.7810 C   0  0  0  0  0  3  0  0  0  0  0  0
  188.6770  171.2040  134.7720 C   0  0  0  0  0  3  0  0  0  0  0  0
  187.2930  171.2680  134.9330 C   0  0  0  0  0  3  0  0  0  0  0  0
  191.6930  173.3080  134.7660 C   0  0  0  0  0  3  0  0  0  0  0  0
  191.6210  170.9130  135.0160 C   0  0  0  0  0  3  0  0  0  0  0  0
  186.7260  172.3230  135.5790 N   0  0  0  0  0  0  0  0  0  0  0  0
  186.8570  174.3820  136.7750 C   0  0  0  0  0  3  0  0  0  0  0  0
  189.6420  174.3230  136.5770 C   0  0  0  0  0  3  0  0  0  0  0  0
  189.0280  175.3600  137.2960 C   0  0  0  0  0  0  0  0  0  0  0  0
  193.4130  175.0810  136.6260 N   0  0  0  0  0  2  0  0  0  0  0  0
  189.1310  179.1490  138.3500 O   0  0  0  0  0  0  0  0  0  0  0  0
  187.4790  173.3280  136.1000 C   0  0  0  0  0  0  0  0  0  0  0  0
  188.8880  173.3010  135.9730 C   0  0  0  0  0  0  0  0  0  0  0  0
  189.4950  172.2250  135.2740 C   0  0  0  0  0  0  0  0  0  0  0  0
  190.9580  172.1500  135.0310 C   0  0  0  0  0  0  0  0  0  0  0  0
  194.3950  175.0300  135.6160 N   0  0  0  0  0  2  0  0  0  0  0  0
  187.6240  175.3950  137.3600 C   0  0  0  0  0  3  0  0  0  0  0  0
  192.3360  176.7890  137.9840 C   0  0  0  0  0  2  0  0  0  0  0  0
  189.8610  176.4080  140.2480 N   0  0  0  0  0  2  0  0  0  0  0  0
  195.2100  171.9180  134.3720 C   0  0  0  0  0  2  0  0  0  0  0  0
  195.8480  171.8610  135.6790 N   0  0  0  0  0  2  0  0  0  0  0  0
  197.8870  171.6400  137.0880 N   0  0  0  0  0  0  0  0  0  0  0  0
  199.2060  171.0520  137.2870 C   0  0  0  0  0  1  0  0  0  0  0  0
  197.2260  171.5070  135.8200 C   0  0  0  0  0  0  0  0  0  0  0  0
  197.8670  171.0790  134.8220 O   0  0  0  0  0  0  0  0  0  0  0  0
  197.2320  172.2650  138.2340 C   0  0  0  0  0  2  0  0  0  0  0  0
  196.5150  174.4440  139.3180 C   0  0  0  0  0  2  0  0  0  0  0  0
  197.0990  173.7850  138.0540 C   0  0  1  0  0  3  0  0  0  0  0  0
  198.8900  175.4180  139.6760 C   0  0  2  0  0  3  0  0  0  0  0  0
  197.4310  175.4740  140.0140 C   0  0  2  0  0  3  0  0  0  0  0  0
  199.2280  174.3540  138.6410 C   0  0  0  0  0  2  0  0  0  0  0  0
  198.3620  174.7950  140.8220 O   0  0  0  0  0  0  0  0  0  0  0  0
  198.2910  174.3970  137.5980 O   0  0  0  0  0  0  0  0  0  0  0  0
  187.7650  178.6740  140.2680 C   0  0  2  0  0  3  0  0  0  0  0  0
  188.2250  178.1440  141.6010 C   0  0  0  0  0  3  0  0  0  0  0  0
  187.3590  177.6850  142.5090 C   0  0  0  0  0  3  0  0  0  0  0  0
  189.3630  177.3440  143.9510 C   0  0  1  0  0  3  0  0  0  0  0  0
  187.8400  177.1290  143.8200 C   0  0  1  0  0  3  0  0  0  0  0  0
  189.1060  177.7810  146.3430 C   0  0  2  0  0  3  0  0  0  0  0  0
  187.6700  177.4190  146.2850 N   0  0  0  0  0  0  0  0  0  0  0  0
  189.6530  178.3730  145.0390 C   0  0  1  0  0  3  0  0  0  0  0  0
  187.0300  177.7180  144.9910 C   0  0  0  0  0  2  0  0  0  0  0  0
  189.8530  176.9180  145.3330 C   0  0  2  0  0  3  0  0  0  0  0  0
  186.9900  178.2190  147.2900 C   0  0  0  0  0  1  0  0  0  0  0  0
  186.3310  178.2360  139.9550 C   0  0  0  0  0  2  0  0  0  0  0  0
  185.8840  178.7920  138.7510 O   0  0  0  0  0  1  0  0  0  0  0  0
  1 28  1  0  0  0  0
  2 18  1  1  0  0  0
  2  9  1  0  0  0  0
  2  4  1  0  0  0  0
  3 43  1  0  0  0  0
  4  3  1  0  0  0  0
  4 28  1  0  0  0  0
  5 19  1  0  0  0  0
  5 27  1  0  0  0  0
  6  8  2  0  0  0  0
  6 13  1  0  0  0  0
  7  6  1  0  0  0  0
  7 25  1  0  0  0  0
  8 10  1  0  0  0  0
  9 27  1  6  0  0  0
  9  1  1  0  0  0  0
 10 14  2  0  0  0  0
 11 12  2  0  0  0  0
 11 23  1  0  0  0  0
 12 15  1  0  0  0  0
 13 24  2  0  0  0  0
 14 24  1  0  0  0  0
 15 21  2  0  0  0  0
 16 26  2  0  0  0  0
 17 18  2  0  0  0  0
 18 26  1  0  0  0  0
 20  3  2  0  0  0  0
 21 16  1  0  0  0  0
 22 21  1  0  0  0  0
 22 17  1  0  0  0  0
 23 22  2  0  0  0  0
 24 23  1  0  0  0  0
 25 19  1  0  0  0  0
 29  8  1  0  0  0  0
 29 30  1  0  0  0  0
 30 33  1  0  0  0  0
 31 32  1  0  0  0  0
 31 35  1  0  0  0  0
 33 31  1  0  0  0  0
 34 33  2  0  0  0  0
 37 35  1  1  0  0  0
 37 36  1  0  0  0  0
 38 40  1  6  0  0  0
 38 39  1  0  0  0  0
 38 41  1  0  0  0  0
 39 36  1  6  0  0  0
 39 41  1  0  0  0  0
 42 37  1  0  0  0  0
 42 40  1  0  0  0  0
 43 54  1  6  0  0  0
 43 44  1  0  0  0  0
 44 45  2  0  0  0  0
 46 50  1  0  0  0  0
 46 52  1  0  0  0  0
 47 45  1  6  0  0  0
 47 46  1  0  0  0  0
 47 51  1  0  0  0  0
 49 48  1  0  0  0  0
 49 53  1  0  0  0  0
 50 52  1  0  0  0  0
 50 48  1  0  0  0  0
 51 49  1  0  0  0  0
 52 48  1  0  0  0  0
 55 54  1  0  0  0  0
M  END
>  <MODEL>
3

>  <REMARK>
 VINA RESULT:      -7.3      3.464     11.672
  Name = 
  8 active torsions:
  status: ('A' for Active; 'I' for Inactive)
    1  A    between atoms: C_4  and  C_38
    2  A    between atoms: C_8  and  C_38
    3  A    between atoms: C_10  and  C_48
    4  A    between atoms: N_11  and  C_25
    5  A    between atoms: C_12  and  C_25
    6  A    between atoms: C_14  and  C_22
    7  A    between atoms: C_20  and  C_38
    8  A    between atoms: C_22  and  N_30
                            x       y       z     vdW  Elec       q    Type
                         _______ _______ _______ _____ _____    ______ ____

>  <TORSDO>
F 8

$$$$
=
 OpenBabel10232412273D

 55 64  0  0  1  0  0  0  0  0999 V2000
  184.8240  179.9580  138.8470 O   0  0  0  0  0  0  0  0  0  0  0  0
  184.7150  178.0160  140.2110 C   0  0  1  0  0  3  0  0  0  0  0  0
  182.2690  178.3880  140.4190 C   0  0  0  0  0  0  0  0  0  0  0  0
  183.6120  178.9030  140.3920 N   0  0  0  0  0  0  0  0  0  0  0  0
  186.4290  176.7830  137.7790 C   0  0  0  0  0  2  0  0  0  0  0  0
  189.9550  176.2850  138.9780 C   0  0  0  0  0  0  0  0  0  0  0  0
  189.2140  175.5440  137.8980 C   0  0  0  0  0  2  0  0  0  0  0  0
  191.2510  176.8060  138.7910 C   0  0  0  0  0  0  0  0  0  0  0  0
  185.4490  178.7120  139.0880 C   0  0  1  0  0  3  0  0  0  0  0  0
  191.8480  177.5460  139.8160 C   0  0  0  0  0  3  0  0  0  0  0  0
  189.8820  177.4850  143.6810 C   0  0  0  0  0  3  0  0  0  0  0  0
  189.2290  177.6340  144.9040 C   0  0  0  0  0  3  0  0  0  0  0  0
  189.2940  176.5000  140.1870 C   0  0  0  0  0  3  0  0  0  0  0  0
  191.1690  177.7620  141.0200 C   0  0  0  0  0  3  0  0  0  0  0  0
  187.8770  177.7740  144.9480 N   0  0  0  0  0  0  0  0  0  0  0  0
  185.7400  177.9600  143.9040 C   0  0  0  0  0  3  0  0  0  0  0  0
  186.9450  177.7430  141.3940 C   0  0  0  0  0  3  0  0  0  0  0  0
  185.5600  177.9560  141.4730 C   0  0  0  0  0  0  0  0  0  0  0  0
  187.7520  177.3710  137.6510 N   0  0  0  0  0  2  0  0  0  0  0  0
  182.0240  177.2670  139.8930 O   0  0  0  0  0  0  0  0  0  0  0  0
  187.1250  177.7920  143.8150 C   0  0  0  0  0  0  0  0  0  0  0  0
  187.7430  177.6570  142.5490 C   0  0  0  0  0  0  0  0  0  0  0  0
  189.1490  177.4770  142.4860 C   0  0  0  0  0  0  0  0  0  0  0  0
  189.8730  177.2570  141.2080 C   0  0  0  0  0  0  0  0  0  0  0  0
  188.5690  176.4600  136.9520 N   0  0  0  0  0  2  0  0  0  0  0  0
  184.9630  178.0320  142.7430 C   0  0  0  0  0  3  0  0  0  0  0  0
  185.3780  177.8820  137.8100 C   0  0  0  0  0  2  0  0  0  0  0  0
  183.8560  180.1460  139.7980 N   0  0  0  0  0  2  0  0  0  0  0  0
  191.9700  176.6630  137.4910 C   0  0  0  0  0  2  0  0  0  0  0  0
  192.7440  175.4300  137.4930 N   0  0  0  0  0  2  0  0  0  0  0  0
  193.3950  173.2780  136.4260 N   0  0  0  0  0  0  0  0  0  0  0  0
  193.0170  172.1200  135.6270 C   0  0  0  0  0  1  0  0  0  0  0  0
  192.5040  174.4000  136.5320 C   0  0  0  0  0  0  0  0  0  0  0  0
  191.5030  174.4770  135.7690 O   0  0  0  0  0  0  0  0  0  0  0  0
  194.6420  173.2140  137.1840 C   0  0  0  0  0  2  0  0  0  0  0  0
  196.2970  174.5330  135.7850 C   0  0  0  0  0  2  0  0  0  0  0  0
  195.8660  173.1320  136.2590 C   0  0  1  0  0  3  0  0  0  0  0  0
  198.3480  174.2190  137.3380 C   0  0  2  0  0  3  0  0  0  0  0  0
  197.7180  174.9670  136.2030 C   0  0  2  0  0  3  0  0  0  0  0  0
  197.4730  173.0950  137.8760 C   0  0  0  0  0  2  0  0  0  0  0  0
  197.6870  175.4470  137.5250 O   0  0  0  0  0  0  0  0  0  0  0  0
  196.9260  172.3710  136.8080 O   0  0  0  0  0  0  0  0  0  0  0  0
  181.1430  179.2340  140.9560 C   0  0  2  0  0  3  0  0  0  0  0  0
  180.7770  180.3320  139.9910 C   0  0  0  0  0  3  0  0  0  0  0  0
  180.3760  180.0640  138.7450 C   0  0  0  0  0  3  0  0  0  0  0  0
  180.4020  182.5320  138.4030 C   0  0  1  0  0  3  0  0  0  0  0  0
  179.9830  181.1700  137.8080 C   0  0  1  0  0  3  0  0  0  0  0  0
  180.9740  183.3450  136.1690 C   0  0  2  0  0  3  0  0  0  0  0  0
  180.4270  182.1140  135.5500 N   0  0  0  0  0  0  0  0  0  0  0  0
  181.5360  183.1340  137.5800 C   0  0  1  0  0  3  0  0  0  0  0  0
  180.5460  180.9140  136.3960 C   0  0  0  0  0  2  0  0  0  0  0  0
  180.1440  183.6600  137.4070 C   0  0  2  0  0  3  0  0  0  0  0  0
  181.2030  181.8640  134.3470 C   0  0  0  0  0  1  0  0  0  0  0  0
  181.4730  179.7930  142.3430 C   0  0  0  0  0  2  0  0  0  0  0  0
  180.3140  180.2000  143.0140 O   0  0  0  0  0  1  0  0  0  0  0  0
  1  9  1  0  0  0  0
  1 28  1  0  0  0  0
  2  4  1  0  0  0  0
  2 18  1  1  0  0  0
  3 43  1  0  0  0  0
  4  3  1  0  0  0  0
  5 27  1  0  0  0  0
  6 13  1  0  0  0  0
  7  6  1  0  0  0  0
  8  6  2  0  0  0  0
  8 10  1  0  0  0  0
  9 27  1  6  0  0  0
  9  2  1  0  0  0  0
 10 14  2  0  0  0  0
 11 12  1  0  0  0  0
 12 15  2  0  0  0  0
 13 24  2  0  0  0  0
 14 24  1  0  0  0  0
 17 18  2  0  0  0  0
 17 22  1  0  0  0  0
 18 26  1  0  0  0  0
 19  5  1  0  0  0  0
 20  3  2  0  0  0  0
 21 16  1  0  0  0  0
 21 15  1  0  0  0  0
 22 21  2  0  0  0  0
 23 22  1  0  0  0  0
 23 11  2  0  0  0  0
 24 23  1  0  0  0  0
 25 19  1  0  0  0  0
 25  7  1  0  0  0  0
 26 16  2  0  0  0  0
 28  4  1  0  0  0  0
 29 30  1  0  0  0  0
 29  8  1  0  0  0  0
 31 33  1  0  0  0  0
 31 35  1  0  0  0  0
 32 31  1  0  0  0  0
 33 30  1  0  0  0  0
 34 33  2  0  0  0  0
 36 37  1  0  0  0  0
 37 42  1  0  0  0  0
 37 35  1  1  0  0  0
 38 41  1  0  0  0  0
 38 40  1  1  0  0  0
 39 36  1  1  0  0  0
 39 38  1  0  0  0  0
 39 41  1  0  0  0  0
 42 40  1  0  0  0  0
 43 44  1  6  0  0  0
 43 54  1  0  0  0  0
 45 44  2  0  0  0  0
 47 46  1  0  0  0  0
 47 45  1  1  0  0  0
 48 52  1  0  0  0  0
 48 50  1  0  0  0  0
 49 48  1  0  0  0  0
 49 51  1  0  0  0  0
 50 46  1  0  0  0  0
 51 47  1  0  0  0  0
 52 50  1  0  0  0  0
 52 46  1  0  0  0  0
 53 49  1  0  0  0  0
 54 55  1  0  0  0  0
M  END
>  <MODEL>
4

>  <REMARK>
 VINA RESULT:      -7.2      3.033     11.629
  Name = 
  8 active torsions:
  status: ('A' for Active; 'I' for Inactive)
    1  A    between atoms: C_4  and  C_38
    2  A    between atoms: C_8  and  C_38
    3  A    between atoms: C_10  and  C_48
    4  A    between atoms: N_11  and  C_25
    5  A    between atoms: C_12  and  C_25
    6  A    between atoms: C_14  and  C_22
    7  A    between atoms: C_20  and  C_38
    8  A    between atoms: C_22  and  N_30
                            x       y       z     vdW  Elec       q    Type
                         _______ _______ _______ _____ _____    ______ ____

>  <TORSDO>
F 8

$$$$
=
 OpenBabel10232412273D

 55 64  0  0  1  0  0  0  0  0999 V2000
  194.3710  176.8300  136.5680 O   0  0  0  0  0  0  0  0  0  0  0  0
  193.6030  174.8260  137.5870 C   0  0  1  0  0  3  0  0  0  0  0  0
  195.9750  174.1720  137.9210 C   0  0  0  0  0  0  0  0  0  0  0  0
  194.9410  174.7410  137.0980 N   0  0  0  0  0  0  0  0  0  0  0  0
  191.7740  176.9120  139.2230 C   0  0  0  0  0  2  0  0  0  0  0  0
  188.2340  176.5480  138.0150 C   0  0  0  0  0  0  0  0  0  0  0  0
  188.7280  177.0180  139.3560 C   0  0  0  0  0  2  0  0  0  0  0  0
  187.2600  177.2490  137.2750 C   0  0  0  0  0  0  0  0  0  0  0  0
  193.2960  176.2780  137.3050 C   0  0  1  0  0  3  0  0  0  0  0  0
  186.9030  176.7910  136.0040 C   0  0  0  0  0  3  0  0  0  0  0  0
  188.3380  172.8620  134.8590 C   0  0  0  0  0  3  0  0  0  0  0  0
  188.8850  171.6780  134.3650 C   0  0  0  0  0  3  0  0  0  0  0  0
  188.8160  175.4010  137.4760 C   0  0  0  0  0  3  0  0  0  0  0  0
  187.5020  175.6440  135.4720 C   0  0  0  0  0  3  0  0  0  0  0  0
  190.1780  171.3530  134.6380 N   0  0  0  0  0  0  0  0  0  0  0  0
  192.3070  171.8070  135.6130 C   0  0  0  0  0  3  0  0  0  0  0  0
  191.3420  174.2380  136.5920 C   0  0  0  0  0  3  0  0  0  0  0  0
  192.6890  173.9030  136.7970 C   0  0  0  0  0  0  0  0  0  0  0  0
  190.7950  177.5940  138.3920 N   0  0  0  0  0  2  0  0  0  0  0  0
  195.8170  174.1270  139.1730 O   0  0  0  0  0  0  0  0  0  0  0  0
  190.9770  172.1690  135.3750 C   0  0  0  0  0  0  0  0  0  0  0  0
  190.4720  173.3870  135.8870 C   0  0  0  0  0  0  0  0  0  0  0  0
  189.1160  173.7270  135.6410 C   0  0  0  0  0  0  0  0  0  0  0  0
  188.4820  174.9490  136.1980 C   0  0  0  0  0  0  0  0  0  0  0  0
  189.7570  178.0540  139.2270 N   0  0  0  0  0  2  0  0  0  0  0  0
  193.1530  172.6630  136.3250 C   0  0  0  0  0  3  0  0  0  0  0  0
  193.1580  177.0570  138.6110 C   0  0  0  0  0  2  0  0  0  0  0  0
  195.2480  175.8220  136.2640 N   0  0  0  0  0  2  0  0  0  0  0  0
  186.6610  178.5200  137.7800 C   0  0  0  0  0  2  0  0  0  0  0  0
  186.9390  178.6610  139.2010 N   0  0  0  0  0  2  0  0  0  0  0  0
  186.1600  178.7550  141.5630 N   0  0  0  0  0  0  0  0  0  0  0  0
  185.1340  179.1470  142.5220 C   0  0  0  0  0  1  0  0  0  0  0  0
  185.8830  178.8080  140.1540 C   0  0  0  0  0  0  0  0  0  0  0  0
  184.7000  178.9800  139.7550 O   0  0  0  0  0  0  0  0  0  0  0  0
  187.4850  178.4130  142.0730 C   0  0  0  0  0  2  0  0  0  0  0  0
  188.7760  176.4070  142.9370 C   0  0  0  0  0  2  0  0  0  0  0  0
  187.4420  177.1770  142.9850 C   0  0  1  0  0  3  0  0  0  0  0  0
  189.1470  177.2830  145.3480 C   0  0  2  0  0  3  0  0  0  0  0  0
  189.5320  176.3050  144.2790 C   0  0  2  0  0  3  0  0  0  0  0  0
  188.0140  178.2110  144.9350 C   0  0  0  0  0  2  0  0  0  0  0  0
  190.2490  177.4950  144.4990 O   0  0  0  0  0  0  0  0  0  0  0  0
  187.0070  177.4710  144.2990 O   0  0  0  0  0  0  0  0  0  0  0  0
  197.2860  173.7510  137.3080 C   0  0  2  0  0  3  0  0  0  0  0  0
  197.3370  172.2600  137.1000 C   0  0  0  0  0  3  0  0  0  0  0  0
  196.3770  171.4550  137.5650 C   0  0  0  0  0  3  0  0  0  0  0  0
  195.2770  169.5610  136.3760 C   0  0  1  0  0  3  0  0  0  0  0  0
  196.4280  169.9740  137.3180 C   0  0  1  0  0  3  0  0  0  0  0  0
  196.7360  167.9220  135.2950 C   0  0  2  0  0  3  0  0  0  0  0  0
  197.8060  168.1760  136.2890 N   0  0  0  0  0  0  0  0  0  0  0  0
  195.8390  169.1350  135.0230 C   0  0  1  0  0  3  0  0  0  0  0  0
  197.8220  169.5530  136.8120 C   0  0  0  0  0  2  0  0  0  0  0  0
  195.3920  168.0870  135.9950 C   0  0  2  0  0  3  0  0  0  0  0  0
  199.0730  167.9640  135.6100 C   0  0  0  0  0  1  0  0  0  0  0  0
  198.4760  174.2430  138.1370 C   0  0  0  0  0  2  0  0  0  0  0  0
  198.4810  175.6390  138.2370 O   0  0  0  0  0  1  0  0  0  0  0  0
  1  9  1  0  0  0  0
  2 18  1  6  0  0  0
  3 20  2  0  0  0  0
  4  2  1  0  0  0  0
  4  3  1  0  0  0  0
  6  7  1  0  0  0  0
  8 29  1  0  0  0  0
  8  6  2  0  0  0  0
  9  2  1  0  0  0  0
  9 27  1  1  0  0  0
 10  8  1  0  0  0  0
 11 23  1  0  0  0  0
 12 15  1  0  0  0  0
 12 11  2  0  0  0  0
 13  6  1  0  0  0  0
 14 10  2  0  0  0  0
 14 24  1  0  0  0  0
 15 21  2  0  0  0  0
 16 26  2  0  0  0  0
 17 18  2  0  0  0  0
 19  5  1  0  0  0  0
 19 25  1  0  0  0  0
 21 16  1  0  0  0  0
 21 22  1  0  0  0  0
 22 17  1  0  0  0  0
 23 22  2  0  0  0  0
 23 24  1  0  0  0  0
 24 13  2  0  0  0  0
 25  7  1  0  0  0  0
 26 18  1  0  0  0  0
 27  5  1  0  0  0  0
 28  1  1  0  0  0  0
 28  4  1  0  0  0  0
 29 30  1  0  0  0  0
 30 33  1  0  0  0  0
 31 35  1  0  0  0  0
 31 32  1  0  0  0  0
 33 31  1  0  0  0  0
 34 33  2  0  0  0  0
 36 37  1  0  0  0  0
 37 35  1  6  0  0  0
 37 42  1  0  0  0  0
 38 40  1  6  0  0  0
 39 36  1  6  0  0  0
 39 41  1  0  0  0  0
 39 38  1  0  0  0  0
 41 38  1  0  0  0  0
 42 40  1  0  0  0  0
 43 44  1  1  0  0  0
 43  3  1  0  0  0  0
 43 54  1  0  0  0  0
 44 45  2  0  0  0  0
 46 47  1  0  0  0  0
 47 45  1  6  0  0  0
 48 52  1  0  0  0  0
 48 49  1  0  0  0  0
 49 51  1  0  0  0  0
 50 48  1  0  0  0  0
 50 52  1  0  0  0  0
 50 46  1  0  0  0  0
 51 47  1  0  0  0  0
 52 46  1  0  0  0  0
 53 49  1  0  0  0  0
 54 55  1  0  0  0  0
M  END
>  <MODEL>
5

>  <REMARK>
 VINA RESULT:      -7.0      3.532      6.928
  Name = 
  8 active torsions:
  status: ('A' for Active; 'I' for Inactive)
    1  A    between atoms: C_4  and  C_38
    2  A    between atoms: C_8  and  C_38
    3  A    between atoms: C_10  and  C_48
    4  A    between atoms: N_11  and  C_25
    5  A    between atoms: C_12  and  C_25
    6  A    between atoms: C_14  and  C_22
    7  A    between atoms: C_20  and  C_38
    8  A    between atoms: C_22  and  N_30
                            x       y       z     vdW  Elec       q    Type
                         _______ _______ _______ _____ _____    ______ ____

>  <TORSDO>
F 8

$$$$
=
 OpenBabel10232412273D

 55 64  0  0  1  0  0  0  0  0999 V2000
  194.6150  176.6740  136.3500 O   0  0  0  0  0  0  0  0  0  0  0  0
  193.9470  174.7280  137.5400 C   0  0  1  0  0  3  0  0  0  0  0  0
  196.3270  174.3730  138.1500 C   0  0  0  0  0  0  0  0  0  0  0  0
  195.3280  174.7310  137.1790 N   0  0  0  0  0  0  0  0  0  0  0  0
  191.7780  176.7820  138.7470 C   0  0  0  0  0  2  0  0  0  0  0  0
  188.4220  175.9090  137.3000 C   0  0  0  0  0  0  0  0  0  0  0  0
  188.7380  176.5780  138.6100 C   0  0  0  0  0  2  0  0  0  0  0  0
  187.4610  176.4130  136.4000 C   0  0  0  0  0  0  0  0  0  0  0  0
  193.5320  176.0990  137.0570 C   0  0  1  0  0  3  0  0  0  0  0  0
  187.2730  175.7770  135.1690 C   0  0  0  0  0  3  0  0  0  0  0  0
  189.1800  171.9180  134.6430 C   0  0  0  0  0  3  0  0  0  0  0  0
  189.8830  170.7500  134.3460 C   0  0  0  0  0  3  0  0  0  0  0  0
  189.1590  174.7750  136.9570 C   0  0  0  0  0  3  0  0  0  0  0  0
  188.0270  174.6470  134.8350 C   0  0  0  0  0  3  0  0  0  0  0  0
  191.1680  170.5980  134.7640 N   0  0  0  0  0  0  0  0  0  0  0  0
  193.1410  171.3830  135.8510 C   0  0  0  0  0  3  0  0  0  0  0  0
  191.8590  173.7940  136.4390 C   0  0  0  0  0  3  0  0  0  0  0  0
  193.2060  173.6300  136.7950 C   0  0  0  0  0  0  0  0  0  0  0  0
  190.8230  177.2560  137.7590 N   0  0  0  0  0  2  0  0  0  0  0  0
  196.0550  174.4540  139.3800 O   0  0  0  0  0  0  0  0  0  0  0  0
  191.8120  171.5730  135.4590 C   0  0  0  0  0  0  0  0  0  0  0  0
  191.1450  172.7810  135.7730 C   0  0  0  0  0  0  0  0  0  0  0  0
  189.7940  172.9440  135.3740 C   0  0  0  0  0  0  0  0  0  0  0  0
  188.9950  174.1470  135.7210 C   0  0  0  0  0  0  0  0  0  0  0  0
  189.6710  177.6950  138.4410 N   0  0  0  0  0  2  0  0  0  0  0  0
  193.8290  172.4000  136.5210 C   0  0  0  0  0  3  0  0  0  0  0  0
  193.1950  177.0020  138.2400 C   0  0  0  0  0  2  0  0  0  0  0  0
  195.6090  175.7360  136.2470 N   0  0  0  0  0  2  0  0  0  0  0  0
  186.6980  177.6620  136.6920 C   0  0  0  0  0  2  0  0  0  0  0  0
  185.4350  177.3260  137.3330 N   0  0  0  0  0  2  0  0  0  0  0  0
  183.6650  177.8020  139.0160 N   0  0  0  0  0  0  0  0  0  0  0  0
  183.3030  178.3050  140.3350 C   0  0  0  0  0  1  0  0  0  0  0  0
  184.9920  178.0110  138.5070 C   0  0  0  0  0  0  0  0  0  0  0  0
  185.7700  178.8070  139.0980 O   0  0  0  0  0  0  0  0  0  0  0  0
  182.6800  177.0050  138.2890 C   0  0  0  0  0  2  0  0  0  0  0  0
  181.2300  175.0930  139.1150 C   0  0  0  0  0  2  0  0  0  0  0  0
  182.6620  175.5450  138.7700 C   0  0  1  0  0  3  0  0  0  0  0  0
  181.3820  173.6330  136.9790 C   0  0  2  0  0  3  0  0  0  0  0  0
  180.6840  173.9200  138.2740 C   0  0  2  0  0  3  0  0  0  0  0  0
  182.5730  174.5460  136.7230 C   0  0  0  0  0  2  0  0  0  0  0  0
  180.2110  174.4110  137.0440 O   0  0  0  0  0  0  0  0  0  0  0  0
  183.3370  174.6640  137.8930 O   0  0  0  0  0  0  0  0  0  0  0  0
  197.7260  174.0260  137.7060 C   0  0  2  0  0  3  0  0  0  0  0  0
  197.8440  172.5630  137.3700 C   0  0  0  0  0  3  0  0  0  0  0  0
  198.3490  172.1510  136.2030 C   0  0  0  0  0  3  0  0  0  0  0  0
  199.1330  169.9630  137.1030 C   0  0  1  0  0  3  0  0  0  0  0  0
  198.4900  170.6860  135.8990 C   0  0  1  0  0  3  0  0  0  0  0  0
  197.7050  168.0170  136.7080 C   0  0  2  0  0  3  0  0  0  0  0  0
  197.1880  168.6140  135.4550 N   0  0  0  0  0  0  0  0  0  0  0  0
  198.1090  169.0480  137.7690 C   0  0  1  0  0  3  0  0  0  0  0  0
  197.1370  170.0870  135.4690 C   0  0  0  0  0  2  0  0  0  0  0  0
  199.1550  168.4530  136.8770 C   0  0  2  0  0  3  0  0  0  0  0  0
  195.8230  168.1430  135.2930 C   0  0  0  0  0  1  0  0  0  0  0  0
  198.7650  174.4490  138.7480 C   0  0  0  0  0  2  0  0  0  0  0  0
  198.5710  175.7760  139.1480 O   0  0  0  0  0  1  0  0  0  0  0  0
  1  9  1  0  0  0  0
  2 18  1  6  0  0  0
  3 20  2  0  0  0  0
  4  2  1  0  0  0  0
  4  3  1  0  0  0  0
  6  7  1  0  0  0  0
  8 29  1  0  0  0  0
  8  6  2  0  0  0  0
  9  2  1  0  0  0  0
  9 27  1  1  0  0  0
 10  8  1  0  0  0  0
 11 23  1  0  0  0  0
 12 11  2  0  0  0  0
 12 15  1  0  0  0  0
 13  6  1  0  0  0  0
 14 10  2  0  0  0  0
 14 24  1  0  0  0  0
 15 21  2  0  0  0  0
 16 26  2  0  0  0  0
 17 18  2  0  0  0  0
 19 25  1  0  0  0  0
 19  5  1  0  0  0  0
 21 22  1  0  0  0  0
 21 16  1  0  0  0  0
 22 17  1  0  0  0  0
 23 24  1  0  0  0  0
 23 22  2  0  0  0  0
 24 13  2  0  0  0  0
 25  7  1  0  0  0  0
 26 18  1  0  0  0  0
 27  5  1  0  0  0  0
 28  1  1  0  0  0  0
 28  4  1  0  0  0  0
 29 30  1  0  0  0  0
 30 33  1  0  0  0  0
 31 32  1  0  0  0  0
 33 31  1  0  0  0  0
 33 34  2  0  0  0  0
 35 31  1  0  0  0  0
 37 35  1  6  0  0  0
 37 36  1  0  0  0  0
 38 40  1  1  0  0  0
 38 41  1  0  0  0  0
 38 39  1  0  0  0  0
 39 36  1  1  0  0  0
 40 42  1  0  0  0  0
 41 39  1  0  0  0  0
 42 37  1  0  0  0  0
 43 44  1  1  0  0  0
 43  3  1  0  0  0  0
 43 54  1  0  0  0  0
 45 44  2  0  0  0  0
 46 50  1  0  0  0  0
 47 45  1  1  0  0  0
 47 46  1  0  0  0  0
 48 52  1  0  0  0  0
 48 50  1  0  0  0  0
 49 51  1  0  0  0  0
 49 48  1  0  0  0  0
 51 47  1  0  0  0  0
 52 46  1  0  0  0  0
 52 50  1  0  0  0  0
 53 49  1  0  0  0  0
 54 55  1  0  0  0  0
M  END
>  <MODEL>
6

>  <REMARK>
 VINA RESULT:      -6.8      3.100      6.091
  Name = 
  8 active torsions:
  status: ('A' for Active; 'I' for Inactive)
    1  A    between atoms: C_4  and  C_38
    2  A    between atoms: C_8  and  C_38
    3  A    between atoms: C_10  and  C_48
    4  A    between atoms: N_11  and  C_25
    5  A    between atoms: C_12  and  C_25
    6  A    between atoms: C_14  and  C_22
    7  A    between atoms: C_20  and  C_38
    8  A    between atoms: C_22  and  N_30
                            x       y       z     vdW  Elec       q    Type
                         _______ _______ _______ _____ _____    ______ ____

>  <TORSDO>
F 8

$$$$
=
 OpenBabel10232412273D

 55 64  0  0  1  0  0  0  0  0999 V2000
  193.9820  176.9710  136.7640 O   0  0  0  0  0  0  0  0  0  0  0  0
  193.1860  174.9190  137.6620 C   0  0  1  0  0  3  0  0  0  0  0  0
  195.5470  174.1880  137.8930 C   0  0  0  0  0  0  0  0  0  0  0  0
  194.5110  174.8370  137.1360 N   0  0  0  0  0  0  0  0  0  0  0  0
  191.4480  176.9310  139.4800 C   0  0  0  0  0  2  0  0  0  0  0  0
  187.8730  176.7360  138.3360 C   0  0  0  0  0  0  0  0  0  0  0  0
  188.4100  177.1000  139.6940 C   0  0  0  0  0  2  0  0  0  0  0  0
  186.9020  177.5090  137.6690 C   0  0  0  0  0  0  0  0  0  0  0  0
  192.9100  176.3950  137.4880 C   0  0  1  0  0  3  0  0  0  0  0  0
  186.5050  177.1490  136.3780 C   0  0  0  0  0  3  0  0  0  0  0  0
  187.8140  173.2750  134.9330 C   0  0  0  0  0  3  0  0  0  0  0  0
  188.3190  172.1150  134.3460 C   0  0  0  0  0  3  0  0  0  0  0  0
  188.4140  175.6150  137.7050 C   0  0  0  0  0  3  0  0  0  0  0  0
  187.0620  176.0270  135.7540 C   0  0  0  0  0  3  0  0  0  0  0  0
  189.6090  171.7420  134.5650 N   0  0  0  0  0  0  0  0  0  0  0  0
  191.7700  172.0760  135.5170 C   0  0  0  0  0  3  0  0  0  0  0  0
  190.8890  174.4560  136.6840 C   0  0  0  0  0  3  0  0  0  0  0  0
  192.2320  174.0760  136.8320 C   0  0  0  0  0  0  0  0  0  0  0  0
  190.4680  177.6910  138.7210 N   0  0  0  0  0  2  0  0  0  0  0  0
  195.4170  174.0610  139.1420 O   0  0  0  0  0  0  0  0  0  0  0  0
  190.4450  172.4860  135.3360 C   0  0  0  0  0  0  0  0  0  0  0  0
  189.9820  173.6770  135.9430 C   0  0  0  0  0  0  0  0  0  0  0  0
  188.6310  174.0650  135.7530 C   0  0  0  0  0  0  0  0  0  0  0  0
  188.0400  175.2600  136.4070 C   0  0  0  0  0  0  0  0  0  0  0  0
  189.4620  178.1170  139.6110 N   0  0  0  0  0  2  0  0  0  0  0  0
  192.6540  172.8600  136.2660 C   0  0  0  0  0  3  0  0  0  0  0  0
  192.8210  177.0850  138.8460 C   0  0  0  0  0  2  0  0  0  0  0  0
  194.8260  175.9650  136.3710 N   0  0  0  0  0  2  0  0  0  0  0  0
  186.3470  178.7560  138.2730 C   0  0  0  0  0  2  0  0  0  0  0  0
  185.1660  178.4350  139.0610 N   0  0  0  0  0  2  0  0  0  0  0  0
  183.8330  178.6430  141.1520 N   0  0  0  0  0  0  0  0  0  0  0  0
  183.8050  178.7770  142.6040 C   0  0  0  0  0  1  0  0  0  0  0  0
  185.0720  178.7960  140.4410 C   0  0  0  0  0  0  0  0  0  0  0  0
  186.0830  179.2550  141.0380 O   0  0  0  0  0  0  0  0  0  0  0  0
  182.6000  178.2540  140.4730 C   0  0  0  0  0  2  0  0  0  0  0  0
  182.1410  180.4170  139.2290 C   0  0  0  0  0  2  0  0  0  0  0  0
  181.6400  179.4430  140.3120 C   0  0  1  0  0  3  0  0  0  0  0  0
  180.1600  179.5480  137.8010 C   0  0  2  0  0  3  0  0  0  0  0  0
  181.2020  180.6030  138.0180 C   0  0  2  0  0  3  0  0  0  0  0  0
  180.1740  178.4620  138.8670 C   0  0  0  0  0  2  0  0  0  0  0  0
  181.3900  179.5390  137.1180 O   0  0  0  0  0  0  0  0  0  0  0  0
  180.2920  179.0470  140.1360 O   0  0  0  0  0  0  0  0  0  0  0  0
  196.8340  173.7790  137.2210 C   0  0  2  0  0  3  0  0  0  0  0  0
  196.7890  172.3370  136.7890 C   0  0  0  0  0  3  0  0  0  0  0  0
  197.0410  171.3410  137.6430 C   0  0  0  0  0  3  0  0  0  0  0  0
  195.7540  169.7220  136.2530 C   0  0  1  0  0  3  0  0  0  0  0  0
  196.9580  169.9080  137.2020 C   0  0  1  0  0  3  0  0  0  0  0  0
  197.0400  168.1290  134.9160 C   0  0  2  0  0  3  0  0  0  0  0  0
  198.1510  168.1580  135.8960 N   0  0  0  0  0  0  0  0  0  0  0  0
  196.2450  169.4380  134.8370 C   0  0  1  0  0  3  0  0  0  0  0  0
  198.2980  169.4460  136.5970 C   0  0  0  0  0  2  0  0  0  0  0  0
  195.7320  168.3080  135.6770 C   0  0  2  0  0  3  0  0  0  0  0  0
  199.3790  167.9350  135.1530 C   0  0  0  0  0  1  0  0  0  0  0  0
  198.0460  174.0600  138.1140 C   0  0  0  0  0  2  0  0  0  0  0  0
  198.3530  175.4250  138.1360 O   0  0  0  0  0  1  0  0  0  0  0  0
  1  9  1  0  0  0  0
  2 18  1  6  0  0  0
  3 20  2  0  0  0  0
  4  2  1  0  0  0  0
  4  3  1  0  0  0  0
  6  7  1  0  0  0  0
  8 29  1  0  0  0  0
  8  6  2  0  0  0  0
  9  2  1  0  0  0  0
  9 27  1  1  0  0  0
 10  8  1  0  0  0  0
 11 23  1  0  0  0  0
 12 15  1  0  0  0  0
 12 11  2  0  0  0  0
 13  6  1  0  0  0  0
 14 10  2  0  0  0  0
 14 24  1  0  0  0  0
 15 21  2  0  0  0  0
 16 26  2  0  0  0  0
 17 18  2  0  0  0  0
 19  5  1  0  0  0  0
 19 25  1  0  0  0  0
 21 16  1  0  0  0  0
 21 22  1  0  0  0  0
 22 17  1  0  0  0  0
 23 22  2  0  0  0  0
 23 24  1  0  0  0  0
 24 13  2  0  0  0  0
 25  7  1  0  0  0  0
 26 18  1  0  0  0  0
 27  5  1  0  0  0  0
 28  1  1  0  0  0  0
 28  4  1  0  0  0  0
 29 30  1  0  0  0  0
 30 33  1  0  0  0  0
 31 32  1  0  0  0  0
 33 34  2  0  0  0  0
 33 31  1  0  0  0  0
 35 31  1  0  0  0  0
 36 37  1  0  0  0  0
 37 35  1  6  0  0  0
 38 39  1  0  0  0  0
 38 40  1  1  0  0  0
 39 36  1  1  0  0  0
 40 42  1  0  0  0  0
 41 38  1  0  0  0  0
 41 39  1  0  0  0  0
 42 37  1  0  0  0  0
 43 44  1  1  0  0  0
 43  3  1  0  0  0  0
 43 54  1  0  0  0  0
 44 45  2  0  0  0  0
 46 47  1  0  0  0  0
 47 45  1  6  0  0  0
 48 52  1  0  0  0  0
 48 49  1  0  0  0  0
 49 51  1  0  0  0  0
 50 48  1  0  0  0  0
 50 52  1  0  0  0  0
 50 46  1  0  0  0  0
 51 47  1  0  0  0  0
 52 46  1  0  0  0  0
 53 49  1  0  0  0  0
 54 55  1  0  0  0  0
M  END
>  <MODEL>
7

>  <REMARK>
 VINA RESULT:      -6.8      3.246      6.143
  Name = 
  8 active torsions:
  status: ('A' for Active; 'I' for Inactive)
    1  A    between atoms: C_4  and  C_38
    2  A    between atoms: C_8  and  C_38
    3  A    between atoms: C_10  and  C_48
    4  A    between atoms: N_11  and  C_25
    5  A    between atoms: C_12  and  C_25
    6  A    between atoms: C_14  and  C_22
    7  A    between atoms: C_20  and  C_38
    8  A    between atoms: C_22  and  N_30
                            x       y       z     vdW  Elec       q    Type
                         _______ _______ _______ _____ _____    ______ ____

>  <TORSDO>
F 8

$$$$
=
 OpenBabel10232412273D

 55 64  0  0  1  0  0  0  0  0999 V2000
  189.8950  174.4720  137.7740 O   0  0  0  0  0  0  0  0  0  0  0  0
  190.8350  176.5700  138.3720 C   0  0  1  0  0  3  0  0  0  0  0  0
  192.8970  175.9100  137.1580 C   0  0  0  0  0  0  0  0  0  0  0  0
  191.8100  175.5820  138.0390 N   0  0  0  0  0  0  0  0  0  0  0  0
  188.0090  177.6290  137.2460 C   0  0  0  0  0  2  0  0  0  0  0  0
  185.9480  178.7750  140.1720 C   0  0  0  0  0  0  0  0  0  0  0  0
  185.8880  179.2320  138.7400 C   0  0  0  0  0  2  0  0  0  0  0  0
  184.8000  178.4090  140.9030 C   0  0  0  0  0  0  0  0  0  0  0  0
  189.5610  175.8130  138.0780 C   0  0  1  0  0  3  0  0  0  0  0  0
  184.9420  177.9240  142.2060 C   0  0  0  0  0  3  0  0  0  0  0  0
  188.8560  178.3210  144.0320 C   0  0  0  0  0  3  0  0  0  0  0  0
  190.1160  178.2780  144.6270 C   0  0  0  0  0  3  0  0  0  0  0  0
  187.2060  178.6640  140.7630 C   0  0  0  0  0  3  0  0  0  0  0  0
  186.2110  177.8090  142.7840 C   0  0  0  0  0  3  0  0  0  0  0  0
  191.2140  177.9670  143.8860 N   0  0  0  0  0  0  0  0  0  0  0  0
  192.2710  177.3360  141.8430 C   0  0  0  0  0  3  0  0  0  0  0  0
  189.7890  177.3200  140.5610 C   0  0  0  0  0  3  0  0  0  0  0  0
  190.9330  176.9380  139.8440 C   0  0  0  0  0  0  0  0  0  0  0  0
  186.8750  177.2110  138.0530 N   0  0  0  0  0  2  0  0  0  0  0  0
  192.7850  176.8930  136.3730 O   0  0  0  0  0  0  0  0  0  0  0  0
  191.1200  177.6720  142.5620 C   0  0  0  0  0  0  0  0  0  0  0  0
  189.8610  177.6910  141.9160 C   0  0  0  0  0  0  0  0  0  0  0  0
  188.7090  178.0450  142.6660 C   0  0  0  0  0  0  0  0  0  0  0  0
  187.3600  178.1590  142.0570 C   0  0  0  0  0  0  0  0  0  0  0  0
  185.8120  178.1030  137.8080 N   0  0  0  0  0  2  0  0  0  0  0  0
  192.1800  176.9810  140.4930 C   0  0  0  0  0  3  0  0  0  0  0  0
  188.8480  176.4170  136.8710 C   0  0  0  0  0  2  0  0  0  0  0  0
  191.2390  174.3060  137.9770 N   0  0  0  0  0  2  0  0  0  0  0  0
  183.4400  178.4430  140.2890 C   0  0  0  0  0  2  0  0  0  0  0  0
  183.2570  177.2770  139.4380 N   0  0  0  0  0  2  0  0  0  0  0  0
  181.7850  175.5620  138.3980 N   0  0  0  0  0  0  0  0  0  0  0  0
  180.6130  174.7000  138.4980 C   0  0  0  0  0  1  0  0  0  0  0  0
  182.0070  176.5880  139.3790 C   0  0  0  0  0  0  0  0  0  0  0  0
  181.0900  176.8840  140.1920 O   0  0  0  0  0  0  0  0  0  0  0  0
  182.7570  175.2820  137.3460 C   0  0  0  0  0  2  0  0  0  0  0  0
  182.8770  173.1820  135.9260 C   0  0  0  0  0  2  0  0  0  0  0  0
  183.1490  173.7960  137.3130 C   0  0  1  0  0  3  0  0  0  0  0  0
  185.4540  173.1280  135.6570 C   0  0  2  0  0  3  0  0  0  0  0  0
  184.1180  172.6390  135.1860 C   0  0  2  0  0  3  0  0  0  0  0  0
  185.3640  174.0710  136.8470 C   0  0  0  0  0  2  0  0  0  0  0  0
  184.7880  173.7050  134.5600 O   0  0  0  0  0  0  0  0  0  0  0  0
  184.4600  173.5580  137.7880 O   0  0  0  0  0  0  0  0  0  0  0  0
  194.1070  175.0150  137.0790 C   0  0  2  0  0  3  0  0  0  0  0  0
  193.7840  173.7200  136.3820 C   0  0  0  0  0  3  0  0  0  0  0  0
  193.1250  173.6960  135.2200 C   0  0  0  0  0  3  0  0  0  0  0  0
  193.8950  171.3430  134.9290 C   0  0  1  0  0  3  0  0  0  0  0  0
  192.8400  172.3950  134.5230 C   0  0  1  0  0  3  0  0  0  0  0  0
  192.1800  169.6000  134.9090 C   0  0  2  0  0  3  0  0  0  0  0  0
  191.1820  170.5480  134.3610 N   0  0  0  0  0  0  0  0  0  0  0  0
  193.2490  170.2610  135.7880 C   0  0  1  0  0  3  0  0  0  0  0  0
  191.3890  171.9450  134.7810 C   0  0  0  0  0  2  0  0  0  0  0  0
  193.5460  169.9750  134.3480 C   0  0  2  0  0  3  0  0  0  0  0  0
  189.8840  170.1390  134.8710 C   0  0  0  0  0  1  0  0  0  0  0  0
  194.7150  174.7710  138.4640 C   0  0  0  0  0  2  0  0  0  0  0  0
  195.3400  173.5200  138.5290 O   0  0  0  0  0  1  0  0  0  0  0  0
  1 28  1  0  0  0  0
  1  9  1  0  0  0  0
  2 18  1  1  0  0  0
  3  4  1  0  0  0  0
  4  2  1  0  0  0  0
  5 19  1  0  0  0  0
  6 13  2  0  0  0  0
  6  8  1  0  0  0  0
  7  6  1  0  0  0  0
  8 10  2  0  0  0  0
  9 27  1  6  0  0  0
  9  2  1  0  0  0  0
 10 14  1  0  0  0  0
 11 12  1  0  0  0  0
 13 24  1  0  0  0  0
 15 12  2  0  0  0  0
 16 21  1  0  0  0  0
 17 22  1  0  0  0  0
 18 26  1  0  0  0  0
 18 17  2  0  0  0  0
 20  3  2  0  0  0  0
 21 15  1  0  0  0  0
 22 21  2  0  0  0  0
 22 23  1  0  0  0  0
 23 11  2  0  0  0  0
 24 23  1  0  0  0  0
 24 14  2  0  0  0  0
 25 19  1  0  0  0  0
 25  7  1  0  0  0  0
 26 16  2  0  0  0  0
 27  5  1  0  0  0  0
 28  4  1  0  0  0  0
 29  8  1  0  0  0  0
 30 29  1  0  0  0  0
 31 32  1  0  0  0  0
 31 33  1  0  0  0  0
 33 30  1  0  0  0  0
 33 34  2  0  0  0  0
 35 31  1  0  0  0  0
 36 37  1  0  0  0  0
 37 35  1  6  0  0  0
 37 42  1  0  0  0  0
 38 40  1  1  0  0  0
 39 38  1  0  0  0  0
 39 36  1  1  0  0  0
 40 42  1  0  0  0  0
 41 39  1  0  0  0  0
 41 38  1  0  0  0  0
 43 44  1  1  0  0  0
 43  3  1  0  0  0  0
 43 54  1  0  0  0  0
 45 44  2  0  0  0  0
 46 50  1  0  0  0  0
 47 51  1  0  0  0  0
 47 46  1  0  0  0  0
 47 45  1  1  0  0  0
 48 50  1  0  0  0  0
 49 51  1  0  0  0  0
 49 53  1  0  0  0  0
 49 48  1  0  0  0  0
 52 48  1  0  0  0  0
 52 46  1  0  0  0  0
 52 50  1  0  0  0  0
 54 55  1  0  0  0  0
M  END
>  <MODEL>
8

>  <REMARK>
 VINA RESULT:      -6.7      2.115      3.373
  Name = 
  8 active torsions:
  status: ('A' for Active; 'I' for Inactive)
    1  A    between atoms: C_4  and  C_38
    2  A    between atoms: C_8  and  C_38
    3  A    between atoms: C_10  and  C_48
    4  A    between atoms: N_11  and  C_25
    5  A    between atoms: C_12  and  C_25
    6  A    between atoms: C_14  and  C_22
    7  A    between atoms: C_20  and  C_38
    8  A    between atoms: C_22  and  N_30
                            x       y       z     vdW  Elec       q    Type
                         _______ _______ _______ _____ _____    ______ ____

>  <TORSDO>
F 8

$$$$
=
 OpenBabel10232412273D

 55 64  0  0  1  0  0  0  0  0999 V2000
  194.0420  177.2610  136.8640 O   0  0  0  0  0  0  0  0  0  0  0  0
  193.2910  175.2310  137.8460 C   0  0  1  0  0  3  0  0  0  0  0  0
  195.6620  174.5080  137.9860 C   0  0  0  0  0  0  0  0  0  0  0  0
  194.5910  175.1370  137.2620 N   0  0  0  0  0  0  0  0  0  0  0  0
  191.6330  177.2840  139.6930 C   0  0  0  0  0  2  0  0  0  0  0  0
  188.0110  177.0590  138.7170 C   0  0  0  0  0  0  0  0  0  0  0  0
  188.6080  177.4560  140.0400 C   0  0  0  0  0  2  0  0  0  0  0  0
  187.0090  177.8150  138.0770 C   0  0  0  0  0  0  0  0  0  0  0  0
  193.0050  176.7020  137.6490 C   0  0  1  0  0  3  0  0  0  0  0  0
  186.5540  177.4240  136.8150 C   0  0  0  0  0  3  0  0  0  0  0  0
  187.8030  173.5180  135.4040 C   0  0  0  0  0  3  0  0  0  0  0  0
  188.2840  172.3440  134.8220 C   0  0  0  0  0  3  0  0  0  0  0  0
  188.5240  175.9240  138.0900 C   0  0  0  0  0  3  0  0  0  0  0  0
  187.0840  176.2880  136.1930 C   0  0  0  0  0  3  0  0  0  0  0  0
  189.5830  171.9770  134.9910 N   0  0  0  0  0  0  0  0  0  0  0  0
  191.7840  172.3360  135.8360 C   0  0  0  0  0  3  0  0  0  0  0  0
  190.9530  174.7430  136.9840 C   0  0  0  0  0  3  0  0  0  0  0  0
  192.3020  174.3670  137.0800 C   0  0  0  0  0  0  0  0  0  0  0  0
  190.6190  178.0250  138.9610 N   0  0  0  0  0  2  0  0  0  0  0  0
  195.5880  174.4100  139.2430 O   0  0  0  0  0  0  0  0  0  0  0  0
  190.4520  172.7400  135.7060 C   0  0  0  0  0  0  0  0  0  0  0  0
  190.0150  173.9450  136.3040 C   0  0  0  0  0  0  0  0  0  0  0  0
  188.6550  174.3280  136.1670 C   0  0  0  0  0  0  0  0  0  0  0  0
  188.0930  175.5380  136.8190 C   0  0  0  0  0  0  0  0  0  0  0  0
  189.6530  178.4720  139.8860 N   0  0  0  0  0  2  0  0  0  0  0  0
  192.7000  173.1390  136.5250 C   0  0  0  0  0  3  0  0  0  0  0  0
  192.9770  177.4240  138.9930 C   0  0  0  0  0  2  0  0  0  0  0  0
  194.8680  176.2470  136.4570 N   0  0  0  0  0  2  0  0  0  0  0  0
  186.4790  179.0760  138.6760 C   0  0  0  0  0  2  0  0  0  0  0  0
  185.8180  178.7780  139.9380 N   0  0  0  0  0  2  0  0  0  0  0  0
  183.7650  178.2270  141.2320 N   0  0  0  0  0  0  0  0  0  0  0  0
  182.3280  178.3860  141.4150 C   0  0  0  0  0  1  0  0  0  0  0  0
  184.3940  178.7060  140.0330 C   0  0  0  0  0  0  0  0  0  0  0  0
  183.6830  179.0630  139.0540 O   0  0  0  0  0  0  0  0  0  0  0  0
  184.5420  177.6680  142.3360 C   0  0  0  0  0  2  0  0  0  0  0  0
  184.7460  179.4540  144.1260 C   0  0  0  0  0  2  0  0  0  0  0  0
  185.4610  178.7200  142.9750 C   0  0  1  0  0  3  0  0  0  0  0  0
  186.3430  178.1500  145.6950 C   0  0  2  0  0  3  0  0  0  0  0  0
  185.3930  179.2950  145.5180 C   0  0  2  0  0  3  0  0  0  0  0  0
  186.5510  177.3380  144.4250 C   0  0  0  0  0  2  0  0  0  0  0  0
  184.9920  178.0690  146.0790 O   0  0  0  0  0  0  0  0  0  0  0  0
  186.7280  178.2040  143.3360 O   0  0  0  0  0  0  0  0  0  0  0  0
  196.9170  174.0840  137.2670 C   0  0  2  0  0  3  0  0  0  0  0  0
  196.8990  172.6090  136.9610 C   0  0  0  0  0  3  0  0  0  0  0  0
  195.8820  171.8280  137.3390 C   0  0  0  0  0  3  0  0  0  0  0  0
  195.7400  169.5270  138.2860 C   0  0  1  0  0  3  0  0  0  0  0  0
  195.8660  170.3650  136.9950 C   0  0  1  0  0  3  0  0  0  0  0  0
  194.3090  167.9240  137.1170 C   0  0  2  0  0  3  0  0  0  0  0  0
  194.5430  168.6130  135.8260 N   0  0  0  0  0  0  0  0  0  0  0  0
  194.3730  168.8520  138.3370 C   0  0  1  0  0  3  0  0  0  0  0  0
  194.7720  170.0630  135.9530 C   0  0  0  0  0  2  0  0  0  0  0  0
  195.5770  168.0450  137.9540 C   0  0  2  0  0  3  0  0  0  0  0  0
  193.3400  168.4400  135.0290 C   0  0  0  0  0  1  0  0  0  0  0  0
  198.1730  174.4790  138.0490 C   0  0  0  0  0  2  0  0  0  0  0  0
  199.1790  174.9400  137.1930 O   0  0  0  0  0  1  0  0  0  0  0  0
  1  9  1  0  0  0  0
  2 18  1  6  0  0  0
  3 20  2  0  0  0  0
  4  2  1  0  0  0  0
  4  3  1  0  0  0  0
  6  7  1  0  0  0  0
  8 29  1  0  0  0  0
  8  6  2  0  0  0  0
  9  2  1  0  0  0  0
  9 27  1  1  0  0  0
 10  8  1  0  0  0  0
 11 23  1  0  0  0  0
 12 15  1  0  0  0  0
 12 11  2  0  0  0  0
 13  6  1  0  0  0  0
 14 10  2  0  0  0  0
 14 24  1  0  0  0  0
 15 21  2  0  0  0  0
 16 26  2  0  0  0  0
 17 18  2  0  0  0  0
 19  5  1  0  0  0  0
 19 25  1  0  0  0  0
 21 16  1  0  0  0  0
 21 22  1  0  0  0  0
 22 17  1  0  0  0  0
 23 22  2  0  0  0  0
 23 24  1  0  0  0  0
 24 13  2  0  0  0  0
 25  7  1  0  0  0  0
 26 18  1  0  0  0  0
 27  5  1  0  0  0  0
 28  1  1  0  0  0  0
 28  4  1  0  0  0  0
 29 30  1  0  0  0  0
 30 33  1  0  0  0  0
 31 32  1  0  0  0  0
 31 35  1  0  0  0  0
 33 31  1  0  0  0  0
 34 33  2  0  0  0  0
 37 35  1  1  0  0  0
 37 42  1  0  0  0  0
 37 36  1  0  0  0  0
 38 40  1  6  0  0  0
 38 41  1  0  0  0  0
 39 36  1  6  0  0  0
 39 38  1  0  0  0  0
 39 41  1  0  0  0  0
 42 40  1  0  0  0  0
 43 44  1  1  0  0  0
 43  3  1  0  0  0  0
 43 54  1  0  0  0  0
 44 45  2  0  0  0  0
 46 50  1  0  0  0  0
 47 45  1  1  0  0  0
 47 46  1  0  0  0  0
 48 52  1  0  0  0  0
 48 50  1  0  0  0  0
 49 51  1  0  0  0  0
 49 48  1  0  0  0  0
 51 47  1  0  0  0  0
 52 46  1  0  0  0  0
 52 50  1  0  0  0  0
 53 49  1  0  0  0  0
 55 54  1  0  0  0  0
M  END
>  <MODEL>
9

>  <REMARK>
 VINA RESULT:      -6.7      3.501      6.545
  Name = 
  8 active torsions:
  status: ('A' for Active; 'I' for Inactive)
    1  A    between atoms: C_4  and  C_38
    2  A    between atoms: C_8  and  C_38
    3  A    between atoms: C_10  and  C_48
    4  A    between atoms: N_11  and  C_25
    5  A    between atoms: C_12  and  C_25
    6  A    between atoms: C_14  and  C_22
    7  A    between atoms: C_20  and  C_38
    8  A    between atoms: C_22  and  N_30
                            x       y       z     vdW  Elec       q    Type
                         _______ _______ _______ _____ _____    ______ ____

>  <TORSDO>
F 8

$$$$
