=
 OpenBabel10232410433D

 64 69  0  0  1  0  0  0  0  0999 V2000
  185.7570  178.8080  146.0410 C   0  0  0  0  0  3  0  0  0  0  0  0
  187.4550  177.8550  147.6300 C   0  0  0  0  0  0  0  0  0  0  0  0
  182.9160  178.4290  142.5730 C   0  0  0  0  0  3  0  0  0  0  0  0
  187.4340  177.7830  144.5530 C   0  0  0  0  0  0  0  0  0  0  0  0
  184.9050  178.7930  140.4930 C   0  0  0  0  0  3  0  0  0  0  0  0
  183.5190  178.8880  140.2140 C   0  0  0  0  0  3  0  0  0  0  0  0
  185.3600  178.0980  143.7390 C   0  0  0  0  0  0  0  0  0  0  0  0
  187.5930  178.1410  143.1540 N   0  0  0  0  0  0  0  0  0  0  0  0
  186.4130  178.8230  147.2020 C   0  0  0  0  0  3  0  0  0  0  0  0
  184.2770  178.3460  142.7870 C   0  0  0  0  0  0  0  0  0  0  0  0
  188.4700  177.5500  145.3540 C   0  0  0  0  0  3  0  0  0  0  0  0
  186.2420  178.2800  142.8120 C   0  0  0  0  0  0  0  0  0  0  0  0
  185.2050  178.5160  141.8140 C   0  0  0  0  0  0  0  0  0  0  0  0
  182.5320  178.7090  141.2300 C   0  0  0  0  0  0  0  0  0  0  0  0
  188.3970  177.3040  146.8130 C   0  0  0  0  0  0  0  0  0  0  0  0
  187.4630  177.5540  148.9860 O   0  0  0  0  0  1  0  0  0  0  0  0
  185.9740  177.7400  145.0300 C   0  0  2  0  0  3  0  0  0  0  0  0
  188.6760  177.7240  142.2660 C   0  0  0  0  0  2  0  0  0  0  0  0
  188.9180  178.7730  141.1900 C   0  0  0  0  0  2  0  0  0  0  0  0
  188.9540  177.5480  139.0780 C   0  0  0  0  0  3  0  0  0  0  0  0
  188.2890  178.3500  139.9070 C   0  0  0  0  0  3  0  0  0  0  0  0
  188.3620  177.1060  137.7770 C   0  0  2  0  0  3  0  0  0  0  0  0
  186.9020  177.5210  137.6980 C   0  0  0  0  0  1  0  0  0  0  0  0
  188.4520  175.7140  137.6780 O   0  0  0  0  0  0  0  0  0  0  0  0
  188.7330  175.4540  136.3270 C   0  0  1  0  0  3  0  0  0  0  0  0
  191.2160  176.0380  135.6590 C   0  0  2  0  0  3  0  0  0  0  0  0
  190.6380  173.8810  136.7380 O   0  0  0  0  0  1  0  0  0  0  0  0
  190.1980  175.0560  136.1280 C   0  0  1  0  0  0  0  0  0  0  0  0
  190.6050  175.1160  134.7820 O   0  0  0  0  0  0  0  0  0  0  0  0
  192.6430  175.5970  135.9490 C   0  0  0  0  0  2  0  0  0  0  0  0
  193.5330  176.3410  135.1600 O   0  0  0  0  0  0  0  0  0  0  0  0
  194.2150  175.4000  134.3790 C   0  0  0  0  0  2  0  0  0  0  0  0
  195.7090  175.6930  134.3480 C   0  0  0  0  0  2  0  0  0  0  0  0
  196.4470  174.6630  135.0550 N   0  0  0  0  0  2  0  0  0  0  0  0
  196.7150  175.1960  136.3760 C   0  0  0  0  0  2  0  0  0  0  0  0
  197.2200  174.0950  137.3020 C   0  0  0  0  0  2  0  0  0  0  0  0
  197.0130  174.4480  138.7440 C   0  0  0  0  0  0  0  0  0  0  0  0
  195.9940  173.8510  139.4800 O   0  0  0  0  0  1  0  0  0  0  0  0
  197.7380  175.3240  139.2830 O   0  0  0  0  0  0  0  0  0  0  0  0
  187.7770  174.3960  135.7780 C   0  0  0  0  0  2  0  0  0  0  0  0
  187.5450  172.1390  136.5300 O   0  0  0  0  0  1  0  0  0  0  0  0
  187.2920  173.4670  136.8800 C   0  0  0  0  0  2  0  0  0  0  0  0
  189.4250  176.4820  147.3070 O   0  0  0  0  0  0  0  0  0  0  0  0
  190.8140  176.7990  147.3000 C   0  0  0  0  0  2  0  0  0  0  0  0
  192.0050  175.5920  145.6260 O   0  0  0  0  0  1  0  0  0  0  0  0
  191.6200  175.5570  146.9660 C   0  0  0  0  0  2  0  0  0  0  0  0
  181.1510  178.8240  140.8730 N   0  0  0  0  0  2  0  0  0  0  0  0
  180.6170  178.4340  139.5770 C   0  0  0  0  0  2  0  0  0  0  0  0
  180.2890  180.8890  139.2900 C   0  0  0  0  0  3  0  0  0  0  0  0
  180.4530  179.6310  138.7010 C   0  0  0  0  0  0  0  0  0  0  0  0
  180.1480  181.9160  137.1570 C   0  0  0  0  0  3  0  0  0  0  0  0
  180.4660  179.5210  137.2990 C   0  0  0  0  0  0  0  0  0  0  0  0
  180.3110  180.6810  136.5270 C   0  0  0  0  0  3  0  0  0  0  0  0
  180.1400  181.9930  138.5150 N   0  0  0  0  0  0  0  0  0  0  0  0
  181.8240  177.4700  136.5570 C   0  0  0  0  0  0  0  0  0  0  0  0
  182.8700  177.8220  137.1680 O   0  0  0  0  0  0  0  0  0  0  0  0
  180.6100  178.2300  136.6860 N   0  0  0  0  0  2  0  0  0  0  0  0
  180.7650  176.0550  134.8040 C   0  0  0  0  0  1  0  0  0  0  0  0
  181.8410  176.2830  135.7580 N   0  0  0  0  0  0  0  0  0  0  0  0
  182.9790  175.5330  135.6750 O   0  0  0  0  0  0  0  0  0  0  0  0
  183.9670  174.6800  137.7550 C   0  0  0  0  0  1  0  0  0  0  0  0
  183.2440  173.1960  135.9420 C   0  0  0  0  0  1  0  0  0  0  0  0
  182.9330  174.5000  136.6460 C   0  0  0  0  0  0  0  0  0  0  0  0
  181.5400  174.3690  137.2540 C   0  0  0  0  0  1  0  0  0  0  0  0
  1  9  2  0  0  0  0
  2 16  1  0  0  0  0
  3 10  1  0  0  0  0
  4 17  1  0  0  0  0
  4 11  2  0  0  0  0
  5 13  1  0  0  0  0
  6  5  2  0  0  0  0
  6 14  1  0  0  0  0
  7 17  1  0  0  0  0
  8  4  1  0  0  0  0
  9  2  1  0  0  0  0
 10  7  1  0  0  0  0
 11 15  1  0  0  0  0
 12  8  1  0  0  0  0
 12  7  2  0  0  0  0
 13 10  2  0  0  0  0
 13 12  1  0  0  0  0
 14  3  2  0  0  0  0
 15 43  1  0  0  0  0
 15  2  2  0  0  0  0
 17  1  1  1  0  0  0
 18  8  1  0  0  0  0
 19 18  1  0  0  0  0
 20 21  2  0  0  0  0
 21 19  1  0  0  0  0
 22 23  1  1  0  0  0
 22 20  1  0  0  0  0
 24 22  1  0  0  0  0
 25 40  1  1  0  0  0
 25 24  1  0  0  0  0
 26 30  1  1  0  0  0
 26 28  1  0  0  0  0
 28 25  1  0  0  0  0
 28 27  1  1  0  0  0
 29 26  1  0  0  0  0
 29 28  1  0  0  0  0
 31 30  1  0  0  0  0
 32 31  1  0  0  0  0
 33 32  1  0  0  0  0
 33 34  1  0  0  0  0
 34 35  1  0  0  0  0
 35 36  1  0  0  0  0
 36 37  1  0  0  0  0
 37 39  2  0  0  0  0
 37 38  1  0  0  0  0
 40 42  1  0  0  0  0
 41 42  1  0  0  0  0
 44 43  1  0  0  0  0
 45 46  1  0  0  0  0
 46 44  1  0  0  0  0
 47 14  1  0  0  0  0
 48 47  1  0  0  0  0
 50 49  1  0  0  0  0
 50 48  1  0  0  0  0
 51 54  1  0  0  0  0
 52 50  2  0  0  0  0
 53 51  2  0  0  0  0
 53 52  1  0  0  0  0
 54 49  2  0  0  0  0
 55 57  1  0  0  0  0
 55 56  2  0  0  0  0
 57 52  1  0  0  0  0
 58 59  1  0  0  0  0
 59 55  1  0  0  0  0
 60 59  1  0  0  0  0
 60 63  1  0  0  0  0
 62 63  1  0  0  0  0
 63 64  1  0  0  0  0
 63 61  1  0  0  0  0
M  END
>  <MODEL>
1

>  <REMARK>
 VINA RESULT:      -6.8      0.000      0.000
  Name = 
  26 active torsions:
  status: ('A' for Active; 'I' for Inactive)
    1  A    between atoms: O_2  and  C_5
    2  A    between atoms: O_2  and  C_12
    3  A    between atoms: C_5  and  C_23
    4  A    between atoms: C_9  and  C_31
    5  A    between atoms: C_12  and  C_36
    6  A    between atoms: C_12  and  C_51
    7  A    between atoms: N_16  and  C_18
    8  A    between atoms: N_16  and  C_44
    9  A    between atoms: O_17  and  C_45
   10  A    between atoms: O_17  and  C_57
   11  A    between atoms: C_18  and  C_34
   12  A    between atoms: O_20  and  C_48
   13  A    between atoms: O_20  and  C_54
   14  A    between atoms: N_21  and  C_50
   15  A    between atoms: N_22  and  C_41
   16  A    between atoms: C_24  and  C_48
   17  A    between atoms: C_26  and  C_61
   18  A    between atoms: C_27  and  C_36
   19  A    between atoms: C_31  and  C_38
   20  A    between atoms: C_38  and  N_53
   21  A    between atoms: C_41  and  C_61
   22  A    between atoms: C_45  and  C_49
   23  A    between atoms: C_46  and  O_55
   24  A    between atoms: C_52  and  N_53
   25  A    between atoms: C_52  and  C_54
   26  A    between atoms: O_55  and  N_58
                            x       y       z     vdW  Elec       q    Type
                         _______ _______ _______ _____ _____    ______ ____

>  <TORSDO>
F 26

$$$$
=
 OpenBabel10232410433D

 64 69  0  0  1  0  0  0  0  0999 V2000
  185.7680  178.7900  146.0230 C   0  0  0  0  0  3  0  0  0  0  0  0
  187.4730  177.8220  147.5960 C   0  0  0  0  0  0  0  0  0  0  0  0
  182.8760  178.4280  142.5960 C   0  0  0  0  0  3  0  0  0  0  0  0
  187.4100  177.7290  144.5210 C   0  0  0  0  0  0  0  0  0  0  0  0
  184.8420  178.7470  140.4870 C   0  0  0  0  0  3  0  0  0  0  0  0
  183.4540  178.8610  140.2250 C   0  0  0  0  0  3  0  0  0  0  0  0
  185.3300  178.0680  143.7320 C   0  0  0  0  0  0  0  0  0  0  0  0
  187.5560  178.0740  143.1170 N   0  0  0  0  0  0  0  0  0  0  0  0
  186.4400  178.8020  147.1750 C   0  0  0  0  0  3  0  0  0  0  0  0
  184.2380  178.3260  142.7920 C   0  0  0  0  0  0  0  0  0  0  0  0
  188.4530  177.4860  145.3090 C   0  0  0  0  0  3  0  0  0  0  0  0
  186.2020  178.2320  142.7920 C   0  0  0  0  0  0  0  0  0  0  0  0
  185.1560  178.4760  141.8060 C   0  0  0  0  0  0  0  0  0  0  0  0
  182.4780  178.7030  141.2560 C   0  0  0  0  0  0  0  0  0  0  0  0
  188.3960  177.2520  146.7710 C   0  0  0  0  0  0  0  0  0  0  0  0
  187.4940  177.5310  148.9540 O   0  0  0  0  0  1  0  0  0  0  0  0
  185.9560  177.7110  145.0170 C   0  0  2  0  0  3  0  0  0  0  0  0
  188.6200  177.6360  142.2180 C   0  0  0  0  0  2  0  0  0  0  0  0
  188.8560  178.6680  141.1250 C   0  0  0  0  0  2  0  0  0  0  0  0
  188.8250  177.4640  139.0010 C   0  0  0  0  0  3  0  0  0  0  0  0
  188.1820  178.2480  139.8640 C   0  0  0  0  0  3  0  0  0  0  0  0
  188.1870  177.0260  137.7200 C   0  0  2  0  0  3  0  0  0  0  0  0
  186.7060  177.3670  137.7280 C   0  0  0  0  0  1  0  0  0  0  0  0
  188.3410  175.6430  137.5780 O   0  0  0  0  0  0  0  0  0  0  0  0
  188.5210  175.4280  136.2030 C   0  0  1  0  0  3  0  0  0  0  0  0
  191.0720  175.6580  136.8340 C   0  0  2  0  0  3  0  0  0  0  0  0
  190.3530  174.6050  134.7050 O   0  0  0  0  0  1  0  0  0  0  0  0
  190.0070  175.3380  135.8410 C   0  0  1  0  0  0  0  0  0  0  0  0
  190.6530  176.5880  135.8580 O   0  0  0  0  0  0  0  0  0  0  0  0
  192.4300  175.0920  136.4470 C   0  0  0  0  0  2  0  0  0  0  0  0
  192.8380  174.1550  137.4090 O   0  0  0  0  0  0  0  0  0  0  0  0
  194.1700  174.4720  137.6970 C   0  0  0  0  0  2  0  0  0  0  0  0
  195.0370  173.2200  137.7330 C   0  0  0  0  0  2  0  0  0  0  0  0
  195.8080  173.0960  136.5110 N   0  0  0  0  0  2  0  0  0  0  0  0
  195.4160  171.8350  135.9140 C   0  0  0  0  0  2  0  0  0  0  0  0
  194.3620  172.0620  134.8360 C   0  0  0  0  0  2  0  0  0  0  0  0
  193.2400  171.0730  134.9440 C   0  0  0  0  0  0  0  0  0  0  0  0
  193.4660  169.7190  134.7170 O   0  0  0  0  0  0  0  0  0  0  0  0
  192.0740  171.4750  135.1970 O   0  0  0  0  0  1  0  0  0  0  0  0
  187.7510  174.1880  135.7510 C   0  0  0  0  0  2  0  0  0  0  0  0
  188.4450  171.9850  136.3670 O   0  0  0  0  0  1  0  0  0  0  0  0
  187.7610  173.1120  136.8260 C   0  0  0  0  0  2  0  0  0  0  0  0
  189.4180  176.4180  147.2570 O   0  0  0  0  0  0  0  0  0  0  0  0
  190.7100  176.8500  147.6740 C   0  0  0  0  0  2  0  0  0  0  0  0
  191.7000  177.0080  145.5120 O   0  0  0  0  0  1  0  0  0  0  0  0
  191.7610  176.3130  146.7190 C   0  0  0  0  0  2  0  0  0  0  0  0
  181.0940  178.8360  140.9170 N   0  0  0  0  0  2  0  0  0  0  0  0
  180.4720  178.1600  139.7880 C   0  0  0  0  0  2  0  0  0  0  0  0
  180.2940  180.4560  138.8320 C   0  0  0  0  0  3  0  0  0  0  0  0
  180.3890  179.0780  138.6140 C   0  0  0  0  0  0  0  0  0  0  0  0
  180.2380  180.8650  136.4970 C   0  0  0  0  0  3  0  0  0  0  0  0
  180.4110  178.5870  137.2970 C   0  0  0  0  0  0  0  0  0  0  0  0
  180.3340  179.4970  136.2330 C   0  0  0  0  0  3  0  0  0  0  0  0
  180.2190  181.3120  137.7810 N   0  0  0  0  0  0  0  0  0  0  0  0
  181.4590  176.4820  136.2630 C   0  0  0  0  0  0  0  0  0  0  0  0
  182.4800  177.0840  135.8340 O   0  0  0  0  0  0  0  0  0  0  0  0
  180.4840  177.1720  137.0650 N   0  0  0  0  0  2  0  0  0  0  0  0
  179.9860  174.4770  136.1780 C   0  0  0  0  0  1  0  0  0  0  0  0
  181.2910  175.0890  135.9780 N   0  0  0  0  0  0  0  0  0  0  0  0
  182.2410  174.4210  135.2600 O   0  0  0  0  0  0  0  0  0  0  0  0
  184.1840  172.9390  135.5060 C   0  0  0  0  0  1  0  0  0  0  0  0
  181.9390  172.2910  136.2490 C   0  0  0  0  0  1  0  0  0  0  0  0
  182.8790  173.4690  136.0960 C   0  0  0  0  0  0  0  0  0  0  0  0
  183.1340  174.0330  137.4900 C   0  0  0  0  0  1  0  0  0  0  0  0
  1  9  2  0  0  0  0
  2 16  1  0  0  0  0
  3 10  1  0  0  0  0
  4 17  1  0  0  0  0
  4 11  2  0  0  0  0
  5 13  1  0  0  0  0
  6  5  2  0  0  0  0
  6 14  1  0  0  0  0
  7 17  1  0  0  0  0
  8  4  1  0  0  0  0
  9  2  1  0  0  0  0
 10  7  1  0  0  0  0
 11 15  1  0  0  0  0
 12  8  1  0  0  0  0
 12  7  2  0  0  0  0
 13 12  1  0  0  0  0
 13 10  2  0  0  0  0
 14  3  2  0  0  0  0
 15 43  1  0  0  0  0
 15  2  2  0  0  0  0
 17  1  1  1  0  0  0
 18  8  1  0  0  0  0
 19 18  1  0  0  0  0
 20 21  2  0  0  0  0
 21 19  1  0  0  0  0
 22 23  1  1  0  0  0
 22 20  1  0  0  0  0
 24 22  1  0  0  0  0
 25 40  1  1  0  0  0
 25 24  1  0  0  0  0
 26 30  1  6  0  0  0
 28 27  1  6  0  0  0
 28 29  1  0  0  0  0
 28 25  1  0  0  0  0
 28 26  1  0  0  0  0
 29 26  1  0  0  0  0
 30 31  1  0  0  0  0
 31 32  1  0  0  0  0
 32 33  1  0  0  0  0
 34 33  1  0  0  0  0
 35 34  1  0  0  0  0
 36 37  1  0  0  0  0
 36 35  1  0  0  0  0
 37 39  1  0  0  0  0
 38 37  2  0  0  0  0
 40 42  1  0  0  0  0
 41 42  1  0  0  0  0
 43 44  1  0  0  0  0
 45 46  1  0  0  0  0
 46 44  1  0  0  0  0
 47 14  1  0  0  0  0
 48 47  1  0  0  0  0
 50 49  1  0  0  0  0
 50 48  1  0  0  0  0
 51 54  1  0  0  0  0
 52 50  2  0  0  0  0
 53 51  2  0  0  0  0
 53 52  1  0  0  0  0
 54 49  2  0  0  0  0
 55 57  1  0  0  0  0
 56 55  2  0  0  0  0
 57 52  1  0  0  0  0
 59 58  1  0  0  0  0
 59 55  1  0  0  0  0
 60 59  1  0  0  0  0
 60 63  1  0  0  0  0
 61 63  1  0  0  0  0
 63 62  1  0  0  0  0
 63 64  1  0  0  0  0
M  END
>  <MODEL>
2

>  <REMARK>
 VINA RESULT:      -6.0      1.456      2.076
  Name = 
  26 active torsions:
  status: ('A' for Active; 'I' for Inactive)
    1  A    between atoms: O_2  and  C_5
    2  A    between atoms: O_2  and  C_12
    3  A    between atoms: C_5  and  C_23
    4  A    between atoms: C_9  and  C_31
    5  A    between atoms: C_12  and  C_36
    6  A    between atoms: C_12  and  C_51
    7  A    between atoms: N_16  and  C_18
    8  A    between atoms: N_16  and  C_44
    9  A    between atoms: O_17  and  C_45
   10  A    between atoms: O_17  and  C_57
   11  A    between atoms: C_18  and  C_34
   12  A    between atoms: O_20  and  C_48
   13  A    between atoms: O_20  and  C_54
   14  A    between atoms: N_21  and  C_50
   15  A    between atoms: N_22  and  C_41
   16  A    between atoms: C_24  and  C_48
   17  A    between atoms: C_26  and  C_61
   18  A    between atoms: C_27  and  C_36
   19  A    between atoms: C_31  and  C_38
   20  A    between atoms: C_38  and  N_53
   21  A    between atoms: C_41  and  C_61
   22  A    between atoms: C_45  and  C_49
   23  A    between atoms: C_46  and  O_55
   24  A    between atoms: C_52  and  N_53
   25  A    between atoms: C_52  and  C_54
   26  A    between atoms: O_55  and  N_58
                            x       y       z     vdW  Elec       q    Type
                         _______ _______ _______ _____ _____    ______ ____

>  <TORSDO>
F 26

$$$$
=
 OpenBabel10232410433D

 64 69  0  0  1  0  0  0  0  0999 V2000
  192.2950  174.2910  135.7820 C   0  0  0  0  0  3  0  0  0  0  0  0
  194.7870  173.9940  135.6470 C   0  0  0  0  0  0  0  0  0  0  0  0
  188.6130  176.8660  136.0230 C   0  0  0  0  0  3  0  0  0  0  0  0
  193.1450  175.6340  137.6680 C   0  0  0  0  0  0  0  0  0  0  0  0
  188.7100  177.2900  138.8920 C   0  0  0  0  0  3  0  0  0  0  0  0
  187.5460  177.5860  138.1410 C   0  0  0  0  0  3  0  0  0  0  0  0
  191.1070  176.1360  136.8540 C   0  0  0  0  0  0  0  0  0  0  0  0
  192.3320  176.0230  138.8080 N   0  0  0  0  0  0  0  0  0  0  0  0
  193.3740  173.5740  135.4670 C   0  0  0  0  0  3  0  0  0  0  0  0
  189.7190  176.5970  136.8040 C   0  0  0  0  0  0  0  0  0  0  0  0
  194.4110  175.2450  137.7900 C   0  0  0  0  0  3  0  0  0  0  0  0
  191.1380  176.3080  138.1340 C   0  0  0  0  0  0  0  0  0  0  0  0
  189.7630  176.7950  138.1440 C   0  0  0  0  0  0  0  0  0  0  0  0
  187.4890  177.3830  136.7280 C   0  0  0  0  0  0  0  0  0  0  0  0
  195.2620  174.7170  136.6990 C   0  0  0  0  0  0  0  0  0  0  0  0
  195.6660  173.5520  134.6660 O   0  0  0  0  0  1  0  0  0  0  0  0
  192.4010  175.6720  136.3230 C   0  0  2  0  0  3  0  0  0  0  0  0
  192.8050  176.6450  140.0420 C   0  0  0  0  0  2  0  0  0  0  0  0
  191.8690  177.7670  140.4680 C   0  0  0  0  0  2  0  0  0  0  0  0
  191.5180  177.2380  142.8250 C   0  0  0  0  0  3  0  0  0  0  0  0
  191.0070  177.3190  141.5980 C   0  0  0  0  0  3  0  0  0  0  0  0
  190.6890  176.7870  143.9860 C   0  0  2  0  0  3  0  0  0  0  0  0
  189.4610  176.0380  143.4940 C   0  0  0  0  0  1  0  0  0  0  0  0
  190.2840  177.9030  144.7260 O   0  0  0  0  0  0  0  0  0  0  0  0
  190.4220  177.5280  146.0720 C   0  0  1  0  0  3  0  0  0  0  0  0
  187.8660  178.1290  146.3280 C   0  0  2  0  0  3  0  0  0  0  0  0
  188.8540  176.1600  147.4680 O   0  0  0  0  0  1  0  0  0  0  0  0
  189.0570  177.3330  146.7400 C   0  0  1  0  0  0  0  0  0  0  0  0
  188.6340  178.4630  147.4640 O   0  0  0  0  0  0  0  0  0  0  0  0
  186.5530  177.5010  146.7670 C   0  0  0  0  0  2  0  0  0  0  0  0
  185.5560  178.4880  146.8220 O   0  0  0  0  0  0  0  0  0  0  0  0
  185.6420  179.1710  145.6030 C   0  0  0  0  0  2  0  0  0  0  0  0
  184.2950  179.1950  144.8930 C   0  0  0  0  0  2  0  0  0  0  0  0
  184.2690  178.2270  143.8130 N   0  0  0  0  0  2  0  0  0  0  0  0
  185.5840  178.2670  143.2050 C   0  0  0  0  0  2  0  0  0  0  0  0
  185.6680  179.4050  142.1940 C   0  0  0  0  0  2  0  0  0  0  0  0
  184.7320  179.1920  141.0440 C   0  0  0  0  0  0  0  0  0  0  0  0
  185.1500  179.4250  139.7370 O   0  0  0  0  0  0  0  0  0  0  0  0
  183.5420  178.8430  141.2630 O   0  0  0  0  0  1  0  0  0  0  0  0
  191.2950  176.2800  146.1910 C   0  0  0  0  0  2  0  0  0  0  0  0
  193.2130  175.6580  147.4750 O   0  0  0  0  0  1  0  0  0  0  0  0
  191.9220  176.1770  147.5740 C   0  0  0  0  0  2  0  0  0  0  0  0
  196.6330  174.9830  136.8640 O   0  0  0  0  0  0  0  0  0  0  0  0
  197.5810  174.1040  137.4620 C   0  0  0  0  0  2  0  0  0  0  0  0
  199.7570  174.1420  138.4330 O   0  0  0  0  0  1  0  0  0  0  0  0
  198.6100  174.9090  138.2340 C   0  0  0  0  0  2  0  0  0  0  0  0
  186.2760  177.7020  136.0380 N   0  0  0  0  0  2  0  0  0  0  0  0
  185.5280  176.7440  135.2380 C   0  0  0  0  0  2  0  0  0  0  0  0
  186.1230  174.4740  136.0800 C   0  0  0  0  0  3  0  0  0  0  0  0
  185.2080  175.5310  136.0460 C   0  0  0  0  0  0  0  0  0  0  0  0
  184.7060  173.2360  137.5230 C   0  0  0  0  0  3  0  0  0  0  0  0
  184.0100  175.4310  136.7750 C   0  0  0  0  0  0  0  0  0  0  0  0
  183.7650  174.2680  137.5190 C   0  0  0  0  0  3  0  0  0  0  0  0
  185.8560  173.3600  136.8070 N   0  0  0  0  0  0  0  0  0  0  0  0
  182.3630  177.0880  137.8440 C   0  0  0  0  0  0  0  0  0  0  0  0
  182.7050  176.8140  139.0260 O   0  0  0  0  0  0  0  0  0  0  0  0
  183.0540  176.5000  136.7270 N   0  0  0  0  0  2  0  0  0  0  0  0
  180.6920  178.0930  136.2960 C   0  0  0  0  0  1  0  0  0  0  0  0
  181.3030  178.0220  137.6150 N   0  0  0  0  0  0  0  0  0  0  0  0
  180.6810  178.6190  138.6740 O   0  0  0  0  0  0  0  0  0  0  0  0
  180.0230  180.5510  137.3090 C   0  0  0  0  0  1  0  0  0  0  0  0
  182.2290  180.3840  138.3660 C   0  0  0  0  0  1  0  0  0  0  0  0
  180.7670  180.0290  138.5360 C   0  0  0  0  0  0  0  0  0  0  0  0
  180.2670  180.7430  139.7870 C   0  0  0  0  0  1  0  0  0  0  0  0
  2 15  2  0  0  0  0
  3 14  2  0  0  0  0
  3 10  1  0  0  0  0
  4 11  2  0  0  0  0
  4  8  1  0  0  0  0
  6  5  2  0  0  0  0
  7 12  2  0  0  0  0
  8 18  1  0  0  0  0
  9  2  1  0  0  0  0
  9  1  2  0  0  0  0
 10  7  1  0  0  0  0
 10 13  2  0  0  0  0
 12 13  1  0  0  0  0
 12  8  1  0  0  0  0
 13  5  1  0  0  0  0
 14  6  1  0  0  0  0
 15 43  1  0  0  0  0
 15 11  1  0  0  0  0
 16  2  1  0  0  0  0
 17  1  1  1  0  0  0
 17  7  1  0  0  0  0
 17  4  1  0  0  0  0
 18 19  1  0  0  0  0
 19 21  1  0  0  0  0
 20 22  1  0  0  0  0
 21 20  2  0  0  0  0
 22 23  1  6  0  0  0
 22 24  1  0  0  0  0
 24 25  1  0  0  0  0
 25 40  1  6  0  0  0
 25 28  1  0  0  0  0
 26 28  1  0  0  0  0
 26 30  1  1  0  0  0
 26 29  1  0  0  0  0
 28 29  1  0  0  0  0
 28 27  1  1  0  0  0
 30 31  1  0  0  0  0
 32 31  1  0  0  0  0
 33 32  1  0  0  0  0
 34 33  1  0  0  0  0
 35 34  1  0  0  0  0
 36 35  1  0  0  0  0
 37 39  1  0  0  0  0
 37 36  1  0  0  0  0
 38 37  2  0  0  0  0
 40 42  1  0  0  0  0
 41 42  1  0  0  0  0
 43 44  1  0  0  0  0
 44 46  1  0  0  0  0
 46 45  1  0  0  0  0
 47 14  1  0  0  0  0
 48 47  1  0  0  0  0
 48 50  1  0  0  0  0
 49 54  1  0  0  0  0
 50 49  2  0  0  0  0
 50 52  1  0  0  0  0
 52 53  2  0  0  0  0
 53 51  1  0  0  0  0
 54 51  2  0  0  0  0
 55 56  2  0  0  0  0
 57 52  1  0  0  0  0
 57 55  1  0  0  0  0
 58 59  1  0  0  0  0
 59 55  1  0  0  0  0
 59 60  1  0  0  0  0
 61 63  1  0  0  0  0
 62 63  1  0  0  0  0
 63 60  1  0  0  0  0
 63 64  1  0  0  0  0
M  END
>  <MODEL>
3

>  <REMARK>
 VINA RESULT:      -5.5      2.410      9.987
  Name = 
  26 active torsions:
  status: ('A' for Active; 'I' for Inactive)
    1  A    between atoms: O_2  and  C_5
    2  A    between atoms: O_2  and  C_12
    3  A    between atoms: C_5  and  C_23
    4  A    between atoms: C_9  and  C_31
    5  A    between atoms: C_12  and  C_36
    6  A    between atoms: C_12  and  C_51
    7  A    between atoms: N_16  and  C_18
    8  A    between atoms: N_16  and  C_44
    9  A    between atoms: O_17  and  C_45
   10  A    between atoms: O_17  and  C_57
   11  A    between atoms: C_18  and  C_34
   12  A    between atoms: O_20  and  C_48
   13  A    between atoms: O_20  and  C_54
   14  A    between atoms: N_21  and  C_50
   15  A    between atoms: N_22  and  C_41
   16  A    between atoms: C_24  and  C_48
   17  A    between atoms: C_26  and  C_61
   18  A    between atoms: C_27  and  C_36
   19  A    between atoms: C_31  and  C_38
   20  A    between atoms: C_38  and  N_53
   21  A    between atoms: C_41  and  C_61
   22  A    between atoms: C_45  and  C_49
   23  A    between atoms: C_46  and  O_55
   24  A    between atoms: C_52  and  N_53
   25  A    between atoms: C_52  and  C_54
   26  A    between atoms: O_55  and  N_58
                            x       y       z     vdW  Elec       q    Type
                         _______ _______ _______ _____ _____    ______ ____

>  <TORSDO>
F 26

$$$$
=
 OpenBabel10232410433D

 64 69  0  0  1  0  0  0  0  0999 V2000
  187.0480  178.1930  145.0760 C   0  0  0  0  0  3  0  0  0  0  0  0
  189.2280  177.2780  145.9250 C   0  0  0  0  0  0  0  0  0  0  0  0
  183.4700  178.0370  142.3510 C   0  0  0  0  0  3  0  0  0  0  0  0
  188.3980  177.9160  143.0310 C   0  0  0  0  0  0  0  0  0  0  0  0
  184.7570  179.2820  140.0680 C   0  0  0  0  0  3  0  0  0  0  0  0
  183.3490  179.1460  140.1380 C   0  0  0  0  0  3  0  0  0  0  0  0
  186.1580  177.9670  142.8130 C   0  0  0  0  0  0  0  0  0  0  0  0
  188.1230  178.6130  141.7860 N   0  0  0  0  0  0  0  0  0  0  0  0
  187.9800  178.0770  146.0210 C   0  0  0  0  0  3  0  0  0  0  0  0
  184.8370  178.1950  142.2280 C   0  0  0  0  0  0  0  0  0  0  0  0
  189.6320  177.7270  143.4890 C   0  0  0  0  0  3  0  0  0  0  0  0
  186.7250  178.5400  141.8030 C   0  0  0  0  0  0  0  0  0  0  0  0
  185.4360  178.7770  141.1620 C   0  0  0  0  0  0  0  0  0  0  0  0
  182.7060  178.5330  141.2560 C   0  0  0  0  0  0  0  0  0  0  0  0
  189.9880  177.1420  144.8020 C   0  0  0  0  0  0  0  0  0  0  0  0
  189.6410  176.6800  147.1090 O   0  0  0  0  0  1  0  0  0  0  0  0
  187.1400  177.4580  143.7870 C   0  0  2  0  0  3  0  0  0  0  0  0
  188.9790  178.6500  140.6030 C   0  0  0  0  0  2  0  0  0  0  0  0
  188.5290  177.6120  139.5850 C   0  0  0  0  0  2  0  0  0  0  0  0
  190.8010  177.0150  138.9170 C   0  0  0  0  0  3  0  0  0  0  0  0
  189.6100  176.6110  139.3560 C   0  0  0  0  0  3  0  0  0  0  0  0
  191.9100  176.0430  138.6670 C   0  0  2  0  0  3  0  0  0  0  0  0
  193.0320  176.7160  137.8920 C   0  0  0  0  0  1  0  0  0  0  0  0
  191.4200  174.9640  137.9260 O   0  0  0  0  0  0  0  0  0  0  0  0
  192.0380  175.0640  136.6690 C   0  0  1  0  0  3  0  0  0  0  0  0
  192.9500  173.1140  135.1450 C   0  0  2  0  0  3  0  0  0  0  0  0
  194.1190  173.7860  137.2270 O   0  0  0  0  0  1  0  0  0  0  0  0
  192.9860  173.8880  136.4180 C   0  0  1  0  0  0  0  0  0  0  0  0
  192.3170  172.6540  136.3210 O   0  0  0  0  0  0  0  0  0  0  0  0
  194.2190  172.3110  134.9030 C   0  0  0  0  0  2  0  0  0  0  0  0
  194.0540  171.0100  135.4020 O   0  0  0  0  0  0  0  0  0  0  0  0
  195.1540  170.7900  136.2400 C   0  0  0  0  0  2  0  0  0  0  0  0
  196.4560  171.1610  135.5440 C   0  0  0  0  0  2  0  0  0  0  0  0
  197.5600  171.1560  136.4850 N   0  0  0  0  0  2  0  0  0  0  0  0
  197.3030  172.2410  137.4120 C   0  0  0  0  0  2  0  0  0  0  0  0
  198.3040  173.3700  137.1980 C   0  0  0  0  0  2  0  0  0  0  0  0
  197.7340  174.6960  137.6030 C   0  0  0  0  0  0  0  0  0  0  0  0
  197.5820  175.7170  136.6700 O   0  0  0  0  0  0  0  0  0  0  0  0
  197.4310  174.9050  138.8070 O   0  0  0  0  0  1  0  0  0  0  0  0
  190.9890  175.1930  135.5660 C   0  0  0  0  0  2  0  0  0  0  0  0
  189.2050  173.6150  135.7640 O   0  0  0  0  0  1  0  0  0  0  0  0
  189.5920  174.9130  136.1000 C   0  0  0  0  0  2  0  0  0  0  0  0
  191.2190  176.4620  144.8110 O   0  0  0  0  0  0  0  0  0  0  0  0
  191.5680  175.3720  143.9630 C   0  0  0  0  0  2  0  0  0  0  0  0
  192.4200  174.7250  146.0930 O   0  0  0  0  0  1  0  0  0  0  0  0
  192.3430  174.3350  144.7560 C   0  0  0  0  0  2  0  0  0  0  0  0
  181.2780  178.4340  141.2570 N   0  0  0  0  0  2  0  0  0  0  0  0
  180.4910  178.0970  140.0810 C   0  0  0  0  0  2  0  0  0  0  0  0
  180.1290  180.5460  139.7880 C   0  0  0  0  0  3  0  0  0  0  0  0
  180.3320  179.2930  139.2020 C   0  0  0  0  0  0  0  0  0  0  0  0
  180.0310  181.5760  137.6540 C   0  0  0  0  0  3  0  0  0  0  0  0
  180.3860  179.1860  137.8020 C   0  0  0  0  0  0  0  0  0  0  0  0
  180.2340  180.3450  137.0270 C   0  0  0  0  0  3  0  0  0  0  0  0
  179.9820  181.6500  139.0110 N   0  0  0  0  0  0  0  0  0  0  0  0
  181.8100  177.3390  136.7230 C   0  0  0  0  0  0  0  0  0  0  0  0
  182.9090  177.8930  136.9970 O   0  0  0  0  0  0  0  0  0  0  0  0
  180.5700  177.9000  137.1910 N   0  0  0  0  0  2  0  0  0  0  0  0
  180.5550  175.6630  135.3750 C   0  0  0  0  0  1  0  0  0  0  0  0
  181.8020  176.1220  135.9700 N   0  0  0  0  0  0  0  0  0  0  0  0
  182.9820  175.5620  135.5680 O   0  0  0  0  0  0  0  0  0  0  0  0
  183.5270  173.1740  135.3980 C   0  0  0  0  0  1  0  0  0  0  0  0
  181.9300  174.0400  137.0460 C   0  0  0  0  0  1  0  0  0  0  0  0
  183.2060  174.3660  136.2970 C   0  0  0  0  0  0  0  0  0  0  0  0
  184.3100  174.5440  137.3340 C   0  0  0  0  0  1  0  0  0  0  0  0
  1  9  2  0  0  0  0
  2  9  1  0  0  0  0
  2 16  1  0  0  0  0
  4 11  2  0  0  0  0
  4 17  1  0  0  0  0
  5  6  2  0  0  0  0
  5 13  1  0  0  0  0
  6 14  1  0  0  0  0
  7 17  1  0  0  0  0
  8 12  1  0  0  0  0
  8  4  1  0  0  0  0
 10  3  1  0  0  0  0
 10  7  1  0  0  0  0
 11 15  1  0  0  0  0
 12  7  2  0  0  0  0
 13 12  1  0  0  0  0
 13 10  2  0  0  0  0
 14 47  1  0  0  0  0
 14  3  2  0  0  0  0
 15 43  1  0  0  0  0
 15  2  2  0  0  0  0
 17  1  1  1  0  0  0
 18  8  1  0  0  0  0
 19 18  1  0  0  0  0
 20 21  2  0  0  0  0
 21 19  1  0  0  0  0
 22 23  1  6  0  0  0
 22 20  1  0  0  0  0
 24 22  1  0  0  0  0
 25 40  1  6  0  0  0
 25 24  1  0  0  0  0
 26 30  1  1  0  0  0
 26 29  1  0  0  0  0
 26 28  1  0  0  0  0
 28 25  1  0  0  0  0
 28 27  1  1  0  0  0
 29 28  1  0  0  0  0
 30 31  1  0  0  0  0
 31 32  1  0  0  0  0
 33 32  1  0  0  0  0
 33 34  1  0  0  0  0
 34 35  1  0  0  0  0
 36 35  1  0  0  0  0
 36 37  1  0  0  0  0
 37 39  1  0  0  0  0
 38 37  2  0  0  0  0
 40 42  1  0  0  0  0
 41 42  1  0  0  0  0
 44 46  1  0  0  0  0
 44 43  1  0  0  0  0
 46 45  1  0  0  0  0
 48 47  1  0  0  0  0
 50 49  1  0  0  0  0
 50 48  1  0  0  0  0
 51 54  1  0  0  0  0
 52 50  2  0  0  0  0
 53 51  2  0  0  0  0
 53 52  1  0  0  0  0
 54 49  2  0  0  0  0
 55 56  2  0  0  0  0
 55 57  1  0  0  0  0
 57 52  1  0  0  0  0
 58 59  1  0  0  0  0
 59 55  1  0  0  0  0
 60 59  1  0  0  0  0
 60 63  1  0  0  0  0
 61 63  1  0  0  0  0
 63 62  1  0  0  0  0
 63 64  1  0  0  0  0
M  END
>  <MODEL>
4

>  <REMARK>
 VINA RESULT:      -5.4      1.676      2.491
  Name = 
  26 active torsions:
  status: ('A' for Active; 'I' for Inactive)
    1  A    between atoms: O_2  and  C_5
    2  A    between atoms: O_2  and  C_12
    3  A    between atoms: C_5  and  C_23
    4  A    between atoms: C_9  and  C_31
    5  A    between atoms: C_12  and  C_36
    6  A    between atoms: C_12  and  C_51
    7  A    between atoms: N_16  and  C_18
    8  A    between atoms: N_16  and  C_44
    9  A    between atoms: O_17  and  C_45
   10  A    between atoms: O_17  and  C_57
   11  A    between atoms: C_18  and  C_34
   12  A    between atoms: O_20  and  C_48
   13  A    between atoms: O_20  and  C_54
   14  A    between atoms: N_21  and  C_50
   15  A    between atoms: N_22  and  C_41
   16  A    between atoms: C_24  and  C_48
   17  A    between atoms: C_26  and  C_61
   18  A    between atoms: C_27  and  C_36
   19  A    between atoms: C_31  and  C_38
   20  A    between atoms: C_38  and  N_53
   21  A    between atoms: C_41  and  C_61
   22  A    between atoms: C_45  and  C_49
   23  A    between atoms: C_46  and  O_55
   24  A    between atoms: C_52  and  N_53
   25  A    between atoms: C_52  and  C_54
   26  A    between atoms: O_55  and  N_58
                            x       y       z     vdW  Elec       q    Type
                         _______ _______ _______ _____ _____    ______ ____

>  <TORSDO>
F 26

$$$$
=
 OpenBabel10232410433D

 64 69  0  0  1  0  0  0  0  0999 V2000
  190.3840  173.8990  135.5950 C   0  0  0  0  0  3  0  0  0  0  0  0
  192.8480  173.5140  135.9080 C   0  0  0  0  0  0  0  0  0  0  0  0
  186.8280  176.6010  135.0510 C   0  0  0  0  0  3  0  0  0  0  0  0
  190.9570  175.3300  137.5190 C   0  0  0  0  0  0  0  0  0  0  0  0
  186.4530  177.2020  137.8640 C   0  0  0  0  0  3  0  0  0  0  0  0
  185.4470  177.4870  136.9090 C   0  0  0  0  0  3  0  0  0  0  0  0
  189.1100  175.8450  136.3400 C   0  0  0  0  0  0  0  0  0  0  0  0
  189.9790  175.8160  138.4790 N   0  0  0  0  0  0  0  0  0  0  0  0
  191.4690  173.1290  135.5110 C   0  0  0  0  0  3  0  0  0  0  0  0
  187.7720  176.3460  136.0250 C   0  0  0  0  0  0  0  0  0  0  0  0
  192.1660  174.9100  137.8800 C   0  0  0  0  0  3  0  0  0  0  0  0
  188.9300  176.0960  137.5940 C   0  0  0  0  0  0  0  0  0  0  0  0
  187.5960  176.6270  137.3390 C   0  0  0  0  0  0  0  0  0  0  0  0
  185.6230  177.1980  135.5210 C   0  0  0  0  0  0  0  0  0  0  0  0
  193.1670  174.2860  136.9840 C   0  0  0  0  0  0  0  0  0  0  0  0
  193.8610  172.9830  135.1200 O   0  0  0  0  0  1  0  0  0  0  0  0
  190.4550  175.3070  136.0670 C   0  0  2  0  0  3  0  0  0  0  0  0
  190.2610  176.5000  139.7390 C   0  0  0  0  0  2  0  0  0  0  0  0
  189.4420  177.7770  139.8480 C   0  0  0  0  0  2  0  0  0  0  0  0
  190.2920  177.8900  142.1340 C   0  0  0  0  0  3  0  0  0  0  0  0
  189.3210  178.1920  141.2750 C   0  0  0  0  0  3  0  0  0  0  0  0
  190.2070  178.2810  143.5760 C   0  0  2  0  0  3  0  0  0  0  0  0
  191.4180  179.1130  143.9650 C   0  0  0  0  0  1  0  0  0  0  0  0
  190.1660  177.1280  144.3660 O   0  0  0  0  0  0  0  0  0  0  0  0
  189.8900  177.5770  145.6670 C   0  0  1  0  0  3  0  0  0  0  0  0
  187.8390  178.2390  147.1870 C   0  0  2  0  0  3  0  0  0  0  0  0
  187.5660  177.8040  144.7600 O   0  0  0  0  0  1  0  0  0  0  0  0
  188.3840  177.7510  145.8890 C   0  0  1  0  0  0  0  0  0  0  0  0
  187.8660  176.8680  146.8540 O   0  0  0  0  0  0  0  0  0  0  0  0
  186.4150  178.7630  147.0720 C   0  0  0  0  0  2  0  0  0  0  0  0
  185.6650  177.9040  146.2540 O   0  0  0  0  0  0  0  0  0  0  0  0
  184.3970  178.4910  146.1610 C   0  0  0  0  0  2  0  0  0  0  0  0
  184.0710  178.8670  144.7220 C   0  0  0  0  0  2  0  0  0  0  0  0
  185.1670  178.5140  143.8400 N   0  0  0  0  0  2  0  0  0  0  0  0
  184.8880  179.1620  142.5730 C   0  0  0  0  0  2  0  0  0  0  0  0
  184.2530  178.1760  141.5990 C   0  0  0  0  0  2  0  0  0  0  0  0
  184.0990  178.7720  140.2330 C   0  0  0  0  0  0  0  0  0  0  0  0
  185.0770  179.6150  139.7130 O   0  0  0  0  0  1  0  0  0  0  0  0
  183.0560  178.5460  139.5660 O   0  0  0  0  0  0  0  0  0  0  0  0
  190.5120  176.6380  146.7000 C   0  0  0  0  0  2  0  0  0  0  0  0
  192.2330  174.9890  146.5250 O   0  0  0  0  0  1  0  0  0  0  0  0
  191.9700  176.3510  146.3750 C   0  0  0  0  0  2  0  0  0  0  0  0
  194.5000  174.5180  137.3670 O   0  0  0  0  0  0  0  0  0  0  0  0
  195.5200  175.0570  136.5310 C   0  0  0  0  0  2  0  0  0  0  0  0
  197.0210  174.8250  138.3660 O   0  0  0  0  0  1  0  0  0  0  0  0
  196.8780  174.5720  137.0030 C   0  0  0  0  0  2  0  0  0  0  0  0
  184.5600  177.5110  134.6150 N   0  0  0  0  0  2  0  0  0  0  0  0
  183.4400  176.6220  134.3460 C   0  0  0  0  0  2  0  0  0  0  0  0
  181.9110  178.1300  135.6120 C   0  0  0  0  0  3  0  0  0  0  0  0
  182.3580  176.8310  135.3530 C   0  0  0  0  0  0  0  0  0  0  0  0
  180.3480  177.3210  137.2020 C   0  0  0  0  0  3  0  0  0  0  0  0
  181.7780  175.7500  136.0410 C   0  0  0  0  0  0  0  0  0  0  0  0
  180.7630  176.0070  136.9730 C   0  0  0  0  0  3  0  0  0  0  0  0
  180.9270  178.3470  136.5230 N   0  0  0  0  0  0  0  0  0  0  0  0
  183.3310  173.7490  136.4730 C   0  0  0  0  0  0  0  0  0  0  0  0
  183.8510  174.2530  137.5050 O   0  0  0  0  0  0  0  0  0  0  0  0
  182.2490  174.4160  135.7990 N   0  0  0  0  0  2  0  0  0  0  0  0
  183.4440  172.0620  134.6460 C   0  0  0  0  0  1  0  0  0  0  0  0
  183.7990  172.4850  135.9920 N   0  0  0  0  0  0  0  0  0  0  0  0
  184.7930  171.8270  136.6610 O   0  0  0  0  0  0  0  0  0  0  0  0
  187.0560  172.6900  137.0610 C   0  0  0  0  0  1  0  0  0  0  0  0
  185.8010  173.2040  135.0180 C   0  0  0  0  0  1  0  0  0  0  0  0
  186.0430  172.1350  136.0630 C   0  0  0  0  0  0  0  0  0  0  0  0
  186.6310  170.9230  135.3480 C   0  0  0  0  0  1  0  0  0  0  0  0
  2 15  2  0  0  0  0
  3 14  2  0  0  0  0
  3 10  1  0  0  0  0
  4 11  2  0  0  0  0
  4  8  1  0  0  0  0
  6  5  2  0  0  0  0
  7 12  2  0  0  0  0
  8 18  1  0  0  0  0
  9  1  2  0  0  0  0
  9  2  1  0  0  0  0
 10  7  1  0  0  0  0
 10 13  2  0  0  0  0
 12  8  1  0  0  0  0
 13 12  1  0  0  0  0
 13  5  1  0  0  0  0
 14  6  1  0  0  0  0
 15 43  1  0  0  0  0
 15 11  1  0  0  0  0
 16  2  1  0  0  0  0
 17  1  1  1  0  0  0
 17  7  1  0  0  0  0
 17  4  1  0  0  0  0
 18 19  1  0  0  0  0
 19 21  1  0  0  0  0
 20 22  1  0  0  0  0
 21 20  2  0  0  0  0
 22 23  1  1  0  0  0
 22 24  1  0  0  0  0
 24 25  1  0  0  0  0
 25 28  1  0  0  0  0
 25 40  1  1  0  0  0
 26 30  1  6  0  0  0
 28 27  1  6  0  0  0
 28 29  1  0  0  0  0
 28 26  1  0  0  0  0
 29 26  1  0  0  0  0
 31 30  1  0  0  0  0
 32 31  1  0  0  0  0
 33 32  1  0  0  0  0
 34 33  1  0  0  0  0
 35 34  1  0  0  0  0
 36 35  1  0  0  0  0
 37 36  1  0  0  0  0
 38 37  1  0  0  0  0
 39 37  2  0  0  0  0
 42 41  1  0  0  0  0
 42 40  1  0  0  0  0
 44 46  1  0  0  0  0
 44 43  1  0  0  0  0
 46 45  1  0  0  0  0
 47 14  1  0  0  0  0
 48 47  1  0  0  0  0
 48 50  1  0  0  0  0
 49 54  1  0  0  0  0
 50 49  2  0  0  0  0
 50 52  1  0  0  0  0
 52 53  2  0  0  0  0
 53 51  1  0  0  0  0
 54 51  2  0  0  0  0
 55 56  2  0  0  0  0
 57 52  1  0  0  0  0
 57 55  1  0  0  0  0
 58 59  1  0  0  0  0
 59 55  1  0  0  0  0
 59 60  1  0  0  0  0
 62 63  1  0  0  0  0
 63 60  1  0  0  0  0
 63 61  1  0  0  0  0
 64 63  1  0  0  0  0
M  END
>  <MODEL>
5

>  <REMARK>
 VINA RESULT:      -5.2      2.283      9.375
  Name = 
  26 active torsions:
  status: ('A' for Active; 'I' for Inactive)
    1  A    between atoms: O_2  and  C_5
    2  A    between atoms: O_2  and  C_12
    3  A    between atoms: C_5  and  C_23
    4  A    between atoms: C_9  and  C_31
    5  A    between atoms: C_12  and  C_36
    6  A    between atoms: C_12  and  C_51
    7  A    between atoms: N_16  and  C_18
    8  A    between atoms: N_16  and  C_44
    9  A    between atoms: O_17  and  C_45
   10  A    between atoms: O_17  and  C_57
   11  A    between atoms: C_18  and  C_34
   12  A    between atoms: O_20  and  C_48
   13  A    between atoms: O_20  and  C_54
   14  A    between atoms: N_21  and  C_50
   15  A    between atoms: N_22  and  C_41
   16  A    between atoms: C_24  and  C_48
   17  A    between atoms: C_26  and  C_61
   18  A    between atoms: C_27  and  C_36
   19  A    between atoms: C_31  and  C_38
   20  A    between atoms: C_38  and  N_53
   21  A    between atoms: C_41  and  C_61
   22  A    between atoms: C_45  and  C_49
   23  A    between atoms: C_46  and  O_55
   24  A    between atoms: C_52  and  N_53
   25  A    between atoms: C_52  and  C_54
   26  A    between atoms: O_55  and  N_58
                            x       y       z     vdW  Elec       q    Type
                         _______ _______ _______ _____ _____    ______ ____

>  <TORSDO>
F 26

$$$$
=
 OpenBabel10232410433D

 64 69  0  0  1  0  0  0  0  0999 V2000
  191.1700  176.5350  144.6070 C   0  0  0  0  0  3  0  0  0  0  0  0
  190.2400  177.3350  146.8000 C   0  0  0  0  0  0  0  0  0  0  0  0
  192.2530  177.1730  140.2860 C   0  0  0  0  0  3  0  0  0  0  0  0
  188.9570  177.4410  144.0040 C   0  0  0  0  0  0  0  0  0  0  0  0
  189.6020  176.6760  139.2180 C   0  0  0  0  0  3  0  0  0  0  0  0
  190.7440  176.6930  138.3800 C   0  0  0  0  0  3  0  0  0  0  0  0
  190.5120  177.2990  142.3820 C   0  0  0  0  0  0  0  0  0  0  0  0
  188.2480  177.0860  142.7860 N   0  0  0  0  0  0  0  0  0  0  0  0
  191.0670  176.4560  145.9330 C   0  0  0  0  0  3  0  0  0  0  0  0
  191.1060  177.1460  141.0540 C   0  0  0  0  0  0  0  0  0  0  0  0
  188.3420  177.5830  145.1750 C   0  0  0  0  0  3  0  0  0  0  0  0
  189.3360  177.0570  141.9040 C   0  0  0  0  0  0  0  0  0  0  0  0
  189.8680  176.9140  140.5540 C   0  0  0  0  0  0  0  0  0  0  0  0
  192.0530  176.9390  138.8950 C   0  0  0  0  0  0  0  0  0  0  0  0
  189.0070  177.8180  146.4780 C   0  0  0  0  0  0  0  0  0  0  0  0
  190.7840  177.6200  148.0460 O   0  0  0  0  0  1  0  0  0  0  0  0
  190.4760  177.5930  143.8260 C   0  0  2  0  0  3  0  0  0  0  0  0
  186.8670  177.4250  142.4530 C   0  0  0  0  0  2  0  0  0  0  0  0
  186.7450  178.9050  142.1230 C   0  0  0  0  0  2  0  0  0  0  0  0
  185.3770  178.1100  140.2640 C   0  0  0  0  0  3  0  0  0  0  0  0
  185.7110  179.1160  141.0700 C   0  0  0  0  0  3  0  0  0  0  0  0
  184.3500  178.2820  139.1890 C   0  0  2  0  0  3  0  0  0  0  0  0
  183.8150  179.7050  139.1960 C   0  0  0  0  0  1  0  0  0  0  0  0
  183.2950  177.3910  139.4130 O   0  0  0  0  0  0  0  0  0  0  0  0
  182.7030  177.1910  138.1550 C   0  0  1  0  0  3  0  0  0  0  0  0
  184.1520  177.3060  135.9550 C   0  0  2  0  0  3  0  0  0  0  0  0
  184.4350  175.4690  137.5980 O   0  0  0  0  0  1  0  0  0  0  0  0
  183.6920  176.5690  137.1660 C   0  0  1  0  0  0  0  0  0  0  0  0
  183.1280  176.3360  135.8980 O   0  0  0  0  0  0  0  0  0  0  0  0
  185.4310  176.7320  135.3620 C   0  0  0  0  0  2  0  0  0  0  0  0
  186.3590  177.7650  135.1620 O   0  0  0  0  0  0  0  0  0  0  0  0
  187.3650  177.2110  134.3610 C   0  0  0  0  0  2  0  0  0  0  0  0
  188.6610  177.0470  135.1450 C   0  0  0  0  0  2  0  0  0  0  0  0
  188.8420  175.6660  135.5520 N   0  0  0  0  0  2  0  0  0  0  0  0
  189.1780  174.9330  134.3480 C   0  0  0  0  0  2  0  0  0  0  0  0
  188.8330  173.4570  134.5100 C   0  0  0  0  0  2  0  0  0  0  0  0
  190.0330  172.6510  134.9080 C   0  0  0  0  0  0  0  0  0  0  0  0
  190.0890  171.2860  134.6410 O   0  0  0  0  0  0  0  0  0  0  0  0
  190.9790  173.2020  135.5280 O   0  0  0  0  0  1  0  0  0  0  0  0
  181.4320  176.3540  138.2900 C   0  0  0  0  0  2  0  0  0  0  0  0
  180.3750  174.6620  139.6070 O   0  0  0  0  0  1  0  0  0  0  0  0
  181.4050  175.6040  139.6130 C   0  0  0  0  0  2  0  0  0  0  0  0
  188.2310  178.5510  147.3920 O   0  0  0  0  0  0  0  0  0  0  0  0
  187.1510  178.0330  148.1630 C   0  0  0  0  0  2  0  0  0  0  0  0
  186.0120  179.8380  147.1030 O   0  0  0  0  0  1  0  0  0  0  0  0
  185.8340  178.5530  147.6140 C   0  0  0  0  0  2  0  0  0  0  0  0
  193.1590  176.9370  137.9880 N   0  0  0  0  0  2  0  0  0  0  0  0
  193.7110  175.7300  137.3910 C   0  0  0  0  0  2  0  0  0  0  0  0
  194.9770  177.4260  136.0730 C   0  0  0  0  0  3  0  0  0  0  0  0
  194.6860  176.0800  136.3170 C   0  0  0  0  0  0  0  0  0  0  0  0
  196.4890  176.8310  134.3460 C   0  0  0  0  0  3  0  0  0  0  0  0
  195.3200  175.0870  135.5500 C   0  0  0  0  0  0  0  0  0  0  0  0
  196.2300  175.4750  134.5570 C   0  0  0  0  0  3  0  0  0  0  0  0
  195.8610  177.7710  135.1030 N   0  0  0  0  0  0  0  0  0  0  0  0
  195.8170  172.5700  135.4130 C   0  0  0  0  0  0  0  0  0  0  0  0
  197.0020  172.7280  135.0120 O   0  0  0  0  0  0  0  0  0  0  0  0
  195.0090  173.7030  135.7770 N   0  0  0  0  0  2  0  0  0  0  0  0
  193.8490  171.0690  135.6800 C   0  0  0  0  0  1  0  0  0  0  0  0
  195.2860  171.2460  135.5410 N   0  0  0  0  0  0  0  0  0  0  0  0
  196.0690  170.1670  135.2440 O   0  0  0  0  0  0  0  0  0  0  0  0
  198.0880  169.6160  136.5280 C   0  0  0  0  0  1  0  0  0  0  0  0
  196.1210  168.1520  136.4860 C   0  0  0  0  0  1  0  0  0  0  0  0
  196.5630  169.6000  136.4470 C   0  0  0  0  0  0  0  0  0  0  0  0
  195.9720  170.2900  137.6720 C   0  0  0  0  0  1  0  0  0  0  0  0
  1  9  2  0  0  0  0
  2 16  1  0  0  0  0
  3 10  1  0  0  0  0
  4 11  2  0  0  0  0
  5 13  1  0  0  0  0
  6 14  1  0  0  0  0
  6  5  2  0  0  0  0
  7 17  1  0  0  0  0
  8  4  1  0  0  0  0
  9  2  1  0  0  0  0
 10  7  1  0  0  0  0
 11 15  1  0  0  0  0
 12  7  2  0  0  0  0
 12  8  1  0  0  0  0
 13 10  2  0  0  0  0
 13 12  1  0  0  0  0
 14  3  2  0  0  0  0
 15  2  2  0  0  0  0
 15 43  1  0  0  0  0
 17  4  1  0  0  0  0
 17  1  1  1  0  0  0
 18  8  1  0  0  0  0
 19 18  1  0  0  0  0
 20 21  2  0  0  0  0
 21 19  1  0  0  0  0
 22 23  1  1  0  0  0
 22 24  1  0  0  0  0
 22 20  1  0  0  0  0
 25 40  1  1  0  0  0
 25 24  1  0  0  0  0
 26 30  1  6  0  0  0
 26 28  1  0  0  0  0
 28 27  1  1  0  0  0
 28 25  1  0  0  0  0
 29 26  1  0  0  0  0
 29 28  1  0  0  0  0
 31 30  1  0  0  0  0
 32 33  1  0  0  0  0
 32 31  1  0  0  0  0
 33 34  1  0  0  0  0
 35 36  1  0  0  0  0
 35 34  1  0  0  0  0
 36 37  1  0  0  0  0
 37 39  1  0  0  0  0
 38 37  2  0  0  0  0
 40 42  1  0  0  0  0
 41 42  1  0  0  0  0
 43 44  1  0  0  0  0
 45 46  1  0  0  0  0
 46 44  1  0  0  0  0
 47 14  1  0  0  0  0
 48 47  1  0  0  0  0
 49 50  1  0  0  0  0
 50 48  1  0  0  0  0
 51 53  2  0  0  0  0
 51 54  1  0  0  0  0
 52 57  1  0  0  0  0
 52 50  2  0  0  0  0
 53 52  1  0  0  0  0
 54 49  2  0  0  0  0
 55 59  1  0  0  0  0
 55 57  1  0  0  0  0
 56 55  2  0  0  0  0
 59 58  1  0  0  0  0
 60 59  1  0  0  0  0
 60 63  1  0  0  0  0
 63 62  1  0  0  0  0
 63 61  1  0  0  0  0
 63 64  1  0  0  0  0
M  END
>  <MODEL>
6

>  <REMARK>
 VINA RESULT:      -4.9      3.238      9.505
  Name = 
  26 active torsions:
  status: ('A' for Active; 'I' for Inactive)
    1  A    between atoms: O_2  and  C_5
    2  A    between atoms: O_2  and  C_12
    3  A    between atoms: C_5  and  C_23
    4  A    between atoms: C_9  and  C_31
    5  A    between atoms: C_12  and  C_36
    6  A    between atoms: C_12  and  C_51
    7  A    between atoms: N_16  and  C_18
    8  A    between atoms: N_16  and  C_44
    9  A    between atoms: O_17  and  C_45
   10  A    between atoms: O_17  and  C_57
   11  A    between atoms: C_18  and  C_34
   12  A    between atoms: O_20  and  C_48
   13  A    between atoms: O_20  and  C_54
   14  A    between atoms: N_21  and  C_50
   15  A    between atoms: N_22  and  C_41
   16  A    between atoms: C_24  and  C_48
   17  A    between atoms: C_26  and  C_61
   18  A    between atoms: C_27  and  C_36
   19  A    between atoms: C_31  and  C_38
   20  A    between atoms: C_38  and  N_53
   21  A    between atoms: C_41  and  C_61
   22  A    between atoms: C_45  and  C_49
   23  A    between atoms: C_46  and  O_55
   24  A    between atoms: C_52  and  N_53
   25  A    between atoms: C_52  and  C_54
   26  A    between atoms: O_55  and  N_58
                            x       y       z     vdW  Elec       q    Type
                         _______ _______ _______ _____ _____    ______ ____

>  <TORSDO>
F 26

$$$$
=
 OpenBabel10232410433D

 64 69  0  0  1  0  0  0  0  0999 V2000
  187.6560  178.7080  145.4480 C   0  0  0  0  0  3  0  0  0  0  0  0
  189.0130  177.5930  147.2470 C   0  0  0  0  0  0  0  0  0  0  0  0
  185.1090  178.5750  141.7410 C   0  0  0  0  0  3  0  0  0  0  0  0
  189.2500  177.3070  144.1920 C   0  0  0  0  0  0  0  0  0  0  0  0
  187.3060  178.4440  139.8520 C   0  0  0  0  0  3  0  0  0  0  0  0
  185.9900  178.7550  139.4320 C   0  0  0  0  0  3  0  0  0  0  0  0
  187.3440  177.9140  143.1600 C   0  0  0  0  0  0  0  0  0  0  0  0
  189.5920  177.5320  142.7970 N   0  0  0  0  0  0  0  0  0  0  0  0
  188.2000  178.6920  146.6650 C   0  0  0  0  0  3  0  0  0  0  0  0
  186.4100  178.2750  142.0930 C   0  0  0  0  0  0  0  0  0  0  0  0
  190.1540  176.9580  145.1030 C   0  0  0  0  0  3  0  0  0  0  0  0
  188.3220  177.8770  142.3170 C   0  0  0  0  0  0  0  0  0  0  0  0
  187.4350  178.2150  141.2090 C   0  0  0  0  0  0  0  0  0  0  0  0
  184.9000  178.8200  140.3540 C   0  0  0  0  0  0  0  0  0  0  0  0
  189.9100  176.8330  146.5590 C   0  0  0  0  0  0  0  0  0  0  0  0
  188.8470  177.3930  148.6110 O   0  0  0  0  0  1  0  0  0  0  0  0
  187.7690  177.5490  144.5230 C   0  0  2  0  0  3  0  0  0  0  0  0
  190.6580  176.8750  142.0450 C   0  0  0  0  0  2  0  0  0  0  0  0
  191.3980  177.8810  141.1770 C   0  0  0  0  0  2  0  0  0  0  0  0
  191.4840  176.7470  139.0160 C   0  0  0  0  0  3  0  0  0  0  0  0
  190.9830  177.7370  139.7520 C   0  0  0  0  0  3  0  0  0  0  0  0
  191.1000  176.5720  137.5800 C   0  0  2  0  0  3  0  0  0  0  0  0
  189.7130  177.1430  137.3350 C   0  0  0  0  0  1  0  0  0  0  0  0
  191.1000  175.2090  137.2670 O   0  0  0  0  0  0  0  0  0  0  0  0
  191.5670  175.1310  135.9450 C   0  0  1  0  0  3  0  0  0  0  0  0
  194.0870  175.4140  136.6700 C   0  0  2  0  0  3  0  0  0  0  0  0
  193.3150  173.4130  135.4240 O   0  0  0  0  0  1  0  0  0  0  0  0
  193.0350  174.6970  135.8960 C   0  0  1  0  0  0  0  0  0  0  0  0
  193.8720  175.6550  135.2960 O   0  0  0  0  0  0  0  0  0  0  0  0
  195.3540  174.5910  136.8510 C   0  0  0  0  0  2  0  0  0  0  0  0
  195.6200  174.4350  138.2200 O   0  0  0  0  0  0  0  0  0  0  0  0
  196.8290  173.7330  138.2870 C   0  0  0  0  0  2  0  0  0  0  0  0
  196.8470  172.5770  137.2960 C   0  0  0  0  0  2  0  0  0  0  0  0
  197.8310  171.5850  137.6850 N   0  0  0  0  0  2  0  0  0  0  0  0
  197.8640  170.6090  136.6130 C   0  0  0  0  0  2  0  0  0  0  0  0
  196.4950  170.5010  135.9510 C   0  0  0  0  0  2  0  0  0  0  0  0
  195.6840  169.3870  136.5390 C   0  0  0  0  0  0  0  0  0  0  0  0
  195.8600  169.0060  137.8660 O   0  0  0  0  0  1  0  0  0  0  0  0
  194.8660  168.7590  135.8150 O   0  0  0  0  0  0  0  0  0  0  0  0
  190.6740  174.2090  135.1160 C   0  0  0  0  0  2  0  0  0  0  0  0
  189.5990  172.0790  135.2500 O   0  0  0  0  0  1  0  0  0  0  0  0
  189.9540  173.2020  135.9990 C   0  0  0  0  0  2  0  0  0  0  0  0
  190.7280  175.8840  147.1960 O   0  0  0  0  0  0  0  0  0  0  0  0
  192.1530  175.8770  147.1810 C   0  0  0  0  0  2  0  0  0  0  0  0
  193.9600  176.1790  148.7050 O   0  0  0  0  0  1  0  0  0  0  0  0
  192.6780  175.6430  148.5860 C   0  0  0  0  0  2  0  0  0  0  0  0
  183.5980  179.1440  139.8560 N   0  0  0  0  0  2  0  0  0  0  0  0
  182.5840  178.1490  139.5430 C   0  0  0  0  0  2  0  0  0  0  0  0
  181.0920  179.9140  138.6080 C   0  0  0  0  0  3  0  0  0  0  0  0
  181.6770  178.6520  138.4690 C   0  0  0  0  0  0  0  0  0  0  0  0
  179.9830  179.6770  136.5250 C   0  0  0  0  0  3  0  0  0  0  0  0
  181.4040  177.8870  137.3220 C   0  0  0  0  0  0  0  0  0  0  0  0
  180.5480  178.4120  136.3450 C   0  0  0  0  0  3  0  0  0  0  0  0
  180.2640  180.3950  137.6450 N   0  0  0  0  0  0  0  0  0  0  0  0
  182.9870  176.1800  136.2330 C   0  0  0  0  0  0  0  0  0  0  0  0
  183.5940  177.0410  135.5410 O   0  0  0  0  0  0  0  0  0  0  0  0
  181.9820  176.5800  137.1820 N   0  0  0  0  0  2  0  0  0  0  0  0
  182.4260  173.7870  136.6310 C   0  0  0  0  0  1  0  0  0  0  0  0
  183.3280  174.7970  136.0960 N   0  0  0  0  0  0  0  0  0  0  0  0
  184.3160  174.4220  135.2310 O   0  0  0  0  0  0  0  0  0  0  0  0
  185.9940  174.8280  136.9780 C   0  0  0  0  0  1  0  0  0  0  0  0
  186.4820  173.4990  134.9760 C   0  0  0  0  0  1  0  0  0  0  0  0
  185.3920  173.8570  135.9640 C   0  0  0  0  0  0  0  0  0  0  0  0
  184.9730  172.5700  136.6670 C   0  0  0  0  0  1  0  0  0  0  0  0
  1  9  2  0  0  0  0
  2 16  1  0  0  0  0
  3 10  1  0  0  0  0
  4 17  1  0  0  0  0
  4 11  2  0  0  0  0
  5 13  1  0  0  0  0
  6  5  2  0  0  0  0
  6 14  1  0  0  0  0
  7 17  1  0  0  0  0
  8  4  1  0  0  0  0
  9  2  1  0  0  0  0
 10  7  1  0  0  0  0
 11 15  1  0  0  0  0
 12  8  1  0  0  0  0
 12  7  2  0  0  0  0
 13 10  2  0  0  0  0
 13 12  1  0  0  0  0
 14  3  2  0  0  0  0
 15 43  1  0  0  0  0
 15  2  2  0  0  0  0
 17  1  1  1  0  0  0
 18  8  1  0  0  0  0
 19 18  1  0  0  0  0
 20 21  2  0  0  0  0
 21 19  1  0  0  0  0
 22 23  1  1  0  0  0
 22 20  1  0  0  0  0
 24 22  1  0  0  0  0
 25 40  1  6  0  0  0
 25 24  1  0  0  0  0
 26 30  1  6  0  0  0
 28 27  1  6  0  0  0
 28 25  1  0  0  0  0
 28 26  1  0  0  0  0
 29 28  1  0  0  0  0
 29 26  1  0  0  0  0
 30 31  1  0  0  0  0
 31 32  1  0  0  0  0
 33 34  1  0  0  0  0
 33 32  1  0  0  0  0
 35 34  1  0  0  0  0
 36 37  1  0  0  0  0
 36 35  1  0  0  0  0
 37 38  1  0  0  0  0
 39 37  2  0  0  0  0
 40 42  1  0  0  0  0
 41 42  1  0  0  0  0
 44 43  1  0  0  0  0
 44 46  1  0  0  0  0
 46 45  1  0  0  0  0
 47 14  1  0  0  0  0
 48 47  1  0  0  0  0
 50 49  1  0  0  0  0
 50 48  1  0  0  0  0
 51 54  1  0  0  0  0
 52 50  2  0  0  0  0
 53 51  2  0  0  0  0
 53 52  1  0  0  0  0
 54 49  2  0  0  0  0
 55 57  1  0  0  0  0
 56 55  2  0  0  0  0
 57 52  1  0  0  0  0
 59 55  1  0  0  0  0
 59 58  1  0  0  0  0
 60 63  1  0  0  0  0
 60 59  1  0  0  0  0
 62 63  1  0  0  0  0
 63 64  1  0  0  0  0
 63 61  1  0  0  0  0
M  END
>  <MODEL>
7

>  <REMARK>
 VINA RESULT:      -4.6      2.162      2.975
  Name = 
  26 active torsions:
  status: ('A' for Active; 'I' for Inactive)
    1  A    between atoms: O_2  and  C_5
    2  A    between atoms: O_2  and  C_12
    3  A    between atoms: C_5  and  C_23
    4  A    between atoms: C_9  and  C_31
    5  A    between atoms: C_12  and  C_36
    6  A    between atoms: C_12  and  C_51
    7  A    between atoms: N_16  and  C_18
    8  A    between atoms: N_16  and  C_44
    9  A    between atoms: O_17  and  C_45
   10  A    between atoms: O_17  and  C_57
   11  A    between atoms: C_18  and  C_34
   12  A    between atoms: O_20  and  C_48
   13  A    between atoms: O_20  and  C_54
   14  A    between atoms: N_21  and  C_50
   15  A    between atoms: N_22  and  C_41
   16  A    between atoms: C_24  and  C_48
   17  A    between atoms: C_26  and  C_61
   18  A    between atoms: C_27  and  C_36
   19  A    between atoms: C_31  and  C_38
   20  A    between atoms: C_38  and  N_53
   21  A    between atoms: C_41  and  C_61
   22  A    between atoms: C_45  and  C_49
   23  A    between atoms: C_46  and  O_55
   24  A    between atoms: C_52  and  N_53
   25  A    between atoms: C_52  and  C_54
   26  A    between atoms: O_55  and  N_58
                            x       y       z     vdW  Elec       q    Type
                         _______ _______ _______ _____ _____    ______ ____

>  <TORSDO>
F 26

$$$$
=
 OpenBabel10232410433D

 64 69  0  0  1  0  0  0  0  0999 V2000
  188.2360  177.6410  135.9320 C   0  0  0  0  0  3  0  0  0  0  0  0
  185.7240  177.5740  135.9180 C   0  0  0  0  0  0  0  0  0  0  0  0
  192.2410  176.0540  137.2340 C   0  0  0  0  0  3  0  0  0  0  0  0
  187.6410  177.6070  138.3250 C   0  0  0  0  0  0  0  0  0  0  0  0
  192.2980  177.4070  139.8000 C   0  0  0  0  0  3  0  0  0  0  0  0
  193.4660  176.8300  139.2430 C   0  0  0  0  0  3  0  0  0  0  0  0
  189.7000  176.9070  137.7440 C   0  0  0  0  0  0  0  0  0  0  0  0
  188.5360  178.0450  139.3820 N   0  0  0  0  0  0  0  0  0  0  0  0
  187.0600  177.9310  135.3760 C   0  0  0  0  0  3  0  0  0  0  0  0
  191.1350  176.6330  137.8240 C   0  0  0  0  0  0  0  0  0  0  0  0
  186.3390  177.8770  138.3330 C   0  0  0  0  0  3  0  0  0  0  0  0
  189.7350  177.5250  138.8780 C   0  0  0  0  0  0  0  0  0  0  0  0
  191.1630  177.2650  139.0220 C   0  0  0  0  0  0  0  0  0  0  0  0
  193.4480  176.1600  137.9820 C   0  0  0  0  0  0  0  0  0  0  0  0
  185.3870  177.5760  137.2380 C   0  0  0  0  0  0  0  0  0  0  0  0
  184.7610  177.2670  134.9640 O   0  0  0  0  0  1  0  0  0  0  0  0
  188.3370  176.8470  137.1850 C   0  0  2  0  0  3  0  0  0  0  0  0
  188.1940  178.2360  140.7890 C   0  0  0  0  0  2  0  0  0  0  0  0
  188.6500  177.0420  141.6160 C   0  0  0  0  0  2  0  0  0  0  0  0
  189.3860  178.0220  143.7280 C   0  0  0  0  0  3  0  0  0  0  0  0
  189.7190  177.4540  142.5710 C   0  0  0  0  0  3  0  0  0  0  0  0
  190.4280  178.4560  144.7110 C   0  0  2  0  0  3  0  0  0  0  0  0
  191.5620  179.1700  143.9920 C   0  0  0  0  0  1  0  0  0  0  0  0
  190.9360  177.3330  145.3710 O   0  0  0  0  0  0  0  0  0  0  0  0
  190.3660  177.3660  146.6540 C   0  0  1  0  0  3  0  0  0  0  0  0
  187.8450  178.1430  146.6340 C   0  0  2  0  0  3  0  0  0  0  0  0
  188.4800  175.7910  146.1680 O   0  0  0  0  0  1  0  0  0  0  0  0
  188.8660  177.0580  146.6070 C   0  0  1  0  0  0  0  0  0  0  0  0
  188.1940  177.4140  147.7910 O   0  0  0  0  0  0  0  0  0  0  0  0
  186.4820  177.6860  146.1360 C   0  0  0  0  0  2  0  0  0  0  0  0
  186.5270  177.5080  144.7450 O   0  0  0  0  0  0  0  0  0  0  0  0
  185.8430  178.6040  144.2060 C   0  0  0  0  0  2  0  0  0  0  0  0
  184.3370  178.4460  144.3720 C   0  0  0  0  0  2  0  0  0  0  0  0
  183.7480  179.6650  144.8920 N   0  0  0  0  0  2  0  0  0  0  0  0
  182.5610  179.9090  144.0970 C   0  0  0  0  0  2  0  0  0  0  0  0
  182.2210  178.6830  143.2590 C   0  0  0  0  0  2  0  0  0  0  0  0
  181.2250  179.0060  142.1860 C   0  0  0  0  0  0  0  0  0  0  0  0
  181.6310  179.1520  140.8630 O   0  0  0  0  0  0  0  0  0  0  0  0
  180.0170  179.1920  142.4900 O   0  0  0  0  0  1  0  0  0  0  0  0
  191.1110  176.4200  147.5950 C   0  0  0  0  0  2  0  0  0  0  0  0
  193.1360  175.1820  147.8730 O   0  0  0  0  0  1  0  0  0  0  0  0
  192.3540  175.8490  146.9290 C   0  0  0  0  0  2  0  0  0  0  0  0
  184.0720  177.3370  137.6730 O   0  0  0  0  0  0  0  0  0  0  0  0
  183.6280  177.3760  139.0260 C   0  0  0  0  0  2  0  0  0  0  0  0
  182.5950  175.4140  138.1540 O   0  0  0  0  0  1  0  0  0  0  0  0
  182.7820  176.1510  139.3230 C   0  0  0  0  0  2  0  0  0  0  0  0
  194.6690  175.6050  137.4820 N   0  0  0  0  0  2  0  0  0  0  0  0
  194.7580  174.8240  136.2580 C   0  0  0  0  0  2  0  0  0  0  0  0
  196.8920  175.8330  135.4550 C   0  0  0  0  0  3  0  0  0  0  0  0
  196.1820  174.6880  135.8300 C   0  0  0  0  0  0  0  0  0  0  0  0
  198.8340  174.5390  135.0280 C   0  0  0  0  0  3  0  0  0  0  0  0
  196.8220  173.4370  135.8020 C   0  0  0  0  0  0  0  0  0  0  0  0
  198.1620  173.3710  135.3960 C   0  0  0  0  0  3  0  0  0  0  0  0
  198.1880  175.7360  135.0640 N   0  0  0  0  0  0  0  0  0  0  0  0
  194.9240  171.7310  135.5080 C   0  0  0  0  0  0  0  0  0  0  0  0
  194.5450  172.1990  134.4010 O   0  0  0  0  0  0  0  0  0  0  0  0
  196.0930  172.2540  136.1630 N   0  0  0  0  0  2  0  0  0  0  0  0
  194.4250  170.3230  137.5000 C   0  0  0  0  0  1  0  0  0  0  0  0
  194.2030  170.6440  136.0980 N   0  0  0  0  0  0  0  0  0  0  0  0
  193.1220  170.1140  135.4530 O   0  0  0  0  0  0  0  0  0  0  0  0
  194.6400  168.5310  134.3480 C   0  0  0  0  0  1  0  0  0  0  0  0
  192.2070  168.2310  134.3470 C   0  0  0  0  0  1  0  0  0  0  0  0
  193.3700  168.7460  135.1680 C   0  0  0  0  0  0  0  0  0  0  0  0
  193.4320  167.9130  136.4440 C   0  0  0  0  0  1  0  0  0  0  0  0
  2 15  2  0  0  0  0
  3 10  2  0  0  0  0
  3 14  1  0  0  0  0
  4 11  2  0  0  0  0
  4  8  1  0  0  0  0
  6  5  1  0  0  0  0
  7 10  1  0  0  0  0
  7 12  2  0  0  0  0
  8 18  1  0  0  0  0
  9  2  1  0  0  0  0
  9  1  2  0  0  0  0
 10 13  1  0  0  0  0
 12 13  1  0  0  0  0
 12  8  1  0  0  0  0
 13  5  2  0  0  0  0
 14  6  2  0  0  0  0
 15 43  1  0  0  0  0
 15 11  1  0  0  0  0
 16  2  1  0  0  0  0
 17  1  1  6  0  0  0
 17  7  1  0  0  0  0
 17  4  1  0  0  0  0
 18 19  1  0  0  0  0
 19 21  1  0  0  0  0
 20 22  1  0  0  0  0
 21 20  2  0  0  0  0
 22 23  1  6  0  0  0
 22 24  1  0  0  0  0
 24 25  1  0  0  0  0
 25 40  1  1  0  0  0
 26 30  1  6  0  0  0
 26 29  1  0  0  0  0
 28 27  1  6  0  0  0
 28 26  1  0  0  0  0
 28 25  1  0  0  0  0
 28 29  1  0  0  0  0
 31 30  1  0  0  0  0
 32 33  1  0  0  0  0
 32 31  1  0  0  0  0
 33 34  1  0  0  0  0
 35 34  1  0  0  0  0
 36 35  1  0  0  0  0
 37 39  1  0  0  0  0
 37 36  1  0  0  0  0
 38 37  2  0  0  0  0
 42 40  1  0  0  0  0
 42 41  1  0  0  0  0
 43 44  1  0  0  0  0
 44 46  1  0  0  0  0
 45 46  1  0  0  0  0
 47 14  1  0  0  0  0
 48 47  1  0  0  0  0
 49 50  1  0  0  0  0
 50 48  1  0  0  0  0
 51 54  1  0  0  0  0
 51 53  2  0  0  0  0
 52 50  2  0  0  0  0
 52 57  1  0  0  0  0
 53 52  1  0  0  0  0
 54 49  2  0  0  0  0
 55 59  1  0  0  0  0
 55 57  1  0  0  0  0
 56 55  2  0  0  0  0
 59 58  1  0  0  0  0
 60 59  1  0  0  0  0
 61 63  1  0  0  0  0
 62 63  1  0  0  0  0
 63 60  1  0  0  0  0
 63 64  1  0  0  0  0
M  END
>  <MODEL>
8

>  <REMARK>
 VINA RESULT:      -4.4      3.399     12.523
  Name = 
  26 active torsions:
  status: ('A' for Active; 'I' for Inactive)
    1  A    between atoms: O_2  and  C_5
    2  A    between atoms: O_2  and  C_12
    3  A    between atoms: C_5  and  C_23
    4  A    between atoms: C_9  and  C_31
    5  A    between atoms: C_12  and  C_36
    6  A    between atoms: C_12  and  C_51
    7  A    between atoms: N_16  and  C_18
    8  A    between atoms: N_16  and  C_44
    9  A    between atoms: O_17  and  C_45
   10  A    between atoms: O_17  and  C_57
   11  A    between atoms: C_18  and  C_34
   12  A    between atoms: O_20  and  C_48
   13  A    between atoms: O_20  and  C_54
   14  A    between atoms: N_21  and  C_50
   15  A    between atoms: N_22  and  C_41
   16  A    between atoms: C_24  and  C_48
   17  A    between atoms: C_26  and  C_61
   18  A    between atoms: C_27  and  C_36
   19  A    between atoms: C_31  and  C_38
   20  A    between atoms: C_38  and  N_53
   21  A    between atoms: C_41  and  C_61
   22  A    between atoms: C_45  and  C_49
   23  A    between atoms: C_46  and  O_55
   24  A    between atoms: C_52  and  N_53
   25  A    between atoms: C_52  and  C_54
   26  A    between atoms: O_55  and  N_58
                            x       y       z     vdW  Elec       q    Type
                         _______ _______ _______ _____ _____    ______ ____

>  <TORSDO>
F 26

$$$$
